
     RDKit          3D

 63 66  0  0  0  0  0  0  0  0999 V2000
   -5.3338   -3.3706    1.6181 C   0  0  0  0  0  0  0  0  0  0  0  0
   -4.1123   -2.4954    1.5742 C   0  0  0  0  0  0  0  0  0  0  0  0
   -2.8730   -3.0636    1.9019 C   0  0  0  0  0  0  0  0  0  0  0  0
   -1.7038   -2.2973    1.8907 C   0  0  0  0  0  0  0  0  0  0  0  0
   -1.7381   -0.9418    1.5501 C   0  0  0  0  0  0  0  0  0  0  0  0
   -0.5068   -0.2524    1.5453 N   0  0  0  0  0  0  0  0  0  0  0  0
   -0.2796    1.0564    1.1606 C   0  0  0  0  0  0  0  0  0  0  0  0
   -1.1103    1.8579    0.7527 O   0  0  0  0  0  0  0  0  0  0  0  0
    1.1355    1.5111    1.2694 C   0  0  0  0  0  0  0  0  0  0  0  0
    1.3823    2.8414    1.6393 C   0  0  0  0  0  0  0  0  0  0  0  0
    2.6922    3.3129    1.7591 C   0  0  0  0  0  0  0  0  0  0  0  0
    3.7642    2.4617    1.4964 C   0  0  0  0  0  0  0  0  0  0  0  0
    3.5143    1.1447    1.0977 C   0  0  0  0  0  0  0  0  0  0  0  0
    4.8936    0.0698    0.7622 S   0  0  0  0  0  6  0  0  0  0  0  0
    5.8138    0.2328    1.8683 O   0  0  0  0  0  0  0  0  0  0  0  0
    4.3504   -1.2324    0.4245 O   0  0  0  0  0  0  0  0  0  0  0  0
    5.5612    0.7629   -0.6561 N   0  0  0  0  0  0  0  0  0  0  0  0
    4.6887    0.7197   -1.8535 C   0  0  0  0  0  0  0  0  0  0  0  0
    6.9219    0.3659   -0.9202 C   0  0  0  0  0  0  0  0  0  0  0  0
    7.8660    1.3767   -1.1160 C   0  0  0  0  0  0  0  0  0  0  0  0
    9.1827    1.0510   -1.4464 C   0  0  0  0  0  0  0  0  0  0  0  0
    9.5522   -0.2845   -1.6010 C   0  0  0  0  0  0  0  0  0  0  0  0
    8.6048   -1.2951   -1.4345 C   0  0  0  0  0  0  0  0  0  0  0  0
    7.2873   -0.9710   -1.1046 C   0  0  0  0  0  0  0  0  0  0  0  0
    2.2073    0.6589    0.9831 C   0  0  0  0  0  0  0  0  0  0  0  0
   -2.9662   -0.3567    1.2459 C   0  0  0  0  0  0  0  0  0  0  0  0
   -4.1463   -1.1239    1.2586 C   0  0  0  0  0  0  0  0  0  0  0  0
   -5.6839   -0.2834    0.9017 S   0  0  0  0  0  6  0  0  0  0  0  0
   -5.4254    1.1348    0.7781 O   0  0  0  0  0  0  0  0  0  0  0  0
   -6.6789   -0.7614    1.8380 O   0  0  0  0  0  0  0  0  0  0  0  0
   -6.0805   -0.8715   -0.6480 N   0  0  0  0  0  0  0  0  0  0  0  0
   -5.1687   -0.4874   -1.7735 C   0  0  0  0  0  0  0  0  0  0  0  0
   -5.5102    0.8932   -2.3505 C   0  0  0  0  0  0  0  0  0  0  0  0
   -6.8896    0.9728   -2.7386 O   0  0  0  0  0  0  0  0  0  0  0  0
   -7.7417    0.7320   -1.6083 C   0  0  0  0  0  0  0  0  0  0  0  0
   -7.5090   -0.6737   -1.0490 C   0  0  0  0  0  0  0  0  0  0  0  0
   -5.0581   -4.4309    1.6447 H   0  0  0  0  0  0  0  0  0  0  0  0
   -5.9212   -3.1607    2.5166 H   0  0  0  0  0  0  0  0  0  0  0  0
   -5.9518   -3.2378    0.7264 H   0  0  0  0  0  0  0  0  0  0  0  0
   -2.8058   -4.1169    2.1718 H   0  0  0  0  0  0  0  0  0  0  0  0
   -0.7656   -2.7851    2.1451 H   0  0  0  0  0  0  0  0  0  0  0  0
    0.2841   -0.7801    1.8905 H   0  0  0  0  0  0  0  0  0  0  0  0
    0.5488    3.5128    1.8430 H   0  0  0  0  0  0  0  0  0  0  0  0
    2.8726    4.3430    2.0598 H   0  0  0  0  0  0  0  0  0  0  0  0
    4.7857    2.8240    1.5986 H   0  0  0  0  0  0  0  0  0  0  0  0
    3.7505    1.2497   -1.6681 H   0  0  0  0  0  0  0  0  0  0  0  0
    5.1752    1.2281   -2.6934 H   0  0  0  0  0  0  0  0  0  0  0  0
    4.4710   -0.3100   -2.1534 H   0  0  0  0  0  0  0  0  0  0  0  0
    7.5816    2.4190   -1.0010 H   0  0  0  0  0  0  0  0  0  0  0  0
    9.9195    1.8389   -1.5820 H   0  0  0  0  0  0  0  0  0  0  0  0
   10.5785   -0.5392   -1.8545 H   0  0  0  0  0  0  0  0  0  0  0  0
    8.8913   -2.3362   -1.5626 H   0  0  0  0  0  0  0  0  0  0  0  0
    6.5598   -1.7707   -0.9931 H   0  0  0  0  0  0  0  0  0  0  0  0
    2.0360   -0.3609    0.6494 H   0  0  0  0  0  0  0  0  0  0  0  0
   -3.0321    0.7012    1.0085 H   0  0  0  0  0  0  0  0  0  0  0  0
   -5.2964   -1.2475   -2.5547 H   0  0  0  0  0  0  0  0  0  0  0  0
   -4.1204   -0.5291   -1.4673 H   0  0  0  0  0  0  0  0  0  0  0  0
   -4.9082    1.0705   -3.2483 H   0  0  0  0  0  0  0  0  0  0  0  0
   -5.2883    1.7047   -1.6504 H   0  0  0  0  0  0  0  0  0  0  0  0
   -8.7767    0.8246   -1.9530 H   0  0  0  0  0  0  0  0  0  0  0  0
   -7.5745    1.5092   -0.8537 H   0  0  0  0  0  0  0  0  0  0  0  0
   -7.7315   -1.4206   -1.8219 H   0  0  0  0  0  0  0  0  0  0  0  0
   -8.1841   -0.8785   -0.2124 H   0  0  0  0  0  0  0  0  0  0  0  0
  1  2  1  0
  2  3  2  0
  3  4  1  0
  4  5  2  0
  5  6  1  0
  6  7  1  0
  7  8  2  0
  7  9  1  0
  9 10  2  0
 10 11  1  0
 11 12  2  0
 12 13  1  0
 13 14  1  0
 14 15  2  0
 14 16  2  0
 14 17  1  0
 17 18  1  0
 17 19  1  0
 19 20  2  0
 20 21  1  0
 21 22  2  0
 22 23  1  0
 23 24  2  0
 13 25  2  0
  5 26  1  0
 26 27  2  0
 27 28  1  0
 28 29  2  0
 28 30  2  0
 28 31  1  0
 31 32  1  0
 32 33  1  0
 33 34  1  0
 34 35  1  0
 35 36  1  0
 27  2  1  0
 36 31  1  0
 25  9  1  0
 24 19  1  0
  1 37  1  0
  1 38  1  0
  1 39  1  0
  3 40  1  0
  4 41  1  0
  6 42  1  0
 10 43  1  0
 11 44  1  0
 12 45  1  0
 18 46  1  0
 18 47  1  0
 18 48  1  0
 20 49  1  0
 21 50  1  0
 22 51  1  0
 23 52  1  0
 24 53  1  0
 25 54  1  0
 26 55  1  0
 32 56  1  0
 32 57  1  0
 33 58  1  0
 33 59  1  0
 35 60  1  0
 35 61  1  0
 36 62  1  0
 36 63  1  0
M  END
$$$$
