
     RDKit          3D

 41 44  0  0  0  0  0  0  0  0999 V2000
   -2.2961    2.5731   -2.8592 O   0  0  0  0  0  0  0  0  0  0  0  0
   -1.8049    1.3483   -2.2618 S   0  0  0  0  0  6  0  0  0  0  0  0
   -1.3203    0.2621   -3.0843 O   0  0  0  0  0  0  0  0  0  0  0  0
   -0.6006    1.8201   -1.1726 N   0  0  0  0  0  0  0  0  0  0  0  0
    0.2896    0.8185   -0.6735 C   0  0  0  0  0  0  0  0  0  0  0  0
   -0.1094    0.1238    0.4718 C   0  0  0  0  0  0  0  0  0  0  0  0
    0.6957   -0.8787    1.0132 C   0  0  0  0  0  0  0  0  0  0  0  0
    0.0654   -1.7656    2.4321 S   0  0  0  0  0  0  0  0  0  0  0  0
    1.1881   -1.2940    3.6745 C   0  0  0  0  0  0  0  0  0  0  0  0
    0.8598   -0.4928    4.7302 N   0  0  0  0  0  0  0  0  0  0  0  0
    1.9841   -0.4152    5.4022 C   0  0  0  0  0  0  0  0  0  0  0  0
    2.9414   -1.1468    4.7732 N   0  0  0  0  0  0  0  0  0  0  0  0
    2.4557   -1.7267    3.6607 N   0  0  0  0  0  0  0  0  0  0  0  0
    1.9150   -1.1761    0.3852 C   0  0  0  0  0  0  0  0  0  0  0  0
    2.7489   -2.1496    0.8893 O   0  0  0  0  0  0  0  0  0  0  0  0
    2.3340   -0.4975   -0.7834 C   0  0  0  0  0  0  0  0  0  0  0  0
    3.5551   -0.8011   -1.4238 C   0  0  0  0  0  0  0  0  0  0  0  0
    3.9624   -0.1333   -2.5779 C   0  0  0  0  0  0  0  0  0  0  0  0
    3.1542    0.8539   -3.1209 C   0  0  0  0  0  0  0  0  0  0  0  0
    1.9428    1.1744   -2.5062 C   0  0  0  0  0  0  0  0  0  0  0  0
    1.5082    0.5161   -1.3302 C   0  0  0  0  0  0  0  0  0  0  0  0
   -3.0778    0.7339   -1.1895 C   0  0  0  0  0  0  0  0  0  0  0  0
   -3.8913    1.6396   -0.5017 C   0  0  0  0  0  0  0  0  0  0  0  0
   -4.8927    1.1574    0.3407 C   0  0  0  0  0  0  0  0  0  0  0  0
   -5.0814   -0.2185    0.4855 C   0  0  0  0  0  0  0  0  0  0  0  0
   -4.2755   -1.1180   -0.2151 C   0  0  0  0  0  0  0  0  0  0  0  0
   -3.2730   -0.6445   -1.0611 C   0  0  0  0  0  0  0  0  0  0  0  0
   -0.2003    2.7207   -1.4313 H   0  0  0  0  0  0  0  0  0  0  0  0
   -1.0528    0.3761    0.9510 H   0  0  0  0  0  0  0  0  0  0  0  0
    2.1574    0.1324    6.3178 H   0  0  0  0  0  0  0  0  0  0  0  0
    3.9105   -1.2946    5.0341 H   0  0  0  0  0  0  0  0  0  0  0  0
    2.5425   -2.2649    1.8413 H   0  0  0  0  0  0  0  0  0  0  0  0
    4.1999   -1.5801   -1.0194 H   0  0  0  0  0  0  0  0  0  0  0  0
    4.9042   -0.3942   -3.0526 H   0  0  0  0  0  0  0  0  0  0  0  0
    3.4570    1.3697   -4.0285 H   0  0  0  0  0  0  0  0  0  0  0  0
    1.3277    1.9387   -2.9752 H   0  0  0  0  0  0  0  0  0  0  0  0
   -3.7502    2.7118   -0.6176 H   0  0  0  0  0  0  0  0  0  0  0  0
   -5.5294    1.8523    0.8830 H   0  0  0  0  0  0  0  0  0  0  0  0
   -5.8635   -0.5919    1.1428 H   0  0  0  0  0  0  0  0  0  0  0  0
   -4.4309   -2.1885   -0.1031 H   0  0  0  0  0  0  0  0  0  0  0  0
   -2.6493   -1.3504   -1.6059 H   0  0  0  0  0  0  0  0  0  0  0  0
  1  2  2  0
  2  3  2  0
  2  4  1  0
  4  5  1  0
  5  6  2  0
  6  7  1  0
  7  8  1  0
  8  9  1  0
  9 10  1  0
 10 11  2  0
 11 12  1  0
 12 13  1  0
  7 14  2  0
 14 15  1  0
 14 16  1  0
 16 17  2  0
 17 18  1  0
 18 19  2  0
 19 20  1  0
 20 21  2  0
  2 22  1  0
 22 23  2  0
 23 24  1  0
 24 25  2  0
 25 26  1  0
 26 27  2  0
 21  5  1  0
 27 22  1  0
 13  9  2  0
 21 16  1  0
  4 28  1  0
  6 29  1  0
 11 30  1  0
 12 31  1  0
 15 32  1  0
 17 33  1  0
 18 34  1  0
 19 35  1  0
 20 36  1  0
 23 37  1  0
 24 38  1  0
 25 39  1  0
 26 40  1  0
 27 41  1  0
M  END
$$$$
