
     RDKit          3D

 45 48  0  0  0  0  0  0  0  0999 V2000
    5.0578   -1.5142    1.8065 C   0  0  0  0  0  0  0  0  0  0  0  0
    3.6637   -2.0167    1.4805 C   0  0  0  0  0  0  0  0  0  0  0  0
    2.9738   -1.0176    0.7226 O   0  0  0  0  0  0  0  0  0  0  0  0
    2.5085   -1.4570   -0.4923 C   0  0  0  0  0  0  0  0  0  0  0  0
    3.4023   -1.9831   -1.4364 C   0  0  0  0  0  0  0  0  0  0  0  0
    2.9536   -2.3526   -2.7029 C   0  0  0  0  0  0  0  0  0  0  0  0
    1.6168   -2.1760   -3.0413 C   0  0  0  0  0  0  0  0  0  0  0  0
    0.7309   -1.6252   -2.1120 C   0  0  0  0  0  0  0  0  0  0  0  0
    1.1538   -1.2526   -0.8181 C   0  0  0  0  0  0  0  0  0  0  0  0
    0.1863   -0.6706    0.1228 C   0  0  0  0  0  0  0  0  0  0  0  0
    0.1789   -1.1301    1.3949 N   0  0  0  0  0  0  0  0  0  0  0  0
   -0.7455   -0.5854    2.2241 C   0  0  0  0  0  0  0  0  0  0  0  0
   -0.7678   -1.0815    3.6279 C   0  0  0  0  0  0  0  0  0  0  0  0
    0.1539   -2.0477    3.9265 N   0  0  0  0  0  0  0  0  0  0  0  0
   -1.5588   -0.6602    4.4626 O   0  0  0  0  0  0  0  0  0  0  0  0
   -1.6296    0.3609    1.7997 C   0  0  0  0  0  0  0  0  0  0  0  0
   -2.6588    1.0373    2.4345 N   0  0  0  0  0  0  0  0  0  0  0  0
   -3.2723    1.8903    1.5079 C   0  0  0  0  0  0  0  0  0  0  0  0
   -4.2129    2.6147    1.7889 O   0  0  0  0  0  0  0  0  0  0  0  0
   -2.5738    1.7193    0.2727 N   0  0  0  0  0  0  0  0  0  0  0  0
   -2.8416    2.3739   -0.9604 C   0  0  0  0  0  0  0  0  0  0  0  0
   -4.0063    3.1496   -1.1158 C   0  0  0  0  0  0  0  0  0  0  0  0
   -4.3005    3.8063   -2.3178 C   0  0  0  0  0  0  0  0  0  0  0  0
   -3.4283    3.7005   -3.3872 C   0  0  0  0  0  0  0  0  0  0  0  0
   -3.7055    4.3268   -4.5375 F   0  0  0  0  0  0  0  0  0  0  0  0
   -2.2686    2.9529   -3.2731 C   0  0  0  0  0  0  0  0  0  0  0  0
   -1.9789    2.2972   -2.0687 C   0  0  0  0  0  0  0  0  0  0  0  0
   -1.5548    0.7551    0.4860 C   0  0  0  0  0  0  0  0  0  0  0  0
   -0.6733    0.2458   -0.3792 N   0  0  0  0  0  0  0  0  0  0  0  0
    5.5950   -2.2349    2.4296 H   0  0  0  0  0  0  0  0  0  0  0  0
    5.6337   -1.3416    0.8919 H   0  0  0  0  0  0  0  0  0  0  0  0
    5.0082   -0.5574    2.3368 H   0  0  0  0  0  0  0  0  0  0  0  0
    3.7093   -2.9932    0.9830 H   0  0  0  0  0  0  0  0  0  0  0  0
    3.1055   -2.1586    2.4123 H   0  0  0  0  0  0  0  0  0  0  0  0
    4.4577   -2.0855   -1.2008 H   0  0  0  0  0  0  0  0  0  0  0  0
    3.6507   -2.7614   -3.4301 H   0  0  0  0  0  0  0  0  0  0  0  0
    1.2628   -2.4533   -4.0313 H   0  0  0  0  0  0  0  0  0  0  0  0
   -0.3094   -1.4827   -2.4033 H   0  0  0  0  0  0  0  0  0  0  0  0
    0.1912   -2.4308    4.8605 H   0  0  0  0  0  0  0  0  0  0  0  0
    0.7905   -2.3796    3.2108 H   0  0  0  0  0  0  0  0  0  0  0  0
   -2.9306    0.9300    3.4050 H   0  0  0  0  0  0  0  0  0  0  0  0
   -4.7309    3.2575   -0.3136 H   0  0  0  0  0  0  0  0  0  0  0  0
   -5.2067    4.3958   -2.4158 H   0  0  0  0  0  0  0  0  0  0  0  0
   -1.5872    2.8847   -4.1154 H   0  0  0  0  0  0  0  0  0  0  0  0
   -1.0428    1.7513   -2.0346 H   0  0  0  0  0  0  0  0  0  0  0  0
  1  2  1  0
  2  3  1  0
  3  4  1  0
  4  5  2  0
  5  6  1  0
  6  7  2  0
  7  8  1  0
  8  9  2  0
  9 10  1  0
 10 11  2  0
 11 12  1  0
 12 13  1  0
 13 14  1  0
 13 15  2  0
 12 16  2  0
 16 17  1  0
 17 18  1  0
 18 19  2  0
 18 20  1  0
 20 21  1  0
 21 22  2  0
 22 23  1  0
 23 24  2  0
 24 25  1  0
 24 26  1  0
 26 27  2  0
 20 28  1  0
 28 29  2  0
  9  4  1  0
 29 10  1  0
 28 16  1  0
 27 21  1  0
  1 30  1  0
  1 31  1  0
  1 32  1  0
  2 33  1  0
  2 34  1  0
  5 35  1  0
  6 36  1  0
  7 37  1  0
  8 38  1  0
 14 39  1  0
 14 40  1  0
 17 41  1  0
 22 42  1  0
 23 43  1  0
 26 44  1  0
 27 45  1  0
M  END
$$$$
