
     RDKit          3D

 37 39  0  0  0  0  0  0  0  0999 V2000
   -7.7370    1.7156   -0.8680 C   0  0  0  0  0  0  0  0  0  0  0  0
   -7.0430    0.7373    0.0688 C   0  0  0  0  0  0  0  0  0  0  0  0
   -5.5561    0.8876    0.0587 C   0  0  0  0  0  0  0  0  0  0  0  0
   -4.8925    1.9654   -0.3051 N   0  0  0  0  0  0  0  0  0  0  0  0
   -3.5267    1.7932   -0.1991 N   0  0  0  0  0  0  0  0  0  0  0  0
   -3.2089    0.5967    0.2434 C   0  0  0  0  0  0  0  0  0  0  0  0
   -1.9089    0.2032    0.4218 N   0  0  0  0  0  0  0  0  0  0  0  0
   -1.4554   -1.0257    0.8403 C   0  0  0  0  0  0  0  0  0  0  0  0
   -2.1375   -2.0046    1.1327 O   0  0  0  0  0  0  0  0  0  0  0  0
    0.0716   -1.0987    0.9303 C   0  0  0  0  0  0  0  0  0  0  0  0
    0.6769    0.0962    0.4397 O   0  0  0  0  0  0  0  0  0  0  0  0
    2.0206    0.0183    0.1889 C   0  0  0  0  0  0  0  0  0  0  0  0
    2.5059    0.9289   -0.7481 C   0  0  0  0  0  0  0  0  0  0  0  0
    3.8583    0.9326   -1.0963 C   0  0  0  0  0  0  0  0  0  0  0  0
    4.7515    0.0303   -0.5000 C   0  0  0  0  0  0  0  0  0  0  0  0
    6.1133    0.0144   -0.8426 C   0  0  0  0  0  0  0  0  0  0  0  0
    6.9909   -0.8836   -0.2344 C   0  0  0  0  0  0  0  0  0  0  0  0
    6.5189   -1.7748    0.7246 C   0  0  0  0  0  0  0  0  0  0  0  0
    5.1675   -1.7731    1.0744 C   0  0  0  0  0  0  0  0  0  0  0  0
    4.2692   -0.8791    0.4696 C   0  0  0  0  0  0  0  0  0  0  0  0
    2.9034   -0.8708    0.8066 C   0  0  0  0  0  0  0  0  0  0  0  0
   -4.5458   -0.4025    0.5781 S   0  0  0  0  0  0  0  0  0  0  0  0
   -7.5579    2.7522   -0.5603 H   0  0  0  0  0  0  0  0  0  0  0  0
   -7.3814    1.6011   -1.8981 H   0  0  0  0  0  0  0  0  0  0  0  0
   -8.8184    1.5447   -0.8603 H   0  0  0  0  0  0  0  0  0  0  0  0
   -7.3202   -0.2831   -0.2244 H   0  0  0  0  0  0  0  0  0  0  0  0
   -7.4100    0.8938    1.0902 H   0  0  0  0  0  0  0  0  0  0  0  0
   -1.2170    0.9061    0.1842 H   0  0  0  0  0  0  0  0  0  0  0  0
    0.3254   -1.2380    1.9868 H   0  0  0  0  0  0  0  0  0  0  0  0
    0.3842   -1.9641    0.3331 H   0  0  0  0  0  0  0  0  0  0  0  0
    1.8303    1.6365   -1.2218 H   0  0  0  0  0  0  0  0  0  0  0  0
    4.2088    1.6439   -1.8398 H   0  0  0  0  0  0  0  0  0  0  0  0
    6.5015    0.7037   -1.5896 H   0  0  0  0  0  0  0  0  0  0  0  0
    8.0428   -0.8854   -0.5093 H   0  0  0  0  0  0  0  0  0  0  0  0
    7.2021   -2.4743    1.2007 H   0  0  0  0  0  0  0  0  0  0  0  0
    4.8197   -2.4799    1.8253 H   0  0  0  0  0  0  0  0  0  0  0  0
    2.5535   -1.5637    1.5660 H   0  0  0  0  0  0  0  0  0  0  0  0
  1  2  1  0
  2  3  1  0
  3  4  2  0
  4  5  1  0
  5  6  2  0
  6  7  1  0
  7  8  1  0
  8  9  2  0
  8 10  1  0
 10 11  1  0
 11 12  1  0
 12 13  2  0
 13 14  1  0
 14 15  2  0
 15 16  1  0
 16 17  2  0
 17 18  1  0
 18 19  2  0
 19 20  1  0
 20 21  2  0
  6 22  1  0
 22  3  1  0
 21 12  1  0
 20 15  1  0
  1 23  1  0
  1 24  1  0
  1 25  1  0
  2 26  1  0
  2 27  1  0
  7 28  1  0
 10 29  1  0
 10 30  1  0
 13 31  1  0
 14 32  1  0
 16 33  1  0
 17 34  1  0
 18 35  1  0
 19 36  1  0
 21 37  1  0
M  END
$$$$
