
     RDKit          3D

 58 61  0  0  0  0  0  0  0  0999 V2000
    2.5002   -1.4154   -3.7961 C   0  0  0  0  0  0  0  0  0  0  0  0
    2.7772   -1.6588   -2.3323 C   0  0  0  0  0  0  0  0  0  0  0  0
    3.0904   -2.9624   -1.9219 C   0  0  0  0  0  0  0  0  0  0  0  0
    3.4239   -3.2296   -0.5975 C   0  0  0  0  0  0  0  0  0  0  0  0
    3.4654   -2.1962    0.3358 C   0  0  0  0  0  0  0  0  0  0  0  0
    3.1395   -0.8861   -0.0311 C   0  0  0  0  0  0  0  0  0  0  0  0
    3.1842    0.1864    0.8961 N   0  0  0  0  0  0  0  0  0  0  0  0
    3.6004    0.1697    2.2140 C   0  0  0  0  0  0  0  0  0  0  0  0
    4.0340   -0.7892    2.8451 O   0  0  0  0  0  0  0  0  0  0  0  0
    3.5756    1.5173    2.8640 C   0  0  0  0  0  0  0  0  0  0  0  0
    4.7651    1.9088    3.5410 C   0  0  0  0  0  0  0  0  0  0  0  0
    5.7129    2.2929    4.0906 N   0  0  0  0  0  0  0  0  0  0  0  0
    2.5106    2.3444    2.8618 C   0  0  0  0  0  0  0  0  0  0  0  0
    1.2040    2.1003    2.3378 C   0  0  0  0  0  0  0  0  0  0  0  0
    0.5199    0.9104    2.4401 C   0  0  0  0  0  0  0  0  0  0  0  0
   -0.6866    1.0588    1.8043 N   0  0  0  0  0  0  0  0  0  0  0  0
   -1.7159    0.0314    1.7669 C   0  0  0  0  0  0  0  0  0  0  0  0
   -1.8574   -0.6360    0.4134 C   0  0  0  0  0  0  0  0  0  0  0  0
   -0.9754   -0.6796   -0.4376 O   0  0  0  0  0  0  0  0  0  0  0  0
   -3.0902   -1.2294    0.2302 N   0  0  0  0  0  0  0  0  0  0  0  0
   -3.3356   -2.0792   -0.9157 C   0  0  0  0  0  0  0  0  0  0  0  0
   -4.7780   -2.4314   -0.9519 C   0  0  0  0  0  0  0  0  0  0  0  0
   -5.6936   -2.5720   -1.9776 C   0  0  0  0  0  0  0  0  0  0  0  0
   -6.9262   -2.9226   -1.3738 C   0  0  0  0  0  0  0  0  0  0  0  0
   -6.6870   -2.9769   -0.0211 C   0  0  0  0  0  0  0  0  0  0  0  0
   -5.3862   -2.6832    0.2477 O   0  0  0  0  0  0  0  0  0  0  0  0
   -0.8134    2.3446    1.3178 C   0  0  0  0  0  0  0  0  0  0  0  0
   -1.8579    2.9608    0.6086 C   0  0  0  0  0  0  0  0  0  0  0  0
   -1.7028    4.3001    0.2407 C   0  0  0  0  0  0  0  0  0  0  0  0
   -0.5484    5.0048    0.5667 C   0  0  0  0  0  0  0  0  0  0  0  0
    0.4922    4.3805    1.2639 C   0  0  0  0  0  0  0  0  0  0  0  0
    0.3625    3.0275    1.6520 C   0  0  0  0  0  0  0  0  0  0  0  0
    2.7758   -0.6086   -1.3802 C   0  0  0  0  0  0  0  0  0  0  0  0
    2.4014    0.7981   -1.7931 C   0  0  0  0  0  0  0  0  0  0  0  0
    1.4913   -1.0123   -3.9490 H   0  0  0  0  0  0  0  0  0  0  0  0
    3.2417   -0.7187   -4.2074 H   0  0  0  0  0  0  0  0  0  0  0  0
    2.5665   -2.3413   -4.3788 H   0  0  0  0  0  0  0  0  0  0  0  0
    3.1190   -3.7757   -2.6476 H   0  0  0  0  0  0  0  0  0  0  0  0
    3.6770   -4.2424   -0.2936 H   0  0  0  0  0  0  0  0  0  0  0  0
    3.7623   -2.4469    1.3473 H   0  0  0  0  0  0  0  0  0  0  0  0
    2.8700    1.0806    0.5383 H   0  0  0  0  0  0  0  0  0  0  0  0
    2.6363    3.3238    3.3221 H   0  0  0  0  0  0  0  0  0  0  0  0
    0.7908   -0.0335    2.8983 H   0  0  0  0  0  0  0  0  0  0  0  0
   -2.6585    0.4996    2.0679 H   0  0  0  0  0  0  0  0  0  0  0  0
   -1.4650   -0.7340    2.5100 H   0  0  0  0  0  0  0  0  0  0  0  0
   -3.7034   -1.3747    1.0247 H   0  0  0  0  0  0  0  0  0  0  0  0
   -2.7247   -2.9822   -0.8103 H   0  0  0  0  0  0  0  0  0  0  0  0
   -3.0290   -1.5528   -1.8264 H   0  0  0  0  0  0  0  0  0  0  0  0
   -5.4928   -2.4469   -3.0316 H   0  0  0  0  0  0  0  0  0  0  0  0
   -7.8714   -3.1187   -1.8635 H   0  0  0  0  0  0  0  0  0  0  0  0
   -7.3021   -3.2071    0.8382 H   0  0  0  0  0  0  0  0  0  0  0  0
   -2.7501    2.4170    0.3249 H   0  0  0  0  0  0  0  0  0  0  0  0
   -2.4950    4.7967   -0.3180 H   0  0  0  0  0  0  0  0  0  0  0  0
   -0.4484    6.0472    0.2744 H   0  0  0  0  0  0  0  0  0  0  0  0
    1.3972    4.9389    1.4957 H   0  0  0  0  0  0  0  0  0  0  0  0
    3.2588    1.4682   -1.6607 H   0  0  0  0  0  0  0  0  0  0  0  0
    1.5589    1.1564   -1.1913 H   0  0  0  0  0  0  0  0  0  0  0  0
    2.0899    0.8784   -2.8363 H   0  0  0  0  0  0  0  0  0  0  0  0
  1  2  1  0
  2  3  2  0
  3  4  1  0
  4  5  2  0
  5  6  1  0
  6  7  1  0
  7  8  1  0
  8  9  2  0
  8 10  1  0
 10 11  1  0
 11 12  3  0
 10 13  2  3
 13 14  1  0
 14 15  2  0
 15 16  1  0
 16 17  1  0
 17 18  1  0
 18 19  2  0
 18 20  1  0
 20 21  1  0
 21 22  1  0
 22 23  2  0
 23 24  1  0
 24 25  2  0
 25 26  1  0
 16 27  1  0
 27 28  2  0
 28 29  1  0
 29 30  2  0
 30 31  1  0
 31 32  2  0
  6 33  2  0
 33 34  1  0
 33  2  1  0
 32 14  1  0
 26 22  1  0
 32 27  1  0
  1 35  1  0
  1 36  1  0
  1 37  1  0
  3 38  1  0
  4 39  1  0
  5 40  1  0
  7 41  1  0
 13 42  1  0
 15 43  1  0
 17 44  1  0
 17 45  1  0
 20 46  1  0
 21 47  1  0
 21 48  1  0
 23 49  1  0
 24 50  1  0
 25 51  1  0
 28 52  1  0
 29 53  1  0
 30 54  1  0
 31 55  1  0
 34 56  1  0
 34 57  1  0
 34 58  1  0
M  END
$$$$
