
     RDKit          3D

 48 49  0  0  0  0  0  0  0  0999 V2000
   -5.1704   -2.3979    0.3330 C   0  0  0  0  0  0  0  0  0  0  0  0
   -4.7943   -1.3578   -0.7111 C   0  0  0  0  0  0  0  0  0  0  0  0
   -5.2141   -0.0034   -0.3312 N   0  0  0  0  0  0  0  0  0  0  0  0
   -6.6214    0.3446   -0.5295 C   0  0  0  0  0  0  0  0  0  0  0  0
   -6.9084    0.8158   -1.9478 C   0  0  0  0  0  0  0  0  0  0  0  0
   -4.3350    1.0404   -0.0282 C   0  0  0  0  0  0  0  0  0  0  0  0
   -4.6755    2.2191    0.0467 O   0  0  0  0  0  0  0  0  0  0  0  0
   -2.9095    0.7369    0.2094 C   0  0  0  0  0  0  0  0  0  0  0  0
   -2.5190   -0.0404    1.3009 C   0  0  0  0  0  0  0  0  0  0  0  0
   -1.1619   -0.3023    1.5190 C   0  0  0  0  0  0  0  0  0  0  0  0
   -0.1923    0.2244    0.6613 C   0  0  0  0  0  0  0  0  0  0  0  0
    1.1888    0.0097    0.8139 N   0  0  0  0  0  0  0  0  0  0  0  0
    1.8385   -0.7504    1.7695 C   0  0  0  0  0  0  0  0  0  0  0  0
    1.3154   -1.4013    2.6697 O   0  0  0  0  0  0  0  0  0  0  0  0
    3.3637   -0.7221    1.6203 C   0  0  0  0  0  0  0  0  0  0  0  0
    3.7484    0.0416    0.4805 O   0  0  0  0  0  0  0  0  0  0  0  0
    5.0833    0.1705    0.2067 C   0  0  0  0  0  0  0  0  0  0  0  0
    6.1098   -0.3990    0.9675 C   0  0  0  0  0  0  0  0  0  0  0  0
    7.4484   -0.2087    0.6038 C   0  0  0  0  0  0  0  0  0  0  0  0
    7.7624    0.5556   -0.5275 C   0  0  0  0  0  0  0  0  0  0  0  0
    9.1671    0.7525   -0.9066 N   0  0  0  0  0  4  0  0  0  0  0  0
   10.0332    0.2259   -0.1946 O   0  0  0  0  0  0  0  0  0  0  0  0
    9.4005    1.4323   -1.9150 O   0  0  0  0  0  1  0  0  0  0  0  0
    6.7492    1.1319   -1.2990 C   0  0  0  0  0  0  0  0  0  0  0  0
    5.4175    0.9354   -0.9269 C   0  0  0  0  0  0  0  0  0  0  0  0
    4.1860    1.6616   -1.9029 Cl  0  0  0  0  0  0  0  0  0  0  0  0
   -0.5962    1.0275   -0.4152 C   0  0  0  0  0  0  0  0  0  0  0  0
   -1.9503    1.2903   -0.6394 C   0  0  0  0  0  0  0  0  0  0  0  0
   -4.7390   -2.1597    1.3092 H   0  0  0  0  0  0  0  0  0  0  0  0
   -6.2554   -2.4646    0.4587 H   0  0  0  0  0  0  0  0  0  0  0  0
   -4.8071   -3.3849    0.0301 H   0  0  0  0  0  0  0  0  0  0  0  0
   -5.2666   -1.6052   -1.6683 H   0  0  0  0  0  0  0  0  0  0  0  0
   -3.7158   -1.3933   -0.8859 H   0  0  0  0  0  0  0  0  0  0  0  0
   -7.2433   -0.5224   -0.2854 H   0  0  0  0  0  0  0  0  0  0  0  0
   -6.8933    1.1409    0.1730 H   0  0  0  0  0  0  0  0  0  0  0  0
   -6.3087    1.6952   -2.2034 H   0  0  0  0  0  0  0  0  0  0  0  0
   -6.6812    0.0342   -2.6795 H   0  0  0  0  0  0  0  0  0  0  0  0
   -7.9649    1.0815   -2.0518 H   0  0  0  0  0  0  0  0  0  0  0  0
   -3.2605   -0.4304    1.9924 H   0  0  0  0  0  0  0  0  0  0  0  0
   -0.8947   -0.9113    2.3771 H   0  0  0  0  0  0  0  0  0  0  0  0
    1.8020    0.4601    0.1385 H   0  0  0  0  0  0  0  0  0  0  0  0
    3.6965   -1.7602    1.5078 H   0  0  0  0  0  0  0  0  0  0  0  0
    3.7685   -0.2708    2.5331 H   0  0  0  0  0  0  0  0  0  0  0  0
    5.9076   -0.9979    1.8511 H   0  0  0  0  0  0  0  0  0  0  0  0
    8.2301   -0.6622    1.2122 H   0  0  0  0  0  0  0  0  0  0  0  0
    6.9812    1.7274   -2.1795 H   0  0  0  0  0  0  0  0  0  0  0  0
    0.1362    1.4646   -1.0899 H   0  0  0  0  0  0  0  0  0  0  0  0
   -2.2554    1.9263   -1.4669 H   0  0  0  0  0  0  0  0  0  0  0  0
  1  2  1  0
  2  3  1  0
  3  4  1  0
  4  5  1  0
  3  6  1  0
  6  7  2  0
  6  8  1  0
  8  9  2  0
  9 10  1  0
 10 11  2  0
 11 12  1  0
 12 13  1  0
 13 14  2  0
 13 15  1  0
 15 16  1  0
 16 17  1  0
 17 18  2  0
 18 19  1  0
 19 20  2  0
 20 21  1  0
 21 22  2  0
 21 23  1  0
 20 24  1  0
 24 25  2  0
 25 26  1  0
 11 27  1  0
 27 28  2  0
 28  8  1  0
 25 17  1  0
  1 29  1  0
  1 30  1  0
  1 31  1  0
  2 32  1  0
  2 33  1  0
  4 34  1  0
  4 35  1  0
  5 36  1  0
  5 37  1  0
  5 38  1  0
  9 39  1  0
 10 40  1  0
 12 41  1  0
 15 42  1  0
 15 43  1  0
 18 44  1  0
 19 45  1  0
 24 46  1  0
 27 47  1  0
 28 48  1  0
M  CHG  2  21   1  23  -1
M  END
$$$$
