
     RDKit          3D

 57 61  0  0  0  0  0  0  0  0999 V2000
    0.4330   -1.4720    1.3464 O   0  0  0  0  0  0  0  0  0  0  0  0
    0.6882   -0.6492    0.1964 C   0  0  0  0  0  0  0  0  0  0  0  0
    1.0377    0.7800    0.6467 C   0  0  0  0  0  0  0  0  0  0  0  0
    2.1814    0.7648    1.5625 N   0  0  0  0  0  0  0  0  0  0  0  0
    3.4819    0.6870    1.1096 C   0  0  0  0  0  0  0  0  0  0  0  0
    3.7216    0.3268   -0.1226 N   0  0  0  0  0  0  0  0  0  0  0  0
    5.0477    0.2484   -0.5953 C   0  0  0  0  0  0  0  0  0  0  0  0
    5.2581   -0.1400   -1.9196 C   0  0  0  0  0  0  0  0  0  0  0  0
    6.5525   -0.2321   -2.4388 C   0  0  0  0  0  0  0  0  0  0  0  0
    7.6533    0.0645   -1.6339 C   0  0  0  0  0  0  0  0  0  0  0  0
    7.4674    0.4545   -0.3072 C   0  0  0  0  0  0  0  0  0  0  0  0
    6.1671    0.5428    0.1981 C   0  0  0  0  0  0  0  0  0  0  0  0
    5.8899    0.9250    1.5210 N   0  0  0  0  0  0  0  0  0  0  0  0
    6.7512    1.2698    2.5351 C   0  0  0  0  0  0  0  0  0  0  0  0
    6.0028    1.5568    3.6568 C   0  0  0  0  0  0  0  0  0  0  0  0
    4.6416    1.3822    3.3114 C   0  0  0  0  0  0  0  0  0  0  0  0
    4.5952    0.9982    1.9834 C   0  0  0  0  0  0  0  0  0  0  0  0
   -0.4955   -0.6903   -0.7991 C   0  0  0  0  0  0  0  0  0  0  0  0
   -1.6602    0.1594   -0.4699 N   0  0  0  0  0  0  0  0  0  0  0  0
   -2.5088    0.3405   -1.6730 C   0  0  0  0  0  0  0  0  0  0  0  0
   -3.9821    0.7014   -1.3725 C   0  0  0  0  0  0  0  0  0  0  0  0
   -4.6233   -0.3660   -0.5901 N   0  0  0  0  0  0  0  0  0  0  0  0
   -5.9920   -0.5727   -0.6143 C   0  0  0  0  0  0  0  0  0  0  0  0
   -6.5660   -1.7817   -0.1867 C   0  0  0  0  0  0  0  0  0  0  0  0
   -7.9497   -1.9994   -0.2101 C   0  0  0  0  0  0  0  0  0  0  0  0
   -8.8038   -1.0038   -0.6663 C   0  0  0  0  0  0  0  0  0  0  0  0
   -8.2708    0.2039   -1.0981 C   0  0  0  0  0  0  0  0  0  0  0  0
   -6.8853    0.4105   -1.0715 C   0  0  0  0  0  0  0  0  0  0  0  0
   -3.7359   -1.1638    0.2732 C   0  0  0  0  0  0  0  0  0  0  0  0
   -2.4649   -0.3678    0.6569 C   0  0  0  0  0  0  0  0  0  0  0  0
    1.2040   -1.3179    1.9264 H   0  0  0  0  0  0  0  0  0  0  0  0
    1.5477   -1.1070   -0.3061 H   0  0  0  0  0  0  0  0  0  0  0  0
    1.2344    1.4346   -0.2098 H   0  0  0  0  0  0  0  0  0  0  0  0
    0.1961    1.2065    1.2038 H   0  0  0  0  0  0  0  0  0  0  0  0
    2.0533    1.3547    2.3764 H   0  0  0  0  0  0  0  0  0  0  0  0
    4.4037   -0.3726   -2.5496 H   0  0  0  0  0  0  0  0  0  0  0  0
    6.6996   -0.5362   -3.4721 H   0  0  0  0  0  0  0  0  0  0  0  0
    8.6583   -0.0096   -2.0429 H   0  0  0  0  0  0  0  0  0  0  0  0
    8.3384    0.6787    0.2995 H   0  0  0  0  0  0  0  0  0  0  0  0
    7.8221    1.2837    2.3936 H   0  0  0  0  0  0  0  0  0  0  0  0
    6.3975    1.8558    4.6195 H   0  0  0  0  0  0  0  0  0  0  0  0
    3.7923    1.5204    3.9670 H   0  0  0  0  0  0  0  0  0  0  0  0
   -0.0905   -0.3440   -1.7598 H   0  0  0  0  0  0  0  0  0  0  0  0
   -0.8190   -1.7298   -0.9401 H   0  0  0  0  0  0  0  0  0  0  0  0
   -2.0680    1.1306   -2.2921 H   0  0  0  0  0  0  0  0  0  0  0  0
   -2.5119   -0.5790   -2.2757 H   0  0  0  0  0  0  0  0  0  0  0  0
   -4.4871    0.8346   -2.3368 H   0  0  0  0  0  0  0  0  0  0  0  0
   -4.0359    1.6495   -0.8238 H   0  0  0  0  0  0  0  0  0  0  0  0
   -5.9373   -2.5985    0.1564 H   0  0  0  0  0  0  0  0  0  0  0  0
   -8.3518   -2.9516    0.1249 H   0  0  0  0  0  0  0  0  0  0  0  0
   -9.8772   -1.1681   -0.6856 H   0  0  0  0  0  0  0  0  0  0  0  0
   -8.9274    0.9934   -1.4534 H   0  0  0  0  0  0  0  0  0  0  0  0
   -6.5190    1.3792   -1.3988 H   0  0  0  0  0  0  0  0  0  0  0  0
   -3.4561   -2.0895   -0.2438 H   0  0  0  0  0  0  0  0  0  0  0  0
   -4.2424   -1.4333    1.2080 H   0  0  0  0  0  0  0  0  0  0  0  0
   -2.7850    0.5060    1.2406 H   0  0  0  0  0  0  0  0  0  0  0  0
   -1.8709   -0.9685    1.3491 H   0  0  0  0  0  0  0  0  0  0  0  0
  1  2  1  0
  2  3  1  0
  3  4  1  0
  4  5  1  0
  5  6  2  0
  6  7  1  0
  7  8  2  0
  8  9  1  0
  9 10  2  0
 10 11  1  0
 11 12  2  0
 12 13  1  0
 13 14  1  0
 14 15  2  0
 15 16  1  0
 16 17  2  0
  2 18  1  0
 18 19  1  0
 19 20  1  0
 20 21  1  0
 21 22  1  0
 22 23  1  0
 23 24  2  0
 24 25  1  0
 25 26  2  0
 26 27  1  0
 27 28  2  0
 22 29  1  0
 29 30  1  0
 17  5  1  0
 30 19  1  0
 12  7  1  0
 17 13  1  0
 28 23  1  0
  1 31  1  0
  2 32  1  0
  3 33  1  0
  3 34  1  0
  4 35  1  0
  8 36  1  0
  9 37  1  0
 10 38  1  0
 11 39  1  0
 14 40  1  0
 15 41  1  0
 16 42  1  0
 18 43  1  0
 18 44  1  0
 20 45  1  0
 20 46  1  0
 21 47  1  0
 21 48  1  0
 24 49  1  0
 25 50  1  0
 26 51  1  0
 27 52  1  0
 28 53  1  0
 29 54  1  0
 29 55  1  0
 30 56  1  0
 30 57  1  0
M  END
$$$$
