
     RDKit          3D

 93 97  0  0  0  0  0  0  0  0999 V2000
   -5.7728   -0.9080   -6.0300 C   0  0  0  0  0  0  0  0  0  0  0  0
   -5.4345   -0.7355   -4.5591 C   0  0  0  0  0  0  0  0  0  0  0  0
   -4.8541   -2.0173   -3.9670 C   0  0  0  0  0  0  0  0  0  0  0  0
   -4.5632   -1.9282   -2.4889 C   0  0  0  0  0  0  0  0  0  0  0  0
   -4.7497   -2.8550   -1.7122 O   0  0  0  0  0  0  0  0  0  0  0  0
   -3.9922   -0.7393   -2.1567 O   0  0  0  0  0  0  0  0  0  0  0  0
   -3.5680   -0.6168   -0.7874 C   0  0  0  0  0  0  0  0  0  0  0  0
   -2.1551   -1.1728   -0.6414 C   0  0  1  0  0  0  0  0  0  0  0  0
   -1.1087   -0.3432   -1.4017 C   0  0  0  0  0  0  0  0  0  0  0  0
    0.2610   -0.5112   -0.6396 C   0  0  2  0  0  0  0  0  0  0  0  0
    0.6151    0.7761   -0.1416 O   0  0  0  0  0  0  0  0  0  0  0  0
    0.8476    1.7697   -1.0316 C   0  0  0  0  0  0  0  0  0  0  0  0
    0.9219    1.6596   -2.2422 O   0  0  0  0  0  0  0  0  0  0  0  0
    0.9585    3.0309   -0.2725 C   0  0  0  0  0  0  0  0  0  0  0  0
    1.0075    4.2026   -0.9217 C   0  0  0  0  0  0  0  0  0  0  0  0
    1.0958    5.5270   -0.2832 C   0  0  0  0  0  0  0  0  0  0  0  0
    1.5170    6.6181   -1.0584 C   0  0  0  0  0  0  0  0  0  0  0  0
    1.5849    7.9029   -0.5111 C   0  0  0  0  0  0  0  0  0  0  0  0
    1.2250    8.1180    0.8168 C   0  0  0  0  0  0  0  0  0  0  0  0
    0.7988    7.0478    1.5995 C   0  0  0  0  0  0  0  0  0  0  0  0
    0.7279    5.7632    1.0503 C   0  0  0  0  0  0  0  0  0  0  0  0
    1.2697   -1.3184   -1.5275 C   0  0  0  0  0  0  0  0  0  0  0  0
    0.8863   -2.0879   -2.4148 O   0  0  0  0  0  0  0  0  0  0  0  0
    2.7370   -1.2559   -1.2554 C   0  0  0  0  0  0  0  0  0  0  0  0
    3.4771   -0.1112   -1.8781 C   0  0  0  0  0  0  0  0  0  0  0  0
    3.3693   -2.2696   -0.6240 C   0  0  0  0  0  0  0  0  0  0  0  0
    2.8060   -3.4942   -0.0257 C   0  0  0  0  0  0  0  0  0  0  0  0
    2.9664   -3.7963    1.4597 C   0  0  2  0  0  0  0  0  0  0  0  0
    3.6956   -2.9031    2.4336 C   0  0  0  0  0  0  0  0  0  0  0  0
    2.7580   -1.9679    3.2182 C   0  0  0  0  0  0  0  0  0  0  0  0
    2.0216   -1.0260    2.2877 C   0  0  2  0  0  0  0  0  0  0  0  0
    2.8500    0.1325    1.8209 C   0  0  0  0  0  0  0  0  0  0  0  0
    0.7441   -0.5335    2.7460 O   0  0  0  0  0  0  0  0  0  0  0  0
    0.6656   -1.5926    1.8011 C   0  0  1  0  0  0  0  0  0  0  0  0
   -0.1273   -1.4370    0.5431 C   0  0  1  0  0  0  0  0  0  0  0  0
   -1.6257   -1.1880    0.7888 C   0  0  1  0  0  0  0  0  0  0  0  0
   -1.8363    0.0958    1.3939 O   0  0  0  0  0  0  0  0  0  0  0  0
   -2.2401    0.0920    2.6948 C   0  0  0  0  0  0  0  0  0  0  0  0
   -2.5369   -0.8984    3.3484 O   0  0  0  0  0  0  0  0  0  0  0  0
   -2.3183    1.5036    3.2101 C   0  0  0  0  0  0  0  0  0  0  0  0
   -3.7237    2.0612    3.0189 C   0  0  0  0  0  0  0  0  0  0  0  0
   -3.7816    3.5373    3.3717 C   0  0  0  0  0  0  0  0  0  0  0  0
    3.6916   -4.6515    0.4294 C   0  0  0  0  0  0  0  0  0  0  0  0
    5.1950   -4.5892    0.2961 C   0  0  0  0  0  0  0  0  0  0  0  0
    3.1499   -6.0487    0.2079 C   0  0  0  0  0  0  0  0  0  0  0  0
   -4.8818   -1.1626   -6.6119 H   0  0  0  0  0  0  0  0  0  0  0  0
   -6.1888    0.0196   -6.4346 H   0  0  0  0  0  0  0  0  0  0  0  0
   -6.5098   -1.7024   -6.1716 H   0  0  0  0  0  0  0  0  0  0  0  0
   -4.7208    0.0911   -4.4505 H   0  0  0  0  0  0  0  0  0  0  0  0
   -6.3394   -0.4451   -4.0065 H   0  0  0  0  0  0  0  0  0  0  0  0
   -5.5714   -2.8346   -4.1082 H   0  0  0  0  0  0  0  0  0  0  0  0
   -3.9236   -2.2952   -4.4722 H   0  0  0  0  0  0  0  0  0  0  0  0
   -3.6075    0.4497   -0.5410 H   0  0  0  0  0  0  0  0  0  0  0  0
   -4.2709   -1.1185   -0.1124 H   0  0  0  0  0  0  0  0  0  0  0  0
   -2.1251   -2.1934   -1.0482 H   0  0  0  0  0  0  0  0  0  0  0  0
   -1.4288    0.7073   -1.4160 H   0  0  0  0  0  0  0  0  0  0  0  0
   -1.0645   -0.6674   -2.4468 H   0  0  0  0  0  0  0  0  0  0  0  0
    0.9821    2.9446    0.8063 H   0  0  0  0  0  0  0  0  0  0  0  0
    0.9775    4.2088   -2.0100 H   0  0  0  0  0  0  0  0  0  0  0  0
    1.8003    6.4836   -2.1009 H   0  0  0  0  0  0  0  0  0  0  0  0
    1.9154    8.7366   -1.1297 H   0  0  0  0  0  0  0  0  0  0  0  0
    1.2744    9.1178    1.2395 H   0  0  0  0  0  0  0  0  0  0  0  0
    0.5114    7.2141    2.6358 H   0  0  0  0  0  0  0  0  0  0  0  0
    0.3646    4.9583    1.6867 H   0  0  0  0  0  0  0  0  0  0  0  0
    3.4336    0.7700   -1.2334 H   0  0  0  0  0  0  0  0  0  0  0  0
    4.5364   -0.3544   -2.0349 H   0  0  0  0  0  0  0  0  0  0  0  0
    3.0589    0.1430   -2.8577 H   0  0  0  0  0  0  0  0  0  0  0  0
    4.4486   -2.1628   -0.5429 H   0  0  0  0  0  0  0  0  0  0  0  0
    1.8652   -3.7954   -0.4867 H   0  0  0  0  0  0  0  0  0  0  0  0
    2.1273   -4.2785    1.9603 H   0  0  0  0  0  0  0  0  0  0  0  0
    4.4615   -2.3032    1.9292 H   0  0  0  0  0  0  0  0  0  0  0  0
    4.2230   -3.5402    3.1539 H   0  0  0  0  0  0  0  0  0  0  0  0
    3.3475   -1.3862    3.9417 H   0  0  0  0  0  0  0  0  0  0  0  0
    2.0502   -2.5662    3.8091 H   0  0  0  0  0  0  0  0  0  0  0  0
    2.3118    0.8616    1.2331 H   0  0  0  0  0  0  0  0  0  0  0  0
    3.2382    0.6807    2.6881 H   0  0  0  0  0  0  0  0  0  0  0  0
    3.7189   -0.1959    1.2514 H   0  0  0  0  0  0  0  0  0  0  0  0
    0.3741   -2.5537    2.2324 H   0  0  0  0  0  0  0  0  0  0  0  0
   -0.0961   -2.4608    0.1285 H   0  0  0  0  0  0  0  0  0  0  0  0
   -2.0902   -2.0028    1.3570 H   0  0  0  0  0  0  0  0  0  0  0  0
   -1.5672    2.1155    2.6931 H   0  0  0  0  0  0  0  0  0  0  0  0
   -2.0384    1.4990    4.2706 H   0  0  0  0  0  0  0  0  0  0  0  0
   -4.4320    1.5050    3.6469 H   0  0  0  0  0  0  0  0  0  0  0  0
   -4.0537    1.9221    1.9798 H   0  0  0  0  0  0  0  0  0  0  0  0
   -3.4562    3.7062    4.4047 H   0  0  0  0  0  0  0  0  0  0  0  0
   -3.1364    4.1200    2.7072 H   0  0  0  0  0  0  0  0  0  0  0  0
   -4.8043    3.9153    3.2649 H   0  0  0  0  0  0  0  0  0  0  0  0
    5.6345   -3.6525    0.6471 H   0  0  0  0  0  0  0  0  0  0  0  0
    5.4838   -4.7195   -0.7528 H   0  0  0  0  0  0  0  0  0  0  0  0
    5.6601   -5.3898    0.8778 H   0  0  0  0  0  0  0  0  0  0  0  0
    3.4781   -6.4325   -0.7633 H   0  0  0  0  0  0  0  0  0  0  0  0
    2.0549   -6.0739    0.2307 H   0  0  0  0  0  0  0  0  0  0  0  0
    3.5189   -6.7237    0.9913 H   0  0  0  0  0  0  0  0  0  0  0  0
  1  2  1  0
  2  3  1  0
  3  4  1  0
  4  5  2  0
  4  6  1  0
  6  7  1  0
  7  8  1  0
  8  9  1  0
  9 10  1  0
 10 11  1  1
 11 12  1  0
 12 13  2  0
 12 14  1  0
 14 15  2  0
 15 16  1  0
 16 17  2  0
 17 18  1  0
 18 19  2  0
 19 20  1  0
 20 21  2  0
 10 22  1  0
 22 23  2  0
 22 24  1  0
 24 25  1  0
 24 26  2  3
 26 27  1  0
 27 28  1  0
 28 29  1  0
 29 30  1  0
 30 31  1  0
 31 32  1  6
 31 33  1  0
 33 34  1  0
 34 35  1  0
 35 36  1  0
 36 37  1  0
 37 38  1  0
 38 39  2  0
 38 40  1  0
 40 41  1  0
 41 42  1  0
 28 43  1  0
 43 44  1  0
 43 45  1  0
 36  8  1  0
 35 10  1  0
 21 16  1  0
 43 27  1  0
 34 31  1  0
  1 46  1  0
  1 47  1  0
  1 48  1  0
  2 49  1  0
  2 50  1  0
  3 51  1  0
  3 52  1  0
  7 53  1  0
  7 54  1  0
  8 55  1  6
  9 56  1  0
  9 57  1  0
 14 58  1  0
 15 59  1  0
 17 60  1  0
 18 61  1  0
 19 62  1  0
 20 63  1  0
 21 64  1  0
 25 65  1  0
 25 66  1  0
 25 67  1  0
 26 68  1  0
 27 69  1  0
 28 70  1  1
 29 71  1  0
 29 72  1  0
 30 73  1  0
 30 74  1  0
 32 75  1  0
 32 76  1  0
 32 77  1  0
 34 78  1  1
 35 79  1  6
 36 80  1  1
 40 81  1  0
 40 82  1  0
 41 83  1  0
 41 84  1  0
 42 85  1  0
 42 86  1  0
 42 87  1  0
 44 88  1  0
 44 89  1  0
 44 90  1  0
 45 91  1  0
 45 92  1  0
 45 93  1  0
M  END
$$$$
