
     RDKit          3D

 34 37  0  0  0  0  0  0  0  0999 V2000
   -2.5092   -2.1529    1.5427 C   0  0  0  0  0  0  0  0  0  0  0  0
   -2.5990   -0.7322    1.4873 O   0  0  0  0  0  0  0  0  0  0  0  0
   -3.3671   -0.2241    0.4682 C   0  0  0  0  0  0  0  0  0  0  0  0
   -4.4509   -0.9017   -0.1005 C   0  0  0  0  0  0  0  0  0  0  0  0
   -5.2007   -0.3042   -1.1173 C   0  0  0  0  0  0  0  0  0  0  0  0
   -4.8745    0.9752   -1.5594 C   0  0  0  0  0  0  0  0  0  0  0  0
   -5.8954    1.7817   -2.9310 Br  0  0  0  0  0  0  0  0  0  0  0  0
   -3.8061    1.6687   -0.9946 C   0  0  0  0  0  0  0  0  0  0  0  0
   -3.0451    1.0726    0.0201 C   0  0  0  0  0  0  0  0  0  0  0  0
   -1.9318    1.8399    0.5951 C   0  0  0  0  0  0  0  0  0  0  0  0
   -0.6317    1.5404    0.4574 C   0  0  0  0  0  0  0  0  0  0  0  0
    0.6211    2.4954    1.2524 S   0  0  0  0  0  0  0  0  0  0  0  0
    1.8141    1.4339    0.6335 C   0  0  0  0  0  0  0  0  0  0  0  0
    3.1101    1.3506    0.7190 N   0  0  0  0  0  0  0  0  0  0  0  0
    3.3641    0.2329   -0.0648 C   0  0  0  0  0  0  0  0  0  0  0  0
    4.8141   -0.3067   -0.2916 C   0  0  0  0  0  0  0  0  0  0  0  0
    5.9642    0.2446    0.2404 C   0  0  0  0  0  0  0  0  0  0  0  0
    7.0452   -0.5494   -0.2138 C   0  0  0  0  0  0  0  0  0  0  0  0
    6.4905   -1.5357   -0.9940 C   0  0  0  0  0  0  0  0  0  0  0  0
    5.1413   -1.3983   -1.0475 O   0  0  0  0  0  0  0  0  0  0  0  0
    2.2756   -0.3457   -0.6110 N   0  0  0  0  0  0  0  0  0  0  0  0
    1.3045    0.4530   -0.1364 N   0  0  0  0  0  0  0  0  0  0  0  0
   -0.0589    0.4018   -0.3384 C   0  0  0  0  0  0  0  0  0  0  0  0
   -0.5971   -0.4236   -1.0519 O   0  0  0  0  0  0  0  0  0  0  0  0
   -1.6807   -2.4076    2.2107 H   0  0  0  0  0  0  0  0  0  0  0  0
   -3.4224   -2.5816    1.9670 H   0  0  0  0  0  0  0  0  0  0  0  0
   -2.2896   -2.5842    0.5598 H   0  0  0  0  0  0  0  0  0  0  0  0
   -4.7419   -1.8914    0.2362 H   0  0  0  0  0  0  0  0  0  0  0  0
   -6.0376   -0.8444   -1.5528 H   0  0  0  0  0  0  0  0  0  0  0  0
   -3.5624    2.6680   -1.3469 H   0  0  0  0  0  0  0  0  0  0  0  0
   -2.2430    2.6955    1.1906 H   0  0  0  0  0  0  0  0  0  0  0  0
    6.0072    1.1165    0.8789 H   0  0  0  0  0  0  0  0  0  0  0  0
    8.0967   -0.4196    0.0001 H   0  0  0  0  0  0  0  0  0  0  0  0
    6.8963   -2.3676   -1.5529 H   0  0  0  0  0  0  0  0  0  0  0  0
  1  2  1  0
  2  3  1  0
  3  4  2  0
  4  5  1  0
  5  6  2  0
  6  7  1  0
  6  8  1  0
  8  9  2  0
  9 10  1  0
 10 11  2  3
 11 12  1  0
 12 13  1  0
 13 14  2  0
 14 15  1  0
 15 16  1  0
 16 17  2  0
 17 18  1  0
 18 19  2  0
 19 20  1  0
 15 21  2  0
 21 22  1  0
 22 23  1  0
 23 24  2  0
  9  3  1  0
 23 11  1  0
 22 13  1  0
 20 16  1  0
  1 25  1  0
  1 26  1  0
  1 27  1  0
  4 28  1  0
  5 29  1  0
  8 30  1  0
 10 31  1  0
 17 32  1  0
 18 33  1  0
 19 34  1  0
M  END
$$$$
