
     RDKit          3D

 65 68  0  0  0  0  0  0  0  0999 V2000
    9.2687   -0.3277    3.8067 C   0  0  0  0  0  0  0  0  0  0  0  0
    8.2189    0.0594    2.8497 C   0  0  0  0  0  0  0  0  0  0  0  0
    6.9434   -0.3796    2.5958 C   0  0  0  0  0  0  0  0  0  0  0  0
    6.4907    0.4416    1.5390 C   0  0  0  0  0  0  0  0  0  0  0  0
    5.2730    0.4541    0.8982 N   0  0  0  0  0  0  0  0  0  0  0  0
    4.2261   -0.4013    1.1581 C   0  0  0  0  0  0  0  0  0  0  0  0
    4.2410   -1.3363    1.9520 O   0  0  0  0  0  0  0  0  0  0  0  0
    3.0047   -0.0540    0.3343 C   0  0  0  0  0  0  0  0  0  0  0  0
    1.8549   -1.0297    0.5672 C   0  0  0  0  0  0  0  0  0  0  0  0
    0.5866   -0.5606   -0.1232 C   0  0  0  0  0  0  0  0  0  0  0  0
    0.5856    0.5017   -0.7466 O   0  0  0  0  0  0  0  0  0  0  0  0
   -0.5420   -1.3629   -0.0117 N   0  0  0  0  0  0  0  0  0  0  0  0
   -0.5783   -2.6497    0.6844 C   0  0  0  0  0  0  0  0  0  0  0  0
   -1.4219   -2.5704    1.9225 C   0  0  0  0  0  0  0  0  0  0  0  0
   -1.3401   -1.6752    2.9726 C   0  0  0  0  0  0  0  0  0  0  0  0
   -2.3300   -1.9118    3.9685 C   0  0  0  0  0  0  0  0  0  0  0  0
   -3.1281   -2.9894    3.6568 C   0  0  0  0  0  0  0  0  0  0  0  0
   -2.6676   -3.7214    2.1842 S   0  0  0  0  0  0  0  0  0  0  0  0
   -1.8029   -0.9010   -0.6290 C   0  0  0  0  0  0  0  0  0  0  0  0
   -2.3516    0.4117    0.0128 C   0  0  0  0  0  0  0  0  0  0  0  0
   -1.9124    0.8891    1.0621 O   0  0  0  0  0  0  0  0  0  0  0  0
   -3.4709    0.9452   -0.6115 N   0  0  0  0  0  0  0  0  0  0  0  0
   -4.0619    2.1933   -0.1518 C   0  0  0  0  0  0  0  0  0  0  0  0
   -3.2645    3.4090   -0.6412 C   0  0  0  0  0  0  0  0  0  0  0  0
   -4.0098    3.9531   -1.8628 C   0  0  0  0  0  0  0  0  0  0  0  0
   -5.1708    2.9993   -2.1144 C   0  0  0  0  0  0  0  0  0  0  0  0
   -5.4529    2.3949   -0.7472 C   0  0  0  0  0  0  0  0  0  0  0  0
   -1.7689   -0.9509   -2.1579 C   0  0  0  0  0  0  0  0  0  0  0  0
   -2.1179   -2.1440   -2.8173 C   0  0  0  0  0  0  0  0  0  0  0  0
   -2.0948   -2.2263   -4.2118 C   0  0  0  0  0  0  0  0  0  0  0  0
   -1.7166   -1.1189   -4.9686 C   0  0  0  0  0  0  0  0  0  0  0  0
   -1.3645    0.0689   -4.3329 C   0  0  0  0  0  0  0  0  0  0  0  0
   -1.3865    0.1506   -2.9392 C   0  0  0  0  0  0  0  0  0  0  0  0
    7.4304    1.3242    1.1815 N   0  0  0  0  0  0  0  0  0  0  0  0
    8.5223    1.0706    1.9916 O   0  0  0  0  0  0  0  0  0  0  0  0
   10.1167   -0.7812    3.2855 H   0  0  0  0  0  0  0  0  0  0  0  0
    8.8877   -1.0507    4.5332 H   0  0  0  0  0  0  0  0  0  0  0  0
    9.6290    0.5466    4.3576 H   0  0  0  0  0  0  0  0  0  0  0  0
    6.4181   -1.1738    3.1067 H   0  0  0  0  0  0  0  0  0  0  0  0
    5.1860    1.1760    0.1940 H   0  0  0  0  0  0  0  0  0  0  0  0
    3.2818   -0.0573   -0.7251 H   0  0  0  0  0  0  0  0  0  0  0  0
    2.7045    0.9656    0.5994 H   0  0  0  0  0  0  0  0  0  0  0  0
    1.6521   -1.1190    1.6394 H   0  0  0  0  0  0  0  0  0  0  0  0
    2.1404   -2.0100    0.1722 H   0  0  0  0  0  0  0  0  0  0  0  0
    0.4202   -2.9875    0.9693 H   0  0  0  0  0  0  0  0  0  0  0  0
   -0.9631   -3.3920   -0.0250 H   0  0  0  0  0  0  0  0  0  0  0  0
   -0.6227   -0.8622    3.0126 H   0  0  0  0  0  0  0  0  0  0  0  0
   -2.4519   -1.3118    4.8619 H   0  0  0  0  0  0  0  0  0  0  0  0
   -3.9557   -3.3863    4.2276 H   0  0  0  0  0  0  0  0  0  0  0  0
   -2.5787   -1.6263   -0.3401 H   0  0  0  0  0  0  0  0  0  0  0  0
   -3.6760    0.6365   -1.5541 H   0  0  0  0  0  0  0  0  0  0  0  0
   -4.1026    2.1647    0.9428 H   0  0  0  0  0  0  0  0  0  0  0  0
   -3.2454    4.1822    0.1363 H   0  0  0  0  0  0  0  0  0  0  0  0
   -2.2235    3.1695   -0.8862 H   0  0  0  0  0  0  0  0  0  0  0  0
   -3.3574    4.0364   -2.7394 H   0  0  0  0  0  0  0  0  0  0  0  0
   -4.3897    4.9582   -1.6397 H   0  0  0  0  0  0  0  0  0  0  0  0
   -4.8697    2.2197   -2.8233 H   0  0  0  0  0  0  0  0  0  0  0  0
   -6.0436    3.5111   -2.5302 H   0  0  0  0  0  0  0  0  0  0  0  0
   -6.0348    1.4712   -0.8154 H   0  0  0  0  0  0  0  0  0  0  0  0
   -6.0174    3.1119   -0.1400 H   0  0  0  0  0  0  0  0  0  0  0  0
   -2.4130   -3.0232   -2.2464 H   0  0  0  0  0  0  0  0  0  0  0  0
   -2.3572   -3.1576   -4.7067 H   0  0  0  0  0  0  0  0  0  0  0  0
   -1.6901   -1.1827   -6.0534 H   0  0  0  0  0  0  0  0  0  0  0  0
   -1.0588    0.9318   -4.9190 H   0  0  0  0  0  0  0  0  0  0  0  0
   -1.0767    1.0845   -2.4674 H   0  0  0  0  0  0  0  0  0  0  0  0
  1  2  1  0
  2  3  2  0
  3  4  1  0
  4  5  1  0
  5  6  1  0
  6  7  2  0
  6  8  1  0
  8  9  1  0
  9 10  1  0
 10 11  2  0
 10 12  1  0
 12 13  1  0
 13 14  1  0
 14 15  2  0
 15 16  1  0
 16 17  2  0
 17 18  1  0
 12 19  1  0
 19 20  1  0
 20 21  2  0
 20 22  1  0
 22 23  1  0
 23 24  1  0
 24 25  1  0
 25 26  1  0
 26 27  1  0
 19 28  1  0
 28 29  2  0
 29 30  1  0
 30 31  2  0
 31 32  1  0
 32 33  2  0
  4 34  2  0
 34 35  1  0
 35  2  1  0
 18 14  1  0
 27 23  1  0
 33 28  1  0
  1 36  1  0
  1 37  1  0
  1 38  1  0
  3 39  1  0
  5 40  1  0
  8 41  1  0
  8 42  1  0
  9 43  1  0
  9 44  1  0
 13 45  1  0
 13 46  1  0
 15 47  1  0
 16 48  1  0
 17 49  1  0
 19 50  1  0
 22 51  1  0
 23 52  1  0
 24 53  1  0
 24 54  1  0
 25 55  1  0
 25 56  1  0
 26 57  1  0
 26 58  1  0
 27 59  1  0
 27 60  1  0
 29 61  1  0
 30 62  1  0
 31 63  1  0
 32 64  1  0
 33 65  1  0
M  END
$$$$
