
     RDKit          3D

 35 36  0  0  0  0  0  0  0  0999 V2000
    6.5031   -0.7967    1.1028 C   0  0  0  0  0  0  0  0  0  0  0  0
    5.0121   -0.6265    1.0741 C   0  0  0  0  0  0  0  0  0  0  0  0
    4.4097    0.4443    1.7492 C   0  0  0  0  0  0  0  0  0  0  0  0
    3.0212    0.5864    1.7559 C   0  0  0  0  0  0  0  0  0  0  0  0
    2.2334   -0.3498    1.0836 C   0  0  0  0  0  0  0  0  0  0  0  0
    0.4604   -0.1804    1.0899 S   0  0  0  0  0  6  0  0  0  0  0  0
    0.1194    0.6833    2.2049 O   0  0  0  0  0  0  0  0  0  0  0  0
   -0.0874   -1.5192    0.9901 O   0  0  0  0  0  0  0  0  0  0  0  0
    0.1552    0.7067   -0.4253 C   0  0  0  0  0  0  0  0  0  0  0  0
   -1.3018    1.1039   -0.5804 C   0  0  0  0  0  0  0  0  0  0  0  0
   -2.3264   -0.2725   -1.1914 S   0  0  0  0  0  0  0  0  0  0  0  0
   -3.8734    0.5014   -1.2547 C   0  0  0  0  0  0  0  0  0  0  0  0
   -4.0765    1.7988   -1.2253 N   0  0  0  0  0  0  0  0  0  0  0  0
   -5.4367    1.9516   -1.3026 C   0  0  0  0  0  0  0  0  0  0  0  0
   -6.0632    0.7297   -1.3824 C   0  0  0  0  0  0  0  0  0  0  0  0
   -5.0500   -0.1925   -1.3506 N   0  0  0  0  0  0  0  0  0  0  0  0
   -5.2226   -1.6236   -1.3974 C   0  0  0  0  0  0  0  0  0  0  0  0
    2.8156   -1.4393    0.4321 C   0  0  0  0  0  0  0  0  0  0  0  0
    4.2047   -1.5743    0.4301 C   0  0  0  0  0  0  0  0  0  0  0  0
    6.7945   -1.3961    1.9707 H   0  0  0  0  0  0  0  0  0  0  0  0
    7.0059    0.1746    1.1577 H   0  0  0  0  0  0  0  0  0  0  0  0
    6.8566   -1.2940    0.1934 H   0  0  0  0  0  0  0  0  0  0  0  0
    5.0212    1.1708    2.2811 H   0  0  0  0  0  0  0  0  0  0  0  0
    2.5692    1.4178    2.2924 H   0  0  0  0  0  0  0  0  0  0  0  0
    0.7636    1.6166   -0.3662 H   0  0  0  0  0  0  0  0  0  0  0  0
    0.5185    0.1041   -1.2636 H   0  0  0  0  0  0  0  0  0  0  0  0
   -1.3616    1.9106   -1.3192 H   0  0  0  0  0  0  0  0  0  0  0  0
   -1.7150    1.4782    0.3619 H   0  0  0  0  0  0  0  0  0  0  0  0
   -5.8937    2.9328   -1.2962 H   0  0  0  0  0  0  0  0  0  0  0  0
   -7.1058    0.4534   -1.4534 H   0  0  0  0  0  0  0  0  0  0  0  0
   -6.2881   -1.8595   -1.4642 H   0  0  0  0  0  0  0  0  0  0  0  0
   -4.7084   -2.0106   -2.2808 H   0  0  0  0  0  0  0  0  0  0  0  0
   -4.8108   -2.0576   -0.4828 H   0  0  0  0  0  0  0  0  0  0  0  0
    2.2016   -2.1888   -0.0626 H   0  0  0  0  0  0  0  0  0  0  0  0
    4.6555   -2.4290   -0.0707 H   0  0  0  0  0  0  0  0  0  0  0  0
  1  2  1  0
  2  3  2  0
  3  4  1  0
  4  5  2  0
  5  6  1  0
  6  7  2  0
  6  8  2  0
  6  9  1  0
  9 10  1  0
 10 11  1  0
 11 12  1  0
 12 13  2  0
 13 14  1  0
 14 15  2  0
 15 16  1  0
 16 17  1  0
  5 18  1  0
 18 19  2  0
 19  2  1  0
 16 12  1  0
  1 20  1  0
  1 21  1  0
  1 22  1  0
  3 23  1  0
  4 24  1  0
  9 25  1  0
  9 26  1  0
 10 27  1  0
 10 28  1  0
 14 29  1  0
 15 30  1  0
 17 31  1  0
 17 32  1  0
 17 33  1  0
 18 34  1  0
 19 35  1  0
M  END
$$$$
