
     RDKit          3D

 35 37  0  0  0  0  0  0  0  0999 V2000
   -1.3247   -1.9239    2.5512 C   0  0  0  0  0  0  0  0  0  0  0  0
   -1.6623   -1.1092    1.3018 C   0  0  0  0  0  0  0  0  0  0  0  0
   -2.7234   -0.2355    1.6703 O   0  0  0  0  0  0  0  0  0  0  0  0
   -3.5125    0.2898    0.6863 C   0  0  0  0  0  0  0  0  0  0  0  0
   -3.2820    0.2171   -0.6883 C   0  0  0  0  0  0  0  0  0  0  0  0
   -4.1814    0.8073   -1.5841 C   0  0  0  0  0  0  0  0  0  0  0  0
   -5.3077    1.4725   -1.1043 C   0  0  0  0  0  0  0  0  0  0  0  0
   -6.5184    2.2671   -2.3185 Br  0  0  0  0  0  0  0  0  0  0  0  0
   -5.5427    1.5581    0.2643 C   0  0  0  0  0  0  0  0  0  0  0  0
   -4.6423    0.9687    1.1544 C   0  0  0  0  0  0  0  0  0  0  0  0
   -0.3796   -0.3913    0.8150 C   0  0  0  0  0  0  0  0  0  0  0  0
   -0.2288    0.8198    0.9357 O   0  0  0  0  0  0  0  0  0  0  0  0
    0.5194   -1.2673    0.2371 N   0  0  0  0  0  0  0  0  0  0  0  0
    1.7445   -0.9584   -0.2999 C   0  0  0  0  0  0  0  0  0  0  0  0
    2.5161   -1.8816   -0.8323 N   0  0  0  0  0  0  0  0  0  0  0  0
    3.6998   -1.3552   -1.3137 N   0  0  0  0  0  0  0  0  0  0  0  0
    3.7642   -0.0580   -1.1115 C   0  0  0  0  0  0  0  0  0  0  0  0
    4.9884    0.7961   -1.5622 C   0  0  0  0  0  0  0  0  0  0  0  0
    5.9133    1.3689   -0.5183 C   0  0  0  0  0  0  0  0  0  0  0  0
    6.3784    0.2383   -1.3886 C   0  0  0  0  0  0  0  0  0  0  0  0
    2.3953    0.6152   -0.3440 S   0  0  0  0  0  0  0  0  0  0  0  0
   -2.2186   -2.4297    2.9323 H   0  0  0  0  0  0  0  0  0  0  0  0
   -0.9620   -1.2708    3.3535 H   0  0  0  0  0  0  0  0  0  0  0  0
   -0.5569   -2.6783    2.3549 H   0  0  0  0  0  0  0  0  0  0  0  0
   -2.0011   -1.8138    0.5309 H   0  0  0  0  0  0  0  0  0  0  0  0
   -2.4087   -0.2721   -1.1036 H   0  0  0  0  0  0  0  0  0  0  0  0
   -3.9884    0.7485   -2.6523 H   0  0  0  0  0  0  0  0  0  0  0  0
   -6.4140    2.0802    0.6497 H   0  0  0  0  0  0  0  0  0  0  0  0
   -4.8216    1.0404    2.2248 H   0  0  0  0  0  0  0  0  0  0  0  0
    0.3024   -2.2528    0.1760 H   0  0  0  0  0  0  0  0  0  0  0  0
    4.8061    1.3905   -2.4511 H   0  0  0  0  0  0  0  0  0  0  0  0
    6.3291    2.3538   -0.6975 H   0  0  0  0  0  0  0  0  0  0  0  0
    5.7217    1.1539    0.5271 H   0  0  0  0  0  0  0  0  0  0  0  0
    7.1082    0.4532   -2.1605 H   0  0  0  0  0  0  0  0  0  0  0  0
    6.4901   -0.7413   -0.9365 H   0  0  0  0  0  0  0  0  0  0  0  0
  1  2  1  0
  2  3  1  0
  3  4  1  0
  4  5  2  0
  5  6  1  0
  6  7  2  0
  7  8  1  0
  7  9  1  0
  9 10  2  0
  2 11  1  0
 11 12  2  0
 11 13  1  0
 13 14  1  0
 14 15  2  0
 15 16  1  0
 16 17  2  0
 17 18  1  0
 18 19  1  0
 19 20  1  0
 17 21  1  0
 10  4  1  0
 21 14  1  0
 20 18  1  0
  1 22  1  0
  1 23  1  0
  1 24  1  0
  2 25  1  0
  5 26  1  0
  6 27  1  0
  9 28  1  0
 10 29  1  0
 13 30  1  0
 18 31  1  0
 19 32  1  0
 19 33  1  0
 20 34  1  0
 20 35  1  0
M  END
$$$$
