
     RDKit          3D

 42 41  0  0  0  0  0  0  0  0999 V2000
   -5.1287    0.6286    1.3834 C   0  0  0  0  0  0  0  0  0  0  0  0
   -4.3210   -0.6272    1.5699 C   0  0  0  0  0  0  0  0  0  0  0  0
   -5.1439   -1.8830    1.6946 C   0  0  0  0  0  0  0  0  0  0  0  0
   -2.9754   -0.6825    1.6210 C   0  0  0  0  0  0  0  0  0  0  0  0
   -2.0036    0.4655    1.5492 C   0  0  0  0  0  0  0  0  0  0  0  0
   -1.4046    0.6872    0.1522 C   0  0  0  0  0  0  0  0  0  0  0  0
   -0.4324   -0.3861   -0.2974 C   0  0  0  0  0  0  0  0  0  0  0  0
   -1.0185   -1.4718   -1.1623 C   0  0  0  0  0  0  0  0  0  0  0  0
    0.8855   -0.3773   -0.0136 C   0  0  0  0  0  0  0  0  0  0  0  0
    1.6346    0.6279    0.8213 C   0  0  0  0  0  0  0  0  0  0  0  0
    2.5377    1.5515   -0.0116 C   0  0  0  0  0  0  0  0  0  0  0  0
    3.6666    0.8519   -0.7530 C   0  0  0  0  0  0  0  0  0  0  0  0
    4.7826    0.3352    0.1155 C   0  0  0  0  0  0  0  0  0  0  0  0
    3.6328    0.7508   -2.0980 C   0  0  0  0  0  0  0  0  0  0  0  0
    4.6620    0.1542   -3.0070 C   0  0  0  0  0  0  0  0  0  0  0  0
    4.2109   -1.1026   -3.4920 O   0  0  0  0  0  0  0  0  0  0  0  0
   -5.7952    0.5246    0.5187 H   0  0  0  0  0  0  0  0  0  0  0  0
   -5.7414    0.8153    2.2727 H   0  0  0  0  0  0  0  0  0  0  0  0
   -4.5151    1.5164    1.2082 H   0  0  0  0  0  0  0  0  0  0  0  0
   -5.8427   -1.7974    2.5340 H   0  0  0  0  0  0  0  0  0  0  0  0
   -5.7186   -2.0536    0.7787 H   0  0  0  0  0  0  0  0  0  0  0  0
   -4.5247   -2.7698    1.8698 H   0  0  0  0  0  0  0  0  0  0  0  0
   -2.4994   -1.6558    1.7479 H   0  0  0  0  0  0  0  0  0  0  0  0
   -2.4823    1.3954    1.8776 H   0  0  0  0  0  0  0  0  0  0  0  0
   -1.2042    0.2826    2.2796 H   0  0  0  0  0  0  0  0  0  0  0  0
   -0.8932    1.6586    0.1469 H   0  0  0  0  0  0  0  0  0  0  0  0
   -2.2082    0.7933   -0.5886 H   0  0  0  0  0  0  0  0  0  0  0  0
   -1.7579   -2.0562   -0.6067 H   0  0  0  0  0  0  0  0  0  0  0  0
   -1.5073   -1.0355   -2.0401 H   0  0  0  0  0  0  0  0  0  0  0  0
   -0.2543   -2.1674   -1.5262 H   0  0  0  0  0  0  0  0  0  0  0  0
    1.5067   -1.1837   -0.4018 H   0  0  0  0  0  0  0  0  0  0  0  0
    2.2254    0.0841    1.5669 H   0  0  0  0  0  0  0  0  0  0  0  0
    0.9443    1.2516    1.3985 H   0  0  0  0  0  0  0  0  0  0  0  0
    2.9802    2.3043    0.6539 H   0  0  0  0  0  0  0  0  0  0  0  0
    1.9116    2.1162   -0.7156 H   0  0  0  0  0  0  0  0  0  0  0  0
    4.3923   -0.3319    0.8885 H   0  0  0  0  0  0  0  0  0  0  0  0
    5.2940    1.1716    0.6046 H   0  0  0  0  0  0  0  0  0  0  0  0
    5.5330   -0.2352   -0.4376 H   0  0  0  0  0  0  0  0  0  0  0  0
    2.7717    1.1620   -2.6267 H   0  0  0  0  0  0  0  0  0  0  0  0
    4.8200    0.8189   -3.8634 H   0  0  0  0  0  0  0  0  0  0  0  0
    5.6348    0.0131   -2.5306 H   0  0  0  0  0  0  0  0  0  0  0  0
    3.3457   -1.2843   -3.0815 H   0  0  0  0  0  0  0  0  0  0  0  0
  1  2  1  0
  2  3  1  0
  2  4  2  3
  4  5  1  0
  5  6  1  0
  6  7  1  0
  7  8  1  0
  7  9  2  3
  9 10  1  0
 10 11  1  0
 11 12  1  0
 12 13  1  0
 12 14  2  3
 14 15  1  0
 15 16  1  0
  1 17  1  0
  1 18  1  0
  1 19  1  0
  3 20  1  0
  3 21  1  0
  3 22  1  0
  4 23  1  0
  5 24  1  0
  5 25  1  0
  6 26  1  0
  6 27  1  0
  8 28  1  0
  8 29  1  0
  8 30  1  0
  9 31  1  0
 10 32  1  0
 10 33  1  0
 11 34  1  0
 11 35  1  0
 13 36  1  0
 13 37  1  0
 13 38  1  0
 14 39  1  0
 15 40  1  0
 15 41  1  0
 16 42  1  0
M  END
$$$$
