
     RDKit          3D

 50 54  0  0  0  0  0  0  0  0999 V2000
   -4.9533    0.7242   -1.2778 C   0  0  0  0  0  0  0  0  0  0  0  0
   -4.7304   -0.5781   -0.5755 C   0  0  0  0  0  0  0  0  0  0  0  0
   -5.7283   -1.3450   -0.1088 C   0  0  0  0  0  0  0  0  0  0  0  0
   -5.4588   -2.5890    0.5576 C   0  0  0  0  0  0  0  0  0  0  0  0
   -4.1962   -2.9974    0.7195 C   0  0  0  0  0  0  0  0  0  0  0  0
   -3.1194   -2.2494    0.2587 N   0  0  0  0  0  0  0  0  0  0  0  0
   -1.8347   -2.7244    0.4597 C   0  0  0  0  0  0  0  0  0  0  0  0
   -1.5696   -3.7811    1.0363 O   0  0  0  0  0  0  0  0  0  0  0  0
   -0.7311   -1.8721   -0.0638 C   0  0  0  0  0  0  0  0  0  0  0  0
    0.6479   -2.3100    0.0861 C   0  0  0  0  0  0  0  0  0  0  0  0
    1.6867   -1.5501   -0.2984 C   0  0  0  0  0  0  0  0  0  0  0  0
    3.2980   -2.1442   -0.1092 S   0  0  0  0  0  6  0  0  0  0  0  0
    3.2911   -3.3061    0.7696 O   0  0  0  0  0  0  0  0  0  0  0  0
    3.9418   -2.2622   -1.4067 O   0  0  0  0  0  0  0  0  0  0  0  0
    4.1516   -0.8817    0.8208 C   0  0  0  0  0  0  0  0  0  0  0  0
    3.8521   -0.7182    2.1803 C   0  0  0  0  0  0  0  0  0  0  0  0
    4.5365    0.2464    2.9203 C   0  0  0  0  0  0  0  0  0  0  0  0
    5.5128    1.0233    2.3020 C   0  0  0  0  0  0  0  0  0  0  0  0
    6.1659    1.9487    3.0171 F   0  0  0  0  0  0  0  0  0  0  0  0
    5.8258    0.8514    0.9568 C   0  0  0  0  0  0  0  0  0  0  0  0
    5.1479   -0.1119    0.2090 C   0  0  0  0  0  0  0  0  0  0  0  0
    1.3656   -0.2301   -0.9177 C   0  0  0  0  0  0  0  0  0  0  0  0
    2.3669    0.5553   -1.1696 N   0  0  0  0  0  0  0  0  0  0  0  0
    0.0236    0.0969   -1.1727 N   0  0  0  0  0  0  0  0  0  0  0  0
   -0.3104    1.2998   -1.9556 C   0  0  0  0  0  0  0  0  0  0  0  0
   -0.2648    2.5731   -1.1818 C   0  0  0  0  0  0  0  0  0  0  0  0
   -1.1212    3.1654   -0.2774 C   0  0  0  0  0  0  0  0  0  0  0  0
   -0.4990    4.3700    0.1287 C   0  0  0  0  0  0  0  0  0  0  0  0
    0.6955    4.4336   -0.5500 C   0  0  0  0  0  0  0  0  0  0  0  0
    0.8470    3.3467   -1.3498 O   0  0  0  0  0  0  0  0  0  0  0  0
   -1.0359   -0.7103   -0.6840 C   0  0  0  0  0  0  0  0  0  0  0  0
   -2.3412   -0.3058   -0.8385 N   0  0  0  0  0  0  0  0  0  0  0  0
   -3.3097   -1.0415   -0.3912 C   0  0  0  0  0  0  0  0  0  0  0  0
   -4.5409    0.6909   -2.2915 H   0  0  0  0  0  0  0  0  0  0  0  0
   -4.4745    1.5432   -0.7311 H   0  0  0  0  0  0  0  0  0  0  0  0
   -6.0189    0.9628   -1.3627 H   0  0  0  0  0  0  0  0  0  0  0  0
   -6.7678   -1.0503   -0.2207 H   0  0  0  0  0  0  0  0  0  0  0  0
   -6.2924   -3.1815    0.9211 H   0  0  0  0  0  0  0  0  0  0  0  0
   -3.9709   -3.9360    1.2209 H   0  0  0  0  0  0  0  0  0  0  0  0
    0.8057   -3.2936    0.5263 H   0  0  0  0  0  0  0  0  0  0  0  0
    3.1035   -1.3396    2.6658 H   0  0  0  0  0  0  0  0  0  0  0  0
    4.3223    0.3942    3.9741 H   0  0  0  0  0  0  0  0  0  0  0  0
    6.5926    1.4681    0.4989 H   0  0  0  0  0  0  0  0  0  0  0  0
    5.3841   -0.2445   -0.8447 H   0  0  0  0  0  0  0  0  0  0  0  0
    2.0664    1.4664   -1.5286 H   0  0  0  0  0  0  0  0  0  0  0  0
    0.3704    1.3686   -2.8149 H   0  0  0  0  0  0  0  0  0  0  0  0
   -1.3002    1.2120   -2.4219 H   0  0  0  0  0  0  0  0  0  0  0  0
   -2.0708    2.7661    0.0519 H   0  0  0  0  0  0  0  0  0  0  0  0
   -0.8697    5.1001    0.8343 H   0  0  0  0  0  0  0  0  0  0  0  0
    1.5082    5.1468   -0.5711 H   0  0  0  0  0  0  0  0  0  0  0  0
  1  2  1  0
  2  3  2  0
  3  4  1  0
  4  5  2  0
  5  6  1  0
  6  7  1  0
  7  8  2  0
  7  9  1  0
  9 10  1  0
 10 11  2  0
 11 12  1  0
 12 13  2  0
 12 14  2  0
 12 15  1  0
 15 16  2  0
 16 17  1  0
 17 18  2  0
 18 19  1  0
 18 20  1  0
 20 21  2  0
 11 22  1  0
 22 23  2  3
 22 24  1  0
 24 25  1  0
 25 26  1  0
 26 27  2  0
 27 28  1  0
 28 29  2  0
 29 30  1  0
 24 31  1  0
 31 32  1  0
 32 33  2  0
 33  2  1  0
 33  6  1  0
 31  9  2  0
 21 15  1  0
 30 26  1  0
  1 34  1  0
  1 35  1  0
  1 36  1  0
  3 37  1  0
  4 38  1  0
  5 39  1  0
 10 40  1  0
 16 41  1  0
 17 42  1  0
 20 43  1  0
 21 44  1  0
 23 45  1  0
 25 46  1  0
 25 47  1  0
 27 48  1  0
 28 49  1  0
 29 50  1  0
M  END
$$$$
