
     RDKit          3D

 37 40  0  0  0  0  0  0  0  0999 V2000
   -1.3738   -2.9361    0.8099 C   0  0  0  0  0  0  0  0  0  0  0  0
   -0.5642   -1.7262    0.4359 C   0  0  0  0  0  0  0  0  0  0  0  0
    0.8368   -1.8206    0.3611 C   0  0  0  0  0  0  0  0  0  0  0  0
    1.6089   -0.6910    0.0141 C   0  0  0  0  0  0  0  0  0  0  0  0
    0.9541    0.5137   -0.2491 C   0  0  0  0  0  0  0  0  0  0  0  0
    1.9337    1.4324   -0.5551 N   0  0  0  0  0  0  0  0  0  0  0  0
    3.1858    0.8686   -0.4993 C   0  0  0  0  0  0  0  0  0  0  0  0
    4.4436    1.4363   -0.7350 C   0  0  0  0  0  0  0  0  0  0  0  0
    5.5620    0.6083   -0.6014 C   0  0  0  0  0  0  0  0  0  0  0  0
    5.4248   -0.7315   -0.2465 C   0  0  0  0  0  0  0  0  0  0  0  0
    4.1586   -1.2814   -0.0149 C   0  0  0  0  0  0  0  0  0  0  0  0
    3.0143   -0.4668   -0.1434 C   0  0  0  0  0  0  0  0  0  0  0  0
   -0.4441    0.6323   -0.1808 C   0  0  0  0  0  0  0  0  0  0  0  0
   -1.1906   -0.5032    0.1604 C   0  0  0  0  0  0  0  0  0  0  0  0
   -2.5571   -0.4785    0.2623 O   0  0  0  0  0  0  0  0  0  0  0  0
   -3.2736    0.7022   -0.1507 C   0  0  0  0  0  0  0  0  0  0  0  0
   -4.2479    1.0225    0.9895 C   0  0  0  0  0  0  0  0  0  0  0  0
   -4.0614    0.3238   -1.4105 C   0  0  0  0  0  0  0  0  0  0  0  0
   -2.4266    1.9223   -0.4350 C   0  0  0  0  0  0  0  0  0  0  0  0
   -1.0909    1.9024   -0.4489 C   0  0  0  0  0  0  0  0  0  0  0  0
   -0.7357   -3.8089    0.9841 H   0  0  0  0  0  0  0  0  0  0  0  0
   -2.0701   -3.1903    0.0041 H   0  0  0  0  0  0  0  0  0  0  0  0
   -1.9357   -2.7465    1.7302 H   0  0  0  0  0  0  0  0  0  0  0  0
    1.3363   -2.7625    0.5705 H   0  0  0  0  0  0  0  0  0  0  0  0
    1.7584    2.3966   -0.7923 H   0  0  0  0  0  0  0  0  0  0  0  0
    4.5546    2.4797   -1.0115 H   0  0  0  0  0  0  0  0  0  0  0  0
    6.5543    1.0176   -0.7773 H   0  0  0  0  0  0  0  0  0  0  0  0
    6.3077   -1.3582   -0.1479 H   0  0  0  0  0  0  0  0  0  0  0  0
    4.0606   -2.3269    0.2613 H   0  0  0  0  0  0  0  0  0  0  0  0
   -4.8821    0.1572    1.2161 H   0  0  0  0  0  0  0  0  0  0  0  0
   -4.8979    1.8711    0.7493 H   0  0  0  0  0  0  0  0  0  0  0  0
   -3.7043    1.2557    1.9130 H   0  0  0  0  0  0  0  0  0  0  0  0
   -4.6998    1.1438   -1.7572 H   0  0  0  0  0  0  0  0  0  0  0  0
   -4.6946   -0.5521   -1.2265 H   0  0  0  0  0  0  0  0  0  0  0  0
   -3.3836    0.0471   -2.2271 H   0  0  0  0  0  0  0  0  0  0  0  0
   -2.9450    2.8537   -0.6469 H   0  0  0  0  0  0  0  0  0  0  0  0
   -0.5155    2.7936   -0.6587 H   0  0  0  0  0  0  0  0  0  0  0  0
  1  2  1  0
  2  3  2  0
  3  4  1  0
  4  5  2  0
  5  6  1  0
  6  7  1  0
  7  8  2  0
  8  9  1  0
  9 10  2  0
 10 11  1  0
 11 12  2  0
  5 13  1  0
 13 14  2  0
 14 15  1  0
 15 16  1  0
 16 17  1  0
 16 18  1  0
 16 19  1  0
 19 20  2  0
 14  2  1  0
 12  4  1  0
 20 13  1  0
 12  7  1  0
  1 21  1  0
  1 22  1  0
  1 23  1  0
  3 24  1  0
  6 25  1  0
  8 26  1  0
  9 27  1  0
 10 28  1  0
 11 29  1  0
 17 30  1  0
 17 31  1  0
 17 32  1  0
 18 33  1  0
 18 34  1  0
 18 35  1  0
 19 36  1  0
 20 37  1  0
M  END
$$$$
