
     RDKit          3D

 43 46  0  0  0  0  0  0  0  0999 V2000
    1.0198   -1.0601    3.3651 O   0  0  0  0  0  0  0  0  0  0  0  0
    1.9360   -1.3660    2.6001 C   0  0  0  0  0  0  0  0  0  0  0  0
    1.8446   -2.5119    1.6043 C   0  0  0  0  0  0  0  0  0  0  0  0
    0.1827   -2.6086    0.8672 S   0  0  0  0  0  0  0  0  0  0  0  0
    0.1092   -1.0551    0.1115 C   0  0  0  0  0  0  0  0  0  0  0  0
    1.1453   -0.3467   -0.2696 N   0  0  0  0  0  0  0  0  0  0  0  0
    0.6725    0.8356   -0.7810 N   0  0  0  0  0  0  0  0  0  0  0  0
   -0.6449    0.8323   -0.6915 C   0  0  0  0  0  0  0  0  0  0  0  0
   -1.5226    1.9099   -1.1101 C   0  0  0  0  0  0  0  0  0  0  0  0
   -1.8666    2.0810   -2.4512 C   0  0  0  0  0  0  0  0  0  0  0  0
   -2.7178    3.1216   -2.8143 C   0  0  0  0  0  0  0  0  0  0  0  0
   -3.1966    3.9588   -1.8178 C   0  0  0  0  0  0  0  0  0  0  0  0
   -2.8789    3.8306   -0.5099 N   0  0  0  0  0  0  0  0  0  0  0  0
   -2.0383    2.8185   -0.1901 C   0  0  0  0  0  0  0  0  0  0  0  0
   -1.0453   -0.3687   -0.1413 N   0  0  0  0  0  0  0  0  0  0  0  0
   -2.4051   -0.7804    0.1441 C   0  0  0  0  0  0  0  0  0  0  0  0
   -2.9938   -1.4895   -1.0187 C   0  0  0  0  0  0  0  0  0  0  0  0
   -2.9839   -2.8041   -1.4395 C   0  0  0  0  0  0  0  0  0  0  0  0
   -3.7493   -2.8476   -2.6302 C   0  0  0  0  0  0  0  0  0  0  0  0
   -4.1821   -1.5620   -2.8553 C   0  0  0  0  0  0  0  0  0  0  0  0
   -3.7283   -0.7311   -1.8834 O   0  0  0  0  0  0  0  0  0  0  0  0
    3.2024   -0.5839    2.6664 C   0  0  0  0  0  0  0  0  0  0  0  0
    3.1347    0.7564    3.0681 C   0  0  0  0  0  0  0  0  0  0  0  0
    4.2969    1.5274    3.1481 C   0  0  0  0  0  0  0  0  0  0  0  0
    5.5359    0.9616    2.8387 C   0  0  0  0  0  0  0  0  0  0  0  0
    6.9351    1.9664    2.9646 Cl  0  0  0  0  0  0  0  0  0  0  0  0
    5.6072   -0.3813    2.4486 C   0  0  0  0  0  0  0  0  0  0  0  0
    7.1067   -1.1561    2.0729 Cl  0  0  0  0  0  0  0  0  0  0  0  0
    4.4424   -1.1549    2.3624 C   0  0  0  0  0  0  0  0  0  0  0  0
    2.5720   -2.4017    0.7963 H   0  0  0  0  0  0  0  0  0  0  0  0
    2.0537   -3.4456    2.1355 H   0  0  0  0  0  0  0  0  0  0  0  0
   -1.4764    1.4086   -3.2115 H   0  0  0  0  0  0  0  0  0  0  0  0
   -3.0008    3.2758   -3.8502 H   0  0  0  0  0  0  0  0  0  0  0  0
   -3.8650    4.7830   -2.0518 H   0  0  0  0  0  0  0  0  0  0  0  0
   -1.7845    2.7584    0.8656 H   0  0  0  0  0  0  0  0  0  0  0  0
   -2.9924    0.1068    0.4014 H   0  0  0  0  0  0  0  0  0  0  0  0
   -2.4065   -1.4171    1.0340 H   0  0  0  0  0  0  0  0  0  0  0  0
   -2.4867   -3.6308   -0.9496 H   0  0  0  0  0  0  0  0  0  0  0  0
   -3.9665   -3.7092   -3.2457 H   0  0  0  0  0  0  0  0  0  0  0  0
   -4.7884   -1.0987   -3.6215 H   0  0  0  0  0  0  0  0  0  0  0  0
    2.1737    1.2081    3.3117 H   0  0  0  0  0  0  0  0  0  0  0  0
    4.2260    2.5696    3.4524 H   0  0  0  0  0  0  0  0  0  0  0  0
    4.5237   -2.1992    2.0758 H   0  0  0  0  0  0  0  0  0  0  0  0
  1  2  2  0
  2  3  1  0
  3  4  1  0
  4  5  1  0
  5  6  2  0
  6  7  1  0
  7  8  2  0
  8  9  1  0
  9 10  2  0
 10 11  1  0
 11 12  2  0
 12 13  1  0
 13 14  2  0
  8 15  1  0
 15 16  1  0
 16 17  1  0
 17 18  2  0
 18 19  1  0
 19 20  2  0
 20 21  1  0
  2 22  1  0
 22 23  2  0
 23 24  1  0
 24 25  2  0
 25 26  1  0
 25 27  1  0
 27 28  1  0
 27 29  2  0
 15  5  1  0
 21 17  1  0
 29 22  1  0
 14  9  1  0
  3 30  1  0
  3 31  1  0
 10 32  1  0
 11 33  1  0
 12 34  1  0
 14 35  1  0
 16 36  1  0
 16 37  1  0
 18 38  1  0
 19 39  1  0
 20 40  1  0
 23 41  1  0
 24 42  1  0
 29 43  1  0
M  END
$$$$
