
     RDKit          3D

 32 33  0  0  0  0  0  0  0  0999 V2000
   -5.1908   -0.3356    1.0449 C   0  0  0  0  0  0  0  0  0  0  0  0
   -3.8966   -0.2854    0.2872 C   0  0  0  0  0  0  0  0  0  0  0  0
   -3.5652    0.8402   -0.4777 C   0  0  0  0  0  0  0  0  0  0  0  0
   -2.3745    0.8755   -1.2106 C   0  0  0  0  0  0  0  0  0  0  0  0
   -2.0426    2.2842   -2.1548 Cl  0  0  0  0  0  0  0  0  0  0  0  0
   -1.4948   -0.2128   -1.1807 C   0  0  0  0  0  0  0  0  0  0  0  0
   -0.3377   -0.1961   -1.9197 O   0  0  0  0  0  0  0  0  0  0  0  0
    0.7392    0.3762   -1.1626 C   0  0  0  0  0  0  0  0  0  0  0  0
    2.0383    0.0348   -1.8878 C   0  0  0  0  0  0  0  0  0  0  0  0
    3.2617    0.6995   -1.2661 C   0  0  0  0  0  0  0  0  0  0  0  0
    3.5296    0.2727    0.0905 N   0  0  0  0  0  0  0  0  0  0  0  0
    3.3193    1.0032    1.2258 C   0  0  0  0  0  0  0  0  0  0  0  0
    3.7302    0.1850    2.2525 C   0  0  0  0  0  0  0  0  0  0  0  0
    4.1875   -1.0124    1.7666 N   0  0  0  0  0  0  0  0  0  0  0  0
    4.0614   -0.9287    0.4614 C   0  0  0  0  0  0  0  0  0  0  0  0
   -1.8453   -1.3568   -0.4540 C   0  0  0  0  0  0  0  0  0  0  0  0
   -0.7433   -2.9034   -0.4382 Br  0  0  0  0  0  0  0  0  0  0  0  0
   -3.0362   -1.3906    0.2791 C   0  0  0  0  0  0  0  0  0  0  0  0
   -5.0962   -0.9627    1.9377 H   0  0  0  0  0  0  0  0  0  0  0  0
   -5.9817   -0.7430    0.4078 H   0  0  0  0  0  0  0  0  0  0  0  0
   -5.4856    0.6642    1.3805 H   0  0  0  0  0  0  0  0  0  0  0  0
   -4.2419    1.6920   -0.5090 H   0  0  0  0  0  0  0  0  0  0  0  0
    0.6156    1.4639   -1.1119 H   0  0  0  0  0  0  0  0  0  0  0  0
    0.7582   -0.0264   -0.1426 H   0  0  0  0  0  0  0  0  0  0  0  0
    2.1612   -1.0554   -1.9122 H   0  0  0  0  0  0  0  0  0  0  0  0
    1.9561    0.3469   -2.9366 H   0  0  0  0  0  0  0  0  0  0  0  0
    4.1561    0.4660   -1.8556 H   0  0  0  0  0  0  0  0  0  0  0  0
    3.1495    1.7898   -1.2622 H   0  0  0  0  0  0  0  0  0  0  0  0
    2.9119    2.0043    1.2175 H   0  0  0  0  0  0  0  0  0  0  0  0
    3.7237    0.3948    3.3142 H   0  0  0  0  0  0  0  0  0  0  0  0
    4.3328   -1.7001   -0.2479 H   0  0  0  0  0  0  0  0  0  0  0  0
   -3.3003   -2.2836    0.8428 H   0  0  0  0  0  0  0  0  0  0  0  0
  1  2  1  0
  2  3  2  0
  3  4  1  0
  4  5  1  0
  4  6  2  0
  6  7  1  0
  7  8  1  0
  8  9  1  0
  9 10  1  0
 10 11  1  0
 11 12  1  0
 12 13  2  0
 13 14  1  0
 14 15  2  0
  6 16  1  0
 16 17  1  0
 16 18  2  0
 18  2  1  0
 15 11  1  0
  1 19  1  0
  1 20  1  0
  1 21  1  0
  3 22  1  0
  8 23  1  0
  8 24  1  0
  9 25  1  0
  9 26  1  0
 10 27  1  0
 10 28  1  0
 12 29  1  0
 13 30  1  0
 15 31  1  0
 18 32  1  0
M  END
$$$$
