
     RDKit          3D

 39 41  0  0  0  0  0  0  0  0999 V2000
   -5.3689    2.0346   -0.9918 C   0  0  0  0  0  0  0  0  0  0  0  0
   -4.0775    1.7765   -0.4442 O   0  0  0  0  0  0  0  0  0  0  0  0
   -3.7451    0.4433   -0.4517 C   0  0  0  0  0  0  0  0  0  0  0  0
   -4.5911   -0.5495    0.0544 C   0  0  0  0  0  0  0  0  0  0  0  0
   -4.1782   -1.8946    0.0725 C   0  0  0  0  0  0  0  0  0  0  0  0
   -5.1012   -2.9509    0.6087 C   0  0  0  0  0  0  0  0  0  0  0  0
   -2.9081   -2.2354   -0.4275 C   0  0  0  0  0  0  0  0  0  0  0  0
   -2.0602   -1.2463   -0.9298 C   0  0  0  0  0  0  0  0  0  0  0  0
   -2.4708    0.0878   -0.9189 C   0  0  0  0  0  0  0  0  0  0  0  0
   -1.6372    1.0446   -1.4426 O   0  0  0  0  0  0  0  0  0  0  0  0
   -0.7640    1.5550   -0.4376 C   0  0  0  0  0  0  0  0  0  0  0  0
    0.6382    0.9218   -0.4812 C   0  0  0  0  0  0  0  0  0  0  0  0
    1.0151    0.2360   -1.4315 O   0  0  0  0  0  0  0  0  0  0  0  0
    1.3776    1.2304    0.6475 N   0  0  0  0  0  0  0  0  0  0  0  0
    2.6750    0.8560    0.9101 C   0  0  0  0  0  0  0  0  0  0  0  0
    3.2722    1.1679    2.0398 N   0  0  0  0  0  0  0  0  0  0  0  0
    4.5734    0.7060    2.0858 N   0  0  0  0  0  0  0  0  0  0  0  0
    4.8955    0.0713    0.9818 C   0  0  0  0  0  0  0  0  0  0  0  0
    6.3077   -0.5553    0.7648 C   0  0  0  0  0  0  0  0  0  0  0  0
    7.2870    0.1193   -0.1635 C   0  0  0  0  0  0  0  0  0  0  0  0
    7.5146    0.1614    1.3211 C   0  0  0  0  0  0  0  0  0  0  0  0
    3.6481   -0.0249   -0.1775 S   0  0  0  0  0  0  0  0  0  0  0  0
   -5.4376    3.1107   -1.1754 H   0  0  0  0  0  0  0  0  0  0  0  0
   -6.1613    1.7689   -0.2820 H   0  0  0  0  0  0  0  0  0  0  0  0
   -5.5144    1.5179   -1.9484 H   0  0  0  0  0  0  0  0  0  0  0  0
   -5.5669   -0.2877    0.4536 H   0  0  0  0  0  0  0  0  0  0  0  0
   -4.6145   -3.9323    0.6456 H   0  0  0  0  0  0  0  0  0  0  0  0
   -5.9866   -3.0342   -0.0295 H   0  0  0  0  0  0  0  0  0  0  0  0
   -5.4142   -2.6977    1.6273 H   0  0  0  0  0  0  0  0  0  0  0  0
   -2.5693   -3.2743   -0.4284 H   0  0  0  0  0  0  0  0  0  0  0  0
   -1.0848   -1.5183   -1.3370 H   0  0  0  0  0  0  0  0  0  0  0  0
   -0.6396    2.6281   -0.6405 H   0  0  0  0  0  0  0  0  0  0  0  0
   -1.1859    1.4626    0.5762 H   0  0  0  0  0  0  0  0  0  0  0  0
    0.9556    1.7551    1.4070 H   0  0  0  0  0  0  0  0  0  0  0  0
    6.3222   -1.6415    0.8149 H   0  0  0  0  0  0  0  0  0  0  0  0
    7.9393   -0.5093   -0.7605 H   0  0  0  0  0  0  0  0  0  0  0  0
    6.9793    1.0363   -0.6592 H   0  0  0  0  0  0  0  0  0  0  0  0
    7.3714    1.1103    1.8296 H   0  0  0  0  0  0  0  0  0  0  0  0
    8.3050   -0.4496    1.7456 H   0  0  0  0  0  0  0  0  0  0  0  0
  1  2  1  0
  2  3  1  0
  3  4  2  0
  4  5  1  0
  5  6  1  0
  5  7  2  0
  7  8  1  0
  8  9  2  0
  9 10  1  0
 10 11  1  0
 11 12  1  0
 12 13  2  0
 12 14  1  0
 14 15  1  0
 15 16  2  0
 16 17  1  0
 17 18  2  0
 18 19  1  0
 19 20  1  0
 20 21  1  0
 18 22  1  0
  9  3  1  0
 22 15  1  0
 21 19  1  0
  1 23  1  0
  1 24  1  0
  1 25  1  0
  4 26  1  0
  6 27  1  0
  6 28  1  0
  6 29  1  0
  7 30  1  0
  8 31  1  0
 11 32  1  0
 11 33  1  0
 14 34  1  0
 19 35  1  0
 20 36  1  0
 20 37  1  0
 21 38  1  0
 21 39  1  0
M  END
$$$$
