
     RDKit          3D

 47 51  0  0  0  0  0  0  0  0999 V2000
   -0.8219   -0.7429   -4.2176 C   0  0  0  0  0  0  0  0  0  0  0  0
   -1.4292   -0.1256   -2.9967 C   0  0  0  0  0  0  0  0  0  0  0  0
   -2.6912   -0.3547   -2.7270 N   0  0  0  0  0  0  0  0  0  0  0  0
   -3.2077    0.2210   -1.5997 C   0  0  0  0  0  0  0  0  0  0  0  0
   -4.8368    0.0034   -1.1264 S   0  0  0  0  0  0  0  0  0  0  0  0
   -4.6286    0.9763    0.2632 C   0  0  0  0  0  0  0  0  0  0  0  0
   -3.3451    1.4795    0.3856 C   0  0  0  0  0  0  0  0  0  0  0  0
   -2.5542    1.0284   -0.6926 C   0  0  0  0  0  0  0  0  0  0  0  0
   -1.0855    1.2686   -1.0518 C   0  0  0  0  0  0  0  0  0  0  0  0
   -0.1700    1.9678   -0.4309 N   0  0  0  0  0  0  0  0  0  0  0  0
    0.9775    1.8624   -1.1787 N   0  0  0  0  0  0  0  0  0  0  0  0
    0.7159    1.1099   -2.2297 C   0  0  0  0  0  0  0  0  0  0  0  0
    1.9080    0.7154   -3.4195 S   0  0  0  0  0  0  0  0  0  0  0  0
    3.2449    0.1511   -2.3239 C   0  0  0  0  0  0  0  0  0  0  0  0
    2.8120   -1.0202   -1.4490 C   0  0  0  0  0  0  0  0  0  0  0  0
    1.8370   -1.7319   -1.6825 O   0  0  0  0  0  0  0  0  0  0  0  0
    3.6454   -1.2361   -0.3724 N   0  0  0  0  0  0  0  0  0  0  0  0
    3.3085   -2.2151    0.6356 C   0  0  0  0  0  0  0  0  0  0  0  0
    4.5239   -2.5088    1.4312 C   0  0  0  0  0  0  0  0  0  0  0  0
    5.2442   -3.6618    1.6666 C   0  0  0  0  0  0  0  0  0  0  0  0
    6.3208   -3.2962    2.5102 C   0  0  0  0  0  0  0  0  0  0  0  0
    6.1909   -1.9461    2.7350 C   0  0  0  0  0  0  0  0  0  0  0  0
    5.1046   -1.4567    2.0825 O   0  0  0  0  0  0  0  0  0  0  0  0
   -0.5933    0.6834   -2.1993 N   0  0  0  0  0  0  0  0  0  0  0  0
   -2.9276    2.3447    1.5334 C   0  0  0  0  0  0  0  0  0  0  0  0
   -4.1428    2.9084    2.2899 C   0  0  0  0  0  0  0  0  0  0  0  0
   -5.2172    1.8363    2.5279 C   0  0  0  0  0  0  0  0  0  0  0  0
   -5.7557    1.2602    1.2073 C   0  0  0  0  0  0  0  0  0  0  0  0
   -0.4810    0.0312   -4.9094 H   0  0  0  0  0  0  0  0  0  0  0  0
   -1.5755   -1.3412   -4.7409 H   0  0  0  0  0  0  0  0  0  0  0  0
   -0.0050   -1.4142   -3.9425 H   0  0  0  0  0  0  0  0  0  0  0  0
    3.5790    0.9853   -1.6986 H   0  0  0  0  0  0  0  0  0  0  0  0
    4.0861   -0.1771   -2.9418 H   0  0  0  0  0  0  0  0  0  0  0  0
    4.2749   -0.4983   -0.0788 H   0  0  0  0  0  0  0  0  0  0  0  0
    2.9191   -3.1199    0.1568 H   0  0  0  0  0  0  0  0  0  0  0  0
    2.5213   -1.7941    1.2696 H   0  0  0  0  0  0  0  0  0  0  0  0
    5.0197   -4.6435    1.2711 H   0  0  0  0  0  0  0  0  0  0  0  0
    7.0976   -3.9369    2.9047 H   0  0  0  0  0  0  0  0  0  0  0  0
    6.7598   -1.2226    3.3031 H   0  0  0  0  0  0  0  0  0  0  0  0
   -2.3191    1.7433    2.2205 H   0  0  0  0  0  0  0  0  0  0  0  0
   -2.3041    3.1747    1.1826 H   0  0  0  0  0  0  0  0  0  0  0  0
   -3.8139    3.3283    3.2479 H   0  0  0  0  0  0  0  0  0  0  0  0
   -4.5833    3.7332    1.7127 H   0  0  0  0  0  0  0  0  0  0  0  0
   -4.7875    1.0279    3.1349 H   0  0  0  0  0  0  0  0  0  0  0  0
   -6.0477    2.2612    3.1043 H   0  0  0  0  0  0  0  0  0  0  0  0
   -6.3353    0.3535    1.4145 H   0  0  0  0  0  0  0  0  0  0  0  0
   -6.4322    1.9889    0.7430 H   0  0  0  0  0  0  0  0  0  0  0  0
  1  2  1  0
  2  3  2  0
  3  4  1  0
  4  5  1  0
  5  6  1  0
  6  7  2  0
  7  8  1  0
  8  9  1  0
  9 10  2  0
 10 11  1  0
 11 12  2  0
 12 13  1  0
 13 14  1  0
 14 15  1  0
 15 16  2  0
 15 17  1  0
 17 18  1  0
 18 19  1  0
 19 20  2  0
 20 21  1  0
 21 22  2  0
 22 23  1  0
 12 24  1  0
  7 25  1  0
 25 26  1  0
 26 27  1  0
 27 28  1  0
 24  2  1  0
  8  4  2  0
 24  9  1  0
 28  6  1  0
 23 19  1  0
  1 29  1  0
  1 30  1  0
  1 31  1  0
 14 32  1  0
 14 33  1  0
 17 34  1  0
 18 35  1  0
 18 36  1  0
 20 37  1  0
 21 38  1  0
 22 39  1  0
 25 40  1  0
 25 41  1  0
 26 42  1  0
 26 43  1  0
 27 44  1  0
 27 45  1  0
 28 46  1  0
 28 47  1  0
M  END
$$$$
