
     RDKit          3D

 52 57  0  0  0  0  0  0  0  0999 V2000
    4.8487   -2.4249   -1.3710 C   0  0  0  0  0  0  0  0  0  0  0  0
    3.8770   -1.8878   -0.3642 C   0  0  0  0  0  0  0  0  0  0  0  0
    3.8810   -2.3298    0.9733 C   0  0  0  0  0  0  0  0  0  0  0  0
    5.0126   -3.5212    1.5193 Cl  0  0  0  0  0  0  0  0  0  0  0  0
    2.9751   -1.8199    1.9250 C   0  0  0  0  0  0  0  0  0  0  0  0
    2.0342   -0.8539    1.5694 C   0  0  0  0  0  0  0  0  0  0  0  0
    2.0167   -0.4169    0.2553 C   0  0  0  0  0  0  0  0  0  0  0  0
    2.9305   -0.9216   -0.6830 C   0  0  0  0  0  0  0  0  0  0  0  0
    2.7303   -0.2964   -1.9147 N   0  0  0  0  0  0  0  0  0  0  0  0
    1.6892    0.6343   -1.8617 C   0  0  0  0  0  0  0  0  0  0  0  0
    1.3340    1.3372   -2.7975 O   0  0  0  0  0  0  0  0  0  0  0  0
    1.1416    0.5996   -0.4147 C   0  0  1  0  0  0  0  0  0  0  0  0
   -0.2775    0.1694   -0.3390 C   0  0  0  0  0  0  0  0  0  0  0  0
   -1.1066    1.2632   -0.0375 C   0  0  0  0  0  0  0  0  0  0  0  0
   -2.4074    0.8359   -0.0065 C   0  0  0  0  0  0  0  0  0  0  0  0
   -3.5250    1.5114    0.2476 O   0  0  0  0  0  0  0  0  0  0  0  0
   -2.3898   -0.5561   -0.2370 N   0  0  0  0  0  0  0  0  0  0  0  0
   -3.5087   -1.4460   -0.1552 C   0  0  0  0  0  0  0  0  0  0  0  0
   -3.3228   -2.7694    0.2756 C   0  0  0  0  0  0  0  0  0  0  0  0
   -4.4082   -3.6454    0.3550 C   0  0  0  0  0  0  0  0  0  0  0  0
   -5.6852   -3.2081    0.0115 C   0  0  0  0  0  0  0  0  0  0  0  0
   -5.8804   -1.8924   -0.4032 C   0  0  0  0  0  0  0  0  0  0  0  0
   -4.7987   -1.0108   -0.4818 C   0  0  0  0  0  0  0  0  0  0  0  0
   -1.0648   -0.9292   -0.5496 C   0  0  0  0  0  0  0  0  0  0  0  0
   -0.7004   -2.1223   -1.0183 O   0  0  0  0  0  0  0  0  0  0  0  0
   -0.2922    2.4943    0.0789 C   0  0  1  0  0  0  0  0  0  0  0  0
   -0.5740    3.4536    1.2513 C   0  0  0  0  0  0  0  0  0  0  0  0
    0.5947    4.2547    1.6916 N   0  0  0  0  0  0  0  0  0  0  0  0
    1.6612    4.2917    0.6739 C   0  0  0  0  0  0  0  0  0  0  0  0
    2.1183    2.8940    0.1465 C   0  0  0  0  0  0  0  0  0  0  0  0
    1.0591    1.9105    0.2555 N   0  0  0  0  0  0  0  0  0  0  0  0
    4.7596   -3.5138   -1.4448 H   0  0  0  0  0  0  0  0  0  0  0  0
    5.8728   -2.1618   -1.0867 H   0  0  0  0  0  0  0  0  0  0  0  0
    4.6766   -2.0254   -2.3741 H   0  0  0  0  0  0  0  0  0  0  0  0
    3.0040   -2.1785    2.9516 H   0  0  0  0  0  0  0  0  0  0  0  0
    1.3352   -0.4549    2.2985 H   0  0  0  0  0  0  0  0  0  0  0  0
    3.2488   -0.4688   -2.7614 H   0  0  0  0  0  0  0  0  0  0  0  0
   -3.2840    2.4365    0.4231 H   0  0  0  0  0  0  0  0  0  0  0  0
   -2.3499   -3.1274    0.6067 H   0  0  0  0  0  0  0  0  0  0  0  0
   -4.2587   -4.6652    0.7011 H   0  0  0  0  0  0  0  0  0  0  0  0
   -6.5301   -3.8887    0.0766 H   0  0  0  0  0  0  0  0  0  0  0  0
   -6.8772   -1.5484   -0.6679 H   0  0  0  0  0  0  0  0  0  0  0  0
   -4.9863    0.0002   -0.8326 H   0  0  0  0  0  0  0  0  0  0  0  0
   -1.4841   -2.5582   -1.3996 H   0  0  0  0  0  0  0  0  0  0  0  0
   -0.3418    3.0405   -0.8739 H   0  0  0  0  0  0  0  0  0  0  0  0
   -0.9383    2.9002    2.1252 H   0  0  0  0  0  0  0  0  0  0  0  0
   -1.3808    4.1359    0.9567 H   0  0  0  0  0  0  0  0  0  0  0  0
    0.3033    5.1975    1.9400 H   0  0  0  0  0  0  0  0  0  0  0  0
    2.5294    4.8166    1.0873 H   0  0  0  0  0  0  0  0  0  0  0  0
    1.3045    4.8899   -0.1745 H   0  0  0  0  0  0  0  0  0  0  0  0
    2.4602    3.0210   -0.8864 H   0  0  0  0  0  0  0  0  0  0  0  0
    2.9744    2.5550    0.7407 H   0  0  0  0  0  0  0  0  0  0  0  0
  1  2  1  0
  2  3  2  0
  3  4  1  0
  3  5  1  0
  5  6  2  0
  6  7  1  0
  7  8  2  0
  8  9  1  0
  9 10  1  0
 10 11  2  0
 10 12  1  0
 12 13  1  0
 13 14  1  0
 14 15  2  0
 15 16  1  0
 15 17  1  0
 17 18  1  0
 18 19  2  0
 19 20  1  0
 20 21  2  0
 21 22  1  0
 22 23  2  0
 17 24  1  0
 24 25  1  0
 14 26  1  0
 26 27  1  0
 27 28  1  0
 28 29  1  0
 29 30  1  0
 30 31  1  0
  8  2  1  0
 12 31  1  1
 12  7  1  0
 24 13  2  0
 31 26  1  0
 23 18  1  0
  1 32  1  0
  1 33  1  0
  1 34  1  0
  5 35  1  0
  6 36  1  0
  9 37  1  0
 16 38  1  0
 19 39  1  0
 20 40  1  0
 21 41  1  0
 22 42  1  0
 23 43  1  0
 25 44  1  0
 26 45  1  6
 27 46  1  0
 27 47  1  0
 28 48  1  0
 29 49  1  0
 29 50  1  0
 30 51  1  0
 30 52  1  0
M  END
$$$$
