
     RDKit          3D

 24 25  0  0  0  0  0  0  0  0999 V2000
    4.5255   -0.8488    1.1535 C   0  0  0  0  0  0  0  0  0  0  0  0
    2.7359   -0.5934    1.1504 S   0  0  0  0  0  0  0  0  0  0  0  0
    2.4474   -0.2765   -0.5290 C   0  0  0  0  0  0  0  0  0  0  0  0
    3.4016   -0.2422   -1.4345 N   0  0  0  0  0  0  0  0  0  0  0  0
    2.8131    0.1466   -2.5992 N   0  0  0  0  0  0  0  0  0  0  0  0
    1.5193    0.3567   -2.4301 N   0  0  0  0  0  0  0  0  0  0  0  0
    1.2359    0.0576   -1.1295 N   0  0  0  0  0  0  0  0  0  0  0  0
   -0.1144    0.1293   -0.6733 C   0  0  0  0  0  0  0  0  0  0  0  0
   -0.5303   -0.3628    0.5664 C   0  0  0  0  0  0  0  0  0  0  0  0
   -1.8728   -0.2646    0.9583 C   0  0  0  0  0  0  0  0  0  0  0  0
   -2.8326    0.3201    0.1223 C   0  0  0  0  0  0  0  0  0  0  0  0
   -4.2617    0.4063    0.5784 C   0  0  0  0  0  0  0  0  0  0  0  0
   -2.4203    0.8002   -1.1259 C   0  0  0  0  0  0  0  0  0  0  0  0
   -3.5371    1.5286   -2.2250 Cl  0  0  0  0  0  0  0  0  0  0  0  0
   -1.0809    0.7031   -1.5212 C   0  0  0  0  0  0  0  0  0  0  0  0
    4.8542   -1.0664    2.1734 H   0  0  0  0  0  0  0  0  0  0  0  0
    5.0448    0.0497    0.8085 H   0  0  0  0  0  0  0  0  0  0  0  0
    4.7963   -1.6952    0.5162 H   0  0  0  0  0  0  0  0  0  0  0  0
    0.1346   -0.8613    1.2609 H   0  0  0  0  0  0  0  0  0  0  0  0
   -2.1637   -0.6605    1.9307 H   0  0  0  0  0  0  0  0  0  0  0  0
   -4.3874   -0.0095    1.5839 H   0  0  0  0  0  0  0  0  0  0  0  0
   -4.5896    1.4502    0.6136 H   0  0  0  0  0  0  0  0  0  0  0  0
   -4.9122   -0.1610   -0.0950 H   0  0  0  0  0  0  0  0  0  0  0  0
   -0.8055    1.0936   -2.5005 H   0  0  0  0  0  0  0  0  0  0  0  0
  1  2  1  0
  2  3  1  0
  3  4  2  0
  4  5  1  0
  5  6  2  0
  6  7  1  0
  7  8  1  0
  8  9  2  0
  9 10  1  0
 10 11  2  0
 11 12  1  0
 11 13  1  0
 13 14  1  0
 13 15  2  0
  7  3  1  0
 15  8  1  0
  1 16  1  0
  1 17  1  0
  1 18  1  0
  9 19  1  0
 10 20  1  0
 12 21  1  0
 12 22  1  0
 12 23  1  0
 15 24  1  0
M  END
$$$$
