
     RDKit          3D

 56 61  0  0  0  0  0  0  0  0999 V2000
    5.9159   -0.7109    0.3813 C   0  0  0  0  0  0  0  0  0  0  0  0
    4.6162   -0.4522   -0.3192 C   0  0  0  0  0  0  0  0  0  0  0  0
    4.5748    0.0112   -1.6481 C   0  0  0  0  0  0  0  0  0  0  0  0
    6.0286    0.3037   -2.5414 Cl  0  0  0  0  0  0  0  0  0  0  0  0
    3.3544    0.2579   -2.3083 C   0  0  0  0  0  0  0  0  0  0  0  0
    2.1359    0.0506   -1.6613 C   0  0  0  0  0  0  0  0  0  0  0  0
    2.1638   -0.4011   -0.3511 C   0  0  0  0  0  0  0  0  0  0  0  0
    3.3853   -0.6455    0.2968 C   0  0  0  0  0  0  0  0  0  0  0  0
    3.1450   -1.0890    1.5963 N   0  0  0  0  0  0  0  0  0  0  0  0
    1.7791   -1.1509    1.8828 C   0  0  0  0  0  0  0  0  0  0  0  0
    1.3108   -1.4904    2.9601 O   0  0  0  0  0  0  0  0  0  0  0  0
    1.0368   -0.7185    0.5917 C   0  0  0  0  0  0  0  0  0  0  0  0
    0.1007   -1.7843    0.1052 N   0  0  0  0  0  0  0  0  0  0  0  0
   -1.3151   -1.3585    0.4021 C   0  0  2  0  0  0  0  0  0  0  0  0
   -2.2788   -1.6571   -0.7634 C   0  0  0  0  0  0  0  0  0  0  0  0
   -2.3998   -3.1198   -1.1244 C   0  0  0  0  0  0  0  0  0  0  0  0
   -2.8844   -4.0518   -0.1960 C   0  0  0  0  0  0  0  0  0  0  0  0
   -3.0019   -5.3996   -0.5401 C   0  0  0  0  0  0  0  0  0  0  0  0
   -2.6428   -5.8292   -1.8157 C   0  0  0  0  0  0  0  0  0  0  0  0
   -2.1674   -4.9113   -2.7494 C   0  0  0  0  0  0  0  0  0  0  0  0
   -2.0481   -3.5631   -2.4074 C   0  0  0  0  0  0  0  0  0  0  0  0
   -1.1698    0.0944    0.6746 C   0  0  0  0  0  0  0  0  0  0  0  0
    0.1725    0.4555    0.7615 C   0  0  0  0  0  0  0  0  0  0  0  0
    0.2557    1.7840    1.0766 C   0  0  0  0  0  0  0  0  0  0  0  0
    1.3436    2.4829    1.3967 O   0  0  0  0  0  0  0  0  0  0  0  0
   -1.0580    2.2935    1.0745 N   0  0  0  0  0  0  0  0  0  0  0  0
   -1.4204    3.6744    1.1957 C   0  0  0  0  0  0  0  0  0  0  0  0
   -2.6316    4.0501    1.7947 C   0  0  0  0  0  0  0  0  0  0  0  0
   -2.9731    5.4010    1.9056 C   0  0  0  0  0  0  0  0  0  0  0  0
   -2.1125    6.3721    1.4110 C   0  0  0  0  0  0  0  0  0  0  0  0
   -2.4438    7.6653    1.5167 F   0  0  0  0  0  0  0  0  0  0  0  0
   -0.9146    6.0198    0.8028 C   0  0  0  0  0  0  0  0  0  0  0  0
   -0.5666    4.6712    0.6912 C   0  0  0  0  0  0  0  0  0  0  0  0
   -1.9392    1.2051    0.9123 C   0  0  0  0  0  0  0  0  0  0  0  0
   -3.2621    1.3417    0.9375 O   0  0  0  0  0  0  0  0  0  0  0  0
    6.4990   -1.4612   -0.1629 H   0  0  0  0  0  0  0  0  0  0  0  0
    5.7771   -1.0909    1.3970 H   0  0  0  0  0  0  0  0  0  0  0  0
    6.4957    0.2147    0.4590 H   0  0  0  0  0  0  0  0  0  0  0  0
    3.3566    0.6194   -3.3346 H   0  0  0  0  0  0  0  0  0  0  0  0
    1.1981    0.2525   -2.1691 H   0  0  0  0  0  0  0  0  0  0  0  0
    3.8401   -1.3241    2.2870 H   0  0  0  0  0  0  0  0  0  0  0  0
    0.2022   -1.8433   -0.9046 H   0  0  0  0  0  0  0  0  0  0  0  0
   -1.6371   -1.8689    1.3175 H   0  0  0  0  0  0  0  0  0  0  0  0
   -1.9737   -1.0827   -1.6495 H   0  0  0  0  0  0  0  0  0  0  0  0
   -3.2849   -1.2935   -0.5170 H   0  0  0  0  0  0  0  0  0  0  0  0
   -3.1717   -3.7400    0.8054 H   0  0  0  0  0  0  0  0  0  0  0  0
   -3.3720   -6.1154    0.1894 H   0  0  0  0  0  0  0  0  0  0  0  0
   -2.7331   -6.8791   -2.0814 H   0  0  0  0  0  0  0  0  0  0  0  0
   -1.8887   -5.2460   -3.7452 H   0  0  0  0  0  0  0  0  0  0  0  0
   -1.6777   -2.8635   -3.1530 H   0  0  0  0  0  0  0  0  0  0  0  0
    1.0774    3.2328    1.9593 H   0  0  0  0  0  0  0  0  0  0  0  0
   -3.3132    3.3148    2.2137 H   0  0  0  0  0  0  0  0  0  0  0  0
   -3.9048    5.6981    2.3770 H   0  0  0  0  0  0  0  0  0  0  0  0
   -0.2667    6.7951    0.4058 H   0  0  0  0  0  0  0  0  0  0  0  0
    0.3497    4.4214    0.1597 H   0  0  0  0  0  0  0  0  0  0  0  0
   -3.6614    0.4583    0.8596 H   0  0  0  0  0  0  0  0  0  0  0  0
  1  2  1  0
  2  3  2  0
  3  4  1  0
  3  5  1  0
  5  6  2  0
  6  7  1  0
  7  8  2  0
  8  9  1  0
  9 10  1  0
 10 11  2  0
 10 12  1  0
 12 13  1  0
 13 14  1  0
 14 15  1  0
 15 16  1  0
 16 17  2  0
 17 18  1  0
 18 19  2  0
 19 20  1  0
 20 21  2  0
 14 22  1  0
 22 23  1  0
 23 24  2  0
 24 25  1  0
 24 26  1  0
 26 27  1  0
 27 28  2  0
 28 29  1  0
 29 30  2  0
 30 31  1  0
 30 32  1  0
 32 33  2  0
 26 34  1  0
 34 35  1  0
  8  2  1  0
 23 12  1  0
 33 27  1  0
 12  7  1  0
 21 16  1  0
 34 22  2  0
  1 36  1  0
  1 37  1  0
  1 38  1  0
  5 39  1  0
  6 40  1  0
  9 41  1  0
 13 42  1  0
 14 43  1  1
 15 44  1  0
 15 45  1  0
 17 46  1  0
 18 47  1  0
 19 48  1  0
 20 49  1  0
 21 50  1  0
 25 51  1  0
 28 52  1  0
 29 53  1  0
 32 54  1  0
 33 55  1  0
 35 56  1  0
M  END
$$$$
