
     RDKit          3D

 36 37  0  0  0  0  0  0  0  0999 V2000
    4.7795   -0.7628    1.0940 C   0  0  0  0  0  0  0  0  0  0  0  0
    4.6401    0.4279    0.2385 N   0  0  0  0  0  0  0  0  0  0  0  0
    4.2206    1.6295    0.9793 C   0  0  0  0  0  0  0  0  0  0  0  0
    3.9661    0.1968   -1.3055 S   0  0  0  0  0  6  0  0  0  0  0  0
    3.9878    1.4632   -2.0070 O   0  0  0  0  0  0  0  0  0  0  0  0
    4.5539   -0.9902   -1.8895 O   0  0  0  0  0  0  0  0  0  0  0  0
    2.2588   -0.1792   -0.9501 C   0  0  0  0  0  0  0  0  0  0  0  0
    1.3146    0.8523   -0.9218 C   0  0  0  0  0  0  0  0  0  0  0  0
   -0.0275    0.5549   -0.6678 C   0  0  0  0  0  0  0  0  0  0  0  0
   -0.4289   -0.7730   -0.4571 C   0  0  0  0  0  0  0  0  0  0  0  0
   -1.8419   -1.1440   -0.1728 C   0  0  0  0  0  0  0  0  0  0  0  0
   -2.1999   -2.2799    0.0924 O   0  0  0  0  0  0  0  0  0  0  0  0
   -2.6527   -0.0606   -0.2702 O   0  0  0  0  0  0  0  0  0  0  0  0
   -3.9936   -0.3023    0.1289 C   0  0  0  0  0  0  0  0  0  0  0  0
   -4.9017    0.7765   -0.4133 C   0  0  0  0  0  0  0  0  0  0  0  0
   -6.0673    0.7005    0.5386 C   0  0  0  0  0  0  0  0  0  0  0  0
   -5.4959    0.3865    1.8101 O   0  0  0  0  0  0  0  0  0  0  0  0
   -4.2466   -0.1460    1.6191 C   0  0  0  0  0  0  0  0  0  0  0  0
   -3.4773   -0.4193    2.5259 O   0  0  0  0  0  0  0  0  0  0  0  0
    0.5254   -1.8008   -0.5096 C   0  0  0  0  0  0  0  0  0  0  0  0
    1.8672   -1.5082   -0.7655 C   0  0  0  0  0  0  0  0  0  0  0  0
    5.1784   -1.6114    0.5318 H   0  0  0  0  0  0  0  0  0  0  0  0
    3.8215   -1.0396    1.5426 H   0  0  0  0  0  0  0  0  0  0  0  0
    5.4914   -0.5544    1.8996 H   0  0  0  0  0  0  0  0  0  0  0  0
    4.2239    2.5135    0.3360 H   0  0  0  0  0  0  0  0  0  0  0  0
    4.9285    1.8263    1.7912 H   0  0  0  0  0  0  0  0  0  0  0  0
    3.2255    1.4970    1.4129 H   0  0  0  0  0  0  0  0  0  0  0  0
    1.6136    1.8838   -1.0985 H   0  0  0  0  0  0  0  0  0  0  0  0
   -0.7480    1.3690   -0.6387 H   0  0  0  0  0  0  0  0  0  0  0  0
   -4.3546   -1.2875   -0.1933 H   0  0  0  0  0  0  0  0  0  0  0  0
   -4.4123    1.7568   -0.3515 H   0  0  0  0  0  0  0  0  0  0  0  0
   -5.1872    0.6179   -1.4571 H   0  0  0  0  0  0  0  0  0  0  0  0
   -6.7748   -0.0908    0.2689 H   0  0  0  0  0  0  0  0  0  0  0  0
   -6.6048    1.6509    0.6015 H   0  0  0  0  0  0  0  0  0  0  0  0
    0.2242   -2.8365   -0.3560 H   0  0  0  0  0  0  0  0  0  0  0  0
    2.5937   -2.3165   -0.8213 H   0  0  0  0  0  0  0  0  0  0  0  0
  1  2  1  0
  2  3  1  0
  2  4  1  0
  4  5  2  0
  4  6  2  0
  4  7  1  0
  7  8  2  0
  8  9  1  0
  9 10  2  0
 10 11  1  0
 11 12  2  0
 11 13  1  0
 13 14  1  0
 14 15  1  0
 15 16  1  0
 16 17  1  0
 17 18  1  0
 18 19  2  0
 10 20  1  0
 20 21  2  0
 21  7  1  0
 18 14  1  0
  1 22  1  0
  1 23  1  0
  1 24  1  0
  3 25  1  0
  3 26  1  0
  3 27  1  0
  8 28  1  0
  9 29  1  0
 14 30  1  0
 15 31  1  0
 15 32  1  0
 16 33  1  0
 16 34  1  0
 20 35  1  0
 21 36  1  0
M  END
$$$$
