
     RDKit          3D

 37 39  0  0  0  0  0  0  0  0999 V2000
    4.3151    0.4668    1.5228 N   0  0  0  0  0  0  0  0  0  0  0  0
    3.5428    0.1902    0.3175 C   0  0  0  0  0  0  0  0  0  0  0  0
    2.0645   -0.0170    0.6381 C   0  0  0  0  0  0  0  0  0  0  0  0
    1.2700   -0.3049   -0.6448 C   0  0  0  0  0  0  0  0  0  0  0  0
   -0.1673   -0.5246   -0.3599 N   0  0  0  0  0  0  0  0  0  0  0  0
   -0.5872   -1.8720   -0.1489 C   0  0  0  0  0  0  0  0  0  0  0  0
    0.3275   -2.9119    0.1385 C   0  0  0  0  0  0  0  0  0  0  0  0
   -0.0758   -4.2348    0.3596 C   0  0  0  0  0  0  0  0  0  0  0  0
   -1.4180   -4.5672    0.3045 C   0  0  0  0  0  0  0  0  0  0  0  0
   -2.3490   -3.5727    0.0310 C   0  0  0  0  0  0  0  0  0  0  0  0
   -1.9477   -2.2395   -0.1899 C   0  0  0  0  0  0  0  0  0  0  0  0
   -3.2627   -1.1022   -0.5535 S   0  0  0  0  0  0  0  0  0  0  0  0
   -2.4318    0.4662   -0.5033 C   0  0  0  0  0  0  0  0  0  0  0  0
   -3.2736    1.5941   -0.5643 C   0  0  0  0  0  0  0  0  0  0  0  0
   -2.7529    2.8836   -0.5544 C   0  0  0  0  0  0  0  0  0  0  0  0
   -1.3746    3.0671   -0.4887 C   0  0  0  0  0  0  0  0  0  0  0  0
   -0.7779    4.4521   -0.4455 C   0  0  0  0  0  0  0  0  0  0  0  0
    0.4032    4.5390   -1.1195 F   0  0  0  0  0  0  0  0  0  0  0  0
   -1.5853    5.4060   -0.9864 F   0  0  0  0  0  0  0  0  0  0  0  0
   -0.5124    4.8605    0.8255 F   0  0  0  0  0  0  0  0  0  0  0  0
   -0.5396    1.9329   -0.4219 C   0  0  0  0  0  0  0  0  0  0  0  0
   -1.0314    0.6064   -0.4366 C   0  0  0  0  0  0  0  0  0  0  0  0
    3.9522    1.3000    1.9860 H   0  0  0  0  0  0  0  0  0  0  0  0
    4.2011   -0.2939    2.1927 H   0  0  0  0  0  0  0  0  0  0  0  0
    3.6660    1.0258   -0.3801 H   0  0  0  0  0  0  0  0  0  0  0  0
    3.9536   -0.7021   -0.1672 H   0  0  0  0  0  0  0  0  0  0  0  0
    1.9534   -0.8415    1.3517 H   0  0  0  0  0  0  0  0  0  0  0  0
    1.6679    0.8708    1.1440 H   0  0  0  0  0  0  0  0  0  0  0  0
    1.7021   -1.1622   -1.1773 H   0  0  0  0  0  0  0  0  0  0  0  0
    1.4085    0.5084   -1.3690 H   0  0  0  0  0  0  0  0  0  0  0  0
    1.3936   -2.7278    0.2178 H   0  0  0  0  0  0  0  0  0  0  0  0
    0.6662   -4.9986    0.5787 H   0  0  0  0  0  0  0  0  0  0  0  0
   -1.7416   -5.5902    0.4741 H   0  0  0  0  0  0  0  0  0  0  0  0
   -3.4027   -3.8421   -0.0117 H   0  0  0  0  0  0  0  0  0  0  0  0
   -4.3540    1.4679   -0.6204 H   0  0  0  0  0  0  0  0  0  0  0  0
   -3.4281    3.7364   -0.5977 H   0  0  0  0  0  0  0  0  0  0  0  0
    0.5259    2.1313   -0.3414 H   0  0  0  0  0  0  0  0  0  0  0  0
  1  2  1  0
  2  3  1  0
  3  4  1  0
  4  5  1  0
  5  6  1  0
  6  7  2  0
  7  8  1  0
  8  9  2  0
  9 10  1  0
 10 11  2  0
 11 12  1  0
 12 13  1  0
 13 14  2  0
 14 15  1  0
 15 16  2  0
 16 17  1  0
 17 18  1  0
 17 19  1  0
 17 20  1  0
 16 21  1  0
 21 22  2  0
 22  5  1  0
 11  6  1  0
 22 13  1  0
  1 23  1  0
  1 24  1  0
  2 25  1  0
  2 26  1  0
  3 27  1  0
  3 28  1  0
  4 29  1  0
  4 30  1  0
  7 31  1  0
  8 32  1  0
  9 33  1  0
 10 34  1  0
 14 35  1  0
 15 36  1  0
 21 37  1  0
M  END
$$$$
