
     RDKit          3D

 64 67  0  0  0  0  0  0  0  0999 V2000
    6.7858   -6.0600   -1.4133 C   0  0  0  0  0  0  0  0  0  0  0  0
    5.4154   -5.9635   -1.0545 O   0  0  0  0  0  0  0  0  0  0  0  0
    4.8917   -4.7041   -0.9587 C   0  0  0  0  0  0  0  0  0  0  0  0
    3.5765   -4.6505   -0.4963 C   0  0  0  0  0  0  0  0  0  0  0  0
    2.9234   -3.4238   -0.3480 C   0  0  0  0  0  0  0  0  0  0  0  0
    3.5779   -2.2287   -0.6615 C   0  0  0  0  0  0  0  0  0  0  0  0
    2.8591   -1.0355   -0.4722 N   0  0  0  0  0  0  0  0  0  0  0  0
    3.2550    0.2577   -0.7710 C   0  0  0  0  0  0  0  0  0  0  0  0
    4.3017    0.5999   -1.3149 O   0  0  0  0  0  0  0  0  0  0  0  0
    2.1889    1.2917   -0.3949 C   0  0  0  0  0  0  0  0  0  0  0  0
    1.1069    1.3084   -1.3793 N   0  0  0  0  0  0  0  0  0  0  0  0
    1.3013    2.1646   -2.5408 C   0  0  0  0  0  0  0  0  0  0  0  0
    0.1035    0.3682   -1.2325 C   0  0  0  0  0  0  0  0  0  0  0  0
    0.1011   -0.4609   -0.3224 O   0  0  0  0  0  0  0  0  0  0  0  0
   -0.9583    0.3464   -2.2637 C   0  0  0  0  0  0  0  0  0  0  0  0
   -2.2704    0.3671   -1.9804 C   0  0  0  0  0  0  0  0  0  0  0  0
   -2.8845    0.4906   -0.7000 C   0  0  0  0  0  0  0  0  0  0  0  0
   -3.8725   -0.3540   -0.2519 C   0  0  0  0  0  0  0  0  0  0  0  0
   -4.1871    0.0407    1.0286 N   0  0  0  0  0  0  0  0  0  0  0  0
   -5.1295   -0.5491    1.9191 C   0  0  0  0  0  0  0  0  0  0  0  0
   -5.8645   -1.6867    1.5550 C   0  0  0  0  0  0  0  0  0  0  0  0
   -6.7816   -2.2447    2.4510 C   0  0  0  0  0  0  0  0  0  0  0  0
   -6.9725   -1.6737    3.7083 C   0  0  0  0  0  0  0  0  0  0  0  0
   -6.2459   -0.5436    4.0766 C   0  0  0  0  0  0  0  0  0  0  0  0
   -5.3264    0.0180    3.1882 C   0  0  0  0  0  0  0  0  0  0  0  0
   -3.4779    1.1355    1.3975 N   0  0  0  0  0  0  0  0  0  0  0  0
   -2.6869    1.4255    0.3532 C   0  0  0  0  0  0  0  0  0  0  0  0
   -1.8002    2.5864    0.4054 C   0  0  0  0  0  0  0  0  0  0  0  0
   -1.7671    3.5149   -0.6422 C   0  0  0  0  0  0  0  0  0  0  0  0
   -0.9034    4.6134   -0.5869 C   0  0  0  0  0  0  0  0  0  0  0  0
   -0.0715    4.8073    0.5221 C   0  0  0  0  0  0  0  0  0  0  0  0
    0.8799    5.9656    0.5698 C   0  0  0  0  0  0  0  0  0  0  0  0
   -0.1048    3.8791    1.5692 C   0  0  0  0  0  0  0  0  0  0  0  0
   -0.9685    2.7823    1.5149 C   0  0  0  0  0  0  0  0  0  0  0  0
    4.8912   -2.2836   -1.1295 C   0  0  0  0  0  0  0  0  0  0  0  0
    5.5450   -3.5150   -1.2791 C   0  0  0  0  0  0  0  0  0  0  0  0
    7.4239   -5.5349   -0.6950 H   0  0  0  0  0  0  0  0  0  0  0  0
    6.9531   -5.6924   -2.4306 H   0  0  0  0  0  0  0  0  0  0  0  0
    7.0630   -7.1187   -1.3901 H   0  0  0  0  0  0  0  0  0  0  0  0
    3.0571   -5.5711   -0.2418 H   0  0  0  0  0  0  0  0  0  0  0  0
    1.8989   -3.4173    0.0177 H   0  0  0  0  0  0  0  0  0  0  0  0
    1.8966   -1.1324   -0.1395 H   0  0  0  0  0  0  0  0  0  0  0  0
    1.7933    1.0515    0.5989 H   0  0  0  0  0  0  0  0  0  0  0  0
    2.6478    2.2831   -0.3241 H   0  0  0  0  0  0  0  0  0  0  0  0
    0.3740    2.3197   -3.0964 H   0  0  0  0  0  0  0  0  0  0  0  0
    2.0402    1.6974   -3.1992 H   0  0  0  0  0  0  0  0  0  0  0  0
    1.6699    3.1417   -2.2121 H   0  0  0  0  0  0  0  0  0  0  0  0
   -0.6206    0.2389   -3.2876 H   0  0  0  0  0  0  0  0  0  0  0  0
   -2.9529    0.2536   -2.8212 H   0  0  0  0  0  0  0  0  0  0  0  0
   -4.3409   -1.2034   -0.7233 H   0  0  0  0  0  0  0  0  0  0  0  0
   -5.7476   -2.1675    0.5893 H   0  0  0  0  0  0  0  0  0  0  0  0
   -7.3478   -3.1291    2.1686 H   0  0  0  0  0  0  0  0  0  0  0  0
   -7.6865   -2.1106    4.4019 H   0  0  0  0  0  0  0  0  0  0  0  0
   -6.3926   -0.0965    5.0569 H   0  0  0  0  0  0  0  0  0  0  0  0
   -4.7695    0.9002    3.4995 H   0  0  0  0  0  0  0  0  0  0  0  0
   -2.4194    3.3971   -1.5039 H   0  0  0  0  0  0  0  0  0  0  0  0
   -0.8908    5.3211   -1.4128 H   0  0  0  0  0  0  0  0  0  0  0  0
    0.4885    6.8186    0.0051 H   0  0  0  0  0  0  0  0  0  0  0  0
    1.8460    5.6726    0.1457 H   0  0  0  0  0  0  0  0  0  0  0  0
    1.0318    6.3026    1.6017 H   0  0  0  0  0  0  0  0  0  0  0  0
    0.5369    4.0056    2.4385 H   0  0  0  0  0  0  0  0  0  0  0  0
   -0.9877    2.0709    2.3383 H   0  0  0  0  0  0  0  0  0  0  0  0
    5.4405   -1.3829   -1.3872 H   0  0  0  0  0  0  0  0  0  0  0  0
    6.5643   -3.5036   -1.6518 H   0  0  0  0  0  0  0  0  0  0  0  0
  1  2  1  0
  2  3  1  0
  3  4  2  0
  4  5  1  0
  5  6  2  0
  6  7  1  0
  7  8  1  0
  8  9  2  0
  8 10  1  0
 10 11  1  0
 11 12  1  0
 11 13  1  0
 13 14  2  0
 13 15  1  0
 15 16  2  3
 16 17  1  0
 17 18  2  0
 18 19  1  0
 19 20  1  0
 20 21  2  0
 21 22  1  0
 22 23  2  0
 23 24  1  0
 24 25  2  0
 19 26  1  0
 26 27  2  0
 27 28  1  0
 28 29  2  0
 29 30  1  0
 30 31  2  0
 31 32  1  0
 31 33  1  0
 33 34  2  0
  6 35  1  0
 35 36  2  0
 36  3  1  0
 27 17  1  0
 34 28  1  0
 25 20  1  0
  1 37  1  0
  1 38  1  0
  1 39  1  0
  4 40  1  0
  5 41  1  0
  7 42  1  0
 10 43  1  0
 10 44  1  0
 12 45  1  0
 12 46  1  0
 12 47  1  0
 15 48  1  0
 16 49  1  0
 18 50  1  0
 21 51  1  0
 22 52  1  0
 23 53  1  0
 24 54  1  0
 25 55  1  0
 29 56  1  0
 30 57  1  0
 32 58  1  0
 32 59  1  0
 32 60  1  0
 33 61  1  0
 34 62  1  0
 35 63  1  0
 36 64  1  0
M  END
$$$$
