
     RDKit          3D

 40 42  0  0  0  0  0  0  0  0999 V2000
    3.6424   -2.4056   -1.1938 N   0  0  0  0  0  0  0  0  0  0  0  0
    3.5180   -1.0285   -0.7333 C   0  0  0  0  0  0  0  0  0  0  0  0
    2.1940   -0.8384    0.0063 C   0  0  0  0  0  0  0  0  0  0  0  0
    2.0595    0.5910    0.5347 C   0  0  0  0  0  0  0  0  0  0  0  0
    0.7620    0.8586    1.3167 C   0  0  0  0  0  0  0  0  0  0  0  0
   -0.4419    0.8837    0.4479 N   0  0  0  0  0  0  0  0  0  0  0  0
   -0.6960    2.1084   -0.2539 C   0  0  0  0  0  0  0  0  0  0  0  0
    0.1683    3.2284   -0.1741 C   0  0  0  0  0  0  0  0  0  0  0  0
   -0.0707    4.4292   -0.8564 C   0  0  0  0  0  0  0  0  0  0  0  0
   -1.1926    4.5600   -1.6526 C   0  0  0  0  0  0  0  0  0  0  0  0
   -2.0668    3.4869   -1.7600 C   0  0  0  0  0  0  0  0  0  0  0  0
   -1.8297    2.2758   -1.0745 C   0  0  0  0  0  0  0  0  0  0  0  0
   -3.0602    1.0274   -1.3348 S   0  0  0  0  0  0  0  0  0  0  0  0
   -2.4622   -0.3173   -0.3462 C   0  0  0  0  0  0  0  0  0  0  0  0
   -3.2808   -1.4661   -0.3707 C   0  0  0  0  0  0  0  0  0  0  0  0
   -2.9463   -2.6073    0.3464 C   0  0  0  0  0  0  0  0  0  0  0  0
   -1.7755   -2.6221    1.0956 C   0  0  0  0  0  0  0  0  0  0  0  0
   -1.3944   -3.8411    1.8998 C   0  0  0  0  0  0  0  0  0  0  0  0
   -1.8096   -5.0077    1.3320 F   0  0  0  0  0  0  0  0  0  0  0  0
   -0.0497   -3.9703    2.0735 F   0  0  0  0  0  0  0  0  0  0  0  0
   -1.9318   -3.8216    3.1506 F   0  0  0  0  0  0  0  0  0  0  0  0
   -0.9680   -1.4643    1.1217 C   0  0  0  0  0  0  0  0  0  0  0  0
   -1.2739   -0.2775    0.4119 C   0  0  0  0  0  0  0  0  0  0  0  0
    2.8751   -2.6254   -1.8286 H   0  0  0  0  0  0  0  0  0  0  0  0
    4.4979   -2.5050   -1.7389 H   0  0  0  0  0  0  0  0  0  0  0  0
    4.3584   -0.7975   -0.0699 H   0  0  0  0  0  0  0  0  0  0  0  0
    3.5735   -0.3505   -1.5920 H   0  0  0  0  0  0  0  0  0  0  0  0
    2.1386   -1.5443    0.8436 H   0  0  0  0  0  0  0  0  0  0  0  0
    1.3666   -1.0639   -0.6760 H   0  0  0  0  0  0  0  0  0  0  0  0
    2.9032    0.7955    1.2061 H   0  0  0  0  0  0  0  0  0  0  0  0
    2.1576    1.2866   -0.3058 H   0  0  0  0  0  0  0  0  0  0  0  0
    0.8527    1.8084    1.8589 H   0  0  0  0  0  0  0  0  0  0  0  0
    0.6819    0.1601    2.1538 H   0  0  0  0  0  0  0  0  0  0  0  0
    1.0750    3.2154    0.4208 H   0  0  0  0  0  0  0  0  0  0  0  0
    0.6280    5.2564   -0.7586 H   0  0  0  0  0  0  0  0  0  0  0  0
   -1.3893    5.4854   -2.1860 H   0  0  0  0  0  0  0  0  0  0  0  0
   -2.9491    3.5969   -2.3885 H   0  0  0  0  0  0  0  0  0  0  0  0
   -4.1975   -1.4726   -0.9592 H   0  0  0  0  0  0  0  0  0  0  0  0
   -3.5985   -3.4779    0.3115 H   0  0  0  0  0  0  0  0  0  0  0  0
   -0.0680   -1.5487    1.7217 H   0  0  0  0  0  0  0  0  0  0  0  0
  1  2  1  0
  2  3  1  0
  3  4  1  0
  4  5  1  0
  5  6  1  0
  6  7  1  0
  7  8  2  0
  8  9  1  0
  9 10  2  0
 10 11  1  0
 11 12  2  0
 12 13  1  0
 13 14  1  0
 14 15  2  0
 15 16  1  0
 16 17  2  0
 17 18  1  0
 18 19  1  0
 18 20  1  0
 18 21  1  0
 17 22  1  0
 22 23  2  0
 23  6  1  0
 12  7  1  0
 23 14  1  0
  1 24  1  0
  1 25  1  0
  2 26  1  0
  2 27  1  0
  3 28  1  0
  3 29  1  0
  4 30  1  0
  4 31  1  0
  5 32  1  0
  5 33  1  0
  8 34  1  0
  9 35  1  0
 10 36  1  0
 11 37  1  0
 15 38  1  0
 16 39  1  0
 22 40  1  0
M  END
$$$$
