
     RDKit          3D

 59 64  0  0  0  0  0  0  0  0999 V2000
   -4.1960   -1.8466   -0.6790 C   0  0  0  0  0  0  0  0  0  0  0  0
   -4.8748   -0.5502   -0.4238 C   0  0  0  0  0  0  0  0  0  0  0  0
   -5.6271    0.0858   -1.3002 N   0  0  0  0  0  0  0  0  0  0  0  0
   -6.0797    1.2104   -0.6626 C   0  0  0  0  0  0  0  0  0  0  0  0
   -6.9212    2.2256   -1.1406 C   0  0  0  0  0  0  0  0  0  0  0  0
   -7.2589    3.2808   -0.2855 C   0  0  0  0  0  0  0  0  0  0  0  0
   -6.7705    3.3222    1.0213 C   0  0  0  0  0  0  0  0  0  0  0  0
   -5.9288    2.3182    1.5149 C   0  0  0  0  0  0  0  0  0  0  0  0
   -5.5972    1.2741    0.6407 C   0  0  0  0  0  0  0  0  0  0  0  0
   -4.8079    0.1500    0.7637 N   0  0  0  0  0  0  0  0  0  0  0  0
   -4.0914   -0.2373    1.9669 C   0  0  0  0  0  0  0  0  0  0  0  0
   -2.8430    0.5968    2.2443 C   0  0  0  0  0  0  0  0  0  0  0  0
   -1.7540    0.3754    1.2609 C   0  0  0  0  0  0  0  0  0  0  0  0
   -1.2592    1.3912    0.4824 N   0  0  0  0  0  0  0  0  0  0  0  0
   -0.3271    0.7907   -0.2239 C   0  0  0  0  0  0  0  0  0  0  0  0
    0.5695    1.2725   -1.2513 C   0  0  0  0  0  0  0  0  0  0  0  0
    0.5775    2.6001   -1.6819 C   0  0  0  0  0  0  0  0  0  0  0  0
    1.4720    2.9932   -2.6772 C   0  0  0  0  0  0  0  0  0  0  0  0
    2.3516    2.0633   -3.2360 C   0  0  0  0  0  0  0  0  0  0  0  0
    2.3398    0.7334   -2.8051 C   0  0  0  0  0  0  0  0  0  0  0  0
    1.4507    0.3218   -1.8122 C   0  0  0  0  0  0  0  0  0  0  0  0
    1.4671   -1.0379   -1.4005 N   0  0  0  0  0  0  0  0  0  0  0  0
    0.6471   -1.4258   -0.4579 C   0  0  0  0  0  0  0  0  0  0  0  0
    0.6913   -3.1104    0.0495 S   0  0  0  0  0  0  0  0  0  0  0  0
    2.4911   -3.3582    0.0480 C   0  0  0  0  0  0  0  0  0  0  0  0
    3.2369   -2.2606    0.7991 C   0  0  0  0  0  0  0  0  0  0  0  0
    2.7329   -1.5605    1.6738 O   0  0  0  0  0  0  0  0  0  0  0  0
    4.5549   -2.1311    0.4171 N   0  0  0  0  0  0  0  0  0  0  0  0
    5.3536   -1.0386    0.9230 C   0  0  0  0  0  0  0  0  0  0  0  0
    6.7677   -1.2785    0.5496 C   0  0  0  0  0  0  0  0  0  0  0  0
    7.9219   -1.4736    1.2806 C   0  0  0  0  0  0  0  0  0  0  0  0
    8.9636   -1.6615    0.3403 C   0  0  0  0  0  0  0  0  0  0  0  0
    8.3809   -1.5714   -0.9020 C   0  0  0  0  0  0  0  0  0  0  0  0
    7.0471   -1.3413   -0.7871 O   0  0  0  0  0  0  0  0  0  0  0  0
   -0.2540   -0.5286    0.1322 N   0  0  0  0  0  0  0  0  0  0  0  0
   -1.1745   -0.8196    1.0850 N   0  0  0  0  0  0  0  0  0  0  0  0
   -4.5205   -2.2598   -1.6402 H   0  0  0  0  0  0  0  0  0  0  0  0
   -4.4393   -2.5821    0.0938 H   0  0  0  0  0  0  0  0  0  0  0  0
   -3.1121   -1.7165   -0.7235 H   0  0  0  0  0  0  0  0  0  0  0  0
   -7.2987    2.1806   -2.1558 H   0  0  0  0  0  0  0  0  0  0  0  0
   -7.9099    4.0732   -0.6455 H   0  0  0  0  0  0  0  0  0  0  0  0
   -7.0478    4.1514    1.6693 H   0  0  0  0  0  0  0  0  0  0  0  0
   -5.5538    2.3609    2.5315 H   0  0  0  0  0  0  0  0  0  0  0  0
   -3.8502   -1.3032    1.9054 H   0  0  0  0  0  0  0  0  0  0  0  0
   -4.7991   -0.1283    2.7979 H   0  0  0  0  0  0  0  0  0  0  0  0
   -3.0918    1.6640    2.2739 H   0  0  0  0  0  0  0  0  0  0  0  0
   -2.4636    0.3407    3.2417 H   0  0  0  0  0  0  0  0  0  0  0  0
   -0.1096    3.3231   -1.2475 H   0  0  0  0  0  0  0  0  0  0  0  0
    1.4825    4.0259   -3.0189 H   0  0  0  0  0  0  0  0  0  0  0  0
    3.0472    2.3743   -4.0120 H   0  0  0  0  0  0  0  0  0  0  0  0
    3.0253    0.0154   -3.2473 H   0  0  0  0  0  0  0  0  0  0  0  0
    2.7143   -4.3142    0.5320 H   0  0  0  0  0  0  0  0  0  0  0  0
    2.8402   -3.4100   -0.9886 H   0  0  0  0  0  0  0  0  0  0  0  0
    4.8483   -2.5196   -0.4706 H   0  0  0  0  0  0  0  0  0  0  0  0
    4.9857   -0.1087    0.4768 H   0  0  0  0  0  0  0  0  0  0  0  0
    5.2333   -0.9720    2.0094 H   0  0  0  0  0  0  0  0  0  0  0  0
    8.0000   -1.4817    2.3592 H   0  0  0  0  0  0  0  0  0  0  0  0
   10.0099   -1.8427    0.5432 H   0  0  0  0  0  0  0  0  0  0  0  0
    8.7575   -1.6449   -1.9129 H   0  0  0  0  0  0  0  0  0  0  0  0
  1  2  1  0
  2  3  2  0
  3  4  1  0
  4  5  2  0
  5  6  1  0
  6  7  2  0
  7  8  1  0
  8  9  2  0
  9 10  1  0
 10 11  1  0
 11 12  1  0
 12 13  1  0
 13 14  1  0
 14 15  2  0
 15 16  1  0
 16 17  2  0
 17 18  1  0
 18 19  2  0
 19 20  1  0
 20 21  2  0
 21 22  1  0
 22 23  2  0
 23 24  1  0
 24 25  1  0
 25 26  1  0
 26 27  2  0
 26 28  1  0
 28 29  1  0
 29 30  1  0
 30 31  2  0
 31 32  1  0
 32 33  2  0
 33 34  1  0
 23 35  1  0
 35 36  1  0
 10  2  1  0
 36 13  2  0
  9  4  1  0
 35 15  1  0
 21 16  1  0
 34 30  1  0
  1 37  1  0
  1 38  1  0
  1 39  1  0
  5 40  1  0
  6 41  1  0
  7 42  1  0
  8 43  1  0
 11 44  1  0
 11 45  1  0
 12 46  1  0
 12 47  1  0
 17 48  1  0
 18 49  1  0
 19 50  1  0
 20 51  1  0
 25 52  1  0
 25 53  1  0
 28 54  1  0
 29 55  1  0
 29 56  1  0
 31 57  1  0
 32 58  1  0
 33 59  1  0
M  END
$$$$
