
     RDKit          3D

 44 44  0  0  0  0  0  0  0  0999 V2000
   -3.9901   -0.5913    1.8333 C   0  0  0  0  0  0  0  0  0  0  0  0
   -2.6544    0.0131    1.3853 C   0  0  0  0  0  0  0  0  0  0  0  0
   -1.7186    0.0060    2.6132 C   0  0  0  0  0  0  0  0  0  0  0  0
   -2.0093   -0.7020    0.1506 C   0  0  0  0  0  0  0  0  0  0  0  0
   -1.6534   -2.0330    0.5428 O   0  0  0  0  0  0  0  0  0  0  0  0
   -0.7438   -0.0044   -0.2081 C   0  0  0  0  0  0  0  0  0  0  0  0
    0.2924    0.5278   -0.5058 C   0  0  0  0  0  0  0  0  0  0  0  0
    1.5709    1.1637   -0.8617 C   0  0  0  0  0  0  0  0  0  0  0  0
    2.6144    0.1630   -1.1236 N   0  0  0  0  0  0  0  0  0  0  0  0
    3.7787    0.7539   -1.7996 C   0  0  0  0  0  0  0  0  0  0  0  0
    4.6428    1.6373   -0.8962 C   0  0  0  0  0  0  0  0  0  0  0  0
    5.0780    0.8856    0.3569 C   0  0  0  0  0  0  0  0  0  0  0  0
    3.8802    0.2535    1.0574 C   0  0  0  0  0  0  0  0  0  0  0  0
    3.0352   -0.5707    0.0817 C   0  0  0  0  0  0  0  0  0  0  0  0
   -2.8798   -0.7903   -1.1520 C   0  0  0  0  0  0  0  0  0  0  0  0
   -3.5515    0.5340   -1.5331 C   0  0  0  0  0  0  0  0  0  0  0  0
   -3.9021   -1.9350   -1.1821 C   0  0  0  0  0  0  0  0  0  0  0  0
   -3.9188   -1.6752    1.9692 H   0  0  0  0  0  0  0  0  0  0  0  0
   -4.7850   -0.3763    1.1162 H   0  0  0  0  0  0  0  0  0  0  0  0
   -4.3165   -0.1581    2.7858 H   0  0  0  0  0  0  0  0  0  0  0  0
   -2.8349    1.0666    1.1325 H   0  0  0  0  0  0  0  0  0  0  0  0
   -2.1782    0.5431    3.4507 H   0  0  0  0  0  0  0  0  0  0  0  0
   -0.7675    0.5044    2.4034 H   0  0  0  0  0  0  0  0  0  0  0  0
   -1.5043   -1.0137    2.9502 H   0  0  0  0  0  0  0  0  0  0  0  0
   -1.0333   -2.3652   -0.1297 H   0  0  0  0  0  0  0  0  0  0  0  0
    1.3937    1.7516   -1.7715 H   0  0  0  0  0  0  0  0  0  0  0  0
    1.8636    1.8763   -0.0831 H   0  0  0  0  0  0  0  0  0  0  0  0
    4.3981   -0.0624   -2.1942 H   0  0  0  0  0  0  0  0  0  0  0  0
    3.4596    1.3250   -2.6802 H   0  0  0  0  0  0  0  0  0  0  0  0
    4.0906    2.5408   -0.6115 H   0  0  0  0  0  0  0  0  0  0  0  0
    5.5288    1.9710   -1.4485 H   0  0  0  0  0  0  0  0  0  0  0  0
    5.5992    1.5641    1.0412 H   0  0  0  0  0  0  0  0  0  0  0  0
    5.7918    0.1001    0.0792 H   0  0  0  0  0  0  0  0  0  0  0  0
    3.2683    1.0363    1.5206 H   0  0  0  0  0  0  0  0  0  0  0  0
    4.2322   -0.3909    1.8712 H   0  0  0  0  0  0  0  0  0  0  0  0
    3.6226   -1.4410   -0.2406 H   0  0  0  0  0  0  0  0  0  0  0  0
    2.1725   -0.9930    0.6100 H   0  0  0  0  0  0  0  0  0  0  0  0
   -2.1904   -1.0313   -1.9766 H   0  0  0  0  0  0  0  0  0  0  0  0
   -2.8256    1.3519   -1.5779 H   0  0  0  0  0  0  0  0  0  0  0  0
   -4.0160    0.4556   -2.5224 H   0  0  0  0  0  0  0  0  0  0  0  0
   -4.3370    0.8129   -0.8252 H   0  0  0  0  0  0  0  0  0  0  0  0
   -3.4293   -2.9014   -0.9818 H   0  0  0  0  0  0  0  0  0  0  0  0
   -4.7157   -1.7980   -0.4690 H   0  0  0  0  0  0  0  0  0  0  0  0
   -4.3584   -2.0043   -2.1766 H   0  0  0  0  0  0  0  0  0  0  0  0
  1  2  1  0
  2  3  1  0
  2  4  1  0
  4  5  1  0
  4  6  1  0
  6  7  3  0
  7  8  1  0
  8  9  1  0
  9 10  1  0
 10 11  1  0
 11 12  1  0
 12 13  1  0
 13 14  1  0
  4 15  1  0
 15 16  1  0
 15 17  1  0
 14  9  1  0
  1 18  1  0
  1 19  1  0
  1 20  1  0
  2 21  1  0
  3 22  1  0
  3 23  1  0
  3 24  1  0
  5 25  1  0
  8 26  1  0
  8 27  1  0
 10 28  1  0
 10 29  1  0
 11 30  1  0
 11 31  1  0
 12 32  1  0
 12 33  1  0
 13 34  1  0
 13 35  1  0
 14 36  1  0
 14 37  1  0
 15 38  1  0
 16 39  1  0
 16 40  1  0
 16 41  1  0
 17 42  1  0
 17 43  1  0
 17 44  1  0
M  END
$$$$
