
     RDKit          3D

 39 39  0  0  0  0  0  0  0  0999 V2000
   -2.6024    3.6675    1.8744 C   0  0  0  0  0  0  0  0  0  0  0  0
   -1.8797    2.8031    0.8882 C   0  0  0  0  0  0  0  0  0  0  0  0
   -0.9324    3.1696    0.2083 O   0  0  0  0  0  0  0  0  0  0  0  0
   -2.4231    1.5541    0.8728 O   0  0  0  0  0  0  0  0  0  0  0  0
   -1.8188    0.6311   -0.0503 C   0  0  0  0  0  0  0  0  0  0  0  0
   -0.6096   -0.0368    0.6029 C   0  0  0  0  0  0  0  0  0  0  0  0
    0.1636   -0.9424   -0.3704 C   0  0  0  0  0  0  0  0  0  0  0  0
    1.3651   -1.4603    0.2963 N   0  0  0  0  0  0  0  0  0  0  0  0
    2.8241   -0.7118    0.0280 S   0  0  0  0  0  6  0  0  0  0  0  0
    3.7752   -1.3413    0.9141 O   0  0  0  0  0  0  0  0  0  0  0  0
    3.0468   -0.6322   -1.3958 O   0  0  0  0  0  0  0  0  0  0  0  0
    2.5809    0.7913    0.5723 O   0  0  0  0  0  0  0  0  0  0  0  0
    3.7105    1.6612    0.6174 C   0  0  0  0  0  0  0  0  0  0  0  0
    3.2862    3.1363    0.6071 C   0  0  0  0  0  0  0  0  0  0  0  0
    4.7459    4.1723    0.7309 Cl  0  0  0  0  0  0  0  0  0  0  0  0
    2.4370    3.5331   -0.9148 Cl  0  0  0  0  0  0  0  0  0  0  0  0
    2.2212    3.4960    2.0019 Cl  0  0  0  0  0  0  0  0  0  0  0  0
   -0.6656   -2.1060   -0.8900 C   0  0  0  0  0  0  0  0  0  0  0  0
   -0.7498   -2.3340   -2.2733 C   0  0  0  0  0  0  0  0  0  0  0  0
   -1.5024   -3.3965   -2.7771 C   0  0  0  0  0  0  0  0  0  0  0  0
   -2.1735   -4.2511   -1.9063 C   0  0  0  0  0  0  0  0  0  0  0  0
   -2.0867   -4.0494   -0.5309 C   0  0  0  0  0  0  0  0  0  0  0  0
   -1.3339   -2.9878   -0.0245 C   0  0  0  0  0  0  0  0  0  0  0  0
   -2.4891    3.2557    2.8803 H   0  0  0  0  0  0  0  0  0  0  0  0
   -2.1728    4.6732    1.8575 H   0  0  0  0  0  0  0  0  0  0  0  0
   -3.6588    3.7368    1.6029 H   0  0  0  0  0  0  0  0  0  0  0  0
   -1.5519    1.1360   -0.9865 H   0  0  0  0  0  0  0  0  0  0  0  0
   -2.5862   -0.1105   -0.2942 H   0  0  0  0  0  0  0  0  0  0  0  0
   -0.9378   -0.5860    1.4948 H   0  0  0  0  0  0  0  0  0  0  0  0
    0.0576    0.7403    0.9935 H   0  0  0  0  0  0  0  0  0  0  0  0
    0.4603   -0.3281   -1.2302 H   0  0  0  0  0  0  0  0  0  0  0  0
    1.2622   -1.8536    1.2270 H   0  0  0  0  0  0  0  0  0  0  0  0
    4.3707    1.4595   -0.2363 H   0  0  0  0  0  0  0  0  0  0  0  0
    4.2729    1.4290    1.5301 H   0  0  0  0  0  0  0  0  0  0  0  0
   -0.2205   -1.6887   -2.9726 H   0  0  0  0  0  0  0  0  0  0  0  0
   -1.5577   -3.5610   -3.8503 H   0  0  0  0  0  0  0  0  0  0  0  0
   -2.7556   -5.0805   -2.2995 H   0  0  0  0  0  0  0  0  0  0  0  0
   -2.6005   -4.7246    0.1488 H   0  0  0  0  0  0  0  0  0  0  0  0
   -1.2713   -2.8636    1.0536 H   0  0  0  0  0  0  0  0  0  0  0  0
  1  2  1  0
  2  3  2  0
  2  4  1  0
  4  5  1  0
  5  6  1  0
  6  7  1  0
  7  8  1  0
  8  9  1  0
  9 10  2  0
  9 11  2  0
  9 12  1  0
 12 13  1  0
 13 14  1  0
 14 15  1  0
 14 16  1  0
 14 17  1  0
  7 18  1  0
 18 19  2  0
 19 20  1  0
 20 21  2  0
 21 22  1  0
 22 23  2  0
 23 18  1  0
  1 24  1  0
  1 25  1  0
  1 26  1  0
  5 27  1  0
  5 28  1  0
  6 29  1  0
  6 30  1  0
  7 31  1  0
  8 32  1  0
 13 33  1  0
 13 34  1  0
 19 35  1  0
 20 36  1  0
 21 37  1  0
 22 38  1  0
 23 39  1  0
M  END
$$$$
