
     RDKit          3D

 51 53  0  0  0  0  0  0  0  0999 V2000
    4.2816   -4.1955    1.7391 C   0  0  0  0  0  0  0  0  0  0  0  0
    4.1454   -2.9025    1.1650 O   0  0  0  0  0  0  0  0  0  0  0  0
    2.8735   -2.4241    0.9812 C   0  0  0  0  0  0  0  0  0  0  0  0
    1.7061   -3.1176    1.3198 C   0  0  0  0  0  0  0  0  0  0  0  0
    0.4511   -2.5543    1.0730 C   0  0  0  0  0  0  0  0  0  0  0  0
    0.3570   -1.2926    0.4862 C   0  0  0  0  0  0  0  0  0  0  0  0
   -0.9589   -0.6880    0.1899 C   0  0  0  0  0  0  0  0  0  0  0  0
   -2.0627   -1.3319    0.4055 N   0  0  0  0  0  0  0  0  0  0  0  0
   -3.2436   -0.6916    0.1288 N   0  0  0  0  0  0  0  0  0  0  0  0
   -3.5082    0.6566    0.3287 C   0  0  0  0  0  0  0  0  0  0  0  0
   -2.6760    1.4956    0.6645 O   0  0  0  0  0  0  0  0  0  0  0  0
   -4.9265    1.0984    0.0999 C   0  0  0  0  0  0  0  0  0  0  0  0
   -5.1286    2.4825   -0.0568 C   0  0  0  0  0  0  0  0  0  0  0  0
   -6.4028    3.0016   -0.2800 C   0  0  0  0  0  0  0  0  0  0  0  0
   -7.4929    2.1436   -0.3495 C   0  0  0  0  0  0  0  0  0  0  0  0
   -7.3133    0.7681   -0.1876 C   0  0  0  0  0  0  0  0  0  0  0  0
   -6.0383    0.2322    0.0484 C   0  0  0  0  0  0  0  0  0  0  0  0
   -5.8143   -1.1114    0.2151 O   0  0  0  0  0  0  0  0  0  0  0  0
   -6.9333   -1.9226    0.5592 C   0  0  0  0  0  0  0  0  0  0  0  0
    1.5156   -0.5860    0.1542 C   0  0  0  0  0  0  0  0  0  0  0  0
    2.7853   -1.1407    0.4021 C   0  0  0  0  0  0  0  0  0  0  0  0
    4.0588   -0.4077    0.0208 C   0  0  0  0  0  0  0  0  0  0  0  0
    3.7820    0.9466   -0.3408 O   0  0  0  0  0  0  0  0  0  0  0  0
    4.8213    1.7265   -0.7655 C   0  0  0  0  0  0  0  0  0  0  0  0
    6.1626    1.3521   -0.8729 C   0  0  0  0  0  0  0  0  0  0  0  0
    6.5702    0.1188   -0.5435 F   0  0  0  0  0  0  0  0  0  0  0  0
    7.1185    2.2568   -1.3323 C   0  0  0  0  0  0  0  0  0  0  0  0
    8.3987    1.8757   -1.4359 F   0  0  0  0  0  0  0  0  0  0  0  0
    6.7515    3.5447   -1.6887 C   0  0  0  0  0  0  0  0  0  0  0  0
    7.6748    4.4071   -2.1343 F   0  0  0  0  0  0  0  0  0  0  0  0
    5.4270    3.9339   -1.5855 C   0  0  0  0  0  0  0  0  0  0  0  0
    5.0652    5.1760   -1.9329 F   0  0  0  0  0  0  0  0  0  0  0  0
    4.4716    3.0325   -1.1278 C   0  0  0  0  0  0  0  0  0  0  0  0
    3.1931    3.4285   -1.0394 F   0  0  0  0  0  0  0  0  0  0  0  0
    3.8198   -4.9593    1.1052 H   0  0  0  0  0  0  0  0  0  0  0  0
    5.3504   -4.4192    1.8043 H   0  0  0  0  0  0  0  0  0  0  0  0
    3.8735   -4.2205    2.7532 H   0  0  0  0  0  0  0  0  0  0  0  0
    1.7342   -4.1028    1.7731 H   0  0  0  0  0  0  0  0  0  0  0  0
   -0.4479   -3.1065    1.3383 H   0  0  0  0  0  0  0  0  0  0  0  0
   -0.9316    0.3174   -0.2631 H   0  0  0  0  0  0  0  0  0  0  0  0
   -4.0484   -1.3138    0.0877 H   0  0  0  0  0  0  0  0  0  0  0  0
   -4.2831    3.1672   -0.0087 H   0  0  0  0  0  0  0  0  0  0  0  0
   -6.5385    4.0728   -0.4032 H   0  0  0  0  0  0  0  0  0  0  0  0
   -8.4871    2.5437   -0.5314 H   0  0  0  0  0  0  0  0  0  0  0  0
   -8.1935    0.1376   -0.2616 H   0  0  0  0  0  0  0  0  0  0  0  0
   -7.4612   -1.5270    1.4316 H   0  0  0  0  0  0  0  0  0  0  0  0
   -7.6077   -2.0413   -0.2939 H   0  0  0  0  0  0  0  0  0  0  0  0
   -6.5554   -2.9167    0.8208 H   0  0  0  0  0  0  0  0  0  0  0  0
    1.4293    0.3990   -0.3015 H   0  0  0  0  0  0  0  0  0  0  0  0
    4.5016   -0.9339   -0.8316 H   0  0  0  0  0  0  0  0  0  0  0  0
    4.7342   -0.4081    0.8815 H   0  0  0  0  0  0  0  0  0  0  0  0
  1  2  1  0
  2  3  1  0
  3  4  2  0
  4  5  1  0
  5  6  2  0
  6  7  1  0
  7  8  2  3
  8  9  1  0
  9 10  1  0
 10 11  2  0
 10 12  1  0
 12 13  2  0
 13 14  1  0
 14 15  2  0
 15 16  1  0
 16 17  2  0
 17 18  1  0
 18 19  1  0
  6 20  1  0
 20 21  2  0
 21 22  1  0
 22 23  1  0
 23 24  1  0
 24 25  2  0
 25 26  1  0
 25 27  1  0
 27 28  1  0
 27 29  2  0
 29 30  1  0
 29 31  1  0
 31 32  1  0
 31 33  2  0
 33 34  1  0
 21  3  1  0
 33 24  1  0
 17 12  1  0
  1 35  1  0
  1 36  1  0
  1 37  1  0
  4 38  1  0
  5 39  1  0
  7 40  1  0
  9 41  1  0
 13 42  1  0
 14 43  1  0
 15 44  1  0
 16 45  1  0
 19 46  1  0
 19 47  1  0
 19 48  1  0
 20 49  1  0
 22 50  1  0
 22 51  1  0
M  END
$$$$
