
     RDKit          3D

 56 61  0  0  0  0  0  0  0  0999 V2000
    2.0253    2.5738    2.9668 O   0  0  0  0  0  0  0  0  0  0  0  0
    1.3252    3.0083    2.0641 C   0  0  0  0  0  0  0  0  0  0  0  0
    0.7539    4.2848    2.0496 N   0  0  0  0  0  0  0  0  0  0  0  0
    0.0123    4.4961    0.8956 C   0  0  0  0  0  0  0  0  0  0  0  0
   -0.6860    5.6364    0.5586 C   0  0  0  0  0  0  0  0  0  0  0  0
   -1.3814    5.6286   -0.6526 C   0  0  0  0  0  0  0  0  0  0  0  0
   -1.3629    4.4959   -1.4867 C   0  0  0  0  0  0  0  0  0  0  0  0
   -0.6457    3.3512   -1.1261 C   0  0  0  0  0  0  0  0  0  0  0  0
    0.0442    3.3624    0.0772 C   0  0  0  0  0  0  0  0  0  0  0  0
    0.8880    2.3127    0.7407 C   0  0  0  0  0  0  0  0  0  0  0  0
    2.0705    1.8463   -0.0548 N   0  0  0  0  0  0  0  0  0  0  0  0
    2.2500    0.3647    0.2264 C   0  0  2  0  0  0  0  0  0  0  0  0
    2.7934   -0.3330   -1.0337 C   0  0  0  0  0  0  0  0  0  0  0  0
    3.2075   -1.7735   -0.8374 C   0  0  0  0  0  0  0  0  0  0  0  0
    4.1967   -2.1184    0.0941 C   0  0  0  0  0  0  0  0  0  0  0  0
    4.5621   -3.4529    0.2772 C   0  0  0  0  0  0  0  0  0  0  0  0
    3.9518   -4.4542   -0.4749 C   0  0  0  0  0  0  0  0  0  0  0  0
    2.9804   -4.1221   -1.4164 C   0  0  0  0  0  0  0  0  0  0  0  0
    2.6134   -2.7885   -1.6017 C   0  0  0  0  0  0  0  0  0  0  0  0
    0.8841   -0.0398    0.6529 C   0  0  0  0  0  0  0  0  0  0  0  0
    0.0987    1.0888    0.9396 C   0  0  0  0  0  0  0  0  0  0  0  0
   -1.1484    0.6733    1.3271 C   0  0  0  0  0  0  0  0  0  0  0  0
   -2.2401    1.3362    1.6888 O   0  0  0  0  0  0  0  0  0  0  0  0
   -1.1251   -0.7108    1.2828 N   0  0  0  0  0  0  0  0  0  0  0  0
   -2.2480   -1.5744    1.6245 C   0  0  0  0  0  0  0  0  0  0  0  0
   -3.0845   -1.9029    0.4110 C   0  0  0  0  0  0  0  0  0  0  0  0
   -4.1690   -1.0899    0.0506 C   0  0  0  0  0  0  0  0  0  0  0  0
   -4.9361   -1.3895   -1.0763 C   0  0  0  0  0  0  0  0  0  0  0  0
   -4.6246   -2.5009   -1.8574 C   0  0  0  0  0  0  0  0  0  0  0  0
   -3.5434   -3.3110   -1.5154 C   0  0  0  0  0  0  0  0  0  0  0  0
   -2.7754   -3.0127   -0.3888 C   0  0  0  0  0  0  0  0  0  0  0  0
    0.1389   -1.1579    0.9270 C   0  0  0  0  0  0  0  0  0  0  0  0
    0.4197   -2.4546    0.9125 O   0  0  0  0  0  0  0  0  0  0  0  0
    0.8967    4.9483    2.7958 H   0  0  0  0  0  0  0  0  0  0  0  0
   -0.7007    6.5090    1.2016 H   0  0  0  0  0  0  0  0  0  0  0  0
   -1.9455    6.5079   -0.9569 H   0  0  0  0  0  0  0  0  0  0  0  0
   -1.9160    4.5114   -2.4240 H   0  0  0  0  0  0  0  0  0  0  0  0
   -0.6450    2.4753   -1.7685 H   0  0  0  0  0  0  0  0  0  0  0  0
    1.7969    1.9262   -1.0322 H   0  0  0  0  0  0  0  0  0  0  0  0
    2.9440    0.2687    1.0695 H   0  0  0  0  0  0  0  0  0  0  0  0
    2.0498   -0.2719   -1.8403 H   0  0  0  0  0  0  0  0  0  0  0  0
    3.6785    0.2061   -1.3987 H   0  0  0  0  0  0  0  0  0  0  0  0
    4.6949   -1.3515    0.6842 H   0  0  0  0  0  0  0  0  0  0  0  0
    5.3279   -3.7106    1.0047 H   0  0  0  0  0  0  0  0  0  0  0  0
    4.2386   -5.4930   -0.3322 H   0  0  0  0  0  0  0  0  0  0  0  0
    2.5075   -4.9022   -2.0077 H   0  0  0  0  0  0  0  0  0  0  0  0
    1.8479   -2.5500   -2.3378 H   0  0  0  0  0  0  0  0  0  0  0  0
   -2.0542    2.2875    1.5923 H   0  0  0  0  0  0  0  0  0  0  0  0
   -1.8563   -2.4866    2.0895 H   0  0  0  0  0  0  0  0  0  0  0  0
   -2.8491   -1.0728    2.3919 H   0  0  0  0  0  0  0  0  0  0  0  0
   -4.4153   -0.2132    0.6466 H   0  0  0  0  0  0  0  0  0  0  0  0
   -5.7747   -0.7531   -1.3454 H   0  0  0  0  0  0  0  0  0  0  0  0
   -5.2216   -2.7332   -2.7350 H   0  0  0  0  0  0  0  0  0  0  0  0
   -3.2948   -4.1740   -2.1271 H   0  0  0  0  0  0  0  0  0  0  0  0
   -1.9264   -3.6461   -0.1380 H   0  0  0  0  0  0  0  0  0  0  0  0
    1.3708   -2.5547    0.7228 H   0  0  0  0  0  0  0  0  0  0  0  0
  1  2  2  0
  2  3  1  0
  3  4  1  0
  4  5  2  0
  5  6  1  0
  6  7  2  0
  7  8  1  0
  8  9  2  0
  9 10  1  0
 10 11  1  0
 11 12  1  0
 12 13  1  0
 13 14  1  0
 14 15  2  0
 15 16  1  0
 16 17  2  0
 17 18  1  0
 18 19  2  0
 12 20  1  0
 20 21  1  0
 21 22  2  0
 22 23  1  0
 22 24  1  0
 24 25  1  0
 25 26  1  0
 26 27  2  0
 27 28  1  0
 28 29  2  0
 29 30  1  0
 30 31  2  0
 24 32  1  0
 32 33  1  0
 10  2  1  0
 19 14  1  0
 32 20  2  0
  9  4  1  0
 21 10  1  0
 31 26  1  0
  3 34  1  0
  5 35  1  0
  6 36  1  0
  7 37  1  0
  8 38  1  0
 11 39  1  0
 12 40  1  1
 13 41  1  0
 13 42  1  0
 15 43  1  0
 16 44  1  0
 17 45  1  0
 18 46  1  0
 19 47  1  0
 23 48  1  0
 25 49  1  0
 25 50  1  0
 27 51  1  0
 28 52  1  0
 29 53  1  0
 30 54  1  0
 31 55  1  0
 33 56  1  0
M  END
$$$$
