
     RDKit          3D

 56 60  0  0  0  0  0  0  0  0999 V2000
   -1.0246    3.7538    0.1013 C   0  0  0  0  0  0  0  0  0  0  0  0
   -1.6995    3.1498   -1.1020 C   0  0  0  0  0  0  0  0  0  0  0  0
   -1.9677    3.9857   -2.1967 C   0  0  0  0  0  0  0  0  0  0  0  0
   -2.6186    3.4954   -3.3253 C   0  0  0  0  0  0  0  0  0  0  0  0
   -3.0427    2.1700   -3.3643 C   0  0  0  0  0  0  0  0  0  0  0  0
   -2.8243    1.3134   -2.2743 C   0  0  0  0  0  0  0  0  0  0  0  0
   -3.3619   -0.0903   -2.3603 C   0  0  0  0  0  0  0  0  0  0  0  0
   -2.1145    1.7982   -1.1505 C   0  0  0  0  0  0  0  0  0  0  0  0
   -1.8400    0.9329   -0.0476 N   0  0  0  0  0  0  0  0  0  0  0  0
   -0.8814   -0.0741   -0.1051 C   0  0  0  0  0  0  0  0  0  0  0  0
    0.1350   -0.2486   -1.5307 S   0  0  0  0  0  0  0  0  0  0  0  0
    1.4601    0.9080   -1.0950 C   0  0  0  0  0  0  0  0  0  0  0  0
    2.0670    0.6132    0.2704 C   0  0  0  0  0  0  0  0  0  0  0  0
    1.8897    1.4385    1.1769 O   0  0  0  0  0  0  0  0  0  0  0  0
    2.7161   -0.5926    0.5100 N   0  0  0  0  0  0  0  0  0  0  0  0
    2.7286   -1.0599    1.8996 C   0  0  0  0  0  0  0  0  0  0  0  0
    2.5200   -2.5591    2.0708 C   0  0  0  0  0  0  0  0  0  0  0  0
    2.1754   -3.0680    3.1371 O   0  0  0  0  0  0  0  0  0  0  0  0
    2.8884   -3.3511    1.0182 N   0  0  0  0  0  0  0  0  0  0  0  0
    3.3739   -2.8352   -0.1867 C   0  0  0  0  0  0  0  0  0  0  0  0
    3.8975   -3.7272   -1.1260 C   0  0  0  0  0  0  0  0  0  0  0  0
    4.4328   -3.2432   -2.3169 C   0  0  0  0  0  0  0  0  0  0  0  0
    4.4581   -1.8720   -2.5564 C   0  0  0  0  0  0  0  0  0  0  0  0
    3.9161   -0.9828   -1.6228 C   0  0  0  0  0  0  0  0  0  0  0  0
    3.3244   -1.4536   -0.4472 C   0  0  0  0  0  0  0  0  0  0  0  0
   -0.6549   -0.9253    0.8428 N   0  0  0  0  0  0  0  0  0  0  0  0
   -1.4044   -0.8224    2.0185 C   0  0  0  0  0  0  0  0  0  0  0  0
   -1.1710   -1.7356    3.0497 C   0  0  0  0  0  0  0  0  0  0  0  0
   -1.8851   -1.6577    4.2484 C   0  0  0  0  0  0  0  0  0  0  0  0
   -2.8464   -0.6641    4.4255 C   0  0  0  0  0  0  0  0  0  0  0  0
   -3.0937    0.2490    3.4016 C   0  0  0  0  0  0  0  0  0  0  0  0
   -2.3700    0.1631    2.2047 C   0  0  0  0  0  0  0  0  0  0  0  0
   -2.6227    1.1024    1.0972 C   0  0  0  0  0  0  0  0  0  0  0  0
   -3.5066    1.9466    1.2376 O   0  0  0  0  0  0  0  0  0  0  0  0
   -1.7749    4.1660    0.7830 H   0  0  0  0  0  0  0  0  0  0  0  0
   -0.3469    4.5603   -0.1996 H   0  0  0  0  0  0  0  0  0  0  0  0
   -0.4167    3.0222    0.6406 H   0  0  0  0  0  0  0  0  0  0  0  0
   -1.6707    5.0320   -2.1725 H   0  0  0  0  0  0  0  0  0  0  0  0
   -2.8139    4.1531   -4.1686 H   0  0  0  0  0  0  0  0  0  0  0  0
   -3.5690    1.8109   -4.2465 H   0  0  0  0  0  0  0  0  0  0  0  0
   -3.6187   -0.4885   -1.3742 H   0  0  0  0  0  0  0  0  0  0  0  0
   -2.6330   -0.7506   -2.8375 H   0  0  0  0  0  0  0  0  0  0  0  0
   -4.2837   -0.1132   -2.9517 H   0  0  0  0  0  0  0  0  0  0  0  0
    2.2042    0.9439   -1.8862 H   0  0  0  0  0  0  0  0  0  0  0  0
    1.0380    1.9169   -1.0613 H   0  0  0  0  0  0  0  0  0  0  0  0
    3.7013   -0.7951    2.3293 H   0  0  0  0  0  0  0  0  0  0  0  0
    1.9455   -0.5570    2.4768 H   0  0  0  0  0  0  0  0  0  0  0  0
    2.8476   -4.3485    1.1755 H   0  0  0  0  0  0  0  0  0  0  0  0
    3.9081   -4.7966   -0.9349 H   0  0  0  0  0  0  0  0  0  0  0  0
    4.8499   -3.9326   -3.0469 H   0  0  0  0  0  0  0  0  0  0  0  0
    4.9116   -1.4898   -3.4681 H   0  0  0  0  0  0  0  0  0  0  0  0
    4.0271    0.0782   -1.8176 H   0  0  0  0  0  0  0  0  0  0  0  0
   -0.4241   -2.5155    2.9222 H   0  0  0  0  0  0  0  0  0  0  0  0
   -1.6852   -2.3739    5.0423 H   0  0  0  0  0  0  0  0  0  0  0  0
   -3.4024   -0.6018    5.3580 H   0  0  0  0  0  0  0  0  0  0  0  0
   -3.8472    1.0227    3.5353 H   0  0  0  0  0  0  0  0  0  0  0  0
  1  2  1  0
  2  3  2  0
  3  4  1  0
  4  5  2  0
  5  6  1  0
  6  7  1  0
  6  8  2  0
  8  9  1  0
  9 10  1  0
 10 11  1  0
 11 12  1  0
 12 13  1  0
 13 14  2  0
 13 15  1  0
 15 16  1  0
 16 17  1  0
 17 18  2  0
 17 19  1  0
 19 20  1  0
 20 21  2  0
 21 22  1  0
 22 23  2  0
 23 24  1  0
 24 25  2  0
 10 26  2  0
 26 27  1  0
 27 28  2  0
 28 29  1  0
 29 30  2  0
 30 31  1  0
 31 32  2  0
 32 33  1  0
 33 34  2  0
  8  2  1  0
 33  9  1  0
 25 15  1  0
 32 27  1  0
 25 20  1  0
  1 35  1  0
  1 36  1  0
  1 37  1  0
  3 38  1  0
  4 39  1  0
  5 40  1  0
  7 41  1  0
  7 42  1  0
  7 43  1  0
 12 44  1  0
 12 45  1  0
 16 46  1  0
 16 47  1  0
 19 48  1  0
 21 49  1  0
 22 50  1  0
 23 51  1  0
 24 52  1  0
 28 53  1  0
 29 54  1  0
 30 55  1  0
 31 56  1  0
M  END
$$$$
