
     RDKit          3D

 55 60  0  0  0  0  0  0  0  0999 V2000
   -5.2107   -0.8377    0.4741 O   0  0  0  0  0  0  0  0  0  0  0  0
   -4.4091    0.0931    0.5382 C   0  0  0  0  0  0  0  0  0  0  0  0
   -4.8775    1.4280    0.8798 C   0  0  0  0  0  0  0  0  0  0  0  0
   -6.1410    2.0053    0.5535 C   0  0  0  0  0  0  0  0  0  0  0  0
   -6.1610    3.2592    1.1153 C   0  0  0  0  0  0  0  0  0  0  0  0
   -5.0087    3.4892    1.7936 O   0  0  0  0  0  0  0  0  0  0  0  0
   -4.2482    2.3715    1.6679 C   0  0  0  0  0  0  0  0  0  0  0  0
   -3.0441   -0.1063    0.2984 N   0  0  0  0  0  0  0  0  0  0  0  0
   -2.5926   -1.4839    0.1483 C   0  0  0  0  0  0  0  0  0  0  0  0
   -1.0792   -1.5908    0.2880 C   0  0  0  0  0  0  0  0  0  0  0  0
   -0.3661   -0.8165   -0.8489 C   0  0  0  0  0  0  0  0  0  0  0  0
   -1.1328    0.5035   -1.1714 C   0  0  0  0  0  0  0  0  0  0  0  0
   -2.1084    0.9493   -0.0829 C   0  0  0  0  0  0  0  0  0  0  0  0
   -0.5173   -1.5918   -2.0754 O   0  0  0  0  0  0  0  0  0  0  0  0
    0.3493   -2.6212   -2.2974 C   0  0  0  0  0  0  0  0  0  0  0  0
    0.0219   -3.4840   -3.3446 C   0  0  0  0  0  0  0  0  0  0  0  0
    0.8373   -4.5821   -3.6253 C   0  0  0  0  0  0  0  0  0  0  0  0
    1.9755   -4.8084   -2.8573 C   0  0  0  0  0  0  0  0  0  0  0  0
    2.7510   -5.8660   -3.1269 F   0  0  0  0  0  0  0  0  0  0  0  0
    2.3204   -3.9537   -1.8190 C   0  0  0  0  0  0  0  0  0  0  0  0
    1.5040   -2.8518   -1.5542 C   0  0  0  0  0  0  0  0  0  0  0  0
    1.8422   -1.9111   -0.4791 C   0  0  0  0  0  0  0  0  0  0  0  0
    2.6333   -2.2430    0.3992 O   0  0  0  0  0  0  0  0  0  0  0  0
    1.1373   -0.5614   -0.5394 C   0  0  0  0  0  0  0  0  0  0  0  0
    1.4180    0.2686    0.7031 C   0  0  0  0  0  0  0  0  0  0  0  0
    2.5848    1.0490    0.1989 C   0  0  0  0  0  0  0  0  0  0  0  0
    3.4622    1.8295    1.1027 C   0  0  0  0  0  0  0  0  0  0  0  0
    4.5712    2.4931    0.5625 C   0  0  0  0  0  0  0  0  0  0  0  0
    5.4143    3.2416    1.3859 C   0  0  0  0  0  0  0  0  0  0  0  0
    5.1535    3.3320    2.7517 C   0  0  0  0  0  0  0  0  0  0  0  0
    4.0506    2.6752    3.2957 C   0  0  0  0  0  0  0  0  0  0  0  0
    3.2039    1.9249    2.4749 C   0  0  0  0  0  0  0  0  0  0  0  0
    2.7376    1.0199   -1.0871 N   0  0  0  0  0  0  0  0  0  0  0  0
    1.7363    0.1783   -1.6177 O   0  0  0  0  0  0  0  0  0  0  0  0
   -6.9328    1.5484   -0.0248 H   0  0  0  0  0  0  0  0  0  0  0  0
   -6.8858    4.0614    1.1353 H   0  0  0  0  0  0  0  0  0  0  0  0
   -3.3071    2.3972    2.1985 H   0  0  0  0  0  0  0  0  0  0  0  0
   -3.0804   -2.1019    0.9112 H   0  0  0  0  0  0  0  0  0  0  0  0
   -2.9287   -1.8469   -0.8305 H   0  0  0  0  0  0  0  0  0  0  0  0
   -0.8090   -2.6526    0.2728 H   0  0  0  0  0  0  0  0  0  0  0  0
   -0.7868   -1.1965    1.2686 H   0  0  0  0  0  0  0  0  0  0  0  0
   -1.7092    0.3766   -2.0990 H   0  0  0  0  0  0  0  0  0  0  0  0
   -0.4408    1.3283   -1.3754 H   0  0  0  0  0  0  0  0  0  0  0  0
   -2.6519    1.8267   -0.4461 H   0  0  0  0  0  0  0  0  0  0  0  0
   -1.5682    1.2404    0.8230 H   0  0  0  0  0  0  0  0  0  0  0  0
   -0.8715   -3.3063   -3.9387 H   0  0  0  0  0  0  0  0  0  0  0  0
    0.5916   -5.2624   -4.4352 H   0  0  0  0  0  0  0  0  0  0  0  0
    3.2180   -4.1439   -1.2382 H   0  0  0  0  0  0  0  0  0  0  0  0
    0.6247    0.9815    0.9364 H   0  0  0  0  0  0  0  0  0  0  0  0
    1.6498   -0.3210    1.5926 H   0  0  0  0  0  0  0  0  0  0  0  0
    4.7884    2.4298   -0.5022 H   0  0  0  0  0  0  0  0  0  0  0  0
    6.2747    3.7518    0.9597 H   0  0  0  0  0  0  0  0  0  0  0  0
    5.8118    3.9137    3.3927 H   0  0  0  0  0  0  0  0  0  0  0  0
    3.8513    2.7466    4.3625 H   0  0  0  0  0  0  0  0  0  0  0  0
    2.3543    1.4276    2.9317 H   0  0  0  0  0  0  0  0  0  0  0  0
  1  2  2  0
  2  3  1  0
  3  4  1  0
  4  5  2  0
  5  6  1  0
  6  7  1  0
  2  8  1  0
  8  9  1  0
  9 10  1  0
 10 11  1  0
 11 12  1  0
 12 13  1  0
 11 14  1  0
 14 15  1  0
 15 16  2  0
 16 17  1  0
 17 18  2  0
 18 19  1  0
 18 20  1  0
 20 21  2  0
 21 22  1  0
 22 23  2  0
 22 24  1  0
 24 25  1  0
 25 26  1  0
 26 27  1  0
 27 28  2  0
 28 29  1  0
 29 30  2  0
 30 31  1  0
 31 32  2  0
 26 33  2  0
 33 34  1  0
  7  3  2  0
 13  8  1  0
 21 15  1  0
 34 24  1  0
 24 11  1  0
 32 27  1  0
  4 35  1  0
  5 36  1  0
  7 37  1  0
  9 38  1  0
  9 39  1  0
 10 40  1  0
 10 41  1  0
 12 42  1  0
 12 43  1  0
 13 44  1  0
 13 45  1  0
 16 46  1  0
 17 47  1  0
 20 48  1  0
 25 49  1  0
 25 50  1  0
 28 51  1  0
 29 52  1  0
 30 53  1  0
 31 54  1  0
 32 55  1  0
M  END
$$$$
