
     RDKit          3D

 39 40  0  0  0  0  0  0  0  0999 V2000
   -2.9827    3.7222    0.8821 C   0  0  0  0  0  0  0  0  0  0  0  0
   -1.8447    3.1425    0.0908 C   0  0  0  0  0  0  0  0  0  0  0  0
   -0.8048    3.7637   -0.0986 O   0  0  0  0  0  0  0  0  0  0  0  0
   -2.1174    1.9092   -0.4460 N   0  0  0  0  0  0  0  0  0  0  0  0
   -1.1637    1.0223   -0.4153 C   0  0  0  0  0  0  0  0  0  0  0  0
   -1.3638   -0.3462   -1.0146 C   0  0  0  0  0  0  0  0  0  0  0  0
   -2.1209   -1.2664   -0.0907 C   0  0  0  0  0  0  0  0  0  0  0  0
   -1.4672   -1.9154    0.9657 C   0  0  0  0  0  0  0  0  0  0  0  0
   -2.1768   -2.7553    1.8259 C   0  0  0  0  0  0  0  0  0  0  0  0
   -3.5434   -2.9502    1.6420 C   0  0  0  0  0  0  0  0  0  0  0  0
   -4.2047   -2.3027    0.6007 C   0  0  0  0  0  0  0  0  0  0  0  0
   -3.4980   -1.4620   -0.2599 C   0  0  0  0  0  0  0  0  0  0  0  0
    0.1905    1.2419    0.2292 C   0  0  0  0  0  0  0  0  0  0  0  0
    0.3508    1.1864    1.4330 O   0  0  0  0  0  0  0  0  0  0  0  0
    1.0895    1.4653   -0.7441 O   0  0  0  0  0  0  0  0  0  0  0  0
    2.4230    1.7229   -0.2985 C   0  0  0  0  0  0  0  0  0  0  0  0
    3.2591    0.4997   -0.5712 C   0  0  0  0  0  0  0  0  0  0  0  0
    3.5366   -0.4172    0.4522 C   0  0  0  0  0  0  0  0  0  0  0  0
    4.2921   -1.5606    0.1889 C   0  0  0  0  0  0  0  0  0  0  0  0
    4.7691   -1.8017   -1.0985 C   0  0  0  0  0  0  0  0  0  0  0  0
    4.4887   -0.9026   -2.1260 C   0  0  0  0  0  0  0  0  0  0  0  0
    3.7334    0.2411   -1.8648 C   0  0  0  0  0  0  0  0  0  0  0  0
   -3.7859    4.0275    0.2073 H   0  0  0  0  0  0  0  0  0  0  0  0
   -3.3563    2.9808    1.5937 H   0  0  0  0  0  0  0  0  0  0  0  0
   -2.6308    4.5930    1.4414 H   0  0  0  0  0  0  0  0  0  0  0  0
   -1.9052   -0.2325   -1.9624 H   0  0  0  0  0  0  0  0  0  0  0  0
   -0.3953   -0.7938   -1.2700 H   0  0  0  0  0  0  0  0  0  0  0  0
   -0.4017   -1.7732    1.1317 H   0  0  0  0  0  0  0  0  0  0  0  0
   -1.6605   -3.2586    2.6400 H   0  0  0  0  0  0  0  0  0  0  0  0
   -4.0957   -3.6044    2.3116 H   0  0  0  0  0  0  0  0  0  0  0  0
   -5.2728   -2.4476    0.4626 H   0  0  0  0  0  0  0  0  0  0  0  0
   -4.0307   -0.9599   -1.0638 H   0  0  0  0  0  0  0  0  0  0  0  0
    2.4770    2.0170    0.7568 H   0  0  0  0  0  0  0  0  0  0  0  0
    2.8097    2.5742   -0.8739 H   0  0  0  0  0  0  0  0  0  0  0  0
    3.1649   -0.2435    1.4603 H   0  0  0  0  0  0  0  0  0  0  0  0
    4.5089   -2.2630    0.9899 H   0  0  0  0  0  0  0  0  0  0  0  0
    5.3589   -2.6922   -1.3014 H   0  0  0  0  0  0  0  0  0  0  0  0
    4.8584   -1.0932   -3.1310 H   0  0  0  0  0  0  0  0  0  0  0  0
    3.5125    0.9325   -2.6750 H   0  0  0  0  0  0  0  0  0  0  0  0
  1  2  1  0
  2  3  2  0
  2  4  1  0
  4  5  2  3
  5  6  1  0
  6  7  1  0
  7  8  2  0
  8  9  1  0
  9 10  2  0
 10 11  1  0
 11 12  2  0
  5 13  1  0
 13 14  2  0
 13 15  1  0
 15 16  1  0
 16 17  1  0
 17 18  2  0
 18 19  1  0
 19 20  2  0
 20 21  1  0
 21 22  2  0
 12  7  1  0
 22 17  1  0
  1 23  1  0
  1 24  1  0
  1 25  1  0
  6 26  1  0
  6 27  1  0
  8 28  1  0
  9 29  1  0
 10 30  1  0
 11 31  1  0
 12 32  1  0
 16 33  1  0
 16 34  1  0
 18 35  1  0
 19 36  1  0
 20 37  1  0
 21 38  1  0
 22 39  1  0
M  END
$$$$
