
     RDKit          3D

 63 66  0  0  0  0  0  0  0  0999 V2000
    1.9509    3.4228   -2.8209 C   0  0  0  0  0  0  0  0  0  0  0  0
    2.3182    2.0518   -2.3297 C   0  0  0  0  0  0  0  0  0  0  0  0
    1.4381    1.0978   -2.4423 N   0  0  0  0  0  0  0  0  0  0  0  0
    1.7090   -0.1977   -1.9982 N   0  0  0  0  0  0  0  0  0  0  0  0
    0.6285   -1.1662   -2.1765 C   0  0  0  0  0  0  0  0  0  0  0  0
   -0.0965   -1.4948   -0.8763 C   0  0  0  0  0  0  0  0  0  0  0  0
   -1.0756   -0.4194   -0.4543 C   0  0  0  0  0  0  0  0  0  0  0  0
   -1.5338    0.4278   -1.2110 O   0  0  0  0  0  0  0  0  0  0  0  0
   -1.4490   -0.5344    0.8696 N   0  0  0  0  0  0  0  0  0  0  0  0
   -2.5050    0.2765    1.4312 C   0  0  0  0  0  0  0  0  0  0  0  0
   -3.8262   -0.4469    1.3639 C   0  0  0  0  0  0  0  0  0  0  0  0
   -4.6324   -0.3394    0.2236 C   0  0  0  0  0  0  0  0  0  0  0  0
   -5.8422   -1.0342    0.1449 C   0  0  0  0  0  0  0  0  0  0  0  0
   -6.2678   -1.8507    1.1957 C   0  0  0  0  0  0  0  0  0  0  0  0
   -7.4618   -2.4785    0.9760 O   0  0  0  0  0  0  0  0  0  0  0  0
   -8.0583   -3.2352    2.0338 C   0  0  0  0  0  0  0  0  0  0  0  0
   -7.5513   -4.6748    1.9980 C   0  0  0  0  0  0  0  0  0  0  0  0
   -9.5658   -3.2115    1.7930 C   0  0  0  0  0  0  0  0  0  0  0  0
   -5.4629   -1.9703    2.3288 C   0  0  0  0  0  0  0  0  0  0  0  0
   -4.2487   -1.2756    2.4118 C   0  0  0  0  0  0  0  0  0  0  0  0
    2.9179   -0.6127   -1.4016 C   0  0  0  0  0  0  0  0  0  0  0  0
    3.1211   -1.7609   -1.0081 O   0  0  0  0  0  0  0  0  0  0  0  0
    3.8913    0.4671   -1.2937 C   0  0  0  0  0  0  0  0  0  0  0  0
    5.1293    0.3720   -0.8034 N   0  0  0  0  0  0  0  0  0  0  0  0
    5.6237    1.6402   -0.8395 N   0  0  0  0  0  0  0  0  0  0  0  0
    6.8697    1.9049   -0.1890 C   0  0  0  0  0  0  0  0  0  0  0  0
    7.7016    0.8221    0.1477 C   0  0  0  0  0  0  0  0  0  0  0  0
    8.9306    1.0355    0.7783 C   0  0  0  0  0  0  0  0  0  0  0  0
    9.3343    2.3285    1.0973 C   0  0  0  0  0  0  0  0  0  0  0  0
    8.5038    3.4063    0.7980 C   0  0  0  0  0  0  0  0  0  0  0  0
    7.2740    3.1983    0.1630 C   0  0  0  0  0  0  0  0  0  0  0  0
    4.7646    2.4917   -1.5464 C   0  0  0  0  0  0  0  0  0  0  0  0
    5.1181    3.8584   -2.0110 C   0  0  0  0  0  0  0  0  0  0  0  0
    3.6058    1.7593   -1.7476 C   0  0  0  0  0  0  0  0  0  0  0  0
    2.4896    3.6339   -3.7488 H   0  0  0  0  0  0  0  0  0  0  0  0
    2.2029    4.1752   -2.0688 H   0  0  0  0  0  0  0  0  0  0  0  0
    0.8769    3.4796   -3.0242 H   0  0  0  0  0  0  0  0  0  0  0  0
   -0.0603   -0.7937   -2.9433 H   0  0  0  0  0  0  0  0  0  0  0  0
    1.0795   -2.0855   -2.5686 H   0  0  0  0  0  0  0  0  0  0  0  0
   -0.6847   -2.4093   -1.0204 H   0  0  0  0  0  0  0  0  0  0  0  0
    0.6146   -1.6785   -0.0632 H   0  0  0  0  0  0  0  0  0  0  0  0
   -1.1874   -1.3696    1.3736 H   0  0  0  0  0  0  0  0  0  0  0  0
   -2.5670    1.2425    0.9140 H   0  0  0  0  0  0  0  0  0  0  0  0
   -2.2390    0.4835    2.4745 H   0  0  0  0  0  0  0  0  0  0  0  0
   -4.3162    0.2798   -0.6154 H   0  0  0  0  0  0  0  0  0  0  0  0
   -6.4559   -0.9392   -0.7486 H   0  0  0  0  0  0  0  0  0  0  0  0
   -7.8798   -2.7750    3.0125 H   0  0  0  0  0  0  0  0  0  0  0  0
   -6.4686   -4.7238    2.1586 H   0  0  0  0  0  0  0  0  0  0  0  0
   -7.7406   -5.1299    1.0180 H   0  0  0  0  0  0  0  0  0  0  0  0
   -8.0374   -5.2853    2.7663 H   0  0  0  0  0  0  0  0  0  0  0  0
  -10.1002   -3.7621    2.5723 H   0  0  0  0  0  0  0  0  0  0  0  0
   -9.9334   -2.1797    1.7810 H   0  0  0  0  0  0  0  0  0  0  0  0
   -9.8177   -3.6468    0.8198 H   0  0  0  0  0  0  0  0  0  0  0  0
   -5.7383   -2.6045    3.1643 H   0  0  0  0  0  0  0  0  0  0  0  0
   -3.6347   -1.3928    3.3029 H   0  0  0  0  0  0  0  0  0  0  0  0
    7.4110   -0.2008   -0.0893 H   0  0  0  0  0  0  0  0  0  0  0  0
    9.5684    0.1887    1.0203 H   0  0  0  0  0  0  0  0  0  0  0  0
   10.2892    2.4958    1.5897 H   0  0  0  0  0  0  0  0  0  0  0  0
    8.8094    4.4138    1.0705 H   0  0  0  0  0  0  0  0  0  0  0  0
    6.6474    4.0669    0.0049 H   0  0  0  0  0  0  0  0  0  0  0  0
    6.1848    3.9519   -2.2361 H   0  0  0  0  0  0  0  0  0  0  0  0
    4.8317    4.6069   -1.2664 H   0  0  0  0  0  0  0  0  0  0  0  0
    4.6024    4.1002   -2.9445 H   0  0  0  0  0  0  0  0  0  0  0  0
  1  2  1  0
  2  3  2  0
  3  4  1  0
  4  5  1  0
  5  6  1  0
  6  7  1  0
  7  8  2  0
  7  9  1  0
  9 10  1  0
 10 11  1  0
 11 12  2  0
 12 13  1  0
 13 14  2  0
 14 15  1  0
 15 16  1  0
 16 17  1  0
 16 18  1  0
 14 19  1  0
 19 20  2  0
  4 21  1  0
 21 22  2  0
 21 23  1  0
 23 24  2  0
 24 25  1  0
 25 26  1  0
 26 27  2  0
 27 28  1  0
 28 29  2  0
 29 30  1  0
 30 31  2  0
 25 32  1  0
 32 33  1  0
 32 34  2  0
 34  2  1  0
 20 11  1  0
 34 23  1  0
 31 26  1  0
  1 35  1  0
  1 36  1  0
  1 37  1  0
  5 38  1  0
  5 39  1  0
  6 40  1  0
  6 41  1  0
  9 42  1  0
 10 43  1  0
 10 44  1  0
 12 45  1  0
 13 46  1  0
 16 47  1  0
 17 48  1  0
 17 49  1  0
 17 50  1  0
 18 51  1  0
 18 52  1  0
 18 53  1  0
 19 54  1  0
 20 55  1  0
 27 56  1  0
 28 57  1  0
 29 58  1  0
 30 59  1  0
 31 60  1  0
 33 61  1  0
 33 62  1  0
 33 63  1  0
M  END
$$$$
