
     RDKit          3D

 37 39  0  0  0  0  0  0  0  0999 V2000
   -5.4182    2.0415   -0.1302 C   0  0  0  0  0  0  0  0  0  0  0  0
   -4.7990    0.9722    0.7211 C   0  0  0  0  0  0  0  0  0  0  0  0
   -5.5604   -0.1286    1.1372 C   0  0  0  0  0  0  0  0  0  0  0  0
   -4.9943   -1.1212    1.9411 C   0  0  0  0  0  0  0  0  0  0  0  0
   -3.6634   -1.0224    2.3432 C   0  0  0  0  0  0  0  0  0  0  0  0
   -2.8917    0.0614    1.9295 C   0  0  0  0  0  0  0  0  0  0  0  0
   -3.4516    1.0357    1.1018 C   0  0  0  0  0  0  0  0  0  0  0  0
   -2.6809    2.0989    0.7087 O   0  0  0  0  0  0  0  0  0  0  0  0
   -1.9227    1.7721   -0.4513 C   0  0  0  0  0  0  0  0  0  0  0  0
   -0.4913    1.2813   -0.1768 C   0  0  0  0  0  0  0  0  0  0  0  0
    0.0458    1.4101    0.9183 O   0  0  0  0  0  0  0  0  0  0  0  0
    0.0760    0.7128   -1.3011 N   0  0  0  0  0  0  0  0  0  0  0  0
    1.3339    0.1735   -1.4064 C   0  0  0  0  0  0  0  0  0  0  0  0
    1.7713   -0.3460   -2.5299 N   0  0  0  0  0  0  0  0  0  0  0  0
    3.0579   -0.8283   -2.4099 N   0  0  0  0  0  0  0  0  0  0  0  0
    3.5563   -0.6588   -1.1971 C   0  0  0  0  0  0  0  0  0  0  0  0
    4.9076   -1.0792   -0.7871 C   0  0  0  0  0  0  0  0  0  0  0  0
    5.4239   -0.8775    0.4983 C   0  0  0  0  0  0  0  0  0  0  0  0
    6.7103   -1.3123    0.7806 C   0  0  0  0  0  0  0  0  0  0  0  0
    7.5095   -1.9259   -0.1146 N   0  0  0  0  0  0  0  0  0  0  0  0
    7.0030   -2.1145   -1.3489 C   0  0  0  0  0  0  0  0  0  0  0  0
    5.7312   -1.7158   -1.7253 C   0  0  0  0  0  0  0  0  0  0  0  0
    2.4495    0.1132   -0.1268 S   0  0  0  0  0  0  0  0  0  0  0  0
   -6.5068    1.9328   -0.1794 H   0  0  0  0  0  0  0  0  0  0  0  0
   -5.2090    3.0325    0.2854 H   0  0  0  0  0  0  0  0  0  0  0  0
   -5.0250    1.9863   -1.1501 H   0  0  0  0  0  0  0  0  0  0  0  0
   -6.6053   -0.2160    0.8478 H   0  0  0  0  0  0  0  0  0  0  0  0
   -5.5977   -1.9653    2.2658 H   0  0  0  0  0  0  0  0  0  0  0  0
   -3.2295   -1.7838    2.9861 H   0  0  0  0  0  0  0  0  0  0  0  0
   -1.8609    0.1500    2.2631 H   0  0  0  0  0  0  0  0  0  0  0  0
   -2.4456    1.0470   -1.0907 H   0  0  0  0  0  0  0  0  0  0  0  0
   -1.8280    2.6964   -1.0339 H   0  0  0  0  0  0  0  0  0  0  0  0
   -0.4524    0.6557   -2.1614 H   0  0  0  0  0  0  0  0  0  0  0  0
    4.8576   -0.3928    1.2861 H   0  0  0  0  0  0  0  0  0  0  0  0
    7.1434   -1.1723    1.7674 H   0  0  0  0  0  0  0  0  0  0  0  0
    7.6654   -2.6105   -2.0527 H   0  0  0  0  0  0  0  0  0  0  0  0
    5.3916   -1.9023   -2.7404 H   0  0  0  0  0  0  0  0  0  0  0  0
  1  2  1  0
  2  3  2  0
  3  4  1  0
  4  5  2  0
  5  6  1  0
  6  7  2  0
  7  8  1  0
  8  9  1  0
  9 10  1  0
 10 11  2  0
 10 12  1  0
 12 13  1  0
 13 14  2  0
 14 15  1  0
 15 16  2  0
 16 17  1  0
 17 18  2  0
 18 19  1  0
 19 20  2  0
 20 21  1  0
 21 22  2  0
 16 23  1  0
  7  2  1  0
 23 13  1  0
 22 17  1  0
  1 24  1  0
  1 25  1  0
  1 26  1  0
  3 27  1  0
  4 28  1  0
  5 29  1  0
  6 30  1  0
  9 31  1  0
  9 32  1  0
 12 33  1  0
 18 34  1  0
 19 35  1  0
 21 36  1  0
 22 37  1  0
M  END
$$$$
