
     RDKit          3D

 55 60  0  0  0  0  0  0  0  0999 V2000
   -3.8908    1.2400    2.7279 O   0  0  0  0  0  0  0  0  0  0  0  0
   -3.9433    0.7307    1.6093 C   0  0  0  0  0  0  0  0  0  0  0  0
   -5.1903    0.7568    0.8586 C   0  0  0  0  0  0  0  0  0  0  0  0
   -6.2057    1.7582    0.9152 C   0  0  0  0  0  0  0  0  0  0  0  0
   -7.2123    1.3507    0.0733 C   0  0  0  0  0  0  0  0  0  0  0  0
   -6.9050    0.1511   -0.4807 O   0  0  0  0  0  0  0  0  0  0  0  0
   -5.6949   -0.2138    0.0157 C   0  0  0  0  0  0  0  0  0  0  0  0
   -2.8190    0.1257    1.0336 N   0  0  0  0  0  0  0  0  0  0  0  0
   -1.6436   -0.0374    1.8790 C   0  0  0  0  0  0  0  0  0  0  0  0
   -0.6976   -1.1108    1.3510 C   0  0  0  0  0  0  0  0  0  0  0  0
   -0.2562   -0.8840   -0.1275 C   0  0  0  0  0  0  0  0  0  0  0  0
   -1.1668    0.1709   -0.8069 C   0  0  0  0  0  0  0  0  0  0  0  0
   -2.6285   -0.0232   -0.4081 C   0  0  0  0  0  0  0  0  0  0  0  0
   -0.5252   -2.1705   -0.7597 O   0  0  0  0  0  0  0  0  0  0  0  0
    0.1116   -2.4569   -1.9315 C   0  0  0  0  0  0  0  0  0  0  0  0
   -0.3456   -3.5824   -2.6190 C   0  0  0  0  0  0  0  0  0  0  0  0
    0.2277   -3.9335   -3.8427 C   0  0  0  0  0  0  0  0  0  0  0  0
    1.2554   -3.1571   -4.3697 C   0  0  0  0  0  0  0  0  0  0  0  0
    1.7972   -3.4947   -5.5465 F   0  0  0  0  0  0  0  0  0  0  0  0
    1.7287   -2.0410   -3.6932 C   0  0  0  0  0  0  0  0  0  0  0  0
    1.1565   -1.7056   -2.4642 C   0  0  0  0  0  0  0  0  0  0  0  0
    1.6403   -0.5457   -1.7052 C   0  0  0  0  0  0  0  0  0  0  0  0
    2.2926    0.3274   -2.2702 O   0  0  0  0  0  0  0  0  0  0  0  0
    1.2520   -0.5171   -0.2325 C   0  0  0  0  0  0  0  0  0  0  0  0
    1.6514    0.7932    0.4273 C   0  0  0  0  0  0  0  0  0  0  0  0
    2.9803    0.3820    0.9658 C   0  0  0  0  0  0  0  0  0  0  0  0
    3.9652    1.3671    1.4711 C   0  0  0  0  0  0  0  0  0  0  0  0
    5.2231    0.9139    1.8883 C   0  0  0  0  0  0  0  0  0  0  0  0
    6.1714    1.8161    2.3738 C   0  0  0  0  0  0  0  0  0  0  0  0
    5.8677    3.1741    2.4464 C   0  0  0  0  0  0  0  0  0  0  0  0
    4.6166    3.6316    2.0348 C   0  0  0  0  0  0  0  0  0  0  0  0
    3.6643    2.7318    1.5481 C   0  0  0  0  0  0  0  0  0  0  0  0
    3.1813   -0.8975    0.9886 N   0  0  0  0  0  0  0  0  0  0  0  0
    2.0438   -1.5188    0.4293 O   0  0  0  0  0  0  0  0  0  0  0  0
   -6.1905    2.6646    1.5054 H   0  0  0  0  0  0  0  0  0  0  0  0
   -8.1664    1.7701   -0.2147 H   0  0  0  0  0  0  0  0  0  0  0  0
   -5.3405   -1.1816   -0.3101 H   0  0  0  0  0  0  0  0  0  0  0  0
   -1.1442    0.9358    1.9418 H   0  0  0  0  0  0  0  0  0  0  0  0
   -1.9611   -0.2988    2.8954 H   0  0  0  0  0  0  0  0  0  0  0  0
   -1.2055   -2.0811    1.4424 H   0  0  0  0  0  0  0  0  0  0  0  0
    0.1656   -1.1714    2.0232 H   0  0  0  0  0  0  0  0  0  0  0  0
   -1.1025    0.1036   -1.8988 H   0  0  0  0  0  0  0  0  0  0  0  0
   -0.8570    1.1856   -0.5289 H   0  0  0  0  0  0  0  0  0  0  0  0
   -2.9687   -1.0265   -0.6860 H   0  0  0  0  0  0  0  0  0  0  0  0
   -3.2416    0.7094   -0.9427 H   0  0  0  0  0  0  0  0  0  0  0  0
   -1.1513   -4.1844   -2.2055 H   0  0  0  0  0  0  0  0  0  0  0  0
   -0.1205   -4.8054   -4.3884 H   0  0  0  0  0  0  0  0  0  0  0  0
    2.5382   -1.4546   -4.1177 H   0  0  0  0  0  0  0  0  0  0  0  0
    1.0202    1.0600    1.2780 H   0  0  0  0  0  0  0  0  0  0  0  0
    1.7128    1.6400   -0.2595 H   0  0  0  0  0  0  0  0  0  0  0  0
    5.4744   -0.1438    1.8361 H   0  0  0  0  0  0  0  0  0  0  0  0
    7.1465    1.4572    2.6939 H   0  0  0  0  0  0  0  0  0  0  0  0
    6.6072    3.8763    2.8238 H   0  0  0  0  0  0  0  0  0  0  0  0
    4.3830    4.6921    2.0930 H   0  0  0  0  0  0  0  0  0  0  0  0
    2.6995    3.1216    1.2395 H   0  0  0  0  0  0  0  0  0  0  0  0
  1  2  2  0
  2  3  1  0
  3  4  1  0
  4  5  2  0
  5  6  1  0
  6  7  1  0
  2  8  1  0
  8  9  1  0
  9 10  1  0
 10 11  1  0
 11 12  1  0
 12 13  1  0
 11 14  1  0
 14 15  1  0
 15 16  2  0
 16 17  1  0
 17 18  2  0
 18 19  1  0
 18 20  1  0
 20 21  2  0
 21 22  1  0
 22 23  2  0
 22 24  1  0
 24 25  1  0
 25 26  1  0
 26 27  1  0
 27 28  2  0
 28 29  1  0
 29 30  2  0
 30 31  1  0
 31 32  2  0
 26 33  2  0
 33 34  1  0
  7  3  2  0
 13  8  1  0
 21 15  1  0
 34 24  1  0
 24 11  1  0
 32 27  1  0
  4 35  1  0
  5 36  1  0
  7 37  1  0
  9 38  1  0
  9 39  1  0
 10 40  1  0
 10 41  1  0
 12 42  1  0
 12 43  1  0
 13 44  1  0
 13 45  1  0
 16 46  1  0
 17 47  1  0
 20 48  1  0
 25 49  1  0
 25 50  1  0
 28 51  1  0
 29 52  1  0
 30 53  1  0
 31 54  1  0
 32 55  1  0
M  END
$$$$
