
     RDKit          3D

 26 28  0  0  0  0  0  0  0  0999 V2000
   -4.0352    0.9536   -0.0827 C   0  0  0  0  0  0  0  0  0  0  0  0
   -2.6044    0.5864   -0.0208 C   0  0  0  0  0  0  0  0  0  0  0  0
   -1.7203    1.5779   -0.3182 O   0  0  0  0  0  0  0  0  0  0  0  0
   -0.4720    1.0530   -0.2056 C   0  0  0  0  0  0  0  0  0  0  0  0
    0.7137    1.7464   -0.4256 C   0  0  0  0  0  0  0  0  0  0  0  0
    1.8827    1.0037   -0.2498 C   0  0  0  0  0  0  0  0  0  0  0  0
    3.1009    1.6861   -0.4673 O   0  0  0  0  0  0  0  0  0  0  0  0
    4.3244    1.0481   -0.3214 C   0  0  0  0  0  0  0  0  0  0  0  0
    5.3919    1.6213   -0.5052 O   0  0  0  0  0  0  0  0  0  0  0  0
    4.2915   -0.3714    0.0704 C   0  0  0  0  0  0  0  0  0  0  0  0
    3.1492   -1.0324    0.2803 C   0  0  0  0  0  0  0  0  0  0  0  0
    1.8780   -0.3426    0.1212 C   0  0  0  0  0  0  0  0  0  0  0  0
    0.6583   -1.0037    0.3329 C   0  0  0  0  0  0  0  0  0  0  0  0
   -0.5443   -0.2854    0.1640 C   0  0  0  0  0  0  0  0  0  0  0  0
   -1.9367   -0.5891    0.2805 C   0  0  0  0  0  0  0  0  0  0  0  0
   -2.5355   -1.8938    0.6547 C   0  0  0  0  0  0  0  0  0  0  0  0
   -4.5553    0.6259    0.8227 H   0  0  0  0  0  0  0  0  0  0  0  0
   -4.5115    0.4790   -0.9460 H   0  0  0  0  0  0  0  0  0  0  0  0
   -4.1654    2.0365   -0.1732 H   0  0  0  0  0  0  0  0  0  0  0  0
    0.7208    2.7895   -0.7126 H   0  0  0  0  0  0  0  0  0  0  0  0
    5.2568   -0.8507    0.1789 H   0  0  0  0  0  0  0  0  0  0  0  0
    3.1525   -2.0780    0.5682 H   0  0  0  0  0  0  0  0  0  0  0  0
    0.6293   -2.0498    0.6217 H   0  0  0  0  0  0  0  0  0  0  0  0
   -2.0576   -2.7105    0.1041 H   0  0  0  0  0  0  0  0  0  0  0  0
   -2.4051   -2.0768    1.7260 H   0  0  0  0  0  0  0  0  0  0  0  0
   -3.6066   -1.9234    0.4314 H   0  0  0  0  0  0  0  0  0  0  0  0
  1  2  1  0
  2  3  1  0
  3  4  1  0
  4  5  2  0
  5  6  1  0
  6  7  1  0
  7  8  1  0
  8  9  2  0
  8 10  1  0
 10 11  2  0
 11 12  1  0
 12 13  1  0
 13 14  2  0
 14 15  1  0
 15 16  1  0
 15  2  2  0
 14  4  1  0
 12  6  2  0
  1 17  1  0
  1 18  1  0
  1 19  1  0
  5 20  1  0
 10 21  1  0
 11 22  1  0
 13 23  1  0
 16 24  1  0
 16 25  1  0
 16 26  1  0
M  END
$$$$
