
     RDKit          3D

 44 45  0  0  0  0  0  0  0  0999 V2000
   -7.0717   -1.9895    2.4975 C   0  0  0  0  0  0  0  0  0  0  0  0
   -6.1493   -1.0575    1.7323 C   0  0  0  0  0  0  0  0  0  0  0  0
   -5.7277   -1.6533    0.3938 C   0  0  0  0  0  0  0  0  0  0  0  0
   -4.8957   -0.7217   -0.3156 O   0  0  0  0  0  0  0  0  0  0  0  0
   -3.5688   -0.7917   -0.0459 C   0  0  0  0  0  0  0  0  0  0  0  0
   -3.0330   -1.5620    0.7356 O   0  0  0  0  0  0  0  0  0  0  0  0
   -2.8174    0.2170   -0.8400 C   0  0  0  0  0  0  0  0  0  0  0  0
   -3.4463    1.0962   -1.7278 C   0  0  0  0  0  0  0  0  0  0  0  0
   -2.6858    2.0200   -2.4439 C   0  0  0  0  0  0  0  0  0  0  0  0
   -1.2982    2.0717   -2.2788 C   0  0  0  0  0  0  0  0  0  0  0  0
   -0.6564    1.2013   -1.3969 C   0  0  0  0  0  0  0  0  0  0  0  0
    0.7326    1.1903   -1.1748 N   0  0  0  0  0  0  0  0  0  0  0  0
    1.6994    1.9927   -1.7521 C   0  0  0  0  0  0  0  0  0  0  0  0
    1.5154    2.8796   -2.5811 O   0  0  0  0  0  0  0  0  0  0  0  0
    3.1140    1.6802   -1.2518 C   0  0  0  0  0  0  0  0  0  0  0  0
    3.1092    0.6160   -0.3016 O   0  0  0  0  0  0  0  0  0  0  0  0
    4.3154    0.2523    0.2301 C   0  0  0  0  0  0  0  0  0  0  0  0
    4.2500   -0.7911    1.1605 C   0  0  0  0  0  0  0  0  0  0  0  0
    5.4057   -1.2660    1.7868 C   0  0  0  0  0  0  0  0  0  0  0  0
    6.6400   -0.6872    1.4745 C   0  0  0  0  0  0  0  0  0  0  0  0
    7.8607   -1.1761    2.1264 N   0  0  0  0  0  4  0  0  0  0  0  0
    8.9459   -0.7423    1.7141 O   0  0  0  0  0  0  0  0  0  0  0  0
    7.7336   -1.9918    3.0507 O   0  0  0  0  0  1  0  0  0  0  0  0
    6.7183    0.3564    0.5440 C   0  0  0  0  0  0  0  0  0  0  0  0
    5.5530    0.8238   -0.0764 C   0  0  0  0  0  0  0  0  0  0  0  0
   -1.4241    0.2755   -0.6797 C   0  0  0  0  0  0  0  0  0  0  0  0
   -6.5746   -2.9396    2.7164 H   0  0  0  0  0  0  0  0  0  0  0  0
   -7.3677   -1.5342    3.4475 H   0  0  0  0  0  0  0  0  0  0  0  0
   -7.9802   -2.2007    1.9245 H   0  0  0  0  0  0  0  0  0  0  0  0
   -5.2646   -0.8348    2.3394 H   0  0  0  0  0  0  0  0  0  0  0  0
   -6.6481   -0.0954    1.5641 H   0  0  0  0  0  0  0  0  0  0  0  0
   -6.6086   -1.8314   -0.2327 H   0  0  0  0  0  0  0  0  0  0  0  0
   -5.2240   -2.6191    0.5185 H   0  0  0  0  0  0  0  0  0  0  0  0
   -4.5235    1.0751   -1.8730 H   0  0  0  0  0  0  0  0  0  0  0  0
   -3.1709    2.7056   -3.1353 H   0  0  0  0  0  0  0  0  0  0  0  0
   -0.7469    2.8070   -2.8570 H   0  0  0  0  0  0  0  0  0  0  0  0
    1.0902    0.5110   -0.5080 H   0  0  0  0  0  0  0  0  0  0  0  0
    3.7081    1.3979   -2.1286 H   0  0  0  0  0  0  0  0  0  0  0  0
    3.4985    2.5971   -0.7899 H   0  0  0  0  0  0  0  0  0  0  0  0
    3.2892   -1.2413    1.4025 H   0  0  0  0  0  0  0  0  0  0  0  0
    5.3250   -2.0788    2.5054 H   0  0  0  0  0  0  0  0  0  0  0  0
    7.6720    0.8170    0.2929 H   0  0  0  0  0  0  0  0  0  0  0  0
    5.6516    1.6346   -0.7919 H   0  0  0  0  0  0  0  0  0  0  0  0
   -0.9442   -0.4128    0.0134 H   0  0  0  0  0  0  0  0  0  0  0  0
  1  2  1  0
  2  3  1  0
  3  4  1  0
  4  5  1  0
  5  6  2  0
  5  7  1  0
  7  8  2  0
  8  9  1  0
  9 10  2  0
 10 11  1  0
 11 12  1  0
 12 13  1  0
 13 14  2  0
 13 15  1  0
 15 16  1  0
 16 17  1  0
 17 18  2  0
 18 19  1  0
 19 20  2  0
 20 21  1  0
 21 22  2  0
 21 23  1  0
 20 24  1  0
 24 25  2  0
 11 26  2  0
 26  7  1  0
 25 17  1  0
  1 27  1  0
  1 28  1  0
  1 29  1  0
  2 30  1  0
  2 31  1  0
  3 32  1  0
  3 33  1  0
  8 34  1  0
  9 35  1  0
 10 36  1  0
 12 37  1  0
 15 38  1  0
 15 39  1  0
 18 40  1  0
 19 41  1  0
 24 42  1  0
 25 43  1  0
 26 44  1  0
M  CHG  2  21   1  23  -1
M  END
$$$$
