
     RDKit          3D

 84 86  0  0  0  0  0  0  0  0999 V2000
   -4.3177    3.8392    0.2140 C   0  0  0  0  0  0  0  0  0  0  0  0
   -2.8295    3.7138    0.3304 C   0  0  0  0  0  0  0  0  0  0  0  0
   -2.0342    4.5323   -0.1056 O   0  0  0  0  0  0  0  0  0  0  0  0
   -2.5176    2.5747    1.0090 O   0  0  0  0  0  0  0  0  0  0  0  0
   -1.1134    2.3001    1.1874 C   0  0  1  0  0  0  0  0  0  0  0  0
   -0.7846    2.2789    2.6794 C   0  0  1  0  0  0  0  0  0  0  0  0
   -1.2639    3.4959    3.4543 C   0  0  0  0  0  0  0  0  0  0  0  0
   -1.4590    0.9852    3.1424 C   0  0  0  0  0  0  0  0  0  0  0  0
   -1.2384   -0.0465    1.9950 C   0  0  2  0  0  0  0  0  0  0  0  0
   -2.4679   -0.7079    1.6438 O   0  0  0  0  0  0  0  0  0  0  0  0
   -3.2062   -1.3283    2.5987 C   0  0  0  0  0  0  0  0  0  0  0  0
   -4.4357   -1.9216    1.9829 C   0  0  0  0  0  0  0  0  0  0  0  0
   -2.9302   -1.3915    3.7854 O   0  0  0  0  0  0  0  0  0  0  0  0
   -0.0321   -0.9537    2.4007 C   0  0  0  0  0  0  0  0  0  0  0  0
    1.0980   -0.4839    2.5721 O   0  0  0  0  0  0  0  0  0  0  0  0
   -0.2235   -2.4118    2.6843 C   0  0  0  0  0  0  0  0  0  0  0  0
   -0.0778   -2.7806    4.1296 C   0  0  0  0  0  0  0  0  0  0  0  0
   -0.3949   -3.3225    1.7085 C   0  0  0  0  0  0  0  0  0  0  0  0
   -0.4437   -3.0439    0.2347 C   0  0  0  0  0  0  0  0  0  0  0  0
    0.8056   -3.4681   -0.6060 C   0  0  0  0  0  0  0  0  0  0  0  0
    2.1068   -3.5552    0.2241 C   0  0  0  0  0  0  0  0  0  0  0  0
    0.5427   -4.8772   -1.1852 C   0  0  0  0  0  0  0  0  0  0  0  0
    0.9673   -2.4402   -1.7845 C   0  0  2  0  0  0  0  0  0  0  0  0
    1.9719   -2.9376   -2.6999 O   0  0  0  0  0  0  0  0  0  0  0  0
    1.7306   -2.7689   -4.0288 C   0  0  0  0  0  0  0  0  0  0  0  0
    2.8884   -3.2853   -4.8274 C   0  0  0  0  0  0  0  0  0  0  0  0
    0.7316   -2.2563   -4.5128 O   0  0  0  0  0  0  0  0  0  0  0  0
    1.4288   -1.0434   -1.3106 C   0  0  0  0  0  0  0  0  0  0  0  0
    0.7341    0.1343   -2.0198 C   0  0  2  0  0  0  0  0  0  0  0  0
    1.3172    1.3706   -1.5532 O   0  0  0  0  0  0  0  0  0  0  0  0
    2.4238    1.7913   -2.2156 C   0  0  0  0  0  0  0  0  0  0  0  0
    2.9610    1.2274   -3.1568 O   0  0  0  0  0  0  0  0  0  0  0  0
    2.9019    3.0807   -1.6541 C   0  0  0  0  0  0  0  0  0  0  0  0
    2.5616    3.5047   -0.3636 C   0  0  0  0  0  0  0  0  0  0  0  0
    3.0318    4.7286    0.1186 C   0  0  0  0  0  0  0  0  0  0  0  0
    3.8474    5.5291   -0.6818 C   0  0  0  0  0  0  0  0  0  0  0  0
    4.1994    5.1069   -1.9643 C   0  0  0  0  0  0  0  0  0  0  0  0
    3.7311    3.8835   -2.4487 C   0  0  0  0  0  0  0  0  0  0  0  0
   -0.7693    0.2212   -1.7610 C   0  0  0  0  0  0  0  0  0  0  0  0
   -1.6093    0.0079   -3.0003 C   0  0  0  0  0  0  0  0  0  0  0  0
   -1.3884    0.5123   -0.5950 C   0  0  0  0  0  0  0  0  0  0  0  0
   -0.7886    0.8485    0.7610 C   0  0  1  0  0  0  0  0  0  0  0  0
   -4.7419    2.9132   -0.1865 H   0  0  0  0  0  0  0  0  0  0  0  0
   -4.5567    4.6505   -0.4804 H   0  0  0  0  0  0  0  0  0  0  0  0
   -4.7476    4.0680    1.1929 H   0  0  0  0  0  0  0  0  0  0  0  0
   -0.4788    3.0129    0.6490 H   0  0  0  0  0  0  0  0  0  0  0  0
    0.3022    2.1895    2.8052 H   0  0  0  0  0  0  0  0  0  0  0  0
   -0.8389    4.4105    3.0322 H   0  0  0  0  0  0  0  0  0  0  0  0
   -2.3524    3.5932    3.4429 H   0  0  0  0  0  0  0  0  0  0  0  0
   -0.9478    3.4266    4.4990 H   0  0  0  0  0  0  0  0  0  0  0  0
   -2.5287    1.1603    3.3109 H   0  0  0  0  0  0  0  0  0  0  0  0
   -1.0323    0.6524    4.0952 H   0  0  0  0  0  0  0  0  0  0  0  0
   -4.9999   -2.4617    2.7481 H   0  0  0  0  0  0  0  0  0  0  0  0
   -4.1561   -2.6250    1.1944 H   0  0  0  0  0  0  0  0  0  0  0  0
   -5.0681   -1.1256    1.5806 H   0  0  0  0  0  0  0  0  0  0  0  0
    0.9655   -2.6670    4.4449 H   0  0  0  0  0  0  0  0  0  0  0  0
   -0.6933   -2.1372    4.7644 H   0  0  0  0  0  0  0  0  0  0  0  0
   -0.3808   -3.8160    4.3172 H   0  0  0  0  0  0  0  0  0  0  0  0
   -0.4702   -4.3737    1.9862 H   0  0  0  0  0  0  0  0  0  0  0  0
   -1.3421   -3.5356   -0.1644 H   0  0  0  0  0  0  0  0  0  0  0  0
   -0.6469   -1.9871    0.0847 H   0  0  0  0  0  0  0  0  0  0  0  0
    2.0570   -4.3641    0.9630 H   0  0  0  0  0  0  0  0  0  0  0  0
    2.3177   -2.6278    0.7654 H   0  0  0  0  0  0  0  0  0  0  0  0
    2.9703   -3.7671   -0.4160 H   0  0  0  0  0  0  0  0  0  0  0  0
   -0.3168   -4.8710   -1.8641 H   0  0  0  0  0  0  0  0  0  0  0  0
    1.4061   -5.2532   -1.7446 H   0  0  0  0  0  0  0  0  0  0  0  0
    0.3341   -5.5981   -0.3864 H   0  0  0  0  0  0  0  0  0  0  0  0
   -0.0039   -2.3879   -2.2894 H   0  0  0  0  0  0  0  0  0  0  0  0
    3.7311   -2.5947   -4.7446 H   0  0  0  0  0  0  0  0  0  0  0  0
    2.5943   -3.3725   -5.8784 H   0  0  0  0  0  0  0  0  0  0  0  0
    3.1746   -4.2805   -4.4726 H   0  0  0  0  0  0  0  0  0  0  0  0
    2.5134   -0.9492   -1.4533 H   0  0  0  0  0  0  0  0  0  0  0  0
    1.2862   -0.9227   -0.2347 H   0  0  0  0  0  0  0  0  0  0  0  0
    0.8956    0.0487   -3.1013 H   0  0  0  0  0  0  0  0  0  0  0  0
    1.9382    2.8890    0.2782 H   0  0  0  0  0  0  0  0  0  0  0  0
    2.7605    5.0594    1.1189 H   0  0  0  0  0  0  0  0  0  0  0  0
    4.2095    6.4821   -0.3060 H   0  0  0  0  0  0  0  0  0  0  0  0
    4.8380    5.7295   -2.5870 H   0  0  0  0  0  0  0  0  0  0  0  0
    4.0080    3.5619   -3.4514 H   0  0  0  0  0  0  0  0  0  0  0  0
   -1.3087    0.7110   -3.7841 H   0  0  0  0  0  0  0  0  0  0  0  0
   -1.4918   -1.0112   -3.3770 H   0  0  0  0  0  0  0  0  0  0  0  0
   -2.6766    0.1691   -2.8129 H   0  0  0  0  0  0  0  0  0  0  0  0
   -2.4793    0.5485   -0.6051 H   0  0  0  0  0  0  0  0  0  0  0  0
    0.3022    0.8100    0.6857 H   0  0  0  0  0  0  0  0  0  0  0  0
  1  2  1  0
  2  3  2  0
  2  4  1  0
  4  5  1  0
  5  6  1  0
  6  7  1  0
  6  8  1  0
  8  9  1  0
  9 10  1  6
 10 11  1  0
 11 12  1  0
 11 13  2  0
  9 14  1  0
 14 15  2  0
 14 16  1  0
 16 17  1  0
 16 18  2  3
 18 19  1  0
 19 20  1  0
 20 21  1  0
 20 22  1  0
 20 23  1  0
 23 24  1  0
 24 25  1  0
 25 26  1  0
 25 27  2  0
 23 28  1  0
 28 29  1  0
 29 30  1  0
 30 31  1  0
 31 32  2  0
 31 33  1  0
 33 34  2  0
 34 35  1  0
 35 36  2  0
 36 37  1  0
 37 38  2  0
 29 39  1  0
 39 40  1  0
 39 41  2  0
 41 42  1  0
 42  5  1  0
 42  9  1  0
 38 33  1  0
  1 43  1  0
  1 44  1  0
  1 45  1  0
  5 46  1  6
  6 47  1  6
  7 48  1  0
  7 49  1  0
  7 50  1  0
  8 51  1  0
  8 52  1  0
 12 53  1  0
 12 54  1  0
 12 55  1  0
 17 56  1  0
 17 57  1  0
 17 58  1  0
 18 59  1  0
 19 60  1  0
 19 61  1  0
 21 62  1  0
 21 63  1  0
 21 64  1  0
 22 65  1  0
 22 66  1  0
 22 67  1  0
 23 68  1  6
 26 69  1  0
 26 70  1  0
 26 71  1  0
 28 72  1  0
 28 73  1  0
 29 74  1  6
 34 75  1  0
 35 76  1  0
 36 77  1  0
 37 78  1  0
 38 79  1  0
 40 80  1  0
 40 81  1  0
 40 82  1  0
 41 83  1  0
 42 84  1  6
M  END
$$$$
