
     RDKit          3D

 35 37  0  0  0  0  0  0  0  0999 V2000
    7.2671   -0.7593    0.8776 C   0  0  0  0  0  0  0  0  0  0  0  0
    5.9979   -1.0994    1.4213 O   0  0  0  0  0  0  0  0  0  0  0  0
    4.8967   -0.6197    0.7688 C   0  0  0  0  0  0  0  0  0  0  0  0
    4.9015    0.1721   -0.3784 C   0  0  0  0  0  0  0  0  0  0  0  0
    3.6924    0.5961   -0.9459 C   0  0  0  0  0  0  0  0  0  0  0  0
    2.4609    0.2374   -0.3784 C   0  0  0  0  0  0  0  0  0  0  0  0
    1.2206    0.6935   -0.9912 C   0  0  0  0  0  0  0  0  0  0  0  0
    1.0221    1.4322   -2.0663 N   0  0  0  0  0  0  0  0  0  0  0  0
   -0.3462    1.5654   -2.1998 N   0  0  0  0  0  0  0  0  0  0  0  0
   -0.8810    0.8987   -1.2004 C   0  0  0  0  0  0  0  0  0  0  0  0
   -2.2152    0.7716   -0.9424 N   0  0  0  0  0  0  0  0  0  0  0  0
   -2.7074    0.0130    0.0913 C   0  0  0  0  0  0  0  0  0  0  0  0
   -2.0544   -0.6662    0.8745 O   0  0  0  0  0  0  0  0  0  0  0  0
   -4.1936    0.0108    0.2204 C   0  0  0  0  0  0  0  0  0  0  0  0
   -4.9704    1.1346   -0.1017 C   0  0  0  0  0  0  0  0  0  0  0  0
   -6.3598    1.0833    0.0397 C   0  0  0  0  0  0  0  0  0  0  0  0
   -6.9634   -0.0797    0.5076 C   0  0  0  0  0  0  0  0  0  0  0  0
   -8.2949   -0.1218    0.6417 F   0  0  0  0  0  0  0  0  0  0  0  0
   -6.2051   -1.1943    0.8459 C   0  0  0  0  0  0  0  0  0  0  0  0
   -4.8165   -1.1486    0.7075 C   0  0  0  0  0  0  0  0  0  0  0  0
    0.0486    0.3228   -0.3894 O   0  0  0  0  0  0  0  0  0  0  0  0
    2.4674   -0.5590    0.7743 C   0  0  0  0  0  0  0  0  0  0  0  0
    3.6752   -0.9815    1.3398 C   0  0  0  0  0  0  0  0  0  0  0  0
    7.4253    0.3241    0.8923 H   0  0  0  0  0  0  0  0  0  0  0  0
    7.3844   -1.1630   -0.1335 H   0  0  0  0  0  0  0  0  0  0  0  0
    8.0347   -1.2164    1.5095 H   0  0  0  0  0  0  0  0  0  0  0  0
    5.8244    0.4793   -0.8591 H   0  0  0  0  0  0  0  0  0  0  0  0
    3.7202    1.2141   -1.8426 H   0  0  0  0  0  0  0  0  0  0  0  0
   -2.8187    1.2180   -1.6152 H   0  0  0  0  0  0  0  0  0  0  0  0
   -4.5151    2.0643   -0.4318 H   0  0  0  0  0  0  0  0  0  0  0  0
   -6.9760    1.9448   -0.2003 H   0  0  0  0  0  0  0  0  0  0  0  0
   -6.6963   -2.0878    1.2187 H   0  0  0  0  0  0  0  0  0  0  0  0
   -4.2202   -2.0182    0.9796 H   0  0  0  0  0  0  0  0  0  0  0  0
    1.5341   -0.8617    1.2470 H   0  0  0  0  0  0  0  0  0  0  0  0
    3.6610   -1.5995    2.2348 H   0  0  0  0  0  0  0  0  0  0  0  0
  1  2  1  0
  2  3  1  0
  3  4  2  0
  4  5  1  0
  5  6  2  0
  6  7  1  0
  7  8  2  0
  8  9  1  0
  9 10  2  0
 10 11  1  0
 11 12  1  0
 12 13  2  0
 12 14  1  0
 14 15  2  0
 15 16  1  0
 16 17  2  0
 17 18  1  0
 17 19  1  0
 19 20  2  0
 10 21  1  0
  6 22  1  0
 22 23  2  0
 23  3  1  0
 21  7  1  0
 20 14  1  0
  1 24  1  0
  1 25  1  0
  1 26  1  0
  4 27  1  0
  5 28  1  0
 11 29  1  0
 15 30  1  0
 16 31  1  0
 19 32  1  0
 20 33  1  0
 22 34  1  0
 23 35  1  0
M  END
$$$$
