
     RDKit          3D

 37 39  0  0  0  0  0  0  0  0999 V2000
    7.9240   -0.1253   -0.0849 C   0  0  0  0  0  0  0  0  0  0  0  0
    6.4350   -0.3613   -0.2837 C   0  0  0  0  0  0  0  0  0  0  0  0
    5.6606   -0.1695    1.0221 C   0  0  0  0  0  0  0  0  0  0  0  0
    4.1953   -0.3874    0.8312 C   0  0  0  0  0  0  0  0  0  0  0  0
    3.5675   -1.5209    1.0652 N   0  0  0  0  0  0  0  0  0  0  0  0
    2.2129   -1.4201    0.8140 N   0  0  0  0  0  0  0  0  0  0  0  0
    1.8724   -0.2207    0.3940 C   0  0  0  0  0  0  0  0  0  0  0  0
    0.5779    0.1077    0.0894 N   0  0  0  0  0  0  0  0  0  0  0  0
    0.0991    1.3192   -0.3513 C   0  0  0  0  0  0  0  0  0  0  0  0
    0.7536    2.3270   -0.6022 O   0  0  0  0  0  0  0  0  0  0  0  0
   -1.4154    1.3074   -0.5767 C   0  0  0  0  0  0  0  0  0  0  0  0
   -2.0173    0.2004    0.0917 O   0  0  0  0  0  0  0  0  0  0  0  0
   -3.3864    0.1720    0.1046 C   0  0  0  0  0  0  0  0  0  0  0  0
   -4.2203    0.8519   -0.8072 C   0  0  0  0  0  0  0  0  0  0  0  0
   -5.6138    0.7493   -0.7108 C   0  0  0  0  0  0  0  0  0  0  0  0
   -6.1327   -0.0360    0.2957 C   0  0  0  0  0  0  0  0  0  0  0  0
   -5.3207   -0.7062    1.1802 C   0  0  0  0  0  0  0  0  0  0  0  0
   -3.9463   -0.6291    1.1049 C   0  0  0  0  0  0  0  0  0  0  0  0
   -6.0288   -1.4185    2.0973 O   0  0  0  0  0  0  0  0  0  0  0  0
   -7.3808   -1.1117    1.6943 C   0  0  0  0  0  0  0  0  0  0  0  0
   -7.4531   -0.2453    0.5415 O   0  0  0  0  0  0  0  0  0  0  0  0
    3.1691    0.8768    0.2809 S   0  0  0  0  0  0  0  0  0  0  0  0
    8.3363   -0.8312    0.6429 H   0  0  0  0  0  0  0  0  0  0  0  0
    8.1166    0.8936    0.2690 H   0  0  0  0  0  0  0  0  0  0  0  0
    8.4568   -0.2631   -1.0314 H   0  0  0  0  0  0  0  0  0  0  0  0
    6.2791   -1.3769   -0.6652 H   0  0  0  0  0  0  0  0  0  0  0  0
    6.0640    0.3265   -1.0530 H   0  0  0  0  0  0  0  0  0  0  0  0
    6.0270   -0.8830    1.7733 H   0  0  0  0  0  0  0  0  0  0  0  0
    5.8426    0.8347    1.4317 H   0  0  0  0  0  0  0  0  0  0  0  0
   -0.0941   -0.6327    0.2584 H   0  0  0  0  0  0  0  0  0  0  0  0
   -1.5720    1.2364   -1.6580 H   0  0  0  0  0  0  0  0  0  0  0  0
   -1.8127    2.2490   -0.1813 H   0  0  0  0  0  0  0  0  0  0  0  0
   -3.8134    1.4595   -1.6114 H   0  0  0  0  0  0  0  0  0  0  0  0
   -6.2662    1.2701   -1.4032 H   0  0  0  0  0  0  0  0  0  0  0  0
   -3.3228   -1.1681    1.8107 H   0  0  0  0  0  0  0  0  0  0  0  0
   -7.8976   -2.0500    1.4615 H   0  0  0  0  0  0  0  0  0  0  0  0
   -7.8953   -0.6245    2.5322 H   0  0  0  0  0  0  0  0  0  0  0  0
  1  2  1  0
  2  3  1  0
  3  4  1  0
  4  5  2  0
  5  6  1  0
  6  7  2  0
  7  8  1  0
  8  9  1  0
  9 10  2  0
  9 11  1  0
 11 12  1  0
 12 13  1  0
 13 14  2  0
 14 15  1  0
 15 16  2  0
 16 17  1  0
 17 18  2  0
 17 19  1  0
 19 20  1  0
 20 21  1  0
  7 22  1  0
 22  4  1  0
 18 13  1  0
 21 16  1  0
  1 23  1  0
  1 24  1  0
  1 25  1  0
  2 26  1  0
  2 27  1  0
  3 28  1  0
  3 29  1  0
  8 30  1  0
 11 31  1  0
 11 32  1  0
 14 33  1  0
 15 34  1  0
 18 35  1  0
 20 36  1  0
 20 37  1  0
M  END
$$$$
