
     RDKit          3D

 58 60  0  0  0  0  0  0  0  0999 V2000
    0.3459   -1.5155   -2.0334 C   0  0  0  0  0  0  0  0  0  0  0  0
   -0.9178   -0.7623   -1.7088 C   0  0  0  0  0  0  0  0  0  0  0  0
   -2.1139   -1.1803   -2.3211 C   0  0  0  0  0  0  0  0  0  0  0  0
   -3.3156   -0.5270   -2.0597 C   0  0  0  0  0  0  0  0  0  0  0  0
   -3.3251    0.5579   -1.1864 C   0  0  0  0  0  0  0  0  0  0  0  0
   -4.8480    1.4270   -0.9024 S   0  0  0  0  0  6  0  0  0  0  0  0
   -4.5446    2.7618   -0.4344 O   0  0  0  0  0  0  0  0  0  0  0  0
   -5.6813    1.2233   -2.0696 O   0  0  0  0  0  0  0  0  0  0  0  0
   -5.5490    0.5574    0.3917 N   0  0  0  0  0  0  0  0  0  0  0  0
   -4.8156    0.6626    1.6983 C   0  0  0  0  0  0  0  0  0  0  0  0
   -5.4998   -0.2252    2.7456 C   0  0  0  0  0  0  0  0  0  0  0  0
   -6.8758    0.1397    2.9255 O   0  0  0  0  0  0  0  0  0  0  0  0
   -7.5911    0.0149    1.6882 C   0  0  0  0  0  0  0  0  0  0  0  0
   -6.9906    0.9178    0.6061 C   0  0  0  0  0  0  0  0  0  0  0  0
   -2.1442    1.0014   -0.5815 C   0  0  0  0  0  0  0  0  0  0  0  0
   -0.9375    0.3328   -0.8141 C   0  0  0  0  0  0  0  0  0  0  0  0
    0.2676    0.7156   -0.1860 N   0  0  0  0  0  0  0  0  0  0  0  0
    0.4472    1.6319    0.8399 C   0  0  0  0  0  0  0  0  0  0  0  0
   -0.4223    2.3115    1.3744 O   0  0  0  0  0  0  0  0  0  0  0  0
    1.9200    1.7704    1.2371 C   0  0  0  0  0  0  0  0  0  0  0  0
    2.6888    0.5887    0.9804 O   0  0  0  0  0  0  0  0  0  0  0  0
    2.6414   -0.3485    1.9719 C   0  0  0  0  0  0  0  0  0  0  0  0
    1.9130   -0.2773    2.9536 O   0  0  0  0  0  0  0  0  0  0  0  0
    3.5640   -1.5361    1.6962 C   0  0  0  0  0  0  0  0  0  0  0  0
    4.3385   -1.4428    0.4658 N   0  0  0  0  0  0  0  0  0  0  0  0
    5.5157   -0.7219    0.4472 C   0  0  0  0  0  0  0  0  0  0  0  0
    5.9926   -0.1986    1.4460 O   0  0  0  0  0  0  0  0  0  0  0  0
    6.1623   -0.5514   -0.8818 C   0  0  0  0  0  0  0  0  0  0  0  0
    6.9206    0.6029   -1.1103 C   0  0  0  0  0  0  0  0  0  0  0  0
    7.5342    0.8046   -2.3477 C   0  0  0  0  0  0  0  0  0  0  0  0
    7.4001   -0.1494   -3.3556 C   0  0  0  0  0  0  0  0  0  0  0  0
    6.6615   -1.3106   -3.1268 C   0  0  0  0  0  0  0  0  0  0  0  0
    6.0440   -1.5160   -1.8909 C   0  0  0  0  0  0  0  0  0  0  0  0
    0.7631   -1.9692   -1.1279 H   0  0  0  0  0  0  0  0  0  0  0  0
    0.1628   -2.3232   -2.7505 H   0  0  0  0  0  0  0  0  0  0  0  0
    1.0845   -0.8429   -2.4822 H   0  0  0  0  0  0  0  0  0  0  0  0
   -2.1173   -2.0212   -3.0132 H   0  0  0  0  0  0  0  0  0  0  0  0
   -4.2313   -0.8594   -2.5450 H   0  0  0  0  0  0  0  0  0  0  0  0
   -3.7822    0.3280    1.5868 H   0  0  0  0  0  0  0  0  0  0  0  0
   -4.8262    1.7046    2.0377 H   0  0  0  0  0  0  0  0  0  0  0  0
   -5.4460   -1.2831    2.4618 H   0  0  0  0  0  0  0  0  0  0  0  0
   -4.9987   -0.1129    3.7120 H   0  0  0  0  0  0  0  0  0  0  0  0
   -8.6304    0.3010    1.8766 H   0  0  0  0  0  0  0  0  0  0  0  0
   -7.5837   -1.0361    1.3763 H   0  0  0  0  0  0  0  0  0  0  0  0
   -7.5562    0.7803   -0.3203 H   0  0  0  0  0  0  0  0  0  0  0  0
   -7.0569    1.9669    0.9185 H   0  0  0  0  0  0  0  0  0  0  0  0
   -2.1926    1.8736    0.0635 H   0  0  0  0  0  0  0  0  0  0  0  0
    1.1077    0.2238   -0.4593 H   0  0  0  0  0  0  0  0  0  0  0  0
    1.9928    2.0685    2.2896 H   0  0  0  0  0  0  0  0  0  0  0  0
    2.3504    2.5771    0.6338 H   0  0  0  0  0  0  0  0  0  0  0  0
    4.2473   -1.6429    2.5447 H   0  0  0  0  0  0  0  0  0  0  0  0
    2.9407   -2.4306    1.6052 H   0  0  0  0  0  0  0  0  0  0  0  0
    3.8663   -1.6173   -0.4096 H   0  0  0  0  0  0  0  0  0  0  0  0
    7.0337    1.3479   -0.3250 H   0  0  0  0  0  0  0  0  0  0  0  0
    8.1206    1.7034   -2.5228 H   0  0  0  0  0  0  0  0  0  0  0  0
    7.8837    0.0078   -4.3178 H   0  0  0  0  0  0  0  0  0  0  0  0
    6.5782   -2.0606   -3.9096 H   0  0  0  0  0  0  0  0  0  0  0  0
    5.5046   -2.4429   -1.7214 H   0  0  0  0  0  0  0  0  0  0  0  0
  1  2  1  0
  2  3  2  0
  3  4  1  0
  4  5  2  0
  5  6  1  0
  6  7  2  0
  6  8  2  0
  6  9  1  0
  9 10  1  0
 10 11  1  0
 11 12  1  0
 12 13  1  0
 13 14  1  0
  5 15  1  0
 15 16  2  0
 16 17  1  0
 17 18  1  0
 18 19  2  0
 18 20  1  0
 20 21  1  0
 21 22  1  0
 22 23  2  0
 22 24  1  0
 24 25  1  0
 25 26  1  0
 26 27  2  0
 26 28  1  0
 28 29  2  0
 29 30  1  0
 30 31  2  0
 31 32  1  0
 32 33  2  0
 16  2  1  0
 33 28  1  0
 14  9  1  0
  1 34  1  0
  1 35  1  0
  1 36  1  0
  3 37  1  0
  4 38  1  0
 10 39  1  0
 10 40  1  0
 11 41  1  0
 11 42  1  0
 13 43  1  0
 13 44  1  0
 14 45  1  0
 14 46  1  0
 15 47  1  0
 17 48  1  0
 20 49  1  0
 20 50  1  0
 24 51  1  0
 24 52  1  0
 25 53  1  0
 29 54  1  0
 30 55  1  0
 31 56  1  0
 32 57  1  0
 33 58  1  0
M  END
$$$$
