
     RDKit          3D

 45 48  0  0  0  0  0  0  0  0999 V2000
    1.0764   -2.3408   -3.3476 C   0  0  0  0  0  0  0  0  0  0  0  0
    1.1122   -1.2907   -2.2527 C   0  0  0  0  0  0  0  0  0  0  0  0
    1.3576   -1.9422   -0.9999 O   0  0  0  0  0  0  0  0  0  0  0  0
    2.4079   -1.3760   -0.3213 C   0  0  0  0  0  0  0  0  0  0  0  0
    3.7105   -1.6451   -0.7585 C   0  0  0  0  0  0  0  0  0  0  0  0
    4.8016   -1.1583   -0.0420 C   0  0  0  0  0  0  0  0  0  0  0  0
    4.5938   -0.4229    1.1216 C   0  0  0  0  0  0  0  0  0  0  0  0
    3.2927   -0.1755    1.5690 C   0  0  0  0  0  0  0  0  0  0  0  0
    2.1724   -0.6453    0.8557 C   0  0  0  0  0  0  0  0  0  0  0  0
    0.8220   -0.3687    1.3476 C   0  0  0  0  0  0  0  0  0  0  0  0
    0.5420   -0.7480    2.6162 N   0  0  0  0  0  0  0  0  0  0  0  0
   -0.7147   -0.4850    3.0529 C   0  0  0  0  0  0  0  0  0  0  0  0
   -1.0579   -0.9346    4.4303 C   0  0  0  0  0  0  0  0  0  0  0  0
   -0.0594   -1.5813    5.1072 N   0  0  0  0  0  0  0  0  0  0  0  0
   -2.1610   -0.7450    4.9271 O   0  0  0  0  0  0  0  0  0  0  0  0
   -1.6315    0.1550    2.2729 C   0  0  0  0  0  0  0  0  0  0  0  0
   -2.9542    0.5144    2.4784 N   0  0  0  0  0  0  0  0  0  0  0  0
   -3.4303    1.1489    1.3232 C   0  0  0  0  0  0  0  0  0  0  0  0
   -4.5661    1.5812    1.2158 O   0  0  0  0  0  0  0  0  0  0  0  0
   -2.3422    1.1778    0.3984 N   0  0  0  0  0  0  0  0  0  0  0  0
   -2.3476    1.7259   -0.9113 C   0  0  0  0  0  0  0  0  0  0  0  0
   -1.1686    1.9637   -1.6401 C   0  0  0  0  0  0  0  0  0  0  0  0
   -1.2011    2.5058   -2.9316 C   0  0  0  0  0  0  0  0  0  0  0  0
   -2.4177    2.8227   -3.5129 C   0  0  0  0  0  0  0  0  0  0  0  0
   -2.4492    3.3400   -4.7473 F   0  0  0  0  0  0  0  0  0  0  0  0
   -3.6000    2.6124   -2.8238 C   0  0  0  0  0  0  0  0  0  0  0  0
   -3.5622    2.0714   -1.5324 C   0  0  0  0  0  0  0  0  0  0  0  0
   -1.2352    0.5408    1.0146 C   0  0  0  0  0  0  0  0  0  0  0  0
   -0.0190    0.2910    0.5210 N   0  0  0  0  0  0  0  0  0  0  0  0
    0.3193   -3.1010   -3.1282 H   0  0  0  0  0  0  0  0  0  0  0  0
    2.0379   -2.8599   -3.4182 H   0  0  0  0  0  0  0  0  0  0  0  0
    0.8492   -1.8860   -4.3159 H   0  0  0  0  0  0  0  0  0  0  0  0
    0.1334   -0.8045   -2.1871 H   0  0  0  0  0  0  0  0  0  0  0  0
    1.8530   -0.5173   -2.4937 H   0  0  0  0  0  0  0  0  0  0  0  0
    3.8748   -2.2485   -1.6470 H   0  0  0  0  0  0  0  0  0  0  0  0
    5.8128   -1.3652   -0.3835 H   0  0  0  0  0  0  0  0  0  0  0  0
    5.4434   -0.0481    1.6875 H   0  0  0  0  0  0  0  0  0  0  0  0
    3.1512    0.3949    2.4857 H   0  0  0  0  0  0  0  0  0  0  0  0
    0.8248   -1.7765    4.6504 H   0  0  0  0  0  0  0  0  0  0  0  0
   -0.2448   -1.9563    6.0269 H   0  0  0  0  0  0  0  0  0  0  0  0
   -3.4922    0.3446    3.3205 H   0  0  0  0  0  0  0  0  0  0  0  0
   -0.1869    1.7659   -1.2232 H   0  0  0  0  0  0  0  0  0  0  0  0
   -0.2807    2.6874   -3.4773 H   0  0  0  0  0  0  0  0  0  0  0  0
   -4.5482    2.8662   -3.2872 H   0  0  0  0  0  0  0  0  0  0  0  0
   -4.5181    1.9125   -1.0400 H   0  0  0  0  0  0  0  0  0  0  0  0
  1  2  1  0
  2  3  1  0
  3  4  1  0
  4  5  2  0
  5  6  1  0
  6  7  2  0
  7  8  1  0
  8  9  2  0
  9 10  1  0
 10 11  2  0
 11 12  1  0
 12 13  1  0
 13 14  1  0
 13 15  2  0
 12 16  2  0
 16 17  1  0
 17 18  1  0
 18 19  2  0
 18 20  1  0
 20 21  1  0
 21 22  2  0
 22 23  1  0
 23 24  2  0
 24 25  1  0
 24 26  1  0
 26 27  2  0
 20 28  1  0
 28 29  2  0
  9  4  1  0
 29 10  1  0
 28 16  1  0
 27 21  1  0
  1 30  1  0
  1 31  1  0
  1 32  1  0
  2 33  1  0
  2 34  1  0
  5 35  1  0
  6 36  1  0
  7 37  1  0
  8 38  1  0
 14 39  1  0
 14 40  1  0
 17 41  1  0
 22 42  1  0
 23 43  1  0
 26 44  1  0
 27 45  1  0
M  END
$$$$
