
     RDKit          3D

 71 72  0  0  0  0  0  0  0  0999 V2000
   -6.2518   -1.7669   -1.5203 C   0  0  0  0  0  0  0  0  0  0  0  0
   -4.8523   -1.6377   -1.3066 O   0  0  0  0  0  0  0  0  0  0  0  0
   -4.4203   -0.5769   -0.5526 C   0  0  0  0  0  0  0  0  0  0  0  0
   -5.2405    0.4787   -0.1465 C   0  0  0  0  0  0  0  0  0  0  0  0
   -4.7379    1.4867    0.6772 C   0  0  0  0  0  0  0  0  0  0  0  0
   -3.4117    1.4525    1.1052 C   0  0  0  0  0  0  0  0  0  0  0  0
   -2.5487    0.4230    0.6939 C   0  0  0  0  0  0  0  0  0  0  0  0
   -1.0964    0.3515    1.1699 C   0  0  0  0  0  0  0  0  0  0  0  0
   -0.8632    0.9749    2.5828 C   0  0  0  0  0  0  0  0  0  0  0  0
   -0.2697    2.0328    2.7727 O   0  0  0  0  0  0  0  0  0  0  0  0
   -1.4417    0.2485    3.6170 N   0  0  0  0  0  0  0  0  0  0  0  0
   -1.3270    0.5821    5.0454 C   0  0  0  0  0  0  0  0  0  0  0  0
    0.1352    0.5029    5.5069 C   0  0  0  0  0  0  0  0  0  0  0  0
   -2.1499   -0.4484    5.8401 C   0  0  0  0  0  0  0  0  0  0  0  0
   -1.9027    1.9781    5.3392 C   0  0  0  0  0  0  0  0  0  0  0  0
   -0.0563    0.7440    0.1724 N   0  0  0  0  0  0  0  0  0  0  0  0
    1.0567   -0.1046    0.1272 C   0  0  0  0  0  0  0  0  0  0  0  0
    1.2047   -1.0391    0.9214 O   0  0  0  0  0  0  0  0  0  0  0  0
    2.1030    0.1420   -0.9465 C   0  0  0  0  0  0  0  0  0  0  0  0
    3.0789   -1.0285   -1.0388 C   0  0  0  0  0  0  0  0  0  0  0  0
    4.0891   -0.8444   -2.1533 C   0  0  0  0  0  0  0  0  0  0  0  0
    4.2112    0.2110   -2.7653 O   0  0  0  0  0  0  0  0  0  0  0  0
    4.8282   -1.9867   -2.3614 N   0  0  0  0  0  0  0  0  0  0  0  0
    5.8410   -2.1279   -3.2817 C   0  0  0  0  0  0  0  0  0  0  0  0
    6.4131   -1.1700   -4.1491 C   0  0  0  0  0  0  0  0  0  0  0  0
    7.3855   -1.8594   -4.8283 C   0  0  0  0  0  0  0  0  0  0  0  0
    8.3567   -1.5029   -5.8749 C   0  0  0  0  0  0  0  0  0  0  0  0
    7.3911   -3.1521   -4.4074 O   0  0  0  0  0  0  0  0  0  0  0  0
    6.4308   -3.3193   -3.4276 N   0  0  0  0  0  0  0  0  0  0  0  0
   -0.1570    1.9750   -0.6567 C   0  0  0  0  0  0  0  0  0  0  0  0
   -0.4783    3.2650    0.0931 C   0  0  0  0  0  0  0  0  0  0  0  0
   -1.0585    1.7936   -1.8794 C   0  0  0  0  0  0  0  0  0  0  0  0
   -3.0652   -0.5801   -0.1597 C   0  0  0  0  0  0  0  0  0  0  0  0
   -2.1976   -1.5931   -0.4969 O   0  0  0  0  0  0  0  0  0  0  0  0
   -2.1288   -1.8649   -1.8947 C   0  0  0  0  0  0  0  0  0  0  0  0
   -6.8026   -1.7798   -0.5718 H   0  0  0  0  0  0  0  0  0  0  0  0
   -6.6189   -0.9791   -2.1884 H   0  0  0  0  0  0  0  0  0  0  0  0
   -6.4269   -2.7279   -2.0164 H   0  0  0  0  0  0  0  0  0  0  0  0
   -6.2815    0.5413   -0.4456 H   0  0  0  0  0  0  0  0  0  0  0  0
   -5.3880    2.2965    0.9997 H   0  0  0  0  0  0  0  0  0  0  0  0
   -3.0655    2.2424    1.7706 H   0  0  0  0  0  0  0  0  0  0  0  0
   -0.9449   -0.7188    1.3733 H   0  0  0  0  0  0  0  0  0  0  0  0
   -1.7578   -0.6872    3.3856 H   0  0  0  0  0  0  0  0  0  0  0  0
    0.7682    1.2324    4.9910 H   0  0  0  0  0  0  0  0  0  0  0  0
    0.5570   -0.4897    5.3092 H   0  0  0  0  0  0  0  0  0  0  0  0
    0.2231    0.6985    6.5817 H   0  0  0  0  0  0  0  0  0  0  0  0
   -3.2079   -0.4176    5.5489 H   0  0  0  0  0  0  0  0  0  0  0  0
   -1.7900   -1.4693    5.6613 H   0  0  0  0  0  0  0  0  0  0  0  0
   -2.0899   -0.2629    6.9185 H   0  0  0  0  0  0  0  0  0  0  0  0
   -2.9235    2.0722    4.9512 H   0  0  0  0  0  0  0  0  0  0  0  0
   -1.3084    2.7749    4.8825 H   0  0  0  0  0  0  0  0  0  0  0  0
   -1.9347    2.1759    6.4169 H   0  0  0  0  0  0  0  0  0  0  0  0
    2.6519    1.0574   -0.6984 H   0  0  0  0  0  0  0  0  0  0  0  0
    1.6071    0.2695   -1.9156 H   0  0  0  0  0  0  0  0  0  0  0  0
    2.5258   -1.9590   -1.2172 H   0  0  0  0  0  0  0  0  0  0  0  0
    3.6311   -1.1399   -0.0976 H   0  0  0  0  0  0  0  0  0  0  0  0
    4.6295   -2.8297   -1.8397 H   0  0  0  0  0  0  0  0  0  0  0  0
    6.1589   -0.1269   -4.2637 H   0  0  0  0  0  0  0  0  0  0  0  0
    8.6409   -0.4490   -5.8014 H   0  0  0  0  0  0  0  0  0  0  0  0
    9.2663   -2.1063   -5.7903 H   0  0  0  0  0  0  0  0  0  0  0  0
    7.9265   -1.6688   -6.8677 H   0  0  0  0  0  0  0  0  0  0  0  0
    0.8359    2.1666   -1.0716 H   0  0  0  0  0  0  0  0  0  0  0  0
    0.2750    3.4661    0.8608 H   0  0  0  0  0  0  0  0  0  0  0  0
   -1.4603    3.2495    0.5614 H   0  0  0  0  0  0  0  0  0  0  0  0
   -0.4633    4.1177   -0.5953 H   0  0  0  0  0  0  0  0  0  0  0  0
   -2.1189    1.7732   -1.6203 H   0  0  0  0  0  0  0  0  0  0  0  0
   -0.8168    0.8689   -2.4130 H   0  0  0  0  0  0  0  0  0  0  0  0
   -0.9204    2.6262   -2.5777 H   0  0  0  0  0  0  0  0  0  0  0  0
   -1.0819   -2.0605   -2.1438 H   0  0  0  0  0  0  0  0  0  0  0  0
   -2.7006   -2.7685   -2.1262 H   0  0  0  0  0  0  0  0  0  0  0  0
   -2.4646   -1.0276   -2.5199 H   0  0  0  0  0  0  0  0  0  0  0  0
  1  2  1  0
  2  3  1  0
  3  4  2  0
  4  5  1  0
  5  6  2  0
  6  7  1  0
  7  8  1  0
  8  9  1  0
  9 10  2  0
  9 11  1  0
 11 12  1  0
 12 13  1  0
 12 14  1  0
 12 15  1  0
  8 16  1  0
 16 17  1  0
 17 18  2  0
 17 19  1  0
 19 20  1  0
 20 21  1  0
 21 22  2  0
 21 23  1  0
 23 24  1  0
 24 25  1  0
 25 26  2  0
 26 27  1  0
 26 28  1  0
 28 29  1  0
 16 30  1  0
 30 31  1  0
 30 32  1  0
  7 33  2  0
 33 34  1  0
 34 35  1  0
 33  3  1  0
 29 24  2  0
  1 36  1  0
  1 37  1  0
  1 38  1  0
  4 39  1  0
  5 40  1  0
  6 41  1  0
  8 42  1  0
 11 43  1  0
 13 44  1  0
 13 45  1  0
 13 46  1  0
 14 47  1  0
 14 48  1  0
 14 49  1  0
 15 50  1  0
 15 51  1  0
 15 52  1  0
 19 53  1  0
 19 54  1  0
 20 55  1  0
 20 56  1  0
 23 57  1  0
 25 58  1  0
 27 59  1  0
 27 60  1  0
 27 61  1  0
 30 62  1  0
 31 63  1  0
 31 64  1  0
 31 65  1  0
 32 66  1  0
 32 67  1  0
 32 68  1  0
 35 69  1  0
 35 70  1  0
 35 71  1  0
M  END
$$$$
