
     RDKit          3D

 40 42  0  0  0  0  0  0  0  0999 V2000
   -6.0530   -1.1071   -0.4023 C   0  0  0  0  0  0  0  0  0  0  0  0
   -5.3450   -0.0930    0.1132 C   0  0  0  0  0  0  0  0  0  0  0  0
   -4.4487    0.8118   -0.6815 C   0  0  0  0  0  0  0  0  0  0  0  0
   -3.0824    0.8055   -0.1659 N   0  0  0  0  0  0  0  0  0  0  0  0
   -2.1044   -0.0601   -0.5909 C   0  0  0  0  0  0  0  0  0  0  0  0
   -0.9419    0.2438    0.0818 C   0  0  0  0  0  0  0  0  0  0  0  0
    0.2764   -0.4685   -0.1384 C   0  0  0  0  0  0  0  0  0  0  0  0
    1.5070    0.0688   -0.0922 C   0  0  0  0  0  0  0  0  0  0  0  0
    2.7439   -0.6831   -0.3299 C   0  0  0  0  0  0  0  0  0  0  0  0
    2.8539   -1.6399   -1.3378 C   0  0  0  0  0  0  0  0  0  0  0  0
    4.0617   -2.3005   -1.5335 C   0  0  0  0  0  0  0  0  0  0  0  0
    5.1328   -2.0217   -0.7577 N   0  0  0  0  0  4  0  0  0  0  0  0
    6.4039   -2.7284   -0.9893 C   0  0  0  0  0  0  0  0  0  0  0  0
    5.0573   -1.0813    0.2100 C   0  0  0  0  0  0  0  0  0  0  0  0
    3.8700   -0.3949    0.4391 C   0  0  0  0  0  0  0  0  0  0  0  0
   -1.2310    1.3157    0.9833 C   0  0  0  0  0  0  0  0  0  0  0  0
   -0.4918    2.0238    1.9583 C   0  0  0  0  0  0  0  0  0  0  0  0
   -1.0987    3.0499    2.6905 C   0  0  0  0  0  0  0  0  0  0  0  0
   -2.4315    3.3768    2.4745 C   0  0  0  0  0  0  0  0  0  0  0  0
   -3.1944    2.6858    1.5304 C   0  0  0  0  0  0  0  0  0  0  0  0
   -2.5779    1.6565    0.7982 C   0  0  0  0  0  0  0  0  0  0  0  0
   -6.0249   -1.3509   -1.4599 H   0  0  0  0  0  0  0  0  0  0  0  0
   -6.6853   -1.7203    0.2340 H   0  0  0  0  0  0  0  0  0  0  0  0
   -5.4160    0.1075    1.1809 H   0  0  0  0  0  0  0  0  0  0  0  0
   -4.3989    0.5158   -1.7361 H   0  0  0  0  0  0  0  0  0  0  0  0
   -4.8195    1.8413   -0.6500 H   0  0  0  0  0  0  0  0  0  0  0  0
   -2.3224   -0.8089   -1.3414 H   0  0  0  0  0  0  0  0  0  0  0  0
    0.1595   -1.5225   -0.3814 H   0  0  0  0  0  0  0  0  0  0  0  0
    1.6283    1.1268    0.1315 H   0  0  0  0  0  0  0  0  0  0  0  0
    2.0099   -1.8699   -1.9854 H   0  0  0  0  0  0  0  0  0  0  0  0
    4.1821   -3.0486   -2.3120 H   0  0  0  0  0  0  0  0  0  0  0  0
    6.9475   -2.8069   -0.0443 H   0  0  0  0  0  0  0  0  0  0  0  0
    6.1922   -3.7315   -1.3686 H   0  0  0  0  0  0  0  0  0  0  0  0
    6.9729   -2.1476   -1.7194 H   0  0  0  0  0  0  0  0  0  0  0  0
    5.9519   -0.8830    0.7937 H   0  0  0  0  0  0  0  0  0  0  0  0
    3.8289    0.3576    1.2250 H   0  0  0  0  0  0  0  0  0  0  0  0
    0.5440    1.7725    2.1583 H   0  0  0  0  0  0  0  0  0  0  0  0
   -0.5254    3.5912    3.4391 H   0  0  0  0  0  0  0  0  0  0  0  0
   -2.8918    4.1747    3.0535 H   0  0  0  0  0  0  0  0  0  0  0  0
   -4.2389    2.9429    1.3833 H   0  0  0  0  0  0  0  0  0  0  0  0
  1  2  2  0
  2  3  1  0
  3  4  1  0
  4  5  1  0
  5  6  2  0
  6  7  1  0
  7  8  2  3
  8  9  1  0
  9 10  2  0
 10 11  1  0
 11 12  2  0
 12 13  1  0
 12 14  1  0
 14 15  2  0
  6 16  1  0
 16 17  2  0
 17 18  1  0
 18 19  2  0
 19 20  1  0
 20 21  2  0
 21  4  1  0
 15  9  1  0
 21 16  1  0
  1 22  1  0
  1 23  1  0
  2 24  1  0
  3 25  1  0
  3 26  1  0
  5 27  1  0
  7 28  1  0
  8 29  1  0
 10 30  1  0
 11 31  1  0
 13 32  1  0
 13 33  1  0
 13 34  1  0
 14 35  1  0
 15 36  1  0
 17 37  1  0
 18 38  1  0
 19 39  1  0
 20 40  1  0
M  CHG  1  12   1
M  END
$$$$
