
     RDKit          3D

 61 64  0  0  0  0  0  0  0  0999 V2000
   -6.1872   -3.9138   -0.3075 C   0  0  0  0  0  0  0  0  0  0  0  0
   -7.1076   -3.0847   -1.0061 O   0  0  0  0  0  0  0  0  0  0  0  0
   -6.9541   -1.7322   -0.8756 C   0  0  0  0  0  0  0  0  0  0  0  0
   -7.9429   -0.9707   -1.5048 C   0  0  0  0  0  0  0  0  0  0  0  0
   -7.9369    0.4262   -1.4422 C   0  0  0  0  0  0  0  0  0  0  0  0
   -8.9752    1.0331   -2.0900 O   0  0  0  0  0  0  0  0  0  0  0  0
   -9.0628    2.4508   -1.9820 C   0  0  0  0  0  0  0  0  0  0  0  0
   -6.9139    1.0711   -0.7543 C   0  0  0  0  0  0  0  0  0  0  0  0
   -5.9061    0.3157   -0.1413 C   0  0  0  0  0  0  0  0  0  0  0  0
   -4.8336    1.0381    0.5878 C   0  0  0  0  0  0  0  0  0  0  0  0
   -5.1282    2.0258    1.2516 O   0  0  0  0  0  0  0  0  0  0  0  0
   -3.5600    0.5204    0.4096 N   0  0  0  0  0  0  0  0  0  0  0  0
   -2.5026    1.0918    1.0497 N   0  0  0  0  0  0  0  0  0  0  0  0
   -1.3379    0.6112    0.7522 C   0  0  0  0  0  0  0  0  0  0  0  0
   -0.1052    1.1217    1.3809 C   0  0  0  0  0  0  0  0  0  0  0  0
   -0.1527    2.1398    2.3303 C   0  0  0  0  0  0  0  0  0  0  0  0
    1.0271    2.5890    2.9325 C   0  0  0  0  0  0  0  0  0  0  0  0
    2.2628    2.0302    2.5837 C   0  0  0  0  0  0  0  0  0  0  0  0
    3.4603    2.3909    3.1439 O   0  0  0  0  0  0  0  0  0  0  0  0
    3.4647    3.5172    4.0143 C   0  0  0  0  0  0  0  0  0  0  0  0
    2.3167    1.0145    1.6088 C   0  0  0  0  0  0  0  0  0  0  0  0
    3.6248    0.3582    1.2173 C   0  0  0  0  0  0  0  0  0  0  0  0
    3.6706    0.2387   -0.2082 O   0  0  0  0  0  0  0  0  0  0  0  0
    4.7838   -0.3401   -0.7500 C   0  0  0  0  0  0  0  0  0  0  0  0
    4.8750   -0.2289   -2.1380 C   0  0  0  0  0  0  0  0  0  0  0  0
    5.9526   -0.7879   -2.8281 C   0  0  0  0  0  0  0  0  0  0  0  0
    6.9594   -1.4769   -2.1361 C   0  0  0  0  0  0  0  0  0  0  0  0
    8.0497   -2.0482   -2.8104 C   0  0  0  0  0  0  0  0  0  0  0  0
    9.0421   -2.7364   -2.1072 C   0  0  0  0  0  0  0  0  0  0  0  0
    8.9566   -2.8609   -0.7246 C   0  0  0  0  0  0  0  0  0  0  0  0
    7.8806   -2.2947   -0.0394 C   0  0  0  0  0  0  0  0  0  0  0  0
    6.8725   -1.5981   -0.7293 C   0  0  0  0  0  0  0  0  0  0  0  0
    5.7813   -1.0228   -0.0500 C   0  0  0  0  0  0  0  0  0  0  0  0
    1.1196    0.5588    1.0209 C   0  0  0  0  0  0  0  0  0  0  0  0
   -5.9294   -1.0858   -0.1882 C   0  0  0  0  0  0  0  0  0  0  0  0
   -6.4666   -4.9550   -0.4951 H   0  0  0  0  0  0  0  0  0  0  0  0
   -5.1666   -3.7691   -0.6785 H   0  0  0  0  0  0  0  0  0  0  0  0
   -6.2439   -3.7418    0.7729 H   0  0  0  0  0  0  0  0  0  0  0  0
   -8.7446   -1.4758   -2.0415 H   0  0  0  0  0  0  0  0  0  0  0  0
   -9.1538    2.7653   -0.9365 H   0  0  0  0  0  0  0  0  0  0  0  0
   -9.9698    2.7720   -2.5042 H   0  0  0  0  0  0  0  0  0  0  0  0
   -8.2084    2.9335   -2.4679 H   0  0  0  0  0  0  0  0  0  0  0  0
   -6.8677    2.1539   -0.6778 H   0  0  0  0  0  0  0  0  0  0  0  0
   -3.3899   -0.2165   -0.2656 H   0  0  0  0  0  0  0  0  0  0  0  0
   -1.2167   -0.2053    0.0191 H   0  0  0  0  0  0  0  0  0  0  0  0
   -1.1045    2.5836    2.6132 H   0  0  0  0  0  0  0  0  0  0  0  0
    0.9417    3.3729    3.6793 H   0  0  0  0  0  0  0  0  0  0  0  0
    2.8974    3.3097    4.9279 H   0  0  0  0  0  0  0  0  0  0  0  0
    3.0896    4.4143    3.5072 H   0  0  0  0  0  0  0  0  0  0  0  0
    4.5017    3.7086    4.3039 H   0  0  0  0  0  0  0  0  0  0  0  0
    3.6528   -0.6329    1.6910 H   0  0  0  0  0  0  0  0  0  0  0  0
    4.4839    0.9517    1.5485 H   0  0  0  0  0  0  0  0  0  0  0  0
    4.1029    0.3033   -2.6889 H   0  0  0  0  0  0  0  0  0  0  0  0
    5.9981   -0.6808   -3.9105 H   0  0  0  0  0  0  0  0  0  0  0  0
    8.1327   -1.9624   -3.8924 H   0  0  0  0  0  0  0  0  0  0  0  0
    9.8799   -3.1743   -2.6391 H   0  0  0  0  0  0  0  0  0  0  0  0
    9.7280   -3.3980   -0.1758 H   0  0  0  0  0  0  0  0  0  0  0  0
    7.8352   -2.4019    1.0423 H   0  0  0  0  0  0  0  0  0  0  0  0
    5.7307   -1.1321    1.0274 H   0  0  0  0  0  0  0  0  0  0  0  0
    1.1608   -0.2367    0.2782 H   0  0  0  0  0  0  0  0  0  0  0  0
   -5.1672   -1.6471    0.3400 H   0  0  0  0  0  0  0  0  0  0  0  0
  1  2  1  0
  2  3  1  0
  3  4  2  0
  4  5  1  0
  5  6  1  0
  6  7  1  0
  5  8  2  0
  8  9  1  0
  9 10  1  0
 10 11  2  0
 10 12  1  0
 12 13  1  0
 13 14  2  3
 14 15  1  0
 15 16  2  0
 16 17  1  0
 17 18  2  0
 18 19  1  0
 19 20  1  0
 18 21  1  0
 21 22  1  0
 22 23  1  0
 23 24  1  0
 24 25  2  0
 25 26  1  0
 26 27  2  0
 27 28  1  0
 28 29  2  0
 29 30  1  0
 30 31  2  0
 31 32  1  0
 32 33  2  0
 21 34  2  0
  9 35  2  0
 35  3  1  0
 34 15  1  0
 33 24  1  0
 32 27  1  0
  1 36  1  0
  1 37  1  0
  1 38  1  0
  4 39  1  0
  7 40  1  0
  7 41  1  0
  7 42  1  0
  8 43  1  0
 12 44  1  0
 14 45  1  0
 16 46  1  0
 17 47  1  0
 20 48  1  0
 20 49  1  0
 20 50  1  0
 22 51  1  0
 22 52  1  0
 25 53  1  0
 26 54  1  0
 28 55  1  0
 29 56  1  0
 30 57  1  0
 31 58  1  0
 33 59  1  0
 34 60  1  0
 35 61  1  0
M  END
$$$$
