
     RDKit          3D

 38 39  0  0  0  0  0  0  0  0999 V2000
    0.1154   -0.5773   -2.0104 C   0  0  0  0  0  0  0  0  0  0  0  0
   -0.3184   -0.5751   -0.6186 N   0  0  0  0  0  0  0  0  0  0  0  0
   -1.7521   -0.7552   -0.3780 C   0  0  0  0  0  0  0  0  0  0  0  0
   -2.5214    0.5660   -0.3971 C   0  0  0  0  0  0  0  0  0  0  0  0
   -3.9771    0.3382   -0.0914 C   0  0  0  0  0  0  0  0  0  0  0  0
   -4.4450    0.4245    1.2177 C   0  0  0  0  0  0  0  0  0  0  0  0
   -5.7935    0.1863    1.4653 C   0  0  0  0  0  0  0  0  0  0  0  0
   -6.6339   -0.1339    0.4064 C   0  0  0  0  0  0  0  0  0  0  0  0
   -6.0863   -0.2061   -0.8631 C   0  0  0  0  0  0  0  0  0  0  0  0
   -4.7813    0.0171   -1.1344 N   0  0  0  0  0  0  0  0  0  0  0  0
    0.4802   -0.2119    0.4647 C   0  0  0  0  0  0  0  0  0  0  0  0
    0.0232    0.0825    1.5676 O   0  0  0  0  0  0  0  0  0  0  0  0
    1.9515   -0.1881    0.3042 C   0  0  0  0  0  0  0  0  0  0  0  0
    2.6385   -1.3046   -0.1776 C   0  0  0  0  0  0  0  0  0  0  0  0
    4.0302   -1.2625   -0.2878 C   0  0  0  0  0  0  0  0  0  0  0  0
    4.7460   -0.1207    0.0942 C   0  0  0  0  0  0  0  0  0  0  0  0
    6.0975   -0.2246   -0.0704 O   0  0  0  0  0  0  0  0  0  0  0  0
    6.8958    0.8917    0.2843 C   0  0  0  0  0  0  0  0  0  0  0  0
    6.7753    1.1800    1.5975 F   0  0  0  0  0  0  0  0  0  0  0  0
    8.1905    0.5941    0.0363 F   0  0  0  0  0  0  0  0  0  0  0  0
    6.5677    1.9771   -0.4489 F   0  0  0  0  0  0  0  0  0  0  0  0
    4.0532    0.9822    0.5998 C   0  0  0  0  0  0  0  0  0  0  0  0
    2.6586    0.9457    0.7123 C   0  0  0  0  0  0  0  0  0  0  0  0
    1.1214   -0.1739   -2.1352 H   0  0  0  0  0  0  0  0  0  0  0  0
    0.0812   -1.6054   -2.3814 H   0  0  0  0  0  0  0  0  0  0  0  0
   -0.5678    0.0415   -2.5998 H   0  0  0  0  0  0  0  0  0  0  0  0
   -1.8761   -1.2425    0.5978 H   0  0  0  0  0  0  0  0  0  0  0  0
   -2.1431   -1.4540   -1.1278 H   0  0  0  0  0  0  0  0  0  0  0  0
   -2.0967    1.2809    0.3178 H   0  0  0  0  0  0  0  0  0  0  0  0
   -2.4336    1.0394   -1.3828 H   0  0  0  0  0  0  0  0  0  0  0  0
   -3.7717    0.6703    2.0338 H   0  0  0  0  0  0  0  0  0  0  0  0
   -6.1832    0.2492    2.4772 H   0  0  0  0  0  0  0  0  0  0  0  0
   -7.6889   -0.3241    0.5662 H   0  0  0  0  0  0  0  0  0  0  0  0
   -6.7012   -0.4541   -1.7234 H   0  0  0  0  0  0  0  0  0  0  0  0
    2.1001   -2.2072   -0.4544 H   0  0  0  0  0  0  0  0  0  0  0  0
    4.5621   -2.1331   -0.6667 H   0  0  0  0  0  0  0  0  0  0  0  0
    4.5583    1.8871    0.9259 H   0  0  0  0  0  0  0  0  0  0  0  0
    2.1243    1.8003    1.1228 H   0  0  0  0  0  0  0  0  0  0  0  0
  1  2  1  0
  2  3  1  0
  3  4  1  0
  4  5  1  0
  5  6  2  0
  6  7  1  0
  7  8  2  0
  8  9  1  0
  9 10  2  0
  2 11  1  0
 11 12  2  0
 11 13  1  0
 13 14  2  0
 14 15  1  0
 15 16  2  0
 16 17  1  0
 17 18  1  0
 18 19  1  0
 18 20  1  0
 18 21  1  0
 16 22  1  0
 22 23  2  0
 10  5  1  0
 23 13  1  0
  1 24  1  0
  1 25  1  0
  1 26  1  0
  3 27  1  0
  3 28  1  0
  4 29  1  0
  4 30  1  0
  6 31  1  0
  7 32  1  0
  8 33  1  0
  9 34  1  0
 14 35  1  0
 15 36  1  0
 22 37  1  0
 23 38  1  0
M  END
$$$$
