
     RDKit          3D

 38 39  0  0  0  0  0  0  0  0999 V2000
    1.9712   -0.9699   -1.9345 O   0  0  0  0  0  0  0  0  0  0  0  0
    0.9184   -1.1080   -1.3120 C   0  0  0  0  0  0  0  0  0  0  0  0
   -0.4251   -1.3843   -1.9880 C   0  0  0  0  0  0  0  0  0  0  0  0
   -1.5511   -1.0849   -1.1615 O   0  0  0  0  0  0  0  0  0  0  0  0
   -1.8756    0.2303   -1.1104 C   0  0  0  0  0  0  0  0  0  0  0  0
   -1.2448    1.1410   -1.6238 O   0  0  0  0  0  0  0  0  0  0  0  0
   -3.0443    0.4539   -0.2283 C   0  0  0  0  0  0  0  0  0  0  0  0
   -3.0319    1.6152    0.5620 C   0  0  0  0  0  0  0  0  0  0  0  0
   -4.0941    1.8967    1.4239 C   0  0  0  0  0  0  0  0  0  0  0  0
   -5.1700    1.0180    1.4852 C   0  0  0  0  0  0  0  0  0  0  0  0
   -6.2293    1.2496    2.3112 O   0  0  0  0  0  0  0  0  0  0  0  0
   -5.2075   -0.1288    0.6970 C   0  0  0  0  0  0  0  0  0  0  0  0
   -4.1465   -0.4083   -0.1668 C   0  0  0  0  0  0  0  0  0  0  0  0
   -4.2162   -1.5135   -0.9684 O   0  0  0  0  0  0  0  0  0  0  0  0
    0.8763   -1.0683    0.0669 N   0  0  0  0  0  0  0  0  0  0  0  0
    2.0897   -0.9227    0.8447 C   0  0  0  0  0  0  0  0  0  0  0  0
    2.7597    0.4470    0.6554 C   0  0  0  0  0  0  0  0  0  0  0  0
    4.2038    0.3425    0.6566 N   0  0  0  0  0  0  0  0  0  0  0  0
    4.9870    0.1712   -0.4607 C   0  0  0  0  0  0  0  0  0  0  0  0
    4.4595    0.0738   -1.7139 O   0  0  0  0  0  0  0  0  0  0  0  0
    6.2983    0.1079   -0.2110 C   0  0  0  0  0  0  0  0  0  0  0  0
    6.6324    0.2305    1.4878 S   0  0  0  0  0  0  0  0  0  0  0  0
    4.9051    0.3671    1.8544 C   0  0  0  0  0  0  0  0  0  0  0  0
    4.4512    0.4511    2.9843 O   0  0  0  0  0  0  0  0  0  0  0  0
   -0.4786   -0.8345   -2.9349 H   0  0  0  0  0  0  0  0  0  0  0  0
   -0.4636   -2.4537   -2.2191 H   0  0  0  0  0  0  0  0  0  0  0  0
   -2.1908    2.3046    0.5061 H   0  0  0  0  0  0  0  0  0  0  0  0
   -4.0641    2.7979    2.0292 H   0  0  0  0  0  0  0  0  0  0  0  0
   -6.0851    2.0860    2.7853 H   0  0  0  0  0  0  0  0  0  0  0  0
   -6.0716   -0.7829    0.7638 H   0  0  0  0  0  0  0  0  0  0  0  0
   -5.0594   -1.9724   -0.8131 H   0  0  0  0  0  0  0  0  0  0  0  0
    0.0065   -1.3173    0.5266 H   0  0  0  0  0  0  0  0  0  0  0  0
    1.8298   -1.0756    1.8975 H   0  0  0  0  0  0  0  0  0  0  0  0
    2.7614   -1.7370    0.5475 H   0  0  0  0  0  0  0  0  0  0  0  0
    2.4538    1.1005    1.4824 H   0  0  0  0  0  0  0  0  0  0  0  0
    2.4403    0.9604   -0.2582 H   0  0  0  0  0  0  0  0  0  0  0  0
    3.5388   -0.2630   -1.6712 H   0  0  0  0  0  0  0  0  0  0  0  0
    7.0666   -0.0199   -0.9600 H   0  0  0  0  0  0  0  0  0  0  0  0
  1  2  2  0
  2  3  1  0
  3  4  1  0
  4  5  1  0
  5  6  2  0
  5  7  1  0
  7  8  2  0
  8  9  1  0
  9 10  2  0
 10 11  1  0
 10 12  1  0
 12 13  2  0
 13 14  1  0
  2 15  1  0
 15 16  1  0
 16 17  1  0
 17 18  1  0
 18 19  1  0
 19 20  1  0
 19 21  2  0
 21 22  1  0
 22 23  1  0
 23 24  2  0
 13  7  1  0
 23 18  1  0
  3 25  1  0
  3 26  1  0
  8 27  1  0
  9 28  1  0
 11 29  1  0
 12 30  1  0
 14 31  1  0
 15 32  1  0
 16 33  1  0
 16 34  1  0
 17 35  1  0
 17 36  1  0
 20 37  1  0
 21 38  1  0
M  END
$$$$
