
     RDKit          3D

 38 38  0  0  0  0  0  0  0  0999 V2000
    5.4774    0.7595    2.4131 C   0  0  0  0  0  0  0  0  0  0  0  0
    4.2568    0.1444    2.0229 O   0  0  0  0  0  0  0  0  0  0  0  0
    3.1286    0.6067    2.7769 C   0  0  0  0  0  0  0  0  0  0  0  0
    2.5650    1.9070    2.1942 C   0  0  0  0  0  0  0  0  0  0  0  0
    2.1148    1.7285    0.8220 N   0  0  0  0  0  0  0  0  0  0  0  0
    0.8656    1.2147    0.5461 C   0  0  0  0  0  0  0  0  0  0  0  0
    0.0382    1.0179    1.4332 O   0  0  0  0  0  0  0  0  0  0  0  0
    0.5792    0.8967   -0.8983 C   0  0  0  0  0  0  0  0  0  0  0  0
    1.5016    1.3328   -1.8838 C   0  0  0  0  0  0  0  0  0  0  0  0
    2.2901    1.7005   -2.6530 N   0  0  0  0  0  0  0  0  0  0  0  0
   -0.5584    0.2159   -1.1577 C   0  0  0  0  0  0  0  0  0  0  0  0
   -1.1512   -0.2524   -2.4192 C   0  0  0  0  0  0  0  0  0  0  0  0
   -0.4657    0.0295   -3.7335 C   0  0  0  0  0  0  0  0  0  0  0  0
   -2.3135   -0.9419   -2.4554 C   0  0  0  0  0  0  0  0  0  0  0  0
   -3.1452   -1.3268   -1.3109 C   0  0  0  0  0  0  0  0  0  0  0  0
   -2.9540   -2.5655   -0.6900 C   0  0  0  0  0  0  0  0  0  0  0  0
   -3.7406   -2.9294    0.4043 C   0  0  0  0  0  0  0  0  0  0  0  0
   -4.7193   -2.0578    0.8810 C   0  0  0  0  0  0  0  0  0  0  0  0
   -4.9132   -0.8217    0.2651 C   0  0  0  0  0  0  0  0  0  0  0  0
   -4.1280   -0.4557   -0.8295 C   0  0  0  0  0  0  0  0  0  0  0  0
    5.4451    1.8390    2.2436 H   0  0  0  0  0  0  0  0  0  0  0  0
    5.6933    0.5488    3.4649 H   0  0  0  0  0  0  0  0  0  0  0  0
    6.2819    0.3388    1.8038 H   0  0  0  0  0  0  0  0  0  0  0  0
    3.4001    0.7354    3.8309 H   0  0  0  0  0  0  0  0  0  0  0  0
    2.3704   -0.1821    2.7267 H   0  0  0  0  0  0  0  0  0  0  0  0
    3.3276    2.6904    2.1687 H   0  0  0  0  0  0  0  0  0  0  0  0
    1.7286    2.2586    2.8072 H   0  0  0  0  0  0  0  0  0  0  0  0
    2.8478    1.7016    0.1224 H   0  0  0  0  0  0  0  0  0  0  0  0
   -1.1595   -0.0458   -0.2830 H   0  0  0  0  0  0  0  0  0  0  0  0
    0.5236   -0.4379   -3.7653 H   0  0  0  0  0  0  0  0  0  0  0  0
   -1.0259   -0.3714   -4.5865 H   0  0  0  0  0  0  0  0  0  0  0  0
   -0.3742    1.1072   -3.9023 H   0  0  0  0  0  0  0  0  0  0  0  0
   -2.7239   -1.2755   -3.4075 H   0  0  0  0  0  0  0  0  0  0  0  0
   -2.1902   -3.2500   -1.0507 H   0  0  0  0  0  0  0  0  0  0  0  0
   -3.5874   -3.8910    0.8870 H   0  0  0  0  0  0  0  0  0  0  0  0
   -5.3289   -2.3404    1.7355 H   0  0  0  0  0  0  0  0  0  0  0  0
   -5.6729   -0.1409    0.6397 H   0  0  0  0  0  0  0  0  0  0  0  0
   -4.2834    0.5124   -1.2993 H   0  0  0  0  0  0  0  0  0  0  0  0
  1  2  1  0
  2  3  1  0
  3  4  1  0
  4  5  1  0
  5  6  1  0
  6  7  2  0
  6  8  1  0
  8  9  1  0
  9 10  3  0
  8 11  2  3
 11 12  1  0
 12 13  1  0
 12 14  2  3
 14 15  1  0
 15 16  2  0
 16 17  1  0
 17 18  2  0
 18 19  1  0
 19 20  2  0
 20 15  1  0
  1 21  1  0
  1 22  1  0
  1 23  1  0
  3 24  1  0
  3 25  1  0
  4 26  1  0
  4 27  1  0
  5 28  1  0
 11 29  1  0
 13 30  1  0
 13 31  1  0
 13 32  1  0
 14 33  1  0
 16 34  1  0
 17 35  1  0
 18 36  1  0
 19 37  1  0
 20 38  1  0
M  END
$$$$
