
     RDKit          3D

 50 53  0  0  0  0  0  0  0  0999 V2000
    8.4804    1.7531    0.6578 C   0  0  0  0  0  0  0  0  0  0  0  0
    7.2182    2.3197    0.9864 O   0  0  0  0  0  0  0  0  0  0  0  0
    6.1104    1.5919    0.6529 C   0  0  0  0  0  0  0  0  0  0  0  0
    6.1008    0.3472    0.0310 C   0  0  0  0  0  0  0  0  0  0  0  0
    4.8833   -0.2881   -0.2526 C   0  0  0  0  0  0  0  0  0  0  0  0
    3.6447    0.2976    0.0696 C   0  0  0  0  0  0  0  0  0  0  0  0
    2.3770   -0.3967   -0.2456 C   0  0  0  0  0  0  0  0  0  0  0  0
    1.1890    0.2673   -0.4949 C   0  0  0  0  0  0  0  0  0  0  0  0
    0.0478   -0.4881   -0.7682 C   0  0  0  0  0  0  0  0  0  0  0  0
   -1.2073    0.2718   -0.9644 C   0  0  0  0  0  0  0  0  0  0  0  0
   -1.2422    1.0999   -1.8638 O   0  0  0  0  0  0  0  0  0  0  0  0
   -2.1899   -0.0269   -0.0407 N   0  0  0  0  0  0  0  0  0  0  0  0
   -3.4867    0.5228    0.0383 C   0  0  0  0  0  0  0  0  0  0  0  0
   -3.9860    1.4654   -0.8544 C   0  0  0  0  0  0  0  0  0  0  0  0
   -5.2739    1.9807   -0.6847 C   0  0  0  0  0  0  0  0  0  0  0  0
   -6.0934    1.5485    0.3692 C   0  0  0  0  0  0  0  0  0  0  0  0
   -7.4555    2.1636    0.5340 C   0  0  0  0  0  0  0  0  0  0  0  0
   -5.6261    0.5446    1.2327 C   0  0  0  0  0  0  0  0  0  0  0  0
   -6.3590    0.1506    2.3643 N   0  0  0  0  0  0  0  0  0  0  0  0
   -4.3083    0.0835    1.0857 C   0  0  0  0  0  0  0  0  0  0  0  0
    0.0981   -1.8957   -0.8424 C   0  0  0  0  0  0  0  0  0  0  0  0
   -0.9936   -2.7364   -1.1827 C   0  0  0  0  0  0  0  0  0  0  0  0
   -0.8481   -4.1215   -1.2216 C   0  0  0  0  0  0  0  0  0  0  0  0
    0.3852   -4.6855   -0.9307 C   0  0  0  0  0  0  0  0  0  0  0  0
    1.4662   -3.8594   -0.6145 C   0  0  0  0  0  0  0  0  0  0  0  0
    1.3489   -2.4764   -0.5726 C   0  0  0  0  0  0  0  0  0  0  0  0
    2.4419   -1.7524   -0.2773 N   0  0  0  0  0  0  0  0  0  0  0  0
    3.6804    1.5511    0.7038 C   0  0  0  0  0  0  0  0  0  0  0  0
    4.8953    2.1875    0.9885 C   0  0  0  0  0  0  0  0  0  0  0  0
    9.2559    2.4532    0.9831 H   0  0  0  0  0  0  0  0  0  0  0  0
    8.5843    1.6205   -0.4242 H   0  0  0  0  0  0  0  0  0  0  0  0
    8.6398    0.8092    1.1897 H   0  0  0  0  0  0  0  0  0  0  0  0
    7.0161   -0.1633   -0.2482 H   0  0  0  0  0  0  0  0  0  0  0  0
    4.9074   -1.2624   -0.7401 H   0  0  0  0  0  0  0  0  0  0  0  0
    1.1303    1.3510   -0.4906 H   0  0  0  0  0  0  0  0  0  0  0  0
   -1.9507   -0.6974    0.6804 H   0  0  0  0  0  0  0  0  0  0  0  0
   -3.3948    1.8382   -1.6848 H   0  0  0  0  0  0  0  0  0  0  0  0
   -5.6267    2.7388   -1.3811 H   0  0  0  0  0  0  0  0  0  0  0  0
   -8.2326    1.4080    0.3806 H   0  0  0  0  0  0  0  0  0  0  0  0
   -7.5599    2.5982    1.5335 H   0  0  0  0  0  0  0  0  0  0  0  0
   -7.6257    2.9672   -0.1905 H   0  0  0  0  0  0  0  0  0  0  0  0
   -6.1025   -0.7624    2.7251 H   0  0  0  0  0  0  0  0  0  0  0  0
   -7.3634    0.2473    2.2586 H   0  0  0  0  0  0  0  0  0  0  0  0
   -3.9246   -0.6322    1.8077 H   0  0  0  0  0  0  0  0  0  0  0  0
   -1.9639   -2.3160   -1.4417 H   0  0  0  0  0  0  0  0  0  0  0  0
   -1.6916   -4.7540   -1.4873 H   0  0  0  0  0  0  0  0  0  0  0  0
    0.5169   -5.7642   -0.9596 H   0  0  0  0  0  0  0  0  0  0  0  0
    2.4337   -4.3091   -0.4000 H   0  0  0  0  0  0  0  0  0  0  0  0
    2.7638    2.0526    1.0048 H   0  0  0  0  0  0  0  0  0  0  0  0
    4.8909    3.1570    1.4813 H   0  0  0  0  0  0  0  0  0  0  0  0
  1  2  1  0
  2  3  1  0
  3  4  2  0
  4  5  1  0
  5  6  2  0
  6  7  1  0
  7  8  2  0
  8  9  1  0
  9 10  1  0
 10 11  2  0
 10 12  1  0
 12 13  1  0
 13 14  2  0
 14 15  1  0
 15 16  2  0
 16 17  1  0
 16 18  1  0
 18 19  1  0
 18 20  2  0
  9 21  2  0
 21 22  1  0
 22 23  2  0
 23 24  1  0
 24 25  2  0
 25 26  1  0
 26 27  2  0
  6 28  1  0
 28 29  2  0
 29  3  1  0
 27  7  1  0
 20 13  1  0
 26 21  1  0
  1 30  1  0
  1 31  1  0
  1 32  1  0
  4 33  1  0
  5 34  1  0
  8 35  1  0
 12 36  1  0
 14 37  1  0
 15 38  1  0
 17 39  1  0
 17 40  1  0
 17 41  1  0
 19 42  1  0
 19 43  1  0
 20 44  1  0
 22 45  1  0
 23 46  1  0
 24 47  1  0
 25 48  1  0
 28 49  1  0
 29 50  1  0
M  END
$$$$
