
     RDKit          3D

 49 52  0  0  0  0  0  0  0  0999 V2000
   -4.2318   -2.6836    3.7735 C   0  0  0  0  0  0  0  0  0  0  0  0
   -3.7536   -2.3826    2.4618 O   0  0  0  0  0  0  0  0  0  0  0  0
   -4.6237   -1.6565    1.7001 C   0  0  0  0  0  0  0  0  0  0  0  0
   -5.7202   -1.2798    2.0979 O   0  0  0  0  0  0  0  0  0  0  0  0
   -4.0841   -1.3927    0.3832 C   0  0  0  0  0  0  0  0  0  0  0  0
   -2.5149   -1.9020   -0.1060 S   0  0  0  0  0  0  0  0  0  0  0  0
   -2.7678   -1.1915   -1.6317 C   0  0  0  0  0  0  0  0  0  0  0  0
   -1.7053   -1.3063   -2.4813 N   0  0  0  0  0  0  0  0  0  0  0  0
   -1.6627   -0.6723   -3.7067 C   0  0  0  0  0  0  0  0  0  0  0  0
   -2.5547    0.0008   -4.2167 O   0  0  0  0  0  0  0  0  0  0  0  0
   -0.3285   -0.8526   -4.4193 C   0  0  0  0  0  0  0  0  0  0  0  0
    0.7914    0.5284   -4.0207 S   0  0  0  0  0  0  0  0  0  0  0  0
    1.0415    0.2348   -2.3383 C   0  0  0  0  0  0  0  0  0  0  0  0
    1.0142   -0.9463   -1.7659 N   0  0  0  0  0  0  0  0  0  0  0  0
    1.1643   -0.7608   -0.4198 N   0  0  0  0  0  0  0  0  0  0  0  0
    1.3000    0.5334   -0.1937 C   0  0  0  0  0  0  0  0  0  0  0  0
    1.5060    1.1546    1.1406 C   0  0  0  0  0  0  0  0  0  0  0  0
    2.8299    1.7325    1.2474 N   0  0  0  0  0  0  0  0  0  0  0  0
    2.9805    3.0722    1.1989 N   0  0  0  0  0  0  0  0  0  0  0  0
    4.2744    3.3316    1.3275 N   0  0  0  0  0  0  0  0  0  0  0  0
    4.9378    2.1412    1.4624 C   0  0  0  0  0  0  0  0  0  0  0  0
    6.3023    1.8683    1.6282 C   0  0  0  0  0  0  0  0  0  0  0  0
    6.7077    0.5313    1.7307 C   0  0  0  0  0  0  0  0  0  0  0  0
    5.7749   -0.5071    1.6686 C   0  0  0  0  0  0  0  0  0  0  0  0
    4.4080   -0.2511    1.5068 C   0  0  0  0  0  0  0  0  0  0  0  0
    4.0290    1.0912    1.4113 C   0  0  0  0  0  0  0  0  0  0  0  0
    1.2075    1.2072   -1.3934 N   0  0  0  0  0  0  0  0  0  0  0  0
    1.2515    2.6339   -1.5984 C   0  0  0  0  0  0  0  0  0  0  0  0
   -3.9233   -0.6154   -1.8172 N   0  0  0  0  0  0  0  0  0  0  0  0
   -4.6912   -0.7176   -0.6677 C   0  0  0  0  0  0  0  0  0  0  0  0
   -6.0481   -0.1065   -0.6805 C   0  0  0  0  0  0  0  0  0  0  0  0
   -3.4942   -3.3244    4.2638 H   0  0  0  0  0  0  0  0  0  0  0  0
   -4.3373   -1.7632    4.3578 H   0  0  0  0  0  0  0  0  0  0  0  0
   -5.1829   -3.2253    3.7258 H   0  0  0  0  0  0  0  0  0  0  0  0
   -0.8583   -1.7029   -2.0833 H   0  0  0  0  0  0  0  0  0  0  0  0
    0.1291   -1.8141   -4.1617 H   0  0  0  0  0  0  0  0  0  0  0  0
   -0.5143   -0.8641   -5.4980 H   0  0  0  0  0  0  0  0  0  0  0  0
    1.4140    0.4060    1.9358 H   0  0  0  0  0  0  0  0  0  0  0  0
    0.7637    1.9349    1.3366 H   0  0  0  0  0  0  0  0  0  0  0  0
    7.0233    2.6784    1.6729 H   0  0  0  0  0  0  0  0  0  0  0  0
    7.7634    0.3011    1.8574 H   0  0  0  0  0  0  0  0  0  0  0  0
    6.1181   -1.5371    1.7430 H   0  0  0  0  0  0  0  0  0  0  0  0
    3.6896   -1.0625    1.4445 H   0  0  0  0  0  0  0  0  0  0  0  0
    0.6033    2.9118   -2.4332 H   0  0  0  0  0  0  0  0  0  0  0  0
    0.8849    3.1438   -0.7061 H   0  0  0  0  0  0  0  0  0  0  0  0
    2.2859    2.9178   -1.8060 H   0  0  0  0  0  0  0  0  0  0  0  0
   -6.1359    0.6516    0.1033 H   0  0  0  0  0  0  0  0  0  0  0  0
   -6.2466    0.3810   -1.6411 H   0  0  0  0  0  0  0  0  0  0  0  0
   -6.8167   -0.8695   -0.5238 H   0  0  0  0  0  0  0  0  0  0  0  0
  1  2  1  0
  2  3  1  0
  3  4  2  0
  3  5  1  0
  5  6  1  0
  6  7  1  0
  7  8  1  0
  8  9  1  0
  9 10  2  0
  9 11  1  0
 11 12  1  0
 12 13  1  0
 13 14  2  0
 14 15  1  0
 15 16  2  0
 16 17  1  0
 17 18  1  0
 18 19  1  0
 19 20  2  0
 20 21  1  0
 21 22  2  0
 22 23  1  0
 23 24  2  0
 24 25  1  0
 25 26  2  0
 16 27  1  0
 27 28  1  0
  7 29  2  0
 29 30  1  0
 30 31  1  0
 30  5  2  0
 27 13  1  0
 26 18  1  0
 26 21  1  0
  1 32  1  0
  1 33  1  0
  1 34  1  0
  8 35  1  0
 11 36  1  0
 11 37  1  0
 17 38  1  0
 17 39  1  0
 22 40  1  0
 23 41  1  0
 24 42  1  0
 25 43  1  0
 28 44  1  0
 28 45  1  0
 28 46  1  0
 31 47  1  0
 31 48  1  0
 31 49  1  0
M  END
$$$$
