
     RDKit          3D

 68 70  0  0  0  0  0  0  0  0999 V2000
   -7.0254    3.3792    1.4682 C   0  0  0  0  0  0  0  0  0  0  0  0
   -6.6809    2.0651    1.0482 O   0  0  0  0  0  0  0  0  0  0  0  0
   -5.3828    1.8577    0.6719 C   0  0  0  0  0  0  0  0  0  0  0  0
   -5.0895    0.5498    0.2827 C   0  0  0  0  0  0  0  0  0  0  0  0
   -3.7966    0.1909   -0.1101 C   0  0  0  0  0  0  0  0  0  0  0  0
   -2.7673    1.1428   -0.1302 C   0  0  0  0  0  0  0  0  0  0  0  0
   -1.3281    0.8002   -0.5122 C   0  0  0  0  0  0  0  0  0  0  0  0
   -1.1994   -0.4393   -1.4602 C   0  0  0  0  0  0  0  0  0  0  0  0
   -1.8893   -0.5555   -2.4719 O   0  0  0  0  0  0  0  0  0  0  0  0
   -0.2570   -1.3811   -1.0849 N   0  0  0  0  0  0  0  0  0  0  0  0
    0.0787   -2.5896   -1.8543 C   0  0  0  0  0  0  0  0  0  0  0  0
   -1.1584   -3.4810   -2.0599 C   0  0  0  0  0  0  0  0  0  0  0  0
    0.6958   -2.2214   -3.2116 C   0  0  0  0  0  0  0  0  0  0  0  0
    1.1109   -3.3946   -1.0430 C   0  0  0  0  0  0  0  0  0  0  0  0
   -0.4172    0.7211    0.6615 N   0  0  0  0  0  0  0  0  0  0  0  0
   -0.8488   -0.0606    1.8287 C   0  0  0  0  0  0  0  0  0  0  0  0
   -1.5151    0.7998    2.8473 C   0  0  0  0  0  0  0  0  0  0  0  0
   -2.7549    0.7520    3.4541 C   0  0  0  0  0  0  0  0  0  0  0  0
   -2.8065    1.8444    4.3528 C   0  0  0  0  0  0  0  0  0  0  0  0
   -1.5936    2.4824    4.2489 C   0  0  0  0  0  0  0  0  0  0  0  0
   -0.8042    1.8577    3.3395 O   0  0  0  0  0  0  0  0  0  0  0  0
    0.8829    1.2137    0.6723 C   0  0  0  0  0  0  0  0  0  0  0  0
    1.6459    1.0318    1.6229 O   0  0  0  0  0  0  0  0  0  0  0  0
    1.3631    1.9886   -0.5475 C   0  0  0  0  0  0  0  0  0  0  0  0
    2.8831    2.1398   -0.5353 C   0  0  0  0  0  0  0  0  0  0  0  0
    3.5624    0.7913   -0.7228 C   0  0  0  0  0  0  0  0  0  0  0  0
    2.9403   -0.2048   -1.0844 O   0  0  0  0  0  0  0  0  0  0  0  0
    4.9141    0.8537   -0.4806 N   0  0  0  0  0  0  0  0  0  0  0  0
    5.7865   -0.2082   -0.5631 C   0  0  0  0  0  0  0  0  0  0  0  0
    5.5380   -1.5520   -0.9190 C   0  0  0  0  0  0  0  0  0  0  0  0
    6.7602   -2.1680   -0.8195 C   0  0  0  0  0  0  0  0  0  0  0  0
    7.2410   -3.5437   -1.0313 C   0  0  0  0  0  0  0  0  0  0  0  0
    7.6892   -1.2523   -0.4391 O   0  0  0  0  0  0  0  0  0  0  0  0
    7.0800   -0.0216   -0.2768 N   0  0  0  0  0  0  0  0  0  0  0  0
   -3.0747    2.4591    0.2579 C   0  0  0  0  0  0  0  0  0  0  0  0
   -4.3695    2.8136    0.6551 C   0  0  0  0  0  0  0  0  0  0  0  0
   -6.8887    4.1020    0.6568 H   0  0  0  0  0  0  0  0  0  0  0  0
   -8.0862    3.3765    1.7368 H   0  0  0  0  0  0  0  0  0  0  0  0
   -6.4575    3.6706    2.3584 H   0  0  0  0  0  0  0  0  0  0  0  0
   -5.8762   -0.2012    0.2865 H   0  0  0  0  0  0  0  0  0  0  0  0
   -3.6155   -0.8417   -0.4018 H   0  0  0  0  0  0  0  0  0  0  0  0
   -0.9982    1.6321   -1.1450 H   0  0  0  0  0  0  0  0  0  0  0  0
    0.4650   -1.0483   -0.4538 H   0  0  0  0  0  0  0  0  0  0  0  0
   -0.8852   -4.4334   -2.5290 H   0  0  0  0  0  0  0  0  0  0  0  0
   -1.6452   -3.7042   -1.1032 H   0  0  0  0  0  0  0  0  0  0  0  0
   -1.9062   -3.0093   -2.7048 H   0  0  0  0  0  0  0  0  0  0  0  0
    1.5703   -1.5733   -3.0856 H   0  0  0  0  0  0  0  0  0  0  0  0
   -0.0145   -1.6873   -3.8504 H   0  0  0  0  0  0  0  0  0  0  0  0
    1.0171   -3.1166   -3.7555 H   0  0  0  0  0  0  0  0  0  0  0  0
    0.7124   -3.6657   -0.0583 H   0  0  0  0  0  0  0  0  0  0  0  0
    1.3936   -4.3189   -1.5589 H   0  0  0  0  0  0  0  0  0  0  0  0
    2.0249   -2.8143   -0.8737 H   0  0  0  0  0  0  0  0  0  0  0  0
    0.0158   -0.5487    2.2936 H   0  0  0  0  0  0  0  0  0  0  0  0
   -1.5135   -0.8662    1.4985 H   0  0  0  0  0  0  0  0  0  0  0  0
   -3.5317    0.0256    3.2575 H   0  0  0  0  0  0  0  0  0  0  0  0
   -3.6252    2.1301    4.9973 H   0  0  0  0  0  0  0  0  0  0  0  0
   -1.1580    3.3485    4.7261 H   0  0  0  0  0  0  0  0  0  0  0  0
    0.8953    2.9787   -0.5244 H   0  0  0  0  0  0  0  0  0  0  0  0
    1.0683    1.4769   -1.4682 H   0  0  0  0  0  0  0  0  0  0  0  0
    3.2260    2.5972    0.3996 H   0  0  0  0  0  0  0  0  0  0  0  0
    3.1909    2.7869   -1.3646 H   0  0  0  0  0  0  0  0  0  0  0  0
    5.3431    1.7113   -0.1614 H   0  0  0  0  0  0  0  0  0  0  0  0
    4.6038   -2.0131   -1.2003 H   0  0  0  0  0  0  0  0  0  0  0  0
    6.4142   -4.2130   -1.2887 H   0  0  0  0  0  0  0  0  0  0  0  0
    7.7190   -3.9279   -0.1249 H   0  0  0  0  0  0  0  0  0  0  0  0
    7.9701   -3.5738   -1.8465 H   0  0  0  0  0  0  0  0  0  0  0  0
   -2.2951    3.2186    0.2780 H   0  0  0  0  0  0  0  0  0  0  0  0
   -4.5455    3.8409    0.9558 H   0  0  0  0  0  0  0  0  0  0  0  0
  1  2  1  0
  2  3  1  0
  3  4  2  0
  4  5  1  0
  5  6  2  0
  6  7  1  0
  7  8  1  0
  8  9  2  0
  8 10  1  0
 10 11  1  0
 11 12  1  0
 11 13  1  0
 11 14  1  0
  7 15  1  0
 15 16  1  0
 16 17  1  0
 17 18  2  0
 18 19  1  0
 19 20  2  0
 20 21  1  0
 15 22  1  0
 22 23  2  0
 22 24  1  0
 24 25  1  0
 25 26  1  0
 26 27  2  0
 26 28  1  0
 28 29  1  0
 29 30  1  0
 30 31  2  0
 31 32  1  0
 31 33  1  0
 33 34  1  0
  6 35  1  0
 35 36  2  0
 36  3  1  0
 21 17  1  0
 34 29  2  0
  1 37  1  0
  1 38  1  0
  1 39  1  0
  4 40  1  0
  5 41  1  0
  7 42  1  0
 10 43  1  0
 12 44  1  0
 12 45  1  0
 12 46  1  0
 13 47  1  0
 13 48  1  0
 13 49  1  0
 14 50  1  0
 14 51  1  0
 14 52  1  0
 16 53  1  0
 16 54  1  0
 18 55  1  0
 19 56  1  0
 20 57  1  0
 24 58  1  0
 24 59  1  0
 25 60  1  0
 25 61  1  0
 28 62  1  0
 30 63  1  0
 32 64  1  0
 32 65  1  0
 32 66  1  0
 35 67  1  0
 36 68  1  0
M  END
$$$$
