
     RDKit          3D

 29 29  0  0  0  0  0  0  0  0999 V2000
   -4.1485   -3.5145   -1.4050 C   0  0  0  0  0  0  0  0  0  0  0  0
   -4.1720   -2.4288   -0.8880 C   0  0  0  0  0  0  0  0  0  0  0  0
   -4.2010   -1.0977   -0.2626 C   0  0  0  0  0  0  0  0  0  0  0  0
   -3.3943   -1.0397    0.9582 N   0  0  0  0  0  0  0  0  0  0  0  0
   -1.9520   -1.1790    0.7387 C   0  0  0  0  0  0  0  0  0  0  0  0
   -1.3082    0.0380    0.0755 C   0  0  0  0  0  0  0  0  0  0  0  0
    0.2082   -0.1301   -0.0288 C   0  0  0  0  0  0  0  0  0  0  0  0
    0.7334    1.0526   -0.6431 O   0  0  0  0  0  0  0  0  0  0  0  0
    2.0725    1.2486   -0.4196 C   0  0  0  0  0  0  0  0  0  0  0  0
    3.0104    0.2303   -0.6199 C   0  0  0  0  0  0  0  0  0  0  0  0
    4.3698    0.4854   -0.4184 C   0  0  0  0  0  0  0  0  0  0  0  0
    4.7915    1.7606   -0.0353 C   0  0  0  0  0  0  0  0  0  0  0  0
    6.4681    2.0645    0.2022 Cl  0  0  0  0  0  0  0  0  0  0  0  0
    3.8691    2.7884    0.1453 C   0  0  0  0  0  0  0  0  0  0  0  0
    2.5104    2.5319   -0.0533 C   0  0  0  0  0  0  0  0  0  0  0  0
    1.3915    3.8267    0.1879 Cl  0  0  0  0  0  0  0  0  0  0  0  0
   -4.1334   -4.4804   -1.8606 H   0  0  0  0  0  0  0  0  0  0  0  0
   -3.9046   -0.3232   -0.9797 H   0  0  0  0  0  0  0  0  0  0  0  0
   -5.2377   -0.8701    0.0160 H   0  0  0  0  0  0  0  0  0  0  0  0
   -3.5820   -0.1521    1.4229 H   0  0  0  0  0  0  0  0  0  0  0  0
   -1.4933   -1.3200    1.7257 H   0  0  0  0  0  0  0  0  0  0  0  0
   -1.7255   -2.0913    0.1721 H   0  0  0  0  0  0  0  0  0  0  0  0
   -1.7168    0.2060   -0.9282 H   0  0  0  0  0  0  0  0  0  0  0  0
   -1.5290    0.9485    0.6491 H   0  0  0  0  0  0  0  0  0  0  0  0
    0.6281   -0.2638    0.9763 H   0  0  0  0  0  0  0  0  0  0  0  0
    0.4428   -1.0035   -0.6486 H   0  0  0  0  0  0  0  0  0  0  0  0
    2.7035   -0.7577   -0.9556 H   0  0  0  0  0  0  0  0  0  0  0  0
    5.0947   -0.3098   -0.5780 H   0  0  0  0  0  0  0  0  0  0  0  0
    4.2041    3.7803    0.4396 H   0  0  0  0  0  0  0  0  0  0  0  0
  1  2  3  0
  2  3  1  0
  3  4  1  0
  4  5  1  0
  5  6  1  0
  6  7  1  0
  7  8  1  0
  8  9  1  0
  9 10  2  0
 10 11  1  0
 11 12  2  0
 12 13  1  0
 12 14  1  0
 14 15  2  0
 15 16  1  0
 15  9  1  0
  1 17  1  0
  3 18  1  0
  3 19  1  0
  4 20  1  0
  5 21  1  0
  5 22  1  0
  6 23  1  0
  6 24  1  0
  7 25  1  0
  7 26  1  0
 10 27  1  0
 11 28  1  0
 14 29  1  0
M  END
$$$$
