
     RDKit          3D

 55 58  0  0  0  0  0  0  0  0999 V2000
    0.7777    1.4457   -3.4811 C   0  0  0  0  0  0  0  0  0  0  0  0
    0.9200    0.0069   -3.0213 C   0  0  0  0  0  0  0  0  0  0  0  0
    1.8902   -0.0784   -1.9622 O   0  0  0  0  0  0  0  0  0  0  0  0
    3.1840   -0.2278   -2.3524 C   0  0  0  0  0  0  0  0  0  0  0  0
    3.5633   -0.2775   -3.5125 O   0  0  0  0  0  0  0  0  0  0  0  0
    4.1095   -0.3502   -1.1811 C   0  0  0  0  0  0  0  0  0  0  0  0
    5.4324   -0.7156   -1.5018 C   0  0  0  0  0  0  0  0  0  0  0  0
    6.3940   -0.8753   -0.5073 C   0  0  0  0  0  0  0  0  0  0  0  0
    6.0461   -0.6687    0.8205 C   0  0  0  0  0  0  0  0  0  0  0  0
    4.7403   -0.2989    1.1569 C   0  0  0  0  0  0  0  0  0  0  0  0
    3.7550   -0.1306    0.1729 C   0  0  0  0  0  0  0  0  0  0  0  0
    2.4334    0.2491    0.5110 N   0  0  0  0  0  0  0  0  0  0  0  0
    1.8949    0.5087    1.7541 C   0  0  0  0  0  0  0  0  0  0  0  0
    2.4749    0.5185    2.8314 O   0  0  0  0  0  0  0  0  0  0  0  0
    0.4372    0.8380    1.6841 C   0  0  0  0  0  0  0  0  0  0  0  0
   -0.3752   -0.0965    1.1655 C   0  0  0  0  0  0  0  0  0  0  0  0
   -1.7539    0.0560    1.0188 N   0  0  0  0  0  0  0  0  0  0  0  0
   -2.5498   -1.0016    0.4253 C   0  0  0  0  0  0  0  0  0  0  0  0
   -3.7303   -0.7332   -0.2838 C   0  0  0  0  0  0  0  0  0  0  0  0
   -4.4875   -1.7580   -0.8734 C   0  0  0  0  0  0  0  0  0  0  0  0
   -4.0787   -3.0828   -0.7681 C   0  0  0  0  0  0  0  0  0  0  0  0
   -4.7189   -4.1704   -1.2914 O   0  0  0  0  0  0  0  0  0  0  0  0
   -5.9772   -3.9355   -1.9123 C   0  0  0  0  0  0  0  0  0  0  0  0
   -2.9065   -3.3697   -0.0728 C   0  0  0  0  0  0  0  0  0  0  0  0
   -2.1528   -2.3465    0.5169 C   0  0  0  0  0  0  0  0  0  0  0  0
   -2.3842    1.2470    1.4653 C   0  0  0  0  0  0  0  0  0  0  0  0
   -3.5925    1.4786    1.4353 O   0  0  0  0  0  0  0  0  0  0  0  0
   -1.5114    2.3004    2.0609 C   0  0  0  0  0  0  0  0  0  0  0  0
   -2.0894    3.4998    2.5084 C   0  0  0  0  0  0  0  0  0  0  0  0
   -1.2946    4.4969    3.0706 C   0  0  0  0  0  0  0  0  0  0  0  0
    0.0776    4.3003    3.1886 C   0  0  0  0  0  0  0  0  0  0  0  0
    0.6563    3.1078    2.7448 C   0  0  0  0  0  0  0  0  0  0  0  0
   -0.1319    2.0935    2.1781 C   0  0  0  0  0  0  0  0  0  0  0  0
   -0.0035    1.5343   -4.2412 H   0  0  0  0  0  0  0  0  0  0  0  0
    0.5253    2.0957   -2.6364 H   0  0  0  0  0  0  0  0  0  0  0  0
    1.7175    1.8195   -3.9004 H   0  0  0  0  0  0  0  0  0  0  0  0
   -0.0319   -0.3428   -2.6075 H   0  0  0  0  0  0  0  0  0  0  0  0
    1.1761   -0.6614   -3.8519 H   0  0  0  0  0  0  0  0  0  0  0  0
    5.7210   -0.8828   -2.5390 H   0  0  0  0  0  0  0  0  0  0  0  0
    7.4101   -1.1604   -0.7692 H   0  0  0  0  0  0  0  0  0  0  0  0
    6.7895   -0.7920    1.6048 H   0  0  0  0  0  0  0  0  0  0  0  0
    4.5273   -0.1494    2.2113 H   0  0  0  0  0  0  0  0  0  0  0  0
    1.8067    0.3439   -0.2850 H   0  0  0  0  0  0  0  0  0  0  0  0
    0.0513   -1.0253    0.7981 H   0  0  0  0  0  0  0  0  0  0  0  0
   -4.0834    0.2847   -0.4265 H   0  0  0  0  0  0  0  0  0  0  0  0
   -5.3879   -1.4759   -1.4096 H   0  0  0  0  0  0  0  0  0  0  0  0
   -6.3788   -4.9028   -2.2293 H   0  0  0  0  0  0  0  0  0  0  0  0
   -6.6905   -3.4936   -1.2084 H   0  0  0  0  0  0  0  0  0  0  0  0
   -5.8647   -3.3125   -2.8058 H   0  0  0  0  0  0  0  0  0  0  0  0
   -2.5810   -4.4029    0.0275 H   0  0  0  0  0  0  0  0  0  0  0  0
   -1.2793   -2.6459    1.0890 H   0  0  0  0  0  0  0  0  0  0  0  0
   -3.1629    3.6580    2.4225 H   0  0  0  0  0  0  0  0  0  0  0  0
   -1.7469    5.4222    3.4192 H   0  0  0  0  0  0  0  0  0  0  0  0
    0.7019    5.0732    3.6316 H   0  0  0  0  0  0  0  0  0  0  0  0
    1.7322    2.9866    2.8597 H   0  0  0  0  0  0  0  0  0  0  0  0
  1  2  1  0
  2  3  1  0
  3  4  1  0
  4  5  2  0
  4  6  1  0
  6  7  2  0
  7  8  1  0
  8  9  2  0
  9 10  1  0
 10 11  2  0
 11 12  1  0
 12 13  1  0
 13 14  2  0
 13 15  1  0
 15 16  2  0
 16 17  1  0
 17 18  1  0
 18 19  2  0
 19 20  1  0
 20 21  2  0
 21 22  1  0
 22 23  1  0
 21 24  1  0
 24 25  2  0
 17 26  1  0
 26 27  2  0
 26 28  1  0
 28 29  2  0
 29 30  1  0
 30 31  2  0
 31 32  1  0
 32 33  2  0
 11  6  1  0
 33 15  1  0
 25 18  1  0
 33 28  1  0
  1 34  1  0
  1 35  1  0
  1 36  1  0
  2 37  1  0
  2 38  1  0
  7 39  1  0
  8 40  1  0
  9 41  1  0
 10 42  1  0
 12 43  1  0
 16 44  1  0
 19 45  1  0
 20 46  1  0
 23 47  1  0
 23 48  1  0
 23 49  1  0
 24 50  1  0
 25 51  1  0
 29 52  1  0
 30 53  1  0
 31 54  1  0
 32 55  1  0
M  END
$$$$
