
     RDKit          3D

 34 34  0  0  0  0  0  0  0  0999 V2000
    5.1097   -1.0016   -1.4560 C   0  0  0  0  0  0  0  0  0  0  0  0
    4.2061   -0.7731   -0.2545 C   0  0  0  0  0  0  0  0  0  0  0  0
    4.1546    0.7065    0.1327 C   0  0  0  0  0  0  0  0  0  0  0  0
    3.2844    0.9515    1.3639 C   0  0  0  0  0  0  0  0  0  0  0  0
    1.9353    0.5142    1.1403 O   0  0  0  0  0  0  0  0  0  0  0  0
    1.1193    1.4087    0.5287 C   0  0  0  0  0  0  0  0  0  0  0  0
    1.4295    2.5324    0.1674 O   0  0  0  0  0  0  0  0  0  0  0  0
   -0.2398    0.8305    0.3433 C   0  0  0  0  0  0  0  0  0  0  0  0
   -1.2223    1.6232   -0.2599 C   0  0  0  0  0  0  0  0  0  0  0  0
   -2.5169    1.1259   -0.4591 C   0  0  0  0  0  0  0  0  0  0  0  0
   -2.8480   -0.1696   -0.0596 C   0  0  0  0  0  0  0  0  0  0  0  0
   -4.1250   -0.7445   -0.2225 N   0  0  0  0  0  0  0  0  0  0  0  0
   -5.2427   -0.1644   -0.7957 C   0  0  0  0  0  0  0  0  0  0  0  0
   -6.4313   -1.0936   -0.7949 C   0  0  0  0  0  0  0  0  0  0  0  0
   -5.3231    0.9546   -1.2887 O   0  0  0  0  0  0  0  0  0  0  0  0
   -1.8628   -0.9621    0.5443 C   0  0  0  0  0  0  0  0  0  0  0  0
   -0.5678   -0.4690    0.7453 C   0  0  0  0  0  0  0  0  0  0  0  0
    6.1345   -0.6811   -1.2430 H   0  0  0  0  0  0  0  0  0  0  0  0
    5.1334   -2.0646   -1.7156 H   0  0  0  0  0  0  0  0  0  0  0  0
    4.7499   -0.4467   -2.3284 H   0  0  0  0  0  0  0  0  0  0  0  0
    3.2002   -1.1377   -0.4920 H   0  0  0  0  0  0  0  0  0  0  0  0
    4.5753   -1.3656    0.5906 H   0  0  0  0  0  0  0  0  0  0  0  0
    3.7632    1.2799   -0.7158 H   0  0  0  0  0  0  0  0  0  0  0  0
    5.1681    1.0718    0.3354 H   0  0  0  0  0  0  0  0  0  0  0  0
    3.3090    2.0076    1.6579 H   0  0  0  0  0  0  0  0  0  0  0  0
    3.6692    0.3790    2.2150 H   0  0  0  0  0  0  0  0  0  0  0  0
   -0.9899    2.6373   -0.5816 H   0  0  0  0  0  0  0  0  0  0  0  0
   -3.2418    1.7827   -0.9308 H   0  0  0  0  0  0  0  0  0  0  0  0
   -4.2297   -1.6937    0.1129 H   0  0  0  0  0  0  0  0  0  0  0  0
   -7.3517   -0.5060   -0.8592 H   0  0  0  0  0  0  0  0  0  0  0  0
   -6.4683   -1.6807    0.1273 H   0  0  0  0  0  0  0  0  0  0  0  0
   -6.3674   -1.7640   -1.6560 H   0  0  0  0  0  0  0  0  0  0  0  0
   -2.0850   -1.9759    0.8682 H   0  0  0  0  0  0  0  0  0  0  0  0
    0.1719   -1.1119    1.2158 H   0  0  0  0  0  0  0  0  0  0  0  0
  1  2  1  0
  2  3  1  0
  3  4  1  0
  4  5  1  0
  5  6  1  0
  6  7  2  0
  6  8  1  0
  8  9  2  0
  9 10  1  0
 10 11  2  0
 11 12  1  0
 12 13  1  0
 13 14  1  0
 13 15  2  0
 11 16  1  0
 16 17  2  0
 17  8  1  0
  1 18  1  0
  1 19  1  0
  1 20  1  0
  2 21  1  0
  2 22  1  0
  3 23  1  0
  3 24  1  0
  4 25  1  0
  4 26  1  0
  9 27  1  0
 10 28  1  0
 12 29  1  0
 14 30  1  0
 14 31  1  0
 14 32  1  0
 16 33  1  0
 17 34  1  0
M  END
$$$$
