
     RDKit          3D

 61 66  0  0  0  0  0  0  0  0999 V2000
   -7.2054   -1.4736    2.8140 F   0  0  0  0  0  0  0  0  0  0  0  0
   -7.2376   -1.0903    1.5312 C   0  0  0  0  0  0  0  0  0  0  0  0
   -8.3045   -1.4783    0.7282 C   0  0  0  0  0  0  0  0  0  0  0  0
   -8.3361   -1.0829   -0.6070 C   0  0  0  0  0  0  0  0  0  0  0  0
   -7.3013   -0.3009   -1.1267 C   0  0  0  0  0  0  0  0  0  0  0  0
   -6.2255    0.0969   -0.3151 C   0  0  0  0  0  0  0  0  0  0  0  0
   -5.1053    0.9356   -0.8845 C   0  0  0  0  0  0  0  0  0  0  0  0
   -3.9012    0.1080   -1.3764 C   0  0  0  0  0  0  0  0  0  0  0  0
   -3.0740   -0.4817   -0.3071 N   0  0  0  0  0  0  0  0  0  0  0  0
   -2.4026    0.5583    0.5115 C   0  0  0  0  0  0  0  0  0  0  0  0
   -1.1150    0.0713    1.2116 C   0  0  0  0  0  0  0  0  0  0  0  0
   -0.0947   -0.3858    0.2361 N   0  0  0  0  0  0  0  0  0  0  0  0
    1.0433    0.3667    0.1243 C   0  0  0  0  0  0  0  0  0  0  0  0
    1.1581    1.7029   -0.2089 C   0  0  0  0  0  0  0  0  0  0  0  0
    2.5290    2.0223   -0.2692 C   0  0  0  0  0  0  0  0  0  0  0  0
    3.2391    0.8852    0.0672 C   0  0  0  0  0  0  0  0  0  0  0  0
    4.6610    0.6274    0.1583 C   0  0  0  0  0  0  0  0  0  0  0  0
    5.6482    1.7153   -0.0621 C   0  0  0  0  0  0  0  0  0  0  0  0
    6.7207    1.4863   -0.9318 C   0  0  0  0  0  0  0  0  0  0  0  0
    7.6700    2.4865   -1.1448 C   0  0  0  0  0  0  0  0  0  0  0  0
    7.5559    3.7083   -0.4807 C   0  0  0  0  0  0  0  0  0  0  0  0
    6.4999    3.9301    0.4046 C   0  0  0  0  0  0  0  0  0  0  0  0
    5.5481    2.9323    0.6212 C   0  0  0  0  0  0  0  0  0  0  0  0
    5.1081   -0.5650    0.4185 N   0  0  0  0  0  0  0  0  0  0  0  0
    4.1917   -1.6034    0.6734 C   0  0  0  0  0  0  0  0  0  0  0  0
    4.7157   -2.8609    0.9897 C   0  0  0  0  0  0  0  0  0  0  0  0
    3.8733   -3.9339    1.2811 C   0  0  0  0  0  0  0  0  0  0  0  0
    2.4925   -3.7543    1.2641 C   0  0  0  0  0  0  0  0  0  0  0  0
    1.9500   -2.5062    0.9489 C   0  0  0  0  0  0  0  0  0  0  0  0
    2.7957   -1.4347    0.6451 C   0  0  0  0  0  0  0  0  0  0  0  0
    2.3312   -0.1389    0.3019 N   0  0  0  0  0  0  0  0  0  0  0  0
   -0.6639   -0.8662   -1.0490 C   0  0  0  0  0  0  0  0  0  0  0  0
   -2.0829   -1.4416   -0.8514 C   0  0  0  0  0  0  0  0  0  0  0  0
   -6.2032   -0.3111    1.0245 C   0  0  0  0  0  0  0  0  0  0  0  0
   -9.0989   -2.0864    1.1468 H   0  0  0  0  0  0  0  0  0  0  0  0
   -9.1643   -1.3834   -1.2448 H   0  0  0  0  0  0  0  0  0  0  0  0
   -7.3402   -0.0034   -2.1721 H   0  0  0  0  0  0  0  0  0  0  0  0
   -4.8027    1.6940   -0.1532 H   0  0  0  0  0  0  0  0  0  0  0  0
   -5.4982    1.5069   -1.7363 H   0  0  0  0  0  0  0  0  0  0  0  0
   -3.2754    0.7432   -2.0175 H   0  0  0  0  0  0  0  0  0  0  0  0
   -4.2901   -0.6946   -2.0177 H   0  0  0  0  0  0  0  0  0  0  0  0
   -3.1007    0.9089    1.2797 H   0  0  0  0  0  0  0  0  0  0  0  0
   -2.1399    1.4249   -0.1103 H   0  0  0  0  0  0  0  0  0  0  0  0
   -0.7239    0.8677    1.8570 H   0  0  0  0  0  0  0  0  0  0  0  0
   -1.3545   -0.7707    1.8728 H   0  0  0  0  0  0  0  0  0  0  0  0
    0.3327    2.3680   -0.4225 H   0  0  0  0  0  0  0  0  0  0  0  0
    2.9456    2.9838   -0.5398 H   0  0  0  0  0  0  0  0  0  0  0  0
    6.8167    0.5303   -1.4416 H   0  0  0  0  0  0  0  0  0  0  0  0
    8.5011    2.3098   -1.8229 H   0  0  0  0  0  0  0  0  0  0  0  0
    8.2991    4.4849   -0.6442 H   0  0  0  0  0  0  0  0  0  0  0  0
    6.4249    4.8767    0.9337 H   0  0  0  0  0  0  0  0  0  0  0  0
    4.7470    3.1035    1.3355 H   0  0  0  0  0  0  0  0  0  0  0  0
    5.7941   -2.9962    1.0140 H   0  0  0  0  0  0  0  0  0  0  0  0
    4.2958   -4.9039    1.5283 H   0  0  0  0  0  0  0  0  0  0  0  0
    1.8328   -4.5853    1.5010 H   0  0  0  0  0  0  0  0  0  0  0  0
    0.8719   -2.4039    0.9620 H   0  0  0  0  0  0  0  0  0  0  0  0
   -0.0135   -1.6481   -1.4584 H   0  0  0  0  0  0  0  0  0  0  0  0
   -0.7041   -0.0510   -1.7838 H   0  0  0  0  0  0  0  0  0  0  0  0
   -2.0198   -2.2749   -0.1391 H   0  0  0  0  0  0  0  0  0  0  0  0
   -2.4323   -1.8871   -1.7908 H   0  0  0  0  0  0  0  0  0  0  0  0
   -5.3816   -0.0373    1.6800 H   0  0  0  0  0  0  0  0  0  0  0  0
  1  2  1  0
  2  3  2  0
  3  4  1  0
  4  5  2  0
  5  6  1  0
  6  7  1  0
  7  8  1  0
  8  9  1  0
  9 10  1  0
 10 11  1  0
 11 12  1  0
 12 13  1  0
 13 14  2  0
 14 15  1  0
 15 16  2  0
 16 17  1  0
 17 18  1  0
 18 19  2  0
 19 20  1  0
 20 21  2  0
 21 22  1  0
 22 23  2  0
 17 24  2  0
 24 25  1  0
 25 26  2  0
 26 27  1  0
 27 28  2  0
 28 29  1  0
 29 30  2  0
 30 31  1  0
 12 32  1  0
 32 33  1  0
  6 34  2  0
 34  2  1  0
 33  9  1  0
 31 13  1  0
 31 16  1  0
 23 18  1  0
 30 25  1  0
  3 35  1  0
  4 36  1  0
  5 37  1  0
  7 38  1  0
  7 39  1  0
  8 40  1  0
  8 41  1  0
 10 42  1  0
 10 43  1  0
 11 44  1  0
 11 45  1  0
 14 46  1  0
 15 47  1  0
 19 48  1  0
 20 49  1  0
 21 50  1  0
 22 51  1  0
 23 52  1  0
 26 53  1  0
 27 54  1  0
 28 55  1  0
 29 56  1  0
 32 57  1  0
 32 58  1  0
 33 59  1  0
 33 60  1  0
 34 61  1  0
M  END
$$$$
