
     RDKit          3D

 36 37  0  0  0  0  0  0  0  0999 V2000
    4.0997    0.6268    1.5541 C   0  0  0  0  0  0  0  0  0  0  0  0
    4.3082   -0.4057    0.5138 N   0  0  0  0  0  0  0  0  0  0  0  0
    5.6740   -0.9752    0.5844 C   0  0  0  0  0  0  0  0  0  0  0  0
    3.8686    0.0670   -1.0729 S   0  0  0  0  0  6  0  0  0  0  0  0
    4.1123   -1.0450   -1.9659 O   0  0  0  0  0  0  0  0  0  0  0  0
    4.4544    1.3693   -1.3135 O   0  0  0  0  0  0  0  0  0  0  0  0
    2.1058    0.2564   -0.9491 C   0  0  0  0  0  0  0  0  0  0  0  0
    1.5170    1.5075   -1.1470 C   0  0  0  0  0  0  0  0  0  0  0  0
    0.1287    1.6339   -1.0517 C   0  0  0  0  0  0  0  0  0  0  0  0
   -0.6691    0.5154   -0.7623 C   0  0  0  0  0  0  0  0  0  0  0  0
   -2.1420    0.7095   -0.6744 C   0  0  0  0  0  0  0  0  0  0  0  0
   -2.7041    1.7636   -0.9239 O   0  0  0  0  0  0  0  0  0  0  0  0
   -2.7507   -0.4280   -0.2656 O   0  0  0  0  0  0  0  0  0  0  0  0
   -4.1686   -0.3531   -0.1941 C   0  0  0  0  0  0  0  0  0  0  0  0
   -4.6500    0.3354    1.0625 C   0  0  0  0  0  0  0  0  0  0  0  0
   -6.0231   -0.2586    1.2341 C   0  0  0  0  0  0  0  0  0  0  0  0
   -5.9097   -1.6087    0.7819 O   0  0  0  0  0  0  0  0  0  0  0  0
   -4.8091   -1.7169   -0.0272 C   0  0  0  0  0  0  0  0  0  0  0  0
   -4.4347   -2.7633   -0.5321 O   0  0  0  0  0  0  0  0  0  0  0  0
   -0.0648   -0.7377   -0.5757 C   0  0  0  0  0  0  0  0  0  0  0  0
    1.3232   -0.8685   -0.6708 C   0  0  0  0  0  0  0  0  0  0  0  0
    4.2828    0.1935    2.5430 H   0  0  0  0  0  0  0  0  0  0  0  0
    3.0673    0.9850    1.5524 H   0  0  0  0  0  0  0  0  0  0  0  0
    4.7811    1.4714    1.4152 H   0  0  0  0  0  0  0  0  0  0  0  0
    5.7591   -1.8496   -0.0671 H   0  0  0  0  0  0  0  0  0  0  0  0
    5.8848   -1.3142    1.6039 H   0  0  0  0  0  0  0  0  0  0  0  0
    6.4248   -0.2306    0.3029 H   0  0  0  0  0  0  0  0  0  0  0  0
    2.1234    2.3806   -1.3791 H   0  0  0  0  0  0  0  0  0  0  0  0
   -0.3302    2.6091   -1.2093 H   0  0  0  0  0  0  0  0  0  0  0  0
   -4.5934    0.0909   -1.1040 H   0  0  0  0  0  0  0  0  0  0  0  0
   -4.0047    0.0748    1.9109 H   0  0  0  0  0  0  0  0  0  0  0  0
   -4.6670    1.4261    0.9863 H   0  0  0  0  0  0  0  0  0  0  0  0
   -6.7767    0.2515    0.6247 H   0  0  0  0  0  0  0  0  0  0  0  0
   -6.3447   -0.2466    2.2794 H   0  0  0  0  0  0  0  0  0  0  0  0
   -0.6615   -1.6233   -0.3656 H   0  0  0  0  0  0  0  0  0  0  0  0
    1.7890   -1.8430   -0.5336 H   0  0  0  0  0  0  0  0  0  0  0  0
  1  2  1  0
  2  3  1  0
  2  4  1  0
  4  5  2  0
  4  6  2  0
  4  7  1  0
  7  8  2  0
  8  9  1  0
  9 10  2  0
 10 11  1  0
 11 12  2  0
 11 13  1  0
 13 14  1  0
 14 15  1  0
 15 16  1  0
 16 17  1  0
 17 18  1  0
 18 19  2  0
 10 20  1  0
 20 21  2  0
 21  7  1  0
 18 14  1  0
  1 22  1  0
  1 23  1  0
  1 24  1  0
  3 25  1  0
  3 26  1  0
  3 27  1  0
  8 28  1  0
  9 29  1  0
 14 30  1  0
 15 31  1  0
 15 32  1  0
 16 33  1  0
 16 34  1  0
 20 35  1  0
 21 36  1  0
M  END
$$$$
