
     RDKit          3D

 38 41  0  0  0  0  0  0  0  0999 V2000
   -4.7950   -0.5569   -2.6874 O   0  0  0  0  0  0  0  0  0  0  0  0
   -4.1904   -1.2819   -1.9034 C   0  0  0  0  0  0  0  0  0  0  0  0
   -3.4412   -0.8012   -0.7562 C   0  0  0  0  0  0  0  0  0  0  0  0
   -2.7500   -1.6112    0.1247 C   0  0  0  0  0  0  0  0  0  0  0  0
   -2.1580   -0.8141    1.0714 N   0  0  0  0  0  0  0  0  0  0  0  0
   -1.3119   -1.3172    2.1446 C   0  0  0  0  0  0  0  0  0  0  0  0
    0.1037   -1.6418    1.6953 C   0  0  0  0  0  0  0  0  0  0  0  0
    0.6388   -2.6788    2.0831 O   0  0  0  0  0  0  0  0  0  0  0  0
    0.7012   -0.6662    0.9135 N   0  0  0  0  0  0  0  0  0  0  0  0
    2.0106   -0.6609    0.3865 C   0  0  0  0  0  0  0  0  0  0  0  0
    2.9630   -1.6678    0.6354 C   0  0  0  0  0  0  0  0  0  0  0  0
    4.2489   -1.5990    0.0814 C   0  0  0  0  0  0  0  0  0  0  0  0
    4.5513   -0.5167   -0.7122 C   0  0  0  0  0  0  0  0  0  0  0  0
    3.6299    0.4703   -0.9594 C   0  0  0  0  0  0  0  0  0  0  0  0
    2.3572    0.4286   -0.4277 C   0  0  0  0  0  0  0  0  0  0  0  0
    4.1224    1.4503   -1.7639 O   0  0  0  0  0  0  0  0  0  0  0  0
    5.4602    0.9615   -1.9981 C   0  0  0  0  0  0  0  0  0  0  0  0
    5.7400   -0.2853   -1.3285 O   0  0  0  0  0  0  0  0  0  0  0  0
   -2.4659    0.5112    0.8404 C   0  0  0  0  0  0  0  0  0  0  0  0
   -2.1057    1.6818    1.5304 C   0  0  0  0  0  0  0  0  0  0  0  0
   -2.5615    2.9070    1.0358 C   0  0  0  0  0  0  0  0  0  0  0  0
   -3.3506    2.9676   -0.1070 C   0  0  0  0  0  0  0  0  0  0  0  0
   -3.7068    1.7984   -0.7855 C   0  0  0  0  0  0  0  0  0  0  0  0
   -3.2615    0.5461   -0.3109 C   0  0  0  0  0  0  0  0  0  0  0  0
   -4.1882   -2.3765   -2.0422 H   0  0  0  0  0  0  0  0  0  0  0  0
   -2.6248   -2.6875    0.1475 H   0  0  0  0  0  0  0  0  0  0  0  0
   -1.7887   -2.2281    2.5242 H   0  0  0  0  0  0  0  0  0  0  0  0
   -1.2794   -0.5874    2.9580 H   0  0  0  0  0  0  0  0  0  0  0  0
    0.1264    0.1236    0.6377 H   0  0  0  0  0  0  0  0  0  0  0  0
    2.7347   -2.5246    1.2620 H   0  0  0  0  0  0  0  0  0  0  0  0
    4.9815   -2.3750    0.2732 H   0  0  0  0  0  0  0  0  0  0  0  0
    1.6588    1.2280   -0.6502 H   0  0  0  0  0  0  0  0  0  0  0  0
    5.5978    0.8196   -3.0763 H   0  0  0  0  0  0  0  0  0  0  0  0
    6.1748    1.7155   -1.6485 H   0  0  0  0  0  0  0  0  0  0  0  0
   -1.4956    1.6570    2.4281 H   0  0  0  0  0  0  0  0  0  0  0  0
   -2.2990    3.8266    1.5545 H   0  0  0  0  0  0  0  0  0  0  0  0
   -3.6993    3.9287   -0.4774 H   0  0  0  0  0  0  0  0  0  0  0  0
   -4.3276    1.8563   -1.6771 H   0  0  0  0  0  0  0  0  0  0  0  0
  1  2  2  0
  2  3  1  0
  3  4  2  0
  4  5  1  0
  5  6  1  0
  6  7  1  0
  7  8  2  0
  7  9  1  0
  9 10  1  0
 10 11  2  0
 11 12  1  0
 12 13  2  0
 13 14  1  0
 14 15  2  0
 14 16  1  0
 16 17  1  0
 17 18  1  0
  5 19  1  0
 19 20  2  0
 20 21  1  0
 21 22  2  0
 22 23  1  0
 23 24  2  0
 24  3  1  0
 15 10  1  0
 24 19  1  0
 18 13  1  0
  2 25  1  0
  4 26  1  0
  6 27  1  0
  6 28  1  0
  9 29  1  0
 11 30  1  0
 12 31  1  0
 15 32  1  0
 17 33  1  0
 17 34  1  0
 20 35  1  0
 21 36  1  0
 22 37  1  0
 23 38  1  0
M  END
$$$$
