
     RDKit          3D

 47 49  0  0  0  0  0  0  0  0999 V2000
    8.0816   -0.2408    1.5793 C   0  0  0  0  0  0  0  0  0  0  0  0
    6.6633   -0.4329    2.0941 C   0  0  0  0  0  0  0  0  0  0  0  0
    5.6351   -0.1163    1.0378 C   0  0  0  0  0  0  0  0  0  0  0  0
    5.1432    1.1872    0.8933 C   0  0  0  0  0  0  0  0  0  0  0  0
    4.2064    1.4829   -0.0998 C   0  0  0  0  0  0  0  0  0  0  0  0
    3.7435    0.4819   -0.9557 C   0  0  0  0  0  0  0  0  0  0  0  0
    2.7937    0.7782   -1.9408 N   0  0  0  0  0  0  0  0  0  0  0  0
    1.5438    0.6470   -1.6584 C   0  0  0  0  0  0  0  0  0  0  0  0
    0.9976    0.2443   -0.4829 N   0  0  0  0  0  0  0  0  0  0  0  0
   -0.3639    0.1814   -0.3972 C   0  0  0  0  0  0  0  0  0  0  0  0
   -0.9593   -0.1441    0.6163 O   0  0  0  0  0  0  0  0  0  0  0  0
   -0.9741    0.5789   -1.7010 C   0  0  0  0  0  0  0  0  0  0  0  0
   -2.2689    0.6159   -2.0481 C   0  0  0  0  0  0  0  0  0  0  0  0
   -3.4277    0.2731   -1.2131 C   0  0  0  0  0  0  0  0  0  0  0  0
   -3.6891    0.9436   -0.0103 C   0  0  0  0  0  0  0  0  0  0  0  0
   -4.8162    0.6177    0.7426 C   0  0  0  0  0  0  0  0  0  0  0  0
   -5.1733    1.1856    1.9408 O   0  0  0  0  0  0  0  0  0  0  0  0
   -4.1805    1.9790    2.5824 C   0  0  0  0  0  0  0  0  0  0  0  0
   -5.6993   -0.3594    0.2617 C   0  0  0  0  0  0  0  0  0  0  0  0
   -6.8168   -0.6602    1.0045 O   0  0  0  0  0  0  0  0  0  0  0  0
   -5.4679   -1.0307   -0.9438 C   0  0  0  0  0  0  0  0  0  0  0  0
   -6.4014   -1.9629   -1.3107 O   0  0  0  0  0  0  0  0  0  0  0  0
   -6.1585   -2.7056   -2.4960 C   0  0  0  0  0  0  0  0  0  0  0  0
   -4.3249   -0.7034   -1.6778 C   0  0  0  0  0  0  0  0  0  0  0  0
    0.2906    0.9918   -2.8191 S   0  0  0  0  0  0  0  0  0  0  0  0
    4.2520   -0.8123   -0.8318 C   0  0  0  0  0  0  0  0  0  0  0  0
    5.1888   -1.1124    0.1600 C   0  0  0  0  0  0  0  0  0  0  0  0
    8.2522    0.7934    1.2613 H   0  0  0  0  0  0  0  0  0  0  0  0
    8.8050   -0.4773    2.3660 H   0  0  0  0  0  0  0  0  0  0  0  0
    8.2855   -0.8932    0.7235 H   0  0  0  0  0  0  0  0  0  0  0  0
    6.4980    0.2038    2.9718 H   0  0  0  0  0  0  0  0  0  0  0  0
    6.5309   -1.4655    2.4395 H   0  0  0  0  0  0  0  0  0  0  0  0
    5.4943    1.9829    1.5468 H   0  0  0  0  0  0  0  0  0  0  0  0
    3.8412    2.5004   -0.2117 H   0  0  0  0  0  0  0  0  0  0  0  0
    1.5611    0.0036    0.3169 H   0  0  0  0  0  0  0  0  0  0  0  0
   -2.5376    0.9044   -3.0639 H   0  0  0  0  0  0  0  0  0  0  0  0
   -3.0000    1.7126    0.3219 H   0  0  0  0  0  0  0  0  0  0  0  0
   -3.2516    1.4170    2.7274 H   0  0  0  0  0  0  0  0  0  0  0  0
   -4.0015    2.9048    2.0262 H   0  0  0  0  0  0  0  0  0  0  0  0
   -4.5611    2.2537    3.5708 H   0  0  0  0  0  0  0  0  0  0  0  0
   -6.7624   -0.0835    1.7894 H   0  0  0  0  0  0  0  0  0  0  0  0
   -5.2281   -3.2781   -2.4215 H   0  0  0  0  0  0  0  0  0  0  0  0
   -6.9789   -3.4195   -2.6180 H   0  0  0  0  0  0  0  0  0  0  0  0
   -6.1525   -2.0532   -3.3754 H   0  0  0  0  0  0  0  0  0  0  0  0
   -4.1105   -1.1974   -2.6203 H   0  0  0  0  0  0  0  0  0  0  0  0
    3.9224   -1.5899   -1.5158 H   0  0  0  0  0  0  0  0  0  0  0  0
    5.5754   -2.1265    0.2366 H   0  0  0  0  0  0  0  0  0  0  0  0
  1  2  1  0
  2  3  1  0
  3  4  2  0
  4  5  1  0
  5  6  2  0
  6  7  1  0
  7  8  2  3
  8  9  1  0
  9 10  1  0
 10 11  2  0
 10 12  1  0
 12 13  2  3
 13 14  1  0
 14 15  2  0
 15 16  1  0
 16 17  1  0
 17 18  1  0
 16 19  2  0
 19 20  1  0
 19 21  1  0
 21 22  1  0
 22 23  1  0
 21 24  2  0
 12 25  1  0
  6 26  1  0
 26 27  2  0
 27  3  1  0
 25  8  1  0
 24 14  1  0
  1 28  1  0
  1 29  1  0
  1 30  1  0
  2 31  1  0
  2 32  1  0
  4 33  1  0
  5 34  1  0
  9 35  1  0
 13 36  1  0
 15 37  1  0
 18 38  1  0
 18 39  1  0
 18 40  1  0
 20 41  1  0
 23 42  1  0
 23 43  1  0
 23 44  1  0
 24 45  1  0
 26 46  1  0
 27 47  1  0
M  END
$$$$
