
     RDKit          3D

 59 61  0  0  0  0  0  0  0  0999 V2000
   -3.8006    0.6399   -4.7194 C   0  0  0  0  0  0  0  0  0  0  0  0
   -3.1838    1.2438   -3.4694 C   0  0  0  0  0  0  0  0  0  0  0  0
   -2.6369    0.1810   -2.6920 O   0  0  0  0  0  0  0  0  0  0  0  0
   -2.1830    0.4894   -1.4350 C   0  0  0  0  0  0  0  0  0  0  0  0
   -1.7884    1.7740   -1.0442 C   0  0  0  0  0  0  0  0  0  0  0  0
   -1.2723    1.9779    0.2352 C   0  0  0  0  0  0  0  0  0  0  0  0
   -0.8603    3.2482    0.6256 N   0  0  0  0  0  0  0  0  0  0  0  0
   -0.2803    3.5336    1.8325 C   0  0  0  0  0  0  0  0  0  0  0  0
    0.1000    5.1482    2.0839 S   0  0  0  0  0  0  0  0  0  0  0  0
   -0.0864    2.4638    2.7081 N   0  0  0  0  0  0  0  0  0  0  0  0
    0.6325    2.6276    3.9875 C   0  0  0  0  0  0  0  0  0  0  0  0
    1.8240    1.6811    4.1733 C   0  0  0  0  0  0  0  0  0  0  0  0
    2.7630    1.7054    2.9866 C   0  0  0  0  0  0  0  0  0  0  0  0
    3.0022    2.7236    2.3461 O   0  0  0  0  0  0  0  0  0  0  0  0
    3.3454    0.4863    2.7208 N   0  0  0  0  0  0  0  0  0  0  0  0
    4.1633    0.2708    1.5495 C   0  0  0  0  0  0  0  0  0  0  0  0
    3.4018   -0.5058    0.5055 C   0  0  0  0  0  0  0  0  0  0  0  0
    3.5920   -1.8848    0.3588 C   0  0  0  0  0  0  0  0  0  0  0  0
    2.8813   -2.5962   -0.6115 C   0  0  0  0  0  0  0  0  0  0  0  0
    1.9711   -1.9474   -1.4491 C   0  0  0  0  0  0  0  0  0  0  0  0
    1.3622   -2.7588   -2.3671 O   0  0  0  0  0  0  0  0  0  0  0  0
    0.5061   -2.1261   -3.3142 C   0  0  0  0  0  0  0  0  0  0  0  0
    1.7617   -0.5771   -1.2935 C   0  0  0  0  0  0  0  0  0  0  0  0
    2.4700    0.1380   -0.3201 C   0  0  0  0  0  0  0  0  0  0  0  0
   -0.6062    1.1838    2.4632 C   0  0  0  0  0  0  0  0  0  0  0  0
   -0.6165    0.2743    3.2918 O   0  0  0  0  0  0  0  0  0  0  0  0
   -1.1654    0.9232    1.1260 C   0  0  0  0  0  0  0  0  0  0  0  0
   -1.5655   -0.3636    0.7520 C   0  0  0  0  0  0  0  0  0  0  0  0
   -2.0602   -0.5902   -0.5339 C   0  0  0  0  0  0  0  0  0  0  0  0
   -2.4629   -1.8189   -0.9984 O   0  0  0  0  0  0  0  0  0  0  0  0
   -2.0586   -2.9641   -0.2483 C   0  0  0  0  0  0  0  0  0  0  0  0
   -2.4157   -4.1985   -1.0544 C   0  0  0  0  0  0  0  0  0  0  0  0
   -4.5740   -0.0917   -4.4561 H   0  0  0  0  0  0  0  0  0  0  0  0
   -4.2488    1.4160   -5.3445 H   0  0  0  0  0  0  0  0  0  0  0  0
   -3.0409    0.1077   -5.3039 H   0  0  0  0  0  0  0  0  0  0  0  0
   -2.3957    1.9411   -3.7682 H   0  0  0  0  0  0  0  0  0  0  0  0
   -3.9578    1.7716   -2.9020 H   0  0  0  0  0  0  0  0  0  0  0  0
   -1.8482    2.6135   -1.7283 H   0  0  0  0  0  0  0  0  0  0  0  0
   -0.9592    4.0316   -0.0117 H   0  0  0  0  0  0  0  0  0  0  0  0
   -0.0918    2.4433    4.7907 H   0  0  0  0  0  0  0  0  0  0  0  0
    0.9873    3.6513    4.1204 H   0  0  0  0  0  0  0  0  0  0  0  0
    2.3951    1.9791    5.0623 H   0  0  0  0  0  0  0  0  0  0  0  0
    1.4837    0.6571    4.3576 H   0  0  0  0  0  0  0  0  0  0  0  0
    2.9997   -0.3392    3.1955 H   0  0  0  0  0  0  0  0  0  0  0  0
    4.5158    1.2205    1.1311 H   0  0  0  0  0  0  0  0  0  0  0  0
    5.0477   -0.2893    1.8747 H   0  0  0  0  0  0  0  0  0  0  0  0
    4.2984   -2.4170    0.9900 H   0  0  0  0  0  0  0  0  0  0  0  0
    3.0465   -3.6653   -0.7240 H   0  0  0  0  0  0  0  0  0  0  0  0
   -0.3813   -1.7193   -2.8244 H   0  0  0  0  0  0  0  0  0  0  0  0
    1.0409   -1.3482   -3.8761 H   0  0  0  0  0  0  0  0  0  0  0  0
    0.1765   -2.8872   -4.0303 H   0  0  0  0  0  0  0  0  0  0  0  0
    1.0565   -0.0346   -1.9135 H   0  0  0  0  0  0  0  0  0  0  0  0
    2.2965    1.2076   -0.2110 H   0  0  0  0  0  0  0  0  0  0  0  0
   -1.4725   -1.1671    1.4760 H   0  0  0  0  0  0  0  0  0  0  0  0
   -0.9779   -2.9504   -0.0744 H   0  0  0  0  0  0  0  0  0  0  0  0
   -2.5945   -2.9920    0.7074 H   0  0  0  0  0  0  0  0  0  0  0  0
   -1.9124   -4.1856   -2.0305 H   0  0  0  0  0  0  0  0  0  0  0  0
   -2.1314   -5.1075   -0.5189 H   0  0  0  0  0  0  0  0  0  0  0  0
   -3.4914   -4.2283   -1.2507 H   0  0  0  0  0  0  0  0  0  0  0  0
  1  2  1  0
  2  3  1  0
  3  4  1  0
  4  5  2  0
  5  6  1  0
  6  7  1  0
  7  8  1  0
  8  9  2  0
  8 10  1  0
 10 11  1  0
 11 12  1  0
 12 13  1  0
 13 14  2  0
 13 15  1  0
 15 16  1  0
 16 17  1  0
 17 18  2  0
 18 19  1  0
 19 20  2  0
 20 21  1  0
 21 22  1  0
 20 23  1  0
 23 24  2  0
 10 25  1  0
 25 26  2  0
 25 27  1  0
 27 28  1  0
 28 29  2  0
 29 30  1  0
 30 31  1  0
 31 32  1  0
 29  4  1  0
 27  6  2  0
 24 17  1  0
  1 33  1  0
  1 34  1  0
  1 35  1  0
  2 36  1  0
  2 37  1  0
  5 38  1  0
  7 39  1  0
 11 40  1  0
 11 41  1  0
 12 42  1  0
 12 43  1  0
 15 44  1  0
 16 45  1  0
 16 46  1  0
 18 47  1  0
 19 48  1  0
 22 49  1  0
 22 50  1  0
 22 51  1  0
 23 52  1  0
 24 53  1  0
 28 54  1  0
 31 55  1  0
 31 56  1  0
 32 57  1  0
 32 58  1  0
 32 59  1  0
M  END
$$$$
