
     RDKit          3D

 53 56  0  0  0  0  0  0  0  0999 V2000
    7.5665   -2.0356   -3.6235 C   0  0  0  0  0  0  0  0  0  0  0  0
    6.6284   -1.0020   -3.3566 O   0  0  0  0  0  0  0  0  0  0  0  0
    5.7837   -1.1855   -2.2950 C   0  0  0  0  0  0  0  0  0  0  0  0
    5.7856   -2.2815   -1.4329 C   0  0  0  0  0  0  0  0  0  0  0  0
    4.8681   -2.3431   -0.3839 C   0  0  0  0  0  0  0  0  0  0  0  0
    3.9490   -1.3099   -0.1950 C   0  0  0  0  0  0  0  0  0  0  0  0
    3.9350   -0.2031   -1.0517 C   0  0  0  0  0  0  0  0  0  0  0  0
    2.9780    0.7962   -0.7864 N   0  0  0  0  0  0  0  0  0  0  0  0
    2.7348    1.9607   -1.4889 C   0  0  0  0  0  0  0  0  0  0  0  0
    3.3583    2.3404   -2.4795 O   0  0  0  0  0  0  0  0  0  0  0  0
    1.6539    2.8658   -0.9025 C   0  0  0  0  0  0  0  0  0  0  0  0
    0.6014    2.1005    0.3702 S   0  0  0  0  0  0  0  0  0  0  0  0
   -0.5049    1.1888   -0.6098 C   0  0  0  0  0  0  0  0  0  0  0  0
   -0.3383    0.9704   -1.8920 N   0  0  0  0  0  0  0  0  0  0  0  0
   -1.3307    0.1301   -2.3081 N   0  0  0  0  0  0  0  0  0  0  0  0
   -2.1022   -0.1488   -1.2739 C   0  0  0  0  0  0  0  0  0  0  0  0
   -3.3992   -0.8884   -1.3684 C   0  0  0  0  0  0  0  0  0  0  0  0
   -4.5994   -0.0311   -1.0669 C   0  0  0  0  0  0  0  0  0  0  0  0
   -5.4444   -0.0883    0.0256 C   0  0  0  0  0  0  0  0  0  0  0  0
   -6.4763    0.8923   -0.0323 C   0  0  0  0  0  0  0  0  0  0  0  0
   -6.3958    1.6582   -1.1726 C   0  0  0  0  0  0  0  0  0  0  0  0
   -5.0853    1.1946   -2.1659 S   0  0  0  0  0  0  0  0  0  0  0  0
   -1.5839    0.4604   -0.1360 N   0  0  0  0  0  0  0  0  0  0  0  0
   -2.0529    0.3377    1.1959 C   0  0  0  0  0  0  0  0  0  0  0  0
   -2.3344   -0.9295    1.7196 C   0  0  0  0  0  0  0  0  0  0  0  0
   -2.8011   -1.0538    3.0305 C   0  0  0  0  0  0  0  0  0  0  0  0
   -3.0040    0.0812    3.8238 C   0  0  0  0  0  0  0  0  0  0  0  0
   -3.4763   -0.0575    5.2413 C   0  0  0  0  0  0  0  0  0  0  0  0
   -2.7034    1.3431    3.2979 C   0  0  0  0  0  0  0  0  0  0  0  0
   -2.2312    1.4750    1.9897 C   0  0  0  0  0  0  0  0  0  0  0  0
    4.8574   -0.1517   -2.0985 C   0  0  0  0  0  0  0  0  0  0  0  0
    8.1469   -1.7415   -4.5033 H   0  0  0  0  0  0  0  0  0  0  0  0
    7.0606   -2.9780   -3.8583 H   0  0  0  0  0  0  0  0  0  0  0  0
    8.2656   -2.1586   -2.7898 H   0  0  0  0  0  0  0  0  0  0  0  0
    6.4861   -3.1011   -1.5498 H   0  0  0  0  0  0  0  0  0  0  0  0
    4.8695   -3.1978    0.2875 H   0  0  0  0  0  0  0  0  0  0  0  0
    3.2457   -1.3841    0.6301 H   0  0  0  0  0  0  0  0  0  0  0  0
    2.3567    0.6258   -0.0048 H   0  0  0  0  0  0  0  0  0  0  0  0
    2.1672    3.7120   -0.4338 H   0  0  0  0  0  0  0  0  0  0  0  0
    1.0346    3.2569   -1.7162 H   0  0  0  0  0  0  0  0  0  0  0  0
   -3.3894   -1.7685   -0.7179 H   0  0  0  0  0  0  0  0  0  0  0  0
   -3.5015   -1.2888   -2.3862 H   0  0  0  0  0  0  0  0  0  0  0  0
   -5.3278   -0.7948    0.8387 H   0  0  0  0  0  0  0  0  0  0  0  0
   -7.2404    1.0274    0.7234 H   0  0  0  0  0  0  0  0  0  0  0  0
   -7.0458    2.4678   -1.4752 H   0  0  0  0  0  0  0  0  0  0  0  0
   -2.1545   -1.8364    1.1480 H   0  0  0  0  0  0  0  0  0  0  0  0
   -2.9986   -2.0450    3.4344 H   0  0  0  0  0  0  0  0  0  0  0  0
   -4.1401   -0.9219    5.3481 H   0  0  0  0  0  0  0  0  0  0  0  0
   -2.6196   -0.1834    5.9103 H   0  0  0  0  0  0  0  0  0  0  0  0
   -4.0423    0.8266    5.5532 H   0  0  0  0  0  0  0  0  0  0  0  0
   -2.8427    2.2366    3.9037 H   0  0  0  0  0  0  0  0  0  0  0  0
   -2.0497    2.4757    1.6043 H   0  0  0  0  0  0  0  0  0  0  0  0
    4.8832    0.6855   -2.7892 H   0  0  0  0  0  0  0  0  0  0  0  0
  1  2  1  0
  2  3  1  0
  3  4  2  0
  4  5  1  0
  5  6  2  0
  6  7  1  0
  7  8  1  0
  8  9  1  0
  9 10  2  0
  9 11  1  0
 11 12  1  0
 12 13  1  0
 13 14  2  0
 14 15  1  0
 15 16  2  0
 16 17  1  0
 17 18  1  0
 18 19  2  0
 19 20  1  0
 20 21  2  0
 21 22  1  0
 16 23  1  0
 23 24  1  0
 24 25  2  0
 25 26  1  0
 26 27  2  0
 27 28  1  0
 27 29  1  0
 29 30  2  0
  7 31  2  0
 31  3  1  0
 23 13  1  0
 30 24  1  0
 22 18  1  0
  1 32  1  0
  1 33  1  0
  1 34  1  0
  4 35  1  0
  5 36  1  0
  6 37  1  0
  8 38  1  0
 11 39  1  0
 11 40  1  0
 17 41  1  0
 17 42  1  0
 19 43  1  0
 20 44  1  0
 21 45  1  0
 25 46  1  0
 26 47  1  0
 28 48  1  0
 28 49  1  0
 28 50  1  0
 29 51  1  0
 30 52  1  0
 31 53  1  0
M  END
$$$$
