
     RDKit          3D

 56 58  0  0  0  0  0  0  0  0999 V2000
    9.5357    1.6973   -1.1195 C   0  0  0  0  0  0  0  0  0  0  0  0
    8.5243    2.7960   -0.8493 C   0  0  0  0  0  0  0  0  0  0  0  0
    7.7190    2.4775    0.2823 O   0  0  0  0  0  0  0  0  0  0  0  0
    6.5722    1.7583    0.1000 C   0  0  0  0  0  0  0  0  0  0  0  0
    6.1295    1.1884   -1.0899 C   0  0  0  0  0  0  0  0  0  0  0  0
    4.9269    0.4688   -1.1221 C   0  0  0  0  0  0  0  0  0  0  0  0
    4.1524    0.3043    0.0332 C   0  0  0  0  0  0  0  0  0  0  0  0
    2.9594   -0.4373   -0.0903 N   0  0  0  0  0  0  0  0  0  0  0  0
    2.0461   -0.7389    0.9078 C   0  0  0  0  0  0  0  0  0  0  0  0
    2.1061   -0.3929    2.0824 O   0  0  0  0  0  0  0  0  0  0  0  0
    0.8824   -1.5577    0.3748 C   0  0  0  0  0  0  0  0  0  0  0  0
   -0.0144   -2.0937    1.4860 C   0  0  0  0  0  0  0  0  0  0  0  0
   -0.7341   -0.9895    2.1391 N   0  0  0  0  0  0  0  0  0  0  0  0
   -2.0801   -1.3647    3.0739 S   0  0  0  0  0  6  0  0  0  0  0  0
   -1.9508   -2.7311    3.5295 O   0  0  0  0  0  0  0  0  0  0  0  0
   -2.2913   -0.2637    3.9845 O   0  0  0  0  0  0  0  0  0  0  0  0
   -3.3815   -1.2942    1.8687 C   0  0  0  0  0  0  0  0  0  0  0  0
   -4.1339   -2.4312    1.5796 C   0  0  0  0  0  0  0  0  0  0  0  0
   -5.1654   -2.3549    0.6374 C   0  0  0  0  0  0  0  0  0  0  0  0
   -5.4558   -1.1476   -0.0233 C   0  0  0  0  0  0  0  0  0  0  0  0
   -4.6856   -0.0248    0.2826 C   0  0  0  0  0  0  0  0  0  0  0  0
   -3.6516   -0.0858    1.2273 C   0  0  0  0  0  0  0  0  0  0  0  0
   -4.9605    1.2455   -0.4049 C   0  0  0  0  0  0  0  0  0  0  0  0
   -4.2120    2.2014   -0.2157 O   0  0  0  0  0  0  0  0  0  0  0  0
   -6.0568    1.2707   -1.2518 N   0  0  0  0  0  0  0  0  0  0  0  0
   -6.3645    2.5243   -1.9129 C   0  0  0  0  0  0  0  0  0  0  0  0
   -6.7971    0.1563   -1.6278 C   0  0  0  0  0  0  0  0  0  0  0  0
   -7.6727    0.2293   -2.4929 O   0  0  0  0  0  0  0  0  0  0  0  0
   -6.4928   -1.0434   -0.9887 N   0  0  0  0  0  0  0  0  0  0  0  0
   -7.2771   -2.2229   -1.3346 C   0  0  0  0  0  0  0  0  0  0  0  0
    4.6009    0.8731    1.2224 C   0  0  0  0  0  0  0  0  0  0  0  0
    5.8017    1.5925    1.2520 C   0  0  0  0  0  0  0  0  0  0  0  0
    9.0433    0.7607   -1.3986 H   0  0  0  0  0  0  0  0  0  0  0  0
   10.2135    1.9858   -1.9264 H   0  0  0  0  0  0  0  0  0  0  0  0
   10.1253    1.4906   -0.2208 H   0  0  0  0  0  0  0  0  0  0  0  0
    7.9278    3.0423   -1.7341 H   0  0  0  0  0  0  0  0  0  0  0  0
    9.0686    3.7115   -0.5920 H   0  0  0  0  0  0  0  0  0  0  0  0
    6.6943    1.2746   -2.0116 H   0  0  0  0  0  0  0  0  0  0  0  0
    4.6119    0.0380   -2.0696 H   0  0  0  0  0  0  0  0  0  0  0  0
    2.7520   -0.7815   -1.0195 H   0  0  0  0  0  0  0  0  0  0  0  0
    1.2891   -2.4047   -0.1903 H   0  0  0  0  0  0  0  0  0  0  0  0
    0.3053   -0.9277   -0.3130 H   0  0  0  0  0  0  0  0  0  0  0  0
   -0.7343   -2.7900    1.0411 H   0  0  0  0  0  0  0  0  0  0  0  0
    0.5799   -2.6312    2.2337 H   0  0  0  0  0  0  0  0  0  0  0  0
   -0.1345   -0.2953    2.6032 H   0  0  0  0  0  0  0  0  0  0  0  0
   -3.9329   -3.3763    2.0830 H   0  0  0  0  0  0  0  0  0  0  0  0
   -5.7306   -3.2628    0.4434 H   0  0  0  0  0  0  0  0  0  0  0  0
   -3.0654    0.8017    1.4629 H   0  0  0  0  0  0  0  0  0  0  0  0
   -5.8918    2.5201   -2.8999 H   0  0  0  0  0  0  0  0  0  0  0  0
   -5.9921    3.3804   -1.3430 H   0  0  0  0  0  0  0  0  0  0  0  0
   -7.4454    2.6343   -2.0411 H   0  0  0  0  0  0  0  0  0  0  0  0
   -8.0370   -2.0095   -2.0919 H   0  0  0  0  0  0  0  0  0  0  0  0
   -6.6137   -2.9954   -1.7367 H   0  0  0  0  0  0  0  0  0  0  0  0
   -7.7931   -2.5901   -0.4414 H   0  0  0  0  0  0  0  0  0  0  0  0
    4.0456    0.7824    2.1505 H   0  0  0  0  0  0  0  0  0  0  0  0
    6.1354    2.0327    2.1891 H   0  0  0  0  0  0  0  0  0  0  0  0
  1  2  1  0
  2  3  1  0
  3  4  1  0
  4  5  2  0
  5  6  1  0
  6  7  2  0
  7  8  1  0
  8  9  1  0
  9 10  2  0
  9 11  1  0
 11 12  1  0
 12 13  1  0
 13 14  1  0
 14 15  2  0
 14 16  2  0
 14 17  1  0
 17 18  2  0
 18 19  1  0
 19 20  2  0
 20 21  1  0
 21 22  2  0
 21 23  1  0
 23 24  2  0
 23 25  1  0
 25 26  1  0
 25 27  1  0
 27 28  2  0
 27 29  1  0
 29 30  1  0
  7 31  1  0
 31 32  2  0
 32  4  1  0
 22 17  1  0
 29 20  1  0
  1 33  1  0
  1 34  1  0
  1 35  1  0
  2 36  1  0
  2 37  1  0
  5 38  1  0
  6 39  1  0
  8 40  1  0
 11 41  1  0
 11 42  1  0
 12 43  1  0
 12 44  1  0
 13 45  1  0
 18 46  1  0
 19 47  1  0
 22 48  1  0
 26 49  1  0
 26 50  1  0
 26 51  1  0
 30 52  1  0
 30 53  1  0
 30 54  1  0
 31 55  1  0
 32 56  1  0
M  END
$$$$
