
     RDKit          3D

 36 38  0  0  0  0  0  0  0  0999 V2000
   -4.7204   -2.0653   -0.7488 C   0  0  0  0  0  0  0  0  0  0  0  0
   -3.5869   -1.2161   -0.4523 N   0  0  0  0  0  0  0  0  0  0  0  0
   -2.3015   -1.4596   -0.8593 C   0  0  0  0  0  0  0  0  0  0  0  0
   -1.5017   -0.4471   -0.3760 C   0  0  0  0  0  0  0  0  0  0  0  0
   -0.0928   -0.4043   -0.6096 C   0  0  0  0  0  0  0  0  0  0  0  0
    0.8200    0.0770    0.2512 C   0  0  0  0  0  0  0  0  0  0  0  0
    2.2636    0.1126   -0.0073 C   0  0  0  0  0  0  0  0  0  0  0  0
    3.0021    1.2098    0.4331 C   0  0  0  0  0  0  0  0  0  0  0  0
    4.3755    1.2494    0.2201 C   0  0  0  0  0  0  0  0  0  0  0  0
    5.0044    0.2292   -0.4043 N   0  0  0  0  0  4  0  0  0  0  0  0
    6.4618    0.2882   -0.6089 C   0  0  0  0  0  0  0  0  0  0  0  0
    4.3142   -0.8568   -0.8178 C   0  0  0  0  0  0  0  0  0  0  0  0
    2.9389   -0.9374   -0.6275 C   0  0  0  0  0  0  0  0  0  0  0  0
   -2.3442    0.4738    0.3218 C   0  0  0  0  0  0  0  0  0  0  0  0
   -2.1410    1.7054    0.9806 C   0  0  0  0  0  0  0  0  0  0  0  0
   -3.2250    2.3505    1.5739 C   0  0  0  0  0  0  0  0  0  0  0  0
   -3.0212    3.5167    2.2019 F   0  0  0  0  0  0  0  0  0  0  0  0
   -4.5035    1.8179    1.5275 C   0  0  0  0  0  0  0  0  0  0  0  0
   -4.7398    0.6097    0.8689 C   0  0  0  0  0  0  0  0  0  0  0  0
   -3.6471   -0.0414    0.2690 C   0  0  0  0  0  0  0  0  0  0  0  0
   -5.4449   -1.4852   -1.3259 H   0  0  0  0  0  0  0  0  0  0  0  0
   -5.1556   -2.4022    0.1955 H   0  0  0  0  0  0  0  0  0  0  0  0
   -4.3889   -2.9284   -1.3317 H   0  0  0  0  0  0  0  0  0  0  0  0
   -2.0627   -2.3387   -1.4441 H   0  0  0  0  0  0  0  0  0  0  0  0
    0.2333   -0.8191   -1.5612 H   0  0  0  0  0  0  0  0  0  0  0  0
    0.5017    0.4746    1.2128 H   0  0  0  0  0  0  0  0  0  0  0  0
    2.5142    2.0430    0.9366 H   0  0  0  0  0  0  0  0  0  0  0  0
    4.9792    2.0911    0.5483 H   0  0  0  0  0  0  0  0  0  0  0  0
    6.9340   -0.1528    0.2724 H   0  0  0  0  0  0  0  0  0  0  0  0
    6.7201   -0.2721   -1.5112 H   0  0  0  0  0  0  0  0  0  0  0  0
    6.7639    1.3314   -0.7326 H   0  0  0  0  0  0  0  0  0  0  0  0
    4.8713   -1.6590   -1.2938 H   0  0  0  0  0  0  0  0  0  0  0  0
    2.4075   -1.8292   -0.9542 H   0  0  0  0  0  0  0  0  0  0  0  0
   -1.1641    2.1704    1.0286 H   0  0  0  0  0  0  0  0  0  0  0  0
   -5.3216    2.3525    2.0015 H   0  0  0  0  0  0  0  0  0  0  0  0
   -5.7430    0.1969    0.8225 H   0  0  0  0  0  0  0  0  0  0  0  0
  1  2  1  0
  2  3  1  0
  3  4  2  0
  4  5  1  0
  5  6  2  3
  6  7  1  0
  7  8  2  0
  8  9  1  0
  9 10  2  0
 10 11  1  0
 10 12  1  0
 12 13  2  0
  4 14  1  0
 14 15  2  0
 15 16  1  0
 16 17  1  0
 16 18  2  0
 18 19  1  0
 19 20  2  0
 20  2  1  0
 13  7  1  0
 20 14  1  0
  1 21  1  0
  1 22  1  0
  1 23  1  0
  3 24  1  0
  5 25  1  0
  6 26  1  0
  8 27  1  0
  9 28  1  0
 11 29  1  0
 11 30  1  0
 11 31  1  0
 12 32  1  0
 13 33  1  0
 15 34  1  0
 18 35  1  0
 19 36  1  0
M  CHG  1  10   1
M  END
$$$$
