
     RDKit          3D

 31 32  0  0  0  0  0  0  0  0999 V2000
   -2.4477    0.1875    2.3623 C   0  0  0  0  0  0  0  0  0  0  0  0
   -2.3592    0.8087    0.9756 C   0  0  0  0  0  0  0  0  0  0  0  0
   -1.7201   -0.1123    0.0243 N   0  0  0  0  0  0  0  0  0  0  0  0
   -2.6342   -0.9879   -0.7228 C   0  0  0  0  0  0  0  0  0  0  0  0
   -3.0389   -0.3535   -2.0458 C   0  0  0  0  0  0  0  0  0  0  0  0
   -0.3427   -0.1536   -0.1533 C   0  0  0  0  0  0  0  0  0  0  0  0
    0.2664   -0.9398   -1.1463 C   0  0  0  0  0  0  0  0  0  0  0  0
    1.6611   -0.9889   -1.3352 C   0  0  0  0  0  0  0  0  0  0  0  0
    2.5229   -0.2453   -0.5292 C   0  0  0  0  0  0  0  0  0  0  0  0
    3.9863   -0.2273   -0.6438 C   0  0  0  0  0  0  0  0  0  0  0  0
    4.7114   -1.2092   -1.8838 Cl  0  0  0  0  0  0  0  0  0  0  0  0
    4.7327    0.5245    0.1849 C   0  0  0  0  0  0  0  0  0  0  0  0
    6.6141    0.6118    0.1144 Br  0  0  0  0  0  0  0  0  0  0  0  0
    4.0919    1.3572    1.2391 C   0  0  0  0  0  0  0  0  0  0  0  0
    4.7339    2.0570    2.0161 O   0  0  0  0  0  0  0  0  0  0  0  0
    2.7073    1.3178    1.3197 O   0  0  0  0  0  0  0  0  0  0  0  0
    1.9303    0.5320    0.4520 C   0  0  0  0  0  0  0  0  0  0  0  0
    0.5419    0.5856    0.6439 C   0  0  0  0  0  0  0  0  0  0  0  0
   -2.9445    0.8757    3.0533 H   0  0  0  0  0  0  0  0  0  0  0  0
   -3.0227   -0.7442    2.3398 H   0  0  0  0  0  0  0  0  0  0  0  0
   -1.4581   -0.0441    2.7675 H   0  0  0  0  0  0  0  0  0  0  0  0
   -3.3764    1.0425    0.6359 H   0  0  0  0  0  0  0  0  0  0  0  0
   -1.8480    1.7772    1.0112 H   0  0  0  0  0  0  0  0  0  0  0  0
   -3.5422   -1.1637   -0.1317 H   0  0  0  0  0  0  0  0  0  0  0  0
   -2.2068   -1.9845   -0.8797 H   0  0  0  0  0  0  0  0  0  0  0  0
   -2.1745   -0.1774   -2.6930 H   0  0  0  0  0  0  0  0  0  0  0  0
   -3.7353   -1.0069   -2.5805 H   0  0  0  0  0  0  0  0  0  0  0  0
   -3.5338    0.6100   -1.8847 H   0  0  0  0  0  0  0  0  0  0  0  0
   -0.3313   -1.5419   -1.8249 H   0  0  0  0  0  0  0  0  0  0  0  0
    2.0357   -1.6260   -2.1331 H   0  0  0  0  0  0  0  0  0  0  0  0
    0.1807    1.2188    1.4478 H   0  0  0  0  0  0  0  0  0  0  0  0
  1  2  1  0
  2  3  1  0
  3  4  1  0
  4  5  1  0
  3  6  1  0
  6  7  2  0
  7  8  1  0
  8  9  2  0
  9 10  1  0
 10 11  1  0
 10 12  2  0
 12 13  1  0
 12 14  1  0
 14 15  2  0
 14 16  1  0
 16 17  1  0
 17 18  2  0
 18  6  1  0
 17  9  1  0
  1 19  1  0
  1 20  1  0
  1 21  1  0
  2 22  1  0
  2 23  1  0
  4 24  1  0
  4 25  1  0
  5 26  1  0
  5 27  1  0
  5 28  1  0
  7 29  1  0
  8 30  1  0
 18 31  1  0
M  END
$$$$
