
     RDKit          3D

 63 66  0  0  0  0  0  0  0  0999 V2000
   -5.5575   -0.6476   -2.7586 C   0  0  0  0  0  0  0  0  0  0  0  0
   -4.2531   -0.4082   -2.0507 C   0  0  0  0  0  0  0  0  0  0  0  0
   -3.0958   -1.0084   -2.5663 C   0  0  0  0  0  0  0  0  0  0  0  0
   -1.8507   -0.8085   -1.9630 C   0  0  0  0  0  0  0  0  0  0  0  0
   -1.7261   -0.0080   -0.8241 C   0  0  0  0  0  0  0  0  0  0  0  0
   -0.4319    0.1298   -0.2753 N   0  0  0  0  0  0  0  0  0  0  0  0
   -0.0912    0.7524    0.9139 C   0  0  0  0  0  0  0  0  0  0  0  0
   -0.8742    1.2557    1.7113 O   0  0  0  0  0  0  0  0  0  0  0  0
    1.3702    0.8152    1.2334 C   0  0  0  0  0  0  0  0  0  0  0  0
    1.8056    1.8251    2.1085 C   0  0  0  0  0  0  0  0  0  0  0  0
    3.1545    1.9452    2.4543 C   0  0  0  0  0  0  0  0  0  0  0  0
    4.0872    1.0580    1.9252 C   0  0  0  0  0  0  0  0  0  0  0  0
    3.6571    0.0514    1.0564 C   0  0  0  0  0  0  0  0  0  0  0  0
    4.8634   -1.0662    0.3729 S   0  0  0  0  0  6  0  0  0  0  0  0
    5.5419   -1.6701    1.4988 O   0  0  0  0  0  0  0  0  0  0  0  0
    4.1843   -1.8725   -0.6235 O   0  0  0  0  0  0  0  0  0  0  0  0
    5.9255    0.0034   -0.4461 N   0  0  0  0  0  0  0  0  0  0  0  0
    5.3339    0.7182   -1.6030 C   0  0  0  0  0  0  0  0  0  0  0  0
    7.2331   -0.5418   -0.7146 C   0  0  0  0  0  0  0  0  0  0  0  0
    8.3407    0.2316   -0.3590 C   0  0  0  0  0  0  0  0  0  0  0  0
    9.6297   -0.2019   -0.6720 C   0  0  0  0  0  0  0  0  0  0  0  0
    9.8125   -1.3999   -1.3614 C   0  0  0  0  0  0  0  0  0  0  0  0
    8.7079   -2.1593   -1.7458 C   0  0  0  0  0  0  0  0  0  0  0  0
    7.4176   -1.7255   -1.4351 C   0  0  0  0  0  0  0  0  0  0  0  0
    2.3050   -0.0898    0.7183 C   0  0  0  0  0  0  0  0  0  0  0  0
   -2.8645    0.6147   -0.3146 C   0  0  0  0  0  0  0  0  0  0  0  0
   -4.1196    0.4204   -0.9210 C   0  0  0  0  0  0  0  0  0  0  0  0
   -5.5156    1.3043   -0.2375 S   0  0  0  0  0  6  0  0  0  0  0  0
   -5.0522    2.1902    0.8099 O   0  0  0  0  0  0  0  0  0  0  0  0
   -6.3017    1.8198   -1.3385 O   0  0  0  0  0  0  0  0  0  0  0  0
   -6.4122    0.0661    0.5234 N   0  0  0  0  0  0  0  0  0  0  0  0
   -5.7543   -0.5740    1.7126 C   0  0  0  0  0  0  0  0  0  0  0  0
   -6.3855   -0.0862    3.0195 C   0  0  0  0  0  0  0  0  0  0  0  0
   -7.7780   -0.4202    3.1251 O   0  0  0  0  0  0  0  0  0  0  0  0
   -8.4489   -0.4611    1.8574 C   0  0  0  0  0  0  0  0  0  0  0  0
   -7.8273    0.4733    0.8164 C   0  0  0  0  0  0  0  0  0  0  0  0
   -6.3607   -0.8738   -2.0522 H   0  0  0  0  0  0  0  0  0  0  0  0
   -5.8257    0.2223   -3.3653 H   0  0  0  0  0  0  0  0  0  0  0  0
   -5.4884   -1.5106   -3.4304 H   0  0  0  0  0  0  0  0  0  0  0  0
   -3.1535   -1.6408   -3.4506 H   0  0  0  0  0  0  0  0  0  0  0  0
   -0.9841   -1.3017   -2.3964 H   0  0  0  0  0  0  0  0  0  0  0  0
    0.3085   -0.2722   -0.8312 H   0  0  0  0  0  0  0  0  0  0  0  0
    1.0857    2.5258    2.5313 H   0  0  0  0  0  0  0  0  0  0  0  0
    3.4704    2.7285    3.1397 H   0  0  0  0  0  0  0  0  0  0  0  0
    5.1378    1.1451    2.1954 H   0  0  0  0  0  0  0  0  0  0  0  0
    4.4672    1.3077   -1.2925 H   0  0  0  0  0  0  0  0  0  0  0  0
    6.0603    1.4227   -2.0256 H   0  0  0  0  0  0  0  0  0  0  0  0
    5.0340    0.0199   -2.3905 H   0  0  0  0  0  0  0  0  0  0  0  0
    8.2029    1.1695    0.1710 H   0  0  0  0  0  0  0  0  0  0  0  0
   10.4895    0.3950   -0.3796 H   0  0  0  0  0  0  0  0  0  0  0  0
   10.8162   -1.7405   -1.6027 H   0  0  0  0  0  0  0  0  0  0  0  0
    8.8503   -3.0888   -2.2915 H   0  0  0  0  0  0  0  0  0  0  0  0
    6.5696   -2.3222   -1.7607 H   0  0  0  0  0  0  0  0  0  0  0  0
    2.0040   -0.9196    0.0869 H   0  0  0  0  0  0  0  0  0  0  0  0
   -2.7972    1.2740    0.5454 H   0  0  0  0  0  0  0  0  0  0  0  0
   -4.6776   -0.3875    1.7279 H   0  0  0  0  0  0  0  0  0  0  0  0
   -5.8908   -1.6565    1.6088 H   0  0  0  0  0  0  0  0  0  0  0  0
   -6.2901    1.0006    3.1199 H   0  0  0  0  0  0  0  0  0  0  0  0
   -5.8770   -0.5399    3.8764 H   0  0  0  0  0  0  0  0  0  0  0  0
   -9.4952   -0.1910    2.0319 H   0  0  0  0  0  0  0  0  0  0  0  0
   -8.4325   -1.4989    1.5041 H   0  0  0  0  0  0  0  0  0  0  0  0
   -7.8483    1.5016    1.1954 H   0  0  0  0  0  0  0  0  0  0  0  0
   -8.4049    0.4220   -0.1118 H   0  0  0  0  0  0  0  0  0  0  0  0
  1  2  1  0
  2  3  2  0
  3  4  1  0
  4  5  2  0
  5  6  1  0
  6  7  1  0
  7  8  2  0
  7  9  1  0
  9 10  2  0
 10 11  1  0
 11 12  2  0
 12 13  1  0
 13 14  1  0
 14 15  2  0
 14 16  2  0
 14 17  1  0
 17 18  1  0
 17 19  1  0
 19 20  2  0
 20 21  1  0
 21 22  2  0
 22 23  1  0
 23 24  2  0
 13 25  2  0
  5 26  1  0
 26 27  2  0
 27 28  1  0
 28 29  2  0
 28 30  2  0
 28 31  1  0
 31 32  1  0
 32 33  1  0
 33 34  1  0
 34 35  1  0
 35 36  1  0
 27  2  1  0
 36 31  1  0
 25  9  1  0
 24 19  1  0
  1 37  1  0
  1 38  1  0
  1 39  1  0
  3 40  1  0
  4 41  1  0
  6 42  1  0
 10 43  1  0
 11 44  1  0
 12 45  1  0
 18 46  1  0
 18 47  1  0
 18 48  1  0
 20 49  1  0
 21 50  1  0
 22 51  1  0
 23 52  1  0
 24 53  1  0
 25 54  1  0
 26 55  1  0
 32 56  1  0
 32 57  1  0
 33 58  1  0
 33 59  1  0
 35 60  1  0
 35 61  1  0
 36 62  1  0
 36 63  1  0
M  END
$$$$
