
     RDKit          3D

 52 57  0  0  0  0  0  0  0  0999 V2000
    4.9614   -2.5154   -0.3967 C   0  0  0  0  0  0  0  0  0  0  0  0
    3.8755   -1.8441    0.3888 C   0  0  0  0  0  0  0  0  0  0  0  0
    3.7113   -2.0778    1.7680 C   0  0  0  0  0  0  0  0  0  0  0  0
    4.7607   -3.1558    2.6250 Cl  0  0  0  0  0  0  0  0  0  0  0  0
    2.6954   -1.4438    2.5112 C   0  0  0  0  0  0  0  0  0  0  0  0
    1.8094   -0.5577    1.8989 C   0  0  0  0  0  0  0  0  0  0  0  0
    1.9575   -0.3250    0.5416 C   0  0  0  0  0  0  0  0  0  0  0  0
    2.9783   -0.9538   -0.1887 C   0  0  0  0  0  0  0  0  0  0  0  0
    2.9311   -0.5319   -1.5181 N   0  0  0  0  0  0  0  0  0  0  0  0
    1.8921    0.3755   -1.7389 C   0  0  0  0  0  0  0  0  0  0  0  0
    1.6516    0.9134   -2.8103 O   0  0  0  0  0  0  0  0  0  0  0  0
    1.1758    0.5634   -0.3798 C   0  0  1  0  0  0  0  0  0  0  0  0
   -0.2457    0.1371   -0.4050 C   0  0  0  0  0  0  0  0  0  0  0  0
   -1.0936    1.2568   -0.3945 C   0  0  0  0  0  0  0  0  0  0  0  0
   -2.3930    0.8283   -0.4506 C   0  0  0  0  0  0  0  0  0  0  0  0
   -3.5253    1.5264   -0.4523 O   0  0  0  0  0  0  0  0  0  0  0  0
   -2.3628   -0.5824   -0.4395 N   0  0  0  0  0  0  0  0  0  0  0  0
   -3.4928   -1.4570   -0.3461 C   0  0  0  0  0  0  0  0  0  0  0  0
   -3.3747   -2.6882    0.3187 C   0  0  0  0  0  0  0  0  0  0  0  0
   -4.4712   -3.5489    0.4112 C   0  0  0  0  0  0  0  0  0  0  0  0
   -5.6924   -3.1874   -0.1522 C   0  0  0  0  0  0  0  0  0  0  0  0
   -5.8219   -1.9613   -0.8010 C   0  0  0  0  0  0  0  0  0  0  0  0
   -4.7290   -1.0948   -0.8943 C   0  0  0  0  0  0  0  0  0  0  0  0
   -1.0132   -0.9892   -0.5205 C   0  0  0  0  0  0  0  0  0  0  0  0
   -0.6068   -2.2404   -0.7323 O   0  0  0  0  0  0  0  0  0  0  0  0
   -0.2878    2.4974   -0.3887 C   0  0  1  0  0  0  0  0  0  0  0  0
   -0.7070    3.6442    0.5504 C   0  0  0  0  0  0  0  0  0  0  0  0
    0.4361    4.3964    1.1453 N   0  0  0  0  0  0  0  0  0  0  0  0
    1.6002    4.3705    0.2242 C   0  0  0  0  0  0  0  0  0  0  0  0
    2.0941    2.9326   -0.1332 C   0  0  0  0  0  0  0  0  0  0  0  0
    1.0277    1.9659    0.0690 N   0  0  0  0  0  0  0  0  0  0  0  0
    5.9441   -2.2137   -0.0195 H   0  0  0  0  0  0  0  0  0  0  0  0
    4.8638   -3.6039   -0.3290 H   0  0  0  0  0  0  0  0  0  0  0  0
    4.9299   -2.2595   -1.4592 H   0  0  0  0  0  0  0  0  0  0  0  0
    2.5937   -1.6447    3.5755 H   0  0  0  0  0  0  0  0  0  0  0  0
    1.0235   -0.0688    2.4666 H   0  0  0  0  0  0  0  0  0  0  0  0
    3.5456   -0.8292   -2.2596 H   0  0  0  0  0  0  0  0  0  0  0  0
   -3.2991    2.4716   -0.4229 H   0  0  0  0  0  0  0  0  0  0  0  0
   -2.4530   -2.9771    0.8200 H   0  0  0  0  0  0  0  0  0  0  0  0
   -4.3757   -4.4953    0.9379 H   0  0  0  0  0  0  0  0  0  0  0  0
   -6.5465   -3.8556   -0.0772 H   0  0  0  0  0  0  0  0  0  0  0  0
   -6.7756   -1.6758   -1.2380 H   0  0  0  0  0  0  0  0  0  0  0  0
   -4.8624   -0.1585   -1.4290 H   0  0  0  0  0  0  0  0  0  0  0  0
   -1.3415   -2.7418   -1.1307 H   0  0  0  0  0  0  0  0  0  0  0  0
   -0.2007    2.8687   -1.4199 H   0  0  0  0  0  0  0  0  0  0  0  0
   -1.3328    4.3514   -0.0068 H   0  0  0  0  0  0  0  0  0  0  0  0
   -1.3243    3.2710    1.3768 H   0  0  0  0  0  0  0  0  0  0  0  0
    0.7246    3.8559    1.9652 H   0  0  0  0  0  0  0  0  0  0  0  0
    2.4235    4.9317    0.6798 H   0  0  0  0  0  0  0  0  0  0  0  0
    1.3261    4.9037   -0.6949 H   0  0  0  0  0  0  0  0  0  0  0  0
    2.9349    2.6735    0.5201 H   0  0  0  0  0  0  0  0  0  0  0  0
    2.4606    2.9435   -1.1653 H   0  0  0  0  0  0  0  0  0  0  0  0
  1  2  1  0
  2  3  2  0
  3  4  1  0
  3  5  1  0
  5  6  2  0
  6  7  1  0
  7  8  2  0
  8  9  1  0
  9 10  1  0
 10 11  2  0
 10 12  1  0
 12 13  1  0
 13 14  1  0
 14 15  2  0
 15 16  1  0
 15 17  1  0
 17 18  1  0
 18 19  2  0
 19 20  1  0
 20 21  2  0
 21 22  1  0
 22 23  2  0
 17 24  1  0
 24 25  1  0
 14 26  1  0
 26 27  1  0
 27 28  1  0
 28 29  1  0
 29 30  1  0
 30 31  1  0
  8  2  1  0
 12 31  1  1
 12  7  1  0
 24 13  2  0
 31 26  1  0
 23 18  1  0
  1 32  1  0
  1 33  1  0
  1 34  1  0
  5 35  1  0
  6 36  1  0
  9 37  1  0
 16 38  1  0
 19 39  1  0
 20 40  1  0
 21 41  1  0
 22 42  1  0
 23 43  1  0
 25 44  1  0
 26 45  1  6
 27 46  1  0
 27 47  1  0
 28 48  1  0
 29 49  1  0
 29 50  1  0
 30 51  1  0
 30 52  1  0
M  END
$$$$
