
     RDKit          3D

 57 59  0  0  0  0  0  0  0  0999 V2000
   -9.5655    1.1778   -1.8674 C   0  0  0  0  0  0  0  0  0  0  0  0
   -8.3723    1.9030   -1.5978 O   0  0  0  0  0  0  0  0  0  0  0  0
   -7.1998    1.1996   -1.6239 C   0  0  0  0  0  0  0  0  0  0  0  0
   -7.0742   -0.1779   -1.8208 C   0  0  0  0  0  0  0  0  0  0  0  0
   -5.8102   -0.7776   -1.8154 C   0  0  0  0  0  0  0  0  0  0  0  0
   -4.6740    0.0086   -1.6080 C   0  0  0  0  0  0  0  0  0  0  0  0
   -3.0638   -0.7375   -1.5757 S   0  0  0  0  0  6  0  0  0  0  0  0
   -3.2117   -2.1519   -1.8449 O   0  0  0  0  0  0  0  0  0  0  0  0
   -2.1857    0.0910   -2.3696 O   0  0  0  0  0  0  0  0  0  0  0  0
   -2.6250   -0.5750    0.0325 N   0  0  0  0  0  0  0  0  0  0  0  0
   -3.4279   -1.2431    1.0584 C   0  0  0  0  0  0  0  0  0  0  0  0
   -2.5586   -1.0548    2.2787 C   0  0  0  0  0  0  0  0  0  0  0  0
   -1.2225   -1.2114    1.7971 O   0  0  0  0  0  0  0  0  0  0  0  0
   -1.2090   -0.8036    0.4021 C   0  0  0  0  0  0  0  0  0  0  0  0
   -0.4721   -1.9118   -0.3899 C   0  0  0  0  0  0  0  0  0  0  0  0
    0.8491   -2.2143    0.1388 N   0  0  0  0  0  0  0  0  0  0  0  0
    1.8828   -1.3109    0.0510 C   0  0  0  0  0  0  0  0  0  0  0  0
    1.8662   -0.2672   -0.5855 O   0  0  0  0  0  0  0  0  0  0  0  0
    3.1285   -1.7076    0.8775 C   0  0  0  0  0  0  0  0  0  0  0  0
    3.1565   -2.7772    1.4708 O   0  0  0  0  0  0  0  0  0  0  0  0
    4.1257   -0.7650    0.8523 N   0  0  0  0  0  0  0  0  0  0  0  0
    5.4479   -1.0504    1.3469 C   0  0  0  0  0  0  0  0  0  0  0  0
    6.2161    0.2198    1.6089 C   0  0  0  0  0  0  0  0  0  0  0  0
    6.3469    0.6819    2.9299 C   0  0  0  0  0  0  0  0  0  0  0  0
    7.0402    1.8586    3.2057 C   0  0  0  0  0  0  0  0  0  0  0  0
    7.6049    2.5886    2.1645 C   0  0  0  0  0  0  0  0  0  0  0  0
    7.4712    2.1493    0.8446 C   0  0  0  0  0  0  0  0  0  0  0  0
    6.7739    0.9712    0.5565 C   0  0  0  0  0  0  0  0  0  0  0  0
    6.5772    0.4683   -0.7033 O   0  0  0  0  0  0  0  0  0  0  0  0
    7.0262    1.2561   -1.7999 C   0  0  0  0  0  0  0  0  0  0  0  0
   -4.7860    1.3876   -1.4237 C   0  0  0  0  0  0  0  0  0  0  0  0
   -6.0516    1.9755   -1.4283 C   0  0  0  0  0  0  0  0  0  0  0  0
   -9.5393    0.7312   -2.8670 H   0  0  0  0  0  0  0  0  0  0  0  0
   -9.7474    0.4191   -1.0993 H   0  0  0  0  0  0  0  0  0  0  0  0
  -10.3998    1.8854   -1.8405 H   0  0  0  0  0  0  0  0  0  0  0  0
   -7.9399   -0.8139   -1.9777 H   0  0  0  0  0  0  0  0  0  0  0  0
   -5.7251   -1.8507   -1.9736 H   0  0  0  0  0  0  0  0  0  0  0  0
   -4.4107   -0.7863    1.1953 H   0  0  0  0  0  0  0  0  0  0  0  0
   -3.5379   -2.3092    0.8291 H   0  0  0  0  0  0  0  0  0  0  0  0
   -2.6556   -0.0450    2.6933 H   0  0  0  0  0  0  0  0  0  0  0  0
   -2.7640   -1.7839    3.0669 H   0  0  0  0  0  0  0  0  0  0  0  0
   -0.6674    0.1465    0.3482 H   0  0  0  0  0  0  0  0  0  0  0  0
   -0.3501   -1.6284   -1.4398 H   0  0  0  0  0  0  0  0  0  0  0  0
   -1.0322   -2.8514   -0.3419 H   0  0  0  0  0  0  0  0  0  0  0  0
    0.9482   -2.9310    0.8533 H   0  0  0  0  0  0  0  0  0  0  0  0
    4.0167   -0.0175    0.1731 H   0  0  0  0  0  0  0  0  0  0  0  0
    5.9665   -1.6737    0.6091 H   0  0  0  0  0  0  0  0  0  0  0  0
    5.3699   -1.6552    2.2582 H   0  0  0  0  0  0  0  0  0  0  0  0
    5.9028    0.1233    3.7517 H   0  0  0  0  0  0  0  0  0  0  0  0
    7.1377    2.2053    4.2314 H   0  0  0  0  0  0  0  0  0  0  0  0
    8.1477    3.5061    2.3787 H   0  0  0  0  0  0  0  0  0  0  0  0
    7.9243    2.7521    0.0644 H   0  0  0  0  0  0  0  0  0  0  0  0
    6.7501    0.7335   -2.7215 H   0  0  0  0  0  0  0  0  0  0  0  0
    6.5347    2.2343   -1.8118 H   0  0  0  0  0  0  0  0  0  0  0  0
    8.1160    1.3593   -1.7898 H   0  0  0  0  0  0  0  0  0  0  0  0
   -3.9011    2.0019   -1.2743 H   0  0  0  0  0  0  0  0  0  0  0  0
   -6.1473    3.0486   -1.2793 H   0  0  0  0  0  0  0  0  0  0  0  0
  1  2  1  0
  2  3  1  0
  3  4  2  0
  4  5  1  0
  5  6  2  0
  6  7  1  0
  7  8  2  0
  7  9  2  0
  7 10  1  0
 10 11  1  0
 11 12  1  0
 12 13  1  0
 13 14  1  0
 14 15  1  0
 15 16  1  0
 16 17  1  0
 17 18  2  0
 17 19  1  0
 19 20  2  0
 19 21  1  0
 21 22  1  0
 22 23  1  0
 23 24  2  0
 24 25  1  0
 25 26  2  0
 26 27  1  0
 27 28  2  0
 28 29  1  0
 29 30  1  0
  6 31  1  0
 31 32  2  0
 32  3  1  0
 14 10  1  0
 28 23  1  0
  1 33  1  0
  1 34  1  0
  1 35  1  0
  4 36  1  0
  5 37  1  0
 11 38  1  0
 11 39  1  0
 12 40  1  0
 12 41  1  0
 14 42  1  0
 15 43  1  0
 15 44  1  0
 16 45  1  0
 21 46  1  0
 22 47  1  0
 22 48  1  0
 24 49  1  0
 25 50  1  0
 26 51  1  0
 27 52  1  0
 30 53  1  0
 30 54  1  0
 30 55  1  0
 31 56  1  0
 32 57  1  0
M  END
$$$$
