
     RDKit          3D

 50 53  0  0  0  0  0  0  0  0999 V2000
    8.9312    0.7589    1.4695 C   0  0  0  0  0  0  0  0  0  0  0  0
    7.6894    0.0657    0.9359 C   0  0  0  0  0  0  0  0  0  0  0  0
    6.5442    0.6939    1.5270 O   0  0  0  0  0  0  0  0  0  0  0  0
    5.4380    0.6006    0.7305 C   0  0  0  0  0  0  0  0  0  0  0  0
    5.3334    1.4377   -0.3819 C   0  0  0  0  0  0  0  0  0  0  0  0
    4.1730    1.4250   -1.1626 C   0  0  0  0  0  0  0  0  0  0  0  0
    3.0920    0.5990   -0.8207 C   0  0  0  0  0  0  0  0  0  0  0  0
    1.8867    0.6142   -1.6959 C   0  0  0  0  0  0  0  0  0  0  0  0
    2.0614    0.7722   -2.8977 O   0  0  0  0  0  0  0  0  0  0  0  0
    0.6795    0.4664   -1.0380 N   0  0  0  0  0  0  0  0  0  0  0  0
   -0.6078    0.4156   -1.6186 C   0  0  0  0  0  0  0  0  0  0  0  0
   -0.8462    0.4658   -2.9920 C   0  0  0  0  0  0  0  0  0  0  0  0
   -2.1517    0.4199   -3.4866 C   0  0  0  0  0  0  0  0  0  0  0  0
   -3.2315    0.3130   -2.6116 C   0  0  0  0  0  0  0  0  0  0  0  0
   -3.0177    0.2436   -1.2282 C   0  0  0  0  0  0  0  0  0  0  0  0
   -4.1573    0.1137   -0.2933 C   0  0  0  0  0  0  0  0  0  0  0  0
   -5.0182   -0.9050   -0.4616 C   0  0  0  0  0  0  0  0  0  0  0  0
   -6.1547   -1.0753    0.4281 C   0  0  0  0  0  0  0  0  0  0  0  0
   -7.0712   -2.1181    0.2726 C   0  0  0  0  0  0  0  0  0  0  0  0
   -8.1526   -2.2368    1.1518 C   0  0  0  0  0  0  0  0  0  0  0  0
   -8.3215   -1.3155    2.1882 C   0  0  0  0  0  0  0  0  0  0  0  0
   -7.4092   -0.2744    2.3500 C   0  0  0  0  0  0  0  0  0  0  0  0
   -6.3377   -0.1695    1.4662 C   0  0  0  0  0  0  0  0  0  0  0  0
   -5.4368    0.8912    1.6615 O   0  0  0  0  0  0  0  0  0  0  0  0
   -4.3369    1.0818    0.8301 C   0  0  0  0  0  0  0  0  0  0  0  0
   -3.5557    2.0067    1.0270 O   0  0  0  0  0  0  0  0  0  0  0  0
   -1.6999    0.3013   -0.7451 C   0  0  0  0  0  0  0  0  0  0  0  0
    3.1817   -0.2350    0.2979 C   0  0  0  0  0  0  0  0  0  0  0  0
    4.3562   -0.2159    1.0653 C   0  0  0  0  0  0  0  0  0  0  0  0
    4.4164   -1.0749    2.2322 N   0  0  0  0  0  4  0  0  0  0  0  0
    5.3581   -1.8742    2.3102 O   0  0  0  0  0  0  0  0  0  0  0  0
    3.4768   -0.9880    3.0363 O   0  0  0  0  0  1  0  0  0  0  0  0
    9.8384    0.3082    1.0574 H   0  0  0  0  0  0  0  0  0  0  0  0
    8.9148    1.8225    1.2050 H   0  0  0  0  0  0  0  0  0  0  0  0
    8.9704    0.6982    2.5633 H   0  0  0  0  0  0  0  0  0  0  0  0
    7.7037   -0.9907    1.2287 H   0  0  0  0  0  0  0  0  0  0  0  0
    7.6827    0.1248   -0.1614 H   0  0  0  0  0  0  0  0  0  0  0  0
    6.1474    2.1118   -0.6408 H   0  0  0  0  0  0  0  0  0  0  0  0
    4.1069    2.0728   -2.0355 H   0  0  0  0  0  0  0  0  0  0  0  0
    0.6941    0.4706   -0.0262 H   0  0  0  0  0  0  0  0  0  0  0  0
   -0.0373    0.5500   -3.7109 H   0  0  0  0  0  0  0  0  0  0  0  0
   -2.3222    0.4733   -4.5594 H   0  0  0  0  0  0  0  0  0  0  0  0
   -4.2390    0.2936   -3.0215 H   0  0  0  0  0  0  0  0  0  0  0  0
   -4.8926   -1.6326   -1.2578 H   0  0  0  0  0  0  0  0  0  0  0  0
   -6.9576   -2.8446   -0.5284 H   0  0  0  0  0  0  0  0  0  0  0  0
   -8.8660   -3.0486    1.0275 H   0  0  0  0  0  0  0  0  0  0  0  0
   -9.1641   -1.4111    2.8688 H   0  0  0  0  0  0  0  0  0  0  0  0
   -7.5323    0.4462    3.1534 H   0  0  0  0  0  0  0  0  0  0  0  0
   -1.5301    0.2615    0.3297 H   0  0  0  0  0  0  0  0  0  0  0  0
    2.3712   -0.9092    0.5617 H   0  0  0  0  0  0  0  0  0  0  0  0
  1  2  1  0
  2  3  1  0
  3  4  1  0
  4  5  2  0
  5  6  1  0
  6  7  2  0
  7  8  1  0
  8  9  2  0
  8 10  1  0
 10 11  1  0
 11 12  2  0
 12 13  1  0
 13 14  2  0
 14 15  1  0
 15 16  1  0
 16 17  2  0
 17 18  1  0
 18 19  2  0
 19 20  1  0
 20 21  2  0
 21 22  1  0
 22 23  2  0
 23 24  1  0
 24 25  1  0
 25 26  2  0
 15 27  2  0
  7 28  1  0
 28 29  2  0
 29 30  1  0
 30 31  2  0
 30 32  1  0
 29  4  1  0
 27 11  1  0
 25 16  1  0
 23 18  1  0
  1 33  1  0
  1 34  1  0
  1 35  1  0
  2 36  1  0
  2 37  1  0
  5 38  1  0
  6 39  1  0
 10 40  1  0
 12 41  1  0
 13 42  1  0
 14 43  1  0
 17 44  1  0
 19 45  1  0
 20 46  1  0
 21 47  1  0
 22 48  1  0
 27 49  1  0
 28 50  1  0
M  CHG  2  30   1  32  -1
M  END
$$$$
