
     RDKit          3D

 56 61  0  0  0  0  0  0  0  0999 V2000
    8.2791    3.1588   -0.6720 C   0  0  0  0  0  0  0  0  0  0  0  0
    8.7445    1.9450   -0.0852 O   0  0  0  0  0  0  0  0  0  0  0  0
    7.8344    0.9335    0.0466 C   0  0  0  0  0  0  0  0  0  0  0  0
    8.3613   -0.2645    0.5270 C   0  0  0  0  0  0  0  0  0  0  0  0
    7.5352   -1.3737    0.7112 C   0  0  0  0  0  0  0  0  0  0  0  0
    6.1654   -1.2850    0.4225 C   0  0  0  0  0  0  0  0  0  0  0  0
    5.3174   -2.3862    0.6169 C   0  0  0  0  0  0  0  0  0  0  0  0
    3.9578   -2.2194    0.3281 C   0  0  0  0  0  0  0  0  0  0  0  0
    2.7929   -3.0238    0.3803 C   0  0  0  0  0  0  0  0  0  0  0  0
    1.7357   -2.2195   -0.0174 C   0  0  0  0  0  0  0  0  0  0  0  0
    0.3287   -2.5446   -0.1676 C   0  0  0  0  0  0  0  0  0  0  0  0
   -0.0258   -3.7091   -0.3550 O   0  0  0  0  0  0  0  0  0  0  0  0
   -0.6196   -1.5080   -0.0910 N   0  0  0  0  0  0  0  0  0  0  0  0
   -2.0139   -1.8984   -0.3066 C   0  0  0  0  0  0  0  0  0  0  0  0
   -2.9410   -0.6955   -0.5611 C   0  0  0  0  0  0  0  0  0  0  0  0
   -2.8179    0.3261    0.5003 N   0  0  0  0  0  0  0  0  0  0  0  0
   -3.7025    1.4760    0.2536 C   0  0  0  0  0  0  0  0  0  0  0  0
   -5.1756    1.1613    0.4274 C   0  0  0  0  0  0  0  0  0  0  0  0
   -5.6304    0.4130    1.5411 C   0  0  0  0  0  0  0  0  0  0  0  0
   -6.9897    0.1463    1.7300 C   0  0  0  0  0  0  0  0  0  0  0  0
   -7.8746    0.6582    0.8063 C   0  0  0  0  0  0  0  0  0  0  0  0
   -7.4485    1.4003   -0.2714 C   0  0  0  0  0  0  0  0  0  0  0  0
   -6.1134    1.6694   -0.4899 C   0  0  0  0  0  0  0  0  0  0  0  0
   -8.4795    1.8216   -1.0538 O   0  0  0  0  0  0  0  0  0  0  0  0
   -9.6044    1.2941   -0.3199 C   0  0  0  0  0  0  0  0  0  0  0  0
   -9.2263    0.5134    0.8350 O   0  0  0  0  0  0  0  0  0  0  0  0
   -1.4099    0.7669    0.5765 C   0  0  0  0  0  0  0  0  0  0  0  0
   -0.4560   -0.4035    0.8625 C   0  0  0  0  0  0  0  0  0  0  0  0
    2.2077   -0.9799   -0.3655 O   0  0  0  0  0  0  0  0  0  0  0  0
    3.5499   -0.9739   -0.1406 C   0  0  0  0  0  0  0  0  0  0  0  0
    4.3192    0.1045   -0.3526 N   0  0  0  0  0  0  0  0  0  0  0  0
    5.6159   -0.0704   -0.0629 C   0  0  0  0  0  0  0  0  0  0  0  0
    6.4691    1.0122   -0.2445 C   0  0  0  0  0  0  0  0  0  0  0  0
    9.1240    3.8506   -0.7318 H   0  0  0  0  0  0  0  0  0  0  0  0
    7.9129    2.9875   -1.6924 H   0  0  0  0  0  0  0  0  0  0  0  0
    7.5124    3.6313   -0.0482 H   0  0  0  0  0  0  0  0  0  0  0  0
    9.4201   -0.3323    0.7616 H   0  0  0  0  0  0  0  0  0  0  0  0
    7.9673   -2.2978    1.0885 H   0  0  0  0  0  0  0  0  0  0  0  0
    5.6915   -3.3351    0.9887 H   0  0  0  0  0  0  0  0  0  0  0  0
    2.7086   -4.0590    0.6815 H   0  0  0  0  0  0  0  0  0  0  0  0
   -2.0707   -2.5835   -1.1615 H   0  0  0  0  0  0  0  0  0  0  0  0
   -2.3452   -2.4514    0.5830 H   0  0  0  0  0  0  0  0  0  0  0  0
   -3.9684   -1.0727   -0.6155 H   0  0  0  0  0  0  0  0  0  0  0  0
   -2.7009   -0.2571   -1.5386 H   0  0  0  0  0  0  0  0  0  0  0  0
   -3.4776    2.2723    0.9756 H   0  0  0  0  0  0  0  0  0  0  0  0
   -3.5175    1.8947   -0.7435 H   0  0  0  0  0  0  0  0  0  0  0  0
   -4.9084    0.0320    2.2614 H   0  0  0  0  0  0  0  0  0  0  0  0
   -7.3369   -0.4377    2.5751 H   0  0  0  0  0  0  0  0  0  0  0  0
   -5.8093    2.2639   -1.3450 H   0  0  0  0  0  0  0  0  0  0  0  0
  -10.1993    0.6686   -0.9939 H   0  0  0  0  0  0  0  0  0  0  0  0
  -10.2221    2.1353    0.0170 H   0  0  0  0  0  0  0  0  0  0  0  0
   -1.1115    1.2523   -0.3601 H   0  0  0  0  0  0  0  0  0  0  0  0
   -1.2945    1.5003    1.3810 H   0  0  0  0  0  0  0  0  0  0  0  0
    0.5662   -0.0267    0.8783 H   0  0  0  0  0  0  0  0  0  0  0  0
   -0.6530   -0.8125    1.8613 H   0  0  0  0  0  0  0  0  0  0  0  0
    6.0269    1.9319   -0.6154 H   0  0  0  0  0  0  0  0  0  0  0  0
  1  2  1  0
  2  3  1  0
  3  4  2  0
  4  5  1  0
  5  6  2  0
  6  7  1  0
  7  8  2  0
  8  9  1  0
  9 10  2  0
 10 11  1  0
 11 12  2  0
 11 13  1  0
 13 14  1  0
 14 15  1  0
 15 16  1  0
 16 17  1  0
 17 18  1  0
 18 19  2  0
 19 20  1  0
 20 21  2  0
 21 22  1  0
 22 23  2  0
 22 24  1  0
 24 25  1  0
 25 26  1  0
 16 27  1  0
 27 28  1  0
 10 29  1  0
 29 30  1  0
 30 31  2  0
 31 32  1  0
 32 33  2  0
 33  3  1  0
 32  6  1  0
 30  8  1  0
 28 13  1  0
 23 18  1  0
 26 21  1  0
  1 34  1  0
  1 35  1  0
  1 36  1  0
  4 37  1  0
  5 38  1  0
  7 39  1  0
  9 40  1  0
 14 41  1  0
 14 42  1  0
 15 43  1  0
 15 44  1  0
 17 45  1  0
 17 46  1  0
 19 47  1  0
 20 48  1  0
 23 49  1  0
 25 50  1  0
 25 51  1  0
 27 52  1  0
 27 53  1  0
 28 54  1  0
 28 55  1  0
 33 56  1  0
M  END
$$$$
