
     RDKit          3D

 39 42  0  0  0  0  0  0  0  0999 V2000
    6.0335    0.4996   -0.7372 C   0  0  0  0  0  0  0  0  0  0  0  0
    5.8566   -0.1295    0.5072 C   0  0  0  0  0  0  0  0  0  0  0  0
    4.5882   -0.5409    0.9300 C   0  0  0  0  0  0  0  0  0  0  0  0
    3.5093   -0.3135    0.0924 C   0  0  0  0  0  0  0  0  0  0  0  0
    3.6942    0.3191   -1.1565 C   0  0  0  0  0  0  0  0  0  0  0  0
    4.9464    0.7295   -1.5827 C   0  0  0  0  0  0  0  0  0  0  0  0
    2.3690    0.4513   -1.8794 C   0  0  0  0  0  0  0  0  0  0  0  0
    1.4095   -0.1827   -0.8933 C   0  0  0  0  0  0  0  0  0  0  0  0
    0.0394   -0.3454   -1.0183 C   0  0  0  0  0  0  0  0  0  0  0  0
   -0.6622   -0.9601    0.0318 C   0  0  0  0  0  0  0  0  0  0  0  0
   -2.1615   -1.1613   -0.0710 C   0  0  0  0  0  0  0  0  0  0  0  0
   -2.9093    0.0964   -0.2253 N   0  0  0  0  0  0  0  0  0  0  0  0
   -2.7572    0.9690    0.9626 C   0  0  0  0  0  0  0  0  0  0  0  0
   -3.9297    1.9505    1.1061 C   0  0  0  0  0  0  0  0  0  0  0  0
   -5.1814    1.2850    1.3290 O   0  0  0  0  0  0  0  0  0  0  0  0
   -5.2424   -0.0139    0.7252 C   0  0  0  0  0  0  0  0  0  0  0  0
   -4.3389   -0.1499   -0.5101 C   0  0  0  0  0  0  0  0  0  0  0  0
    0.0386   -1.3991    1.1780 C   0  0  0  0  0  0  0  0  0  0  0  0
    1.4238   -1.2306    1.2936 C   0  0  0  0  0  0  0  0  0  0  0  0
    2.1036   -0.6210    0.2538 C   0  0  0  0  0  0  0  0  0  0  0  0
    7.0297    0.8104   -1.0435 H   0  0  0  0  0  0  0  0  0  0  0  0
    6.7181   -0.2981    1.1492 H   0  0  0  0  0  0  0  0  0  0  0  0
    4.4625   -1.0253    1.8920 H   0  0  0  0  0  0  0  0  0  0  0  0
    5.0830    1.2152   -2.5430 H   0  0  0  0  0  0  0  0  0  0  0  0
    2.3836   -0.1081   -2.8194 H   0  0  0  0  0  0  0  0  0  0  0  0
    2.1194    1.5041   -2.0400 H   0  0  0  0  0  0  0  0  0  0  0  0
   -0.4848    0.0034   -1.9034 H   0  0  0  0  0  0  0  0  0  0  0  0
   -2.5320   -1.7277    0.7937 H   0  0  0  0  0  0  0  0  0  0  0  0
   -2.3267   -1.8003   -0.9490 H   0  0  0  0  0  0  0  0  0  0  0  0
   -1.8225    1.5344    0.8811 H   0  0  0  0  0  0  0  0  0  0  0  0
   -2.7117    0.3655    1.8789 H   0  0  0  0  0  0  0  0  0  0  0  0
   -4.0275    2.5795    0.2134 H   0  0  0  0  0  0  0  0  0  0  0  0
   -3.7596    2.6185    1.9566 H   0  0  0  0  0  0  0  0  0  0  0  0
   -6.2859   -0.1961    0.4488 H   0  0  0  0  0  0  0  0  0  0  0  0
   -4.9738   -0.7564    1.4857 H   0  0  0  0  0  0  0  0  0  0  0  0
   -4.6495    0.6022   -1.2464 H   0  0  0  0  0  0  0  0  0  0  0  0
   -4.4964   -1.1247   -0.9865 H   0  0  0  0  0  0  0  0  0  0  0  0
   -0.4997   -1.8765    1.9943 H   0  0  0  0  0  0  0  0  0  0  0  0
    1.9441   -1.5723    2.1817 H   0  0  0  0  0  0  0  0  0  0  0  0
  1  2  2  0
  2  3  1  0
  3  4  2  0
  4  5  1  0
  5  6  2  0
  5  7  1  0
  7  8  1  0
  8  9  2  0
  9 10  1  0
 10 11  1  0
 11 12  1  0
 12 13  1  0
 13 14  1  0
 14 15  1  0
 15 16  1  0
 16 17  1  0
 10 18  2  0
 18 19  1  0
 19 20  2  0
  6  1  1  0
 20  8  1  0
 20  4  1  0
 17 12  1  0
  1 21  1  0
  2 22  1  0
  3 23  1  0
  6 24  1  0
  7 25  1  0
  7 26  1  0
  9 27  1  0
 11 28  1  0
 11 29  1  0
 13 30  1  0
 13 31  1  0
 14 32  1  0
 14 33  1  0
 16 34  1  0
 16 35  1  0
 17 36  1  0
 17 37  1  0
 18 38  1  0
 19 39  1  0
M  END
$$$$
