
     RDKit          3D

 38 38  0  0  0  0  0  0  0  0999 V2000
    5.8995    1.3355    3.4526 C   0  0  0  0  0  0  0  0  0  0  0  0
    5.2019    0.1141    3.2482 O   0  0  0  0  0  0  0  0  0  0  0  0
    3.9101    0.2874    2.6691 C   0  0  0  0  0  0  0  0  0  0  0  0
    3.9694    0.6266    1.1786 C   0  0  0  0  0  0  0  0  0  0  0  0
    2.6559    0.6385    0.5569 N   0  0  0  0  0  0  0  0  0  0  0  0
    2.5393    0.6641   -0.8185 C   0  0  0  0  0  0  0  0  0  0  0  0
    3.4943    0.5930   -1.5820 O   0  0  0  0  0  0  0  0  0  0  0  0
    1.1476    0.8430   -1.3267 C   0  0  0  0  0  0  0  0  0  0  0  0
    0.9736    1.8235   -2.3387 C   0  0  0  0  0  0  0  0  0  0  0  0
    0.8057    2.6451   -3.1422 N   0  0  0  0  0  0  0  0  0  0  0  0
    0.1942    0.0208   -0.8406 C   0  0  0  0  0  0  0  0  0  0  0  0
   -1.2436   -0.0773   -1.1244 C   0  0  0  0  0  0  0  0  0  0  0  0
   -1.9102    0.9605   -1.9949 C   0  0  0  0  0  0  0  0  0  0  0  0
   -1.9279   -1.0982   -0.5627 C   0  0  0  0  0  0  0  0  0  0  0  0
   -3.3587   -1.3663   -0.7370 C   0  0  0  0  0  0  0  0  0  0  0  0
   -3.8276   -1.9845   -1.9016 C   0  0  0  0  0  0  0  0  0  0  0  0
   -5.1910   -2.2388   -2.0604 C   0  0  0  0  0  0  0  0  0  0  0  0
   -6.0894   -1.8791   -1.0565 C   0  0  0  0  0  0  0  0  0  0  0  0
   -5.6266   -1.2647    0.1069 C   0  0  0  0  0  0  0  0  0  0  0  0
   -4.2635   -1.0091    0.2678 C   0  0  0  0  0  0  0  0  0  0  0  0
    6.1540    1.8036    2.4981 H   0  0  0  0  0  0  0  0  0  0  0  0
    5.3071    2.0215    4.0656 H   0  0  0  0  0  0  0  0  0  0  0  0
    6.8297    1.1123    3.9822 H   0  0  0  0  0  0  0  0  0  0  0  0
    3.3422    1.0427    3.2259 H   0  0  0  0  0  0  0  0  0  0  0  0
    3.3777   -0.6618    2.7981 H   0  0  0  0  0  0  0  0  0  0  0  0
    4.6114   -0.0899    0.6527 H   0  0  0  0  0  0  0  0  0  0  0  0
    4.4120    1.6163    1.0225 H   0  0  0  0  0  0  0  0  0  0  0  0
    1.8656    0.9412    1.1133 H   0  0  0  0  0  0  0  0  0  0  0  0
    0.5330   -0.7300   -0.1214 H   0  0  0  0  0  0  0  0  0  0  0  0
   -1.5601    0.8780   -3.0287 H   0  0  0  0  0  0  0  0  0  0  0  0
   -1.7089    1.9686   -1.6173 H   0  0  0  0  0  0  0  0  0  0  0  0
   -2.9998    0.8659   -2.0237 H   0  0  0  0  0  0  0  0  0  0  0  0
   -1.4355   -1.8291    0.0764 H   0  0  0  0  0  0  0  0  0  0  0  0
   -3.1358   -2.2689   -2.6909 H   0  0  0  0  0  0  0  0  0  0  0  0
   -5.5518   -2.7166   -2.9675 H   0  0  0  0  0  0  0  0  0  0  0  0
   -7.1510   -2.0769   -1.1815 H   0  0  0  0  0  0  0  0  0  0  0  0
   -6.3280   -0.9836    0.8883 H   0  0  0  0  0  0  0  0  0  0  0  0
   -3.9151   -0.5274    1.1780 H   0  0  0  0  0  0  0  0  0  0  0  0
  1  2  1  0
  2  3  1  0
  3  4  1  0
  4  5  1  0
  5  6  1  0
  6  7  2  0
  6  8  1  0
  8  9  1  0
  9 10  3  0
  8 11  2  3
 11 12  1  0
 12 13  1  0
 12 14  2  3
 14 15  1  0
 15 16  2  0
 16 17  1  0
 17 18  2  0
 18 19  1  0
 19 20  2  0
 20 15  1  0
  1 21  1  0
  1 22  1  0
  1 23  1  0
  3 24  1  0
  3 25  1  0
  4 26  1  0
  4 27  1  0
  5 28  1  0
 11 29  1  0
 13 30  1  0
 13 31  1  0
 13 32  1  0
 14 33  1  0
 16 34  1  0
 17 35  1  0
 18 36  1  0
 19 37  1  0
 20 38  1  0
M  END
$$$$
