
     RDKit          3D

 30 32  0  0  0  0  0  0  0  0999 V2000
   -4.5026    0.9918   -1.1201 O   0  0  0  0  0  0  0  0  0  0  0  0
   -4.0147    0.8317   -0.0139 C   0  0  0  0  0  0  0  0  0  0  0  0
   -4.8431    0.9751    1.1881 C   0  0  0  0  0  0  0  0  0  0  0  0
   -4.0677    0.7606    2.2447 C   0  0  0  0  0  0  0  0  0  0  0  0
   -2.7162    0.4638    1.7578 C   0  0  0  0  0  0  0  0  0  0  0  0
   -1.8233    0.1990    2.5450 O   0  0  0  0  0  0  0  0  0  0  0  0
   -2.7394    0.5304    0.3888 N   0  0  0  0  0  0  0  0  0  0  0  0
   -1.6222    0.3098   -0.4766 C   0  0  0  0  0  0  0  0  0  0  0  0
   -1.7727    0.2594   -1.8707 C   0  0  0  0  0  0  0  0  0  0  0  0
   -0.6817    0.0394   -2.7167 C   0  0  0  0  0  0  0  0  0  0  0  0
    0.5925   -0.1338   -2.1864 C   0  0  0  0  0  0  0  0  0  0  0  0
    0.7989   -0.0875   -0.8033 C   0  0  0  0  0  0  0  0  0  0  0  0
    2.1466   -0.2649   -0.2319 C   0  0  0  0  0  0  0  0  0  0  0  0
    3.2380    0.4870   -0.6996 C   0  0  0  0  0  0  0  0  0  0  0  0
    4.5160    0.3189   -0.1590 C   0  0  0  0  0  0  0  0  0  0  0  0
    4.7255   -0.6057    0.8607 C   0  0  0  0  0  0  0  0  0  0  0  0
    3.6587   -1.3607    1.3403 C   0  0  0  0  0  0  0  0  0  0  0  0
    2.3813   -1.1910    0.7988 C   0  0  0  0  0  0  0  0  0  0  0  0
   -0.3197    0.1353    0.0290 C   0  0  0  0  0  0  0  0  0  0  0  0
   -5.8911    1.2159    1.1602 H   0  0  0  0  0  0  0  0  0  0  0  0
   -4.3304    0.7807    3.2877 H   0  0  0  0  0  0  0  0  0  0  0  0
   -2.7399    0.3759   -2.3506 H   0  0  0  0  0  0  0  0  0  0  0  0
   -0.8324   -0.0016   -3.7929 H   0  0  0  0  0  0  0  0  0  0  0  0
    1.4257   -0.3175   -2.8616 H   0  0  0  0  0  0  0  0  0  0  0  0
    3.0960    1.2251   -1.4864 H   0  0  0  0  0  0  0  0  0  0  0  0
    5.3451    0.9137   -0.5328 H   0  0  0  0  0  0  0  0  0  0  0  0
    5.7184   -0.7364    1.2826 H   0  0  0  0  0  0  0  0  0  0  0  0
    3.8172   -2.0835    2.1365 H   0  0  0  0  0  0  0  0  0  0  0  0
    1.5646   -1.7979    1.1853 H   0  0  0  0  0  0  0  0  0  0  0  0
   -0.1273    0.1928    1.0972 H   0  0  0  0  0  0  0  0  0  0  0  0
  1  2  2  0
  2  3  1  0
  3  4  2  0
  4  5  1  0
  5  6  2  0
  5  7  1  0
  7  8  1  0
  8  9  2  0
  9 10  1  0
 10 11  2  0
 11 12  1  0
 12 13  1  0
 13 14  2  0
 14 15  1  0
 15 16  2  0
 16 17  1  0
 17 18  2  0
 12 19  2  0
  7  2  1  0
 19  8  1  0
 18 13  1  0
  3 20  1  0
  4 21  1  0
  9 22  1  0
 10 23  1  0
 11 24  1  0
 14 25  1  0
 15 26  1  0
 16 27  1  0
 17 28  1  0
 18 29  1  0
 19 30  1  0
M  END
$$$$
