
     RDKit          3D

 36 38  0  0  0  0  0  0  0  0999 V2000
   -5.7480    0.4287    0.0808 C   0  0  0  0  0  0  0  0  0  0  0  0
   -4.2702    0.6942    0.0170 C   0  0  0  0  0  0  0  0  0  0  0  0
   -3.7998    2.0084   -0.1538 C   0  0  0  0  0  0  0  0  0  0  0  0
   -2.4332    2.2696   -0.2486 C   0  0  0  0  0  0  0  0  0  0  0  0
   -1.5514    1.2019   -0.1784 C   0  0  0  0  0  0  0  0  0  0  0  0
   -1.9915   -0.1294   -0.0204 C   0  0  0  0  0  0  0  0  0  0  0  0
   -3.3586   -0.3759    0.0702 C   0  0  0  0  0  0  0  0  0  0  0  0
   -0.9437   -1.0767    0.0289 N   0  0  0  0  0  0  0  0  0  0  0  0
   -1.2774   -2.4904   -0.0089 C   0  0  0  0  0  0  0  0  0  0  0  0
    0.3039   -0.4773   -0.1555 C   0  0  0  0  0  0  0  0  0  0  0  0
    1.4943   -1.1043   -0.2099 C   0  0  0  0  0  0  0  0  0  0  0  0
    2.7914   -0.4496   -0.4035 C   0  0  0  0  0  0  0  0  0  0  0  0
    3.3066   -0.3175   -1.6986 C   0  0  0  0  0  0  0  0  0  0  0  0
    4.5253    0.3161   -1.9006 C   0  0  0  0  0  0  0  0  0  0  0  0
    5.2154    0.8149   -0.8076 C   0  0  0  0  0  0  0  0  0  0  0  0
    4.6777    0.6667    0.4647 C   0  0  0  0  0  0  0  0  0  0  0  0
    3.4942    0.0362    0.6572 N   0  0  0  0  0  4  0  0  0  0  0  0
    2.9742   -0.0859    2.0346 C   0  0  0  0  0  0  0  0  0  0  0  0
    0.2280    1.3058   -0.3011 S   0  0  0  0  0  0  0  0  0  0  0  0
   -5.9604   -0.4461    0.7043 H   0  0  0  0  0  0  0  0  0  0  0  0
   -6.1390    0.2508   -0.9256 H   0  0  0  0  0  0  0  0  0  0  0  0
   -6.2789    1.2785    0.5226 H   0  0  0  0  0  0  0  0  0  0  0  0
   -4.5044    2.8363   -0.2163 H   0  0  0  0  0  0  0  0  0  0  0  0
   -2.0772    3.2860   -0.3821 H   0  0  0  0  0  0  0  0  0  0  0  0
   -3.7406   -1.3855    0.1838 H   0  0  0  0  0  0  0  0  0  0  0  0
   -1.9776   -2.7530    0.7920 H   0  0  0  0  0  0  0  0  0  0  0  0
   -1.7220   -2.7575   -0.9739 H   0  0  0  0  0  0  0  0  0  0  0  0
   -0.3985   -3.1252    0.1371 H   0  0  0  0  0  0  0  0  0  0  0  0
    1.5537   -2.1844   -0.1265 H   0  0  0  0  0  0  0  0  0  0  0  0
    2.7513   -0.6965   -2.5555 H   0  0  0  0  0  0  0  0  0  0  0  0
    4.9277    0.4281   -2.9065 H   0  0  0  0  0  0  0  0  0  0  0  0
    6.1676    1.3233   -0.9460 H   0  0  0  0  0  0  0  0  0  0  0  0
    5.1929    1.0553    1.3392 H   0  0  0  0  0  0  0  0  0  0  0  0
    2.1451    0.6151    2.1501 H   0  0  0  0  0  0  0  0  0  0  0  0
    2.6590   -1.1186    2.2036 H   0  0  0  0  0  0  0  0  0  0  0  0
    3.7641    0.1579    2.7502 H   0  0  0  0  0  0  0  0  0  0  0  0
  1  2  1  0
  2  3  2  0
  3  4  1  0
  4  5  2  0
  5  6  1  0
  6  7  2  0
  6  8  1  0
  8  9  1  0
  8 10  1  0
 10 11  2  3
 11 12  1  0
 12 13  2  0
 13 14  1  0
 14 15  2  0
 15 16  1  0
 16 17  2  0
 17 18  1  0
 10 19  1  0
  7  2  1  0
 17 12  1  0
 19  5  1  0
  1 20  1  0
  1 21  1  0
  1 22  1  0
  3 23  1  0
  4 24  1  0
  7 25  1  0
  9 26  1  0
  9 27  1  0
  9 28  1  0
 11 29  1  0
 13 30  1  0
 14 31  1  0
 15 32  1  0
 16 33  1  0
 18 34  1  0
 18 35  1  0
 18 36  1  0
M  CHG  1  17   1
M  END
$$$$
