
     RDKit          3D

 41 43  0  0  0  0  0  0  0  0999 V2000
   -3.1437    2.2841   -1.2133 C   0  0  0  0  0  0  0  0  0  0  0  0
   -2.3932    1.6713   -0.1471 N   0  0  0  0  0  0  0  0  0  0  0  0
   -1.2467    2.1398    0.4332 C   0  0  0  0  0  0  0  0  0  0  0  0
   -0.3708    3.5216   -0.1265 S   0  0  0  0  0  0  0  0  0  0  0  0
    0.9685    3.6024    1.1035 C   0  0  0  0  0  0  0  0  0  0  0  0
    1.9668    2.4544    1.0357 C   0  0  0  0  0  0  0  0  0  0  0  0
    2.6444    2.1571    2.0212 O   0  0  0  0  0  0  0  0  0  0  0  0
    2.1080    1.8689   -0.2184 N   0  0  0  0  0  0  0  0  0  0  0  0
    3.0404    0.9180   -0.5470 N   0  0  0  0  0  0  0  0  0  0  0  0
    3.3204    0.0166    0.3434 C   0  0  0  0  0  0  0  0  0  0  0  0
    4.3203   -1.0049    0.1153 C   0  0  0  0  0  0  0  0  0  0  0  0
    4.6997   -2.0092    0.9875 C   0  0  0  0  0  0  0  0  0  0  0  0
    5.7192   -2.8470    0.4414 C   0  0  0  0  0  0  0  0  0  0  0  0
    6.0732   -2.4440   -0.8281 C   0  0  0  0  0  0  0  0  0  0  0  0
    7.0635   -3.0549   -1.6764 N   0  0  0  0  0  4  0  0  0  0  0  0
    7.2530   -2.5773   -2.8022 O   0  0  0  0  0  0  0  0  0  0  0  0
    7.6593   -4.0335   -1.2047 O   0  0  0  0  0  1  0  0  0  0  0  0
    5.2000   -1.0863   -1.3533 S   0  0  0  0  0  0  0  0  0  0  0  0
   -0.9165    1.3772    1.4451 N   0  0  0  0  0  0  0  0  0  0  0  0
   -1.8452    0.3707    1.5248 N   0  0  0  0  0  0  0  0  0  0  0  0
   -2.7150    0.5185    0.5404 C   0  0  0  0  0  0  0  0  0  0  0  0
   -3.8372   -0.3774    0.2707 C   0  0  0  0  0  0  0  0  0  0  0  0
   -4.0917   -0.8739   -1.0160 C   0  0  0  0  0  0  0  0  0  0  0  0
   -5.1684   -1.7373   -1.2427 C   0  0  0  0  0  0  0  0  0  0  0  0
   -5.9885   -2.1172   -0.1820 C   0  0  0  0  0  0  0  0  0  0  0  0
   -7.3129   -3.1777   -0.4634 Cl  0  0  0  0  0  0  0  0  0  0  0  0
   -5.7368   -1.6487    1.1049 C   0  0  0  0  0  0  0  0  0  0  0  0
   -4.6601   -0.7863    1.3302 C   0  0  0  0  0  0  0  0  0  0  0  0
   -4.1950    1.9958   -1.1431 H   0  0  0  0  0  0  0  0  0  0  0  0
   -3.0886    3.3720   -1.1275 H   0  0  0  0  0  0  0  0  0  0  0  0
   -2.7205    1.9542   -2.1651 H   0  0  0  0  0  0  0  0  0  0  0  0
    0.5345    3.6373    2.1081 H   0  0  0  0  0  0  0  0  0  0  0  0
    1.5240    4.5314    0.9403 H   0  0  0  0  0  0  0  0  0  0  0  0
    1.7413    2.3809   -1.0160 H   0  0  0  0  0  0  0  0  0  0  0  0
    2.7894   -0.0460    1.3097 H   0  0  0  0  0  0  0  0  0  0  0  0
    4.2690   -2.1371    1.9749 H   0  0  0  0  0  0  0  0  0  0  0  0
    6.1619   -3.6927    0.9562 H   0  0  0  0  0  0  0  0  0  0  0  0
   -3.4443   -0.6151   -1.8504 H   0  0  0  0  0  0  0  0  0  0  0  0
   -5.3545   -2.1178   -2.2438 H   0  0  0  0  0  0  0  0  0  0  0  0
   -6.3662   -1.9532    1.9371 H   0  0  0  0  0  0  0  0  0  0  0  0
   -4.4611   -0.4347    2.3418 H   0  0  0  0  0  0  0  0  0  0  0  0
  1  2  1  0
  2  3  1  0
  3  4  1  0
  4  5  1  0
  5  6  1  0
  6  7  2  0
  6  8  1  0
  8  9  1  0
  9 10  2  3
 10 11  1  0
 11 12  2  0
 12 13  1  0
 13 14  2  0
 14 15  1  0
 15 16  2  0
 15 17  1  0
 14 18  1  0
  3 19  2  0
 19 20  1  0
 20 21  2  0
 21 22  1  0
 22 23  2  0
 23 24  1  0
 24 25  2  0
 25 26  1  0
 25 27  1  0
 27 28  2  0
 21  2  1  0
 28 22  1  0
 18 11  1  0
  1 29  1  0
  1 30  1  0
  1 31  1  0
  5 32  1  0
  5 33  1  0
  8 34  1  0
 10 35  1  0
 12 36  1  0
 13 37  1  0
 23 38  1  0
 24 39  1  0
 27 40  1  0
 28 41  1  0
M  CHG  2  15   1  17  -1
M  END
$$$$
