
     RDKit          3D

 44 46  0  0  0  0  0  0  0  0999 V2000
    5.2553   -2.5144   -2.6340 C   0  0  0  0  0  0  0  0  0  0  0  0
    4.5555   -1.9509   -1.4321 C   0  0  0  0  0  0  0  0  0  0  0  0
    5.1886   -0.9878   -0.6359 C   0  0  0  0  0  0  0  0  0  0  0  0
    4.5594   -0.4847    0.5055 C   0  0  0  0  0  0  0  0  0  0  0  0
    3.2865   -0.9462    0.8638 C   0  0  0  0  0  0  0  0  0  0  0  0
    2.5769   -0.4401    2.0704 C   0  0  0  0  0  0  0  0  0  0  0  0
    1.7434   -1.1339    2.6418 O   0  0  0  0  0  0  0  0  0  0  0  0
    2.8682    0.8546    2.4533 N   0  0  0  0  0  0  0  0  0  0  0  0
    2.0897    1.4767    3.5170 C   0  0  0  0  0  0  0  0  0  0  0  0
    0.7397    2.0415    3.0750 C   0  0  0  0  0  0  0  0  0  0  0  0
   -0.0727    2.5200    3.8570 O   0  0  0  0  0  0  0  0  0  0  0  0
    0.5825    1.9818    1.7247 O   0  0  0  0  0  0  0  0  0  0  0  0
   -0.6957    2.4020    1.2193 C   0  0  0  0  0  0  0  0  0  0  0  0
   -1.5810    1.2484    0.8584 C   0  0  0  0  0  0  0  0  0  0  0  0
   -1.4911   -0.0540    1.3096 C   0  0  0  0  0  0  0  0  0  0  0  0
   -2.7321   -1.0062    0.6200 S   0  0  0  0  0  0  0  0  0  0  0  0
   -3.3266    0.3695   -0.2331 C   0  0  0  0  0  0  0  0  0  0  0  0
   -4.5197    0.3024   -1.1065 C   0  0  0  0  0  0  0  0  0  0  0  0
   -5.2161   -0.8863   -1.3835 C   0  0  0  0  0  0  0  0  0  0  0  0
   -6.3376   -0.8878   -2.2235 C   0  0  0  0  0  0  0  0  0  0  0  0
   -6.7845    0.2972   -2.7979 C   0  0  0  0  0  0  0  0  0  0  0  0
   -6.1132    1.4872   -2.5370 C   0  0  0  0  0  0  0  0  0  0  0  0
   -4.9917    1.4874   -1.7014 C   0  0  0  0  0  0  0  0  0  0  0  0
   -2.6300    1.4740   -0.0245 N   0  0  0  0  0  0  0  0  0  0  0  0
    2.6625   -1.9284    0.0873 C   0  0  0  0  0  0  0  0  0  0  0  0
    3.2946   -2.4278   -1.0542 C   0  0  0  0  0  0  0  0  0  0  0  0
    5.8168   -1.7325   -3.1553 H   0  0  0  0  0  0  0  0  0  0  0  0
    5.9458   -3.3066   -2.3260 H   0  0  0  0  0  0  0  0  0  0  0  0
    4.5401   -2.9318   -3.3493 H   0  0  0  0  0  0  0  0  0  0  0  0
    6.1831   -0.6312   -0.8973 H   0  0  0  0  0  0  0  0  0  0  0  0
    5.0859    0.2417    1.1176 H   0  0  0  0  0  0  0  0  0  0  0  0
    3.2682    1.4666    1.7542 H   0  0  0  0  0  0  0  0  0  0  0  0
    1.9122    0.7414    4.3078 H   0  0  0  0  0  0  0  0  0  0  0  0
    2.6901    2.3041    3.9067 H   0  0  0  0  0  0  0  0  0  0  0  0
   -1.2196    3.0772    1.9072 H   0  0  0  0  0  0  0  0  0  0  0  0
   -0.4888    2.9816    0.3116 H   0  0  0  0  0  0  0  0  0  0  0  0
   -0.7728   -0.4847    1.9950 H   0  0  0  0  0  0  0  0  0  0  0  0
   -4.9020   -1.8368   -0.9580 H   0  0  0  0  0  0  0  0  0  0  0  0
   -6.8592   -1.8194   -2.4274 H   0  0  0  0  0  0  0  0  0  0  0  0
   -7.6539    0.2933   -3.4515 H   0  0  0  0  0  0  0  0  0  0  0  0
   -6.4551    2.4162   -2.9845 H   0  0  0  0  0  0  0  0  0  0  0  0
   -4.4791    2.4297   -1.5123 H   0  0  0  0  0  0  0  0  0  0  0  0
    1.6813   -2.3078    0.3659 H   0  0  0  0  0  0  0  0  0  0  0  0
    2.7964   -3.1952   -1.6439 H   0  0  0  0  0  0  0  0  0  0  0  0
  1  2  1  0
  2  3  2  0
  3  4  1  0
  4  5  2  0
  5  6  1  0
  6  7  2  0
  6  8  1  0
  8  9  1  0
  9 10  1  0
 10 11  2  0
 10 12  1  0
 12 13  1  0
 13 14  1  0
 14 15  2  0
 15 16  1  0
 16 17  1  0
 17 18  1  0
 18 19  2  0
 19 20  1  0
 20 21  2  0
 21 22  1  0
 22 23  2  0
 17 24  2  0
  5 25  1  0
 25 26  2  0
 26  2  1  0
 24 14  1  0
 23 18  1  0
  1 27  1  0
  1 28  1  0
  1 29  1  0
  3 30  1  0
  4 31  1  0
  8 32  1  0
  9 33  1  0
  9 34  1  0
 13 35  1  0
 13 36  1  0
 15 37  1  0
 19 38  1  0
 20 39  1  0
 21 40  1  0
 22 41  1  0
 23 42  1  0
 25 43  1  0
 26 44  1  0
M  END
$$$$
