
     RDKit          3D

 47 48  0  0  0  0  0  0  0  0999 V2000
   -3.7449   -0.7213    3.9079 C   0  0  0  0  0  0  0  0  0  0  0  0
   -3.8708   -1.2841    2.5004 C   0  0  0  0  0  0  0  0  0  0  0  0
   -3.5691   -0.2629    1.4856 N   0  0  0  0  0  0  0  0  0  0  0  0
   -4.6880    0.6114    1.0967 C   0  0  0  0  0  0  0  0  0  0  0  0
   -4.4876    2.0380    1.5907 C   0  0  0  0  0  0  0  0  0  0  0  0
   -2.3058   -0.1569    0.9119 C   0  0  0  0  0  0  0  0  0  0  0  0
   -1.1725   -0.7427    1.4959 C   0  0  0  0  0  0  0  0  0  0  0  0
    0.1040   -0.6426    0.9266 C   0  0  0  0  0  0  0  0  0  0  0  0
    0.2970    0.0500   -0.2699 C   0  0  0  0  0  0  0  0  0  0  0  0
    1.6422    0.1832   -0.8581 C   0  0  0  0  0  0  0  0  0  0  0  0
    2.5104   -0.8345   -0.9676 C   0  0  0  0  0  0  0  0  0  0  0  0
    3.8129   -0.6734   -1.6191 C   0  0  0  0  0  0  0  0  0  0  0  0
    3.8835   -0.3133   -2.9717 C   0  0  0  0  0  0  0  0  0  0  0  0
    5.1167   -0.1881   -3.5975 C   0  0  0  0  0  0  0  0  0  0  0  0
    6.2695   -0.4273   -2.8678 C   0  0  0  0  0  0  0  0  0  0  0  0
    6.1675   -0.7836   -1.5291 C   0  0  0  0  0  0  0  0  0  0  0  0
    4.9612   -0.9021   -0.9241 N   0  0  0  0  0  4  0  0  0  0  0  0
    4.9164   -1.2530    0.5091 C   0  0  0  0  0  0  0  0  0  0  0  0
   -0.8102    0.6661   -0.8767 C   0  0  0  0  0  0  0  0  0  0  0  0
   -0.5556    1.3438   -2.0466 O   0  0  0  0  0  0  0  0  0  0  0  0
   -1.6437    2.0222   -2.6642 C   0  0  0  0  0  0  0  0  0  0  0  0
   -2.0815    0.5485   -0.2864 C   0  0  0  0  0  0  0  0  0  0  0  0
   -3.9293   -1.5079    4.6464 H   0  0  0  0  0  0  0  0  0  0  0  0
   -2.7490   -0.3073    4.0918 H   0  0  0  0  0  0  0  0  0  0  0  0
   -4.4748    0.0759    4.0800 H   0  0  0  0  0  0  0  0  0  0  0  0
   -3.2381   -2.1717    2.3841 H   0  0  0  0  0  0  0  0  0  0  0  0
   -4.8937   -1.6553    2.3585 H   0  0  0  0  0  0  0  0  0  0  0  0
   -4.8495    0.5898    0.0134 H   0  0  0  0  0  0  0  0  0  0  0  0
   -5.6250    0.2390    1.5296 H   0  0  0  0  0  0  0  0  0  0  0  0
   -4.3608    2.0665    2.6774 H   0  0  0  0  0  0  0  0  0  0  0  0
   -5.3590    2.6494    1.3355 H   0  0  0  0  0  0  0  0  0  0  0  0
   -3.6077    2.5080    1.1421 H   0  0  0  0  0  0  0  0  0  0  0  0
   -1.2491   -1.2779    2.4381 H   0  0  0  0  0  0  0  0  0  0  0  0
    0.9356   -1.1028    1.4516 H   0  0  0  0  0  0  0  0  0  0  0  0
    1.8690    1.1736   -1.2519 H   0  0  0  0  0  0  0  0  0  0  0  0
    2.2646   -1.8302   -0.6088 H   0  0  0  0  0  0  0  0  0  0  0  0
    2.9727   -0.1358   -3.5430 H   0  0  0  0  0  0  0  0  0  0  0  0
    5.1744    0.0912   -4.6485 H   0  0  0  0  0  0  0  0  0  0  0  0
    7.2458   -0.3354   -3.3398 H   0  0  0  0  0  0  0  0  0  0  0  0
    7.0555   -0.9739   -0.9322 H   0  0  0  0  0  0  0  0  0  0  0  0
    5.9309   -1.3227    0.9099 H   0  0  0  0  0  0  0  0  0  0  0  0
    4.3751   -0.4661    1.0408 H   0  0  0  0  0  0  0  0  0  0  0  0
    4.4207   -2.2223    0.6064 H   0  0  0  0  0  0  0  0  0  0  0  0
   -1.2571    2.5308   -3.5527 H   0  0  0  0  0  0  0  0  0  0  0  0
   -2.4114    1.3151   -2.9946 H   0  0  0  0  0  0  0  0  0  0  0  0
   -2.0624    2.7859   -2.0005 H   0  0  0  0  0  0  0  0  0  0  0  0
   -2.9290    1.0066   -0.7798 H   0  0  0  0  0  0  0  0  0  0  0  0
  1  2  1  0
  2  3  1  0
  3  4  1  0
  4  5  1  0
  3  6  1  0
  6  7  2  0
  7  8  1  0
  8  9  2  0
  9 10  1  0
 10 11  2  3
 11 12  1  0
 12 13  2  0
 13 14  1  0
 14 15  2  0
 15 16  1  0
 16 17  2  0
 17 18  1  0
  9 19  1  0
 19 20  1  0
 20 21  1  0
 19 22  2  0
 22  6  1  0
 17 12  1  0
  1 23  1  0
  1 24  1  0
  1 25  1  0
  2 26  1  0
  2 27  1  0
  4 28  1  0
  4 29  1  0
  5 30  1  0
  5 31  1  0
  5 32  1  0
  7 33  1  0
  8 34  1  0
 10 35  1  0
 11 36  1  0
 13 37  1  0
 14 38  1  0
 15 39  1  0
 16 40  1  0
 18 41  1  0
 18 42  1  0
 18 43  1  0
 21 44  1  0
 21 45  1  0
 21 46  1  0
 22 47  1  0
M  CHG  1  17   1
M  END
$$$$
