
     RDKit          3D

 46 48  0  0  0  0  0  0  0  0999 V2000
    2.5132    0.4039   -0.8142 C   0  0  0  0  0  0  0  0  0  0  0  0
    1.4800    1.1811   -0.0279 C   0  0  0  0  0  0  0  0  0  0  0  0
    1.9286    2.4274    0.6488 C   0  0  0  0  0  0  0  0  0  0  0  0
    2.3321    3.5341    0.0071 C   0  0  0  0  0  0  0  0  0  0  0  0
    2.3858    3.7288   -1.4457 C   0  0  0  0  0  0  0  0  0  0  0  0
    3.5809    4.1573   -2.0348 C   0  0  0  0  0  0  0  0  0  0  0  0
    3.6534    4.3669   -3.4138 C   0  0  0  0  0  0  0  0  0  0  0  0
    2.5292    4.1600   -4.2114 C   0  0  0  0  0  0  0  0  0  0  0  0
    1.3309    3.7480   -3.6311 C   0  0  0  0  0  0  0  0  0  0  0  0
    1.2575    3.5378   -2.2526 C   0  0  0  0  0  0  0  0  0  0  0  0
    0.2233    0.8521    0.1043 N   0  0  0  0  0  0  0  0  0  0  0  0
   -0.1846   -0.3463   -0.4183 N   0  0  0  0  0  0  0  0  0  0  0  0
    0.1652   -1.5388    0.2080 C   0  0  0  0  0  0  0  0  0  0  0  0
    1.0631   -1.6984    1.0250 O   0  0  0  0  0  0  0  0  0  0  0  0
   -0.6745   -2.6864   -0.2417 C   0  0  0  0  0  0  0  0  0  0  0  0
   -0.6478   -3.9882    0.5159 C   0  0  0  0  0  0  0  0  0  0  0  0
   -1.9100   -3.1450    0.5320 C   0  0  0  0  0  0  0  0  0  0  0  0
   -3.0822   -3.6518   -0.2775 C   0  0  0  0  0  0  0  0  0  0  0  0
   -2.3093   -2.4685    1.8403 C   0  0  0  0  0  0  0  0  0  0  0  0
   -2.7636   -1.1385    1.8745 C   0  0  0  0  0  0  0  0  0  0  0  0
   -3.1458   -0.5245    3.0709 C   0  0  0  0  0  0  0  0  0  0  0  0
   -3.0945   -1.2346    4.2657 C   0  0  0  0  0  0  0  0  0  0  0  0
   -2.6654   -2.5575    4.2620 C   0  0  0  0  0  0  0  0  0  0  0  0
   -2.2828   -3.1644    3.0625 C   0  0  0  0  0  0  0  0  0  0  0  0
    2.8033   -0.4968   -0.2702 H   0  0  0  0  0  0  0  0  0  0  0  0
    2.1088    0.1281   -1.7922 H   0  0  0  0  0  0  0  0  0  0  0  0
    3.4189    0.9954   -0.9732 H   0  0  0  0  0  0  0  0  0  0  0  0
    1.8774    2.3967    1.7321 H   0  0  0  0  0  0  0  0  0  0  0  0
    2.6512    4.3913    0.5960 H   0  0  0  0  0  0  0  0  0  0  0  0
    4.4670    4.3226   -1.4264 H   0  0  0  0  0  0  0  0  0  0  0  0
    4.5872    4.6928   -3.8646 H   0  0  0  0  0  0  0  0  0  0  0  0
    2.5857    4.3245   -5.2843 H   0  0  0  0  0  0  0  0  0  0  0  0
    0.4509    3.5941   -4.2500 H   0  0  0  0  0  0  0  0  0  0  0  0
    0.3113    3.2284   -1.8133 H   0  0  0  0  0  0  0  0  0  0  0  0
   -1.1421   -0.3238   -0.7525 H   0  0  0  0  0  0  0  0  0  0  0  0
   -0.7039   -2.7837   -1.3238 H   0  0  0  0  0  0  0  0  0  0  0  0
   -0.0282   -4.0392    1.4062 H   0  0  0  0  0  0  0  0  0  0  0  0
   -0.6398   -4.9077   -0.0584 H   0  0  0  0  0  0  0  0  0  0  0  0
   -3.7297   -2.8210   -0.5775 H   0  0  0  0  0  0  0  0  0  0  0  0
   -2.7572   -4.1650   -1.1893 H   0  0  0  0  0  0  0  0  0  0  0  0
   -3.6767   -4.3608    0.3088 H   0  0  0  0  0  0  0  0  0  0  0  0
   -2.8234   -0.5613    0.9562 H   0  0  0  0  0  0  0  0  0  0  0  0
   -3.4796    0.5097    3.0663 H   0  0  0  0  0  0  0  0  0  0  0  0
   -3.3868   -0.7581    5.1972 H   0  0  0  0  0  0  0  0  0  0  0  0
   -2.6232   -3.1196    5.1910 H   0  0  0  0  0  0  0  0  0  0  0  0
   -1.9537   -4.2012    3.0833 H   0  0  0  0  0  0  0  0  0  0  0  0
  1  2  1  0
  2  3  1  0
  3  4  2  3
  4  5  1  0
  5  6  2  0
  6  7  1  0
  7  8  2  0
  8  9  1  0
  9 10  2  0
  2 11  2  3
 11 12  1  0
 12 13  1  0
 13 14  2  0
 13 15  1  0
 15 16  1  0
 16 17  1  0
 17 18  1  0
 17 19  1  0
 19 20  2  0
 20 21  1  0
 21 22  2  0
 22 23  1  0
 23 24  2  0
 10  5  1  0
 17 15  1  0
 24 19  1  0
  1 25  1  0
  1 26  1  0
  1 27  1  0
  3 28  1  0
  4 29  1  0
  6 30  1  0
  7 31  1  0
  8 32  1  0
  9 33  1  0
 10 34  1  0
 12 35  1  0
 15 36  1  0
 16 37  1  0
 16 38  1  0
 18 39  1  0
 18 40  1  0
 18 41  1  0
 20 42  1  0
 21 43  1  0
 22 44  1  0
 23 45  1  0
 24 46  1  0
M  END
$$$$
