
     RDKit          3D

 27 27  0  0  0  0  0  0  0  0999 V2000
   -5.2899   -0.6907    1.6525 C   0  0  0  0  0  0  0  0  0  0  0  0
   -5.4340   -0.1064    0.4537 C   0  0  0  0  0  0  0  0  0  0  0  0
   -4.3708    0.2157   -0.5526 C   0  0  0  0  0  0  0  0  0  0  0  0
   -3.0620    0.1713    0.0364 N   0  0  0  0  0  0  0  0  0  0  0  0
   -1.9303    0.0227   -0.7296 C   0  0  0  0  0  0  0  0  0  0  0  0
   -1.8901   -0.2361   -1.9253 O   0  0  0  0  0  0  0  0  0  0  0  0
   -0.6188    0.2285    0.0506 C   0  0  0  0  0  0  0  0  0  0  0  0
   -0.6620    0.5695    1.2249 O   0  0  0  0  0  0  0  0  0  0  0  0
    0.4895   -0.0113   -0.7389 N   0  0  0  0  0  0  0  0  0  0  0  0
    1.7489    0.1241   -0.2334 N   0  0  0  0  0  0  0  0  0  0  0  0
    2.7122   -0.1190   -1.0650 C   0  0  0  0  0  0  0  0  0  0  0  0
    4.0823   -0.0117   -0.6561 C   0  0  0  0  0  0  0  0  0  0  0  0
    4.6703    0.3262    0.5470 C   0  0  0  0  0  0  0  0  0  0  0  0
    6.0699    0.2600    0.3462 C   0  0  0  0  0  0  0  0  0  0  0  0
    6.2501   -0.1134   -0.9645 C   0  0  0  0  0  0  0  0  0  0  0  0
    5.0517   -0.2809   -1.5816 O   0  0  0  0  0  0  0  0  0  0  0  0
   -6.1536   -0.8712    2.2860 H   0  0  0  0  0  0  0  0  0  0  0  0
   -4.3268   -1.0203    2.0291 H   0  0  0  0  0  0  0  0  0  0  0  0
   -6.4418    0.1701    0.1466 H   0  0  0  0  0  0  0  0  0  0  0  0
   -4.5182    1.2337   -0.9291 H   0  0  0  0  0  0  0  0  0  0  0  0
   -4.4287   -0.4719   -1.4027 H   0  0  0  0  0  0  0  0  0  0  0  0
   -2.9163    0.5504    0.9686 H   0  0  0  0  0  0  0  0  0  0  0  0
    0.3323   -0.2771   -1.7101 H   0  0  0  0  0  0  0  0  0  0  0  0
    2.5235   -0.4157   -2.1120 H   0  0  0  0  0  0  0  0  0  0  0  0
    4.1409    0.5873    1.4540 H   0  0  0  0  0  0  0  0  0  0  0  0
    6.8500    0.4597    1.0673 H   0  0  0  0  0  0  0  0  0  0  0  0
    7.1217   -0.2936   -1.5787 H   0  0  0  0  0  0  0  0  0  0  0  0
  1  2  2  0
  2  3  1  0
  3  4  1  0
  4  5  1  0
  5  6  2  0
  5  7  1  0
  7  8  2  0
  7  9  1  0
  9 10  1  0
 10 11  2  3
 11 12  1  0
 12 13  2  0
 13 14  1  0
 14 15  2  0
 15 16  1  0
 16 12  1  0
  1 17  1  0
  1 18  1  0
  2 19  1  0
  3 20  1  0
  3 21  1  0
  4 22  1  0
  9 23  1  0
 11 24  1  0
 13 25  1  0
 14 26  1  0
 15 27  1  0
M  END
$$$$
