
     RDKit          3D

 58 63  0  0  0  0  0  0  0  0999 V2000
    7.8335   -0.9262    2.2265 C   0  0  0  0  0  0  0  0  0  0  0  0
    6.5559   -0.3752    1.6930 C   0  0  0  0  0  0  0  0  0  0  0  0
    5.5130    0.2024    2.3864 C   0  0  0  0  0  0  0  0  0  0  0  0
    4.4596    0.6207    1.5225 C   0  0  0  0  0  0  0  0  0  0  0  0
    4.7204    0.3296    0.1964 C   0  0  0  0  0  0  0  0  0  0  0  0
    3.9147    0.6070   -0.9815 C   0  0  0  0  0  0  0  0  0  0  0  0
    4.3824    1.1591   -1.9790 O   0  0  0  0  0  0  0  0  0  0  0  0
    2.5549    0.2630   -0.9406 N   0  0  0  0  0  0  0  0  0  0  0  0
    1.7242    0.7065   -2.0511 C   0  0  0  0  0  0  0  0  0  0  0  0
    0.2437    0.3712   -1.8588 C   0  0  0  0  0  0  0  0  0  0  0  0
   -0.2044    0.5844   -0.3925 C   0  0  0  0  0  0  0  0  0  0  0  0
    0.6818   -0.2750    0.5652 C   0  0  0  0  0  0  0  0  0  0  0  0
    1.9813   -0.7590   -0.0780 C   0  0  0  0  0  0  0  0  0  0  0  0
    0.1171    1.9523   -0.0155 O   0  0  0  0  0  0  0  0  0  0  0  0
   -0.7628    2.9348   -0.3538 C   0  0  0  0  0  0  0  0  0  0  0  0
   -0.2968    4.2435   -0.2254 C   0  0  0  0  0  0  0  0  0  0  0  0
   -1.1207    5.3186   -0.5678 C   0  0  0  0  0  0  0  0  0  0  0  0
   -2.4127    5.0809   -1.0360 C   0  0  0  0  0  0  0  0  0  0  0  0
   -3.4224    6.4060   -1.4629 Cl  0  0  0  0  0  0  0  0  0  0  0  0
   -2.8901    3.7788   -1.1580 C   0  0  0  0  0  0  0  0  0  0  0  0
   -2.0589    2.7110   -0.8033 C   0  0  0  0  0  0  0  0  0  0  0  0
   -2.5381    1.3269   -0.9080 C   0  0  0  0  0  0  0  0  0  0  0  0
   -3.5443    1.0808   -1.5679 O   0  0  0  0  0  0  0  0  0  0  0  0
   -1.7116    0.2747   -0.1782 C   0  0  0  0  0  0  0  0  0  0  0  0
   -2.1377   -1.1316   -0.5790 C   0  0  0  0  0  0  0  0  0  0  0  0
   -3.0564   -1.4294    0.5566 C   0  0  0  0  0  0  0  0  0  0  0  0
   -3.9631   -2.6020    0.5484 C   0  0  0  0  0  0  0  0  0  0  0  0
   -4.8328   -2.7929    1.6298 C   0  0  0  0  0  0  0  0  0  0  0  0
   -5.6955   -3.8902    1.6549 C   0  0  0  0  0  0  0  0  0  0  0  0
   -5.6935   -4.8021    0.6014 C   0  0  0  0  0  0  0  0  0  0  0  0
   -4.8297   -4.6187   -0.4775 C   0  0  0  0  0  0  0  0  0  0  0  0
   -3.9642   -3.5217   -0.5065 C   0  0  0  0  0  0  0  0  0  0  0  0
   -2.9694   -0.6098    1.5556 N   0  0  0  0  0  0  0  0  0  0  0  0
   -2.0241    0.3825    1.2203 O   0  0  0  0  0  0  0  0  0  0  0  0
    6.2565   -0.3993    0.0080 S   0  0  0  0  0  0  0  0  0  0  0  0
    7.8588   -0.8662    3.3196 H   0  0  0  0  0  0  0  0  0  0  0  0
    7.9510   -1.9782    1.9469 H   0  0  0  0  0  0  0  0  0  0  0  0
    8.6895   -0.3633    1.8402 H   0  0  0  0  0  0  0  0  0  0  0  0
    5.5085    0.3314    3.4624 H   0  0  0  0  0  0  0  0  0  0  0  0
    3.5564    1.1178    1.8562 H   0  0  0  0  0  0  0  0  0  0  0  0
    2.0932    0.2381   -2.9715 H   0  0  0  0  0  0  0  0  0  0  0  0
    1.8596    1.7893   -2.1634 H   0  0  0  0  0  0  0  0  0  0  0  0
    0.0727   -0.6716   -2.1533 H   0  0  0  0  0  0  0  0  0  0  0  0
   -0.3356    0.9891   -2.5544 H   0  0  0  0  0  0  0  0  0  0  0  0
    0.9358    0.3170    1.4549 H   0  0  0  0  0  0  0  0  0  0  0  0
    0.1539   -1.1603    0.9349 H   0  0  0  0  0  0  0  0  0  0  0  0
    1.7836   -1.6338   -0.7110 H   0  0  0  0  0  0  0  0  0  0  0  0
    2.6752   -1.1068    0.6893 H   0  0  0  0  0  0  0  0  0  0  0  0
    0.7130    4.4286    0.1342 H   0  0  0  0  0  0  0  0  0  0  0  0
   -0.7484    6.3354   -0.4691 H   0  0  0  0  0  0  0  0  0  0  0  0
   -3.9003    3.5937   -1.5158 H   0  0  0  0  0  0  0  0  0  0  0  0
   -1.3210   -1.8589   -0.5556 H   0  0  0  0  0  0  0  0  0  0  0  0
   -2.6342   -1.1885   -1.5503 H   0  0  0  0  0  0  0  0  0  0  0  0
   -4.8470   -2.0875    2.4585 H   0  0  0  0  0  0  0  0  0  0  0  0
   -6.3696   -4.0301    2.4964 H   0  0  0  0  0  0  0  0  0  0  0  0
   -6.3673   -5.6553    0.6207 H   0  0  0  0  0  0  0  0  0  0  0  0
   -4.8325   -5.3313   -1.2990 H   0  0  0  0  0  0  0  0  0  0  0  0
   -3.3052   -3.4098   -1.3615 H   0  0  0  0  0  0  0  0  0  0  0  0
  1  2  1  0
  2  3  2  0
  3  4  1  0
  4  5  2  0
  5  6  1  0
  6  7  2  0
  6  8  1  0
  8  9  1  0
  9 10  1  0
 10 11  1  0
 11 12  1  0
 12 13  1  0
 11 14  1  0
 14 15  1  0
 15 16  2  0
 16 17  1  0
 17 18  2  0
 18 19  1  0
 18 20  1  0
 20 21  2  0
 21 22  1  0
 22 23  2  0
 22 24  1  0
 24 25  1  0
 25 26  1  0
 26 27  1  0
 27 28  2  0
 28 29  1  0
 29 30  2  0
 30 31  1  0
 31 32  2  0
 26 33  2  0
 33 34  1  0
  5 35  1  0
 35  2  1  0
 13  8  1  0
 21 15  1  0
 34 24  1  0
 24 11  1  0
 32 27  1  0
  1 36  1  0
  1 37  1  0
  1 38  1  0
  3 39  1  0
  4 40  1  0
  9 41  1  0
  9 42  1  0
 10 43  1  0
 10 44  1  0
 12 45  1  0
 12 46  1  0
 13 47  1  0
 13 48  1  0
 16 49  1  0
 17 50  1  0
 20 51  1  0
 25 52  1  0
 25 53  1  0
 28 54  1  0
 29 55  1  0
 30 56  1  0
 31 57  1  0
 32 58  1  0
M  END
$$$$
