
     RDKit          3D

 37 39  0  0  0  0  0  0  0  0999 V2000
   -7.6293    0.0308   -0.6964 C   0  0  0  0  0  0  0  0  0  0  0  0
   -6.9675    0.4124    0.6183 C   0  0  0  0  0  0  0  0  0  0  0  0
   -5.4935    0.1844    0.5757 C   0  0  0  0  0  0  0  0  0  0  0  0
   -4.9036   -0.9625    0.8423 N   0  0  0  0  0  0  0  0  0  0  0  0
   -3.5310   -0.8757    0.7205 N   0  0  0  0  0  0  0  0  0  0  0  0
   -3.1378    0.3287    0.3691 C   0  0  0  0  0  0  0  0  0  0  0  0
   -1.8171    0.6423    0.1901 N   0  0  0  0  0  0  0  0  0  0  0  0
   -1.2827    1.8555   -0.1742 C   0  0  0  0  0  0  0  0  0  0  0  0
   -1.8957    2.8931   -0.4090 O   0  0  0  0  0  0  0  0  0  0  0  0
    0.2457    1.8238   -0.2755 C   0  0  0  0  0  0  0  0  0  0  0  0
    0.7553    0.5292    0.0351 O   0  0  0  0  0  0  0  0  0  0  0  0
    2.1127    0.3680   -0.0193 C   0  0  0  0  0  0  0  0  0  0  0  0
    3.0419    1.3518   -0.3499 C   0  0  0  0  0  0  0  0  0  0  0  0
    4.4079    1.0490   -0.3669 C   0  0  0  0  0  0  0  0  0  0  0  0
    4.8659   -0.2398   -0.0542 C   0  0  0  0  0  0  0  0  0  0  0  0
    6.2340   -0.5568   -0.0675 C   0  0  0  0  0  0  0  0  0  0  0  0
    6.6702   -1.8449    0.2466 C   0  0  0  0  0  0  0  0  0  0  0  0
    5.7455   -2.8309    0.5775 C   0  0  0  0  0  0  0  0  0  0  0  0
    4.3824   -2.5311    0.5951 C   0  0  0  0  0  0  0  0  0  0  0  0
    3.9274   -1.2398    0.2815 C   0  0  0  0  0  0  0  0  0  0  0  0
    2.5596   -0.9195    0.2939 C   0  0  0  0  0  0  0  0  0  0  0  0
   -4.4054    1.4466    0.1607 S   0  0  0  0  0  0  0  0  0  0  0  0
   -7.4502   -1.0222   -0.9392 H   0  0  0  0  0  0  0  0  0  0  0  0
   -7.2460    0.6360   -1.5250 H   0  0  0  0  0  0  0  0  0  0  0  0
   -8.7112    0.1859   -0.6352 H   0  0  0  0  0  0  0  0  0  0  0  0
   -7.1940    1.4586    0.8546 H   0  0  0  0  0  0  0  0  0  0  0  0
   -7.3971   -0.1915    1.4264 H   0  0  0  0  0  0  0  0  0  0  0  0
   -1.1742   -0.1257    0.3499 H   0  0  0  0  0  0  0  0  0  0  0  0
    0.6294    2.5623    0.4379 H   0  0  0  0  0  0  0  0  0  0  0  0
    0.5041    2.0946   -1.3058 H   0  0  0  0  0  0  0  0  0  0  0  0
    2.7468    2.3653   -0.6005 H   0  0  0  0  0  0  0  0  0  0  0  0
    5.1162    1.8328   -0.6280 H   0  0  0  0  0  0  0  0  0  0  0  0
    6.9721    0.2000   -0.3235 H   0  0  0  0  0  0  0  0  0  0  0  0
    7.7319   -2.0773    0.2326 H   0  0  0  0  0  0  0  0  0  0  0  0
    6.0837   -3.8345    0.8223 H   0  0  0  0  0  0  0  0  0  0  0  0
    3.6752   -3.3154    0.8562 H   0  0  0  0  0  0  0  0  0  0  0  0
    1.8284   -1.6830    0.5512 H   0  0  0  0  0  0  0  0  0  0  0  0
  1  2  1  0
  2  3  1  0
  3  4  2  0
  4  5  1  0
  5  6  2  0
  6  7  1  0
  7  8  1  0
  8  9  2  0
  8 10  1  0
 10 11  1  0
 11 12  1  0
 12 13  2  0
 13 14  1  0
 14 15  2  0
 15 16  1  0
 16 17  2  0
 17 18  1  0
 18 19  2  0
 19 20  1  0
 20 21  2  0
  6 22  1  0
 22  3  1  0
 21 12  1  0
 20 15  1  0
  1 23  1  0
  1 24  1  0
  1 25  1  0
  2 26  1  0
  2 27  1  0
  7 28  1  0
 10 29  1  0
 10 30  1  0
 13 31  1  0
 14 32  1  0
 16 33  1  0
 17 34  1  0
 18 35  1  0
 19 36  1  0
 21 37  1  0
M  END
$$$$
