
     RDKit          3D

 37 39  0  0  0  0  0  0  0  0999 V2000
    5.0935   -0.0308    2.8621 O   0  0  0  0  0  0  0  0  0  0  0  0
    5.4633    1.0112    1.9641 C   0  0  0  0  0  0  0  0  0  0  0  0
    5.2858    0.5373    0.5228 C   0  0  0  0  0  0  0  0  0  0  0  0
    3.8408    0.3275    0.2388 N   0  0  0  0  0  4  0  0  0  0  0  0
    3.1297    1.2866   -0.3948 C   0  0  0  0  0  0  0  0  0  0  0  0
    1.7796    1.1022   -0.6722 C   0  0  0  0  0  0  0  0  0  0  0  0
    1.1464   -0.0764   -0.2821 C   0  0  0  0  0  0  0  0  0  0  0  0
   -0.2721   -0.2644   -0.6050 C   0  0  0  0  0  0  0  0  0  0  0  0
   -1.1625   -0.8423    0.2187 C   0  0  0  0  0  0  0  0  0  0  0  0
   -2.5456   -1.0461   -0.0746 C   0  0  0  0  0  0  0  0  0  0  0  0
   -3.2454   -2.1376    0.3931 C   0  0  0  0  0  0  0  0  0  0  0  0
   -4.5297   -2.0482   -0.0745 N   0  0  0  0  0  0  0  0  0  0  0  0
   -4.6876   -0.9001   -0.8161 C   0  0  0  0  0  0  0  0  0  0  0  0
   -5.8255   -0.4043   -1.4647 C   0  0  0  0  0  0  0  0  0  0  0  0
   -5.7115    0.8142   -2.1377 C   0  0  0  0  0  0  0  0  0  0  0  0
   -4.5075    1.5112   -2.1544 C   0  0  0  0  0  0  0  0  0  0  0  0
   -3.3786    1.0005   -1.5020 C   0  0  0  0  0  0  0  0  0  0  0  0
   -3.4568   -0.2374   -0.8258 C   0  0  0  0  0  0  0  0  0  0  0  0
    1.9026   -1.0572    0.3569 C   0  0  0  0  0  0  0  0  0  0  0  0
    3.2506   -0.8323    0.6118 C   0  0  0  0  0  0  0  0  0  0  0  0
    5.3051    0.2698    3.7686 H   0  0  0  0  0  0  0  0  0  0  0  0
    4.8410    1.8868    2.1731 H   0  0  0  0  0  0  0  0  0  0  0  0
    6.5123    1.2635    2.1462 H   0  0  0  0  0  0  0  0  0  0  0  0
    5.6705    1.2748   -0.1888 H   0  0  0  0  0  0  0  0  0  0  0  0
    5.7887   -0.4197    0.3442 H   0  0  0  0  0  0  0  0  0  0  0  0
    3.6473    2.1986   -0.6777 H   0  0  0  0  0  0  0  0  0  0  0  0
    1.2253    1.8870   -1.1841 H   0  0  0  0  0  0  0  0  0  0  0  0
   -0.5891    0.0948   -1.5818 H   0  0  0  0  0  0  0  0  0  0  0  0
   -0.8325   -1.2171    1.1855 H   0  0  0  0  0  0  0  0  0  0  0  0
   -2.9459   -2.9796    1.0028 H   0  0  0  0  0  0  0  0  0  0  0  0
   -5.2657   -2.7180    0.1044 H   0  0  0  0  0  0  0  0  0  0  0  0
   -6.7697   -0.9397   -1.4449 H   0  0  0  0  0  0  0  0  0  0  0  0
   -6.5795    1.2260   -2.6484 H   0  0  0  0  0  0  0  0  0  0  0  0
   -4.4449    2.4639   -2.6746 H   0  0  0  0  0  0  0  0  0  0  0  0
   -2.4562    1.5705   -1.5133 H   0  0  0  0  0  0  0  0  0  0  0  0
    1.4571   -2.0043    0.6545 H   0  0  0  0  0  0  0  0  0  0  0  0
    3.8666   -1.5715    1.1175 H   0  0  0  0  0  0  0  0  0  0  0  0
  1  2  1  0
  2  3  1  0
  3  4  1  0
  4  5  2  0
  5  6  1  0
  6  7  2  0
  7  8  1  0
  8  9  2  3
  9 10  1  0
 10 11  2  0
 11 12  1  0
 12 13  1  0
 13 14  2  0
 14 15  1  0
 15 16  2  0
 16 17  1  0
 17 18  2  0
  7 19  1  0
 19 20  2  0
 20  4  1  0
 18 10  1  0
 18 13  1  0
  1 21  1  0
  2 22  1  0
  2 23  1  0
  3 24  1  0
  3 25  1  0
  5 26  1  0
  6 27  1  0
  8 28  1  0
  9 29  1  0
 11 30  1  0
 12 31  1  0
 14 32  1  0
 15 33  1  0
 16 34  1  0
 17 35  1  0
 19 36  1  0
 20 37  1  0
M  CHG  1   4   1
M  END
$$$$
