
     RDKit          3D

 49 52  0  0  0  0  0  0  0  0999 V2000
   -8.3519   -4.9902    0.9843 C   0  0  0  0  0  0  0  0  0  0  0  0
   -6.9906   -4.5842    0.8379 O   0  0  0  0  0  0  0  0  0  0  0  0
   -6.8104   -3.5232   -0.0028 C   0  0  0  0  0  0  0  0  0  0  0  0
   -7.7309   -2.9611   -0.5847 O   0  0  0  0  0  0  0  0  0  0  0  0
   -5.4065   -3.1841   -0.0909 C   0  0  0  0  0  0  0  0  0  0  0  0
   -4.9271   -1.8702   -1.0940 S   0  0  0  0  0  0  0  0  0  0  0  0
   -3.3071   -2.1218   -0.6654 C   0  0  0  0  0  0  0  0  0  0  0  0
   -2.2701   -1.3639   -1.1409 N   0  0  0  0  0  0  0  0  0  0  0  0
   -2.3453   -0.2802   -1.9910 C   0  0  0  0  0  0  0  0  0  0  0  0
   -3.3616    0.2098   -2.4736 O   0  0  0  0  0  0  0  0  0  0  0  0
   -0.9792    0.3096   -2.2983 C   0  0  0  0  0  0  0  0  0  0  0  0
   -0.5528    1.5161   -1.0088 S   0  0  0  0  0  0  0  0  0  0  0  0
    1.0414    1.9460   -1.5116 C   0  0  0  0  0  0  0  0  0  0  0  0
    1.7713    1.3047   -2.3922 N   0  0  0  0  0  0  0  0  0  0  0  0
    2.9875    1.9336   -2.4646 N   0  0  0  0  0  0  0  0  0  0  0  0
    2.9797    2.9467   -1.6192 C   0  0  0  0  0  0  0  0  0  0  0  0
    4.1239    3.8596   -1.3640 C   0  0  0  0  0  0  0  0  0  0  0  0
    4.6543    3.6633   -0.0298 N   0  0  0  0  0  0  0  0  0  0  0  0
    4.4206    4.5867    0.9261 N   0  0  0  0  0  0  0  0  0  0  0  0
    5.0108    4.1677    2.0376 N   0  0  0  0  0  0  0  0  0  0  0  0
    5.6198    2.9700    1.7720 C   0  0  0  0  0  0  0  0  0  0  0  0
    6.3675    2.1206    2.5987 C   0  0  0  0  0  0  0  0  0  0  0  0
    6.8706    0.9318    2.0542 C   0  0  0  0  0  0  0  0  0  0  0  0
    6.6327    0.5983    0.7179 C   0  0  0  0  0  0  0  0  0  0  0  0
    5.8899    1.4366   -0.1221 C   0  0  0  0  0  0  0  0  0  0  0  0
    5.4028    2.6186    0.4447 C   0  0  0  0  0  0  0  0  0  0  0  0
    1.7432    3.0089   -1.0129 N   0  0  0  0  0  0  0  0  0  0  0  0
    1.2936    3.9799   -0.0461 C   0  0  0  0  0  0  0  0  0  0  0  0
   -3.0817   -3.1118    0.1628 N   0  0  0  0  0  0  0  0  0  0  0  0
   -4.2776   -3.7322    0.5045 C   0  0  0  0  0  0  0  0  0  0  0  0
   -4.2022   -4.8838    1.4446 C   0  0  0  0  0  0  0  0  0  0  0  0
   -8.9430   -4.1884    1.4375 H   0  0  0  0  0  0  0  0  0  0  0  0
   -8.3765   -5.8568    1.6508 H   0  0  0  0  0  0  0  0  0  0  0  0
   -8.7721   -5.2863    0.0177 H   0  0  0  0  0  0  0  0  0  0  0  0
   -1.3743   -1.6473   -0.7674 H   0  0  0  0  0  0  0  0  0  0  0  0
   -0.2344   -0.4923   -2.3446 H   0  0  0  0  0  0  0  0  0  0  0  0
   -1.0179    0.7946   -3.2791 H   0  0  0  0  0  0  0  0  0  0  0  0
    3.8320    4.9090   -1.4768 H   0  0  0  0  0  0  0  0  0  0  0  0
    4.9407    3.6664   -2.0681 H   0  0  0  0  0  0  0  0  0  0  0  0
    6.5461    2.3820    3.6361 H   0  0  0  0  0  0  0  0  0  0  0  0
    7.4505    0.2587    2.6820 H   0  0  0  0  0  0  0  0  0  0  0  0
    7.0287   -0.3353    0.3215 H   0  0  0  0  0  0  0  0  0  0  0  0
    5.6976    1.1674   -1.1565 H   0  0  0  0  0  0  0  0  0  0  0  0
    1.8333    4.9182   -0.1876 H   0  0  0  0  0  0  0  0  0  0  0  0
    1.4762    3.5788    0.9538 H   0  0  0  0  0  0  0  0  0  0  0  0
    0.2292    4.1796   -0.1902 H   0  0  0  0  0  0  0  0  0  0  0  0
   -4.6097   -5.7883    0.9817 H   0  0  0  0  0  0  0  0  0  0  0  0
   -4.7572   -4.6698    2.3632 H   0  0  0  0  0  0  0  0  0  0  0  0
   -3.1636   -5.0921    1.7228 H   0  0  0  0  0  0  0  0  0  0  0  0
  1  2  1  0
  2  3  1  0
  3  4  2  0
  3  5  1  0
  5  6  1  0
  6  7  1  0
  7  8  1  0
  8  9  1  0
  9 10  2  0
  9 11  1  0
 11 12  1  0
 12 13  1  0
 13 14  2  0
 14 15  1  0
 15 16  2  0
 16 17  1  0
 17 18  1  0
 18 19  1  0
 19 20  2  0
 20 21  1  0
 21 22  2  0
 22 23  1  0
 23 24  2  0
 24 25  1  0
 25 26  2  0
 16 27  1  0
 27 28  1  0
  7 29  2  0
 29 30  1  0
 30 31  1  0
 30  5  2  0
 27 13  1  0
 26 18  1  0
 26 21  1  0
  1 32  1  0
  1 33  1  0
  1 34  1  0
  8 35  1  0
 11 36  1  0
 11 37  1  0
 17 38  1  0
 17 39  1  0
 22 40  1  0
 23 41  1  0
 24 42  1  0
 25 43  1  0
 28 44  1  0
 28 45  1  0
 28 46  1  0
 31 47  1  0
 31 48  1  0
 31 49  1  0
M  END
$$$$
