
     RDKit          3D

 25 26  0  0  0  0  0  0  0  0999 V2000
   -3.1865    0.3328    2.2449 O   0  0  0  0  0  0  0  0  0  0  0  0
   -2.7155    0.0606    1.1544 C   0  0  0  0  0  0  0  0  0  0  0  0
   -3.3683    0.2775   -0.1752 C   0  0  0  0  0  0  0  0  0  0  0  0
   -2.5081   -0.5797   -1.0968 C   0  0  0  0  0  0  0  0  0  0  0  0
   -1.1895   -0.6883   -0.4473 N   0  0  0  0  0  0  0  0  0  0  0  0
   -0.2474    0.3162   -0.9825 C   0  0  0  0  0  0  0  0  0  0  0  0
    1.1350    0.1916   -0.3723 C   0  0  0  0  0  0  0  0  0  0  0  0
    1.9422   -0.9187   -0.6661 C   0  0  0  0  0  0  0  0  0  0  0  0
    3.2130   -1.0412   -0.1000 C   0  0  0  0  0  0  0  0  0  0  0  0
    3.6822   -0.0557    0.7653 C   0  0  0  0  0  0  0  0  0  0  0  0
    5.2475   -0.2062    1.4637 Cl  0  0  0  0  0  0  0  0  0  0  0  0
    2.8912    1.0496    1.0717 C   0  0  0  0  0  0  0  0  0  0  0  0
    1.6200    1.1728    0.5057 C   0  0  0  0  0  0  0  0  0  0  0  0
   -1.4608   -0.4540    0.9109 N   0  0  0  0  0  0  0  0  0  0  0  0
   -4.4072   -0.0598   -0.1593 H   0  0  0  0  0  0  0  0  0  0  0  0
   -3.3071    1.3395   -0.4312 H   0  0  0  0  0  0  0  0  0  0  0  0
   -2.9393   -1.5870   -1.1592 H   0  0  0  0  0  0  0  0  0  0  0  0
   -2.4733   -0.1864   -2.1189 H   0  0  0  0  0  0  0  0  0  0  0  0
   -0.6302    1.3360   -0.8400 H   0  0  0  0  0  0  0  0  0  0  0  0
   -0.1379    0.1766   -2.0662 H   0  0  0  0  0  0  0  0  0  0  0  0
    1.5767   -1.6974   -1.3329 H   0  0  0  0  0  0  0  0  0  0  0  0
    3.8268   -1.9064   -0.3350 H   0  0  0  0  0  0  0  0  0  0  0  0
    3.2560    1.8160    1.7503 H   0  0  0  0  0  0  0  0  0  0  0  0
    1.0090    2.0370    0.7584 H   0  0  0  0  0  0  0  0  0  0  0  0
   -0.8286   -0.7252    1.6576 H   0  0  0  0  0  0  0  0  0  0  0  0
  1  2  2  0
  2  3  1  0
  3  4  1  0
  4  5  1  0
  5  6  1  0
  6  7  1  0
  7  8  2  0
  8  9  1  0
  9 10  2  0
 10 11  1  0
 10 12  1  0
 12 13  2  0
  5 14  1  0
 14  2  1  0
 13  7  1  0
  3 15  1  0
  3 16  1  0
  4 17  1  0
  4 18  1  0
  6 19  1  0
  6 20  1  0
  8 21  1  0
  9 22  1  0
 12 23  1  0
 13 24  1  0
 14 25  1  0
M  END
$$$$
