
     RDKit          3D

 38 38  0  0  0  0  0  0  0  0999 V2000
    5.0005   -0.7494   -3.8181 C   0  0  0  0  0  0  0  0  0  0  0  0
    4.8144   -0.8459   -2.3154 C   0  0  0  0  0  0  0  0  0  0  0  0
    3.4409   -0.6095   -1.9752 O   0  0  0  0  0  0  0  0  0  0  0  0
    3.1020    0.6901   -1.7501 C   0  0  0  0  0  0  0  0  0  0  0  0
    3.8448    1.6539   -1.8860 O   0  0  0  0  0  0  0  0  0  0  0  0
    1.6553    0.8007   -1.3733 C   0  0  0  0  0  0  0  0  0  0  0  0
    1.3411    0.2510   -0.0066 C   0  0  0  0  0  0  0  0  0  0  0  0
    2.2173   -0.0886    0.7860 O   0  0  0  0  0  0  0  0  0  0  0  0
   -0.0926    0.1282    0.4066 C   0  0  0  0  0  0  0  0  0  0  0  0
   -1.1363    0.6758   -0.3538 C   0  0  0  0  0  0  0  0  0  0  0  0
   -2.4602    0.5403    0.0717 C   0  0  0  0  0  0  0  0  0  0  0  0
   -3.5468    1.0460   -0.5949 O   0  0  0  0  0  0  0  0  0  0  0  0
   -3.3659    1.4206   -1.9541 C   0  0  0  0  0  0  0  0  0  0  0  0
   -2.7258   -0.1253    1.2812 C   0  0  0  0  0  0  0  0  0  0  0  0
   -4.0341   -0.2924    1.6782 O   0  0  0  0  0  0  0  0  0  0  0  0
   -4.4173    0.7740    2.5471 C   0  0  0  0  0  0  0  0  0  0  0  0
   -1.6929   -0.6929    2.0455 C   0  0  0  0  0  0  0  0  0  0  0  0
   -2.0697   -1.3426    3.1925 O   0  0  0  0  0  0  0  0  0  0  0  0
   -1.0555   -2.0119    3.9286 C   0  0  0  0  0  0  0  0  0  0  0  0
   -0.3772   -0.5527    1.6027 C   0  0  0  0  0  0  0  0  0  0  0  0
    4.3336   -1.4491   -4.3324 H   0  0  0  0  0  0  0  0  0  0  0  0
    4.7522    0.2536   -4.1810 H   0  0  0  0  0  0  0  0  0  0  0  0
    6.0335   -0.9772   -4.0973 H   0  0  0  0  0  0  0  0  0  0  0  0
    5.4825   -0.1593   -1.7835 H   0  0  0  0  0  0  0  0  0  0  0  0
    5.0590   -1.8587   -1.9776 H   0  0  0  0  0  0  0  0  0  0  0  0
    1.3880    1.8630   -1.3941 H   0  0  0  0  0  0  0  0  0  0  0  0
    1.0726    0.2799   -2.1404 H   0  0  0  0  0  0  0  0  0  0  0  0
   -0.9180    1.2215   -1.2639 H   0  0  0  0  0  0  0  0  0  0  0  0
   -4.3519    1.6395   -2.3750 H   0  0  0  0  0  0  0  0  0  0  0  0
   -2.9266    0.6051   -2.5392 H   0  0  0  0  0  0  0  0  0  0  0  0
   -2.7623    2.3309   -2.0303 H   0  0  0  0  0  0  0  0  0  0  0  0
   -4.3077    1.7496    2.0597 H   0  0  0  0  0  0  0  0  0  0  0  0
   -3.8461    0.7503    3.4814 H   0  0  0  0  0  0  0  0  0  0  0  0
   -5.4740    0.6400    2.7954 H   0  0  0  0  0  0  0  0  0  0  0  0
   -1.5350   -2.5128    4.7746 H   0  0  0  0  0  0  0  0  0  0  0  0
   -0.3274   -1.3007    4.3314 H   0  0  0  0  0  0  0  0  0  0  0  0
   -0.5649   -2.7796    3.3214 H   0  0  0  0  0  0  0  0  0  0  0  0
    0.4506   -0.9651    2.1734 H   0  0  0  0  0  0  0  0  0  0  0  0
  1  2  1  0
  2  3  1  0
  3  4  1  0
  4  5  2  0
  4  6  1  0
  6  7  1  0
  7  8  2  0
  7  9  1  0
  9 10  2  0
 10 11  1  0
 11 12  1  0
 12 13  1  0
 11 14  2  0
 14 15  1  0
 15 16  1  0
 14 17  1  0
 17 18  1  0
 18 19  1  0
 17 20  2  0
 20  9  1  0
  1 21  1  0
  1 22  1  0
  1 23  1  0
  2 24  1  0
  2 25  1  0
  6 26  1  0
  6 27  1  0
 10 28  1  0
 13 29  1  0
 13 30  1  0
 13 31  1  0
 16 32  1  0
 16 33  1  0
 16 34  1  0
 19 35  1  0
 19 36  1  0
 19 37  1  0
 20 38  1  0
M  END
$$$$
