
     RDKit          3D

 47 48  0  0  0  0  0  0  0  0999 V2000
    7.0015   -0.5675    1.8739 C   0  0  0  0  0  0  0  0  0  0  0  0
    7.2676   -0.3995    0.4859 O   0  0  0  0  0  0  0  0  0  0  0  0
    6.2287    0.0440   -0.2919 C   0  0  0  0  0  0  0  0  0  0  0  0
    4.9411    0.3571    0.1494 C   0  0  0  0  0  0  0  0  0  0  0  0
    3.9637    0.7986   -0.7609 C   0  0  0  0  0  0  0  0  0  0  0  0
    2.6061    1.1658   -0.3289 C   0  0  0  0  0  0  0  0  0  0  0  0
    1.9061    0.4531    0.5659 C   0  0  0  0  0  0  0  0  0  0  0  0
    0.5271    0.7848    1.0253 C   0  0  0  0  0  0  0  0  0  0  0  0
   -0.0083    0.0151    1.8220 O   0  0  0  0  0  0  0  0  0  0  0  0
   -0.1605    2.0135    0.4867 C   0  0  0  0  0  0  0  0  0  0  0  0
   -1.4717    2.3300    1.1603 C   0  0  0  0  0  0  0  0  0  0  0  0
   -1.5705    3.2819    1.9374 O   0  0  0  0  0  0  0  0  0  0  0  0
   -2.6943    1.5271    0.8781 C   0  0  0  0  0  0  0  0  0  0  0  0
   -2.7688    0.5149    0.0017 C   0  0  0  0  0  0  0  0  0  0  0  0
   -4.0086   -0.2399   -0.2256 C   0  0  0  0  0  0  0  0  0  0  0  0
   -4.4163   -0.4922   -1.5427 C   0  0  0  0  0  0  0  0  0  0  0  0
   -5.5762   -1.2244   -1.7929 C   0  0  0  0  0  0  0  0  0  0  0  0
   -6.3158   -1.7104   -0.7234 C   0  0  0  0  0  0  0  0  0  0  0  0
   -7.4496   -2.4269   -0.9952 O   0  0  0  0  0  0  0  0  0  0  0  0
   -5.9238   -1.4884    0.6012 C   0  0  0  0  0  0  0  0  0  0  0  0
   -6.7495   -2.0385    1.5484 O   0  0  0  0  0  0  0  0  0  0  0  0
   -6.3698   -1.8560    2.9080 C   0  0  0  0  0  0  0  0  0  0  0  0
   -4.7622   -0.7535    0.8449 C   0  0  0  0  0  0  0  0  0  0  0  0
    4.3010    0.9485   -2.1139 C   0  0  0  0  0  0  0  0  0  0  0  0
    5.5846    0.6373   -2.5611 C   0  0  0  0  0  0  0  0  0  0  0  0
    6.5301    0.1884   -1.6501 C   0  0  0  0  0  0  0  0  0  0  0  0
    7.7824   -0.1094   -2.1138 O   0  0  0  0  0  0  0  0  0  0  0  0
    7.9190   -0.9283    2.3483 H   0  0  0  0  0  0  0  0  0  0  0  0
    6.7371    0.3861    2.3425 H   0  0  0  0  0  0  0  0  0  0  0  0
    6.2230   -1.3198    2.0382 H   0  0  0  0  0  0  0  0  0  0  0  0
    4.6813    0.2760    1.1996 H   0  0  0  0  0  0  0  0  0  0  0  0
    2.1987    2.0527   -0.8060 H   0  0  0  0  0  0  0  0  0  0  0  0
    2.3072   -0.4501    1.0178 H   0  0  0  0  0  0  0  0  0  0  0  0
   -0.3227    1.9135   -0.5912 H   0  0  0  0  0  0  0  0  0  0  0  0
    0.4941    2.8789    0.6457 H   0  0  0  0  0  0  0  0  0  0  0  0
   -3.5597    1.8433    1.4544 H   0  0  0  0  0  0  0  0  0  0  0  0
   -1.9214    0.1963   -0.5965 H   0  0  0  0  0  0  0  0  0  0  0  0
   -3.8411   -0.1139   -2.3844 H   0  0  0  0  0  0  0  0  0  0  0  0
   -5.9009   -1.4163   -2.8111 H   0  0  0  0  0  0  0  0  0  0  0  0
   -7.8064   -2.6736   -0.1197 H   0  0  0  0  0  0  0  0  0  0  0  0
   -6.3618   -0.7945    3.1761 H   0  0  0  0  0  0  0  0  0  0  0  0
   -5.4019   -2.3251    3.1131 H   0  0  0  0  0  0  0  0  0  0  0  0
   -7.1193   -2.3514    3.5328 H   0  0  0  0  0  0  0  0  0  0  0  0
   -4.4158   -0.5767    1.8581 H   0  0  0  0  0  0  0  0  0  0  0  0
    3.5667    1.3005   -2.8350 H   0  0  0  0  0  0  0  0  0  0  0  0
    5.8469    0.7451   -3.6093 H   0  0  0  0  0  0  0  0  0  0  0  0
    8.2826   -0.3960   -1.3250 H   0  0  0  0  0  0  0  0  0  0  0  0
  1  2  1  0
  2  3  1  0
  3  4  2  0
  4  5  1  0
  5  6  1  0
  6  7  2  3
  7  8  1  0
  8  9  2  0
  8 10  1  0
 10 11  1  0
 11 12  2  0
 11 13  1  0
 13 14  2  3
 14 15  1  0
 15 16  2  0
 16 17  1  0
 17 18  2  0
 18 19  1  0
 18 20  1  0
 20 21  1  0
 21 22  1  0
 20 23  2  0
  5 24  2  0
 24 25  1  0
 25 26  2  0
 26 27  1  0
 26  3  1  0
 23 15  1  0
  1 28  1  0
  1 29  1  0
  1 30  1  0
  4 31  1  0
  6 32  1  0
  7 33  1  0
 10 34  1  0
 10 35  1  0
 13 36  1  0
 14 37  1  0
 16 38  1  0
 17 39  1  0
 19 40  1  0
 22 41  1  0
 22 42  1  0
 22 43  1  0
 23 44  1  0
 24 45  1  0
 25 46  1  0
 27 47  1  0
M  END
$$$$
