
     RDKit          3D

 34 35  0  0  0  0  0  0  0  0999 V2000
    4.3210    1.0526   -0.9604 C   0  0  0  0  0  0  0  0  0  0  0  0
    3.0040    0.4734   -1.4450 C   0  0  0  0  0  0  0  0  0  0  0  0
    1.9398    0.6391   -0.4712 N   0  0  0  0  0  0  0  0  0  0  0  0
    1.1615    1.7349   -0.5523 N   0  0  0  0  0  0  0  0  0  0  0  0
    0.3038    1.5945    0.4587 C   0  0  0  0  0  0  0  0  0  0  0  0
    0.5265    0.4097    1.1884 C   0  0  0  0  0  0  0  0  0  0  0  0
   -0.1461   -0.0764    2.3456 C   0  0  0  0  0  0  0  0  0  0  0  0
   -1.4534   -0.0117    2.6406 C   0  0  0  0  0  0  0  0  0  0  0  0
   -2.5381    0.5499    1.7988 C   0  0  0  0  0  0  0  0  0  0  0  0
   -3.2952    1.3818    2.2915 O   0  0  0  0  0  0  0  0  0  0  0  0
   -2.7435    0.0673    0.4063 C   0  0  0  0  0  0  0  0  0  0  0  0
   -3.4784    0.8783   -0.4695 C   0  0  0  0  0  0  0  0  0  0  0  0
   -3.7161    0.4652   -1.7813 C   0  0  0  0  0  0  0  0  0  0  0  0
   -3.2301   -0.7642   -2.2229 C   0  0  0  0  0  0  0  0  0  0  0  0
   -2.5102   -1.5834   -1.3542 C   0  0  0  0  0  0  0  0  0  0  0  0
   -2.2699   -1.1733   -0.0397 C   0  0  0  0  0  0  0  0  0  0  0  0
    1.6066   -0.1951    0.5716 C   0  0  0  0  0  0  0  0  0  0  0  0
    2.3349   -1.4553    0.8684 C   0  0  0  0  0  0  0  0  0  0  0  0
    4.2293    2.1231   -0.7514 H   0  0  0  0  0  0  0  0  0  0  0  0
    5.0968    0.9193   -1.7200 H   0  0  0  0  0  0  0  0  0  0  0  0
    4.6557    0.5603   -0.0417 H   0  0  0  0  0  0  0  0  0  0  0  0
    3.1046   -0.5935   -1.6627 H   0  0  0  0  0  0  0  0  0  0  0  0
    2.6868    0.9653   -2.3712 H   0  0  0  0  0  0  0  0  0  0  0  0
   -0.4366    2.3674    0.6242 H   0  0  0  0  0  0  0  0  0  0  0  0
    0.4914   -0.5385    3.0987 H   0  0  0  0  0  0  0  0  0  0  0  0
   -1.7980   -0.3410    3.6165 H   0  0  0  0  0  0  0  0  0  0  0  0
   -3.8680    1.8369   -0.1313 H   0  0  0  0  0  0  0  0  0  0  0  0
   -4.2811    1.1028   -2.4564 H   0  0  0  0  0  0  0  0  0  0  0  0
   -3.4174   -1.0858   -3.2445 H   0  0  0  0  0  0  0  0  0  0  0  0
   -2.1391   -2.5449   -1.6992 H   0  0  0  0  0  0  0  0  0  0  0  0
   -1.7194   -1.8381    0.6198 H   0  0  0  0  0  0  0  0  0  0  0  0
    3.3259   -1.2365    1.2788 H   0  0  0  0  0  0  0  0  0  0  0  0
    2.4565   -2.0647   -0.0321 H   0  0  0  0  0  0  0  0  0  0  0  0
    1.7958   -2.0659    1.5996 H   0  0  0  0  0  0  0  0  0  0  0  0
  1  2  1  0
  2  3  1  0
  3  4  1  0
  4  5  2  0
  5  6  1  0
  6  7  1  0
  7  8  2  3
  8  9  1  0
  9 10  2  0
  9 11  1  0
 11 12  2  0
 12 13  1  0
 13 14  2  0
 14 15  1  0
 15 16  2  0
  6 17  2  0
 17 18  1  0
 17  3  1  0
 16 11  1  0
  1 19  1  0
  1 20  1  0
  1 21  1  0
  2 22  1  0
  2 23  1  0
  5 24  1  0
  7 25  1  0
  8 26  1  0
 12 27  1  0
 13 28  1  0
 14 29  1  0
 15 30  1  0
 16 31  1  0
 18 32  1  0
 18 33  1  0
 18 34  1  0
M  END
$$$$
