
     RDKit          3D

 65 69  0  0  0  0  0  0  0  0999 V2000
   -3.7934   -6.1003    0.4593 C   0  0  0  0  0  0  0  0  0  0  0  0
   -3.8908   -4.7850   -0.0705 O   0  0  0  0  0  0  0  0  0  0  0  0
   -3.8608   -3.7523    0.8267 C   0  0  0  0  0  0  0  0  0  0  0  0
   -3.7979   -3.8740    2.2141 C   0  0  0  0  0  0  0  0  0  0  0  0
   -3.7799   -2.7318    3.0202 C   0  0  0  0  0  0  0  0  0  0  0  0
   -3.8308   -1.4639    2.4416 C   0  0  0  0  0  0  0  0  0  0  0  0
   -3.9000   -1.3279    1.0501 C   0  0  0  0  0  0  0  0  0  0  0  0
   -3.9514   -0.0008    0.4311 C   0  0  0  0  0  0  0  0  0  0  0  0
   -5.3850    0.9168    0.5988 S   0  0  0  0  0  0  0  0  0  0  0  0
   -4.7662    2.2193   -0.3325 C   0  0  0  0  0  0  0  0  0  0  0  0
   -5.4290    3.4201   -0.6501 C   0  0  0  0  0  0  0  0  0  0  0  0
   -4.7673    4.3833   -1.4197 C   0  0  0  0  0  0  0  0  0  0  0  0
   -3.4707    4.1645   -1.8651 C   0  0  0  0  0  0  0  0  0  0  0  0
   -2.7209    5.0270   -2.6172 O   0  0  0  0  0  0  0  0  0  0  0  0
   -3.3182    6.2715   -2.9578 C   0  0  0  0  0  0  0  0  0  0  0  0
   -2.8247    2.9651   -1.5440 C   0  0  0  0  0  0  0  0  0  0  0  0
   -3.4668    1.9635   -0.7712 C   0  0  0  0  0  0  0  0  0  0  0  0
   -3.0035    0.6679   -0.3268 C   0  0  0  0  0  0  0  0  0  0  0  0
   -1.6949    0.0885   -0.6071 C   0  0  0  0  0  0  0  0  0  0  0  0
   -1.3836   -0.3482   -1.8962 C   0  0  0  0  0  0  0  0  0  0  0  0
   -0.1224   -0.8861   -2.1638 C   0  0  0  0  0  0  0  0  0  0  0  0
    0.8418   -0.9877   -1.1570 C   0  0  0  0  0  0  0  0  0  0  0  0
    2.0331   -1.5179   -1.5673 O   0  0  0  0  0  0  0  0  0  0  0  0
    3.1092   -1.6078   -0.6279 C   0  0  0  0  0  0  0  0  0  0  0  0
    3.8807   -0.2783   -0.5480 C   0  0  0  0  0  0  0  0  0  0  0  0
    4.9481   -0.2777    0.4674 N   0  0  0  0  0  0  0  0  0  0  0  0
    5.3007    1.1036    0.8371 C   0  0  0  0  0  0  0  0  0  0  0  0
    6.6067    1.1663    1.6237 C   0  0  0  0  0  0  0  0  0  0  0  0
    7.7837    0.6624    0.7896 C   0  0  0  0  0  0  0  0  0  0  0  0
    7.3401   -0.2880   -0.3210 C   0  0  0  0  0  0  0  0  0  0  0  0
    6.1110   -1.0981    0.0907 C   0  0  0  0  0  0  0  0  0  0  0  0
    0.5284   -0.5509    0.1298 C   0  0  0  0  0  0  0  0  0  0  0  0
   -0.7347   -0.0137    0.4038 C   0  0  0  0  0  0  0  0  0  0  0  0
   -3.9093   -2.4790    0.2524 C   0  0  0  0  0  0  0  0  0  0  0  0
   -4.6501   -6.3313    1.1014 H   0  0  0  0  0  0  0  0  0  0  0  0
   -2.8484   -6.2412    0.9939 H   0  0  0  0  0  0  0  0  0  0  0  0
   -3.8090   -6.8012   -0.3811 H   0  0  0  0  0  0  0  0  0  0  0  0
   -3.7635   -4.8419    2.7020 H   0  0  0  0  0  0  0  0  0  0  0  0
   -3.7293   -2.8331    4.1008 H   0  0  0  0  0  0  0  0  0  0  0  0
   -3.8142   -0.5826    3.0791 H   0  0  0  0  0  0  0  0  0  0  0  0
   -6.4428    3.5990   -0.3023 H   0  0  0  0  0  0  0  0  0  0  0  0
   -5.3038    5.2978   -1.6506 H   0  0  0  0  0  0  0  0  0  0  0  0
   -4.2039    6.1260   -3.5866 H   0  0  0  0  0  0  0  0  0  0  0  0
   -2.5880    6.8441   -3.5388 H   0  0  0  0  0  0  0  0  0  0  0  0
   -3.5595    6.8520   -2.0606 H   0  0  0  0  0  0  0  0  0  0  0  0
   -1.8080    2.8014   -1.8940 H   0  0  0  0  0  0  0  0  0  0  0  0
   -2.1153   -0.2765   -2.6967 H   0  0  0  0  0  0  0  0  0  0  0  0
    0.1115   -1.2264   -3.1690 H   0  0  0  0  0  0  0  0  0  0  0  0
    3.7691   -2.3940   -1.0097 H   0  0  0  0  0  0  0  0  0  0  0  0
    2.7687   -1.9596    0.3530 H   0  0  0  0  0  0  0  0  0  0  0  0
    4.2770   -0.0180   -1.5386 H   0  0  0  0  0  0  0  0  0  0  0  0
    3.1582    0.5131   -0.3114 H   0  0  0  0  0  0  0  0  0  0  0  0
    4.4947    1.5232    1.4502 H   0  0  0  0  0  0  0  0  0  0  0  0
    5.3946    1.7377   -0.0537 H   0  0  0  0  0  0  0  0  0  0  0  0
    6.5163    0.5576    2.5328 H   0  0  0  0  0  0  0  0  0  0  0  0
    6.8013    2.1918    1.9560 H   0  0  0  0  0  0  0  0  0  0  0  0
    8.3165    1.5099    0.3396 H   0  0  0  0  0  0  0  0  0  0  0  0
    8.4992    0.1614    1.4525 H   0  0  0  0  0  0  0  0  0  0  0  0
    8.1674   -0.9582   -0.5817 H   0  0  0  0  0  0  0  0  0  0  0  0
    7.1075    0.2869   -1.2277 H   0  0  0  0  0  0  0  0  0  0  0  0
    5.8736   -1.8107   -0.7072 H   0  0  0  0  0  0  0  0  0  0  0  0
    6.3774   -1.7097    0.9629 H   0  0  0  0  0  0  0  0  0  0  0  0
    1.2393   -0.6049    0.9469 H   0  0  0  0  0  0  0  0  0  0  0  0
   -0.9598    0.3268    1.4115 H   0  0  0  0  0  0  0  0  0  0  0  0
   -3.9582   -2.3902   -0.8296 H   0  0  0  0  0  0  0  0  0  0  0  0
  1  2  1  0
  2  3  1  0
  3  4  2  0
  4  5  1  0
  5  6  2  0
  6  7  1  0
  7  8  1  0
  8  9  1  0
  9 10  1  0
 10 11  2  0
 11 12  1  0
 12 13  2  0
 13 14  1  0
 14 15  1  0
 13 16  1  0
 16 17  2  0
 17 18  1  0
 18 19  1  0
 19 20  2  0
 20 21  1  0
 21 22  2  0
 22 23  1  0
 23 24  1  0
 24 25  1  0
 25 26  1  0
 26 27  1  0
 27 28  1  0
 28 29  1  0
 29 30  1  0
 30 31  1  0
 22 32  1  0
 32 33  2  0
  7 34  2  0
 34  3  1  0
 18  8  2  0
 33 19  1  0
 17 10  1  0
 31 26  1  0
  1 35  1  0
  1 36  1  0
  1 37  1  0
  4 38  1  0
  5 39  1  0
  6 40  1  0
 11 41  1  0
 12 42  1  0
 15 43  1  0
 15 44  1  0
 15 45  1  0
 16 46  1  0
 20 47  1  0
 21 48  1  0
 24 49  1  0
 24 50  1  0
 25 51  1  0
 25 52  1  0
 27 53  1  0
 27 54  1  0
 28 55  1  0
 28 56  1  0
 29 57  1  0
 29 58  1  0
 30 59  1  0
 30 60  1  0
 31 61  1  0
 31 62  1  0
 32 63  1  0
 33 64  1  0
 34 65  1  0
M  END
$$$$
