
     RDKit          3D

 40 41  0  0  0  0  0  0  0  0999 V2000
   -2.0579   -1.9333   -5.4346 C   0  0  0  0  0  0  0  0  0  0  0  0
   -1.6689   -0.7605   -4.5506 C   0  0  0  0  0  0  0  0  0  0  0  0
   -1.1861   -1.2166   -3.2862 O   0  0  0  0  0  0  0  0  0  0  0  0
   -2.1431   -1.3811   -2.3064 C   0  0  0  0  0  0  0  0  0  0  0  0
   -3.4498   -1.2413   -2.6444 N   0  0  0  0  0  0  0  0  0  0  0  0
   -4.3690   -1.4817   -1.6829 C   0  0  0  0  0  0  0  0  0  0  0  0
   -4.0514   -1.8677   -0.3918 C   0  0  0  0  0  0  0  0  0  0  0  0
   -2.7075   -2.0077   -0.0618 C   0  0  0  0  0  0  0  0  0  0  0  0
   -1.7312   -1.7476   -1.0294 C   0  0  0  0  0  0  0  0  0  0  0  0
   -0.3189   -1.9086   -0.6536 C   0  0  0  0  0  0  0  0  0  0  0  0
    0.0798   -2.8292    0.0426 O   0  0  0  0  0  0  0  0  0  0  0  0
    0.4029   -0.8548   -1.0980 O   0  0  0  0  0  0  0  0  0  0  0  0
    1.7858   -0.8530   -0.7304 C   0  0  0  0  0  0  0  0  0  0  0  0
    1.9754    0.0039    0.4956 C   0  0  0  0  0  0  0  0  0  0  0  0
    2.0267    1.4002    0.3857 C   0  0  0  0  0  0  0  0  0  0  0  0
    2.1798    2.1977    1.5239 C   0  0  0  0  0  0  0  0  0  0  0  0
    2.2751    1.6073    2.7906 C   0  0  0  0  0  0  0  0  0  0  0  0
    2.4361    2.4070    4.0358 C   0  0  0  0  0  0  0  0  0  0  0  0
    2.5067    1.9141    5.1508 O   0  0  0  0  0  0  0  0  0  0  0  0
    2.4921    3.7326    3.7511 O   0  0  0  0  0  0  0  0  0  0  0  0
    2.6483    4.5656    4.9006 C   0  0  0  0  0  0  0  0  0  0  0  0
    2.2112    0.2126    2.9040 C   0  0  0  0  0  0  0  0  0  0  0  0
    2.0587   -0.5826    1.7651 C   0  0  0  0  0  0  0  0  0  0  0  0
   -1.2209   -2.6324   -5.5342 H   0  0  0  0  0  0  0  0  0  0  0  0
   -2.8928   -2.4966   -5.0070 H   0  0  0  0  0  0  0  0  0  0  0  0
   -2.3471   -1.5867   -6.4309 H   0  0  0  0  0  0  0  0  0  0  0  0
   -2.4763   -0.0241   -4.4589 H   0  0  0  0  0  0  0  0  0  0  0  0
   -0.8343   -0.2323   -5.0259 H   0  0  0  0  0  0  0  0  0  0  0  0
   -5.4038   -1.3578   -1.9910 H   0  0  0  0  0  0  0  0  0  0  0  0
   -4.8303   -2.0572    0.3389 H   0  0  0  0  0  0  0  0  0  0  0  0
   -2.4198   -2.3149    0.9411 H   0  0  0  0  0  0  0  0  0  0  0  0
    2.1846   -1.8645   -0.5839 H   0  0  0  0  0  0  0  0  0  0  0  0
    2.3494   -0.4259   -1.5682 H   0  0  0  0  0  0  0  0  0  0  0  0
    1.9413    1.8750   -0.5900 H   0  0  0  0  0  0  0  0  0  0  0  0
    2.2179    3.2778    1.4059 H   0  0  0  0  0  0  0  0  0  0  0  0
    1.7962    4.4488    5.5776 H   0  0  0  0  0  0  0  0  0  0  0  0
    2.6821    5.6052    4.5632 H   0  0  0  0  0  0  0  0  0  0  0  0
    3.5873    4.3378    5.4147 H   0  0  0  0  0  0  0  0  0  0  0  0
    2.2753   -0.2627    3.8813 H   0  0  0  0  0  0  0  0  0  0  0  0
    1.9967   -1.6646    1.8750 H   0  0  0  0  0  0  0  0  0  0  0  0
  1  2  1  0
  2  3  1  0
  3  4  1  0
  4  5  2  0
  5  6  1  0
  6  7  2  0
  7  8  1  0
  8  9  2  0
  9 10  1  0
 10 11  2  0
 10 12  1  0
 12 13  1  0
 13 14  1  0
 14 15  2  0
 15 16  1  0
 16 17  2  0
 17 18  1  0
 18 19  2  0
 18 20  1  0
 20 21  1  0
 17 22  1  0
 22 23  2  0
  9  4  1  0
 23 14  1  0
  1 24  1  0
  1 25  1  0
  1 26  1  0
  2 27  1  0
  2 28  1  0
  6 29  1  0
  7 30  1  0
  8 31  1  0
 13 32  1  0
 13 33  1  0
 15 34  1  0
 16 35  1  0
 21 36  1  0
 21 37  1  0
 21 38  1  0
 22 39  1  0
 23 40  1  0
M  END
$$$$
