
     RDKit          3D

 51 54  0  0  0  0  0  0  0  0999 V2000
    6.3741    1.5381    1.4474 C   0  0  0  0  0  0  0  0  0  0  0  0
    5.2603    0.5834    1.1366 C   0  0  0  0  0  0  0  0  0  0  0  0
    4.1371    0.9947    0.4087 C   0  0  0  0  0  0  0  0  0  0  0  0
    3.0621    0.1189    0.1333 C   0  0  0  0  0  0  0  0  0  0  0  0
    1.8614    0.7220   -0.5443 C   0  0  0  0  0  0  0  0  0  0  0  0
    3.1516   -1.2222    0.5512 C   0  0  0  0  0  0  0  0  0  0  0  0
    2.1810   -2.2251    0.2891 N   0  0  0  0  0  0  0  0  0  0  0  0
    1.4290   -2.3914   -0.8615 C   0  0  0  0  0  0  0  0  0  0  0  0
    1.5077   -1.7038   -1.8779 O   0  0  0  0  0  0  0  0  0  0  0  0
    0.5004   -3.6000   -0.7914 C   0  0  0  0  0  0  0  0  0  0  0  0
   -1.1849   -3.1577   -1.3101 S   0  0  0  0  0  0  0  0  0  0  0  0
   -1.6122   -2.0560   -0.0497 C   0  0  0  0  0  0  0  0  0  0  0  0
   -1.1026   -2.0475    1.1571 N   0  0  0  0  0  0  0  0  0  0  0  0
   -1.7153   -1.0411    1.8575 N   0  0  0  0  0  0  0  0  0  0  0  0
   -2.5777   -0.4347    1.0591 C   0  0  0  0  0  0  0  0  0  0  0  0
   -3.4493    0.6654    1.4577 C   0  0  0  0  0  0  0  0  0  0  0  0
   -3.4385    1.8926    0.7957 C   0  0  0  0  0  0  0  0  0  0  0  0
   -4.2967    2.8859    1.2370 C   0  0  0  0  0  0  0  0  0  0  0  0
   -5.1390    2.7418    2.2813 N   0  0  0  0  0  0  0  0  0  0  0  0
   -5.1089    1.5583    2.9276 C   0  0  0  0  0  0  0  0  0  0  0  0
   -4.2906    0.5043    2.5602 C   0  0  0  0  0  0  0  0  0  0  0  0
   -2.5395   -1.0568   -0.1745 N   0  0  0  0  0  0  0  0  0  0  0  0
   -3.3739   -0.7678   -1.3249 C   0  0  0  0  0  0  0  0  0  0  0  0
   -2.7572    0.2594   -2.2049 C   0  0  0  0  0  0  0  0  0  0  0  0
   -1.4764    0.5071   -2.6570 C   0  0  0  0  0  0  0  0  0  0  0  0
   -1.5531    1.6662   -3.4653 C   0  0  0  0  0  0  0  0  0  0  0  0
   -2.8729    2.0450   -3.4721 C   0  0  0  0  0  0  0  0  0  0  0  0
   -3.6102    1.2006   -2.7094 O   0  0  0  0  0  0  0  0  0  0  0  0
    4.2607   -1.6086    1.3382 C   0  0  0  0  0  0  0  0  0  0  0  0
    4.3950   -3.2263    1.9569 Cl  0  0  0  0  0  0  0  0  0  0  0  0
    5.3029   -0.7228    1.6228 C   0  0  0  0  0  0  0  0  0  0  0  0
    6.3064    2.4454    0.8377 H   0  0  0  0  0  0  0  0  0  0  0  0
    7.3433    1.0730    1.2387 H   0  0  0  0  0  0  0  0  0  0  0  0
    6.3357    1.8281    2.5028 H   0  0  0  0  0  0  0  0  0  0  0  0
    4.0781    2.0285    0.0653 H   0  0  0  0  0  0  0  0  0  0  0  0
    1.7500    1.7776   -0.2652 H   0  0  0  0  0  0  0  0  0  0  0  0
    0.9337    0.2350   -0.2287 H   0  0  0  0  0  0  0  0  0  0  0  0
    1.9683    0.6783   -1.6295 H   0  0  0  0  0  0  0  0  0  0  0  0
    2.2718   -3.0440    0.8830 H   0  0  0  0  0  0  0  0  0  0  0  0
    0.8941   -4.3615   -1.4727 H   0  0  0  0  0  0  0  0  0  0  0  0
    0.4765   -4.0369    0.2136 H   0  0  0  0  0  0  0  0  0  0  0  0
   -2.7693    2.0935   -0.0331 H   0  0  0  0  0  0  0  0  0  0  0  0
   -4.3256    3.8559    0.7500 H   0  0  0  0  0  0  0  0  0  0  0  0
   -5.7804    1.4763    3.7775 H   0  0  0  0  0  0  0  0  0  0  0  0
   -4.3051   -0.4220    3.1261 H   0  0  0  0  0  0  0  0  0  0  0  0
   -3.5518   -1.6917   -1.8811 H   0  0  0  0  0  0  0  0  0  0  0  0
   -4.3511   -0.4369   -0.9548 H   0  0  0  0  0  0  0  0  0  0  0  0
   -0.5884   -0.0724   -2.4355 H   0  0  0  0  0  0  0  0  0  0  0  0
   -0.7424    2.1586   -3.9855 H   0  0  0  0  0  0  0  0  0  0  0  0
   -3.4200    2.8497   -3.9451 H   0  0  0  0  0  0  0  0  0  0  0  0
    6.1521   -1.0561    2.2148 H   0  0  0  0  0  0  0  0  0  0  0  0
  1  2  1  0
  2  3  2  0
  3  4  1  0
  4  5  1  0
  4  6  2  0
  6  7  1  0
  7  8  1  0
  8  9  2  0
  8 10  1  0
 10 11  1  0
 11 12  1  0
 12 13  2  0
 13 14  1  0
 14 15  2  0
 15 16  1  0
 16 17  2  0
 17 18  1  0
 18 19  2  0
 19 20  1  0
 20 21  2  0
 15 22  1  0
 22 23  1  0
 23 24  1  0
 24 25  2  0
 25 26  1  0
 26 27  2  0
 27 28  1  0
  6 29  1  0
 29 30  1  0
 29 31  2  0
 31  2  1  0
 22 12  1  0
 28 24  1  0
 21 16  1  0
  1 32  1  0
  1 33  1  0
  1 34  1  0
  3 35  1  0
  5 36  1  0
  5 37  1  0
  5 38  1  0
  7 39  1  0
 10 40  1  0
 10 41  1  0
 17 42  1  0
 18 43  1  0
 20 44  1  0
 21 45  1  0
 23 46  1  0
 23 47  1  0
 25 48  1  0
 26 49  1  0
 27 50  1  0
 31 51  1  0
M  END
$$$$
