
     RDKit          3D

 36 37  0  0  0  0  0  0  0  0999 V2000
   -7.2542   -0.1689    0.9309 C   0  0  0  0  0  0  0  0  0  0  0  0
   -6.2667    0.8528    0.8696 O   0  0  0  0  0  0  0  0  0  0  0  0
   -4.9971    0.4676    0.5400 C   0  0  0  0  0  0  0  0  0  0  0  0
   -4.5801   -0.8337    0.2604 C   0  0  0  0  0  0  0  0  0  0  0  0
   -3.2421   -1.0883   -0.0648 C   0  0  0  0  0  0  0  0  0  0  0  0
   -2.3085   -0.0446   -0.1133 C   0  0  0  0  0  0  0  0  0  0  0  0
   -0.9005   -0.3755   -0.4638 C   0  0  0  0  0  0  0  0  0  0  0  0
   -0.5183   -1.5066   -0.7184 O   0  0  0  0  0  0  0  0  0  0  0  0
   -0.1284    0.7395   -0.4486 O   0  0  0  0  0  0  0  0  0  0  0  0
    1.2545    0.5387   -0.7882 C   0  0  0  0  0  0  0  0  0  0  0  0
    2.0445    0.0782    0.4358 C   0  0  0  0  0  0  0  0  0  0  0  0
    3.5134   -0.0707    0.1360 C   0  0  0  0  0  0  0  0  0  0  0  0
    4.4071    0.9759    0.4037 C   0  0  0  0  0  0  0  0  0  0  0  0
    5.7654    0.8411    0.1067 C   0  0  0  0  0  0  0  0  0  0  0  0
    6.2277   -0.3410   -0.4626 C   0  0  0  0  0  0  0  0  0  0  0  0
    7.5451   -0.5143   -0.7688 O   0  0  0  0  0  0  0  0  0  0  0  0
    5.3555   -1.3863   -0.7393 C   0  0  0  0  0  0  0  0  0  0  0  0
    3.9988   -1.2521   -0.4421 C   0  0  0  0  0  0  0  0  0  0  0  0
   -2.7288    1.2602    0.1671 C   0  0  0  0  0  0  0  0  0  0  0  0
   -4.0661    1.5089    0.4913 C   0  0  0  0  0  0  0  0  0  0  0  0
   -7.0126   -0.9053    1.7045 H   0  0  0  0  0  0  0  0  0  0  0  0
   -7.3871   -0.6483   -0.0446 H   0  0  0  0  0  0  0  0  0  0  0  0
   -8.2043    0.3005    1.2033 H   0  0  0  0  0  0  0  0  0  0  0  0
   -5.2664   -1.6739    0.2855 H   0  0  0  0  0  0  0  0  0  0  0  0
   -2.9321   -2.1096   -0.2808 H   0  0  0  0  0  0  0  0  0  0  0  0
    1.6341    1.5043   -1.1418 H   0  0  0  0  0  0  0  0  0  0  0  0
    1.3499   -0.1597   -1.6292 H   0  0  0  0  0  0  0  0  0  0  0  0
    1.8963    0.7890    1.2591 H   0  0  0  0  0  0  0  0  0  0  0  0
    1.6487   -0.8720    0.8153 H   0  0  0  0  0  0  0  0  0  0  0  0
    4.0502    1.9029    0.8470 H   0  0  0  0  0  0  0  0  0  0  0  0
    6.4403    1.6625    0.3245 H   0  0  0  0  0  0  0  0  0  0  0  0
    8.0293    0.2873   -0.5127 H   0  0  0  0  0  0  0  0  0  0  0  0
    5.7296   -2.3034   -1.1852 H   0  0  0  0  0  0  0  0  0  0  0  0
    3.3221   -2.0753   -0.6638 H   0  0  0  0  0  0  0  0  0  0  0  0
   -2.0327    2.0943    0.1378 H   0  0  0  0  0  0  0  0  0  0  0  0
   -4.3866    2.5257    0.7081 H   0  0  0  0  0  0  0  0  0  0  0  0
  1  2  1  0
  2  3  1  0
  3  4  2  0
  4  5  1  0
  5  6  2  0
  6  7  1  0
  7  8  2  0
  7  9  1  0
  9 10  1  0
 10 11  1  0
 11 12  1  0
 12 13  2  0
 13 14  1  0
 14 15  2  0
 15 16  1  0
 15 17  1  0
 17 18  2  0
  6 19  1  0
 19 20  2  0
 20  3  1  0
 18 12  1  0
  1 21  1  0
  1 22  1  0
  1 23  1  0
  4 24  1  0
  5 25  1  0
 10 26  1  0
 10 27  1  0
 11 28  1  0
 11 29  1  0
 13 30  1  0
 14 31  1  0
 16 32  1  0
 17 33  1  0
 18 34  1  0
 19 35  1  0
 20 36  1  0
M  END
$$$$
