
     RDKit          3D

 67 69  0  0  0  0  0  0  0  0999 V2000
    8.0608   -3.4966    1.9174 C   0  0  0  0  0  0  0  0  0  0  0  0
    8.1319   -2.3662    0.9026 C   0  0  0  0  0  0  0  0  0  0  0  0
    7.1460   -2.5688   -0.1129 O   0  0  0  0  0  0  0  0  0  0  0  0
    6.0983   -1.6814   -0.1378 C   0  0  0  0  0  0  0  0  0  0  0  0
    5.4571   -1.2309    1.0191 C   0  0  0  0  0  0  0  0  0  0  0  0
    4.3636   -0.3666    0.9204 C   0  0  0  0  0  0  0  0  0  0  0  0
    3.8935    0.0527   -0.3320 C   0  0  0  0  0  0  0  0  0  0  0  0
    2.7077    0.9819   -0.4345 C   0  0  0  0  0  0  0  0  0  0  0  0
    1.3964    0.2313   -0.6700 C   0  0  0  0  0  0  0  0  0  0  0  0
    0.2765    1.1450   -0.8161 N   0  0  0  0  0  0  0  0  0  0  0  0
   -0.8720    0.7426   -1.4644 C   0  0  0  0  0  0  0  0  0  0  0  0
   -1.0019   -0.3571   -2.0010 O   0  0  0  0  0  0  0  0  0  0  0  0
   -2.0048    1.7717   -1.4258 C   0  0  0  0  0  0  0  0  0  0  0  0
   -3.0875    1.3337   -0.6099 O   0  0  0  0  0  0  0  0  0  0  0  0
   -2.8275    1.3411    0.7226 C   0  0  0  0  0  0  0  0  0  0  0  0
   -1.7934    1.7259    1.2520 O   0  0  0  0  0  0  0  0  0  0  0  0
   -3.9180    0.6617    1.4604 C   0  0  0  0  0  0  0  0  0  0  0  0
   -3.5191   -0.3406    2.3654 C   0  0  0  0  0  0  0  0  0  0  0  0
   -4.4896   -1.0379    3.0893 C   0  0  0  0  0  0  0  0  0  0  0  0
   -4.0820   -2.0814    4.0402 N   0  0  0  0  0  4  0  0  0  0  0  0
   -4.9787   -2.7119    4.6188 O   0  0  0  0  0  0  0  0  0  0  0  0
   -2.8665   -2.2600    4.2186 O   0  0  0  0  0  1  0  0  0  0  0  0
   -5.8492   -0.7487    2.9186 C   0  0  0  0  0  0  0  0  0  0  0  0
   -6.2342    0.2628    2.0301 C   0  0  0  0  0  0  0  0  0  0  0  0
   -5.2825    1.0008    1.2982 C   0  0  0  0  0  0  0  0  0  0  0  0
   -5.6826    2.0678    0.4780 N   0  0  0  0  0  0  0  0  0  0  0  0
   -6.3774    3.1826    1.1728 C   0  0  0  0  0  0  0  0  0  0  0  0
   -7.8147    3.3678    0.6494 C   0  0  0  0  0  0  0  0  0  0  0  0
   -7.8823    3.6069   -0.7639 O   0  0  0  0  0  0  0  0  0  0  0  0
   -6.8938    2.8682   -1.5125 C   0  0  0  0  0  0  0  0  0  0  0  0
   -6.3530    1.6322   -0.7741 C   0  0  0  0  0  0  0  0  0  0  0  0
    4.5241   -0.4238   -1.4920 C   0  0  0  0  0  0  0  0  0  0  0  0
    5.6134   -1.3007   -1.4036 C   0  0  0  0  0  0  0  0  0  0  0  0
    6.2905   -1.8016   -2.4871 O   0  0  0  0  0  0  0  0  0  0  0  0
    5.6209   -1.7682   -3.7446 C   0  0  0  0  0  0  0  0  0  0  0  0
    6.4031   -2.6423   -4.7137 C   0  0  0  0  0  0  0  0  0  0  0  0
    8.8690   -3.4101    2.6503 H   0  0  0  0  0  0  0  0  0  0  0  0
    7.1014   -3.4911    2.4466 H   0  0  0  0  0  0  0  0  0  0  0  0
    8.1416   -4.4704    1.4167 H   0  0  0  0  0  0  0  0  0  0  0  0
    8.0654   -1.3800    1.3799 H   0  0  0  0  0  0  0  0  0  0  0  0
    9.1101   -2.4049    0.4057 H   0  0  0  0  0  0  0  0  0  0  0  0
    5.7758   -1.5575    2.0064 H   0  0  0  0  0  0  0  0  0  0  0  0
    3.8766   -0.0306    1.8334 H   0  0  0  0  0  0  0  0  0  0  0  0
    2.6302    1.5843    0.4800 H   0  0  0  0  0  0  0  0  0  0  0  0
    2.8799    1.7024   -1.2432 H   0  0  0  0  0  0  0  0  0  0  0  0
    1.1697   -0.4317    0.1728 H   0  0  0  0  0  0  0  0  0  0  0  0
    1.4633   -0.3981   -1.5667 H   0  0  0  0  0  0  0  0  0  0  0  0
    0.1279    1.8136   -0.0632 H   0  0  0  0  0  0  0  0  0  0  0  0
   -1.6499    2.7594   -1.1110 H   0  0  0  0  0  0  0  0  0  0  0  0
   -2.3767    1.8859   -2.4499 H   0  0  0  0  0  0  0  0  0  0  0  0
   -2.4574   -0.5643    2.4898 H   0  0  0  0  0  0  0  0  0  0  0  0
   -6.6196   -1.2933    3.4634 H   0  0  0  0  0  0  0  0  0  0  0  0
   -7.2978    0.4786    1.9150 H   0  0  0  0  0  0  0  0  0  0  0  0
   -6.3909    3.0481    2.2631 H   0  0  0  0  0  0  0  0  0  0  0  0
   -5.8021    4.0945    0.9691 H   0  0  0  0  0  0  0  0  0  0  0  0
   -8.2929    4.2099    1.1544 H   0  0  0  0  0  0  0  0  0  0  0  0
   -8.4173    2.4817    0.8656 H   0  0  0  0  0  0  0  0  0  0  0  0
   -6.0708    3.5584   -1.7481 H   0  0  0  0  0  0  0  0  0  0  0  0
   -7.3593    2.5682   -2.4595 H   0  0  0  0  0  0  0  0  0  0  0  0
   -7.1893    0.9540   -0.5536 H   0  0  0  0  0  0  0  0  0  0  0  0
   -5.6380    1.0988   -1.4147 H   0  0  0  0  0  0  0  0  0  0  0  0
    4.1533   -0.0941   -2.4584 H   0  0  0  0  0  0  0  0  0  0  0  0
    5.5962   -0.7396   -4.1232 H   0  0  0  0  0  0  0  0  0  0  0  0
    4.5999   -2.1605   -3.6505 H   0  0  0  0  0  0  0  0  0  0  0  0
    6.4670   -3.6713   -4.3378 H   0  0  0  0  0  0  0  0  0  0  0  0
    7.4335   -2.2781   -4.8216 H   0  0  0  0  0  0  0  0  0  0  0  0
    5.9279   -2.6539   -5.6994 H   0  0  0  0  0  0  0  0  0  0  0  0
  1  2  1  0
  2  3  1  0
  3  4  1  0
  4  5  2  0
  5  6  1  0
  6  7  2  0
  7  8  1  0
  8  9  1  0
  9 10  1  0
 10 11  1  0
 11 12  2  0
 11 13  1  0
 13 14  1  0
 14 15  1  0
 15 16  2  0
 15 17  1  0
 17 18  2  0
 18 19  1  0
 19 20  1  0
 20 21  2  0
 20 22  1  0
 19 23  2  0
 23 24  1  0
 24 25  2  0
 25 26  1  0
 26 27  1  0
 27 28  1  0
 28 29  1  0
 29 30  1  0
 30 31  1  0
  7 32  1  0
 32 33  2  0
 33 34  1  0
 34 35  1  0
 35 36  1  0
 33  4  1  0
 25 17  1  0
 31 26  1  0
  1 37  1  0
  1 38  1  0
  1 39  1  0
  2 40  1  0
  2 41  1  0
  5 42  1  0
  6 43  1  0
  8 44  1  0
  8 45  1  0
  9 46  1  0
  9 47  1  0
 10 48  1  0
 13 49  1  0
 13 50  1  0
 18 51  1  0
 23 52  1  0
 24 53  1  0
 27 54  1  0
 27 55  1  0
 28 56  1  0
 28 57  1  0
 30 58  1  0
 30 59  1  0
 31 60  1  0
 31 61  1  0
 32 62  1  0
 35 63  1  0
 35 64  1  0
 36 65  1  0
 36 66  1  0
 36 67  1  0
M  CHG  2  20   1  22  -1
M  END
$$$$
