
     RDKit          3D

 44 45  0  0  0  0  0  0  0  0999 V2000
   -7.7238    1.0649   -0.1111 C   0  0  0  0  0  0  0  0  0  0  0  0
   -6.3264    0.8823    0.4536 C   0  0  0  0  0  0  0  0  0  0  0  0
   -5.7574   -0.4921    0.1192 C   0  0  0  0  0  0  0  0  0  0  0  0
   -4.4165   -0.6043    0.6238 O   0  0  0  0  0  0  0  0  0  0  0  0
   -4.3058   -1.0271    1.9085 C   0  0  0  0  0  0  0  0  0  0  0  0
   -5.2312   -1.3087    2.6526 O   0  0  0  0  0  0  0  0  0  0  0  0
   -2.8751   -1.1036    2.3119 C   0  0  0  0  0  0  0  0  0  0  0  0
   -2.5791   -1.5274    3.6114 C   0  0  0  0  0  0  0  0  0  0  0  0
   -1.2532   -1.6129    4.0306 C   0  0  0  0  0  0  0  0  0  0  0  0
   -0.2154   -1.2762    3.1565 C   0  0  0  0  0  0  0  0  0  0  0  0
   -0.4912   -0.8508    1.8558 C   0  0  0  0  0  0  0  0  0  0  0  0
    0.4983   -0.4930    0.9139 N   0  0  0  0  0  0  0  0  0  0  0  0
    1.8787   -0.4957    1.0934 C   0  0  0  0  0  0  0  0  0  0  0  0
    2.4697   -0.8158    2.1190 O   0  0  0  0  0  0  0  0  0  0  0  0
    2.6151   -0.0387   -0.1748 C   0  0  0  0  0  0  0  0  0  0  0  0
    4.0223   -0.0428    0.0119 O   0  0  0  0  0  0  0  0  0  0  0  0
    4.8027    0.3434   -1.0402 C   0  0  0  0  0  0  0  0  0  0  0  0
    4.3485    0.7472   -2.2976 C   0  0  0  0  0  0  0  0  0  0  0  0
    5.2635    1.1191   -3.2903 C   0  0  0  0  0  0  0  0  0  0  0  0
    6.6379    1.0851   -3.0186 C   0  0  0  0  0  0  0  0  0  0  0  0
    7.5964    1.4751   -4.0600 N   0  0  0  0  0  4  0  0  0  0  0  0
    8.8027    1.4314   -3.7806 O   0  0  0  0  0  0  0  0  0  0  0  0
    7.1411    1.8255   -5.1584 O   0  0  0  0  0  1  0  0  0  0  0  0
    7.1010    0.6820   -1.7623 C   0  0  0  0  0  0  0  0  0  0  0  0
    6.1776    0.3135   -0.7807 C   0  0  0  0  0  0  0  0  0  0  0  0
   -1.8277   -0.7667    1.4393 C   0  0  0  0  0  0  0  0  0  0  0  0
   -8.4129    0.3203    0.2998 H   0  0  0  0  0  0  0  0  0  0  0  0
   -7.7222    0.9675   -1.2014 H   0  0  0  0  0  0  0  0  0  0  0  0
   -8.1078    2.0585    0.1404 H   0  0  0  0  0  0  0  0  0  0  0  0
   -5.6608    1.6597    0.0599 H   0  0  0  0  0  0  0  0  0  0  0  0
   -6.3470    1.0259    1.5400 H   0  0  0  0  0  0  0  0  0  0  0  0
   -6.3921   -1.3011    0.5004 H   0  0  0  0  0  0  0  0  0  0  0  0
   -5.6971   -0.6193   -0.9672 H   0  0  0  0  0  0  0  0  0  0  0  0
   -3.3779   -1.7924    4.3019 H   0  0  0  0  0  0  0  0  0  0  0  0
   -1.0215   -1.9425    5.0410 H   0  0  0  0  0  0  0  0  0  0  0  0
    0.8012   -1.3590    3.5296 H   0  0  0  0  0  0  0  0  0  0  0  0
    0.1558   -0.2025    0.0066 H   0  0  0  0  0  0  0  0  0  0  0  0
    2.3416   -0.7321   -0.9795 H   0  0  0  0  0  0  0  0  0  0  0  0
    2.2704    0.9768   -0.4051 H   0  0  0  0  0  0  0  0  0  0  0  0
    3.2920    0.7853   -2.5418 H   0  0  0  0  0  0  0  0  0  0  0  0
    4.8901    1.4309   -4.2639 H   0  0  0  0  0  0  0  0  0  0  0  0
    8.1633    0.6483   -1.5302 H   0  0  0  0  0  0  0  0  0  0  0  0
    6.5310   -0.0015    0.2000 H   0  0  0  0  0  0  0  0  0  0  0  0
   -2.0587   -0.4370    0.4300 H   0  0  0  0  0  0  0  0  0  0  0  0
  1  2  1  0
  2  3  1  0
  3  4  1  0
  4  5  1  0
  5  6  2  0
  5  7  1  0
  7  8  2  0
  8  9  1  0
  9 10  2  0
 10 11  1  0
 11 12  1  0
 12 13  1  0
 13 14  2  0
 13 15  1  0
 15 16  1  0
 16 17  1  0
 17 18  2  0
 18 19  1  0
 19 20  2  0
 20 21  1  0
 21 22  2  0
 21 23  1  0
 20 24  1  0
 24 25  2  0
 11 26  2  0
 26  7  1  0
 25 17  1  0
  1 27  1  0
  1 28  1  0
  1 29  1  0
  2 30  1  0
  2 31  1  0
  3 32  1  0
  3 33  1  0
  8 34  1  0
  9 35  1  0
 10 36  1  0
 12 37  1  0
 15 38  1  0
 15 39  1  0
 18 40  1  0
 19 41  1  0
 24 42  1  0
 25 43  1  0
 26 44  1  0
M  CHG  2  21   1  23  -1
M  END
$$$$
