
     RDKit          3D

 37 39  0  0  0  0  0  0  0  0999 V2000
    0.0815    3.5253    3.3420 C   0  0  0  0  0  0  0  0  0  0  0  0
    1.6054    2.8872    2.5960 S   0  0  0  0  0  0  0  0  0  0  0  0
    0.9402    1.6091    1.5373 C   0  0  0  0  0  0  0  0  0  0  0  0
    1.7969    0.9519    0.6797 C   0  0  0  0  0  0  0  0  0  0  0  0
    1.2633   -0.0335   -0.1273 C   0  0  0  0  0  0  0  0  0  0  0  0
    2.0649   -0.7566   -1.0047 N   0  0  0  0  0  0  0  0  0  0  0  0
    1.4164   -1.8713   -1.7170 C   0  0  0  0  0  0  0  0  0  0  0  0
    2.4605   -2.6028   -2.5748 C   0  0  0  0  0  0  0  0  0  0  0  0
    3.0841   -1.7741   -3.5690 O   0  0  0  0  0  0  0  0  0  0  0  0
    3.0149   -0.3744   -3.2662 C   0  0  0  0  0  0  0  0  0  0  0  0
    3.1208   -0.0603   -1.7636 C   0  0  0  0  0  0  0  0  0  0  0  0
   -0.0401   -0.3464   -0.0388 N   0  0  0  0  0  0  0  0  0  0  0  0
   -0.8096    0.3576    0.8122 C   0  0  0  0  0  0  0  0  0  0  0  0
   -2.2219   -0.0280    0.9070 C   0  0  0  0  0  0  0  0  0  0  0  0
   -2.5526   -1.3958    1.0290 C   0  0  0  0  0  0  0  0  0  0  0  0
   -3.8779   -1.8245    1.1406 C   0  0  0  0  0  0  0  0  0  0  0  0
   -4.9095   -0.8934    1.1274 C   0  0  0  0  0  0  0  0  0  0  0  0
   -4.6142    0.4621    0.9949 C   0  0  0  0  0  0  0  0  0  0  0  0
   -3.2843    0.8941    0.8821 C   0  0  0  0  0  0  0  0  0  0  0  0
   -3.0435    2.5955    0.6564 Cl  0  0  0  0  0  0  0  0  0  0  0  0
   -0.3649    1.3248    1.6227 N   0  0  0  0  0  0  0  0  0  0  0  0
    0.3362    4.3434    4.0214 H   0  0  0  0  0  0  0  0  0  0  0  0
   -0.5917    3.9157    2.5739 H   0  0  0  0  0  0  0  0  0  0  0  0
   -0.4256    2.7472    3.9193 H   0  0  0  0  0  0  0  0  0  0  0  0
    2.8524    1.1875    0.6642 H   0  0  0  0  0  0  0  0  0  0  0  0
    0.9858   -2.5836   -1.0031 H   0  0  0  0  0  0  0  0  0  0  0  0
    0.6157   -1.4909   -2.3641 H   0  0  0  0  0  0  0  0  0  0  0  0
    1.9981   -3.4477   -3.0949 H   0  0  0  0  0  0  0  0  0  0  0  0
    3.2580   -3.0054   -1.9393 H   0  0  0  0  0  0  0  0  0  0  0  0
    3.8275    0.1188   -3.8093 H   0  0  0  0  0  0  0  0  0  0  0  0
    2.0725    0.0118   -3.6726 H   0  0  0  0  0  0  0  0  0  0  0  0
    4.0890   -0.4085   -1.3858 H   0  0  0  0  0  0  0  0  0  0  0  0
    3.0790    1.0279   -1.6421 H   0  0  0  0  0  0  0  0  0  0  0  0
   -1.7573   -2.1411    1.0440 H   0  0  0  0  0  0  0  0  0  0  0  0
   -4.0993   -2.8846    1.2381 H   0  0  0  0  0  0  0  0  0  0  0  0
   -5.9427   -1.2206    1.2130 H   0  0  0  0  0  0  0  0  0  0  0  0
   -5.4277    1.1837    0.9716 H   0  0  0  0  0  0  0  0  0  0  0  0
  1  2  1  0
  2  3  1  0
  3  4  2  0
  4  5  1  0
  5  6  1  0
  6  7  1  0
  7  8  1  0
  8  9  1  0
  9 10  1  0
 10 11  1  0
  5 12  2  0
 12 13  1  0
 13 14  1  0
 14 15  2  0
 15 16  1  0
 16 17  2  0
 17 18  1  0
 18 19  2  0
 19 20  1  0
 13 21  2  0
 21  3  1  0
 11  6  1  0
 19 14  1  0
  1 22  1  0
  1 23  1  0
  1 24  1  0
  4 25  1  0
  7 26  1  0
  7 27  1  0
  8 28  1  0
  8 29  1  0
 10 30  1  0
 10 31  1  0
 11 32  1  0
 11 33  1  0
 15 34  1  0
 16 35  1  0
 17 36  1  0
 18 37  1  0
M  END
$$$$
