
     RDKit          3D

 54 57  0  0  0  0  0  0  0  0999 V2000
    6.7526   -2.1568   -0.9994 C   0  0  0  0  0  0  0  0  0  0  0  0
    6.6434   -1.1637    0.0681 N   0  0  0  0  0  0  0  0  0  0  0  0
    7.8549   -0.9531    0.8601 C   0  0  0  0  0  0  0  0  0  0  0  0
    5.7231   -0.1177   -0.0554 C   0  0  0  0  0  0  0  0  0  0  0  0
    5.7051    0.9673    0.8430 C   0  0  0  0  0  0  0  0  0  0  0  0
    4.7730    2.0099    0.7441 C   0  0  0  0  0  0  0  0  0  0  0  0
    3.8078    1.9769   -0.2548 C   0  0  0  0  0  0  0  0  0  0  0  0
    2.8534    3.0954   -0.3502 C   0  0  0  0  0  0  0  0  0  0  0  0
    1.5664    3.0560   -0.5293 N   0  0  0  0  0  0  0  0  0  0  0  0
    0.9348    1.8492   -0.5162 N   0  0  0  0  0  0  0  0  0  0  0  0
   -0.4281    1.7574   -0.7572 C   0  0  0  0  0  0  0  0  0  0  0  0
   -1.1589    2.6909   -1.0730 O   0  0  0  0  0  0  0  0  0  0  0  0
   -0.9225    0.3898   -0.6152 C   0  0  0  0  0  0  0  0  0  0  0  0
   -0.0812   -0.6646   -0.3757 N   0  0  0  0  0  0  0  0  0  0  0  0
   -0.8067   -1.7649   -0.2985 N   0  0  0  0  0  0  0  0  0  0  0  0
   -2.1218   -1.4532   -0.5060 N   0  0  0  0  0  0  0  0  0  0  0  0
   -3.1169   -2.4636   -0.5464 C   0  0  0  0  0  0  0  0  0  0  0  0
   -4.3747   -2.1860   -0.8902 N   0  0  0  0  0  0  0  0  0  0  0  0
   -5.0232   -3.4182   -0.8363 O   0  0  0  0  0  0  0  0  0  0  0  0
   -4.1440   -4.4361   -0.4826 N   0  0  0  0  0  0  0  0  0  0  0  0
   -2.9665   -3.8413   -0.2964 C   0  0  0  0  0  0  0  0  0  0  0  0
   -1.8419   -4.4843    0.0708 N   0  0  0  0  0  0  0  0  0  0  0  0
   -2.2264   -0.0763   -0.6841 C   0  0  0  0  0  0  0  0  0  0  0  0
   -3.5064    0.6553   -0.8563 C   0  0  0  0  0  0  0  0  0  0  0  0
   -4.1643    0.5763    0.4057 O   0  0  0  0  0  0  0  0  0  0  0  0
   -5.4318    1.0843    0.4789 C   0  0  0  0  0  0  0  0  0  0  0  0
   -6.0685    1.8470   -0.5038 C   0  0  0  0  0  0  0  0  0  0  0  0
   -7.3725    2.3069   -0.2952 C   0  0  0  0  0  0  0  0  0  0  0  0
   -8.0296    2.0054    0.8917 C   0  0  0  0  0  0  0  0  0  0  0  0
   -9.2788    2.4476    1.0854 F   0  0  0  0  0  0  0  0  0  0  0  0
   -7.4072    1.2543    1.8793 C   0  0  0  0  0  0  0  0  0  0  0  0
   -6.1055    0.7965    1.6715 C   0  0  0  0  0  0  0  0  0  0  0  0
    3.7958    0.9313   -1.1715 C   0  0  0  0  0  0  0  0  0  0  0  0
    4.7351   -0.1030   -1.0587 C   0  0  0  0  0  0  0  0  0  0  0  0
    5.8024   -2.6797   -1.1534 H   0  0  0  0  0  0  0  0  0  0  0  0
    7.4833   -2.9332   -0.7463 H   0  0  0  0  0  0  0  0  0  0  0  0
    7.0744   -1.6916   -1.9378 H   0  0  0  0  0  0  0  0  0  0  0  0
    7.6138   -0.7855    1.9152 H   0  0  0  0  0  0  0  0  0  0  0  0
    8.5059   -1.8342    0.8370 H   0  0  0  0  0  0  0  0  0  0  0  0
    8.4341   -0.1064    0.4751 H   0  0  0  0  0  0  0  0  0  0  0  0
    6.4197    1.0263    1.6589 H   0  0  0  0  0  0  0  0  0  0  0  0
    4.8044    2.8239    1.4638 H   0  0  0  0  0  0  0  0  0  0  0  0
    3.3034    4.0992   -0.2520 H   0  0  0  0  0  0  0  0  0  0  0  0
    1.4250    1.0207   -0.1906 H   0  0  0  0  0  0  0  0  0  0  0  0
   -0.9309   -4.0318    0.0145 H   0  0  0  0  0  0  0  0  0  0  0  0
   -1.8159   -5.4977    0.0305 H   0  0  0  0  0  0  0  0  0  0  0  0
   -4.1052    0.2096   -1.6585 H   0  0  0  0  0  0  0  0  0  0  0  0
   -3.3297    1.7040   -1.1093 H   0  0  0  0  0  0  0  0  0  0  0  0
   -5.5794    2.1104   -1.4357 H   0  0  0  0  0  0  0  0  0  0  0  0
   -7.8770    2.9013   -1.0505 H   0  0  0  0  0  0  0  0  0  0  0  0
   -7.9341    1.0302    2.8005 H   0  0  0  0  0  0  0  0  0  0  0  0
   -5.6125    0.2077    2.4412 H   0  0  0  0  0  0  0  0  0  0  0  0
    3.0769    0.9120   -1.9871 H   0  0  0  0  0  0  0  0  0  0  0  0
    4.6734   -0.9001   -1.7939 H   0  0  0  0  0  0  0  0  0  0  0  0
  1  2  1  0
  2  3  1  0
  2  4  1  0
  4  5  2  0
  5  6  1  0
  6  7  2  0
  7  8  1  0
  8  9  2  3
  9 10  1  0
 10 11  1  0
 11 12  2  0
 11 13  1  0
 13 14  1  0
 14 15  2  0
 15 16  1  0
 16 17  1  0
 17 18  2  0
 18 19  1  0
 19 20  1  0
 20 21  2  0
 21 22  1  0
 16 23  1  0
 23 24  1  0
 24 25  1  0
 25 26  1  0
 26 27  2  0
 27 28  1  0
 28 29  2  0
 29 30  1  0
 29 31  1  0
 31 32  2  0
  7 33  1  0
 33 34  2  0
 34  4  1  0
 23 13  2  0
 32 26  1  0
 21 17  1  0
  1 35  1  0
  1 36  1  0
  1 37  1  0
  3 38  1  0
  3 39  1  0
  3 40  1  0
  5 41  1  0
  6 42  1  0
  8 43  1  0
 10 44  1  0
 22 45  1  0
 22 46  1  0
 24 47  1  0
 24 48  1  0
 27 49  1  0
 28 50  1  0
 31 51  1  0
 32 52  1  0
 33 53  1  0
 34 54  1  0
M  END
$$$$
