
     RDKit          3D

 39 41  0  0  0  0  0  0  0  0999 V2000
   -1.7794    2.6522    3.4633 C   0  0  0  0  0  0  0  0  0  0  0  0
   -2.7746    1.7765    2.9490 O   0  0  0  0  0  0  0  0  0  0  0  0
   -2.3376    0.6528    2.3035 C   0  0  0  0  0  0  0  0  0  0  0  0
   -1.0043    0.2864    2.1047 C   0  0  0  0  0  0  0  0  0  0  0  0
   -0.6938   -0.8941    1.4223 C   0  0  0  0  0  0  0  0  0  0  0  0
   -1.7233   -1.6990    0.9266 C   0  0  0  0  0  0  0  0  0  0  0  0
   -1.3331   -3.2000    0.0548 S   0  0  0  0  0  6  0  0  0  0  0  0
   -2.4418   -4.1125    0.2418 O   0  0  0  0  0  0  0  0  0  0  0  0
    0.0189   -3.5814    0.4008 O   0  0  0  0  0  0  0  0  0  0  0  0
   -1.3882   -2.7212   -1.5654 N   0  0  0  0  0  0  0  0  0  0  0  0
   -0.6030   -1.6142   -1.9918 C   0  0  0  0  0  0  0  0  0  0  0  0
   -1.2488   -0.4522   -2.4109 C   0  0  0  0  0  0  0  0  0  0  0  0
   -0.4962    0.6557   -2.7953 C   0  0  0  0  0  0  0  0  0  0  0  0
    0.8965    0.6013   -2.7539 C   0  0  0  0  0  0  0  0  0  0  0  0
    1.5457    1.7423   -3.1373 O   0  0  0  0  0  0  0  0  0  0  0  0
    1.5619   -0.5635   -2.3456 C   0  0  0  0  0  0  0  0  0  0  0  0
    3.3367   -0.7626   -2.3700 S   0  0  0  0  0  0  0  0  0  0  0  0
    3.8684    0.4029   -1.1947 C   0  0  0  0  0  0  0  0  0  0  0  0
    3.5653    1.7378   -1.2938 N   0  0  0  0  0  0  0  0  0  0  0  0
    4.1886    2.2559   -0.2604 C   0  0  0  0  0  0  0  0  0  0  0  0
    4.8412    1.2739    0.4162 N   0  0  0  0  0  0  0  0  0  0  0  0
    4.6541    0.0799   -0.1651 N   0  0  0  0  0  0  0  0  0  0  0  0
    0.7923   -1.6735   -1.9667 C   0  0  0  0  0  0  0  0  0  0  0  0
   -3.0592   -1.3528    1.1364 C   0  0  0  0  0  0  0  0  0  0  0  0
   -3.3585   -0.1737    1.8209 C   0  0  0  0  0  0  0  0  0  0  0  0
   -2.2896    3.4931    3.9430 H   0  0  0  0  0  0  0  0  0  0  0  0
   -1.1706    2.1538    4.2249 H   0  0  0  0  0  0  0  0  0  0  0  0
   -1.1553    3.0561    2.6593 H   0  0  0  0  0  0  0  0  0  0  0  0
   -0.1830    0.8947    2.4690 H   0  0  0  0  0  0  0  0  0  0  0  0
    0.3482   -1.1727    1.2768 H   0  0  0  0  0  0  0  0  0  0  0  0
   -2.3218   -2.8253   -1.9594 H   0  0  0  0  0  0  0  0  0  0  0  0
   -2.3329   -0.3894   -2.4337 H   0  0  0  0  0  0  0  0  0  0  0  0
   -0.9909    1.5674   -3.1204 H   0  0  0  0  0  0  0  0  0  0  0  0
    2.4230    1.7509   -2.6990 H   0  0  0  0  0  0  0  0  0  0  0  0
    4.2075    3.2957    0.0345 H   0  0  0  0  0  0  0  0  0  0  0  0
    5.4177    1.3385    1.2484 H   0  0  0  0  0  0  0  0  0  0  0  0
    1.2836   -2.5965   -1.6634 H   0  0  0  0  0  0  0  0  0  0  0  0
   -3.8663   -1.9878    0.7794 H   0  0  0  0  0  0  0  0  0  0  0  0
   -4.3971    0.1049    1.9863 H   0  0  0  0  0  0  0  0  0  0  0  0
  1  2  1  0
  2  3  1  0
  3  4  2  0
  4  5  1  0
  5  6  2  0
  6  7  1  0
  7  8  2  0
  7  9  2  0
  7 10  1  0
 10 11  1  0
 11 12  2  0
 12 13  1  0
 13 14  2  0
 14 15  1  0
 14 16  1  0
 16 17  1  0
 17 18  1  0
 18 19  1  0
 19 20  2  0
 20 21  1  0
 21 22  1  0
 16 23  2  0
  6 24  1  0
 24 25  2  0
 25  3  1  0
 23 11  1  0
 22 18  2  0
  1 26  1  0
  1 27  1  0
  1 28  1  0
  4 29  1  0
  5 30  1  0
 10 31  1  0
 12 32  1  0
 13 33  1  0
 15 34  1  0
 20 35  1  0
 21 36  1  0
 23 37  1  0
 24 38  1  0
 25 39  1  0
M  END
$$$$
