
     RDKit          3D

 53 56  0  0  0  0  0  0  0  0999 V2000
    7.8260    0.8582   -2.7035 C   0  0  0  0  0  0  0  0  0  0  0  0
    6.8150   -0.0530   -2.2878 O   0  0  0  0  0  0  0  0  0  0  0  0
    5.8739    0.4230   -1.4118 C   0  0  0  0  0  0  0  0  0  0  0  0
    5.7724    1.7380   -0.9595 C   0  0  0  0  0  0  0  0  0  0  0  0
    4.7622    2.0904   -0.0622 C   0  0  0  0  0  0  0  0  0  0  0  0
    3.8547    1.1295    0.3840 C   0  0  0  0  0  0  0  0  0  0  0  0
    3.9372   -0.1909   -0.0713 C   0  0  0  0  0  0  0  0  0  0  0  0
    2.9831   -1.0974    0.4315 N   0  0  0  0  0  0  0  0  0  0  0  0
    2.7566   -2.4031    0.0346 C   0  0  0  0  0  0  0  0  0  0  0  0
    3.3255   -2.9927   -0.8825 O   0  0  0  0  0  0  0  0  0  0  0  0
    1.6957   -3.1084    0.8690 C   0  0  0  0  0  0  0  0  0  0  0  0
    0.0238   -2.7378    0.2623 S   0  0  0  0  0  0  0  0  0  0  0  0
   -0.3003   -1.2245    1.0460 C   0  0  0  0  0  0  0  0  0  0  0  0
    0.5902   -0.5548    1.7459 N   0  0  0  0  0  0  0  0  0  0  0  0
   -0.0359    0.5150    2.3099 N   0  0  0  0  0  0  0  0  0  0  0  0
   -1.3089    0.4920    1.9496 C   0  0  0  0  0  0  0  0  0  0  0  0
   -2.2920    1.5748    2.2704 C   0  0  0  0  0  0  0  0  0  0  0  0
   -2.7199    2.3758    1.0697 C   0  0  0  0  0  0  0  0  0  0  0  0
   -3.9549    2.4004    0.4488 C   0  0  0  0  0  0  0  0  0  0  0  0
   -3.9873    3.2861   -0.6673 C   0  0  0  0  0  0  0  0  0  0  0  0
   -2.7809    3.9224   -0.8553 C   0  0  0  0  0  0  0  0  0  0  0  0
   -1.6194    3.4519    0.3082 S   0  0  0  0  0  0  0  0  0  0  0  0
   -1.5407   -0.6183    1.1425 N   0  0  0  0  0  0  0  0  0  0  0  0
   -2.7698   -1.0261    0.5677 C   0  0  0  0  0  0  0  0  0  0  0  0
   -3.9216   -1.1050    1.3610 C   0  0  0  0  0  0  0  0  0  0  0  0
   -5.1393   -1.4734    0.7834 C   0  0  0  0  0  0  0  0  0  0  0  0
   -5.2207   -1.7556   -0.5859 C   0  0  0  0  0  0  0  0  0  0  0  0
   -6.5231   -2.1648   -1.2074 C   0  0  0  0  0  0  0  0  0  0  0  0
   -4.0580   -1.7004   -1.3648 C   0  0  0  0  0  0  0  0  0  0  0  0
   -2.8350   -1.3376   -0.7945 C   0  0  0  0  0  0  0  0  0  0  0  0
    4.9498   -0.5342   -0.9698 C   0  0  0  0  0  0  0  0  0  0  0  0
    8.5082    0.3185   -3.3679 H   0  0  0  0  0  0  0  0  0  0  0  0
    8.4108    1.2166   -1.8487 H   0  0  0  0  0  0  0  0  0  0  0  0
    7.3971    1.6903   -3.2733 H   0  0  0  0  0  0  0  0  0  0  0  0
    6.4598    2.5111   -1.2852 H   0  0  0  0  0  0  0  0  0  0  0  0
    4.6815    3.1151    0.2912 H   0  0  0  0  0  0  0  0  0  0  0  0
    3.0732    1.4295    1.0810 H   0  0  0  0  0  0  0  0  0  0  0  0
    2.3171   -0.7090    1.1022 H   0  0  0  0  0  0  0  0  0  0  0  0
    1.8088   -2.8603    1.9302 H   0  0  0  0  0  0  0  0  0  0  0  0
    1.8643   -4.1868    0.7829 H   0  0  0  0  0  0  0  0  0  0  0  0
   -3.1664    1.1605    2.7838 H   0  0  0  0  0  0  0  0  0  0  0  0
   -1.8339    2.2564    3.0005 H   0  0  0  0  0  0  0  0  0  0  0  0
   -4.7995    1.7997    0.7686 H   0  0  0  0  0  0  0  0  0  0  0  0
   -4.8524    3.4478   -1.3000 H   0  0  0  0  0  0  0  0  0  0  0  0
   -2.5216    4.6411   -1.6212 H   0  0  0  0  0  0  0  0  0  0  0  0
   -3.8901   -0.9257    2.4330 H   0  0  0  0  0  0  0  0  0  0  0  0
   -6.0270   -1.5420    1.4095 H   0  0  0  0  0  0  0  0  0  0  0  0
   -6.6260   -1.7352   -2.2097 H   0  0  0  0  0  0  0  0  0  0  0  0
   -6.5785   -3.2555   -1.2785 H   0  0  0  0  0  0  0  0  0  0  0  0
   -7.3722   -1.8098   -0.6126 H   0  0  0  0  0  0  0  0  0  0  0  0
   -4.0992   -1.9306   -2.4284 H   0  0  0  0  0  0  0  0  0  0  0  0
   -1.9635   -1.2627   -1.4424 H   0  0  0  0  0  0  0  0  0  0  0  0
    5.0512   -1.5487   -1.3448 H   0  0  0  0  0  0  0  0  0  0  0  0
  1  2  1  0
  2  3  1  0
  3  4  2  0
  4  5  1  0
  5  6  2  0
  6  7  1  0
  7  8  1  0
  8  9  1  0
  9 10  2  0
  9 11  1  0
 11 12  1  0
 12 13  1  0
 13 14  2  0
 14 15  1  0
 15 16  2  0
 16 17  1  0
 17 18  1  0
 18 19  2  0
 19 20  1  0
 20 21  2  0
 21 22  1  0
 16 23  1  0
 23 24  1  0
 24 25  2  0
 25 26  1  0
 26 27  2  0
 27 28  1  0
 27 29  1  0
 29 30  2  0
  7 31  2  0
 31  3  1  0
 23 13  1  0
 30 24  1  0
 22 18  1  0
  1 32  1  0
  1 33  1  0
  1 34  1  0
  4 35  1  0
  5 36  1  0
  6 37  1  0
  8 38  1  0
 11 39  1  0
 11 40  1  0
 17 41  1  0
 17 42  1  0
 19 43  1  0
 20 44  1  0
 21 45  1  0
 25 46  1  0
 26 47  1  0
 28 48  1  0
 28 49  1  0
 28 50  1  0
 29 51  1  0
 30 52  1  0
 31 53  1  0
M  END
$$$$
