
     RDKit          3D

 39 40  0  0  0  0  0  0  0  0999 V2000
   -1.6987   -1.7604   -1.3615 C   0  0  0  0  0  0  0  0  0  0  0  0
   -2.4460   -0.5429   -0.8557 C   0  0  0  0  0  0  0  0  0  0  0  0
   -1.8257    0.4896   -0.2528 C   0  0  0  0  0  0  0  0  0  0  0  0
   -0.3494    0.5605   -0.0888 C   0  0  0  0  0  0  0  0  0  0  0  0
    0.4884    0.3131   -1.0488 N   0  0  0  0  0  0  0  0  0  0  0  0
    1.8241    0.3838   -0.7387 N   0  0  0  0  0  0  0  0  0  0  0  0
    2.3694   -0.1874    0.4076 C   0  0  0  0  0  0  0  0  0  0  0  0
    1.7276   -0.7378    1.3017 O   0  0  0  0  0  0  0  0  0  0  0  0
    3.8558   -0.1738    0.5086 C   0  0  0  0  0  0  0  0  0  0  0  0
    4.6259    0.7786   -0.1753 C   0  0  0  0  0  0  0  0  0  0  0  0
    6.0181    0.7508   -0.0670 C   0  0  0  0  0  0  0  0  0  0  0  0
    7.0517    2.0335   -0.9960 Br  0  0  0  0  0  0  0  0  0  0  0  0
    6.6552   -0.2074    0.7195 C   0  0  0  0  0  0  0  0  0  0  0  0
    5.8933   -1.1423    1.4189 C   0  0  0  0  0  0  0  0  0  0  0  0
    4.5031   -1.1182    1.3219 C   0  0  0  0  0  0  0  0  0  0  0  0
    3.8332   -2.0591    2.0579 O   0  0  0  0  0  0  0  0  0  0  0  0
   -2.6315    1.5865    0.3288 C   0  0  0  0  0  0  0  0  0  0  0  0
   -2.0737    2.4660    0.9850 O   0  0  0  0  0  0  0  0  0  0  0  0
   -3.9891    1.5531    0.0947 N   0  0  0  0  0  0  0  0  0  0  0  0
   -4.8071    2.6254    0.6300 C   0  0  0  0  0  0  0  0  0  0  0  0
   -4.6476    0.4986   -0.5192 C   0  0  0  0  0  0  0  0  0  0  0  0
   -5.8765    0.4732   -0.6130 O   0  0  0  0  0  0  0  0  0  0  0  0
   -3.8380   -0.5307   -1.0069 N   0  0  0  0  0  0  0  0  0  0  0  0
   -4.5191   -1.6371   -1.6793 C   0  0  0  0  0  0  0  0  0  0  0  0
   -0.6950   -1.8616   -0.9416 H   0  0  0  0  0  0  0  0  0  0  0  0
   -1.6125   -1.7282   -2.4523 H   0  0  0  0  0  0  0  0  0  0  0  0
   -2.2095   -2.6858   -1.0755 H   0  0  0  0  0  0  0  0  0  0  0  0
   -0.0185    0.9120    0.9057 H   0  0  0  0  0  0  0  0  0  0  0  0
    2.4163    0.4396   -1.5625 H   0  0  0  0  0  0  0  0  0  0  0  0
    4.1577    1.5578   -0.7701 H   0  0  0  0  0  0  0  0  0  0  0  0
    7.7389   -0.2294    0.8040 H   0  0  0  0  0  0  0  0  0  0  0  0
    6.3796   -1.8856    2.0461 H   0  0  0  0  0  0  0  0  0  0  0  0
    2.8741   -1.8399    2.0344 H   0  0  0  0  0  0  0  0  0  0  0  0
   -5.5995    2.8860   -0.0788 H   0  0  0  0  0  0  0  0  0  0  0  0
   -4.2174    3.5220    0.8403 H   0  0  0  0  0  0  0  0  0  0  0  0
   -5.2692    2.2758    1.5588 H   0  0  0  0  0  0  0  0  0  0  0  0
   -5.5644   -1.4056   -1.9026 H   0  0  0  0  0  0  0  0  0  0  0  0
   -4.4989   -2.5153   -1.0266 H   0  0  0  0  0  0  0  0  0  0  0  0
   -4.0254   -1.8574   -2.6307 H   0  0  0  0  0  0  0  0  0  0  0  0
  1  2  1  0
  2  3  2  0
  3  4  1  0
  4  5  2  3
  5  6  1  0
  6  7  1  0
  7  8  2  0
  7  9  1  0
  9 10  2  0
 10 11  1  0
 11 12  1  0
 11 13  2  0
 13 14  1  0
 14 15  2  0
 15 16  1  0
  3 17  1  0
 17 18  2  0
 17 19  1  0
 19 20  1  0
 19 21  1  0
 21 22  2  0
 21 23  1  0
 23 24  1  0
 23  2  1  0
 15  9  1  0
  1 25  1  0
  1 26  1  0
  1 27  1  0
  4 28  1  0
  6 29  1  0
 10 30  1  0
 13 31  1  0
 14 32  1  0
 16 33  1  0
 20 34  1  0
 20 35  1  0
 20 36  1  0
 24 37  1  0
 24 38  1  0
 24 39  1  0
M  END
$$$$
