
     RDKit          3D

 49 50  0  0  0  0  0  0  0  0999 V2000
    5.0066   -0.4894    1.2033 C   0  0  0  0  0  0  0  0  0  0  0  0
    3.7999   -1.3475    0.8246 C   0  0  0  0  0  0  0  0  0  0  0  0
    2.6700   -1.1604    1.8376 C   0  0  0  0  0  0  0  0  0  0  0  0
    3.3320   -1.0963   -0.6202 C   0  0  0  0  0  0  0  0  0  0  0  0
    2.9094    0.3409   -0.9199 C   0  0  0  0  0  0  0  0  0  0  0  0
    2.3813    0.4167   -2.3110 N   0  0  0  0  0  4  0  0  0  0  0  0
    3.2638    0.6561   -3.3137 C   0  0  0  0  0  0  0  0  0  0  0  0
    2.8454    0.7734   -4.6323 C   0  0  0  0  0  0  0  0  0  0  0  0
    1.4996    0.6451   -4.9317 C   0  0  0  0  0  0  0  0  0  0  0  0
    0.5997    0.3995   -3.9033 C   0  0  0  0  0  0  0  0  0  0  0  0
    1.0512    0.2872   -2.5809 C   0  0  0  0  0  0  0  0  0  0  0  0
    0.0951   -0.0024   -1.5090 C   0  0  0  0  0  0  0  0  0  0  0  0
   -0.8848    0.8517   -1.1730 C   0  0  0  0  0  0  0  0  0  0  0  0
   -1.8689    0.5799   -0.1167 C   0  0  0  0  0  0  0  0  0  0  0  0
   -3.1823    1.0143   -0.2870 C   0  0  0  0  0  0  0  0  0  0  0  0
   -4.1476    0.7900    0.7076 C   0  0  0  0  0  0  0  0  0  0  0  0
   -3.8457    0.1466    1.9193 C   0  0  0  0  0  0  0  0  0  0  0  0
   -4.8138   -0.0965    2.8965 N   0  0  0  0  0  0  0  0  0  0  0  0
   -6.1215    0.5509    2.7941 C   0  0  0  0  0  0  0  0  0  0  0  0
   -4.3937   -0.4568    4.2503 C   0  0  0  0  0  0  0  0  0  0  0  0
   -2.5132   -0.2740    2.0673 C   0  0  0  0  0  0  0  0  0  0  0  0
   -1.5393   -0.0573    1.0789 C   0  0  0  0  0  0  0  0  0  0  0  0
    5.8142   -0.6091    0.4736 H   0  0  0  0  0  0  0  0  0  0  0  0
    5.3958   -0.7863    2.1832 H   0  0  0  0  0  0  0  0  0  0  0  0
    4.7490    0.5731    1.2585 H   0  0  0  0  0  0  0  0  0  0  0  0
    4.1147   -2.3982    0.8786 H   0  0  0  0  0  0  0  0  0  0  0  0
    2.9953   -1.4715    2.8362 H   0  0  0  0  0  0  0  0  0  0  0  0
    1.8001   -1.7679    1.5670 H   0  0  0  0  0  0  0  0  0  0  0  0
    2.3502   -0.1159    1.9052 H   0  0  0  0  0  0  0  0  0  0  0  0
    2.5054   -1.7810   -0.8462 H   0  0  0  0  0  0  0  0  0  0  0  0
    4.1416   -1.3783   -1.3059 H   0  0  0  0  0  0  0  0  0  0  0  0
    2.1477    0.7174   -0.2330 H   0  0  0  0  0  0  0  0  0  0  0  0
    3.7588    1.0307   -0.8587 H   0  0  0  0  0  0  0  0  0  0  0  0
    4.3134    0.7522   -3.0474 H   0  0  0  0  0  0  0  0  0  0  0  0
    3.5675    0.9644   -5.4237 H   0  0  0  0  0  0  0  0  0  0  0  0
    1.1509    0.7310   -5.9599 H   0  0  0  0  0  0  0  0  0  0  0  0
   -0.4584    0.2858   -4.1363 H   0  0  0  0  0  0  0  0  0  0  0  0
    0.2077   -0.9603   -1.0086 H   0  0  0  0  0  0  0  0  0  0  0  0
   -1.0172    1.7988   -1.6949 H   0  0  0  0  0  0  0  0  0  0  0  0
   -3.4900    1.5225   -1.1983 H   0  0  0  0  0  0  0  0  0  0  0  0
   -5.1546    1.1394    0.4983 H   0  0  0  0  0  0  0  0  0  0  0  0
   -6.7830    0.2451    3.6125 H   0  0  0  0  0  0  0  0  0  0  0  0
   -6.6350    0.2627    1.8705 H   0  0  0  0  0  0  0  0  0  0  0  0
   -6.0238    1.6412    2.8370 H   0  0  0  0  0  0  0  0  0  0  0  0
   -5.2549   -0.5943    4.9138 H   0  0  0  0  0  0  0  0  0  0  0  0
   -3.7631    0.3255    4.6869 H   0  0  0  0  0  0  0  0  0  0  0  0
   -3.8546   -1.4101    4.2564 H   0  0  0  0  0  0  0  0  0  0  0  0
   -2.1931   -0.7922    2.9667 H   0  0  0  0  0  0  0  0  0  0  0  0
   -0.5277   -0.3962    1.2790 H   0  0  0  0  0  0  0  0  0  0  0  0
  1  2  1  0
  2  3  1  0
  2  4  1  0
  4  5  1  0
  5  6  1  0
  6  7  2  0
  7  8  1  0
  8  9  2  0
  9 10  1  0
 10 11  2  0
 11 12  1  0
 12 13  2  3
 13 14  1  0
 14 15  2  0
 15 16  1  0
 16 17  2  0
 17 18  1  0
 18 19  1  0
 18 20  1  0
 17 21  1  0
 21 22  2  0
 11  6  1  0
 22 14  1  0
  1 23  1  0
  1 24  1  0
  1 25  1  0
  2 26  1  0
  3 27  1  0
  3 28  1  0
  3 29  1  0
  4 30  1  0
  4 31  1  0
  5 32  1  0
  5 33  1  0
  7 34  1  0
  8 35  1  0
  9 36  1  0
 10 37  1  0
 12 38  1  0
 13 39  1  0
 15 40  1  0
 16 41  1  0
 19 42  1  0
 19 43  1  0
 19 44  1  0
 20 45  1  0
 20 46  1  0
 20 47  1  0
 21 48  1  0
 22 49  1  0
M  CHG  1   6   1
M  END
$$$$
