
     RDKit          3D

 43 45  0  0  0  0  0  0  0  0999 V2000
   -7.9455    1.1479    0.0466 C   0  0  0  0  0  0  0  0  0  0  0  0
   -6.5517    0.7722    0.2088 N   0  0  0  0  0  0  0  0  0  0  0  0
   -6.2247    0.0509    1.4314 C   0  0  0  0  0  0  0  0  0  0  0  0
   -5.6116    1.3821   -0.6211 C   0  0  0  0  0  0  0  0  0  0  0  0
   -5.8872    2.2696   -1.4250 O   0  0  0  0  0  0  0  0  0  0  0  0
   -4.2044    0.9286   -0.5634 C   0  0  0  0  0  0  0  0  0  0  0  0
   -3.8805   -0.4133   -0.7751 C   0  0  0  0  0  0  0  0  0  0  0  0
   -2.5413   -0.8142   -0.7478 C   0  0  0  0  0  0  0  0  0  0  0  0
   -1.5166    0.1173   -0.5184 C   0  0  0  0  0  0  0  0  0  0  0  0
   -0.1950   -0.3778   -0.5088 N   0  0  0  0  0  0  0  0  0  0  0  0
    0.9763    0.3219   -0.2441 C   0  0  0  0  0  0  0  0  0  0  0  0
    1.0142    1.5074    0.0713 O   0  0  0  0  0  0  0  0  0  0  0  0
    2.1863   -0.4849   -0.3567 C   0  0  0  0  0  0  0  0  0  0  0  0
    2.4432   -1.7822   -0.7663 C   0  0  0  0  0  0  0  0  0  0  0  0
    3.8428   -1.9834   -0.6488 C   0  0  0  0  0  0  0  0  0  0  0  0
    4.3771   -0.8026   -0.1760 C   0  0  0  0  0  0  0  0  0  0  0  0
    5.7245   -0.3447    0.1573 C   0  0  0  0  0  0  0  0  0  0  0  0
    6.8268   -1.2031    0.0188 C   0  0  0  0  0  0  0  0  0  0  0  0
    8.1193   -0.7702    0.3368 C   0  0  0  0  0  0  0  0  0  0  0  0
    8.3222    0.5278    0.7972 C   0  0  0  0  0  0  0  0  0  0  0  0
    9.9107    1.0586    1.1881 Cl  0  0  0  0  0  0  0  0  0  0  0  0
    7.2449    1.3961    0.9419 C   0  0  0  0  0  0  0  0  0  0  0  0
    5.9542    0.9605    0.6233 C   0  0  0  0  0  0  0  0  0  0  0  0
    3.3720    0.1032   -0.0012 O   0  0  0  0  0  0  0  0  0  0  0  0
   -1.8546    1.4608   -0.3325 C   0  0  0  0  0  0  0  0  0  0  0  0
   -3.1934    1.8689   -0.3640 C   0  0  0  0  0  0  0  0  0  0  0  0
   -8.1450    1.5175   -0.9632 H   0  0  0  0  0  0  0  0  0  0  0  0
   -8.5768    0.2740    0.2320 H   0  0  0  0  0  0  0  0  0  0  0  0
   -8.1839    1.9353    0.7678 H   0  0  0  0  0  0  0  0  0  0  0  0
   -6.6836   -0.9406    1.3838 H   0  0  0  0  0  0  0  0  0  0  0  0
   -5.1511   -0.0521    1.5924 H   0  0  0  0  0  0  0  0  0  0  0  0
   -6.6391    0.6008    2.2824 H   0  0  0  0  0  0  0  0  0  0  0  0
   -4.6631   -1.1414   -0.9720 H   0  0  0  0  0  0  0  0  0  0  0  0
   -2.3140   -1.8643   -0.9134 H   0  0  0  0  0  0  0  0  0  0  0  0
   -0.1002   -1.3652   -0.6922 H   0  0  0  0  0  0  0  0  0  0  0  0
    1.7250   -2.5080   -1.1186 H   0  0  0  0  0  0  0  0  0  0  0  0
    4.3913   -2.8840   -0.8863 H   0  0  0  0  0  0  0  0  0  0  0  0
    6.6971   -2.2215   -0.3387 H   0  0  0  0  0  0  0  0  0  0  0  0
    8.9591   -1.4505    0.2224 H   0  0  0  0  0  0  0  0  0  0  0  0
    7.3959    2.4108    1.3003 H   0  0  0  0  0  0  0  0  0  0  0  0
    5.1246    1.6562    0.7431 H   0  0  0  0  0  0  0  0  0  0  0  0
   -1.1018    2.2272   -0.1745 H   0  0  0  0  0  0  0  0  0  0  0  0
   -3.4419    2.9205   -0.2375 H   0  0  0  0  0  0  0  0  0  0  0  0
  1  2  1  0
  2  3  1  0
  2  4  1  0
  4  5  2  0
  4  6  1  0
  6  7  2  0
  7  8  1  0
  8  9  2  0
  9 10  1  0
 10 11  1  0
 11 12  2  0
 11 13  1  0
 13 14  2  0
 14 15  1  0
 15 16  2  0
 16 17  1  0
 17 18  2  0
 18 19  1  0
 19 20  2  0
 20 21  1  0
 20 22  1  0
 22 23  2  0
 16 24  1  0
  9 25  1  0
 25 26  2  0
 26  6  1  0
 24 13  1  0
 23 17  1  0
  1 27  1  0
  1 28  1  0
  1 29  1  0
  3 30  1  0
  3 31  1  0
  3 32  1  0
  7 33  1  0
  8 34  1  0
 10 35  1  0
 14 36  1  0
 15 37  1  0
 18 38  1  0
 19 39  1  0
 22 40  1  0
 23 41  1  0
 25 42  1  0
 26 43  1  0
M  END
$$$$
