
     RDKit          3D

 49 52  0  0  0  0  0  0  0  0999 V2000
    5.6298    1.1841    0.8921 C   0  0  0  0  0  0  0  0  0  0  0  0
    4.6404    1.5079   -0.1324 N   0  0  0  0  0  0  0  0  0  0  0  0
    4.3818    0.3625   -1.0258 C   0  0  0  0  0  0  0  0  0  0  0  0
    3.5278   -0.7696   -0.4064 C   0  0  0  0  0  0  0  0  0  0  0  0
    2.2428   -0.2778    0.1342 N   0  0  0  0  0  0  0  0  0  0  0  0
    1.4867   -1.3743    0.7552 C   0  0  0  0  0  0  0  0  0  0  0  0
    0.0005   -1.0475    0.9414 C   0  0  0  0  0  0  0  0  0  0  0  0
   -0.7218   -0.8622   -0.4034 C   0  0  0  0  0  0  0  0  0  0  0  0
   -2.1383   -0.4614   -0.2073 N   0  0  0  0  0  0  0  0  0  0  0  0
   -3.1126   -1.4995   -0.1368 C   0  0  0  0  0  0  0  0  0  0  0  0
   -2.7597   -2.8585    0.0330 C   0  0  0  0  0  0  0  0  0  0  0  0
   -3.7100   -3.8841    0.1145 C   0  0  0  0  0  0  0  0  0  0  0  0
   -5.0580   -3.5857    0.0307 C   0  0  0  0  0  0  0  0  0  0  0  0
   -5.4466   -2.2614   -0.1304 C   0  0  0  0  0  0  0  0  0  0  0  0
   -4.4936   -1.2256   -0.2102 C   0  0  0  0  0  0  0  0  0  0  0  0
   -5.1648    0.4041   -0.4382 S   0  0  0  0  0  0  0  0  0  0  0  0
   -3.7334    1.4361   -0.2400 C   0  0  0  0  0  0  0  0  0  0  0  0
   -3.9940    2.8213   -0.1850 C   0  0  0  0  0  0  0  0  0  0  0  0
   -2.9603    3.7416   -0.0526 C   0  0  0  0  0  0  0  0  0  0  0  0
   -1.6596    3.2762    0.0225 C   0  0  0  0  0  0  0  0  0  0  0  0
   -0.3593    4.3916    0.1977 Cl  0  0  0  0  0  0  0  0  0  0  0  0
   -1.3920    1.9049   -0.0354 C   0  0  0  0  0  0  0  0  0  0  0  0
   -2.4153    0.9385   -0.1692 C   0  0  0  0  0  0  0  0  0  0  0  0
    2.5089    0.8236    1.0871 C   0  0  0  0  0  0  0  0  0  0  0  0
    3.3644    1.9523    0.4616 C   0  0  0  0  0  0  0  0  0  0  0  0
    5.3215    0.3692    1.5544 H   0  0  0  0  0  0  0  0  0  0  0  0
    6.5808    0.9016    0.4270 H   0  0  0  0  0  0  0  0  0  0  0  0
    5.8372    2.0646    1.5107 H   0  0  0  0  0  0  0  0  0  0  0  0
    5.3287   -0.0512   -1.3935 H   0  0  0  0  0  0  0  0  0  0  0  0
    3.8621    0.7423   -1.9158 H   0  0  0  0  0  0  0  0  0  0  0  0
    4.1045   -1.2797    0.3762 H   0  0  0  0  0  0  0  0  0  0  0  0
    3.3292   -1.5076   -1.1939 H   0  0  0  0  0  0  0  0  0  0  0  0
    1.5435   -2.2672    0.1196 H   0  0  0  0  0  0  0  0  0  0  0  0
    1.9283   -1.6539    1.7191 H   0  0  0  0  0  0  0  0  0  0  0  0
   -0.1241   -0.1660    1.5784 H   0  0  0  0  0  0  0  0  0  0  0  0
   -0.4610   -1.8695    1.5004 H   0  0  0  0  0  0  0  0  0  0  0  0
   -0.6488   -1.7802   -1.0012 H   0  0  0  0  0  0  0  0  0  0  0  0
   -0.1998   -0.1393   -1.0418 H   0  0  0  0  0  0  0  0  0  0  0  0
   -1.7259   -3.1714    0.1240 H   0  0  0  0  0  0  0  0  0  0  0  0
   -3.3872   -4.9139    0.2463 H   0  0  0  0  0  0  0  0  0  0  0  0
   -5.8030   -4.3734    0.0917 H   0  0  0  0  0  0  0  0  0  0  0  0
   -6.5088   -2.0341   -0.1966 H   0  0  0  0  0  0  0  0  0  0  0  0
   -5.0163    3.1898   -0.2469 H   0  0  0  0  0  0  0  0  0  0  0  0
   -3.1783    4.8047   -0.0100 H   0  0  0  0  0  0  0  0  0  0  0  0
   -0.3500    1.6155    0.0400 H   0  0  0  0  0  0  0  0  0  0  0  0
    3.0122    0.4394    1.9841 H   0  0  0  0  0  0  0  0  0  0  0  0
    1.5676    1.2727    1.4184 H   0  0  0  0  0  0  0  0  0  0  0  0
    2.7753    2.4388   -0.3276 H   0  0  0  0  0  0  0  0  0  0  0  0
    3.5486    2.7314    1.2117 H   0  0  0  0  0  0  0  0  0  0  0  0
  1  2  1  0
  2  3  1  0
  3  4  1  0
  4  5  1  0
  5  6  1  0
  6  7  1  0
  7  8  1  0
  8  9  1  0
  9 10  1  0
 10 11  2  0
 11 12  1  0
 12 13  2  0
 13 14  1  0
 14 15  2  0
 15 16  1  0
 16 17  1  0
 17 18  2  0
 18 19  1  0
 19 20  2  0
 20 21  1  0
 20 22  1  0
 22 23  2  0
  5 24  1  0
 24 25  1  0
 25  2  1  0
 23  9  1  0
 15 10  1  0
 23 17  1  0
  1 26  1  0
  1 27  1  0
  1 28  1  0
  3 29  1  0
  3 30  1  0
  4 31  1  0
  4 32  1  0
  6 33  1  0
  6 34  1  0
  7 35  1  0
  7 36  1  0
  8 37  1  0
  8 38  1  0
 11 39  1  0
 12 40  1  0
 13 41  1  0
 14 42  1  0
 18 43  1  0
 19 44  1  0
 22 45  1  0
 24 46  1  0
 24 47  1  0
 25 48  1  0
 25 49  1  0
M  END
$$$$
