
     RDKit          3D

 59 63  0  0  0  0  0  0  0  0999 V2000
   -5.3104   -3.6974    0.3994 C   0  0  0  0  0  0  0  0  0  0  0  0
   -4.7716   -2.4521    1.0924 C   0  0  0  0  0  0  0  0  0  0  0  0
   -3.6199   -1.7832    0.3257 C   0  0  0  0  0  0  0  0  0  0  0  0
   -2.4605   -2.6623    0.3098 N   0  0  0  0  0  0  0  0  0  0  0  0
   -1.3370   -2.0662   -0.2669 C   0  0  0  0  0  0  0  0  0  0  0  0
   -0.5783   -2.9122   -0.9772 N   0  0  0  0  0  0  0  0  0  0  0  0
    0.5532   -2.4055   -1.4576 C   0  0  0  0  0  0  0  0  0  0  0  0
    1.0118   -1.1718   -1.2343 N   0  0  0  0  0  0  0  0  0  0  0  0
    0.2644   -0.3495   -0.4665 C   0  0  0  0  0  0  0  0  0  0  0  0
    0.8886    0.8394   -0.0453 N   0  0  0  0  0  0  0  0  0  0  0  0
    1.3348    0.7502    1.3777 C   0  0  0  0  0  0  0  0  0  0  0  0
    2.6808    0.0127    1.5473 C   0  0  0  0  0  0  0  0  0  0  0  0
    3.7242    0.6614    0.7208 N   0  0  0  0  0  0  0  0  0  0  0  0
    5.0047    0.1102    0.9394 C   0  0  0  0  0  0  0  0  0  0  0  0
    6.1273    0.7504    0.4079 C   0  0  0  0  0  0  0  0  0  0  0  0
    7.4004    0.2261    0.6270 C   0  0  0  0  0  0  0  0  0  0  0  0
    7.5345   -0.9272    1.3826 C   0  0  0  0  0  0  0  0  0  0  0  0
    6.3843   -1.4983    1.8922 C   0  0  0  0  0  0  0  0  0  0  0  0
    5.1416   -1.0042    1.6915 N   0  0  0  0  0  0  0  0  0  0  0  0
    3.3533    0.6707   -0.7143 C   0  0  0  0  0  0  0  0  0  0  0  0
    1.9737    1.3423   -0.9289 C   0  0  0  0  0  0  0  0  0  0  0  0
   -1.0239   -0.7188   -0.0378 C   0  0  0  0  0  0  0  0  0  0  0  0
   -2.0181    0.1216    0.5960 N   0  0  0  0  0  0  0  0  0  0  0  0
   -1.9079    1.5747    0.6786 C   0  0  0  0  0  0  0  0  0  0  0  0
   -2.5342    2.2710   -0.5184 C   0  0  0  0  0  0  0  0  0  0  0  0
   -1.8092    2.4642   -1.7025 C   0  0  0  0  0  0  0  0  0  0  0  0
   -2.3967    3.0875   -2.8064 C   0  0  0  0  0  0  0  0  0  0  0  0
   -3.7178    3.5214   -2.7335 C   0  0  0  0  0  0  0  0  0  0  0  0
   -4.5135    4.3628   -4.2273 Br  0  0  0  0  0  0  0  0  0  0  0  0
   -4.4561    3.3380   -1.5677 C   0  0  0  0  0  0  0  0  0  0  0  0
   -3.8658    2.7145   -0.4659 C   0  0  0  0  0  0  0  0  0  0  0  0
   -3.2743   -0.4092    0.9421 C   0  0  0  0  0  0  0  0  0  0  0  0
   -4.1042    0.2261    1.5990 O   0  0  0  0  0  0  0  0  0  0  0  0
   -4.5615   -4.4939    0.3621 H   0  0  0  0  0  0  0  0  0  0  0  0
   -6.1777   -4.0839    0.9445 H   0  0  0  0  0  0  0  0  0  0  0  0
   -5.6273   -3.4710   -0.6236 H   0  0  0  0  0  0  0  0  0  0  0  0
   -5.6034   -1.7458    1.2040 H   0  0  0  0  0  0  0  0  0  0  0  0
   -4.4472   -2.7159    2.1070 H   0  0  0  0  0  0  0  0  0  0  0  0
   -3.9493   -1.5867   -0.7044 H   0  0  0  0  0  0  0  0  0  0  0  0
   -2.5826   -3.5683   -0.1332 H   0  0  0  0  0  0  0  0  0  0  0  0
    1.1695   -3.0581   -2.0658 H   0  0  0  0  0  0  0  0  0  0  0  0
    1.4490    1.7776    1.7476 H   0  0  0  0  0  0  0  0  0  0  0  0
    0.5745    0.2791    2.0126 H   0  0  0  0  0  0  0  0  0  0  0  0
    2.5604   -1.0425    1.2686 H   0  0  0  0  0  0  0  0  0  0  0  0
    2.9537    0.0603    2.6093 H   0  0  0  0  0  0  0  0  0  0  0  0
    6.0188    1.6710   -0.1550 H   0  0  0  0  0  0  0  0  0  0  0  0
    8.2746    0.7233    0.2179 H   0  0  0  0  0  0  0  0  0  0  0  0
    8.5066   -1.3641    1.5779 H   0  0  0  0  0  0  0  0  0  0  0  0
    6.4280   -2.3982    2.4986 H   0  0  0  0  0  0  0  0  0  0  0  0
    3.3543   -0.3530   -1.1062 H   0  0  0  0  0  0  0  0  0  0  0  0
    4.0821    1.2396   -1.3037 H   0  0  0  0  0  0  0  0  0  0  0  0
    2.0819    2.4137   -0.7143 H   0  0  0  0  0  0  0  0  0  0  0  0
    1.6804    1.2782   -1.9845 H   0  0  0  0  0  0  0  0  0  0  0  0
   -2.4300    1.9123    1.5845 H   0  0  0  0  0  0  0  0  0  0  0  0
   -0.8957    1.9355    0.8312 H   0  0  0  0  0  0  0  0  0  0  0  0
   -0.7777    2.1323   -1.7750 H   0  0  0  0  0  0  0  0  0  0  0  0
   -1.8158    3.2276   -3.7139 H   0  0  0  0  0  0  0  0  0  0  0  0
   -5.4881    3.6723   -1.5038 H   0  0  0  0  0  0  0  0  0  0  0  0
   -4.4559    2.5716    0.4387 H   0  0  0  0  0  0  0  0  0  0  0  0
  1  2  1  0
  2  3  1  0
  3  4  1  0
  4  5  1  0
  5  6  2  0
  6  7  1  0
  7  8  2  0
  8  9  1  0
  9 10  1  0
 10 11  1  0
 11 12  1  0
 12 13  1  0
 13 14  1  0
 14 15  2  0
 15 16  1  0
 16 17  2  0
 17 18  1  0
 18 19  2  0
 13 20  1  0
 20 21  1  0
  9 22  2  0
 22 23  1  0
 23 24  1  0
 24 25  1  0
 25 26  2  0
 26 27  1  0
 27 28  2  0
 28 29  1  0
 28 30  1  0
 30 31  2  0
 23 32  1  0
 32 33  2  0
 32  3  1  0
 22  5  1  0
 31 25  1  0
 21 10  1  0
 19 14  1  0
  1 34  1  0
  1 35  1  0
  1 36  1  0
  2 37  1  0
  2 38  1  0
  3 39  1  0
  4 40  1  0
  7 41  1  0
 11 42  1  0
 11 43  1  0
 12 44  1  0
 12 45  1  0
 15 46  1  0
 16 47  1  0
 17 48  1  0
 18 49  1  0
 20 50  1  0
 20 51  1  0
 21 52  1  0
 21 53  1  0
 24 54  1  0
 24 55  1  0
 26 56  1  0
 27 57  1  0
 30 58  1  0
 31 59  1  0
M  END
$$$$
