
     RDKit          3D

 34 35  0  0  0  0  0  0  0  0999 V2000
    4.0985   -1.8656   -0.4686 C   0  0  0  0  0  0  0  0  0  0  0  0
    3.9608   -0.9157    0.7065 C   0  0  0  0  0  0  0  0  0  0  0  0
    2.5968   -0.4943    0.8437 O   0  0  0  0  0  0  0  0  0  0  0  0
    2.2429    0.5724    0.1004 C   0  0  0  0  0  0  0  0  0  0  0  0
    2.9337    1.2523   -0.6340 O   0  0  0  0  0  0  0  0  0  0  0  0
    0.7737    0.8763    0.3452 C   0  0  0  0  0  0  0  0  0  0  0  0
   -0.0811    0.1093   -0.2457 N   0  0  0  0  0  0  0  0  0  0  0  0
   -1.4285    0.3399   -0.0592 N   0  0  0  0  0  0  0  0  0  0  0  0
   -2.2701   -0.5915   -0.7760 C   0  0  0  0  0  0  0  0  0  0  0  0
   -3.6720   -0.5528   -0.7357 C   0  0  0  0  0  0  0  0  0  0  0  0
   -4.4522   -1.4763   -1.4465 C   0  0  0  0  0  0  0  0  0  0  0  0
   -3.8486   -2.4631   -2.2167 C   0  0  0  0  0  0  0  0  0  0  0  0
   -2.4631   -2.5278   -2.2774 C   0  0  0  0  0  0  0  0  0  0  0  0
   -1.6873   -1.6043   -1.5665 C   0  0  0  0  0  0  0  0  0  0  0  0
   -1.9042    1.3805    0.7516 C   0  0  0  0  0  0  0  0  0  0  0  0
   -3.0829    1.6525    0.9729 O   0  0  0  0  0  0  0  0  0  0  0  0
   -0.8629    2.2320    1.4059 C   0  0  0  0  0  0  0  0  0  0  0  0
   -1.3312    3.2933    2.2331 C   0  0  0  0  0  0  0  0  0  0  0  0
   -1.6400    4.1741    2.9233 N   0  0  0  0  0  0  0  0  0  0  0  0
    0.4508    2.0149    1.2296 C   0  0  0  0  0  0  0  0  0  0  0  0
    1.5775    2.7979    1.8370 C   0  0  0  0  0  0  0  0  0  0  0  0
    5.1232   -2.2394   -0.5473 H   0  0  0  0  0  0  0  0  0  0  0  0
    3.4191   -2.7169   -0.3564 H   0  0  0  0  0  0  0  0  0  0  0  0
    3.8344   -1.3690   -1.4076 H   0  0  0  0  0  0  0  0  0  0  0  0
    4.2316   -1.4331    1.6327 H   0  0  0  0  0  0  0  0  0  0  0  0
    4.6346   -0.0567    0.6077 H   0  0  0  0  0  0  0  0  0  0  0  0
   -4.2164    0.1864   -0.1588 H   0  0  0  0  0  0  0  0  0  0  0  0
   -5.5367   -1.4166   -1.3927 H   0  0  0  0  0  0  0  0  0  0  0  0
   -4.4560   -3.1767   -2.7665 H   0  0  0  0  0  0  0  0  0  0  0  0
   -1.9783   -3.2940   -2.8766 H   0  0  0  0  0  0  0  0  0  0  0  0
   -0.6068   -1.6958   -1.6467 H   0  0  0  0  0  0  0  0  0  0  0  0
    2.2407    2.1378    2.4061 H   0  0  0  0  0  0  0  0  0  0  0  0
    1.2378    3.5751    2.5273 H   0  0  0  0  0  0  0  0  0  0  0  0
    2.1623    3.2949    1.0562 H   0  0  0  0  0  0  0  0  0  0  0  0
  1  2  1  0
  2  3  1  0
  3  4  1  0
  4  5  2  0
  4  6  1  0
  6  7  2  0
  7  8  1  0
  8  9  1  0
  9 10  2  0
 10 11  1  0
 11 12  2  0
 12 13  1  0
 13 14  2  0
  8 15  1  0
 15 16  2  0
 15 17  1  0
 17 18  1  0
 18 19  3  0
 17 20  2  0
 20 21  1  0
 20  6  1  0
 14  9  1  0
  1 22  1  0
  1 23  1  0
  1 24  1  0
  2 25  1  0
  2 26  1  0
 10 27  1  0
 11 28  1  0
 12 29  1  0
 13 30  1  0
 14 31  1  0
 21 32  1  0
 21 33  1  0
 21 34  1  0
M  END
$$$$
