
     RDKit          3D

 50 53  0  0  0  0  0  0  0  0999 V2000
   -2.2701    1.9569   -3.1412 C   0  0  0  0  0  0  0  0  0  0  0  0
   -3.2091    1.4932   -2.1372 N   0  0  0  0  0  0  0  0  0  0  0  0
   -4.5209    1.1745   -2.3965 C   0  0  0  0  0  0  0  0  0  0  0  0
   -5.1159    0.7813   -1.2167 C   0  0  0  0  0  0  0  0  0  0  0  0
   -4.1360    0.8699   -0.2054 C   0  0  0  0  0  0  0  0  0  0  0  0
   -2.9497    1.2995   -0.7946 C   0  0  0  0  0  0  0  0  0  0  0  0
   -1.6102    1.5321   -0.1612 C   0  0  0  0  0  0  0  0  0  0  0  0
   -0.6406    0.4426   -0.4826 C   0  0  0  0  0  0  0  0  0  0  0  0
    0.2998    0.5392   -1.4069 N   0  0  0  0  0  0  0  0  0  0  0  0
    0.8670   -0.6887   -1.5701 N   0  0  0  0  0  0  0  0  0  0  0  0
    0.3056   -1.5100   -0.7120 C   0  0  0  0  0  0  0  0  0  0  0  0
    0.9130   -3.0979   -0.3668 S   0  0  0  0  0  0  0  0  0  0  0  0
    2.6685   -2.8987   -0.7746 C   0  0  0  0  0  0  0  0  0  0  0  0
    3.3724   -1.9571    0.1942 C   0  0  0  0  0  0  0  0  0  0  0  0
    3.9162   -2.3881    1.2095 O   0  0  0  0  0  0  0  0  0  0  0  0
    3.3270   -0.6320   -0.2108 N   0  0  0  0  0  0  0  0  0  0  0  0
    3.9820    0.4763    0.3586 C   0  0  0  0  0  0  0  0  0  0  0  0
    3.6948    1.7318   -0.1888 C   0  0  0  0  0  0  0  0  0  0  0  0
    4.3407    2.8792    0.2778 C   0  0  0  0  0  0  0  0  0  0  0  0
    5.2769    2.7814    1.3022 C   0  0  0  0  0  0  0  0  0  0  0  0
    5.5676    1.5331    1.8611 C   0  0  0  0  0  0  0  0  0  0  0  0
    4.9186    0.3851    1.3921 C   0  0  0  0  0  0  0  0  0  0  0  0
   -0.6744   -0.8570    0.0158 N   0  0  0  0  0  0  0  0  0  0  0  0
   -1.4952   -1.3795    1.0518 C   0  0  0  0  0  0  0  0  0  0  0  0
   -2.1416   -2.6132    0.8797 C   0  0  0  0  0  0  0  0  0  0  0  0
   -2.9498   -3.1268    1.8971 C   0  0  0  0  0  0  0  0  0  0  0  0
   -3.1036   -2.4123    3.0764 C   0  0  0  0  0  0  0  0  0  0  0  0
   -3.8698   -2.9030    4.0586 F   0  0  0  0  0  0  0  0  0  0  0  0
   -2.4618   -1.1925    3.2609 C   0  0  0  0  0  0  0  0  0  0  0  0
   -1.6540   -0.6710    2.2483 C   0  0  0  0  0  0  0  0  0  0  0  0
   -2.8267    2.3489   -4.0014 H   0  0  0  0  0  0  0  0  0  0  0  0
   -1.6558    1.1069   -3.4542 H   0  0  0  0  0  0  0  0  0  0  0  0
   -1.6536    2.7553   -2.7214 H   0  0  0  0  0  0  0  0  0  0  0  0
   -4.9254    1.2496   -3.3953 H   0  0  0  0  0  0  0  0  0  0  0  0
   -6.1526    0.4706   -1.0943 H   0  0  0  0  0  0  0  0  0  0  0  0
   -4.2769    0.6350    0.8416 H   0  0  0  0  0  0  0  0  0  0  0  0
   -1.7293    1.6612    0.9167 H   0  0  0  0  0  0  0  0  0  0  0  0
   -1.1990    2.4905   -0.5110 H   0  0  0  0  0  0  0  0  0  0  0  0
    2.8029   -2.5560   -1.8014 H   0  0  0  0  0  0  0  0  0  0  0  0
    3.1504   -3.8783   -0.7037 H   0  0  0  0  0  0  0  0  0  0  0  0
    2.6857   -0.4111   -0.9733 H   0  0  0  0  0  0  0  0  0  0  0  0
    2.9710    1.8283   -0.9947 H   0  0  0  0  0  0  0  0  0  0  0  0
    4.1095    3.8515   -0.1683 H   0  0  0  0  0  0  0  0  0  0  0  0
    5.7896    3.6705    1.6625 H   0  0  0  0  0  0  0  0  0  0  0  0
    6.3029    1.4522    2.6558 H   0  0  0  0  0  0  0  0  0  0  0  0
    5.1798   -0.5666    1.8323 H   0  0  0  0  0  0  0  0  0  0  0  0
   -2.0594   -3.1746   -0.0500 H   0  0  0  0  0  0  0  0  0  0  0  0
   -3.4580   -4.0760    1.7718 H   0  0  0  0  0  0  0  0  0  0  0  0
   -2.5821   -0.6641    4.2001 H   0  0  0  0  0  0  0  0  0  0  0  0
   -1.1202    0.2580    2.4412 H   0  0  0  0  0  0  0  0  0  0  0  0
  1  2  1  0
  2  3  1  0
  3  4  2  0
  4  5  1  0
  5  6  2  0
  6  7  1  0
  7  8  1  0
  8  9  2  0
  9 10  1  0
 10 11  2  0
 11 12  1  0
 12 13  1  0
 13 14  1  0
 14 15  2  0
 14 16  1  0
 16 17  1  0
 17 18  2  0
 18 19  1  0
 19 20  2  0
 20 21  1  0
 21 22  2  0
 11 23  1  0
 23 24  1  0
 24 25  2  0
 25 26  1  0
 26 27  2  0
 27 28  1  0
 27 29  1  0
 29 30  2  0
  6  2  1  0
 23  8  1  0
 30 24  1  0
 22 17  1  0
  1 31  1  0
  1 32  1  0
  1 33  1  0
  3 34  1  0
  4 35  1  0
  5 36  1  0
  7 37  1  0
  7 38  1  0
 13 39  1  0
 13 40  1  0
 16 41  1  0
 18 42  1  0
 19 43  1  0
 20 44  1  0
 21 45  1  0
 22 46  1  0
 25 47  1  0
 26 48  1  0
 29 49  1  0
 30 50  1  0
M  END
$$$$
