
     RDKit          3D

 40 41  0  0  0  0  0  0  0  0999 V2000
    7.6557    0.0330    1.0728 C   0  0  0  0  0  0  0  0  0  0  0  0
    6.8831   -0.6794    0.1146 O   0  0  0  0  0  0  0  0  0  0  0  0
    5.5242   -0.6248    0.2513 C   0  0  0  0  0  0  0  0  0  0  0  0
    4.8232    0.0941    1.2179 C   0  0  0  0  0  0  0  0  0  0  0  0
    3.4222    0.0628    1.2429 C   0  0  0  0  0  0  0  0  0  0  0  0
    2.7037   -0.6949    0.3092 C   0  0  0  0  0  0  0  0  0  0  0  0
    1.2344   -0.7260    0.2800 C   0  0  0  0  0  0  0  0  0  0  0  0
    0.4666   -0.6937    1.3809 C   0  0  0  0  0  0  0  0  0  0  0  0
   -1.0185   -0.7728    1.3450 C   0  0  0  0  0  0  0  0  0  0  0  0
   -1.5925   -1.4073    2.2197 O   0  0  0  0  0  0  0  0  0  0  0  0
   -1.5955   -0.0348    0.3319 N   0  0  0  0  0  0  0  0  0  0  0  0
   -2.9351    0.0936    0.0039 C   0  0  0  0  0  0  0  0  0  0  0  0
   -3.8908   -0.5941    0.6390 C   0  0  0  0  0  0  0  0  0  0  0  0
   -5.3040   -0.4492    0.2745 C   0  0  0  0  0  0  0  0  0  0  0  0
   -6.1494   -1.0728    0.9115 O   0  0  0  0  0  0  0  0  0  0  0  0
   -5.5753    0.3929   -0.7765 N   0  0  0  0  0  0  0  0  0  0  0  0
   -6.9556    0.5715   -1.1859 C   0  0  0  0  0  0  0  0  0  0  0  0
   -4.6148    1.1409   -1.4379 C   0  0  0  0  0  0  0  0  0  0  0  0
   -4.9227    1.9237   -2.3403 O   0  0  0  0  0  0  0  0  0  0  0  0
   -3.2895    0.9613   -1.0262 N   0  0  0  0  0  0  0  0  0  0  0  0
   -2.2798    1.7470   -1.7303 C   0  0  0  0  0  0  0  0  0  0  0  0
    3.4143   -1.4009   -0.6673 C   0  0  0  0  0  0  0  0  0  0  0  0
    4.8120   -1.3684   -0.6906 C   0  0  0  0  0  0  0  0  0  0  0  0
    8.7120   -0.1273    0.8364 H   0  0  0  0  0  0  0  0  0  0  0  0
    7.4610    1.1090    1.0144 H   0  0  0  0  0  0  0  0  0  0  0  0
    7.4793   -0.3470    2.0846 H   0  0  0  0  0  0  0  0  0  0  0  0
    5.3323    0.6938    1.9651 H   0  0  0  0  0  0  0  0  0  0  0  0
    2.9068    0.6486    2.0005 H   0  0  0  0  0  0  0  0  0  0  0  0
    0.7920   -0.8286   -0.7080 H   0  0  0  0  0  0  0  0  0  0  0  0
    0.8844   -0.7014    2.3826 H   0  0  0  0  0  0  0  0  0  0  0  0
   -0.9513    0.5185   -0.2103 H   0  0  0  0  0  0  0  0  0  0  0  0
   -3.7134   -1.2917    1.4460 H   0  0  0  0  0  0  0  0  0  0  0  0
   -7.0308    0.4654   -2.2731 H   0  0  0  0  0  0  0  0  0  0  0  0
   -7.6266   -0.1507   -0.7136 H   0  0  0  0  0  0  0  0  0  0  0  0
   -7.2716    1.5840   -0.9140 H   0  0  0  0  0  0  0  0  0  0  0  0
   -1.5734    1.0688   -2.2204 H   0  0  0  0  0  0  0  0  0  0  0  0
   -1.7557    2.3870   -1.0128 H   0  0  0  0  0  0  0  0  0  0  0  0
   -2.7054    2.3945   -2.5015 H   0  0  0  0  0  0  0  0  0  0  0  0
    2.8937   -1.9946   -1.4155 H   0  0  0  0  0  0  0  0  0  0  0  0
    5.3505   -1.9301   -1.4505 H   0  0  0  0  0  0  0  0  0  0  0  0
  1  2  1  0
  2  3  1  0
  3  4  2  0
  4  5  1  0
  5  6  2  0
  6  7  1  0
  7  8  2  3
  8  9  1  0
  9 10  2  0
  9 11  1  0
 11 12  1  0
 12 13  2  0
 13 14  1  0
 14 15  2  0
 14 16  1  0
 16 17  1  0
 16 18  1  0
 18 19  2  0
 18 20  1  0
 20 21  1  0
  6 22  1  0
 22 23  2  0
 23  3  1  0
 20 12  1  0
  1 24  1  0
  1 25  1  0
  1 26  1  0
  4 27  1  0
  5 28  1  0
  7 29  1  0
  8 30  1  0
 11 31  1  0
 13 32  1  0
 17 33  1  0
 17 34  1  0
 17 35  1  0
 21 36  1  0
 21 37  1  0
 21 38  1  0
 22 39  1  0
 23 40  1  0
M  END
$$$$
