
     RDKit          3D

 43 45  0  0  0  0  0  0  0  0999 V2000
   -1.3347   -2.1350    3.0932 C   0  0  0  0  0  0  0  0  0  0  0  0
   -1.3310   -1.3184    1.8374 C   0  0  0  0  0  0  0  0  0  0  0  0
   -0.1566   -1.0983    1.1531 C   0  0  0  0  0  0  0  0  0  0  0  0
   -0.2287   -0.3349    0.0043 C   0  0  0  0  0  0  0  0  0  0  0  0
    0.9086   -0.0721   -0.7742 N   0  0  0  0  0  0  0  0  0  0  0  0
    2.1430   -0.2348   -0.2449 N   0  0  0  0  0  0  0  0  0  0  0  0
    3.1205    0.1471   -0.9978 C   0  0  0  0  0  0  0  0  0  0  0  0
    4.5247    0.0023   -0.5682 C   0  0  0  0  0  0  0  0  0  0  0  0
    5.5027    0.0246   -1.5716 C   0  0  0  0  0  0  0  0  0  0  0  0
    6.8508   -0.1679   -1.2468 C   0  0  0  0  0  0  0  0  0  0  0  0
    7.2348   -0.3868    0.0767 C   0  0  0  0  0  0  0  0  0  0  0  0
    6.2750   -0.3952    1.0884 C   0  0  0  0  0  0  0  0  0  0  0  0
    4.9277   -0.1948    0.7561 C   0  0  0  0  0  0  0  0  0  0  0  0
    3.9861   -0.1014    1.8506 N   0  0  0  0  0  4  0  0  0  0  0  0
    3.5961    1.0355    2.1509 O   0  0  0  0  0  0  0  0  0  0  0  0
    3.7183   -1.1491    2.4560 O   0  0  0  0  0  1  0  0  0  0  0  0
   -1.3914    0.1668   -0.4473 N   0  0  0  0  0  0  0  0  0  0  0  0
   -2.5047   -0.0998    0.2713 C   0  0  0  0  0  0  0  0  0  0  0  0
   -3.7705    0.4180   -0.2038 N   0  0  0  0  0  0  0  0  0  0  0  0
   -4.9351    0.1443    0.4651 N   0  0  0  0  0  0  0  0  0  0  0  0
   -5.8995    0.7373   -0.2384 C   0  0  0  0  0  0  0  0  0  0  0  0
   -7.3126    0.6382    0.1999 C   0  0  0  0  0  0  0  0  0  0  0  0
   -5.3866    1.4157   -1.3587 C   0  0  0  0  0  0  0  0  0  0  0  0
   -4.0230    1.2073   -1.3261 C   0  0  0  0  0  0  0  0  0  0  0  0
   -2.9833    1.6988   -2.2649 C   0  0  0  0  0  0  0  0  0  0  0  0
   -2.5089   -0.8337    1.4065 N   0  0  0  0  0  0  0  0  0  0  0  0
   -1.0536   -3.1694    2.8717 H   0  0  0  0  0  0  0  0  0  0  0  0
   -2.3291   -2.1423    3.5494 H   0  0  0  0  0  0  0  0  0  0  0  0
   -0.6305   -1.7183    3.8198 H   0  0  0  0  0  0  0  0  0  0  0  0
    0.7853   -1.5018    1.5026 H   0  0  0  0  0  0  0  0  0  0  0  0
    0.7031    0.5885   -1.5185 H   0  0  0  0  0  0  0  0  0  0  0  0
    2.9447    0.5529   -2.0111 H   0  0  0  0  0  0  0  0  0  0  0  0
    5.2319    0.1761   -2.6131 H   0  0  0  0  0  0  0  0  0  0  0  0
    7.6046   -0.1503   -2.0312 H   0  0  0  0  0  0  0  0  0  0  0  0
    8.2851   -0.5381    0.3202 H   0  0  0  0  0  0  0  0  0  0  0  0
    6.5773   -0.5423    2.1237 H   0  0  0  0  0  0  0  0  0  0  0  0
   -7.9915    0.7258   -0.6549 H   0  0  0  0  0  0  0  0  0  0  0  0
   -7.5483    1.4383    0.9088 H   0  0  0  0  0  0  0  0  0  0  0  0
   -7.5095   -0.3227    0.6864 H   0  0  0  0  0  0  0  0  0  0  0  0
   -5.9370    1.9845   -2.0962 H   0  0  0  0  0  0  0  0  0  0  0  0
   -2.4844    0.8663   -2.7725 H   0  0  0  0  0  0  0  0  0  0  0  0
   -3.4321    2.3307   -3.0394 H   0  0  0  0  0  0  0  0  0  0  0  0
   -2.2376    2.3089   -1.7453 H   0  0  0  0  0  0  0  0  0  0  0  0
  1  2  1  0
  2  3  2  0
  3  4  1  0
  4  5  1  0
  5  6  1  0
  6  7  2  3
  7  8  1  0
  8  9  2  0
  9 10  1  0
 10 11  2  0
 11 12  1  0
 12 13  2  0
 13 14  1  0
 14 15  2  0
 14 16  1  0
  4 17  2  0
 17 18  1  0
 18 19  1  0
 19 20  1  0
 20 21  2  0
 21 22  1  0
 21 23  1  0
 23 24  2  0
 24 25  1  0
 18 26  2  0
 26  2  1  0
 13  8  1  0
 24 19  1  0
  1 27  1  0
  1 28  1  0
  1 29  1  0
  3 30  1  0
  5 31  1  0
  7 32  1  0
  9 33  1  0
 10 34  1  0
 11 35  1  0
 12 36  1  0
 22 37  1  0
 22 38  1  0
 22 39  1  0
 23 40  1  0
 25 41  1  0
 25 42  1  0
 25 43  1  0
M  CHG  2  14   1  16  -1
M  END
$$$$
