
     RDKit          3D

 46 48  0  0  0  0  0  0  0  0999 V2000
    3.2958   -1.8548   -2.8482 C   0  0  0  0  0  0  0  0  0  0  0  0
    2.3486   -1.1080   -1.9218 C   0  0  0  0  0  0  0  0  0  0  0  0
    2.1283    0.3707   -2.3108 N   0  0  0  0  0  4  0  0  0  0  0  0
    1.4523    0.4935   -3.6735 C   0  0  0  0  0  0  0  0  0  0  0  0
    3.4710    1.1119   -2.3647 C   0  0  0  0  0  0  0  0  0  0  0  0
    1.2746    1.0788   -1.2178 C   0  0  0  0  0  0  0  0  0  0  0  0
   -0.1759    0.5832   -1.1324 C   0  0  0  0  0  0  0  0  0  0  0  0
   -0.8964    1.1688    0.0573 C   0  0  0  0  0  0  0  0  0  0  0  0
   -1.3290    0.5380    1.1747 C   0  0  0  0  0  0  0  0  0  0  0  0
   -2.2494    1.2852    2.0764 C   0  0  0  0  0  0  0  0  0  0  0  0
   -1.9645    2.5829    2.5287 C   0  0  0  0  0  0  0  0  0  0  0  0
   -2.8551    3.2476    3.3740 C   0  0  0  0  0  0  0  0  0  0  0  0
   -4.0321    2.6225    3.7802 C   0  0  0  0  0  0  0  0  0  0  0  0
   -4.3186    1.3256    3.3525 C   0  0  0  0  0  0  0  0  0  0  0  0
   -3.4291    0.6465    2.5116 C   0  0  0  0  0  0  0  0  0  0  0  0
   -3.8409   -1.0278    2.0096 S   0  0  0  0  0  0  0  0  0  0  0  0
   -2.2058   -1.7188    1.7693 C   0  0  0  0  0  0  0  0  0  0  0  0
   -2.0245   -3.0941    1.9674 C   0  0  0  0  0  0  0  0  0  0  0  0
   -0.7562   -3.6652    1.8390 C   0  0  0  0  0  0  0  0  0  0  0  0
    0.3344   -2.8556    1.5385 C   0  0  0  0  0  0  0  0  0  0  0  0
    1.9037   -3.5410    1.3760 Cl  0  0  0  0  0  0  0  0  0  0  0  0
    0.1687   -1.4849    1.3466 C   0  0  0  0  0  0  0  0  0  0  0  0
   -1.1088   -0.9124    1.4087 C   0  0  0  0  0  0  0  0  0  0  0  0
    4.3123   -1.4542   -2.8074 H   0  0  0  0  0  0  0  0  0  0  0  0
    3.3546   -2.9035   -2.5370 H   0  0  0  0  0  0  0  0  0  0  0  0
    2.9534   -1.8439   -3.8862 H   0  0  0  0  0  0  0  0  0  0  0  0
    1.3725   -1.6005   -1.9337 H   0  0  0  0  0  0  0  0  0  0  0  0
    2.7389   -1.1156   -0.8983 H   0  0  0  0  0  0  0  0  0  0  0  0
    1.1701    1.5397   -3.8242 H   0  0  0  0  0  0  0  0  0  0  0  0
    2.1583    0.1856   -4.4491 H   0  0  0  0  0  0  0  0  0  0  0  0
    0.5711   -0.1532   -3.6890 H   0  0  0  0  0  0  0  0  0  0  0  0
    3.9836    0.9651   -1.4098 H   0  0  0  0  0  0  0  0  0  0  0  0
    3.2724    2.1743   -2.5361 H   0  0  0  0  0  0  0  0  0  0  0  0
    4.0651    0.7167   -3.1924 H   0  0  0  0  0  0  0  0  0  0  0  0
    1.8051    0.9348   -0.2691 H   0  0  0  0  0  0  0  0  0  0  0  0
    1.2846    2.1505   -1.4535 H   0  0  0  0  0  0  0  0  0  0  0  0
   -0.7243    0.8994   -2.0283 H   0  0  0  0  0  0  0  0  0  0  0  0
   -0.2347   -0.5061   -1.1260 H   0  0  0  0  0  0  0  0  0  0  0  0
   -1.1764    2.2150   -0.0845 H   0  0  0  0  0  0  0  0  0  0  0  0
   -1.0457    3.0857    2.2399 H   0  0  0  0  0  0  0  0  0  0  0  0
   -2.6306    4.2537    3.7213 H   0  0  0  0  0  0  0  0  0  0  0  0
   -4.7255    3.1415    4.4385 H   0  0  0  0  0  0  0  0  0  0  0  0
   -5.2373    0.8483    3.6873 H   0  0  0  0  0  0  0  0  0  0  0  0
   -2.8681   -3.7283    2.2352 H   0  0  0  0  0  0  0  0  0  0  0  0
   -0.6292   -4.7339    1.9955 H   0  0  0  0  0  0  0  0  0  0  0  0
    1.0386   -0.8640    1.1661 H   0  0  0  0  0  0  0  0  0  0  0  0
  1  2  1  0
  2  3  1  0
  3  4  1  0
  3  5  1  0
  3  6  1  0
  6  7  1  0
  7  8  1  0
  8  9  2  3
  9 10  1  0
 10 11  2  0
 11 12  1  0
 12 13  2  0
 13 14  1  0
 14 15  2  0
 15 16  1  0
 16 17  1  0
 17 18  2  0
 18 19  1  0
 19 20  2  0
 20 21  1  0
 20 22  1  0
 22 23  2  0
 23  9  1  0
 15 10  1  0
 23 17  1  0
  1 24  1  0
  1 25  1  0
  1 26  1  0
  2 27  1  0
  2 28  1  0
  4 29  1  0
  4 30  1  0
  4 31  1  0
  5 32  1  0
  5 33  1  0
  5 34  1  0
  6 35  1  0
  6 36  1  0
  7 37  1  0
  7 38  1  0
  8 39  1  0
 11 40  1  0
 12 41  1  0
 13 42  1  0
 14 43  1  0
 18 44  1  0
 19 45  1  0
 22 46  1  0
M  CHG  1   3   1
M  END
$$$$
