
     RDKit          3D

 58 62  0  0  0  0  0  0  0  0999 V2000
    6.8568    4.0308    0.8259 C   0  0  0  0  0  0  0  0  0  0  0  0
    6.6933    2.6177    0.8026 O   0  0  0  0  0  0  0  0  0  0  0  0
    5.4436    2.1434    0.5137 C   0  0  0  0  0  0  0  0  0  0  0  0
    5.3250    0.7525    0.5439 C   0  0  0  0  0  0  0  0  0  0  0  0
    4.1033    0.1340    0.2690 C   0  0  0  0  0  0  0  0  0  0  0  0
    2.9777    0.9038   -0.0441 C   0  0  0  0  0  0  0  0  0  0  0  0
    1.6511    0.2384   -0.3122 C   0  0  0  0  0  0  0  0  0  0  0  0
    0.9281   -0.1259    0.9892 C   0  0  0  0  0  0  0  0  0  0  0  0
   -0.4003   -0.7003    0.7002 N   0  0  0  0  0  0  0  0  0  0  0  0
   -1.5226    0.1254    0.5098 C   0  0  0  0  0  0  0  0  0  0  0  0
   -1.4815    1.4302    0.5341 N   0  0  0  0  0  0  0  0  0  0  0  0
   -2.8738   -0.4954    0.2488 C   0  0  0  0  0  0  0  0  0  0  0  0
   -4.1673    0.2377    0.0712 C   0  0  0  0  0  0  0  0  0  0  0  0
   -5.2044   -0.3473   -0.2275 O   0  0  0  0  0  0  0  0  0  0  0  0
   -4.1018    1.5891    0.2615 N   0  0  0  0  0  0  0  0  0  0  0  0
   -5.2087    2.4787    0.0094 C   0  0  0  0  0  0  0  0  0  0  0  0
   -4.9929    3.2224   -1.2588 C   0  0  0  0  0  0  0  0  0  0  0  0
   -4.1323    3.0853   -2.3308 C   0  0  0  0  0  0  0  0  0  0  0  0
   -4.4541    4.1191   -3.2428 C   0  0  0  0  0  0  0  0  0  0  0  0
   -5.4859    4.8256   -2.6716 C   0  0  0  0  0  0  0  0  0  0  0  0
   -5.8173    4.2935   -1.4678 O   0  0  0  0  0  0  0  0  0  0  0  0
   -2.8965   -1.8361    0.1602 C   0  0  0  0  0  0  0  0  0  0  0  0
   -1.7075   -2.6591    0.2984 C   0  0  0  0  0  0  0  0  0  0  0  0
   -1.8210   -4.1393    0.1539 C   0  0  0  0  0  0  0  0  0  0  0  0
   -2.9163   -4.6546   -0.0795 O   0  0  0  0  0  0  0  0  0  0  0  0
   -0.6452   -4.8546    0.2970 N   0  0  0  0  0  0  0  0  0  0  0  0
   -0.6683   -6.2408    0.1800 C   0  0  0  0  0  0  0  0  0  0  0  0
    0.4425   -6.9774    0.3065 C   0  0  0  0  0  0  0  0  0  0  0  0
    1.7013   -6.3336    0.5701 C   0  0  0  0  0  0  0  0  0  0  0  0
    1.7690   -5.0024    0.6908 C   0  0  0  0  0  0  0  0  0  0  0  0
    0.5332   -4.1798    0.5514 C   0  0  0  0  0  0  0  0  0  0  0  0
    0.6294   -2.8947    0.6744 N   0  0  0  0  0  0  0  0  0  0  0  0
   -0.4979   -2.1118    0.5566 C   0  0  0  0  0  0  0  0  0  0  0  0
    3.0980    2.2985   -0.0751 C   0  0  0  0  0  0  0  0  0  0  0  0
    4.3245    2.9146    0.2010 C   0  0  0  0  0  0  0  0  0  0  0  0
    7.8969    4.2423    1.0944 H   0  0  0  0  0  0  0  0  0  0  0  0
    6.2170    4.4910    1.5871 H   0  0  0  0  0  0  0  0  0  0  0  0
    6.6728    4.4654   -0.1629 H   0  0  0  0  0  0  0  0  0  0  0  0
    6.1942    0.1450    0.7848 H   0  0  0  0  0  0  0  0  0  0  0  0
    4.0388   -0.9515    0.3009 H   0  0  0  0  0  0  0  0  0  0  0  0
    1.8138   -0.6578   -0.9247 H   0  0  0  0  0  0  0  0  0  0  0  0
    1.0274    0.9005   -0.9253 H   0  0  0  0  0  0  0  0  0  0  0  0
    0.8345    0.7487    1.6448 H   0  0  0  0  0  0  0  0  0  0  0  0
    1.5385   -0.8219    1.5790 H   0  0  0  0  0  0  0  0  0  0  0  0
   -0.5360    1.7710    0.7037 H   0  0  0  0  0  0  0  0  0  0  0  0
   -3.1757    1.9891    0.4265 H   0  0  0  0  0  0  0  0  0  0  0  0
   -6.1510    1.9228   -0.0344 H   0  0  0  0  0  0  0  0  0  0  0  0
   -5.2558    3.1773    0.8514 H   0  0  0  0  0  0  0  0  0  0  0  0
   -3.3740    2.3219   -2.4401 H   0  0  0  0  0  0  0  0  0  0  0  0
   -3.9969    4.3204   -4.2006 H   0  0  0  0  0  0  0  0  0  0  0  0
   -6.0706    5.6811   -2.9787 H   0  0  0  0  0  0  0  0  0  0  0  0
   -3.8342   -2.3569   -0.0295 H   0  0  0  0  0  0  0  0  0  0  0  0
   -1.6317   -6.7048   -0.0195 H   0  0  0  0  0  0  0  0  0  0  0  0
    0.4147   -8.0585    0.2136 H   0  0  0  0  0  0  0  0  0  0  0  0
    2.5886   -6.9511    0.6683 H   0  0  0  0  0  0  0  0  0  0  0  0
    2.6966   -4.4809    0.8897 H   0  0  0  0  0  0  0  0  0  0  0  0
    2.2397    2.9218   -0.3184 H   0  0  0  0  0  0  0  0  0  0  0  0
    4.3710    3.9976    0.1602 H   0  0  0  0  0  0  0  0  0  0  0  0
  1  2  1  0
  2  3  1  0
  3  4  2  0
  4  5  1  0
  5  6  2  0
  6  7  1  0
  7  8  1  0
  8  9  1  0
  9 10  1  0
 10 11  2  3
 10 12  1  0
 12 13  1  0
 13 14  2  0
 13 15  1  0
 15 16  1  0
 16 17  1  0
 17 18  2  0
 18 19  1  0
 19 20  2  0
 20 21  1  0
 12 22  2  0
 22 23  1  0
 23 24  1  0
 24 25  2  0
 24 26  1  0
 26 27  1  0
 27 28  2  0
 28 29  1  0
 29 30  2  0
 30 31  1  0
 31 32  2  0
 32 33  1  0
  6 34  1  0
 34 35  2  0
 35  3  1  0
 33  9  1  0
 21 17  1  0
 33 23  2  0
 31 26  1  0
  1 36  1  0
  1 37  1  0
  1 38  1  0
  4 39  1  0
  5 40  1  0
  7 41  1  0
  7 42  1  0
  8 43  1  0
  8 44  1  0
 11 45  1  0
 15 46  1  0
 16 47  1  0
 16 48  1  0
 18 49  1  0
 19 50  1  0
 20 51  1  0
 22 52  1  0
 27 53  1  0
 28 54  1  0
 29 55  1  0
 30 56  1  0
 34 57  1  0
 35 58  1  0
M  END
$$$$
