
     RDKit          3D

 38 39  0  0  0  0  0  0  0  0999 V2000
    0.5348    1.2674    2.3101 C   0  0  0  0  0  0  0  0  0  0  0  0
    0.5629    0.6582    0.9232 C   0  0  0  0  0  0  0  0  0  0  0  0
    1.8688    0.4522    0.2296 C   0  0  0  0  0  0  0  0  0  0  0  0
    3.0691    0.5195    0.8240 C   0  0  0  0  0  0  0  0  0  0  0  0
    4.3379    0.3019    0.1127 C   0  0  0  0  0  0  0  0  0  0  0  0
    4.4850   -0.6828   -0.8734 C   0  0  0  0  0  0  0  0  0  0  0  0
    5.7164   -0.8786   -1.5044 C   0  0  0  0  0  0  0  0  0  0  0  0
    6.8153   -0.0996   -1.1489 C   0  0  0  0  0  0  0  0  0  0  0  0
    6.6858    0.8720   -0.1591 C   0  0  0  0  0  0  0  0  0  0  0  0
    5.4549    1.0677    0.4724 C   0  0  0  0  0  0  0  0  0  0  0  0
   -0.5041    0.2787    0.2761 N   0  0  0  0  0  0  0  0  0  0  0  0
   -1.7036    0.4123    0.9111 N   0  0  0  0  0  0  0  0  0  0  0  0
   -2.8691    0.0151    0.2286 C   0  0  0  0  0  0  0  0  0  0  0  0
   -2.9395    0.0651   -1.1131 N   0  0  0  0  0  0  0  0  0  0  0  0
   -4.0877   -0.3243   -1.6973 C   0  0  0  0  0  0  0  0  0  0  0  0
   -4.1501   -0.2671   -3.1931 C   0  0  0  0  0  0  0  0  0  0  0  0
   -5.1738   -0.7603   -0.9688 C   0  0  0  0  0  0  0  0  0  0  0  0
   -5.0247   -0.7784    0.4020 C   0  0  0  0  0  0  0  0  0  0  0  0
   -6.1522   -1.2353    1.2776 C   0  0  0  0  0  0  0  0  0  0  0  0
   -3.8845   -0.3950    1.0111 N   0  0  0  0  0  0  0  0  0  0  0  0
    0.5181    0.4656    3.0535 H   0  0  0  0  0  0  0  0  0  0  0  0
    1.4015    1.9085    2.4864 H   0  0  0  0  0  0  0  0  0  0  0  0
   -0.3505    1.8964    2.4393 H   0  0  0  0  0  0  0  0  0  0  0  0
    1.7691    0.2193   -0.8275 H   0  0  0  0  0  0  0  0  0  0  0  0
    3.1708    0.7458    1.8807 H   0  0  0  0  0  0  0  0  0  0  0  0
    3.6474   -1.3162   -1.1563 H   0  0  0  0  0  0  0  0  0  0  0  0
    5.8167   -1.6431   -2.2705 H   0  0  0  0  0  0  0  0  0  0  0  0
    7.7726   -0.2525   -1.6403 H   0  0  0  0  0  0  0  0  0  0  0  0
    7.5427    1.4784    0.1227 H   0  0  0  0  0  0  0  0  0  0  0  0
    5.3753    1.8323    1.2419 H   0  0  0  0  0  0  0  0  0  0  0  0
   -1.8028    0.0579    1.8583 H   0  0  0  0  0  0  0  0  0  0  0  0
   -4.3389   -1.2644   -3.6024 H   0  0  0  0  0  0  0  0  0  0  0  0
   -4.9484    0.4100   -3.5129 H   0  0  0  0  0  0  0  0  0  0  0  0
   -3.2061    0.0987   -3.6098 H   0  0  0  0  0  0  0  0  0  0  0  0
   -6.0933   -1.0706   -1.4479 H   0  0  0  0  0  0  0  0  0  0  0  0
   -5.8692   -1.1884    2.3342 H   0  0  0  0  0  0  0  0  0  0  0  0
   -6.4187   -2.2704    1.0422 H   0  0  0  0  0  0  0  0  0  0  0  0
   -7.0282   -0.5958    1.1311 H   0  0  0  0  0  0  0  0  0  0  0  0
  1  2  1  0
  2  3  1  0
  3  4  2  3
  4  5  1  0
  5  6  2  0
  6  7  1  0
  7  8  2  0
  8  9  1  0
  9 10  2  0
  2 11  2  3
 11 12  1  0
 12 13  1  0
 13 14  2  0
 14 15  1  0
 15 16  1  0
 15 17  2  0
 17 18  1  0
 18 19  1  0
 18 20  2  0
 10  5  1  0
 20 13  1  0
  1 21  1  0
  1 22  1  0
  1 23  1  0
  3 24  1  0
  4 25  1  0
  6 26  1  0
  7 27  1  0
  8 28  1  0
  9 29  1  0
 10 30  1  0
 12 31  1  0
 16 32  1  0
 16 33  1  0
 16 34  1  0
 17 35  1  0
 19 36  1  0
 19 37  1  0
 19 38  1  0
M  END
$$$$
