
     RDKit          3D

 42 44  0  0  0  0  0  0  0  0999 V2000
   -0.3157    3.3967   -0.5493 C   0  0  0  0  0  0  0  0  0  0  0  0
   -0.2637    2.7086    0.8012 C   0  0  0  0  0  0  0  0  0  0  0  0
   -0.5176    1.3056    0.6450 O   0  0  0  0  0  0  0  0  0  0  0  0
   -1.8273    0.9177    0.6903 C   0  0  0  0  0  0  0  0  0  0  0  0
   -2.7632    1.6914    0.8575 O   0  0  0  0  0  0  0  0  0  0  0  0
   -2.0061   -0.5239    0.5160 C   0  0  0  0  0  0  0  0  0  0  0  0
   -0.9946   -1.4630    0.2881 C   0  0  0  0  0  0  0  0  0  0  0  0
    0.3597   -1.2095    0.1799 N   0  0  0  0  0  0  0  0  0  0  0  0
    1.3942   -2.0911   -0.0590 C   0  0  0  0  0  0  0  0  0  0  0  0
    1.3322   -3.3035   -0.2200 O   0  0  0  0  0  0  0  0  0  0  0  0
    2.6880   -1.3798   -0.1112 C   0  0  0  0  0  0  0  0  0  0  0  0
    3.9682   -1.9428   -0.3485 C   0  0  0  0  0  0  0  0  0  0  0  0
    4.8459   -0.8867   -0.3060 C   0  0  0  0  0  0  0  0  0  0  0  0
    4.0900    0.2194   -0.0568 N   0  0  0  0  0  0  0  0  0  0  0  0
    4.5681    1.5818    0.0837 C   0  0  0  0  0  0  0  0  0  0  0  0
    4.3249    2.4071   -1.1671 C   0  0  0  0  0  0  0  0  0  0  0  0
    2.7745   -0.0431    0.0713 N   0  0  0  0  0  0  0  0  0  0  0  0
   -1.5939   -3.0665    0.1414 S   0  0  0  0  0  0  0  0  0  0  0  0
   -3.1567   -2.5400    0.3663 C   0  0  0  0  0  0  0  0  0  0  0  0
   -3.2643   -1.1921    0.5503 C   0  0  0  0  0  0  0  0  0  0  0  0
   -4.6830   -0.7937    0.7457 C   0  0  0  0  0  0  0  0  0  0  0  0
   -5.4530   -2.0789    0.3059 C   0  0  0  0  0  0  0  0  0  0  0  0
   -4.4463   -3.2656    0.4053 C   0  0  0  0  0  0  0  0  0  0  0  0
   -1.3112    3.3090   -0.9959 H   0  0  0  0  0  0  0  0  0  0  0  0
    0.3883    2.9291   -1.2458 H   0  0  0  0  0  0  0  0  0  0  0  0
   -0.0666    4.4573   -0.4546 H   0  0  0  0  0  0  0  0  0  0  0  0
    0.7414    2.8057    1.2247 H   0  0  0  0  0  0  0  0  0  0  0  0
   -0.9588    3.1666    1.5138 H   0  0  0  0  0  0  0  0  0  0  0  0
    0.6603   -0.2390    0.2793 H   0  0  0  0  0  0  0  0  0  0  0  0
    4.1988   -2.9844   -0.5265 H   0  0  0  0  0  0  0  0  0  0  0  0
    5.9185   -0.8356   -0.4317 H   0  0  0  0  0  0  0  0  0  0  0  0
    5.6386    1.5400    0.3121 H   0  0  0  0  0  0  0  0  0  0  0  0
    4.0566    2.0219    0.9469 H   0  0  0  0  0  0  0  0  0  0  0  0
    4.8261    1.9645   -2.0344 H   0  0  0  0  0  0  0  0  0  0  0  0
    3.2560    2.4728   -1.3969 H   0  0  0  0  0  0  0  0  0  0  0  0
    4.7072    3.4235   -1.0321 H   0  0  0  0  0  0  0  0  0  0  0  0
   -4.8766   -0.5730    1.8006 H   0  0  0  0  0  0  0  0  0  0  0  0
   -4.9726    0.0650    0.1339 H   0  0  0  0  0  0  0  0  0  0  0  0
   -5.7669   -1.9647   -0.7402 H   0  0  0  0  0  0  0  0  0  0  0  0
   -6.3551   -2.2472    0.9023 H   0  0  0  0  0  0  0  0  0  0  0  0
   -4.5679   -3.7934    1.3567 H   0  0  0  0  0  0  0  0  0  0  0  0
   -4.5763   -3.9661   -0.4239 H   0  0  0  0  0  0  0  0  0  0  0  0
  1  2  1  0
  2  3  1  0
  3  4  1  0
  4  5  2  0
  4  6  1  0
  6  7  2  0
  7  8  1  0
  8  9  1  0
  9 10  2  0
  9 11  1  0
 11 12  1  0
 12 13  2  0
 13 14  1  0
 14 15  1  0
 15 16  1  0
 14 17  1  0
  7 18  1  0
 18 19  1  0
 19 20  2  0
 20 21  1  0
 21 22  1  0
 22 23  1  0
 20  6  1  0
 17 11  2  0
 23 19  1  0
  1 24  1  0
  1 25  1  0
  1 26  1  0
  2 27  1  0
  2 28  1  0
  8 29  1  0
 12 30  1  0
 13 31  1  0
 15 32  1  0
 15 33  1  0
 16 34  1  0
 16 35  1  0
 16 36  1  0
 21 37  1  0
 21 38  1  0
 22 39  1  0
 22 40  1  0
 23 41  1  0
 23 42  1  0
M  END
$$$$
