
     RDKit          3D

 31 32  0  0  0  0  0  0  0  0999 V2000
    2.6193    1.5433    0.8498 C   0  0  0  0  0  0  0  0  0  0  0  0
    2.2612    1.0310   -0.5375 C   0  0  0  0  0  0  0  0  0  0  0  0
    2.4322   -0.4160   -0.6407 N   0  0  0  0  0  0  0  0  0  0  0  0
    1.6186   -1.4034   -0.1669 C   0  0  0  0  0  0  0  0  0  0  0  0
    0.2932   -1.1837    0.3721 C   0  0  0  0  0  0  0  0  0  0  0  0
   -0.1539   -1.8316    1.5093 C   0  0  0  0  0  0  0  0  0  0  0  0
   -1.7431   -1.3935    1.9493 S   0  0  0  0  0  0  0  0  0  0  0  0
   -1.9048   -0.3653    0.5904 C   0  0  0  0  0  0  0  0  0  0  0  0
   -3.2005    0.3755    0.3534 C   0  0  0  0  0  0  0  0  0  0  0  0
   -2.9727    1.8884    0.3552 C   0  0  0  0  0  0  0  0  0  0  0  0
   -3.8545   -0.0716   -0.9553 C   0  0  0  0  0  0  0  0  0  0  0  0
   -0.7492   -0.3602   -0.1694 C   0  0  0  0  0  0  0  0  0  0  0  0
    2.1290   -2.6023   -0.2090 N   0  0  0  0  0  0  0  0  0  0  0  0
    3.3629   -2.4180   -0.7584 N   0  0  0  0  0  0  0  0  0  0  0  0
    3.5854   -1.0724   -1.0049 C   0  0  0  0  0  0  0  0  0  0  0  0
    5.0113   -0.4794   -1.6065 S   0  0  0  0  0  0  0  0  0  0  0  0
    3.6577    1.3070    1.1030 H   0  0  0  0  0  0  0  0  0  0  0  0
    2.4944    2.6294    0.8969 H   0  0  0  0  0  0  0  0  0  0  0  0
    1.9796    1.0936    1.6160 H   0  0  0  0  0  0  0  0  0  0  0  0
    2.8932    1.5256   -1.2817 H   0  0  0  0  0  0  0  0  0  0  0  0
    1.2293    1.2981   -0.7680 H   0  0  0  0  0  0  0  0  0  0  0  0
    0.3936   -2.5406    2.1170 H   0  0  0  0  0  0  0  0  0  0  0  0
   -3.9049    0.1505    1.1652 H   0  0  0  0  0  0  0  0  0  0  0  0
   -3.9221    2.4223    0.2399 H   0  0  0  0  0  0  0  0  0  0  0  0
   -2.3116    2.2007   -0.4611 H   0  0  0  0  0  0  0  0  0  0  0  0
   -2.5162    2.2147    1.2964 H   0  0  0  0  0  0  0  0  0  0  0  0
   -4.0324   -1.1529   -0.9550 H   0  0  0  0  0  0  0  0  0  0  0  0
   -4.8197    0.4270   -1.0951 H   0  0  0  0  0  0  0  0  0  0  0  0
   -3.2278    0.1624   -1.8232 H   0  0  0  0  0  0  0  0  0  0  0  0
   -0.6659    0.2007   -1.0923 H   0  0  0  0  0  0  0  0  0  0  0  0
    4.0183   -3.1794   -0.8888 H   0  0  0  0  0  0  0  0  0  0  0  0
  1  2  1  0
  2  3  1  0
  3  4  1  0
  4  5  1  0
  5  6  2  0
  6  7  1  0
  7  8  1  0
  8  9  1  0
  9 10  1  0
  9 11  1  0
  8 12  2  0
  4 13  2  0
 13 14  1  0
 14 15  1  0
 15 16  2  0
 15  3  1  0
 12  5  1  0
  1 17  1  0
  1 18  1  0
  1 19  1  0
  2 20  1  0
  2 21  1  0
  6 22  1  0
  9 23  1  0
 10 24  1  0
 10 25  1  0
 10 26  1  0
 11 27  1  0
 11 28  1  0
 11 29  1  0
 12 30  1  0
 14 31  1  0
M  END
$$$$
