
     RDKit          3D

 41 42  0  0  0  0  0  0  0  0999 V2000
   -5.1339   -0.4231    1.6696 C   0  0  0  0  0  0  0  0  0  0  0  0
   -4.6808    0.5683    0.6073 C   0  0  0  0  0  0  0  0  0  0  0  0
   -3.7019   -0.0432   -0.3015 N   0  0  0  0  0  0  0  0  0  0  0  0
   -4.2572   -0.6679   -1.5095 C   0  0  0  0  0  0  0  0  0  0  0  0
   -4.3000    0.3204   -2.6663 C   0  0  0  0  0  0  0  0  0  0  0  0
   -2.3363   -0.0233   -0.0391 C   0  0  0  0  0  0  0  0  0  0  0  0
   -1.3847   -0.4859   -0.9637 C   0  0  0  0  0  0  0  0  0  0  0  0
   -0.0040   -0.4663   -0.7052 C   0  0  0  0  0  0  0  0  0  0  0  0
    0.4888    0.0329    0.4985 C   0  0  0  0  0  0  0  0  0  0  0  0
    1.9369    0.0129    0.7428 C   0  0  0  0  0  0  0  0  0  0  0  0
    2.5890    0.9779    1.4095 C   0  0  0  0  0  0  0  0  0  0  0  0
    4.0482    0.9620    1.6904 C   0  0  0  0  0  0  0  0  0  0  0  0
    4.4685    1.4894    2.7163 O   0  0  0  0  0  0  0  0  0  0  0  0
    4.9952    0.3261    0.7535 C   0  0  0  0  0  0  0  0  0  0  0  0
    6.1266   -0.3218    1.2522 C   0  0  0  0  0  0  0  0  0  0  0  0
    7.0279   -0.9045    0.3644 C   0  0  0  0  0  0  0  0  0  0  0  0
    6.7686   -0.8076   -0.9940 C   0  0  0  0  0  0  0  0  0  0  0  0
    5.6936   -0.1708   -1.5102 N   0  0  0  0  0  0  0  0  0  0  0  0
    4.8374    0.3952   -0.6244 C   0  0  0  0  0  0  0  0  0  0  0  0
   -0.4307    0.4819    1.4437 C   0  0  0  0  0  0  0  0  0  0  0  0
   -1.8091    0.4563    1.1721 C   0  0  0  0  0  0  0  0  0  0  0  0
   -5.5895   -1.3079    1.2128 H   0  0  0  0  0  0  0  0  0  0  0  0
   -5.8773    0.0402    2.3258 H   0  0  0  0  0  0  0  0  0  0  0  0
   -4.2994   -0.7635    2.2899 H   0  0  0  0  0  0  0  0  0  0  0  0
   -4.2952    1.4860    1.0654 H   0  0  0  0  0  0  0  0  0  0  0  0
   -5.5619    0.8905    0.0375 H   0  0  0  0  0  0  0  0  0  0  0  0
   -5.2808   -1.0103   -1.3099 H   0  0  0  0  0  0  0  0  0  0  0  0
   -3.7098   -1.5752   -1.7881 H   0  0  0  0  0  0  0  0  0  0  0  0
   -4.9103    1.1941   -2.4148 H   0  0  0  0  0  0  0  0  0  0  0  0
   -3.3011    0.6796   -2.9310 H   0  0  0  0  0  0  0  0  0  0  0  0
   -4.7355   -0.1535   -3.5516 H   0  0  0  0  0  0  0  0  0  0  0  0
   -1.6877   -0.8724   -1.9316 H   0  0  0  0  0  0  0  0  0  0  0  0
    0.6733   -0.8398   -1.4701 H   0  0  0  0  0  0  0  0  0  0  0  0
    2.4581   -0.8522    0.3399 H   0  0  0  0  0  0  0  0  0  0  0  0
    2.0694    1.8211    1.8549 H   0  0  0  0  0  0  0  0  0  0  0  0
    6.3054   -0.3707    2.3239 H   0  0  0  0  0  0  0  0  0  0  0  0
    7.9132   -1.4176    0.7240 H   0  0  0  0  0  0  0  0  0  0  0  0
    7.4422   -1.2469   -1.7250 H   0  0  0  0  0  0  0  0  0  0  0  0
    4.0089    0.9277   -1.0828 H   0  0  0  0  0  0  0  0  0  0  0  0
   -0.1025    0.8469    2.4139 H   0  0  0  0  0  0  0  0  0  0  0  0
   -2.4614    0.8153    1.9620 H   0  0  0  0  0  0  0  0  0  0  0  0
  1  2  1  0
  2  3  1  0
  3  4  1  0
  4  5  1  0
  3  6  1  0
  6  7  2  0
  7  8  1  0
  8  9  2  0
  9 10  1  0
 10 11  2  3
 11 12  1  0
 12 13  2  0
 12 14  1  0
 14 15  2  0
 15 16  1  0
 16 17  2  0
 17 18  1  0
 18 19  2  0
  9 20  1  0
 20 21  2  0
 21  6  1  0
 19 14  1  0
  1 22  1  0
  1 23  1  0
  1 24  1  0
  2 25  1  0
  2 26  1  0
  4 27  1  0
  4 28  1  0
  5 29  1  0
  5 30  1  0
  5 31  1  0
  7 32  1  0
  8 33  1  0
 10 34  1  0
 11 35  1  0
 15 36  1  0
 16 37  1  0
 17 38  1  0
 19 39  1  0
 20 40  1  0
 21 41  1  0
M  END
$$$$
