
     RDKit          3D

 36 37  0  0  0  0  0  0  0  0999 V2000
   -4.1121    0.1594    2.0076 C   0  0  0  0  0  0  0  0  0  0  0  0
   -2.7316   -0.4683    2.0440 C   0  0  0  0  0  0  0  0  0  0  0  0
   -2.1835   -0.5360    0.7186 O   0  0  0  0  0  0  0  0  0  0  0  0
   -1.5220    0.5701    0.2993 C   0  0  0  0  0  0  0  0  0  0  0  0
   -1.3608    1.5994    0.9371 O   0  0  0  0  0  0  0  0  0  0  0  0
   -0.9580    0.3649   -1.0591 C   0  0  0  0  0  0  0  0  0  0  0  0
   -1.4912   -0.6186   -1.9095 C   0  0  0  0  0  0  0  0  0  0  0  0
   -0.9811   -0.7902   -3.1971 C   0  0  0  0  0  0  0  0  0  0  0  0
    0.0552    0.0225   -3.6478 C   0  0  0  0  0  0  0  0  0  0  0  0
    0.5904    1.0029   -2.8108 C   0  0  0  0  0  0  0  0  0  0  0  0
    0.1002    1.1768   -1.5117 C   0  0  0  0  0  0  0  0  0  0  0  0
    0.7095    2.1671   -0.6667 N   0  0  0  0  0  0  0  0  0  0  0  0
    2.3244    1.9573   -0.1962 S   0  0  0  0  0  6  0  0  0  0  0  0
    3.1491    1.9073   -1.3875 O   0  0  0  0  0  0  0  0  0  0  0  0
    2.6069    2.9221    0.8434 O   0  0  0  0  0  0  0  0  0  0  0  0
    2.3395    0.3458    0.5233 C   0  0  0  0  0  0  0  0  0  0  0  0
    2.9405   -0.7240   -0.1496 C   0  0  0  0  0  0  0  0  0  0  0  0
    2.9464   -1.9906    0.4376 C   0  0  0  0  0  0  0  0  0  0  0  0
    2.3622   -2.1838    1.6909 C   0  0  0  0  0  0  0  0  0  0  0  0
    1.7729   -1.1099    2.3594 C   0  0  0  0  0  0  0  0  0  0  0  0
    1.7679    0.1533    1.7737 C   0  0  0  0  0  0  0  0  0  0  0  0
    1.1729    1.1564    2.4304 F   0  0  0  0  0  0  0  0  0  0  0  0
   -4.5634    0.1618    3.0037 H   0  0  0  0  0  0  0  0  0  0  0  0
   -4.7667   -0.3912    1.3241 H   0  0  0  0  0  0  0  0  0  0  0  0
   -4.0656    1.1903    1.6426 H   0  0  0  0  0  0  0  0  0  0  0  0
   -2.0623    0.0709    2.7244 H   0  0  0  0  0  0  0  0  0  0  0  0
   -2.8039   -1.4967    2.4125 H   0  0  0  0  0  0  0  0  0  0  0  0
   -2.3139   -1.2518   -1.5844 H   0  0  0  0  0  0  0  0  0  0  0  0
   -1.3999   -1.5508   -3.8524 H   0  0  0  0  0  0  0  0  0  0  0  0
    0.4474   -0.1002   -4.6551 H   0  0  0  0  0  0  0  0  0  0  0  0
    1.3895    1.6382   -3.1884 H   0  0  0  0  0  0  0  0  0  0  0  0
    0.1389    2.4726    0.1369 H   0  0  0  0  0  0  0  0  0  0  0  0
    3.4025   -0.5812   -1.1246 H   0  0  0  0  0  0  0  0  0  0  0  0
    3.4114   -2.8270   -0.0802 H   0  0  0  0  0  0  0  0  0  0  0  0
    2.3707   -3.1705    2.1485 H   0  0  0  0  0  0  0  0  0  0  0  0
    1.3179   -1.2485    3.3358 H   0  0  0  0  0  0  0  0  0  0  0  0
  1  2  1  0
  2  3  1  0
  3  4  1  0
  4  5  2  0
  4  6  1  0
  6  7  2  0
  7  8  1  0
  8  9  2  0
  9 10  1  0
 10 11  2  0
 11 12  1  0
 12 13  1  0
 13 14  2  0
 13 15  2  0
 13 16  1  0
 16 17  2  0
 17 18  1  0
 18 19  2  0
 19 20  1  0
 20 21  2  0
 21 22  1  0
 11  6  1  0
 21 16  1  0
  1 23  1  0
  1 24  1  0
  1 25  1  0
  2 26  1  0
  2 27  1  0
  7 28  1  0
  8 29  1  0
  9 30  1  0
 10 31  1  0
 12 32  1  0
 17 33  1  0
 18 34  1  0
 19 35  1  0
 20 36  1  0
M  END
$$$$
