
     RDKit          3D

 60 65  0  0  0  0  0  0  0  0999 V2000
    4.4318    0.8420   -3.4613 C   0  0  0  0  0  0  0  0  0  0  0  0
    4.8194   -0.3883   -2.7333 C   0  0  0  0  0  0  0  0  0  0  0  0
    6.0992   -0.5777   -2.3875 N   0  0  0  0  0  0  0  0  0  0  0  0
    6.1487   -1.8275   -1.7983 O   0  0  0  0  0  0  0  0  0  0  0  0
    4.9028   -2.3697   -1.7778 C   0  0  0  0  0  0  0  0  0  0  0  0
    4.7828   -3.7228   -1.2050 C   0  0  0  0  0  0  0  0  0  0  0  0
    4.0081   -1.4783   -2.3262 C   0  0  0  0  0  0  0  0  0  0  0  0
    2.5911   -1.7030   -2.4913 C   0  0  0  0  0  0  0  0  0  0  0  0
    2.1895   -2.5898   -3.2393 O   0  0  0  0  0  0  0  0  0  0  0  0
    1.7236   -0.8923   -1.7506 N   0  0  0  0  0  0  0  0  0  0  0  0
    0.2884   -1.1164   -1.8662 C   0  0  0  0  0  0  0  0  0  0  0  0
   -0.3222   -1.4388   -0.5057 C   0  0  0  0  0  0  0  0  0  0  0  0
   -0.0418   -0.3374    0.5582 C   0  0  0  0  0  0  0  0  0  0  0  0
    1.0137    0.6792    0.0418 C   0  0  0  0  0  0  0  0  0  0  0  0
    2.1728   -0.0285   -0.6569 C   0  0  0  0  0  0  0  0  0  0  0  0
    0.6440   -0.9691    1.6767 O   0  0  0  0  0  0  0  0  0  0  0  0
   -0.1128   -1.6025    2.6159 C   0  0  0  0  0  0  0  0  0  0  0  0
    0.5812   -2.4170    3.5130 C   0  0  0  0  0  0  0  0  0  0  0  0
   -0.1129   -3.1239    4.4964 C   0  0  0  0  0  0  0  0  0  0  0  0
   -1.4967   -3.0087    4.5776 C   0  0  0  0  0  0  0  0  0  0  0  0
   -2.1598   -3.6917    5.5190 F   0  0  0  0  0  0  0  0  0  0  0  0
   -2.1994   -2.1938    3.7002 C   0  0  0  0  0  0  0  0  0  0  0  0
   -1.4943   -1.4826    2.7255 C   0  0  0  0  0  0  0  0  0  0  0  0
   -2.2010   -0.5928    1.7966 C   0  0  0  0  0  0  0  0  0  0  0  0
   -3.4202   -0.6826    1.6763 O   0  0  0  0  0  0  0  0  0  0  0  0
   -1.3343    0.3937    1.0211 C   0  0  0  0  0  0  0  0  0  0  0  0
   -2.1342    1.0608   -0.0910 C   0  0  0  0  0  0  0  0  0  0  0  0
   -2.5157    2.3152    0.6188 C   0  0  0  0  0  0  0  0  0  0  0  0
   -3.5407    3.2439    0.0853 C   0  0  0  0  0  0  0  0  0  0  0  0
   -3.8844    4.3766    0.8367 C   0  0  0  0  0  0  0  0  0  0  0  0
   -4.8437    5.2754    0.3620 C   0  0  0  0  0  0  0  0  0  0  0  0
   -5.4602    5.0434   -0.8650 C   0  0  0  0  0  0  0  0  0  0  0  0
   -6.6403    6.1477   -1.4529 Cl  0  0  0  0  0  0  0  0  0  0  0  0
   -5.1251    3.9208   -1.6208 C   0  0  0  0  0  0  0  0  0  0  0  0
   -4.1648    3.0197   -1.1477 C   0  0  0  0  0  0  0  0  0  0  0  0
   -1.8582    2.5429    1.7106 N   0  0  0  0  0  0  0  0  0  0  0  0
   -0.9843    1.4562    1.9227 O   0  0  0  0  0  0  0  0  0  0  0  0
    5.0770    0.9945   -4.3328 H   0  0  0  0  0  0  0  0  0  0  0  0
    4.5217    1.7164   -2.8088 H   0  0  0  0  0  0  0  0  0  0  0  0
    3.3984    0.7887   -3.8174 H   0  0  0  0  0  0  0  0  0  0  0  0
    5.5807   -3.9171   -0.4815 H   0  0  0  0  0  0  0  0  0  0  0  0
    3.8255   -3.8444   -0.6887 H   0  0  0  0  0  0  0  0  0  0  0  0
    4.8454   -4.4763   -1.9959 H   0  0  0  0  0  0  0  0  0  0  0  0
    0.0648   -1.9260   -2.5681 H   0  0  0  0  0  0  0  0  0  0  0  0
   -0.1544   -0.2064   -2.2867 H   0  0  0  0  0  0  0  0  0  0  0  0
   -1.3987   -1.5949   -0.6398 H   0  0  0  0  0  0  0  0  0  0  0  0
    0.0835   -2.4012   -0.1666 H   0  0  0  0  0  0  0  0  0  0  0  0
    0.5723    1.3955   -0.6587 H   0  0  0  0  0  0  0  0  0  0  0  0
    1.4239    1.2618    0.8764 H   0  0  0  0  0  0  0  0  0  0  0  0
    2.8600    0.7214   -1.0582 H   0  0  0  0  0  0  0  0  0  0  0  0
    2.7343   -0.6455    0.0543 H   0  0  0  0  0  0  0  0  0  0  0  0
    1.6627   -2.5070    3.4437 H   0  0  0  0  0  0  0  0  0  0  0  0
    0.4153   -3.7631    5.1975 H   0  0  0  0  0  0  0  0  0  0  0  0
   -3.2787   -2.1113    3.7893 H   0  0  0  0  0  0  0  0  0  0  0  0
   -1.5351    1.3351   -0.9622 H   0  0  0  0  0  0  0  0  0  0  0  0
   -3.0005    0.4859   -0.4261 H   0  0  0  0  0  0  0  0  0  0  0  0
   -3.4104    4.5664    1.7984 H   0  0  0  0  0  0  0  0  0  0  0  0
   -5.1030    6.1488    0.9548 H   0  0  0  0  0  0  0  0  0  0  0  0
   -5.6089    3.7411   -2.5778 H   0  0  0  0  0  0  0  0  0  0  0  0
   -3.9258    2.1554   -1.7599 H   0  0  0  0  0  0  0  0  0  0  0  0
  1  2  1  0
  2  3  2  0
  3  4  1  0
  4  5  1  0
  5  6  1  0
  5  7  2  0
  7  8  1  0
  8  9  2  0
  8 10  1  0
 10 11  1  0
 11 12  1  0
 12 13  1  0
 13 14  1  0
 14 15  1  0
 13 16  1  0
 16 17  1  0
 17 18  2  0
 18 19  1  0
 19 20  2  0
 20 21  1  0
 20 22  1  0
 22 23  2  0
 23 24  1  0
 24 25  2  0
 24 26  1  0
 26 27  1  0
 27 28  1  0
 28 29  1  0
 29 30  2  0
 30 31  1  0
 31 32  2  0
 32 33  1  0
 32 34  1  0
 34 35  2  0
 28 36  2  0
 36 37  1  0
  7  2  1  0
 15 10  1  0
 23 17  1  0
 37 26  1  0
 26 13  1  0
 35 29  1  0
  1 38  1  0
  1 39  1  0
  1 40  1  0
  6 41  1  0
  6 42  1  0
  6 43  1  0
 11 44  1  0
 11 45  1  0
 12 46  1  0
 12 47  1  0
 14 48  1  0
 14 49  1  0
 15 50  1  0
 15 51  1  0
 18 52  1  0
 19 53  1  0
 22 54  1  0
 27 55  1  0
 27 56  1  0
 30 57  1  0
 31 58  1  0
 34 59  1  0
 35 60  1  0
M  END
$$$$
