
     RDKit          3D

 53 55  0  0  0  0  0  0  0  0999 V2000
    5.9012   -2.9277    3.6317 C   0  0  0  0  0  0  0  0  0  0  0  0
    6.3345   -2.6299    2.3106 O   0  0  0  0  0  0  0  0  0  0  0  0
    5.9177   -1.4410    1.7782 C   0  0  0  0  0  0  0  0  0  0  0  0
    6.3587   -1.1980    0.4755 C   0  0  0  0  0  0  0  0  0  0  0  0
    6.0060   -0.0218   -0.1911 C   0  0  0  0  0  0  0  0  0  0  0  0
    5.2089    0.9375    0.4439 C   0  0  0  0  0  0  0  0  0  0  0  0
    4.8003    2.1979   -0.2724 C   0  0  0  0  0  0  0  0  0  0  0  0
    3.5088    2.0428   -0.8883 N   0  0  0  0  0  0  0  0  0  0  0  0
    2.3480    2.4523   -0.2772 C   0  0  0  0  0  0  0  0  0  0  0  0
    2.2586    3.1018    0.7558 O   0  0  0  0  0  0  0  0  0  0  0  0
    1.0695    1.9996   -1.0185 C   0  0  0  0  0  0  0  0  0  0  0  0
    1.1557    1.2923   -2.0130 O   0  0  0  0  0  0  0  0  0  0  0  0
   -0.0918    2.4697   -0.4456 N   0  0  0  0  0  0  0  0  0  0  0  0
   -1.3963    1.9727   -0.8498 C   0  0  0  0  0  0  0  0  0  0  0  0
   -1.8502    0.7221   -0.0491 C   0  0  0  0  0  0  0  0  0  0  0  0
   -0.8222   -0.2890   -0.1271 O   0  0  0  0  0  0  0  0  0  0  0  0
   -1.3465   -1.4096   -0.8483 C   0  0  0  0  0  0  0  0  0  0  0  0
   -2.6220   -0.9305   -1.5072 C   0  0  0  0  0  0  0  0  0  0  0  0
   -3.0794    0.0751   -0.5459 N   0  0  0  0  0  0  0  0  0  0  0  0
   -4.3659    1.0664   -0.9545 S   0  0  0  0  0  6  0  0  0  0  0  0
   -4.1120    1.5955   -2.2773 O   0  0  0  0  0  0  0  0  0  0  0  0
   -4.6134    1.9474    0.1663 O   0  0  0  0  0  0  0  0  0  0  0  0
   -5.7152   -0.0794   -1.0535 C   0  0  0  0  0  0  0  0  0  0  0  0
   -6.2174   -0.6389    0.1255 C   0  0  0  0  0  0  0  0  0  0  0  0
   -7.2803   -1.5388    0.0584 C   0  0  0  0  0  0  0  0  0  0  0  0
   -7.8377   -1.8697   -1.1783 C   0  0  0  0  0  0  0  0  0  0  0  0
   -7.3381   -1.3003   -2.3516 C   0  0  0  0  0  0  0  0  0  0  0  0
   -6.2752   -0.3989   -2.2936 C   0  0  0  0  0  0  0  0  0  0  0  0
    4.7618    0.6864    1.7485 C   0  0  0  0  0  0  0  0  0  0  0  0
    5.1156   -0.4933    2.4127 C   0  0  0  0  0  0  0  0  0  0  0  0
    4.8098   -3.0013    3.6823 H   0  0  0  0  0  0  0  0  0  0  0  0
    6.3131   -3.9034    3.9065 H   0  0  0  0  0  0  0  0  0  0  0  0
    6.2823   -2.1923    4.3478 H   0  0  0  0  0  0  0  0  0  0  0  0
    6.9811   -1.9348   -0.0263 H   0  0  0  0  0  0  0  0  0  0  0  0
    6.3588    0.1361   -1.2075 H   0  0  0  0  0  0  0  0  0  0  0  0
    4.7933    3.0445    0.4238 H   0  0  0  0  0  0  0  0  0  0  0  0
    5.5165    2.4356   -1.0664 H   0  0  0  0  0  0  0  0  0  0  0  0
    3.3983    1.3962   -1.6639 H   0  0  0  0  0  0  0  0  0  0  0  0
    0.0157    2.9695    0.4335 H   0  0  0  0  0  0  0  0  0  0  0  0
   -1.3487    1.7381   -1.9190 H   0  0  0  0  0  0  0  0  0  0  0  0
   -2.0987    2.7997   -0.7110 H   0  0  0  0  0  0  0  0  0  0  0  0
   -1.9656    0.9759    1.0102 H   0  0  0  0  0  0  0  0  0  0  0  0
   -0.6077   -1.7733   -1.5676 H   0  0  0  0  0  0  0  0  0  0  0  0
   -1.5505   -2.2044   -0.1224 H   0  0  0  0  0  0  0  0  0  0  0  0
   -3.3338   -1.7479   -1.6414 H   0  0  0  0  0  0  0  0  0  0  0  0
   -2.3998   -0.4717   -2.4763 H   0  0  0  0  0  0  0  0  0  0  0  0
   -5.7873   -0.3763    1.0897 H   0  0  0  0  0  0  0  0  0  0  0  0
   -7.6793   -1.9789    0.9693 H   0  0  0  0  0  0  0  0  0  0  0  0
   -8.6695   -2.5687   -1.2274 H   0  0  0  0  0  0  0  0  0  0  0  0
   -7.7830   -1.5557   -3.3105 H   0  0  0  0  0  0  0  0  0  0  0  0
   -5.8970    0.0473   -3.2105 H   0  0  0  0  0  0  0  0  0  0  0  0
    4.1265    1.4119    2.2551 H   0  0  0  0  0  0  0  0  0  0  0  0
    4.7440   -0.6390    3.4213 H   0  0  0  0  0  0  0  0  0  0  0  0
  1  2  1  0
  2  3  1  0
  3  4  2  0
  4  5  1  0
  5  6  2  0
  6  7  1  0
  7  8  1  0
  8  9  1  0
  9 10  2  0
  9 11  1  0
 11 12  2  0
 11 13  1  0
 13 14  1  0
 14 15  1  0
 15 16  1  0
 16 17  1  0
 17 18  1  0
 18 19  1  0
 19 20  1  0
 20 21  2  0
 20 22  2  0
 20 23  1  0
 23 24  2  0
 24 25  1  0
 25 26  2  0
 26 27  1  0
 27 28  2  0
  6 29  1  0
 29 30  2  0
 30  3  1  0
 19 15  1  0
 28 23  1  0
  1 31  1  0
  1 32  1  0
  1 33  1  0
  4 34  1  0
  5 35  1  0
  7 36  1  0
  7 37  1  0
  8 38  1  0
 13 39  1  0
 14 40  1  0
 14 41  1  0
 15 42  1  0
 17 43  1  0
 17 44  1  0
 18 45  1  0
 18 46  1  0
 24 47  1  0
 25 48  1  0
 26 49  1  0
 27 50  1  0
 28 51  1  0
 29 52  1  0
 30 53  1  0
M  END
$$$$
