
     RDKit          3D

 51 53  0  0  0  0  0  0  0  0999 V2000
    5.4234   -2.0472    0.9173 C   0  0  0  0  0  0  0  0  0  0  0  0
    4.6820   -0.8334    0.8611 O   0  0  0  0  0  0  0  0  0  0  0  0
    3.3146   -0.9290    0.8663 C   0  0  0  0  0  0  0  0  0  0  0  0
    2.6040   -2.1322    0.7868 C   0  0  0  0  0  0  0  0  0  0  0  0
    1.2055   -2.1332    0.7774 C   0  0  0  0  0  0  0  0  0  0  0  0
    0.5076   -0.9277    0.8418 C   0  0  0  0  0  0  0  0  0  0  0  0
   -0.9703   -0.9582    0.8310 C   0  0  0  0  0  0  0  0  0  0  0  0
   -1.6710    0.1273    0.9181 N   0  0  0  0  0  0  0  0  0  0  0  0
   -3.0375    0.0249    0.8540 N   0  0  0  0  0  0  0  0  0  0  0  0
   -3.7595   -0.8802    0.0860 C   0  0  0  0  0  0  0  0  0  0  0  0
   -3.2670   -1.8186   -0.5395 O   0  0  0  0  0  0  0  0  0  0  0  0
   -5.2513   -0.6753    0.0247 C   0  0  0  0  0  0  0  0  0  0  0  0
   -5.9836   -1.6674   -0.6587 C   0  0  0  0  0  0  0  0  0  0  0  0
   -7.3699   -1.5869   -0.7805 C   0  0  0  0  0  0  0  0  0  0  0  0
   -8.0464   -0.5103   -0.2223 C   0  0  0  0  0  0  0  0  0  0  0  0
   -7.3397    0.4855    0.4570 C   0  0  0  0  0  0  0  0  0  0  0  0
   -5.9435    0.4175    0.5913 C   0  0  0  0  0  0  0  0  0  0  0  0
   -5.2065    1.3758    1.2430 O   0  0  0  0  0  0  0  0  0  0  0  0
   -5.9040    2.4511    1.8668 C   0  0  0  0  0  0  0  0  0  0  0  0
    1.2049    0.2792    0.9133 C   0  0  0  0  0  0  0  0  0  0  0  0
    2.6113    0.2897    0.9355 C   0  0  0  0  0  0  0  0  0  0  0  0
    3.3279    1.6218    0.9900 C   0  0  0  0  0  0  0  0  0  0  0  0
    3.3565    2.2513   -0.3016 O   0  0  0  0  0  0  0  0  0  0  0  0
    4.3499    1.7567   -1.1045 C   0  0  0  0  0  0  0  0  0  0  0  0
    5.7016    1.9603   -0.8243 C   0  0  0  0  0  0  0  0  0  0  0  0
    6.0697    2.6620    0.2584 F   0  0  0  0  0  0  0  0  0  0  0  0
    6.6782    1.4421   -1.6675 C   0  0  0  0  0  0  0  0  0  0  0  0
    7.9753    1.6282   -1.3849 F   0  0  0  0  0  0  0  0  0  0  0  0
    6.3109    0.7343   -2.8046 C   0  0  0  0  0  0  0  0  0  0  0  0
    7.2537    0.2317   -3.6138 F   0  0  0  0  0  0  0  0  0  0  0  0
    4.9677    0.5529   -3.1071 C   0  0  0  0  0  0  0  0  0  0  0  0
    4.6165   -0.1210   -4.2113 F   0  0  0  0  0  0  0  0  0  0  0  0
    3.9895    1.0705   -2.2654 C   0  0  0  0  0  0  0  0  0  0  0  0
    2.6956    0.8916   -2.5685 F   0  0  0  0  0  0  0  0  0  0  0  0
    5.1743   -2.6233    1.8151 H   0  0  0  0  0  0  0  0  0  0  0  0
    6.4848   -1.7868    0.9728 H   0  0  0  0  0  0  0  0  0  0  0  0
    5.2743   -2.6389    0.0084 H   0  0  0  0  0  0  0  0  0  0  0  0
    3.1068   -3.0914    0.7203 H   0  0  0  0  0  0  0  0  0  0  0  0
    0.6728   -3.0786    0.7105 H   0  0  0  0  0  0  0  0  0  0  0  0
   -1.4244   -1.9619    0.7823 H   0  0  0  0  0  0  0  0  0  0  0  0
   -3.5247    0.8703    1.1450 H   0  0  0  0  0  0  0  0  0  0  0  0
   -5.4688   -2.5155   -1.1081 H   0  0  0  0  0  0  0  0  0  0  0  0
   -7.9147   -2.3626   -1.3125 H   0  0  0  0  0  0  0  0  0  0  0  0
   -9.1275   -0.4406   -0.3178 H   0  0  0  0  0  0  0  0  0  0  0  0
   -7.9161    1.3094    0.8655 H   0  0  0  0  0  0  0  0  0  0  0  0
   -6.5907    2.0820    2.6364 H   0  0  0  0  0  0  0  0  0  0  0  0
   -5.1632    3.0881    2.3592 H   0  0  0  0  0  0  0  0  0  0  0  0
   -6.4256    3.0631    1.1232 H   0  0  0  0  0  0  0  0  0  0  0  0
    0.6556    1.2187    0.9437 H   0  0  0  0  0  0  0  0  0  0  0  0
    4.3219    1.5411    1.4457 H   0  0  0  0  0  0  0  0  0  0  0  0
    2.7693    2.2930    1.6543 H   0  0  0  0  0  0  0  0  0  0  0  0
  1  2  1  0
  2  3  1  0
  3  4  2  0
  4  5  1  0
  5  6  2  0
  6  7  1  0
  7  8  2  3
  8  9  1  0
  9 10  1  0
 10 11  2  0
 10 12  1  0
 12 13  2  0
 13 14  1  0
 14 15  2  0
 15 16  1  0
 16 17  2  0
 17 18  1  0
 18 19  1  0
  6 20  1  0
 20 21  2  0
 21 22  1  0
 22 23  1  0
 23 24  1  0
 24 25  2  0
 25 26  1  0
 25 27  1  0
 27 28  1  0
 27 29  2  0
 29 30  1  0
 29 31  1  0
 31 32  1  0
 31 33  2  0
 33 34  1  0
 21  3  1  0
 33 24  1  0
 17 12  1  0
  1 35  1  0
  1 36  1  0
  1 37  1  0
  4 38  1  0
  5 39  1  0
  7 40  1  0
  9 41  1  0
 13 42  1  0
 14 43  1  0
 15 44  1  0
 16 45  1  0
 19 46  1  0
 19 47  1  0
 19 48  1  0
 20 49  1  0
 22 50  1  0
 22 51  1  0
M  END
$$$$
