
     RDKit          3D

 36 37  0  0  0  0  0  0  0  0999 V2000
    4.3669    1.6028    0.9022 C   0  0  0  0  0  0  0  0  0  0  0  0
    4.7025    0.4335    0.0734 N   0  0  0  0  0  0  0  0  0  0  0  0
    4.9132   -0.7957    0.8561 C   0  0  0  0  0  0  0  0  0  0  0  0
    3.8864    0.2767   -1.4107 S   0  0  0  0  0  6  0  0  0  0  0  0
    4.4077   -0.8853   -2.0983 O   0  0  0  0  0  0  0  0  0  0  0  0
    3.8563    1.5747   -2.0514 O   0  0  0  0  0  0  0  0  0  0  0  0
    2.2159   -0.1061   -0.9140 C   0  0  0  0  0  0  0  0  0  0  0  0
    1.2857    0.9269   -0.7599 C   0  0  0  0  0  0  0  0  0  0  0  0
   -0.0309    0.6249   -0.3988 C   0  0  0  0  0  0  0  0  0  0  0  0
   -0.4216   -0.7086   -0.2038 C   0  0  0  0  0  0  0  0  0  0  0  0
   -1.8076   -1.0865    0.1864 C   0  0  0  0  0  0  0  0  0  0  0  0
   -2.1493   -2.2316    0.4327 O   0  0  0  0  0  0  0  0  0  0  0  0
   -2.6064    0.0085    0.2490 O   0  0  0  0  0  0  0  0  0  0  0  0
   -3.9758   -0.2863    0.4798 C   0  0  0  0  0  0  0  0  0  0  0  0
   -4.7025    0.9552    0.9423 C   0  0  0  0  0  0  0  0  0  0  0  0
   -6.1285    0.6261    0.5845 C   0  0  0  0  0  0  0  0  0  0  0  0
   -6.0498   -0.1217   -0.6301 O   0  0  0  0  0  0  0  0  0  0  0  0
   -4.7802   -0.6231   -0.7654 C   0  0  0  0  0  0  0  0  0  0  0  0
   -4.3882   -1.2247   -1.7515 O   0  0  0  0  0  0  0  0  0  0  0  0
    0.5162   -1.7371   -0.3847 C   0  0  0  0  0  0  0  0  0  0  0  0
    1.8320   -1.4398   -0.7484 C   0  0  0  0  0  0  0  0  0  0  0  0
    3.4141    1.4580    1.4190 H   0  0  0  0  0  0  0  0  0  0  0  0
    5.1482    1.7572    1.6537 H   0  0  0  0  0  0  0  0  0  0  0  0
    4.3215    2.5152    0.3016 H   0  0  0  0  0  0  0  0  0  0  0  0
    3.9999   -1.0895    1.3808 H   0  0  0  0  0  0  0  0  0  0  0  0
    5.2501   -1.6190    0.2205 H   0  0  0  0  0  0  0  0  0  0  0  0
    5.7000   -0.6274    1.5989 H   0  0  0  0  0  0  0  0  0  0  0  0
    1.5739    1.9631   -0.9276 H   0  0  0  0  0  0  0  0  0  0  0  0
   -0.7423    1.4394   -0.2837 H   0  0  0  0  0  0  0  0  0  0  0  0
   -4.1084   -1.0886    1.2173 H   0  0  0  0  0  0  0  0  0  0  0  0
   -4.5634    1.1672    2.0063 H   0  0  0  0  0  0  0  0  0  0  0  0
   -4.3543    1.8335    0.3840 H   0  0  0  0  0  0  0  0  0  0  0  0
   -6.7268    1.5274    0.4235 H   0  0  0  0  0  0  0  0  0  0  0  0
   -6.6165    0.0068    1.3447 H   0  0  0  0  0  0  0  0  0  0  0  0
    0.2195   -2.7776   -0.2561 H   0  0  0  0  0  0  0  0  0  0  0  0
    2.5425   -2.2486   -0.9078 H   0  0  0  0  0  0  0  0  0  0  0  0
  1  2  1  0
  2  3  1  0
  2  4  1  0
  4  5  2  0
  4  6  2  0
  4  7  1  0
  7  8  2  0
  8  9  1  0
  9 10  2  0
 10 11  1  0
 11 12  2  0
 11 13  1  0
 13 14  1  0
 14 15  1  0
 15 16  1  0
 16 17  1  0
 17 18  1  0
 18 19  2  0
 10 20  1  0
 20 21  2  0
 21  7  1  0
 18 14  1  0
  1 22  1  0
  1 23  1  0
  1 24  1  0
  3 25  1  0
  3 26  1  0
  3 27  1  0
  8 28  1  0
  9 29  1  0
 14 30  1  0
 15 31  1  0
 15 32  1  0
 16 33  1  0
 16 34  1  0
 20 35  1  0
 21 36  1  0
M  END
$$$$
