
     RDKit          3D

 46 49  0  0  0  0  0  0  0  0999 V2000
    2.8858    2.9753   -1.1098 O   0  0  0  0  0  0  0  0  0  0  0  0
    2.9444    2.0068   -0.3570 C   0  0  0  0  0  0  0  0  0  0  0  0
    1.8165    1.7026    0.6149 C   0  0  0  0  0  0  0  0  0  0  0  0
    0.6064    0.6219   -0.2039 S   0  0  0  0  0  0  0  0  0  0  0  0
   -0.4679    0.3265    1.1160 C   0  0  0  0  0  0  0  0  0  0  0  0
   -0.1742    0.4897    2.3826 N   0  0  0  0  0  0  0  0  0  0  0  0
   -1.2719    0.1219    3.1145 N   0  0  0  0  0  0  0  0  0  0  0  0
   -2.2226   -0.2582    2.2801 C   0  0  0  0  0  0  0  0  0  0  0  0
   -3.5669   -0.7708    2.6883 C   0  0  0  0  0  0  0  0  0  0  0  0
   -4.7195    0.1118    2.2948 C   0  0  0  0  0  0  0  0  0  0  0  0
   -5.8117   -0.2172    1.5128 C   0  0  0  0  0  0  0  0  0  0  0  0
   -6.7169    0.8712    1.3559 C   0  0  0  0  0  0  0  0  0  0  0  0
   -6.2942    1.9935    2.0307 C   0  0  0  0  0  0  0  0  0  0  0  0
   -4.8208    1.7298    2.8552 S   0  0  0  0  0  0  0  0  0  0  0  0
   -1.7471   -0.1445    0.9886 N   0  0  0  0  0  0  0  0  0  0  0  0
   -2.4633   -0.4275   -0.2392 C   0  0  0  0  0  0  0  0  0  0  0  0
   -2.4531   -1.8810   -0.5335 C   0  0  0  0  0  0  0  0  0  0  0  0
   -1.4993   -2.7453   -1.0316 C   0  0  0  0  0  0  0  0  0  0  0  0
   -2.1080   -4.0221   -1.0877 C   0  0  0  0  0  0  0  0  0  0  0  0
   -3.3927   -3.8560   -0.6274 C   0  0  0  0  0  0  0  0  0  0  0  0
   -3.6126   -2.5594   -0.2908 O   0  0  0  0  0  0  0  0  0  0  0  0
    3.9772    1.0817   -0.2856 N   0  0  0  0  0  0  0  0  0  0  0  0
    5.1745    1.0694   -1.0295 C   0  0  0  0  0  0  0  0  0  0  0  0
    5.5224    2.0425   -1.9687 C   0  0  0  0  0  0  0  0  0  0  0  0
    6.7342    1.9583   -2.6645 C   0  0  0  0  0  0  0  0  0  0  0  0
    7.6034    0.8990   -2.4206 C   0  0  0  0  0  0  0  0  0  0  0  0
    9.2391    0.7868   -3.3597 Br  0  0  0  0  0  0  0  0  0  0  0  0
    7.2724   -0.0781   -1.4869 C   0  0  0  0  0  0  0  0  0  0  0  0
    6.0605    0.0087   -0.7945 C   0  0  0  0  0  0  0  0  0  0  0  0
    2.2220    1.2249    1.5128 H   0  0  0  0  0  0  0  0  0  0  0  0
    1.3472    2.6452    0.9148 H   0  0  0  0  0  0  0  0  0  0  0  0
   -3.5822   -0.8949    3.7793 H   0  0  0  0  0  0  0  0  0  0  0  0
   -3.7087   -1.7766    2.2762 H   0  0  0  0  0  0  0  0  0  0  0  0
   -5.9544   -1.1965    1.0698 H   0  0  0  0  0  0  0  0  0  0  0  0
   -7.6342    0.8309    0.7818 H   0  0  0  0  0  0  0  0  0  0  0  0
   -6.7833    2.9564    2.0888 H   0  0  0  0  0  0  0  0  0  0  0  0
   -3.4807   -0.0435   -0.1418 H   0  0  0  0  0  0  0  0  0  0  0  0
   -2.0103    0.1320   -1.0627 H   0  0  0  0  0  0  0  0  0  0  0  0
   -0.4883   -2.4875   -1.3184 H   0  0  0  0  0  0  0  0  0  0  0  0
   -1.6666   -4.9498   -1.4246 H   0  0  0  0  0  0  0  0  0  0  0  0
   -4.2301   -4.5259   -0.4873 H   0  0  0  0  0  0  0  0  0  0  0  0
    3.8491    0.3093    0.3579 H   0  0  0  0  0  0  0  0  0  0  0  0
    4.8735    2.8852   -2.1873 H   0  0  0  0  0  0  0  0  0  0  0  0
    6.9835    2.7269   -3.3919 H   0  0  0  0  0  0  0  0  0  0  0  0
    7.9457   -0.9080   -1.2902 H   0  0  0  0  0  0  0  0  0  0  0  0
    5.8236   -0.7655   -0.0694 H   0  0  0  0  0  0  0  0  0  0  0  0
  1  2  2  0
  2  3  1  0
  3  4  1  0
  4  5  1  0
  5  6  2  0
  6  7  1  0
  7  8  2  0
  8  9  1  0
  9 10  1  0
 10 11  2  0
 11 12  1  0
 12 13  2  0
 13 14  1  0
  8 15  1  0
 15 16  1  0
 16 17  1  0
 17 18  2  0
 18 19  1  0
 19 20  2  0
 20 21  1  0
  2 22  1  0
 22 23  1  0
 23 24  2  0
 24 25  1  0
 25 26  2  0
 26 27  1  0
 26 28  1  0
 28 29  2  0
 15  5  1  0
 21 17  1  0
 29 23  1  0
 14 10  1  0
  3 30  1  0
  3 31  1  0
  9 32  1  0
  9 33  1  0
 11 34  1  0
 12 35  1  0
 13 36  1  0
 16 37  1  0
 16 38  1  0
 18 39  1  0
 19 40  1  0
 20 41  1  0
 22 42  1  0
 24 43  1  0
 25 44  1  0
 28 45  1  0
 29 46  1  0
M  END
$$$$
