
     RDKit          3D

 59 62  0  0  0  0  0  0  0  0999 V2000
   -6.7808    2.7131    3.7815 C   0  0  0  0  0  0  0  0  0  0  0  0
   -6.1604    1.7665    2.7956 C   0  0  0  0  0  0  0  0  0  0  0  0
   -6.1886    2.0681    1.4259 C   0  0  0  0  0  0  0  0  0  0  0  0
   -5.6165    1.1955    0.4982 C   0  0  0  0  0  0  0  0  0  0  0  0
   -4.9940    0.0237    0.9406 C   0  0  0  0  0  0  0  0  0  0  0  0
   -4.4109   -0.9326   -0.0271 C   0  0  0  0  0  0  0  0  0  0  0  0
   -4.7744   -2.1048    0.0386 O   0  0  0  0  0  0  0  0  0  0  0  0
   -3.5036   -0.4623   -0.9803 N   0  0  0  0  0  0  0  0  0  0  0  0
   -2.5911    0.6638   -0.7082 C   0  0  0  0  0  0  0  0  0  0  0  0
   -2.0381    1.2929   -2.0020 C   0  0  0  0  0  0  0  0  0  0  0  0
   -1.4206    0.2626   -2.8711 N   0  0  0  0  0  0  0  0  0  0  0  0
   -0.0662   -0.0046   -2.6634 C   0  0  0  0  0  0  0  0  0  0  0  0
    0.4565   -1.2945   -2.5066 C   0  0  0  0  0  0  0  0  0  0  0  0
    1.8268   -1.5254   -2.2979 C   0  0  0  0  0  0  0  0  0  0  0  0
    2.7257   -0.4658   -2.2601 C   0  0  0  0  0  0  0  0  0  0  0  0
    4.1098   -0.6081   -2.0507 N   0  0  0  0  0  0  0  0  0  0  0  0
    4.8060   -1.7555   -1.7188 C   0  0  0  0  0  0  0  0  0  0  0  0
    4.3240   -2.8767   -1.5686 O   0  0  0  0  0  0  0  0  0  0  0  0
    6.3108   -1.5561   -1.5828 C   0  0  0  0  0  0  0  0  0  0  0  0
    6.7604    0.0545   -0.8460 S   0  0  0  0  0  0  0  0  0  0  0  0
    6.5216   -0.1938    0.9098 C   0  0  0  0  0  0  0  0  0  0  0  0
    7.1670    0.7156    1.7621 C   0  0  0  0  0  0  0  0  0  0  0  0
    7.0310    0.6235    3.1513 C   0  0  0  0  0  0  0  0  0  0  0  0
    6.2394   -0.3789    3.7011 C   0  0  0  0  0  0  0  0  0  0  0  0
    6.0637   -0.4949    5.4076 Cl  0  0  0  0  0  0  0  0  0  0  0  0
    5.5868   -1.2860    2.8724 C   0  0  0  0  0  0  0  0  0  0  0  0
    5.7268   -1.1930    1.4815 C   0  0  0  0  0  0  0  0  0  0  0  0
    2.2353    0.8251   -2.4519 C   0  0  0  0  0  0  0  0  0  0  0  0
    0.8652    1.0456   -2.6514 C   0  0  0  0  0  0  0  0  0  0  0  0
   -2.3659   -0.8322   -3.1841 C   0  0  0  0  0  0  0  0  0  0  0  0
   -2.9660   -1.4610   -1.9132 C   0  0  0  0  0  0  0  0  0  0  0  0
   -4.9811   -0.2969    2.3001 C   0  0  0  0  0  0  0  0  0  0  0  0
   -5.5545    0.5781    3.2250 C   0  0  0  0  0  0  0  0  0  0  0  0
   -6.7452    2.3120    4.8003 H   0  0  0  0  0  0  0  0  0  0  0  0
   -7.8318    2.8882    3.5286 H   0  0  0  0  0  0  0  0  0  0  0  0
   -6.2445    3.6675    3.7749 H   0  0  0  0  0  0  0  0  0  0  0  0
   -6.6692    2.9796    1.0762 H   0  0  0  0  0  0  0  0  0  0  0  0
   -5.6676    1.4237   -0.5637 H   0  0  0  0  0  0  0  0  0  0  0  0
   -3.0804    1.4376   -0.1139 H   0  0  0  0  0  0  0  0  0  0  0  0
   -1.7708    0.2654   -0.0974 H   0  0  0  0  0  0  0  0  0  0  0  0
   -2.8677    1.7484   -2.5581 H   0  0  0  0  0  0  0  0  0  0  0  0
   -1.3558    2.1110   -1.7495 H   0  0  0  0  0  0  0  0  0  0  0  0
   -0.1847   -2.1698   -2.5245 H   0  0  0  0  0  0  0  0  0  0  0  0
    2.1502   -2.5542   -2.1758 H   0  0  0  0  0  0  0  0  0  0  0  0
    4.6550    0.2486   -2.0448 H   0  0  0  0  0  0  0  0  0  0  0  0
    6.7405   -1.6045   -2.5881 H   0  0  0  0  0  0  0  0  0  0  0  0
    6.7434   -2.3706   -0.9935 H   0  0  0  0  0  0  0  0  0  0  0  0
    7.7889    1.5099    1.3522 H   0  0  0  0  0  0  0  0  0  0  0  0
    7.5428    1.3367    3.7919 H   0  0  0  0  0  0  0  0  0  0  0  0
    4.9617   -2.0684    3.2967 H   0  0  0  0  0  0  0  0  0  0  0  0
    5.1879   -1.9185    0.8812 H   0  0  0  0  0  0  0  0  0  0  0  0
    2.9024    1.6828   -2.4540 H   0  0  0  0  0  0  0  0  0  0  0  0
    0.5373    2.0659   -2.8344 H   0  0  0  0  0  0  0  0  0  0  0  0
   -1.9137   -1.5945   -3.8290 H   0  0  0  0  0  0  0  0  0  0  0  0
   -3.1846   -0.3973   -3.7723 H   0  0  0  0  0  0  0  0  0  0  0  0
   -2.2106   -2.0349   -1.3648 H   0  0  0  0  0  0  0  0  0  0  0  0
   -3.7605   -2.1598   -2.1991 H   0  0  0  0  0  0  0  0  0  0  0  0
   -4.5316   -1.2282    2.6367 H   0  0  0  0  0  0  0  0  0  0  0  0
   -5.5354    0.3182    4.2816 H   0  0  0  0  0  0  0  0  0  0  0  0
  1  2  1  0
  2  3  2  0
  3  4  1  0
  4  5  2  0
  5  6  1  0
  6  7  2  0
  6  8  1  0
  8  9  1  0
  9 10  1  0
 10 11  1  0
 11 12  1  0
 12 13  2  0
 13 14  1  0
 14 15  2  0
 15 16  1  0
 16 17  1  0
 17 18  2  0
 17 19  1  0
 19 20  1  0
 20 21  1  0
 21 22  2  0
 22 23  1  0
 23 24  2  0
 24 25  1  0
 24 26  1  0
 26 27  2  0
 15 28  1  0
 28 29  2  0
 11 30  1  0
 30 31  1  0
  5 32  1  0
 32 33  2  0
 33  2  1  0
 31  8  1  0
 29 12  1  0
 27 21  1  0
  1 34  1  0
  1 35  1  0
  1 36  1  0
  3 37  1  0
  4 38  1  0
  9 39  1  0
  9 40  1  0
 10 41  1  0
 10 42  1  0
 13 43  1  0
 14 44  1  0
 16 45  1  0
 19 46  1  0
 19 47  1  0
 22 48  1  0
 23 49  1  0
 26 50  1  0
 27 51  1  0
 28 52  1  0
 29 53  1  0
 30 54  1  0
 30 55  1  0
 31 56  1  0
 31 57  1  0
 32 58  1  0
 33 59  1  0
M  END
$$$$
