
     RDKit          3D

 28 28  0  0  0  0  0  0  0  0999 V2000
   -1.1737   -0.2541   -1.3439 C   0  0  0  0  0  0  0  0  0  0  0  0
   -1.7498   -0.7146    0.0003 C   0  0  0  0  0  0  0  0  0  0  0  0
   -1.9648   -2.2384   -0.0504 C   0  0  0  0  0  0  0  0  0  0  0  0
   -3.1067   -0.0439    0.2540 C   0  0  0  0  0  0  0  0  0  0  0  0
   -0.7521   -0.3707    1.1321 C   0  0  0  0  0  0  0  0  0  0  0  0
   -0.0969   -1.2615    1.6804 O   0  0  0  0  0  0  0  0  0  0  0  0
   -0.6495    1.0932    1.5535 C   0  0  0  0  0  0  0  0  0  0  0  0
    0.8701    1.4746    2.4685 S   0  0  0  0  0  0  0  0  0  0  0  0
    2.0801    1.1226    1.2188 C   0  0  0  0  0  0  0  0  0  0  0  0
    1.7024    1.1498   -0.0734 N   0  0  0  0  0  0  0  0  0  0  0  0
    2.6665    0.8983   -0.9793 C   0  0  0  0  0  0  0  0  0  0  0  0
    3.9739    0.6372   -0.6475 C   0  0  0  0  0  0  0  0  0  0  0  0
    4.2555    0.6522    0.6966 C   0  0  0  0  0  0  0  0  0  0  0  0
    3.3348    0.9002    1.6445 N   0  0  0  0  0  0  0  0  0  0  0  0
   -1.8303   -0.5377   -2.1741 H   0  0  0  0  0  0  0  0  0  0  0  0
   -0.1908   -0.7033   -1.5254 H   0  0  0  0  0  0  0  0  0  0  0  0
   -1.0478    0.8329   -1.3823 H   0  0  0  0  0  0  0  0  0  0  0  0
   -2.3516   -2.6151    0.9037 H   0  0  0  0  0  0  0  0  0  0  0  0
   -2.6794   -2.5143   -0.8341 H   0  0  0  0  0  0  0  0  0  0  0  0
   -1.0273   -2.7678   -0.2563 H   0  0  0  0  0  0  0  0  0  0  0  0
   -3.4919   -0.2984    1.2481 H   0  0  0  0  0  0  0  0  0  0  0  0
   -3.0379    1.0480    0.1988 H   0  0  0  0  0  0  0  0  0  0  0  0
   -3.8501   -0.3594   -0.4868 H   0  0  0  0  0  0  0  0  0  0  0  0
   -1.4968    1.3093    2.2115 H   0  0  0  0  0  0  0  0  0  0  0  0
   -0.7198    1.7521    0.6848 H   0  0  0  0  0  0  0  0  0  0  0  0
    2.3447    0.9130   -2.0165 H   0  0  0  0  0  0  0  0  0  0  0  0
    4.7304    0.4352   -1.3924 H   0  0  0  0  0  0  0  0  0  0  0  0
    5.2590    0.4606    1.0651 H   0  0  0  0  0  0  0  0  0  0  0  0
  1  2  1  0
  2  3  1  0
  2  4  1  0
  2  5  1  0
  5  6  2  0
  5  7  1  0
  7  8  1  0
  8  9  1  0
  9 10  2  0
 10 11  1  0
 11 12  2  0
 12 13  1  0
 13 14  2  0
 14  9  1  0
  1 15  1  0
  1 16  1  0
  1 17  1  0
  3 18  1  0
  3 19  1  0
  3 20  1  0
  4 21  1  0
  4 22  1  0
  4 23  1  0
  7 24  1  0
  7 25  1  0
 11 26  1  0
 12 27  1  0
 13 28  1  0
M  END
$$$$
