
     RDKit          3D

 39 40  0  0  0  0  0  0  0  0999 V2000
   -1.5599   -0.4372   -2.3422 C   0  0  0  0  0  0  0  0  0  0  0  0
   -2.4344   -0.1113   -1.1485 C   0  0  0  0  0  0  0  0  0  0  0  0
   -1.9266    0.1549    0.0705 C   0  0  0  0  0  0  0  0  0  0  0  0
   -0.4650    0.2286    0.3370 C   0  0  0  0  0  0  0  0  0  0  0  0
    0.3697    0.8591   -0.4302 N   0  0  0  0  0  0  0  0  0  0  0  0
    1.6956    0.7975   -0.0826 N   0  0  0  0  0  0  0  0  0  0  0  0
    2.3459   -0.3628    0.3207 C   0  0  0  0  0  0  0  0  0  0  0  0
    1.7828   -1.4280    0.5667 O   0  0  0  0  0  0  0  0  0  0  0  0
    3.8376   -0.2798    0.4462 C   0  0  0  0  0  0  0  0  0  0  0  0
    4.4907   -1.3793    1.0294 C   0  0  0  0  0  0  0  0  0  0  0  0
    5.8762   -1.3759    1.1837 C   0  0  0  0  0  0  0  0  0  0  0  0
    6.7375   -2.8620    1.9731 Br  0  0  0  0  0  0  0  0  0  0  0  0
    6.6329   -0.2859    0.7615 C   0  0  0  0  0  0  0  0  0  0  0  0
    5.9999    0.8114    0.1765 C   0  0  0  0  0  0  0  0  0  0  0  0
    4.6102    0.8131    0.0185 C   0  0  0  0  0  0  0  0  0  0  0  0
    4.0195    1.8996   -0.5725 O   0  0  0  0  0  0  0  0  0  0  0  0
   -2.8427    0.3506    1.2165 C   0  0  0  0  0  0  0  0  0  0  0  0
   -2.3819    0.6227    2.3252 O   0  0  0  0  0  0  0  0  0  0  0  0
   -4.1919    0.2197    0.9645 N   0  0  0  0  0  0  0  0  0  0  0  0
   -5.1160    0.3988    2.0685 C   0  0  0  0  0  0  0  0  0  0  0  0
   -4.7350    0.0610   -0.3013 C   0  0  0  0  0  0  0  0  0  0  0  0
   -5.9538    0.0705   -0.4862 O   0  0  0  0  0  0  0  0  0  0  0  0
   -3.8208   -0.1099   -1.3439 N   0  0  0  0  0  0  0  0  0  0  0  0
   -4.3786   -0.3048   -2.6818 C   0  0  0  0  0  0  0  0  0  0  0  0
   -1.9673   -1.2773   -2.9143 H   0  0  0  0  0  0  0  0  0  0  0  0
   -1.4769    0.4313   -3.0033 H   0  0  0  0  0  0  0  0  0  0  0  0
   -0.5523   -0.7589   -2.0667 H   0  0  0  0  0  0  0  0  0  0  0  0
   -0.1542   -0.2418    1.2874 H   0  0  0  0  0  0  0  0  0  0  0  0
    2.2775    1.5238   -0.5013 H   0  0  0  0  0  0  0  0  0  0  0  0
    3.9120   -2.2383    1.3653 H   0  0  0  0  0  0  0  0  0  0  0  0
    7.7137   -0.2828    0.8818 H   0  0  0  0  0  0  0  0  0  0  0  0
    6.6070    1.6512   -0.1503 H   0  0  0  0  0  0  0  0  0  0  0  0
    4.7061    2.5521   -0.8021 H   0  0  0  0  0  0  0  0  0  0  0  0
   -4.6378    0.2032    3.0324 H   0  0  0  0  0  0  0  0  0  0  0  0
   -5.9732   -0.2733    1.9610 H   0  0  0  0  0  0  0  0  0  0  0  0
   -5.4760    1.4325    2.0521 H   0  0  0  0  0  0  0  0  0  0  0  0
   -3.8716    0.3497   -3.3975 H   0  0  0  0  0  0  0  0  0  0  0  0
   -5.4455   -0.0685   -2.7244 H   0  0  0  0  0  0  0  0  0  0  0  0
   -4.2536   -1.3534   -2.9690 H   0  0  0  0  0  0  0  0  0  0  0  0
  1  2  1  0
  2  3  2  0
  3  4  1  0
  4  5  2  3
  5  6  1  0
  6  7  1  0
  7  8  2  0
  7  9  1  0
  9 10  2  0
 10 11  1  0
 11 12  1  0
 11 13  2  0
 13 14  1  0
 14 15  2  0
 15 16  1  0
  3 17  1  0
 17 18  2  0
 17 19  1  0
 19 20  1  0
 19 21  1  0
 21 22  2  0
 21 23  1  0
 23 24  1  0
 23  2  1  0
 15  9  1  0
  1 25  1  0
  1 26  1  0
  1 27  1  0
  4 28  1  0
  6 29  1  0
 10 30  1  0
 13 31  1  0
 14 32  1  0
 16 33  1  0
 20 34  1  0
 20 35  1  0
 20 36  1  0
 24 37  1  0
 24 38  1  0
 24 39  1  0
M  END
$$$$
