
     RDKit          3D

 36 38  0  0  0  0  0  0  0  0999 V2000
   -6.0683   -1.3303   -0.3487 C   0  0  0  0  0  0  0  0  0  0  0  0
   -5.2812   -0.1331   -0.0590 N   0  0  0  0  0  0  0  0  0  0  0  0
   -5.9631    0.8974    0.7218 C   0  0  0  0  0  0  0  0  0  0  0  0
   -3.8882   -0.2410    0.0261 C   0  0  0  0  0  0  0  0  0  0  0  0
   -3.1917   -1.3532   -0.4776 C   0  0  0  0  0  0  0  0  0  0  0  0
   -1.7930   -1.4589   -0.4112 C   0  0  0  0  0  0  0  0  0  0  0  0
   -1.0267   -0.4370    0.1465 C   0  0  0  0  0  0  0  0  0  0  0  0
    0.4327   -0.5948    0.2258 C   0  0  0  0  0  0  0  0  0  0  0  0
    1.2943    0.4123    0.0067 C   0  0  0  0  0  0  0  0  0  0  0  0
    2.7185    0.3118    0.0662 C   0  0  0  0  0  0  0  0  0  0  0  0
    3.5214    1.3366   -0.1508 N   0  0  0  0  0  0  0  0  0  0  0  0
    4.8499    0.9685   -0.0318 C   0  0  0  0  0  0  0  0  0  0  0  0
    5.9623    1.8177   -0.2013 C   0  0  0  0  0  0  0  0  0  0  0  0
    7.2561    1.3082   -0.0500 C   0  0  0  0  0  0  0  0  0  0  0  0
    7.4519   -0.0322    0.2669 C   0  0  0  0  0  0  0  0  0  0  0  0
    6.3640   -0.8938    0.4399 C   0  0  0  0  0  0  0  0  0  0  0  0
    5.0697   -0.3696    0.2851 C   0  0  0  0  0  0  0  0  0  0  0  0
    3.5533   -1.1608    0.4307 S   0  0  0  0  0  0  0  0  0  0  0  0
   -1.6909    0.6783    0.6543 C   0  0  0  0  0  0  0  0  0  0  0  0
   -3.0904    0.7732    0.5835 C   0  0  0  0  0  0  0  0  0  0  0  0
   -5.8264   -1.7343   -1.3375 H   0  0  0  0  0  0  0  0  0  0  0  0
   -5.9089   -2.1007    0.4139 H   0  0  0  0  0  0  0  0  0  0  0  0
   -7.1407   -1.1058   -0.3714 H   0  0  0  0  0  0  0  0  0  0  0  0
   -7.0463    0.8686    0.5579 H   0  0  0  0  0  0  0  0  0  0  0  0
   -5.6421    1.9005    0.4211 H   0  0  0  0  0  0  0  0  0  0  0  0
   -5.7875    0.7597    1.7944 H   0  0  0  0  0  0  0  0  0  0  0  0
   -3.7199   -2.1781   -0.9456 H   0  0  0  0  0  0  0  0  0  0  0  0
   -1.3169   -2.3486   -0.8170 H   0  0  0  0  0  0  0  0  0  0  0  0
    0.7672   -1.6020    0.4578 H   0  0  0  0  0  0  0  0  0  0  0  0
    0.9210    1.4001   -0.2506 H   0  0  0  0  0  0  0  0  0  0  0  0
    5.8034    2.8626   -0.4487 H   0  0  0  0  0  0  0  0  0  0  0  0
    8.1116    1.9666   -0.1818 H   0  0  0  0  0  0  0  0  0  0  0  0
    8.4633   -0.4167    0.3819 H   0  0  0  0  0  0  0  0  0  0  0  0
    6.5174   -1.9398    0.6871 H   0  0  0  0  0  0  0  0  0  0  0  0
   -1.1393    1.4913    1.1201 H   0  0  0  0  0  0  0  0  0  0  0  0
   -3.5364    1.6774    0.9862 H   0  0  0  0  0  0  0  0  0  0  0  0
  1  2  1  0
  2  3  1  0
  2  4  1  0
  4  5  2  0
  5  6  1  0
  6  7  2  0
  7  8  1  0
  8  9  2  3
  9 10  1  0
 10 11  2  0
 11 12  1  0
 12 13  2  0
 13 14  1  0
 14 15  2  0
 15 16  1  0
 16 17  2  0
 17 18  1  0
  7 19  1  0
 19 20  2  0
 20  4  1  0
 18 10  1  0
 17 12  1  0
  1 21  1  0
  1 22  1  0
  1 23  1  0
  3 24  1  0
  3 25  1  0
  3 26  1  0
  5 27  1  0
  6 28  1  0
  8 29  1  0
  9 30  1  0
 13 31  1  0
 14 32  1  0
 15 33  1  0
 16 34  1  0
 19 35  1  0
 20 36  1  0
M  END
$$$$
