
     RDKit          3D

 65 69  0  0  0  0  0  0  0  0999 V2000
    6.3465   -1.8455    1.1941 O   0  0  0  0  0  0  0  0  0  0  0  0
    6.5771   -1.1670    0.1862 C   0  0  0  0  0  0  0  0  0  0  0  0
    7.8864   -1.3558   -0.6351 C   0  0  0  0  0  0  0  0  0  0  0  0
    9.0669   -0.3876   -0.3363 C   0  0  0  0  0  0  0  0  0  0  0  0
   10.0201   -1.5722   -0.5772 C   0  0  0  0  0  0  0  0  0  0  0  0
    8.8512   -2.4982   -0.1982 C   0  0  0  0  0  0  0  0  0  0  0  0
    5.6988   -0.1993   -0.2939 N   0  0  0  0  0  0  0  0  0  0  0  0
    5.9069    0.6207   -1.4986 C   0  0  0  0  0  0  0  0  0  0  0  0
    4.7258    1.5914   -1.6146 C   0  0  0  0  0  0  0  0  0  0  0  0
    3.8589    1.1663   -0.4748 C   0  0  0  0  0  0  0  0  0  0  0  0
    2.6225    1.6898   -0.1248 C   0  0  0  0  0  0  0  0  0  0  0  0
    1.9811    1.1578    0.9981 C   0  0  0  0  0  0  0  0  0  0  0  0
    0.4114    1.8224    1.4933 S   0  0  0  0  0  6  0  0  0  0  0  0
    0.3960    3.2230    1.1309 O   0  0  0  0  0  0  0  0  0  0  0  0
    0.1192    1.3848    2.8403 O   0  0  0  0  0  0  0  0  0  0  0  0
   -0.6342    1.0475    0.4444 N   0  0  0  0  0  0  0  0  0  0  0  0
   -1.1263   -0.2951    0.7890 C   0  0  0  0  0  0  0  0  0  0  0  0
   -2.2224   -0.6965   -0.2218 C   0  0  0  0  0  0  0  0  0  0  0  0
   -3.2635    0.3421   -0.4008 N   0  0  0  0  0  0  0  0  0  0  0  0
   -4.0103    0.5854    0.8584 C   0  0  0  0  0  0  0  0  0  0  0  0
   -5.4494    1.1200    0.6656 C   0  0  0  0  0  0  0  0  0  0  0  0
   -6.2532    0.1682   -0.1142 N   0  0  0  0  0  0  0  0  0  0  0  0
   -7.6275    0.0502    0.0504 C   0  0  0  0  0  0  0  0  0  0  0  0
   -8.3818    1.0860    0.6321 C   0  0  0  0  0  0  0  0  0  0  0  0
   -9.7700    0.9933    0.8092 C   0  0  0  0  0  0  0  0  0  0  0  0
  -10.4530   -0.1478    0.4064 C   0  0  0  0  0  0  0  0  0  0  0  0
   -9.7447   -1.1920   -0.1744 C   0  0  0  0  0  0  0  0  0  0  0  0
   -8.3615   -1.0880   -0.3475 C   0  0  0  0  0  0  0  0  0  0  0  0
   -7.7401   -2.1463   -0.8968 F   0  0  0  0  0  0  0  0  0  0  0  0
   -5.5236   -0.6775   -1.0731 C   0  0  0  0  0  0  0  0  0  0  0  0
   -4.1922   -0.0140   -1.4994 C   0  0  0  0  0  0  0  0  0  0  0  0
    2.5782    0.1401    1.7601 C   0  0  0  0  0  0  0  0  0  0  0  0
    3.8264   -0.3737    1.3904 C   0  0  0  0  0  0  0  0  0  0  0  0
    4.4562    0.1462    0.2701 C   0  0  0  0  0  0  0  0  0  0  0  0
    7.6819   -1.4364   -1.7128 H   0  0  0  0  0  0  0  0  0  0  0  0
    9.0842   -0.0016    0.6902 H   0  0  0  0  0  0  0  0  0  0  0  0
    9.1844    0.4483   -1.0323 H   0  0  0  0  0  0  0  0  0  0  0  0
   10.3415   -1.6736   -1.6198 H   0  0  0  0  0  0  0  0  0  0  0  0
   10.8962   -1.6216    0.0730 H   0  0  0  0  0  0  0  0  0  0  0  0
    8.7799   -3.4240   -0.7760 H   0  0  0  0  0  0  0  0  0  0  0  0
    8.8197   -2.7445    0.8699 H   0  0  0  0  0  0  0  0  0  0  0  0
    6.8578    1.1570   -1.4206 H   0  0  0  0  0  0  0  0  0  0  0  0
    5.9566   -0.0423   -2.3698 H   0  0  0  0  0  0  0  0  0  0  0  0
    4.2142    1.4809   -2.5756 H   0  0  0  0  0  0  0  0  0  0  0  0
    5.0556    2.6281   -1.4903 H   0  0  0  0  0  0  0  0  0  0  0  0
    2.1694    2.4913   -0.7012 H   0  0  0  0  0  0  0  0  0  0  0  0
   -1.3318    1.6683    0.0244 H   0  0  0  0  0  0  0  0  0  0  0  0
   -1.5470   -0.2981    1.7998 H   0  0  0  0  0  0  0  0  0  0  0  0
   -0.3039   -1.0164    0.7493 H   0  0  0  0  0  0  0  0  0  0  0  0
   -2.6648   -1.6561    0.0743 H   0  0  0  0  0  0  0  0  0  0  0  0
   -1.7241   -0.8553   -1.1872 H   0  0  0  0  0  0  0  0  0  0  0  0
   -4.0840   -0.3441    1.4394 H   0  0  0  0  0  0  0  0  0  0  0  0
   -3.4504    1.3048    1.4668 H   0  0  0  0  0  0  0  0  0  0  0  0
   -5.8748    1.2671    1.6657 H   0  0  0  0  0  0  0  0  0  0  0  0
   -5.4291    2.0913    0.1569 H   0  0  0  0  0  0  0  0  0  0  0  0
   -7.9017    2.0104    0.9422 H   0  0  0  0  0  0  0  0  0  0  0  0
  -10.3117    1.8213    1.2611 H   0  0  0  0  0  0  0  0  0  0  0  0
  -11.5280   -0.2222    0.5438 H   0  0  0  0  0  0  0  0  0  0  0  0
  -10.2531   -2.0961   -0.4933 H   0  0  0  0  0  0  0  0  0  0  0  0
   -5.3210   -1.6574   -0.6238 H   0  0  0  0  0  0  0  0  0  0  0  0
   -6.1155   -0.8256   -1.9848 H   0  0  0  0  0  0  0  0  0  0  0  0
   -3.6974   -0.6401   -2.2520 H   0  0  0  0  0  0  0  0  0  0  0  0
   -4.4358    0.9230   -2.0180 H   0  0  0  0  0  0  0  0  0  0  0  0
    2.0815   -0.2546    2.6438 H   0  0  0  0  0  0  0  0  0  0  0  0
    4.2755   -1.1603    1.9874 H   0  0  0  0  0  0  0  0  0  0  0  0
  1  2  2  0
  2  3  1  0
  3  4  1  0
  4  5  1  0
  5  6  1  0
  2  7  1  0
  7  8  1  0
  8  9  1  0
  9 10  1  0
 10 11  2  0
 11 12  1  0
 12 13  1  0
 13 14  2  0
 13 15  2  0
 13 16  1  0
 16 17  1  0
 17 18  1  0
 18 19  1  0
 19 20  1  0
 20 21  1  0
 21 22  1  0
 22 23  1  0
 23 24  2  0
 24 25  1  0
 25 26  2  0
 26 27  1  0
 27 28  2  0
 28 29  1  0
 22 30  1  0
 30 31  1  0
 12 32  2  0
 32 33  1  0
 33 34  2  0
  6  3  1  0
 34  7  1  0
 34 10  1  0
 31 19  1  0
 28 23  1  0
  3 35  1  0
  4 36  1  0
  4 37  1  0
  5 38  1  0
  5 39  1  0
  6 40  1  0
  6 41  1  0
  8 42  1  0
  8 43  1  0
  9 44  1  0
  9 45  1  0
 11 46  1  0
 16 47  1  0
 17 48  1  0
 17 49  1  0
 18 50  1  0
 18 51  1  0
 20 52  1  0
 20 53  1  0
 21 54  1  0
 21 55  1  0
 24 56  1  0
 25 57  1  0
 26 58  1  0
 27 59  1  0
 30 60  1  0
 30 61  1  0
 31 62  1  0
 31 63  1  0
 32 64  1  0
 33 65  1  0
M  END
$$$$
