
     RDKit          3D

 59 62  0  0  0  0  0  0  0  0999 V2000
    4.3381   -4.5538    0.3009 C   0  0  0  0  0  0  0  0  0  0  0  0
    3.4409   -3.6759   -0.5530 C   0  0  0  0  0  0  0  0  0  0  0  0
    3.9223   -2.3337   -0.5762 O   0  0  0  0  0  0  0  0  0  0  0  0
    3.4901   -1.5320    0.5211 C   0  0  0  0  0  0  0  0  0  0  0  0
    2.1261   -0.9155    0.2303 C   0  0  0  0  0  0  0  0  0  0  0  0
    1.6853    0.0015    1.3688 C   0  0  0  0  0  0  0  0  0  0  0  0
    0.3623    0.5864    1.0811 N   0  0  0  0  0  0  0  0  0  0  0  0
   -0.8216   -0.0989    1.4125 C   0  0  0  0  0  0  0  0  0  0  0  0
   -0.8496   -1.2921    1.9216 N   0  0  0  0  0  0  0  0  0  0  0  0
   -2.1405    0.5556    1.1625 C   0  0  0  0  0  0  0  0  0  0  0  0
   -3.6514   -0.1452    1.6278 S   0  0  0  0  0  6  0  0  0  0  0  0
   -4.7456    0.6093    1.0310 O   0  0  0  0  0  0  0  0  0  0  0  0
   -3.6755   -0.3792    3.0622 O   0  0  0  0  0  0  0  0  0  0  0  0
   -3.6861   -1.7265    0.8038 C   0  0  0  0  0  0  0  0  0  0  0  0
   -3.8828   -1.7685   -0.5801 C   0  0  0  0  0  0  0  0  0  0  0  0
   -3.9404   -3.0028   -1.2293 C   0  0  0  0  0  0  0  0  0  0  0  0
   -3.8241   -4.1949   -0.5009 C   0  0  0  0  0  0  0  0  0  0  0  0
   -3.8549   -5.5189   -1.2067 C   0  0  0  0  0  0  0  0  0  0  0  0
   -3.6303   -4.1366    0.8863 C   0  0  0  0  0  0  0  0  0  0  0  0
   -3.5736   -2.9059    1.5426 C   0  0  0  0  0  0  0  0  0  0  0  0
   -2.1215    1.7635    0.5761 C   0  0  0  0  0  0  0  0  0  0  0  0
   -0.8843    2.4100    0.1700 C   0  0  0  0  0  0  0  0  0  0  0  0
   -0.9390    3.7260   -0.5292 C   0  0  0  0  0  0  0  0  0  0  0  0
   -2.0301    4.2477   -0.7672 O   0  0  0  0  0  0  0  0  0  0  0  0
    0.2794    4.2817   -0.8760 N   0  0  0  0  0  0  0  0  0  0  0  0
    0.3116    5.5121   -1.5252 C   0  0  0  0  0  0  0  0  0  0  0  0
    1.4632    6.0978   -1.8896 C   0  0  0  0  0  0  0  0  0  0  0  0
    1.5266    7.4221   -2.5868 C   0  0  0  0  0  0  0  0  0  0  0  0
    2.7115    5.4281   -1.6018 C   0  0  0  0  0  0  0  0  0  0  0  0
    2.7242    4.2436   -0.9795 C   0  0  0  0  0  0  0  0  0  0  0  0
    1.4430    3.6027   -0.5748 C   0  0  0  0  0  0  0  0  0  0  0  0
    1.4882    2.4591    0.0293 N   0  0  0  0  0  0  0  0  0  0  0  0
    0.3190    1.8438    0.4162 C   0  0  0  0  0  0  0  0  0  0  0  0
    5.3784   -4.4823   -0.0339 H   0  0  0  0  0  0  0  0  0  0  0  0
    4.0209   -5.5990    0.2463 H   0  0  0  0  0  0  0  0  0  0  0  0
    4.3185   -4.2418    1.3494 H   0  0  0  0  0  0  0  0  0  0  0  0
    2.4012   -3.7228   -0.2125 H   0  0  0  0  0  0  0  0  0  0  0  0
    3.4648   -4.0419   -1.5845 H   0  0  0  0  0  0  0  0  0  0  0  0
    3.4802   -2.1085    1.4523 H   0  0  0  0  0  0  0  0  0  0  0  0
    4.2307   -0.7339    0.6398 H   0  0  0  0  0  0  0  0  0  0  0  0
    1.3830   -1.7034    0.0645 H   0  0  0  0  0  0  0  0  0  0  0  0
    2.1740   -0.3604   -0.7149 H   0  0  0  0  0  0  0  0  0  0  0  0
    2.4362    0.7856    1.5291 H   0  0  0  0  0  0  0  0  0  0  0  0
    1.6653   -0.5435    2.3203 H   0  0  0  0  0  0  0  0  0  0  0  0
    0.0794   -1.6842    2.0522 H   0  0  0  0  0  0  0  0  0  0  0  0
   -4.0023   -0.8530   -1.1546 H   0  0  0  0  0  0  0  0  0  0  0  0
   -4.0868   -3.0315   -2.3072 H   0  0  0  0  0  0  0  0  0  0  0  0
   -4.2271   -6.3076   -0.5444 H   0  0  0  0  0  0  0  0  0  0  0  0
   -4.5220   -5.4824   -2.0741 H   0  0  0  0  0  0  0  0  0  0  0  0
   -2.8487   -5.7864   -1.5434 H   0  0  0  0  0  0  0  0  0  0  0  0
   -3.5251   -5.0509    1.4665 H   0  0  0  0  0  0  0  0  0  0  0  0
   -3.4248   -2.8739    2.6197 H   0  0  0  0  0  0  0  0  0  0  0  0
   -3.0453    2.3069    0.3827 H   0  0  0  0  0  0  0  0  0  0  0  0
   -0.6497    5.9813   -1.7240 H   0  0  0  0  0  0  0  0  0  0  0  0
    2.0136    7.3205   -3.5626 H   0  0  0  0  0  0  0  0  0  0  0  0
    0.5288    7.8413   -2.7558 H   0  0  0  0  0  0  0  0  0  0  0  0
    2.0930    8.1446   -1.9894 H   0  0  0  0  0  0  0  0  0  0  0  0
    3.6425    5.9012   -1.9000 H   0  0  0  0  0  0  0  0  0  0  0  0
    3.6412    3.7152   -0.7504 H   0  0  0  0  0  0  0  0  0  0  0  0
  1  2  1  0
  2  3  1  0
  3  4  1  0
  4  5  1  0
  5  6  1  0
  6  7  1  0
  7  8  1  0
  8  9  2  3
  8 10  1  0
 10 11  1  0
 11 12  2  0
 11 13  2  0
 11 14  1  0
 14 15  2  0
 15 16  1  0
 16 17  2  0
 17 18  1  0
 17 19  1  0
 19 20  2  0
 10 21  2  0
 21 22  1  0
 22 23  1  0
 23 24  2  0
 23 25  1  0
 25 26  1  0
 26 27  2  0
 27 28  1  0
 27 29  1  0
 29 30  2  0
 30 31  1  0
 31 32  2  0
 32 33  1  0
 33  7  1  0
 20 14  1  0
 33 22  2  0
 31 25  1  0
  1 34  1  0
  1 35  1  0
  1 36  1  0
  2 37  1  0
  2 38  1  0
  4 39  1  0
  4 40  1  0
  5 41  1  0
  5 42  1  0
  6 43  1  0
  6 44  1  0
  9 45  1  0
 15 46  1  0
 16 47  1  0
 18 48  1  0
 18 49  1  0
 18 50  1  0
 19 51  1  0
 20 52  1  0
 21 53  1  0
 26 54  1  0
 28 55  1  0
 28 56  1  0
 28 57  1  0
 29 58  1  0
 30 59  1  0
M  END
$$$$
