
     RDKit          3D

 44 46  0  0  0  0  0  0  0  0999 V2000
   -5.4726   -1.4560    1.9739 C   0  0  0  0  0  0  0  0  0  0  0  0
   -4.6540   -1.0467    0.7843 C   0  0  0  0  0  0  0  0  0  0  0  0
   -5.0161    0.0780    0.0297 C   0  0  0  0  0  0  0  0  0  0  0  0
   -4.2746    0.4444   -1.0946 C   0  0  0  0  0  0  0  0  0  0  0  0
   -3.1655   -0.3203   -1.4657 C   0  0  0  0  0  0  0  0  0  0  0  0
   -2.2213    0.1451   -2.8992 S   0  0  0  0  0  6  0  0  0  0  0  0
   -3.1005    0.8887   -3.7779 O   0  0  0  0  0  0  0  0  0  0  0  0
   -1.5053   -1.0212   -3.3686 O   0  0  0  0  0  0  0  0  0  0  0  0
   -1.1205    1.2718   -2.2818 N   0  0  0  0  0  0  0  0  0  0  0  0
   -0.3041    0.9085   -1.1742 C   0  0  0  0  0  0  0  0  0  0  0  0
   -0.5255    1.5265    0.0571 C   0  0  0  0  0  0  0  0  0  0  0  0
    0.2253    1.1563    1.1800 C   0  0  0  0  0  0  0  0  0  0  0  0
   -0.0251    1.8118    2.5080 C   0  0  0  0  0  0  0  0  0  0  0  0
    1.2076    0.1645    1.0416 C   0  0  0  0  0  0  0  0  0  0  0  0
    1.9215   -0.1607    2.1664 O   0  0  0  0  0  0  0  0  0  0  0  0
    1.4376   -0.4660   -0.1932 C   0  0  0  0  0  0  0  0  0  0  0  0
    2.6001   -1.8057   -0.4172 S   0  0  0  0  0  0  0  0  0  0  0  0
    4.1242   -1.0126   -0.1444 C   0  0  0  0  0  0  0  0  0  0  0  0
    4.4733   -0.5845    1.0756 N   0  0  0  0  0  0  0  0  0  0  0  0
    5.6931   -0.0724    0.8338 N   0  0  0  0  0  0  0  0  0  0  0  0
    6.0377   -0.2072   -0.4812 C   0  0  0  0  0  0  0  0  0  0  0  0
    7.3258    0.2643   -1.0292 C   0  0  0  0  0  0  0  0  0  0  0  0
    5.0567   -0.8071   -1.1194 N   0  0  0  0  0  0  0  0  0  0  0  0
    0.6671   -0.0844   -1.2991 C   0  0  0  0  0  0  0  0  0  0  0  0
   -2.8147   -1.4643   -0.7448 C   0  0  0  0  0  0  0  0  0  0  0  0
   -3.5589   -1.8224    0.3800 C   0  0  0  0  0  0  0  0  0  0  0  0
   -5.9040   -0.5804    2.4701 H   0  0  0  0  0  0  0  0  0  0  0  0
   -4.8544   -1.9760    2.7133 H   0  0  0  0  0  0  0  0  0  0  0  0
   -6.2829   -2.1208    1.6595 H   0  0  0  0  0  0  0  0  0  0  0  0
   -5.8831    0.6715    0.3131 H   0  0  0  0  0  0  0  0  0  0  0  0
   -4.5714    1.3153   -1.6742 H   0  0  0  0  0  0  0  0  0  0  0  0
   -1.5011    2.2162   -2.3032 H   0  0  0  0  0  0  0  0  0  0  0  0
   -1.2961    2.2869    0.1541 H   0  0  0  0  0  0  0  0  0  0  0  0
   -0.8256    2.5563    2.4438 H   0  0  0  0  0  0  0  0  0  0  0  0
    0.8782    2.3243    2.8544 H   0  0  0  0  0  0  0  0  0  0  0  0
   -0.3264    1.0643    3.2490 H   0  0  0  0  0  0  0  0  0  0  0  0
    2.7690   -0.5648    1.8792 H   0  0  0  0  0  0  0  0  0  0  0  0
    6.2226    0.3414    1.5936 H   0  0  0  0  0  0  0  0  0  0  0  0
    8.1604   -0.2722   -0.5675 H   0  0  0  0  0  0  0  0  0  0  0  0
    7.3692    0.0968   -2.1098 H   0  0  0  0  0  0  0  0  0  0  0  0
    7.4559    1.3353   -0.8457 H   0  0  0  0  0  0  0  0  0  0  0  0
    0.8248   -0.5639   -2.2634 H   0  0  0  0  0  0  0  0  0  0  0  0
   -1.9669   -2.0759   -1.0460 H   0  0  0  0  0  0  0  0  0  0  0  0
   -3.2795   -2.7131    0.9397 H   0  0  0  0  0  0  0  0  0  0  0  0
  1  2  1  0
  2  3  2  0
  3  4  1  0
  4  5  2  0
  5  6  1  0
  6  7  2  0
  6  8  2  0
  6  9  1  0
  9 10  1  0
 10 11  2  0
 11 12  1  0
 12 13  1  0
 12 14  2  0
 14 15  1  0
 14 16  1  0
 16 17  1  0
 17 18  1  0
 18 19  2  0
 19 20  1  0
 20 21  1  0
 21 22  1  0
 21 23  2  0
 16 24  2  0
  5 25  1  0
 25 26  2  0
 26  2  1  0
 24 10  1  0
 23 18  1  0
  1 27  1  0
  1 28  1  0
  1 29  1  0
  3 30  1  0
  4 31  1  0
  9 32  1  0
 11 33  1  0
 13 34  1  0
 13 35  1  0
 13 36  1  0
 15 37  1  0
 20 38  1  0
 22 39  1  0
 22 40  1  0
 22 41  1  0
 24 42  1  0
 25 43  1  0
 26 44  1  0
M  END
$$$$
