
     RDKit          3D

 61 66  0  0  0  0  0  0  0  0999 V2000
    9.2029   -2.5247    2.4699 F   0  0  0  0  0  0  0  0  0  0  0  0
    8.2586   -1.7838    1.8751 C   0  0  0  0  0  0  0  0  0  0  0  0
    8.1682   -0.4279    2.1657 C   0  0  0  0  0  0  0  0  0  0  0  0
    7.1851    0.3450    1.5465 C   0  0  0  0  0  0  0  0  0  0  0  0
    6.2953   -0.2406    0.6328 C   0  0  0  0  0  0  0  0  0  0  0  0
    5.2205    0.5929   -0.0263 C   0  0  0  0  0  0  0  0  0  0  0  0
    3.8964    0.5362    0.7561 C   0  0  0  0  0  0  0  0  0  0  0  0
    2.8570    1.4222    0.2012 N   0  0  0  0  0  0  0  0  0  0  0  0
    2.4793    1.0364   -1.1809 C   0  0  0  0  0  0  0  0  0  0  0  0
    1.0319    1.4212   -1.5573 C   0  0  0  0  0  0  0  0  0  0  0  0
    0.0688    0.6836   -0.7087 N   0  0  0  0  0  0  0  0  0  0  0  0
   -1.2716    0.9157   -0.8960 C   0  0  0  0  0  0  0  0  0  0  0  0
   -1.9057    2.0528   -1.3653 C   0  0  0  0  0  0  0  0  0  0  0  0
   -3.2958    1.8916   -1.1731 C   0  0  0  0  0  0  0  0  0  0  0  0
   -3.4963    0.6445   -0.6145 C   0  0  0  0  0  0  0  0  0  0  0  0
   -4.6888   -0.0398   -0.1614 C   0  0  0  0  0  0  0  0  0  0  0  0
   -5.9799    0.6854   -0.0235 C   0  0  0  0  0  0  0  0  0  0  0  0
   -7.1505    0.0692   -0.4797 C   0  0  0  0  0  0  0  0  0  0  0  0
   -8.3783    0.7200   -0.3508 C   0  0  0  0  0  0  0  0  0  0  0  0
   -8.4404    1.9800    0.2445 C   0  0  0  0  0  0  0  0  0  0  0  0
   -7.2780    2.5887    0.7192 C   0  0  0  0  0  0  0  0  0  0  0  0
   -6.0476    1.9409    0.5923 C   0  0  0  0  0  0  0  0  0  0  0  0
   -4.6553   -1.3062    0.1338 N   0  0  0  0  0  0  0  0  0  0  0  0
   -3.4425   -2.0119    0.0046 C   0  0  0  0  0  0  0  0  0  0  0  0
   -3.4628   -3.3882    0.2487 C   0  0  0  0  0  0  0  0  0  0  0  0
   -2.3073   -4.1572    0.0998 C   0  0  0  0  0  0  0  0  0  0  0  0
   -1.1199   -3.5542   -0.3108 C   0  0  0  0  0  0  0  0  0  0  0  0
   -1.0792   -2.1801   -0.5557 C   0  0  0  0  0  0  0  0  0  0  0  0
   -2.2295   -1.4078   -0.3699 C   0  0  0  0  0  0  0  0  0  0  0  0
   -2.2764   -0.0126   -0.6102 N   0  0  0  0  0  0  0  0  0  0  0  0
    0.5226    0.4957    0.6981 C   0  0  0  0  0  0  0  0  0  0  0  0
    1.6609    1.4715    1.0770 C   0  0  0  0  0  0  0  0  0  0  0  0
    6.3990   -1.6129    0.3571 C   0  0  0  0  0  0  0  0  0  0  0  0
    7.3831   -2.3832    0.9779 C   0  0  0  0  0  0  0  0  0  0  0  0
    8.8620    0.0175    2.8713 H   0  0  0  0  0  0  0  0  0  0  0  0
    7.1169    1.4059    1.7791 H   0  0  0  0  0  0  0  0  0  0  0  0
    5.0848    0.2373   -1.0549 H   0  0  0  0  0  0  0  0  0  0  0  0
    5.5649    1.6319   -0.1078 H   0  0  0  0  0  0  0  0  0  0  0  0
    4.1072    0.8467    1.7884 H   0  0  0  0  0  0  0  0  0  0  0  0
    3.5330   -0.4993    0.8099 H   0  0  0  0  0  0  0  0  0  0  0  0
    2.5812   -0.0487   -1.3190 H   0  0  0  0  0  0  0  0  0  0  0  0
    3.1679    1.5239   -1.8802 H   0  0  0  0  0  0  0  0  0  0  0  0
    0.8576    1.1642   -2.6095 H   0  0  0  0  0  0  0  0  0  0  0  0
    0.9043    2.5063   -1.4491 H   0  0  0  0  0  0  0  0  0  0  0  0
   -1.4167    2.9462   -1.7284 H   0  0  0  0  0  0  0  0  0  0  0  0
   -4.0591    2.6257   -1.3957 H   0  0  0  0  0  0  0  0  0  0  0  0
   -7.1067   -0.9169   -0.9363 H   0  0  0  0  0  0  0  0  0  0  0  0
   -9.2858    0.2412   -0.7095 H   0  0  0  0  0  0  0  0  0  0  0  0
   -9.3985    2.4838    0.3480 H   0  0  0  0  0  0  0  0  0  0  0  0
   -7.3324    3.5638    1.1971 H   0  0  0  0  0  0  0  0  0  0  0  0
   -5.1549    2.4125    0.9936 H   0  0  0  0  0  0  0  0  0  0  0  0
   -4.3948   -3.8616    0.5474 H   0  0  0  0  0  0  0  0  0  0  0  0
   -2.3407   -5.2274    0.2869 H   0  0  0  0  0  0  0  0  0  0  0  0
   -0.2264   -4.1566   -0.4541 H   0  0  0  0  0  0  0  0  0  0  0  0
   -0.1545   -1.7474   -0.9220 H   0  0  0  0  0  0  0  0  0  0  0  0
   -0.3058    0.6329    1.4049 H   0  0  0  0  0  0  0  0  0  0  0  0
    0.8838   -0.5319    0.8172 H   0  0  0  0  0  0  0  0  0  0  0  0
    1.2654    2.4945    1.0220 H   0  0  0  0  0  0  0  0  0  0  0  0
    1.9343    1.3249    2.1295 H   0  0  0  0  0  0  0  0  0  0  0  0
    5.7156   -2.0875   -0.3435 H   0  0  0  0  0  0  0  0  0  0  0  0
    7.4730   -3.4444    0.7684 H   0  0  0  0  0  0  0  0  0  0  0  0
  1  2  1  0
  2  3  2  0
  3  4  1  0
  4  5  2  0
  5  6  1  0
  6  7  1  0
  7  8  1  0
  8  9  1  0
  9 10  1  0
 10 11  1  0
 11 12  1  0
 12 13  2  0
 13 14  1  0
 14 15  2  0
 15 16  1  0
 16 17  1  0
 17 18  2  0
 18 19  1  0
 19 20  2  0
 20 21  1  0
 21 22  2  0
 16 23  2  0
 23 24  1  0
 24 25  2  0
 25 26  1  0
 26 27  2  0
 27 28  1  0
 28 29  2  0
 29 30  1  0
 11 31  1  0
 31 32  1  0
  5 33  1  0
 33 34  2  0
 34  2  1  0
 32  8  1  0
 30 12  1  0
 30 15  1  0
 22 17  1  0
 29 24  1  0
  3 35  1  0
  4 36  1  0
  6 37  1  0
  6 38  1  0
  7 39  1  0
  7 40  1  0
  9 41  1  0
  9 42  1  0
 10 43  1  0
 10 44  1  0
 13 45  1  0
 14 46  1  0
 18 47  1  0
 19 48  1  0
 20 49  1  0
 21 50  1  0
 22 51  1  0
 25 52  1  0
 26 53  1  0
 27 54  1  0
 28 55  1  0
 31 56  1  0
 31 57  1  0
 32 58  1  0
 32 59  1  0
 33 60  1  0
 34 61  1  0
M  END
$$$$
