
     RDKit          3D

 65 69  0  0  0  0  0  0  0  0999 V2000
   -2.1390   -3.9753    2.1828 C   0  0  0  0  0  0  0  0  0  0  0  0
   -2.9060   -4.6812    1.2142 O   0  0  0  0  0  0  0  0  0  0  0  0
   -3.5157   -3.9284    0.2477 C   0  0  0  0  0  0  0  0  0  0  0  0
   -4.0835   -4.6642   -0.7944 C   0  0  0  0  0  0  0  0  0  0  0  0
   -4.7258   -4.0194   -1.8505 C   0  0  0  0  0  0  0  0  0  0  0  0
   -4.8070   -2.6275   -1.8675 C   0  0  0  0  0  0  0  0  0  0  0  0
   -4.2548   -1.8710   -0.8237 C   0  0  0  0  0  0  0  0  0  0  0  0
   -4.3243   -0.4011   -0.8413 C   0  0  0  0  0  0  0  0  0  0  0  0
   -5.8683    0.3399   -0.8829 S   0  0  0  0  0  0  0  0  0  0  0  0
   -5.2137    1.9253   -0.8597 C   0  0  0  0  0  0  0  0  0  0  0  0
   -5.9327    3.1360   -0.8803 C   0  0  0  0  0  0  0  0  0  0  0  0
   -5.2339    4.3485   -0.8617 C   0  0  0  0  0  0  0  0  0  0  0  0
   -3.8466    4.3641   -0.8270 C   0  0  0  0  0  0  0  0  0  0  0  0
   -3.0539    5.4790   -0.8093 O   0  0  0  0  0  0  0  0  0  0  0  0
   -3.7123    6.7390   -0.8477 C   0  0  0  0  0  0  0  0  0  0  0  0
   -3.1448    3.1528   -0.8062 C   0  0  0  0  0  0  0  0  0  0  0  0
   -3.8202    1.9033   -0.8165 C   0  0  0  0  0  0  0  0  0  0  0  0
   -3.3111    0.5473   -0.7961 C   0  0  0  0  0  0  0  0  0  0  0  0
   -1.9003    0.1721   -0.7345 C   0  0  0  0  0  0  0  0  0  0  0  0
   -1.1416    0.4941    0.3969 C   0  0  0  0  0  0  0  0  0  0  0  0
    0.2104    0.1400    0.4697 C   0  0  0  0  0  0  0  0  0  0  0  0
    0.8153   -0.5368   -0.5897 C   0  0  0  0  0  0  0  0  0  0  0  0
    2.1215   -0.9375   -0.6469 O   0  0  0  0  0  0  0  0  0  0  0  0
    2.9633   -0.5706    0.4520 C   0  0  0  0  0  0  0  0  0  0  0  0
    4.3825   -1.0851    0.1579 C   0  0  0  0  0  0  0  0  0  0  0  0
    5.3368   -0.8888    1.2651 N   0  0  0  0  0  0  0  0  0  0  0  0
    5.6597    0.5212    1.5317 C   0  0  0  0  0  0  0  0  0  0  0  0
    6.5332    1.1769    0.4595 C   0  0  0  0  0  0  0  0  0  0  0  0
    7.8056    0.3725    0.2162 C   0  0  0  0  0  0  0  0  0  0  0  0
    7.4844   -1.0963   -0.0369 C   0  0  0  0  0  0  0  0  0  0  0  0
    6.5725   -1.6624    1.0550 C   0  0  0  0  0  0  0  0  0  0  0  0
    0.0564   -0.8577   -1.7182 C   0  0  0  0  0  0  0  0  0  0  0  0
   -1.2930   -0.5037   -1.7962 C   0  0  0  0  0  0  0  0  0  0  0  0
   -3.6127   -2.5352    0.2350 C   0  0  0  0  0  0  0  0  0  0  0  0
   -2.7844   -3.3690    2.8270 H   0  0  0  0  0  0  0  0  0  0  0  0
   -1.3632   -3.3632    1.7093 H   0  0  0  0  0  0  0  0  0  0  0  0
   -1.6383   -4.7143    2.8165 H   0  0  0  0  0  0  0  0  0  0  0  0
   -4.0174   -5.7495   -0.7851 H   0  0  0  0  0  0  0  0  0  0  0  0
   -5.1575   -4.6012   -2.6604 H   0  0  0  0  0  0  0  0  0  0  0  0
   -5.2997   -2.1370   -2.7041 H   0  0  0  0  0  0  0  0  0  0  0  0
   -7.0190    3.1313   -0.9114 H   0  0  0  0  0  0  0  0  0  0  0  0
   -5.8156    5.2644   -0.8777 H   0  0  0  0  0  0  0  0  0  0  0  0
   -2.9436    7.5176   -0.8374 H   0  0  0  0  0  0  0  0  0  0  0  0
   -4.3427    6.8816    0.0363 H   0  0  0  0  0  0  0  0  0  0  0  0
   -4.2914    6.8548   -1.7699 H   0  0  0  0  0  0  0  0  0  0  0  0
   -2.0573    3.1749   -0.7866 H   0  0  0  0  0  0  0  0  0  0  0  0
   -1.5985    1.0200    1.2326 H   0  0  0  0  0  0  0  0  0  0  0  0
    0.7587    0.4067    1.3669 H   0  0  0  0  0  0  0  0  0  0  0  0
    2.9713    0.5201    0.5527 H   0  0  0  0  0  0  0  0  0  0  0  0
    2.5933   -1.0345    1.3744 H   0  0  0  0  0  0  0  0  0  0  0  0
    4.2893   -2.1603   -0.0480 H   0  0  0  0  0  0  0  0  0  0  0  0
    4.7383   -0.6430   -0.7805 H   0  0  0  0  0  0  0  0  0  0  0  0
    6.1885    0.5718    2.4931 H   0  0  0  0  0  0  0  0  0  0  0  0
    4.7509    1.1128    1.6823 H   0  0  0  0  0  0  0  0  0  0  0  0
    6.7992    2.1925    0.7748 H   0  0  0  0  0  0  0  0  0  0  0  0
    5.9732    1.2761   -0.4777 H   0  0  0  0  0  0  0  0  0  0  0  0
    8.4590    0.4543    1.0938 H   0  0  0  0  0  0  0  0  0  0  0  0
    8.3575    0.7891   -0.6333 H   0  0  0  0  0  0  0  0  0  0  0  0
    8.4157   -1.6731   -0.0719 H   0  0  0  0  0  0  0  0  0  0  0  0
    7.0103   -1.2053   -1.0197 H   0  0  0  0  0  0  0  0  0  0  0  0
    6.3335   -2.7095    0.8323 H   0  0  0  0  0  0  0  0  0  0  0  0
    7.1272   -1.6881    2.0024 H   0  0  0  0  0  0  0  0  0  0  0  0
    0.5203   -1.3873   -2.5467 H   0  0  0  0  0  0  0  0  0  0  0  0
   -1.8605   -0.7616   -2.6870 H   0  0  0  0  0  0  0  0  0  0  0  0
   -3.1974   -1.9410    1.0425 H   0  0  0  0  0  0  0  0  0  0  0  0
  1  2  1  0
  2  3  1  0
  3  4  2  0
  4  5  1  0
  5  6  2  0
  6  7  1  0
  7  8  1  0
  8  9  1  0
  9 10  1  0
 10 11  2  0
 11 12  1  0
 12 13  2  0
 13 14  1  0
 14 15  1  0
 13 16  1  0
 16 17  2  0
 17 18  1  0
 18 19  1  0
 19 20  2  0
 20 21  1  0
 21 22  2  0
 22 23  1  0
 23 24  1  0
 24 25  1  0
 25 26  1  0
 26 27  1  0
 27 28  1  0
 28 29  1  0
 29 30  1  0
 30 31  1  0
 22 32  1  0
 32 33  2  0
  7 34  2  0
 34  3  1  0
 18  8  2  0
 33 19  1  0
 17 10  1  0
 31 26  1  0
  1 35  1  0
  1 36  1  0
  1 37  1  0
  4 38  1  0
  5 39  1  0
  6 40  1  0
 11 41  1  0
 12 42  1  0
 15 43  1  0
 15 44  1  0
 15 45  1  0
 16 46  1  0
 20 47  1  0
 21 48  1  0
 24 49  1  0
 24 50  1  0
 25 51  1  0
 25 52  1  0
 27 53  1  0
 27 54  1  0
 28 55  1  0
 28 56  1  0
 29 57  1  0
 29 58  1  0
 30 59  1  0
 30 60  1  0
 31 61  1  0
 31 62  1  0
 32 63  1  0
 33 64  1  0
 34 65  1  0
M  END
$$$$
