
     RDKit          3D

 39 41  0  0  0  0  0  0  0  0999 V2000
   -1.3050   -0.2031   -2.3691 C   0  0  0  0  0  0  0  0  0  0  0  0
   -1.3286   -1.0950   -1.2605 O   0  0  0  0  0  0  0  0  0  0  0  0
   -2.3256   -0.9202   -0.3329 C   0  0  0  0  0  0  0  0  0  0  0  0
   -3.3584    0.0177   -0.4245 C   0  0  0  0  0  0  0  0  0  0  0  0
   -4.3343    0.1086    0.5821 C   0  0  0  0  0  0  0  0  0  0  0  0
   -5.4556    1.1024    0.4773 C   0  0  0  0  0  0  0  0  0  0  0  0
   -4.2844   -0.7710    1.6700 C   0  0  0  0  0  0  0  0  0  0  0  0
   -3.2574   -1.7096    1.7720 C   0  0  0  0  0  0  0  0  0  0  0  0
   -2.2677   -1.7637    0.7898 C   0  0  0  0  0  0  0  0  0  0  0  0
   -1.2589   -2.6953    0.8534 O   0  0  0  0  0  0  0  0  0  0  0  0
   -0.4054   -2.5289    1.9809 C   0  0  0  0  0  0  0  0  0  0  0  0
    0.7349   -1.5130    1.8069 C   0  0  0  0  0  0  0  0  0  0  0  0
    1.3582   -1.1149    2.7885 O   0  0  0  0  0  0  0  0  0  0  0  0
    0.9648   -1.1771    0.4950 N   0  0  0  0  0  0  0  0  0  0  0  0
    1.8896   -0.2905    0.0090 C   0  0  0  0  0  0  0  0  0  0  0  0
    1.9686    0.0133   -1.2692 N   0  0  0  0  0  0  0  0  0  0  0  0
    2.9701    0.9295   -1.5270 N   0  0  0  0  0  0  0  0  0  0  0  0
    3.6055    1.2640   -0.4267 C   0  0  0  0  0  0  0  0  0  0  0  0
    4.7747    2.2950   -0.4231 C   0  0  0  0  0  0  0  0  0  0  0  0
    5.8394    2.2060   -1.4874 C   0  0  0  0  0  0  0  0  0  0  0  0
    6.1661    1.8331   -0.0705 C   0  0  0  0  0  0  0  0  0  0  0  0
    3.0298    0.5097    0.9913 S   0  0  0  0  0  0  0  0  0  0  0  0
   -0.4348   -0.4595   -2.9827 H   0  0  0  0  0  0  0  0  0  0  0  0
   -1.1852    0.8337   -2.0393 H   0  0  0  0  0  0  0  0  0  0  0  0
   -2.1987   -0.3217   -2.9886 H   0  0  0  0  0  0  0  0  0  0  0  0
   -3.4293    0.6904   -1.2739 H   0  0  0  0  0  0  0  0  0  0  0  0
   -6.3874    0.5921    0.2149 H   0  0  0  0  0  0  0  0  0  0  0  0
   -5.5896    1.6272    1.4290 H   0  0  0  0  0  0  0  0  0  0  0  0
   -5.2475    1.8588   -0.2865 H   0  0  0  0  0  0  0  0  0  0  0  0
   -5.0519   -0.7336    2.4403 H   0  0  0  0  0  0  0  0  0  0  0  0
   -3.2482   -2.4019    2.6084 H   0  0  0  0  0  0  0  0  0  0  0  0
    0.0708   -3.4999    2.1585 H   0  0  0  0  0  0  0  0  0  0  0  0
   -0.9599   -2.2751    2.8925 H   0  0  0  0  0  0  0  0  0  0  0  0
    0.3196   -1.5336   -0.2083 H   0  0  0  0  0  0  0  0  0  0  0  0
    4.4809    3.2894   -0.1059 H   0  0  0  0  0  0  0  0  0  0  0  0
    5.7696    1.4111   -2.2229 H   0  0  0  0  0  0  0  0  0  0  0  0
    6.2442    3.1333   -1.8782 H   0  0  0  0  0  0  0  0  0  0  0  0
    6.3365    0.7841    0.1431 H   0  0  0  0  0  0  0  0  0  0  0  0
    6.7911    2.5080    0.5020 H   0  0  0  0  0  0  0  0  0  0  0  0
  1  2  1  0
  2  3  1  0
  3  4  2  0
  4  5  1  0
  5  6  1  0
  5  7  2  0
  7  8  1  0
  8  9  2  0
  9 10  1  0
 10 11  1  0
 11 12  1  0
 12 13  2  0
 12 14  1  0
 14 15  1  0
 15 16  2  0
 16 17  1  0
 17 18  2  0
 18 19  1  0
 19 20  1  0
 20 21  1  0
 18 22  1  0
  9  3  1  0
 22 15  1  0
 21 19  1  0
  1 23  1  0
  1 24  1  0
  1 25  1  0
  4 26  1  0
  6 27  1  0
  6 28  1  0
  6 29  1  0
  7 30  1  0
  8 31  1  0
 11 32  1  0
 11 33  1  0
 14 34  1  0
 19 35  1  0
 20 36  1  0
 20 37  1  0
 21 38  1  0
 21 39  1  0
M  END
$$$$
