
     RDKit          3D

 59 62  0  0  0  0  0  0  0  0999 V2000
   -6.4733   -4.0353   -1.6901 C   0  0  0  0  0  0  0  0  0  0  0  0
   -6.1037   -2.8710   -2.5912 C   0  0  0  0  0  0  0  0  0  0  0  0
   -5.8620   -1.6493   -1.8394 N   0  0  0  0  0  0  0  0  0  0  0  0
   -6.8369   -0.7283   -1.5047 C   0  0  0  0  0  0  0  0  0  0  0  0
   -8.2199   -0.7102   -1.7548 C   0  0  0  0  0  0  0  0  0  0  0  0
   -8.9646    0.3730   -1.2772 C   0  0  0  0  0  0  0  0  0  0  0  0
   -8.3538    1.4064   -0.5756 C   0  0  0  0  0  0  0  0  0  0  0  0
   -6.9766    1.3813   -0.3319 C   0  0  0  0  0  0  0  0  0  0  0  0
   -6.2025    0.2973   -0.8011 C   0  0  0  0  0  0  0  0  0  0  0  0
   -4.8138   -0.0308   -0.7166 C   0  0  0  0  0  0  0  0  0  0  0  0
   -3.6954    0.6087   -0.1359 C   0  0  0  0  0  0  0  0  0  0  0  0
   -2.4228    0.0196   -0.2046 C   0  0  0  0  0  0  0  0  0  0  0  0
   -1.3615    0.7283    0.3993 N   0  0  0  0  0  0  0  0  0  0  0  0
   -0.0273    0.3504    0.4898 C   0  0  0  0  0  0  0  0  0  0  0  0
    0.4578   -0.6849    0.0415 O   0  0  0  0  0  0  0  0  0  0  0  0
    0.8367    1.3979    1.2205 C   0  0  0  0  0  0  0  0  0  0  0  0
    0.4535    1.4777    2.6951 C   0  0  0  0  0  0  0  0  0  0  0  0
    2.2178    1.0182    1.1246 O   0  0  0  0  0  0  0  0  0  0  0  0
    3.1112    2.0333    1.0969 C   0  0  0  0  0  0  0  0  0  0  0  0
    2.8434    3.2211    1.1798 O   0  0  0  0  0  0  0  0  0  0  0  0
    4.4946    1.5024    0.9574 C   0  0  0  0  0  0  0  0  0  0  0  0
    5.5570    2.4125    0.9310 C   0  0  0  0  0  0  0  0  0  0  0  0
    6.8786    1.9641    0.8048 C   0  0  0  0  0  0  0  0  0  0  0  0
    7.1565    0.6006    0.7059 C   0  0  0  0  0  0  0  0  0  0  0  0
    8.4579    0.0637    0.5880 N   0  0  0  0  0  0  0  0  0  0  0  0
    9.6475    0.7644    0.4754 C   0  0  0  0  0  0  0  0  0  0  0  0
    9.7686    1.9843    0.4137 O   0  0  0  0  0  0  0  0  0  0  0  0
   10.8684   -0.1258    0.4141 C   0  0  0  0  0  0  0  0  0  0  0  0
   11.4042   -0.3313    1.7581 C   0  0  0  0  0  0  0  0  0  0  0  0
   11.8291   -0.5397    2.8182 N   0  0  0  0  0  0  0  0  0  0  0  0
    6.0905   -0.3091    0.7297 C   0  0  0  0  0  0  0  0  0  0  0  0
    4.7683    0.1351    0.8519 C   0  0  0  0  0  0  0  0  0  0  0  0
   -2.2747   -1.2053   -0.8490 C   0  0  0  0  0  0  0  0  0  0  0  0
   -3.3662   -1.8604   -1.4350 C   0  0  0  0  0  0  0  0  0  0  0  0
   -4.6278   -1.2526   -1.3613 C   0  0  0  0  0  0  0  0  0  0  0  0
   -7.4109   -3.8424   -1.1597 H   0  0  0  0  0  0  0  0  0  0  0  0
   -5.6969   -4.2197   -0.9423 H   0  0  0  0  0  0  0  0  0  0  0  0
   -6.6009   -4.9469   -2.2819 H   0  0  0  0  0  0  0  0  0  0  0  0
   -6.9011   -2.6753   -3.3156 H   0  0  0  0  0  0  0  0  0  0  0  0
   -5.2041   -3.0999   -3.1702 H   0  0  0  0  0  0  0  0  0  0  0  0
   -8.7109   -1.5112   -2.2978 H   0  0  0  0  0  0  0  0  0  0  0  0
  -10.0371    0.4062   -1.4569 H   0  0  0  0  0  0  0  0  0  0  0  0
   -8.9510    2.2401   -0.2102 H   0  0  0  0  0  0  0  0  0  0  0  0
   -6.5086    2.1919    0.2189 H   0  0  0  0  0  0  0  0  0  0  0  0
   -3.8457    1.5590    0.3665 H   0  0  0  0  0  0  0  0  0  0  0  0
   -1.6127    1.6237    0.8005 H   0  0  0  0  0  0  0  0  0  0  0  0
    0.6644    2.3603    0.7211 H   0  0  0  0  0  0  0  0  0  0  0  0
    1.1118    2.1710    3.2310 H   0  0  0  0  0  0  0  0  0  0  0  0
    0.5614    0.4982    3.1772 H   0  0  0  0  0  0  0  0  0  0  0  0
   -0.5810    1.8105    2.8297 H   0  0  0  0  0  0  0  0  0  0  0  0
    5.3667    3.4830    1.0057 H   0  0  0  0  0  0  0  0  0  0  0  0
    7.6645    2.7132    0.7992 H   0  0  0  0  0  0  0  0  0  0  0  0
    8.5060   -0.9484    0.5822 H   0  0  0  0  0  0  0  0  0  0  0  0
   11.6102    0.3526   -0.2337 H   0  0  0  0  0  0  0  0  0  0  0  0
   10.6144   -1.0851   -0.0520 H   0  0  0  0  0  0  0  0  0  0  0  0
    6.2668   -1.3783    0.6439 H   0  0  0  0  0  0  0  0  0  0  0  0
    3.9644   -0.5987    0.8590 H   0  0  0  0  0  0  0  0  0  0  0  0
   -1.3085   -1.6930   -0.9268 H   0  0  0  0  0  0  0  0  0  0  0  0
   -3.2198   -2.8167   -1.9283 H   0  0  0  0  0  0  0  0  0  0  0  0
  1  2  1  0
  2  3  1  0
  3  4  1  0
  4  5  2  0
  5  6  1  0
  6  7  2  0
  7  8  1  0
  8  9  2  0
  9 10  1  0
 10 11  2  0
 11 12  1  0
 12 13  1  0
 13 14  1  0
 14 15  2  0
 14 16  1  0
 16 17  1  0
 16 18  1  0
 18 19  1  0
 19 20  2  0
 19 21  1  0
 21 22  2  0
 22 23  1  0
 23 24  2  0
 24 25  1  0
 25 26  1  0
 26 27  2  0
 26 28  1  0
 28 29  1  0
 29 30  3  0
 24 31  1  0
 31 32  2  0
 12 33  2  0
 33 34  1  0
 34 35  2  0
 35  3  1  0
  9  4  1  0
 35 10  1  0
 32 21  1  0
  1 36  1  0
  1 37  1  0
  1 38  1  0
  2 39  1  0
  2 40  1  0
  5 41  1  0
  6 42  1  0
  7 43  1  0
  8 44  1  0
 11 45  1  0
 13 46  1  0
 16 47  1  0
 17 48  1  0
 17 49  1  0
 17 50  1  0
 22 51  1  0
 23 52  1  0
 25 53  1  0
 28 54  1  0
 28 55  1  0
 31 56  1  0
 32 57  1  0
 33 58  1  0
 34 59  1  0
M  END
$$$$
