
     RDKit          3D

 35 36  0  0  0  0  0  0  0  0999 V2000
    2.6030   -1.8508   -0.0858 C   0  0  0  0  0  0  0  0  0  0  0  0
    2.4757   -0.4086    0.1238 N   0  0  0  0  0  0  0  0  0  0  0  0
    1.0644    0.0123    0.1827 C   0  0  0  0  0  0  0  0  0  0  0  0
    0.2543   -0.1350   -1.1154 C   0  0  0  0  0  0  0  0  0  0  0  0
   -1.1784    0.3718   -0.9441 C   0  0  0  0  0  0  0  0  0  0  0  0
   -1.8437   -0.4504    0.0118 O   0  0  0  0  0  0  0  0  0  0  0  0
   -3.1364   -0.1425    0.3419 C   0  0  0  0  0  0  0  0  0  0  0  0
   -3.8808    0.8877   -0.2422 C   0  0  0  0  0  0  0  0  0  0  0  0
   -5.1995    1.1234    0.1621 C   0  0  0  0  0  0  0  0  0  0  0  0
   -5.7794    0.3305    1.1499 C   0  0  0  0  0  0  0  0  0  0  0  0
   -7.4012    0.6283    1.6394 Cl  0  0  0  0  0  0  0  0  0  0  0  0
   -5.0561   -0.6994    1.7408 C   0  0  0  0  0  0  0  0  0  0  0  0
   -3.7398   -0.9335    1.3362 C   0  0  0  0  0  0  0  0  0  0  0  0
   -2.8785   -2.2256    2.1001 Cl  0  0  0  0  0  0  0  0  0  0  0  0
    3.2525    0.3687   -0.8512 C   0  0  0  0  0  0  0  0  0  0  0  0
    4.7170    0.2865   -0.5451 C   0  0  0  0  0  0  0  0  0  0  0  0
    5.3234    1.0863    0.5769 C   0  0  0  0  0  0  0  0  0  0  0  0
    5.4516    1.4947   -0.7934 O   0  0  0  0  0  0  0  0  0  0  0  0
    1.9967   -2.4034    0.6409 H   0  0  0  0  0  0  0  0  0  0  0  0
    3.6358   -2.1789    0.0709 H   0  0  0  0  0  0  0  0  0  0  0  0
    2.2991   -2.1580   -1.0921 H   0  0  0  0  0  0  0  0  0  0  0  0
    0.5720   -0.5442    0.9905 H   0  0  0  0  0  0  0  0  0  0  0  0
    1.0343    1.0616    0.5045 H   0  0  0  0  0  0  0  0  0  0  0  0
    0.7259    0.4290   -1.9272 H   0  0  0  0  0  0  0  0  0  0  0  0
    0.2213   -1.1896   -1.4114 H   0  0  0  0  0  0  0  0  0  0  0  0
   -1.1611    1.4155   -0.6079 H   0  0  0  0  0  0  0  0  0  0  0  0
   -1.6906    0.3030   -1.9111 H   0  0  0  0  0  0  0  0  0  0  0  0
   -3.4684    1.5260   -1.0172 H   0  0  0  0  0  0  0  0  0  0  0  0
   -5.7679    1.9275   -0.2997 H   0  0  0  0  0  0  0  0  0  0  0  0
   -5.5106   -1.3167    2.5106 H   0  0  0  0  0  0  0  0  0  0  0  0
    3.0719    0.0288   -1.8782 H   0  0  0  0  0  0  0  0  0  0  0  0
    2.9481    1.4228   -0.8083 H   0  0  0  0  0  0  0  0  0  0  0  0
    5.1775   -0.6462   -0.8380 H   0  0  0  0  0  0  0  0  0  0  0  0
    6.2032    0.6911    1.0680 H   0  0  0  0  0  0  0  0  0  0  0  0
    4.6647    1.6597    1.2171 H   0  0  0  0  0  0  0  0  0  0  0  0
  1  2  1  0
  2  3  1  0
  3  4  1  0
  4  5  1  0
  5  6  1  0
  6  7  1  0
  7  8  2  0
  8  9  1  0
  9 10  2  0
 10 11  1  0
 10 12  1  0
 12 13  2  0
 13 14  1  0
  2 15  1  0
 15 16  1  0
 16 17  1  0
 17 18  1  0
 13  7  1  0
 18 16  1  0
  1 19  1  0
  1 20  1  0
  1 21  1  0
  3 22  1  0
  3 23  1  0
  4 24  1  0
  4 25  1  0
  5 26  1  0
  5 27  1  0
  8 28  1  0
  9 29  1  0
 12 30  1  0
 15 31  1  0
 15 32  1  0
 16 33  1  0
 17 34  1  0
 17 35  1  0
M  END
$$$$
