
     RDKit          3D

 48 51  0  0  0  0  0  0  0  0999 V2000
    6.7282    1.4677   -2.4072 C   0  0  0  0  0  0  0  0  0  0  0  0
    5.9211    0.5300   -1.6077 C   0  0  0  0  0  0  0  0  0  0  0  0
    4.5771    0.2856   -1.4776 C   0  0  0  0  0  0  0  0  0  0  0  0
    4.4891   -0.7737   -0.5300 C   0  0  0  0  0  0  0  0  0  0  0  0
    3.2967   -1.4522   -0.0033 C   0  0  0  0  0  0  0  0  0  0  0  0
    3.3421   -2.4968    0.6416 O   0  0  0  0  0  0  0  0  0  0  0  0
    2.0957   -0.8192   -0.2737 N   0  0  0  0  0  0  0  0  0  0  0  0
    0.8553   -1.3115    0.2906 C   0  0  0  0  0  0  0  0  0  0  0  0
    0.7192   -0.8872    1.7730 C   0  0  0  0  0  0  0  0  0  0  0  0
   -0.7400   -0.9416    2.3134 C   0  0  0  0  0  0  0  0  0  0  0  0
   -1.2700   -2.3901    2.2984 C   0  0  0  0  0  0  0  0  0  0  0  0
   -0.7469   -0.4492    3.7732 C   0  0  0  0  0  0  0  0  0  0  0  0
   -1.6678   -0.0123    1.4681 C   0  0  0  0  0  0  0  0  0  0  0  0
   -1.3968   -0.1568    0.0061 C   0  0  0  0  0  0  0  0  0  0  0  0
   -0.2670   -0.7590   -0.5198 C   0  0  0  0  0  0  0  0  0  0  0  0
   -0.4975   -0.8016   -1.8984 C   0  0  0  0  0  0  0  0  0  0  0  0
   -1.6492   -0.2294   -2.2364 N   0  0  0  0  0  0  0  0  0  0  0  0
   -2.1980    0.2147   -1.0671 N   0  0  0  0  0  0  0  0  0  0  0  0
   -3.4244    0.9501   -1.1197 C   0  0  0  0  0  0  0  0  0  0  0  0
   -4.1385    0.9842   -2.3350 C   0  0  0  0  0  0  0  0  0  0  0  0
   -5.3410    1.6880   -2.4401 C   0  0  0  0  0  0  0  0  0  0  0  0
   -5.8311    2.3688   -1.3362 C   0  0  0  0  0  0  0  0  0  0  0  0
   -6.9817    3.0470   -1.4324 F   0  0  0  0  0  0  0  0  0  0  0  0
   -5.1375    2.3632   -0.1331 C   0  0  0  0  0  0  0  0  0  0  0  0
   -3.9324    1.6585   -0.0227 C   0  0  0  0  0  0  0  0  0  0  0  0
    5.7203   -1.1339   -0.1286 N   0  0  0  0  0  0  0  0  0  0  0  0
    6.6064   -0.3168   -0.7992 O   0  0  0  0  0  0  0  0  0  0  0  0
    6.0894    2.1144   -3.0168 H   0  0  0  0  0  0  0  0  0  0  0  0
    7.3986    0.9215   -3.0779 H   0  0  0  0  0  0  0  0  0  0  0  0
    7.3343    2.1047   -1.7557 H   0  0  0  0  0  0  0  0  0  0  0  0
    3.7805    0.7887   -2.0037 H   0  0  0  0  0  0  0  0  0  0  0  0
    2.1081    0.1324   -0.6097 H   0  0  0  0  0  0  0  0  0  0  0  0
    0.8443   -2.4062    0.2214 H   0  0  0  0  0  0  0  0  0  0  0  0
    1.3779   -1.5117    2.3908 H   0  0  0  0  0  0  0  0  0  0  0  0
    1.0922    0.1415    1.8881 H   0  0  0  0  0  0  0  0  0  0  0  0
   -0.6122   -3.0532    2.8716 H   0  0  0  0  0  0  0  0  0  0  0  0
   -2.2685   -2.4464    2.7469 H   0  0  0  0  0  0  0  0  0  0  0  0
   -1.3472   -2.7964    1.2852 H   0  0  0  0  0  0  0  0  0  0  0  0
   -1.7614   -0.4549    4.1873 H   0  0  0  0  0  0  0  0  0  0  0  0
   -0.3622    0.5740    3.8492 H   0  0  0  0  0  0  0  0  0  0  0  0
   -0.1219   -1.0866    4.4087 H   0  0  0  0  0  0  0  0  0  0  0  0
   -1.4774    1.0316    1.7472 H   0  0  0  0  0  0  0  0  0  0  0  0
   -2.7132   -0.2468    1.6976 H   0  0  0  0  0  0  0  0  0  0  0  0
    0.1212   -1.2338   -2.6751 H   0  0  0  0  0  0  0  0  0  0  0  0
   -3.7732    0.4542   -3.2140 H   0  0  0  0  0  0  0  0  0  0  0  0
   -5.8916    1.7063   -3.3752 H   0  0  0  0  0  0  0  0  0  0  0  0
   -5.5342    2.9166    0.7128 H   0  0  0  0  0  0  0  0  0  0  0  0
   -3.4150    1.7234    0.9247 H   0  0  0  0  0  0  0  0  0  0  0  0
  1  2  1  0
  2  3  2  0
  3  4  1  0
  4  5  1  0
  5  6  2  0
  5  7  1  0
  7  8  1  0
  8  9  1  0
  9 10  1  0
 10 11  1  0
 10 12  1  0
 10 13  1  0
 13 14  1  0
 14 15  2  0
 15 16  1  0
 16 17  2  0
 17 18  1  0
 18 19  1  0
 19 20  2  0
 20 21  1  0
 21 22  2  0
 22 23  1  0
 22 24  1  0
 24 25  2  0
  4 26  2  0
 26 27  1  0
 27  2  1  0
 15  8  1  0
 25 19  1  0
 18 14  1  0
  1 28  1  0
  1 29  1  0
  1 30  1  0
  3 31  1  0
  7 32  1  0
  8 33  1  0
  9 34  1  0
  9 35  1  0
 11 36  1  0
 11 37  1  0
 11 38  1  0
 12 39  1  0
 12 40  1  0
 12 41  1  0
 13 42  1  0
 13 43  1  0
 16 44  1  0
 20 45  1  0
 21 46  1  0
 24 47  1  0
 25 48  1  0
M  END
$$$$
