
     RDKit          3D

 65 68  0  0  0  0  0  0  0  0999 V2000
    7.8130    1.7807    2.6323 C   0  0  0  0  0  0  0  0  0  0  0  0
    6.4894    1.2525    3.0023 C   0  0  0  0  0  0  0  0  0  0  0  0
    5.4256    0.7486    2.2965 C   0  0  0  0  0  0  0  0  0  0  0  0
    4.4692    0.4195    3.2814 C   0  0  0  0  0  0  0  0  0  0  0  0
    3.2116   -0.1219    3.1363 N   0  0  0  0  0  0  0  0  0  0  0  0
    2.6260   -0.4628    1.9383 C   0  0  0  0  0  0  0  0  0  0  0  0
    3.1368   -0.3408    0.8302 O   0  0  0  0  0  0  0  0  0  0  0  0
    1.2300   -1.0186    2.1355 C   0  0  0  0  0  0  0  0  0  0  0  0
    0.5731   -1.3909    0.8082 C   0  0  0  0  0  0  0  0  0  0  0  0
   -0.8765   -1.7931    1.0086 C   0  0  0  0  0  0  0  0  0  0  0  0
   -1.2754   -2.0882    2.1384 O   0  0  0  0  0  0  0  0  0  0  0  0
   -1.7265   -1.8328   -0.0911 N   0  0  0  0  0  0  0  0  0  0  0  0
   -3.0976   -2.3037    0.1296 C   0  0  0  0  0  0  0  0  0  0  0  0
   -4.0677   -1.1609    0.0621 C   0  0  0  0  0  0  0  0  0  0  0  0
   -4.8725   -0.7789   -0.9948 C   0  0  0  0  0  0  0  0  0  0  0  0
   -5.6803    0.3521   -0.6813 C   0  0  0  0  0  0  0  0  0  0  0  0
   -5.4681    0.7974    0.6034 C   0  0  0  0  0  0  0  0  0  0  0  0
   -4.3050   -0.1462    1.4249 S   0  0  0  0  0  0  0  0  0  0  0  0
   -1.3450   -1.5101   -1.4959 C   0  0  0  0  0  0  0  0  0  0  0  0
   -1.1465    0.0119   -1.7776 C   0  0  0  0  0  0  0  0  0  0  0  0
   -0.7826    0.4465   -2.8699 O   0  0  0  0  0  0  0  0  0  0  0  0
   -1.4446    0.8546   -0.7221 N   0  0  0  0  0  0  0  0  0  0  0  0
   -1.3688    2.2913   -0.8546 C   0  0  0  0  0  0  0  0  0  0  0  0
   -2.5664    2.8953   -1.5821 C   0  0  0  0  0  0  0  0  0  0  0  0
   -2.6088    4.3525   -1.1268 C   0  0  0  0  0  0  0  0  0  0  0  0
   -1.7318    4.4402    0.1222 C   0  0  0  0  0  0  0  0  0  0  0  0
   -1.3991    3.0021    0.4921 C   0  0  0  0  0  0  0  0  0  0  0  0
   -0.2733   -2.4537   -2.0427 C   0  0  0  0  0  0  0  0  0  0  0  0
   -0.5516   -3.8320   -2.1222 C   0  0  0  0  0  0  0  0  0  0  0  0
    0.3993   -4.7343   -2.6045 C   0  0  0  0  0  0  0  0  0  0  0  0
    1.6469   -4.2769   -3.0163 C   0  0  0  0  0  0  0  0  0  0  0  0
    1.9426   -2.9187   -2.9468 C   0  0  0  0  0  0  0  0  0  0  0  0
    0.9915   -2.0144   -2.4662 C   0  0  0  0  0  0  0  0  0  0  0  0
    4.9258    0.7067    4.5057 N   0  0  0  0  0  0  0  0  0  0  0  0
    6.1943    1.2277    4.3281 O   0  0  0  0  0  0  0  0  0  0  0  0
    8.5993    1.0770    2.9223 H   0  0  0  0  0  0  0  0  0  0  0  0
    8.0024    2.7355    3.1328 H   0  0  0  0  0  0  0  0  0  0  0  0
    7.8821    1.9448    1.5525 H   0  0  0  0  0  0  0  0  0  0  0  0
    5.3560    0.6363    1.2252 H   0  0  0  0  0  0  0  0  0  0  0  0
    2.7215   -0.2638    4.0096 H   0  0  0  0  0  0  0  0  0  0  0  0
    1.2934   -1.8991    2.7860 H   0  0  0  0  0  0  0  0  0  0  0  0
    0.6309   -0.2577    2.6509 H   0  0  0  0  0  0  0  0  0  0  0  0
    1.1104   -2.2410    0.3768 H   0  0  0  0  0  0  0  0  0  0  0  0
    0.6444   -0.5419    0.1273 H   0  0  0  0  0  0  0  0  0  0  0  0
   -3.1941   -2.8206    1.0909 H   0  0  0  0  0  0  0  0  0  0  0  0
   -3.3339   -3.0510   -0.6370 H   0  0  0  0  0  0  0  0  0  0  0  0
   -4.8878   -1.2867   -1.9525 H   0  0  0  0  0  0  0  0  0  0  0  0
   -6.3824    0.8157   -1.3641 H   0  0  0  0  0  0  0  0  0  0  0  0
   -5.9436    1.6309    1.1025 H   0  0  0  0  0  0  0  0  0  0  0  0
   -2.2309   -1.7302   -2.1113 H   0  0  0  0  0  0  0  0  0  0  0  0
   -2.0173    0.4699    0.0228 H   0  0  0  0  0  0  0  0  0  0  0  0
   -0.4460    2.5462   -1.3916 H   0  0  0  0  0  0  0  0  0  0  0  0
   -3.4947    2.3930   -1.2871 H   0  0  0  0  0  0  0  0  0  0  0  0
   -2.4825    2.8060   -2.6701 H   0  0  0  0  0  0  0  0  0  0  0  0
   -3.6380    4.6600   -0.9143 H   0  0  0  0  0  0  0  0  0  0  0  0
   -2.2233    5.0179   -1.9071 H   0  0  0  0  0  0  0  0  0  0  0  0
   -0.8117    4.9885   -0.1121 H   0  0  0  0  0  0  0  0  0  0  0  0
   -2.2316    4.9682    0.9400 H   0  0  0  0  0  0  0  0  0  0  0  0
   -0.4498    2.9190    1.0302 H   0  0  0  0  0  0  0  0  0  0  0  0
   -2.1840    2.5904    1.1383 H   0  0  0  0  0  0  0  0  0  0  0  0
   -1.5174   -4.2184   -1.8053 H   0  0  0  0  0  0  0  0  0  0  0  0
    0.1658   -5.7946   -2.6578 H   0  0  0  0  0  0  0  0  0  0  0  0
    2.3897   -4.9760   -3.3913 H   0  0  0  0  0  0  0  0  0  0  0  0
    2.9173   -2.5568   -3.2653 H   0  0  0  0  0  0  0  0  0  0  0  0
    1.2688   -0.9623   -2.4247 H   0  0  0  0  0  0  0  0  0  0  0  0
  1  2  1  0
  2  3  2  0
  3  4  1  0
  4  5  1  0
  5  6  1  0
  6  7  2  0
  6  8  1  0
  8  9  1  0
  9 10  1  0
 10 11  2  0
 10 12  1  0
 12 13  1  0
 13 14  1  0
 14 15  2  0
 15 16  1  0
 16 17  2  0
 17 18  1  0
 12 19  1  0
 19 20  1  0
 20 21  2  0
 20 22  1  0
 22 23  1  0
 23 24  1  0
 24 25  1  0
 25 26  1  0
 26 27  1  0
 19 28  1  0
 28 29  2  0
 29 30  1  0
 30 31  2  0
 31 32  1  0
 32 33  2  0
  4 34  2  0
 34 35  1  0
 35  2  1  0
 18 14  1  0
 27 23  1  0
 33 28  1  0
  1 36  1  0
  1 37  1  0
  1 38  1  0
  3 39  1  0
  5 40  1  0
  8 41  1  0
  8 42  1  0
  9 43  1  0
  9 44  1  0
 13 45  1  0
 13 46  1  0
 15 47  1  0
 16 48  1  0
 17 49  1  0
 19 50  1  0
 22 51  1  0
 23 52  1  0
 24 53  1  0
 24 54  1  0
 25 55  1  0
 25 56  1  0
 26 57  1  0
 26 58  1  0
 27 59  1  0
 27 60  1  0
 29 61  1  0
 30 62  1  0
 31 63  1  0
 32 64  1  0
 33 65  1  0
M  END
$$$$
