
     RDKit          3D

 62 65  0  0  0  0  0  0  0  0999 V2000
   -4.4357   -1.9609   -1.6878 C   0  0  0  0  0  0  0  0  0  0  0  0
   -4.1062   -2.2205   -0.2255 C   0  0  0  0  0  0  0  0  0  0  0  0
   -3.7268   -0.9852    0.4509 N   0  0  0  0  0  0  0  0  0  0  0  0
   -2.4558   -0.3819    0.5319 C   0  0  0  0  0  0  0  0  0  0  0  0
   -1.3239   -0.9147    0.0243 C   0  0  0  0  0  0  0  0  0  0  0  0
    0.0232   -0.3807    0.0675 C   0  0  0  0  0  0  0  0  0  0  0  0
    1.0633   -1.0202   -0.4868 C   0  0  0  0  0  0  0  0  0  0  0  0
    2.4748   -0.5485   -0.4933 C   0  0  0  0  0  0  0  0  0  0  0  0
    3.4684   -1.2435   -0.9761 N   0  0  0  0  0  4  0  0  0  0  0  0
    3.4909   -2.6091   -1.5432 C   0  0  0  0  0  0  0  0  0  0  0  0
    3.3045   -2.5470   -3.0475 C   0  0  0  0  0  0  0  0  0  0  0  0
    4.7193   -0.4716   -0.8776 C   0  0  0  0  0  0  0  0  0  0  0  0
    5.9927   -0.8199   -1.2959 C   0  0  0  0  0  0  0  0  0  0  0  0
    7.0185    0.1068   -1.0923 C   0  0  0  0  0  0  0  0  0  0  0  0
    6.7537    1.3450   -0.4868 C   0  0  0  0  0  0  0  0  0  0  0  0
    5.4608    1.6778   -0.0773 C   0  0  0  0  0  0  0  0  0  0  0  0
    4.4481    0.7524   -0.2829 C   0  0  0  0  0  0  0  0  0  0  0  0
    2.9760    0.8318    0.0452 C   0  0  0  0  0  0  0  0  0  0  0  0
    2.8082    0.9556    1.5637 C   0  0  0  0  0  0  0  0  0  0  0  0
    2.3463    2.0067   -0.7096 C   0  0  0  0  0  0  0  0  0  0  0  0
   -2.6165    0.9792    1.2947 C   0  0  0  0  0  0  0  0  0  0  0  0
   -2.2445    2.1925    0.4285 C   0  0  0  0  0  0  0  0  0  0  0  0
   -1.8787    0.9890    2.6414 C   0  0  0  0  0  0  0  0  0  0  0  0
   -4.1197    1.0035    1.5520 C   0  0  0  0  0  0  0  0  0  0  0  0
   -4.8820    1.9791    2.1859 C   0  0  0  0  0  0  0  0  0  0  0  0
   -6.2577    1.7820    2.2900 C   0  0  0  0  0  0  0  0  0  0  0  0
   -6.8483    0.6264    1.7640 C   0  0  0  0  0  0  0  0  0  0  0  0
   -6.0705   -0.3492    1.1296 C   0  0  0  0  0  0  0  0  0  0  0  0
   -4.7010   -0.1609    1.0264 C   0  0  0  0  0  0  0  0  0  0  0  0
   -5.2771   -1.2682   -1.7901 H   0  0  0  0  0  0  0  0  0  0  0  0
   -3.5800   -1.5276   -2.2159 H   0  0  0  0  0  0  0  0  0  0  0  0
   -4.7043   -2.8971   -2.1871 H   0  0  0  0  0  0  0  0  0  0  0  0
   -3.2940   -2.9537   -0.1625 H   0  0  0  0  0  0  0  0  0  0  0  0
   -4.9557   -2.7048    0.2695 H   0  0  0  0  0  0  0  0  0  0  0  0
   -1.4158   -1.8718   -0.4848 H   0  0  0  0  0  0  0  0  0  0  0  0
    0.1475    0.5621    0.5767 H   0  0  0  0  0  0  0  0  0  0  0  0
    0.8664   -1.9650   -0.9883 H   0  0  0  0  0  0  0  0  0  0  0  0
    4.4317   -3.0979   -1.2713 H   0  0  0  0  0  0  0  0  0  0  0  0
    2.6911   -3.1935   -1.0781 H   0  0  0  0  0  0  0  0  0  0  0  0
    2.3546   -2.0712   -3.3154 H   0  0  0  0  0  0  0  0  0  0  0  0
    4.1080   -1.9828   -3.5330 H   0  0  0  0  0  0  0  0  0  0  0  0
    3.3040   -3.5579   -3.4676 H   0  0  0  0  0  0  0  0  0  0  0  0
    6.2250   -1.7660   -1.7723 H   0  0  0  0  0  0  0  0  0  0  0  0
    8.0359   -0.1266   -1.4058 H   0  0  0  0  0  0  0  0  0  0  0  0
    7.5675    2.0547   -0.3372 H   0  0  0  0  0  0  0  0  0  0  0  0
    5.2698    2.6419    0.3883 H   0  0  0  0  0  0  0  0  0  0  0  0
    1.7630    1.0674    1.8602 H   0  0  0  0  0  0  0  0  0  0  0  0
    3.1966    0.0700    2.0813 H   0  0  0  0  0  0  0  0  0  0  0  0
    3.3430    1.8278    1.9577 H   0  0  0  0  0  0  0  0  0  0  0  0
    2.4334    1.8757   -1.7950 H   0  0  0  0  0  0  0  0  0  0  0  0
    2.8302    2.9561   -0.4525 H   0  0  0  0  0  0  0  0  0  0  0  0
    1.2832    2.1209   -0.4847 H   0  0  0  0  0  0  0  0  0  0  0  0
   -1.1731    2.2427    0.2200 H   0  0  0  0  0  0  0  0  0  0  0  0
   -2.7675    2.1726   -0.5355 H   0  0  0  0  0  0  0  0  0  0  0  0
   -2.5121    3.1339    0.9229 H   0  0  0  0  0  0  0  0  0  0  0  0
   -2.1532    0.1227    3.2558 H   0  0  0  0  0  0  0  0  0  0  0  0
   -0.7926    0.9735    2.5190 H   0  0  0  0  0  0  0  0  0  0  0  0
   -2.1196    1.8873    3.2222 H   0  0  0  0  0  0  0  0  0  0  0  0
   -4.4274    2.8769    2.5915 H   0  0  0  0  0  0  0  0  0  0  0  0
   -6.8780    2.5289    2.7802 H   0  0  0  0  0  0  0  0  0  0  0  0
   -7.9235    0.4859    1.8501 H   0  0  0  0  0  0  0  0  0  0  0  0
   -6.5586   -1.2311    0.7318 H   0  0  0  0  0  0  0  0  0  0  0  0
  1  2  1  0
  2  3  1  0
  3  4  1  0
  4  5  2  3
  5  6  1  0
  6  7  2  3
  7  8  1  0
  8  9  2  0
  9 10  1  0
 10 11  1  0
  9 12  1  0
 12 13  2  0
 13 14  1  0
 14 15  2  0
 15 16  1  0
 16 17  2  0
 17 18  1  0
 18 19  1  0
 18 20  1  0
  4 21  1  0
 21 22  1  0
 21 23  1  0
 21 24  1  0
 24 25  2  0
 25 26  1  0
 26 27  2  0
 27 28  1  0
 28 29  2  0
 29  3  1  0
 18  8  1  0
 29 24  1  0
 17 12  1  0
  1 30  1  0
  1 31  1  0
  1 32  1  0
  2 33  1  0
  2 34  1  0
  5 35  1  0
  6 36  1  0
  7 37  1  0
 10 38  1  0
 10 39  1  0
 11 40  1  0
 11 41  1  0
 11 42  1  0
 13 43  1  0
 14 44  1  0
 15 45  1  0
 16 46  1  0
 19 47  1  0
 19 48  1  0
 19 49  1  0
 20 50  1  0
 20 51  1  0
 20 52  1  0
 22 53  1  0
 22 54  1  0
 22 55  1  0
 23 56  1  0
 23 57  1  0
 23 58  1  0
 25 59  1  0
 26 60  1  0
 27 61  1  0
 28 62  1  0
M  CHG  1   9   1
M  END
$$$$
