
     RDKit          3D

 60 62  0  0  0  0  0  0  0  0999 V2000
   -8.7039    1.3424   -1.3082 C   0  0  0  0  0  0  0  0  0  0  0  0
   -7.8425    0.5426   -2.2737 C   0  0  0  0  0  0  0  0  0  0  0  0
   -6.4444    0.3390   -1.7495 C   0  0  0  0  0  0  0  0  0  0  0  0
   -6.1836   -0.6377   -0.7815 C   0  0  0  0  0  0  0  0  0  0  0  0
   -4.8886   -0.8258   -0.2834 C   0  0  0  0  0  0  0  0  0  0  0  0
   -3.8335   -0.0405   -0.7449 C   0  0  0  0  0  0  0  0  0  0  0  0
   -2.4998   -0.1679   -0.3101 N   0  0  0  0  0  0  0  0  0  0  0  0
   -1.9935   -1.0185    0.6619 C   0  0  0  0  0  0  0  0  0  0  0  0
   -2.6548   -1.8008    1.3365 O   0  0  0  0  0  0  0  0  0  0  0  0
   -0.4616   -0.8720    0.8301 C   0  0  0  0  0  0  0  0  0  0  0  0
   -0.1633    0.4755    1.3632 N   0  0  0  0  0  0  0  0  0  0  0  0
    0.3446    1.6925    0.3456 S   0  0  0  0  0  6  0  0  0  0  0  0
   -0.3675    1.5235   -0.9040 O   0  0  0  0  0  0  0  0  0  0  0  0
    0.2728    2.9196    1.1036 O   0  0  0  0  0  0  0  0  0  0  0  0
    2.0539    1.2878    0.1126 C   0  0  0  0  0  0  0  0  0  0  0  0
    2.4660    0.6512   -1.0706 C   0  0  0  0  0  0  0  0  0  0  0  0
    3.8136    0.3224   -1.2573 C   0  0  0  0  0  0  0  0  0  0  0  0
    4.7217    0.6455   -0.2605 C   0  0  0  0  0  0  0  0  0  0  0  0
    4.3057    1.2981    0.9028 C   0  0  0  0  0  0  0  0  0  0  0  0
    2.9749    1.6323    1.1074 C   0  0  0  0  0  0  0  0  0  0  0  0
    5.4595    1.5884    1.8075 C   0  0  0  0  0  0  0  0  0  0  0  0
    6.6162    0.8867    1.0852 C   0  0  0  0  0  0  0  0  0  0  0  0
    6.1075    0.4094   -0.2124 N   0  0  0  0  0  0  0  0  0  0  0  0
    6.8568   -0.2148   -1.1948 C   0  0  0  0  0  0  0  0  0  0  0  0
    8.3264   -0.3717   -0.8836 C   0  0  0  0  0  0  0  0  0  0  0  0
    6.4161   -0.6276   -2.2667 O   0  0  0  0  0  0  0  0  0  0  0  0
    0.2316   -1.9221    1.7312 C   0  0  0  0  0  0  0  0  0  0  0  0
   -0.2340   -1.9340    3.1913 C   0  0  0  0  0  0  0  0  0  0  0  0
    0.1394   -3.3275    1.1311 C   0  0  0  0  0  0  0  0  0  0  0  0
   -4.0939    0.9399   -1.7096 C   0  0  0  0  0  0  0  0  0  0  0  0
   -5.3872    1.1322   -2.2059 C   0  0  0  0  0  0  0  0  0  0  0  0
   -8.2693    2.3288   -1.1122 H   0  0  0  0  0  0  0  0  0  0  0  0
   -9.7045    1.4881   -1.7271 H   0  0  0  0  0  0  0  0  0  0  0  0
   -8.8125    0.8263   -0.3483 H   0  0  0  0  0  0  0  0  0  0  0  0
   -8.3045   -0.4343   -2.4649 H   0  0  0  0  0  0  0  0  0  0  0  0
   -7.8067    1.0568   -3.2418 H   0  0  0  0  0  0  0  0  0  0  0  0
   -6.9882   -1.2662   -0.4055 H   0  0  0  0  0  0  0  0  0  0  0  0
   -4.7416   -1.6009    0.4619 H   0  0  0  0  0  0  0  0  0  0  0  0
   -1.8333    0.4653   -0.7536 H   0  0  0  0  0  0  0  0  0  0  0  0
   -0.0238   -0.9796   -0.1708 H   0  0  0  0  0  0  0  0  0  0  0  0
   -0.6480    0.7854    2.2056 H   0  0  0  0  0  0  0  0  0  0  0  0
    1.7492    0.4059   -1.8516 H   0  0  0  0  0  0  0  0  0  0  0  0
    4.1213   -0.1754   -2.1726 H   0  0  0  0  0  0  0  0  0  0  0  0
    2.6596    2.1474    2.0106 H   0  0  0  0  0  0  0  0  0  0  0  0
    5.6366    2.6672    1.8716 H   0  0  0  0  0  0  0  0  0  0  0  0
    5.3081    1.1794    2.8111 H   0  0  0  0  0  0  0  0  0  0  0  0
    6.9698    0.0214    1.6578 H   0  0  0  0  0  0  0  0  0  0  0  0
    7.4638    1.5623    0.9283 H   0  0  0  0  0  0  0  0  0  0  0  0
    8.8011    0.6096   -0.8034 H   0  0  0  0  0  0  0  0  0  0  0  0
    8.8122   -0.9226   -1.6945 H   0  0  0  0  0  0  0  0  0  0  0  0
    8.4635   -0.9398    0.0400 H   0  0  0  0  0  0  0  0  0  0  0  0
    1.2999   -1.6629    1.7535 H   0  0  0  0  0  0  0  0  0  0  0  0
    0.3914   -2.6162    3.7790 H   0  0  0  0  0  0  0  0  0  0  0  0
   -0.1505   -0.9449    3.6494 H   0  0  0  0  0  0  0  0  0  0  0  0
   -1.2673   -2.2741    3.2973 H   0  0  0  0  0  0  0  0  0  0  0  0
    0.5249   -3.3391    0.1056 H   0  0  0  0  0  0  0  0  0  0  0  0
   -0.8894   -3.6980    1.1128 H   0  0  0  0  0  0  0  0  0  0  0  0
    0.7367   -4.0345    1.7163 H   0  0  0  0  0  0  0  0  0  0  0  0
   -3.2930    1.5708   -2.0880 H   0  0  0  0  0  0  0  0  0  0  0  0
   -5.5601    1.9056   -2.9505 H   0  0  0  0  0  0  0  0  0  0  0  0
  1  2  1  0
  2  3  1  0
  3  4  2  0
  4  5  1  0
  5  6  2  0
  6  7  1  0
  7  8  1  0
  8  9  2  0
  8 10  1  0
 10 11  1  0
 11 12  1  0
 12 13  2  0
 12 14  2  0
 12 15  1  0
 15 16  2  0
 16 17  1  0
 17 18  2  0
 18 19  1  0
 19 20  2  0
 19 21  1  0
 21 22  1  0
 22 23  1  0
 23 24  1  0
 24 25  1  0
 24 26  2  0
 10 27  1  0
 27 28  1  0
 27 29  1  0
  6 30  1  0
 30 31  2  0
 31  3  1  0
 20 15  1  0
 23 18  1  0
  1 32  1  0
  1 33  1  0
  1 34  1  0
  2 35  1  0
  2 36  1  0
  4 37  1  0
  5 38  1  0
  7 39  1  0
 10 40  1  0
 11 41  1  0
 16 42  1  0
 17 43  1  0
 20 44  1  0
 21 45  1  0
 21 46  1  0
 22 47  1  0
 22 48  1  0
 25 49  1  0
 25 50  1  0
 25 51  1  0
 27 52  1  0
 28 53  1  0
 28 54  1  0
 28 55  1  0
 29 56  1  0
 29 57  1  0
 29 58  1  0
 30 59  1  0
 31 60  1  0
M  END
$$$$
