
     RDKit          3D

 44 47  0  0  0  0  0  0  0  0999 V2000
   -6.6229   -0.8258    2.5798 C   0  0  0  0  0  0  0  0  0  0  0  0
   -5.1377   -1.0797    2.4004 C   0  0  0  0  0  0  0  0  0  0  0  0
   -4.7577   -0.5752    1.1210 O   0  0  0  0  0  0  0  0  0  0  0  0
   -3.4795   -0.8256    0.7010 C   0  0  0  0  0  0  0  0  0  0  0  0
   -2.4664   -1.3814    1.4849 C   0  0  0  0  0  0  0  0  0  0  0  0
   -1.1870   -1.5991    0.9512 C   0  0  0  0  0  0  0  0  0  0  0  0
   -0.8959   -1.2518   -0.3711 C   0  0  0  0  0  0  0  0  0  0  0  0
    0.4275   -1.4488   -0.9768 C   0  0  0  0  0  0  0  0  0  0  0  0
    1.6013   -0.9811   -0.5249 C   0  0  0  0  0  0  0  0  0  0  0  0
    1.8942   -0.0462    0.9318 S   0  0  0  0  0  0  0  0  0  0  0  0
    3.5477    0.0948    0.5040 C   0  0  0  0  0  0  0  0  0  0  0  0
    4.5893    0.6833    1.0124 N   0  0  0  0  0  0  0  0  0  0  0  0
    5.5587    0.4027    0.0593 C   0  0  0  0  0  0  0  0  0  0  0  0
    7.0243    0.9342    0.1850 C   0  0  0  0  0  0  0  0  0  0  0  0
    8.0353    0.7499   -0.7404 C   0  0  0  0  0  0  0  0  0  0  0  0
    9.1765    1.4186   -0.2356 C   0  0  0  0  0  0  0  0  0  0  0  0
    8.7988    1.9562    0.9730 C   0  0  0  0  0  0  0  0  0  0  0  0
    7.4972    1.6743    1.2339 O   0  0  0  0  0  0  0  0  0  0  0  0
    5.1380   -0.3371   -0.9908 N   0  0  0  0  0  0  0  0  0  0  0  0
    3.8468   -0.5158   -0.6605 N   0  0  0  0  0  0  0  0  0  0  0  0
    2.8434   -1.1753   -1.3384 C   0  0  0  0  0  0  0  0  0  0  0  0
    2.9991   -1.7571   -2.3974 O   0  0  0  0  0  0  0  0  0  0  0  0
   -1.9140   -0.7171   -1.1644 C   0  0  0  0  0  0  0  0  0  0  0  0
   -3.1812   -0.4842   -0.6230 C   0  0  0  0  0  0  0  0  0  0  0  0
   -4.1287    0.0471   -1.4630 O   0  0  0  0  0  0  0  0  0  0  0  0
   -4.2640    1.4560   -1.2303 C   0  0  0  0  0  0  0  0  0  0  0  0
   -4.6854    2.1114   -2.5352 C   0  0  0  0  0  0  0  0  0  0  0  0
   -6.9629   -1.1696    3.5607 H   0  0  0  0  0  0  0  0  0  0  0  0
   -7.1963   -1.3462    1.8071 H   0  0  0  0  0  0  0  0  0  0  0  0
   -6.8474    0.2402    2.4790 H   0  0  0  0  0  0  0  0  0  0  0  0
   -4.9524   -2.1590    2.4614 H   0  0  0  0  0  0  0  0  0  0  0  0
   -4.5845   -0.5576    3.1889 H   0  0  0  0  0  0  0  0  0  0  0  0
   -2.6347   -1.6543    2.5200 H   0  0  0  0  0  0  0  0  0  0  0  0
   -0.4269   -2.0443    1.5883 H   0  0  0  0  0  0  0  0  0  0  0  0
    0.4026   -1.9838   -1.9278 H   0  0  0  0  0  0  0  0  0  0  0  0
    7.9444    0.2136   -1.6768 H   0  0  0  0  0  0  0  0  0  0  0  0
   10.1516    1.4996   -0.6951 H   0  0  0  0  0  0  0  0  0  0  0  0
    9.3053    2.5491    1.7216 H   0  0  0  0  0  0  0  0  0  0  0  0
   -1.7328   -0.4564   -2.2042 H   0  0  0  0  0  0  0  0  0  0  0  0
   -3.3202    1.9102   -0.8993 H   0  0  0  0  0  0  0  0  0  0  0  0
   -5.0314    1.6313   -0.4662 H   0  0  0  0  0  0  0  0  0  0  0  0
   -4.7504    3.1984   -2.4257 H   0  0  0  0  0  0  0  0  0  0  0  0
   -5.6590    1.7293   -2.8607 H   0  0  0  0  0  0  0  0  0  0  0  0
   -3.9626    1.8722   -3.3261 H   0  0  0  0  0  0  0  0  0  0  0  0
  1  2  1  0
  2  3  1  0
  3  4  1  0
  4  5  2  0
  5  6  1  0
  6  7  2  0
  7  8  1  0
  8  9  2  3
  9 10  1  0
 10 11  1  0
 11 12  2  0
 12 13  1  0
 13 14  1  0
 14 15  2  0
 15 16  1  0
 16 17  2  0
 17 18  1  0
 13 19  2  0
 19 20  1  0
 20 21  1  0
 21 22  2  0
  7 23  1  0
 23 24  2  0
 24 25  1  0
 25 26  1  0
 26 27  1  0
 24  4  1  0
 21  9  1  0
 20 11  1  0
 18 14  1  0
  1 28  1  0
  1 29  1  0
  1 30  1  0
  2 31  1  0
  2 32  1  0
  5 33  1  0
  6 34  1  0
  8 35  1  0
 15 36  1  0
 16 37  1  0
 17 38  1  0
 23 39  1  0
 26 40  1  0
 26 41  1  0
 27 42  1  0
 27 43  1  0
 27 44  1  0
M  END
$$$$
