
     RDKit          3D

 39 41  0  0  0  0  0  0  0  0999 V2000
   -4.7492    1.2608   -2.3581 C   0  0  0  0  0  0  0  0  0  0  0  0
   -4.2216    1.0144   -0.9745 C   0  0  0  0  0  0  0  0  0  0  0  0
   -5.0982    0.9663    0.1131 C   0  0  0  0  0  0  0  0  0  0  0  0
   -4.6395    0.7069    1.4084 C   0  0  0  0  0  0  0  0  0  0  0  0
   -3.2690    0.4862    1.5806 C   0  0  0  0  0  0  0  0  0  0  0  0
   -2.5560    0.2141    2.7232 N   0  0  0  0  0  0  0  0  0  0  0  0
   -1.2146    0.0779    2.4454 C   0  0  0  0  0  0  0  0  0  0  0  0
   -0.2451   -0.1666    3.5451 C   0  0  0  0  0  0  0  0  0  0  0  0
   -1.0676    0.2347    1.0770 C   0  0  0  0  0  0  0  0  0  0  0  0
    0.1486    0.1780    0.3251 C   0  0  0  0  0  0  0  0  0  0  0  0
    1.1857   -0.6409    0.5677 C   0  0  0  0  0  0  0  0  0  0  0  0
    2.4061   -0.6763   -0.2446 C   0  0  0  0  0  0  0  0  0  0  0  0
    3.6402   -0.8114    0.3881 C   0  0  0  0  0  0  0  0  0  0  0  0
    4.8027   -0.8712   -0.3724 C   0  0  0  0  0  0  0  0  0  0  0  0
    4.7470   -0.8073   -1.7213 N   0  0  0  0  0  4  0  0  0  0  0  0
    5.9905   -0.8835   -2.5067 C   0  0  0  0  0  0  0  0  0  0  0  0
    3.5597   -0.7021   -2.3584 C   0  0  0  0  0  0  0  0  0  0  0  0
    2.3726   -0.6364   -1.6378 C   0  0  0  0  0  0  0  0  0  0  0  0
   -2.3601    0.5126    0.5258 C   0  0  0  0  0  0  0  0  0  0  0  0
   -2.8515    0.7731   -0.7735 C   0  0  0  0  0  0  0  0  0  0  0  0
   -5.6284    1.9130   -2.3306 H   0  0  0  0  0  0  0  0  0  0  0  0
   -5.0262    0.3116   -2.8270 H   0  0  0  0  0  0  0  0  0  0  0  0
   -3.9970    1.7570   -2.9803 H   0  0  0  0  0  0  0  0  0  0  0  0
   -6.1634    1.1335   -0.0393 H   0  0  0  0  0  0  0  0  0  0  0  0
   -5.3306    0.6771    2.2449 H   0  0  0  0  0  0  0  0  0  0  0  0
   -2.9693    0.1469    3.6433 H   0  0  0  0  0  0  0  0  0  0  0  0
   -0.6554    0.1378    4.5139 H   0  0  0  0  0  0  0  0  0  0  0  0
    0.0041   -1.2306    3.6033 H   0  0  0  0  0  0  0  0  0  0  0  0
    0.6771    0.4013    3.3874 H   0  0  0  0  0  0  0  0  0  0  0  0
    0.1920    0.8542   -0.5261 H   0  0  0  0  0  0  0  0  0  0  0  0
    1.1502   -1.3324    1.4062 H   0  0  0  0  0  0  0  0  0  0  0  0
    3.7056   -0.8621    1.4737 H   0  0  0  0  0  0  0  0  0  0  0  0
    5.7810   -0.9729    0.0892 H   0  0  0  0  0  0  0  0  0  0  0  0
    6.8087   -0.4504   -1.9255 H   0  0  0  0  0  0  0  0  0  0  0  0
    5.8649   -0.3158   -3.4322 H   0  0  0  0  0  0  0  0  0  0  0  0
    6.1792   -1.9387   -2.7190 H   0  0  0  0  0  0  0  0  0  0  0  0
    3.5688   -0.6775   -3.4446 H   0  0  0  0  0  0  0  0  0  0  0  0
    1.4268   -0.5680   -2.1723 H   0  0  0  0  0  0  0  0  0  0  0  0
   -2.1688    0.7867   -1.6173 H   0  0  0  0  0  0  0  0  0  0  0  0
  1  2  1  0
  2  3  2  0
  3  4  1  0
  4  5  2  0
  5  6  1  0
  6  7  1  0
  7  8  1  0
  7  9  2  0
  9 10  1  0
 10 11  2  3
 11 12  1  0
 12 13  2  0
 13 14  1  0
 14 15  2  0
 15 16  1  0
 15 17  1  0
 17 18  2  0
  9 19  1  0
 19 20  2  0
 20  2  1  0
 19  5  1  0
 18 12  1  0
  1 21  1  0
  1 22  1  0
  1 23  1  0
  3 24  1  0
  4 25  1  0
  6 26  1  0
  8 27  1  0
  8 28  1  0
  8 29  1  0
 10 30  1  0
 11 31  1  0
 13 32  1  0
 14 33  1  0
 16 34  1  0
 16 35  1  0
 16 36  1  0
 17 37  1  0
 18 38  1  0
 20 39  1  0
M  CHG  1  15   1
M  END
$$$$
