
     RDKit          3D

 60 63  0  0  0  0  0  0  0  0999 V2000
   10.3102   -3.8093   -1.7471 C   0  0  0  0  0  0  0  0  0  0  0  0
    9.4363   -2.6397   -1.3338 C   0  0  0  0  0  0  0  0  0  0  0  0
    8.1007   -2.9208   -1.7503 O   0  0  0  0  0  0  0  0  0  0  0  0
    7.1566   -1.9632   -1.5045 C   0  0  0  0  0  0  0  0  0  0  0  0
    7.3629   -0.7579   -0.8357 C   0  0  0  0  0  0  0  0  0  0  0  0
    6.3014    0.1369   -0.6495 C   0  0  0  0  0  0  0  0  0  0  0  0
    5.0218   -0.1625   -1.1331 C   0  0  0  0  0  0  0  0  0  0  0  0
    3.8711    0.7812   -0.9105 C   0  0  0  0  0  0  0  0  0  0  0  0
    3.0395    0.3275    0.1788 N   0  0  0  0  0  0  0  0  0  0  0  0
    1.8419    0.9525    0.4629 C   0  0  0  0  0  0  0  0  0  0  0  0
    1.4384    1.9161   -0.1826 O   0  0  0  0  0  0  0  0  0  0  0  0
    1.1115    0.3608    1.6710 C   0  0  0  0  0  0  0  0  0  0  0  0
   -0.2980    0.7124    1.6440 N   0  0  0  0  0  0  0  0  0  0  0  0
   -0.6872    1.8088    2.4222 N   0  0  0  0  0  0  0  0  0  0  0  0
   -1.9158    2.2461    2.3923 C   0  0  0  0  0  0  0  0  0  0  0  0
   -2.2706    3.4302    3.2459 C   0  0  0  0  0  0  0  0  0  0  0  0
   -2.8863    1.5838    1.5537 C   0  0  0  0  0  0  0  0  0  0  0  0
   -4.2159    1.8179    1.2430 C   0  0  0  0  0  0  0  0  0  0  0  0
   -5.0827    2.9760    1.5827 C   0  0  0  0  0  0  0  0  0  0  0  0
   -4.6073    0.7355    0.4436 N   0  0  0  0  0  0  0  0  0  0  0  0
   -5.9026    0.3275   -0.0062 C   0  0  0  0  0  0  0  0  0  0  0  0
   -5.9923   -0.6001   -1.0569 C   0  0  0  0  0  0  0  0  0  0  0  0
   -7.2364   -1.0354   -1.5233 C   0  0  0  0  0  0  0  0  0  0  0  0
   -8.4154   -0.5734   -0.9330 C   0  0  0  0  0  0  0  0  0  0  0  0
   -9.7492   -1.0209   -1.4529 C   0  0  0  0  0  0  0  0  0  0  0  0
   -8.3296    0.3424    0.1197 C   0  0  0  0  0  0  0  0  0  0  0  0
   -7.0847    0.7810    0.5890 C   0  0  0  0  0  0  0  0  0  0  0  0
   -3.5306   -0.0138    0.0803 N   0  0  0  0  0  0  0  0  0  0  0  0
   -2.5118    0.4716    0.7923 C   0  0  0  0  0  0  0  0  0  0  0  0
   -1.1449   -0.0309    0.7993 C   0  0  0  0  0  0  0  0  0  0  0  0
   -0.7642   -1.0031    0.1485 O   0  0  0  0  0  0  0  0  0  0  0  0
    4.8187   -1.3788   -1.7972 C   0  0  0  0  0  0  0  0  0  0  0  0
    5.8806   -2.2669   -1.9817 C   0  0  0  0  0  0  0  0  0  0  0  0
   11.3493   -3.6454   -1.4485 H   0  0  0  0  0  0  0  0  0  0  0  0
    9.9523   -4.7366   -1.2884 H   0  0  0  0  0  0  0  0  0  0  0  0
   10.2724   -3.9533   -2.8313 H   0  0  0  0  0  0  0  0  0  0  0  0
    9.8045   -1.7299   -1.8199 H   0  0  0  0  0  0  0  0  0  0  0  0
    9.4792   -2.5288   -0.2451 H   0  0  0  0  0  0  0  0  0  0  0  0
    8.3344   -0.4825   -0.4431 H   0  0  0  0  0  0  0  0  0  0  0  0
    6.4835    1.0721   -0.1230 H   0  0  0  0  0  0  0  0  0  0  0  0
    4.2291    1.7894   -0.6684 H   0  0  0  0  0  0  0  0  0  0  0  0
    3.2637    0.8681   -1.8201 H   0  0  0  0  0  0  0  0  0  0  0  0
    3.3755   -0.4301    0.7600 H   0  0  0  0  0  0  0  0  0  0  0  0
    1.2131   -0.7303    1.6638 H   0  0  0  0  0  0  0  0  0  0  0  0
    1.5696    0.7526    2.5859 H   0  0  0  0  0  0  0  0  0  0  0  0
   -1.4677    3.6395    3.9595 H   0  0  0  0  0  0  0  0  0  0  0  0
   -2.4081    4.3096    2.6107 H   0  0  0  0  0  0  0  0  0  0  0  0
   -3.1881    3.2316    3.8063 H   0  0  0  0  0  0  0  0  0  0  0  0
   -4.4891    3.8843    1.7150 H   0  0  0  0  0  0  0  0  0  0  0  0
   -5.7881    3.2049    0.7783 H   0  0  0  0  0  0  0  0  0  0  0  0
   -5.6272    2.7962    2.5143 H   0  0  0  0  0  0  0  0  0  0  0  0
   -5.0954   -0.9885   -1.5383 H   0  0  0  0  0  0  0  0  0  0  0  0
   -7.2729   -1.7440   -2.3473 H   0  0  0  0  0  0  0  0  0  0  0  0
  -10.0506   -0.3955   -2.2987 H   0  0  0  0  0  0  0  0  0  0  0  0
  -10.5170   -0.9534   -0.6752 H   0  0  0  0  0  0  0  0  0  0  0  0
   -9.7078   -2.0653   -1.7787 H   0  0  0  0  0  0  0  0  0  0  0  0
   -9.2358    0.7110    0.5971 H   0  0  0  0  0  0  0  0  0  0  0  0
   -7.0888    1.4401    1.4473 H   0  0  0  0  0  0  0  0  0  0  0  0
    3.8319   -1.6419   -2.1741 H   0  0  0  0  0  0  0  0  0  0  0  0
    5.7117   -3.2054   -2.5029 H   0  0  0  0  0  0  0  0  0  0  0  0
  1  2  1  0
  2  3  1  0
  3  4  1  0
  4  5  2  0
  5  6  1  0
  6  7  2  0
  7  8  1  0
  8  9  1  0
  9 10  1  0
 10 11  2  0
 10 12  1  0
 12 13  1  0
 13 14  1  0
 14 15  2  0
 15 16  1  0
 15 17  1  0
 17 18  2  0
 18 19  1  0
 18 20  1  0
 20 21  1  0
 21 22  2  0
 22 23  1  0
 23 24  2  0
 24 25  1  0
 24 26  1  0
 26 27  2  0
 20 28  1  0
 28 29  2  0
 29 30  1  0
 30 31  2  0
  7 32  1  0
 32 33  2  0
 33  4  1  0
 30 13  1  0
 29 17  1  0
 27 21  1  0
  1 34  1  0
  1 35  1  0
  1 36  1  0
  2 37  1  0
  2 38  1  0
  5 39  1  0
  6 40  1  0
  8 41  1  0
  8 42  1  0
  9 43  1  0
 12 44  1  0
 12 45  1  0
 16 46  1  0
 16 47  1  0
 16 48  1  0
 19 49  1  0
 19 50  1  0
 19 51  1  0
 22 52  1  0
 23 53  1  0
 25 54  1  0
 25 55  1  0
 25 56  1  0
 26 57  1  0
 27 58  1  0
 32 59  1  0
 33 60  1  0
M  END
$$$$
