
     RDKit          3D

 48 51  0  0  0  0  0  0  0  0999 V2000
    1.2575   -1.8418   -0.6057 C   0  0  0  0  0  0  0  0  0  0  0  0
    1.7743   -0.6268   -1.3613 C   0  0  0  0  0  0  0  0  0  0  0  0
    2.4118    0.3246   -0.4541 N   0  0  0  0  0  0  0  0  0  0  0  0
    1.9270    1.5561    0.0019 C   0  0  0  0  0  0  0  0  0  0  0  0
    0.6733    2.0331    0.1194 C   0  0  0  0  0  0  0  0  0  0  0  0
   -0.5763    1.3394   -0.1855 C   0  0  0  0  0  0  0  0  0  0  0  0
   -1.1330    1.5359   -1.4485 C   0  0  0  0  0  0  0  0  0  0  0  0
   -2.3270    0.9262   -1.7809 C   0  0  0  0  0  0  0  0  0  0  0  0
   -2.9773    0.1392   -0.8386 C   0  0  0  0  0  0  0  0  0  0  0  0
   -4.1947   -0.4740   -1.1741 C   0  0  0  0  0  0  0  0  0  0  0  0
   -4.8826   -1.2656   -0.2510 C   0  0  0  0  0  0  0  0  0  0  0  0
   -6.2014   -1.8873   -0.6133 C   0  0  0  0  0  0  0  0  0  0  0  0
   -4.3568   -1.4158    1.0302 C   0  0  0  0  0  0  0  0  0  0  0  0
   -3.1427   -0.8110    1.3777 C   0  0  0  0  0  0  0  0  0  0  0  0
   -2.4161   -0.0313    0.4571 C   0  0  0  0  0  0  0  0  0  0  0  0
   -1.2138    0.5736    0.7523 N   0  0  0  0  0  4  0  0  0  0  0  0
   -0.5887    0.3968    2.1011 C   0  0  0  0  0  0  0  0  0  0  0  0
   -1.1188    1.4501    3.0555 C   0  0  0  0  0  0  0  0  0  0  0  0
    3.2018    2.6469    0.6368 S   0  0  0  0  0  0  0  0  0  0  0  0
    4.4033    1.3711    0.3129 C   0  0  0  0  0  0  0  0  0  0  0  0
    5.7638    1.4587    0.5756 C   0  0  0  0  0  0  0  0  0  0  0  0
    6.5731    0.3722    0.2525 C   0  0  0  0  0  0  0  0  0  0  0  0
    6.0151   -0.7749   -0.3227 C   0  0  0  0  0  0  0  0  0  0  0  0
    4.6406   -0.8511   -0.5844 C   0  0  0  0  0  0  0  0  0  0  0  0
    3.8171    0.2274   -0.2711 C   0  0  0  0  0  0  0  0  0  0  0  0
    0.5361   -1.5579    0.1644 H   0  0  0  0  0  0  0  0  0  0  0  0
    0.7620   -2.5321   -1.2955 H   0  0  0  0  0  0  0  0  0  0  0  0
    2.0692   -2.3835   -0.1106 H   0  0  0  0  0  0  0  0  0  0  0  0
    0.9454   -0.1560   -1.8955 H   0  0  0  0  0  0  0  0  0  0  0  0
    2.4574   -0.9454   -2.1583 H   0  0  0  0  0  0  0  0  0  0  0  0
    0.5140    3.0364    0.5153 H   0  0  0  0  0  0  0  0  0  0  0  0
   -0.6301    2.1628   -2.1846 H   0  0  0  0  0  0  0  0  0  0  0  0
   -2.7461    1.0795   -2.7753 H   0  0  0  0  0  0  0  0  0  0  0  0
   -4.6236   -0.3359   -2.1678 H   0  0  0  0  0  0  0  0  0  0  0  0
   -6.2277   -2.1533   -1.6753 H   0  0  0  0  0  0  0  0  0  0  0  0
   -7.0152   -1.1869   -0.4022 H   0  0  0  0  0  0  0  0  0  0  0  0
   -6.3693   -2.8075   -0.0439 H   0  0  0  0  0  0  0  0  0  0  0  0
   -4.8932   -2.0070    1.7731 H   0  0  0  0  0  0  0  0  0  0  0  0
   -2.8122   -0.9731    2.3988 H   0  0  0  0  0  0  0  0  0  0  0  0
   -0.7836   -0.6187    2.4550 H   0  0  0  0  0  0  0  0  0  0  0  0
    0.4983    0.4549    2.0207 H   0  0  0  0  0  0  0  0  0  0  0  0
   -0.6676    1.3247    4.0445 H   0  0  0  0  0  0  0  0  0  0  0  0
   -2.2050    1.3827    3.1668 H   0  0  0  0  0  0  0  0  0  0  0  0
   -0.8864    2.4592    2.7017 H   0  0  0  0  0  0  0  0  0  0  0  0
    6.1933    2.3517    1.0191 H   0  0  0  0  0  0  0  0  0  0  0  0
    7.6429    0.4151    0.4464 H   0  0  0  0  0  0  0  0  0  0  0  0
    6.6589   -1.6175   -0.5688 H   0  0  0  0  0  0  0  0  0  0  0  0
    4.2530   -1.7639   -1.0229 H   0  0  0  0  0  0  0  0  0  0  0  0
  1  2  1  0
  2  3  1  0
  3  4  1  0
  4  5  2  3
  5  6  1  0
  6  7  2  0
  7  8  1  0
  8  9  2  0
  9 10  1  0
 10 11  2  0
 11 12  1  0
 11 13  1  0
 13 14  2  0
 14 15  1  0
 15 16  2  0
 16 17  1  0
 17 18  1  0
  4 19  1  0
 19 20  1  0
 20 21  2  0
 21 22  1  0
 22 23  2  0
 23 24  1  0
 24 25  2  0
 25  3  1  0
 16  6  1  0
 25 20  1  0
 15  9  1  0
  1 26  1  0
  1 27  1  0
  1 28  1  0
  2 29  1  0
  2 30  1  0
  5 31  1  0
  7 32  1  0
  8 33  1  0
 10 34  1  0
 12 35  1  0
 12 36  1  0
 12 37  1  0
 13 38  1  0
 14 39  1  0
 17 40  1  0
 17 41  1  0
 18 42  1  0
 18 43  1  0
 18 44  1  0
 21 45  1  0
 22 46  1  0
 23 47  1  0
 24 48  1  0
M  CHG  1  16   1
M  END
$$$$
