
     RDKit          3D

 37 38  0  0  0  0  0  0  0  0999 V2000
   -6.0298    0.0759   -0.6415 C   0  0  0  0  0  0  0  0  0  0  0  0
   -4.5925    0.3239   -0.3862 N   0  0  0  0  0  0  0  0  0  0  0  0
   -3.9055    0.8332   -1.5929 C   0  0  0  0  0  0  0  0  0  0  0  0
   -3.8187   -0.9806    0.4022 S   0  0  0  0  0  6  0  0  0  0  0  0
   -3.4456   -1.9232   -0.6329 O   0  0  0  0  0  0  0  0  0  0  0  0
   -4.6166   -1.4047    1.5308 O   0  0  0  0  0  0  0  0  0  0  0  0
   -2.3338   -0.2546    1.0452 C   0  0  0  0  0  0  0  0  0  0  0  0
   -1.0992   -0.7584    0.6045 C   0  0  0  0  0  0  0  0  0  0  0  0
    0.1102   -0.2234    1.0835 C   0  0  0  0  0  0  0  0  0  0  0  0
    1.3596   -0.8272    0.5394 C   0  0  0  0  0  0  0  0  0  0  0  0
    1.3577   -2.0325    0.3117 O   0  0  0  0  0  0  0  0  0  0  0  0
    2.3872    0.0439    0.2810 N   0  0  0  0  0  0  0  0  0  0  0  0
    3.6048   -0.2952   -0.2552 C   0  0  0  0  0  0  0  0  0  0  0  0
    4.0943   -1.5514   -0.6721 C   0  0  0  0  0  0  0  0  0  0  0  0
    5.3705   -1.3098   -1.1245 C   0  0  0  0  0  0  0  0  0  0  0  0
    5.5715    0.0268   -0.9611 N   0  0  0  0  0  0  0  0  0  0  0  0
    6.7640    0.7711   -1.2845 C   0  0  0  0  0  0  0  0  0  0  0  0
    4.5106    0.6693   -0.4394 N   0  0  0  0  0  0  0  0  0  0  0  0
    0.0675    0.8037    2.0336 C   0  0  0  0  0  0  0  0  0  0  0  0
    1.4768    1.4963    2.7528 Cl  0  0  0  0  0  0  0  0  0  0  0  0
   -1.1677    1.2990    2.4725 C   0  0  0  0  0  0  0  0  0  0  0  0
   -2.3712    0.7772    1.9821 C   0  0  0  0  0  0  0  0  0  0  0  0
   -3.8213    1.4853    2.5918 Cl  0  0  0  0  0  0  0  0  0  0  0  0
   -6.5592   -0.1098    0.2975 H   0  0  0  0  0  0  0  0  0  0  0  0
   -6.1670   -0.7735   -1.3173 H   0  0  0  0  0  0  0  0  0  0  0  0
   -6.4867    0.9607   -1.0968 H   0  0  0  0  0  0  0  0  0  0  0  0
   -3.9634    0.1128   -2.4143 H   0  0  0  0  0  0  0  0  0  0  0  0
   -2.8579    1.0624   -1.3815 H   0  0  0  0  0  0  0  0  0  0  0  0
   -4.3765    1.7675   -1.9159 H   0  0  0  0  0  0  0  0  0  0  0  0
   -1.0691   -1.5767   -0.1172 H   0  0  0  0  0  0  0  0  0  0  0  0
    2.3226    1.0264    0.5092 H   0  0  0  0  0  0  0  0  0  0  0  0
    3.5904   -2.5073   -0.6457 H   0  0  0  0  0  0  0  0  0  0  0  0
    6.1264   -1.9648   -1.5338 H   0  0  0  0  0  0  0  0  0  0  0  0
    7.1389    1.2359   -0.3692 H   0  0  0  0  0  0  0  0  0  0  0  0
    7.5168    0.0930   -1.6940 H   0  0  0  0  0  0  0  0  0  0  0  0
    6.5051    1.5322   -2.0247 H   0  0  0  0  0  0  0  0  0  0  0  0
   -1.1932    2.0965    3.2144 H   0  0  0  0  0  0  0  0  0  0  0  0
  1  2  1  0
  2  3  1  0
  2  4  1  0
  4  5  2  0
  4  6  2  0
  4  7  1  0
  7  8  2  0
  8  9  1  0
  9 10  1  0
 10 11  2  0
 10 12  1  0
 12 13  1  0
 13 14  1  0
 14 15  2  0
 15 16  1  0
 16 17  1  0
 16 18  1  0
  9 19  2  0
 19 20  1  0
 19 21  1  0
 21 22  2  0
 22 23  1  0
 22  7  1  0
 18 13  2  0
  1 24  1  0
  1 25  1  0
  1 26  1  0
  3 27  1  0
  3 28  1  0
  3 29  1  0
  8 30  1  0
 12 31  1  0
 14 32  1  0
 15 33  1  0
 17 34  1  0
 17 35  1  0
 17 36  1  0
 21 37  1  0
M  END
$$$$
