
     RDKit          3D

 38 39  0  0  0  0  0  0  0  0999 V2000
   -4.2049    0.7119    2.5538 C   0  0  0  0  0  0  0  0  0  0  0  0
   -3.8165    1.1868    1.2577 O   0  0  0  0  0  0  0  0  0  0  0  0
   -4.3647    0.3996    0.2800 C   0  0  0  0  0  0  0  0  0  0  0  0
   -5.6789    0.6628   -0.1159 C   0  0  0  0  0  0  0  0  0  0  0  0
   -6.2862   -0.1349   -1.0871 C   0  0  0  0  0  0  0  0  0  0  0  0
   -5.5800   -1.1860   -1.6691 C   0  0  0  0  0  0  0  0  0  0  0  0
   -4.2583   -1.4320   -1.2938 C   0  0  0  0  0  0  0  0  0  0  0  0
   -3.6356   -0.6231   -0.3318 C   0  0  0  0  0  0  0  0  0  0  0  0
   -2.2231   -0.9240    0.0110 C   0  0  0  0  0  0  0  0  0  0  0  0
   -1.8717   -2.1036    0.0614 O   0  0  0  0  0  0  0  0  0  0  0  0
   -1.2769    0.2444    0.2586 C   0  0  0  0  0  0  0  0  0  0  0  0
    0.0709   -0.2100    0.1048 O   0  0  0  0  0  0  0  0  0  0  0  0
    0.9876    0.7768   -0.0024 C   0  0  0  0  0  0  0  0  0  0  0  0
    0.7699    1.9760    0.0041 O   0  0  0  0  0  0  0  0  0  0  0  0
    2.3148    0.1457   -0.1394 C   0  0  0  0  0  0  0  0  0  0  0  0
    3.4034    0.9026   -0.3425 C   0  0  0  0  0  0  0  0  0  0  0  0
    4.7519    0.3480   -0.5138 C   0  0  0  0  0  0  0  0  0  0  0  0
    5.6076    0.9269   -1.4598 C   0  0  0  0  0  0  0  0  0  0  0  0
    6.9034    0.4377   -1.6390 C   0  0  0  0  0  0  0  0  0  0  0  0
    7.3621   -0.6260   -0.8632 C   0  0  0  0  0  0  0  0  0  0  0  0
    6.5263   -1.1971    0.0941 C   0  0  0  0  0  0  0  0  0  0  0  0
    5.2284   -0.7100    0.2711 C   0  0  0  0  0  0  0  0  0  0  0  0
   -3.7672   -0.2759    2.7474 H   0  0  0  0  0  0  0  0  0  0  0  0
   -5.2952    0.6673    2.6583 H   0  0  0  0  0  0  0  0  0  0  0  0
   -3.8203    1.4128    3.2999 H   0  0  0  0  0  0  0  0  0  0  0  0
   -6.2304    1.4821    0.3349 H   0  0  0  0  0  0  0  0  0  0  0  0
   -7.3123    0.0642   -1.3859 H   0  0  0  0  0  0  0  0  0  0  0  0
   -6.0551   -1.8122   -2.4228 H   0  0  0  0  0  0  0  0  0  0  0  0
   -3.7089   -2.2494   -1.7614 H   0  0  0  0  0  0  0  0  0  0  0  0
   -1.4965    1.0436   -0.4556 H   0  0  0  0  0  0  0  0  0  0  0  0
   -1.3972    0.5812    1.2886 H   0  0  0  0  0  0  0  0  0  0  0  0
    2.3520   -0.9362   -0.0896 H   0  0  0  0  0  0  0  0  0  0  0  0
    3.3183    1.9860   -0.4132 H   0  0  0  0  0  0  0  0  0  0  0  0
    5.2693    1.7591   -2.0738 H   0  0  0  0  0  0  0  0  0  0  0  0
    7.5554    0.8888   -2.3824 H   0  0  0  0  0  0  0  0  0  0  0  0
    8.3724   -1.0065   -1.0013 H   0  0  0  0  0  0  0  0  0  0  0  0
    6.8851   -2.0173    0.7102 H   0  0  0  0  0  0  0  0  0  0  0  0
    4.6013   -1.1601    1.0368 H   0  0  0  0  0  0  0  0  0  0  0  0
  1  2  1  0
  2  3  1  0
  3  4  2  0
  4  5  1  0
  5  6  2  0
  6  7  1  0
  7  8  2  0
  8  9  1  0
  9 10  2  0
  9 11  1  0
 11 12  1  0
 12 13  1  0
 13 14  2  0
 13 15  1  0
 15 16  2  3
 16 17  1  0
 17 18  2  0
 18 19  1  0
 19 20  2  0
 20 21  1  0
 21 22  2  0
  8  3  1  0
 22 17  1  0
  1 23  1  0
  1 24  1  0
  1 25  1  0
  4 26  1  0
  5 27  1  0
  6 28  1  0
  7 29  1  0
 11 30  1  0
 11 31  1  0
 15 32  1  0
 16 33  1  0
 18 34  1  0
 19 35  1  0
 20 36  1  0
 21 37  1  0
 22 38  1  0
M  END
$$$$
