
     RDKit          3D

 39 41  0  0  0  0  0  0  0  0999 V2000
   -2.9865   -0.6645    5.5763 C   0  0  0  0  0  0  0  0  0  0  0  0
   -3.1117   -1.7049    4.6146 O   0  0  0  0  0  0  0  0  0  0  0  0
   -2.9801   -1.3520    3.2998 C   0  0  0  0  0  0  0  0  0  0  0  0
   -2.7070   -0.0694    2.8180 C   0  0  0  0  0  0  0  0  0  0  0  0
   -2.5944    0.1558    1.4422 C   0  0  0  0  0  0  0  0  0  0  0  0
   -2.7463   -0.9099    0.5513 C   0  0  0  0  0  0  0  0  0  0  0  0
   -2.6112   -0.6285   -1.1950 S   0  0  0  0  0  6  0  0  0  0  0  0
   -2.6209    0.7965   -1.4444 O   0  0  0  0  0  0  0  0  0  0  0  0
   -3.5601   -1.5053   -1.8493 O   0  0  0  0  0  0  0  0  0  0  0  0
   -1.0786   -1.2509   -1.5543 N   0  0  0  0  0  0  0  0  0  0  0  0
    0.0524   -0.4395   -1.2651 C   0  0  0  0  0  0  0  0  0  0  0  0
    0.6545   -0.5257   -0.0119 C   0  0  0  0  0  0  0  0  0  0  0  0
    1.7383    0.2961    0.2911 C   0  0  0  0  0  0  0  0  0  0  0  0
    2.2143    1.1982   -0.6593 C   0  0  0  0  0  0  0  0  0  0  0  0
    3.2859    1.9577   -0.2759 O   0  0  0  0  0  0  0  0  0  0  0  0
    1.6093    1.3039   -1.9208 C   0  0  0  0  0  0  0  0  0  0  0  0
    2.1005    2.4982   -3.1553 S   0  0  0  0  0  0  0  0  0  0  0  0
    3.7101    1.9675   -3.5466 C   0  0  0  0  0  0  0  0  0  0  0  0
    4.0444    1.3622   -4.7240 N   0  0  0  0  0  0  0  0  0  0  0  0
    5.3331    1.1533   -4.5930 C   0  0  0  0  0  0  0  0  0  0  0  0
    5.7486    1.6186   -3.3856 N   0  0  0  0  0  0  0  0  0  0  0  0
    4.7252    2.1478   -2.6911 N   0  0  0  0  0  0  0  0  0  0  0  0
    0.5150    0.4768   -2.2116 C   0  0  0  0  0  0  0  0  0  0  0  0
   -3.0329   -2.1927    1.0205 C   0  0  0  0  0  0  0  0  0  0  0  0
   -3.1435   -2.4073    2.3953 C   0  0  0  0  0  0  0  0  0  0  0  0
   -3.7606    0.0974    5.4371 H   0  0  0  0  0  0  0  0  0  0  0  0
   -3.1289   -1.1065    6.5671 H   0  0  0  0  0  0  0  0  0  0  0  0
   -1.9854   -0.2218    5.5499 H   0  0  0  0  0  0  0  0  0  0  0  0
   -2.5777    0.7773    3.4845 H   0  0  0  0  0  0  0  0  0  0  0  0
   -2.3832    1.1593    1.0775 H   0  0  0  0  0  0  0  0  0  0  0  0
   -1.0940   -1.7346   -2.4520 H   0  0  0  0  0  0  0  0  0  0  0  0
    0.2956   -1.2330    0.7307 H   0  0  0  0  0  0  0  0  0  0  0  0
    2.2160    0.2338    1.2652 H   0  0  0  0  0  0  0  0  0  0  0  0
    3.7139    2.3117   -1.0852 H   0  0  0  0  0  0  0  0  0  0  0  0
    5.9922    0.6886   -5.3126 H   0  0  0  0  0  0  0  0  0  0  0  0
    6.6790    1.6112   -2.9813 H   0  0  0  0  0  0  0  0  0  0  0  0
    0.0090    0.5616   -3.1706 H   0  0  0  0  0  0  0  0  0  0  0  0
   -3.1702   -3.0216    0.3302 H   0  0  0  0  0  0  0  0  0  0  0  0
   -3.3639   -3.4051    2.7688 H   0  0  0  0  0  0  0  0  0  0  0  0
  1  2  1  0
  2  3  1  0
  3  4  2  0
  4  5  1  0
  5  6  2  0
  6  7  1  0
  7  8  2  0
  7  9  2  0
  7 10  1  0
 10 11  1  0
 11 12  2  0
 12 13  1  0
 13 14  2  0
 14 15  1  0
 14 16  1  0
 16 17  1  0
 17 18  1  0
 18 19  1  0
 19 20  2  0
 20 21  1  0
 21 22  1  0
 16 23  2  0
  6 24  1  0
 24 25  2  0
 25  3  1  0
 23 11  1  0
 22 18  2  0
  1 26  1  0
  1 27  1  0
  1 28  1  0
  4 29  1  0
  5 30  1  0
 10 31  1  0
 12 32  1  0
 13 33  1  0
 15 34  1  0
 20 35  1  0
 21 36  1  0
 23 37  1  0
 24 38  1  0
 25 39  1  0
M  END
$$$$
