
     RDKit          3D

 42 44  0  0  0  0  0  0  0  0999 V2000
   -4.6571    1.4018    0.6814 C   0  0  0  0  0  0  0  0  0  0  0  0
   -3.7577    1.0591   -0.4699 C   0  0  0  0  0  0  0  0  0  0  0  0
   -4.2816    0.9269   -1.7559 C   0  0  0  0  0  0  0  0  0  0  0  0
   -3.4661    0.5935   -2.8417 C   0  0  0  0  0  0  0  0  0  0  0  0
   -2.0980    0.3757   -2.6085 C   0  0  0  0  0  0  0  0  0  0  0  0
   -1.5450    0.4597   -1.3291 C   0  0  0  0  0  0  0  0  0  0  0  0
   -2.3919    0.8155   -0.2529 C   0  0  0  0  0  0  0  0  0  0  0  0
   -0.1557    0.1486   -1.4536 C   0  0  0  0  0  0  0  0  0  0  0  0
    0.8316    0.0938   -0.4202 C   0  0  0  0  0  0  0  0  0  0  0  0
    0.6464   -0.4782    0.7816 C   0  0  0  0  0  0  0  0  0  0  0  0
    1.6617   -0.5367    1.8382 C   0  0  0  0  0  0  0  0  0  0  0  0
    1.2620   -0.4095    3.1674 C   0  0  0  0  0  0  0  0  0  0  0  0
    2.2070   -0.4879    4.1842 C   0  0  0  0  0  0  0  0  0  0  0  0
    3.5098   -0.7045    3.8973 N   0  0  0  0  0  4  0  0  0  0  0  0
    4.4949   -0.7732    4.9900 C   0  0  0  0  0  0  0  0  0  0  0  0
    3.9206   -0.8409    2.6170 C   0  0  0  0  0  0  0  0  0  0  0  0
    3.0099   -0.7674    1.5688 C   0  0  0  0  0  0  0  0  0  0  0  0
    0.1177   -0.0904   -2.7906 C   0  0  0  0  0  0  0  0  0  0  0  0
    1.3910   -0.4660   -3.4709 C   0  0  0  0  0  0  0  0  0  0  0  0
   -1.0697    0.0670   -3.4790 N   0  0  0  0  0  0  0  0  0  0  0  0
   -1.2370   -0.0742   -4.9121 C   0  0  0  0  0  0  0  0  0  0  0  0
   -4.1100    1.9521    1.4541 H   0  0  0  0  0  0  0  0  0  0  0  0
   -5.4852    2.0394    0.3545 H   0  0  0  0  0  0  0  0  0  0  0  0
   -5.0663    0.4871    1.1211 H   0  0  0  0  0  0  0  0  0  0  0  0
   -5.3430    1.0933   -1.9321 H   0  0  0  0  0  0  0  0  0  0  0  0
   -3.8946    0.5109   -3.8356 H   0  0  0  0  0  0  0  0  0  0  0  0
   -1.9811    0.9104    0.7470 H   0  0  0  0  0  0  0  0  0  0  0  0
    1.7909    0.5424   -0.6659 H   0  0  0  0  0  0  0  0  0  0  0  0
   -0.3143   -0.9353    1.0149 H   0  0  0  0  0  0  0  0  0  0  0  0
    0.2167   -0.2379    3.4195 H   0  0  0  0  0  0  0  0  0  0  0  0
    1.9302   -0.3787    5.2290 H   0  0  0  0  0  0  0  0  0  0  0  0
    5.3097   -1.4401    4.6966 H   0  0  0  0  0  0  0  0  0  0  0  0
    4.8638    0.2409    5.1618 H   0  0  0  0  0  0  0  0  0  0  0  0
    4.0096   -1.1686    5.8860 H   0  0  0  0  0  0  0  0  0  0  0  0
    4.9789   -1.0120    2.4408 H   0  0  0  0  0  0  0  0  0  0  0  0
    3.3616   -0.9019    0.5477 H   0  0  0  0  0  0  0  0  0  0  0  0
    1.2383   -1.3150   -4.1452 H   0  0  0  0  0  0  0  0  0  0  0  0
    2.1619   -0.7596   -2.7520 H   0  0  0  0  0  0  0  0  0  0  0  0
    1.7759    0.3791   -4.0504 H   0  0  0  0  0  0  0  0  0  0  0  0
   -2.0004    0.6256   -5.2604 H   0  0  0  0  0  0  0  0  0  0  0  0
   -0.2988    0.1599   -5.4196 H   0  0  0  0  0  0  0  0  0  0  0  0
   -1.5366   -1.1049   -5.1167 H   0  0  0  0  0  0  0  0  0  0  0  0
  1  2  1  0
  2  3  2  0
  3  4  1  0
  4  5  2  0
  5  6  1  0
  6  7  2  0
  6  8  1  0
  8  9  1  0
  9 10  2  3
 10 11  1  0
 11 12  2  0
 12 13  1  0
 13 14  2  0
 14 15  1  0
 14 16  1  0
 16 17  2  0
  8 18  2  0
 18 19  1  0
 18 20  1  0
 20 21  1  0
  7  2  1  0
 17 11  1  0
 20  5  1  0
  1 22  1  0
  1 23  1  0
  1 24  1  0
  3 25  1  0
  4 26  1  0
  7 27  1  0
  9 28  1  0
 10 29  1  0
 12 30  1  0
 13 31  1  0
 15 32  1  0
 15 33  1  0
 15 34  1  0
 16 35  1  0
 17 36  1  0
 19 37  1  0
 19 38  1  0
 19 39  1  0
 21 40  1  0
 21 41  1  0
 21 42  1  0
M  CHG  1  14   1
M  END
$$$$
