
     RDKit          3D

 30 33  0  0  0  0  0  0  0  0999 V2000
    5.4224   -1.8906   -0.6711 C   0  0  0  0  0  0  0  0  0  0  0  0
    4.9515   -0.7966    0.2000 C   0  0  0  0  0  0  0  0  0  0  0  0
    5.5771    0.0631    1.0683 C   0  0  0  0  0  0  0  0  0  0  0  0
    4.5557    0.8856    1.6001 C   0  0  0  0  0  0  0  0  0  0  0  0
    3.3449    0.4957    1.0351 C   0  0  0  0  0  0  0  0  0  0  0  0
    2.0545    1.0449    1.2779 C   0  0  0  0  0  0  0  0  0  0  0  0
    0.9099    0.6383    0.7105 C   0  0  0  0  0  0  0  0  0  0  0  0
    0.6380   -0.6398   -0.4592 S   0  0  0  0  0  0  0  0  0  0  0  0
   -1.0380   -0.2861   -0.4589 C   0  0  0  0  0  0  0  0  0  0  0  0
   -2.0884   -0.7567   -1.0651 N   0  0  0  0  0  0  0  0  0  0  0  0
   -3.0924    0.0473   -0.5463 C   0  0  0  0  0  0  0  0  0  0  0  0
   -4.5960   -0.1093   -0.9612 C   0  0  0  0  0  0  0  0  0  0  0  0
   -5.6195    0.6709   -0.4668 C   0  0  0  0  0  0  0  0  0  0  0  0
   -6.8832    0.3066   -1.0193 C   0  0  0  0  0  0  0  0  0  0  0  0
   -6.7728   -0.7367   -1.9126 C   0  0  0  0  0  0  0  0  0  0  0  0
   -5.1538   -1.2690   -2.0799 S   0  0  0  0  0  0  0  0  0  0  0  0
   -2.6815    0.9762    0.3432 N   0  0  0  0  0  0  0  0  0  0  0  0
   -1.3616    0.7256    0.3674 N   0  0  0  0  0  0  0  0  0  0  0  0
   -0.3592    1.3369    1.0879 C   0  0  0  0  0  0  0  0  0  0  0  0
   -0.5378    2.2593    1.8629 O   0  0  0  0  0  0  0  0  0  0  0  0
    3.6180   -0.5429    0.1760 O   0  0  0  0  0  0  0  0  0  0  0  0
    4.9418   -2.8340   -0.3945 H   0  0  0  0  0  0  0  0  0  0  0  0
    6.5055   -2.0219   -0.5862 H   0  0  0  0  0  0  0  0  0  0  0  0
    5.1859   -1.6754   -1.7176 H   0  0  0  0  0  0  0  0  0  0  0  0
    6.6344    0.0947    1.2911 H   0  0  0  0  0  0  0  0  0  0  0  0
    4.6831    1.6821    2.3210 H   0  0  0  0  0  0  0  0  0  0  0  0
    2.0170    1.8674    1.9913 H   0  0  0  0  0  0  0  0  0  0  0  0
   -5.4702    1.4647    0.2560 H   0  0  0  0  0  0  0  0  0  0  0  0
   -7.8232    0.7855   -0.7734 H   0  0  0  0  0  0  0  0  0  0  0  0
   -7.5622   -1.2143   -2.4767 H   0  0  0  0  0  0  0  0  0  0  0  0
  1  2  1  0
  2  3  2  0
  3  4  1  0
  4  5  2  0
  5  6  1  0
  6  7  2  3
  7  8  1  0
  8  9  1  0
  9 10  2  0
 10 11  1  0
 11 12  1  0
 12 13  2  0
 13 14  1  0
 14 15  2  0
 15 16  1  0
 11 17  2  0
 17 18  1  0
 18 19  1  0
 19 20  2  0
  5 21  1  0
 21  2  1  0
 19  7  1  0
 18  9  1  0
 16 12  1  0
  1 22  1  0
  1 23  1  0
  1 24  1  0
  3 25  1  0
  4 26  1  0
  6 27  1  0
 13 28  1  0
 14 29  1  0
 15 30  1  0
M  END
$$$$
