
     RDKit          3D

 59 62  0  0  0  0  0  0  0  0999 V2000
   -1.6179    1.2729   -3.0135 C   0  0  0  0  0  0  0  0  0  0  0  0
   -2.0193    0.3343   -2.0084 O   0  0  0  0  0  0  0  0  0  0  0  0
   -3.3875    0.3305   -1.8815 C   0  0  0  0  0  0  0  0  0  0  0  0
   -4.1083   -0.6695   -2.5577 C   0  0  0  0  0  0  0  0  0  0  0  0
   -3.4203   -1.6908   -3.4165 C   0  0  0  0  0  0  0  0  0  0  0  0
   -5.5070   -0.6765   -2.4653 C   0  0  0  0  0  0  0  0  0  0  0  0
   -6.1672    0.2725   -1.6859 C   0  0  0  0  0  0  0  0  0  0  0  0
   -8.0537    0.2417   -1.5741 Br  0  0  0  0  0  0  0  0  0  0  0  0
   -5.4497    1.2346   -0.9829 C   0  0  0  0  0  0  0  0  0  0  0  0
   -4.0499    1.2613   -1.0597 C   0  0  0  0  0  0  0  0  0  0  0  0
   -3.3454    2.3042   -0.2552 C   0  0  0  0  0  0  0  0  0  0  0  0
   -3.9265    3.3622   -0.0410 O   0  0  0  0  0  0  0  0  0  0  0  0
   -2.0949    1.9534    0.1943 N   0  0  0  0  0  0  0  0  0  0  0  0
   -1.1662    2.7227    0.9241 C   0  0  0  0  0  0  0  0  0  0  0  0
   -1.3863    4.0402    1.3220 C   0  0  0  0  0  0  0  0  0  0  0  0
   -0.3930    4.7349    2.0151 C   0  0  0  0  0  0  0  0  0  0  0  0
    0.8199    4.1179    2.3127 C   0  0  0  0  0  0  0  0  0  0  0  0
    1.0449    2.7976    1.9230 C   0  0  0  0  0  0  0  0  0  0  0  0
    0.0601    2.0824    1.2282 C   0  0  0  0  0  0  0  0  0  0  0  0
    0.2317    0.7298    0.8470 N   0  0  0  0  0  0  0  0  0  0  0  0
    1.4153    0.4543    0.0006 C   0  0  0  0  0  0  0  0  0  0  0  0
    2.4672   -0.4355    0.6891 C   0  0  0  0  0  0  0  0  0  0  0  0
    1.8947   -1.6652    1.2609 N   0  0  0  0  0  0  0  0  0  0  0  0
    2.5817   -2.8551    1.4493 C   0  0  0  0  0  0  0  0  0  0  0  0
    2.0733   -3.8813    1.8957 O   0  0  0  0  0  0  0  0  0  0  0  0
    4.0145   -2.8862    1.1126 C   0  0  0  0  0  0  0  0  0  0  0  0
    4.9537   -2.4080    2.0310 C   0  0  0  0  0  0  0  0  0  0  0  0
    6.3083   -2.4609    1.7090 C   0  0  0  0  0  0  0  0  0  0  0  0
    6.7132   -2.9919    0.4809 C   0  0  0  0  0  0  0  0  0  0  0  0
    5.7700   -3.4802   -0.4258 C   0  0  0  0  0  0  0  0  0  0  0  0
    4.4141   -3.4343   -0.1091 C   0  0  0  0  0  0  0  0  0  0  0  0
    0.4827   -1.6122    1.6472 C   0  0  0  0  0  0  0  0  0  0  0  0
    0.0304   -0.1872    1.9954 C   0  0  0  0  0  0  0  0  0  0  0  0
   -1.8959    2.2985   -2.7445 H   0  0  0  0  0  0  0  0  0  0  0  0
   -0.5270    1.2280   -3.0944 H   0  0  0  0  0  0  0  0  0  0  0  0
   -2.0436    1.0123   -3.9886 H   0  0  0  0  0  0  0  0  0  0  0  0
   -3.1882   -1.2614   -4.3957 H   0  0  0  0  0  0  0  0  0  0  0  0
   -4.0553   -2.5689   -3.5677 H   0  0  0  0  0  0  0  0  0  0  0  0
   -2.4967   -2.0420   -2.9477 H   0  0  0  0  0  0  0  0  0  0  0  0
   -6.0808   -1.4274   -3.0041 H   0  0  0  0  0  0  0  0  0  0  0  0
   -5.9712    1.9628   -0.3646 H   0  0  0  0  0  0  0  0  0  0  0  0
   -1.7280    1.0350   -0.0540 H   0  0  0  0  0  0  0  0  0  0  0  0
   -2.3186    4.5491    1.1028 H   0  0  0  0  0  0  0  0  0  0  0  0
   -0.5712    5.7616    2.3234 H   0  0  0  0  0  0  0  0  0  0  0  0
    1.5855    4.6625    2.8570 H   0  0  0  0  0  0  0  0  0  0  0  0
    1.9877    2.3292    2.1823 H   0  0  0  0  0  0  0  0  0  0  0  0
    1.8845    1.3736   -0.3690 H   0  0  0  0  0  0  0  0  0  0  0  0
    1.0478   -0.0753   -0.8875 H   0  0  0  0  0  0  0  0  0  0  0  0
    2.9376    0.1075    1.5197 H   0  0  0  0  0  0  0  0  0  0  0  0
    3.2560   -0.6838   -0.0309 H   0  0  0  0  0  0  0  0  0  0  0  0
    4.6339   -2.0147    2.9928 H   0  0  0  0  0  0  0  0  0  0  0  0
    7.0514   -2.1008    2.4162 H   0  0  0  0  0  0  0  0  0  0  0  0
    7.7705   -3.0389    0.2375 H   0  0  0  0  0  0  0  0  0  0  0  0
    6.0920   -3.9055   -1.3740 H   0  0  0  0  0  0  0  0  0  0  0  0
    3.6745   -3.8263   -0.8017 H   0  0  0  0  0  0  0  0  0  0  0  0
   -0.0950   -1.9945    0.7978 H   0  0  0  0  0  0  0  0  0  0  0  0
    0.3050   -2.2798    2.4980 H   0  0  0  0  0  0  0  0  0  0  0  0
   -1.0316   -0.2032    2.2641 H   0  0  0  0  0  0  0  0  0  0  0  0
    0.5942    0.1542    2.8717 H   0  0  0  0  0  0  0  0  0  0  0  0
  1  2  1  0
  2  3  1  0
  3  4  2  0
  4  5  1  0
  4  6  1  0
  6  7  2  0
  7  8  1  0
  7  9  1  0
  9 10  2  0
 10 11  1  0
 11 12  2  0
 11 13  1  0
 13 14  1  0
 14 15  2  0
 15 16  1  0
 16 17  2  0
 17 18  1  0
 18 19  2  0
 19 20  1  0
 20 21  1  0
 21 22  1  0
 22 23  1  0
 23 24  1  0
 24 25  2  0
 24 26  1  0
 26 27  2  0
 27 28  1  0
 28 29  2  0
 29 30  1  0
 30 31  2  0
 23 32  1  0
 32 33  1  0
 10  3  1  0
 19 14  1  0
 33 20  1  0
 31 26  1  0
  1 34  1  0
  1 35  1  0
  1 36  1  0
  5 37  1  0
  5 38  1  0
  5 39  1  0
  6 40  1  0
  9 41  1  0
 13 42  1  0
 15 43  1  0
 16 44  1  0
 17 45  1  0
 18 46  1  0
 21 47  1  0
 21 48  1  0
 22 49  1  0
 22 50  1  0
 27 51  1  0
 28 52  1  0
 29 53  1  0
 30 54  1  0
 31 55  1  0
 32 56  1  0
 32 57  1  0
 33 58  1  0
 33 59  1  0
M  END
$$$$
