
     RDKit          3D

 48 51  0  0  0  0  0  0  0  0999 V2000
    3.3442    3.0871   -0.0426 C   0  0  0  0  0  0  0  0  0  0  0  0
    3.4566    2.0840    1.0956 C   0  0  0  0  0  0  0  0  0  0  0  0
    3.0456    0.7533    0.6572 N   0  0  0  0  0  0  0  0  0  0  0  0
    1.7617    0.1998    0.6964 C   0  0  0  0  0  0  0  0  0  0  0  0
    0.6424    0.8162    1.1232 C   0  0  0  0  0  0  0  0  0  0  0  0
   -0.7038    0.2277    1.1651 C   0  0  0  0  0  0  0  0  0  0  0  0
   -0.9988   -0.6448    2.2139 C   0  0  0  0  0  0  0  0  0  0  0  0
   -2.2501   -1.2222    2.3059 C   0  0  0  0  0  0  0  0  0  0  0  0
   -3.2094   -0.9270    1.3462 C   0  0  0  0  0  0  0  0  0  0  0  0
   -4.4791   -1.5195    1.4350 C   0  0  0  0  0  0  0  0  0  0  0  0
   -5.4720   -1.2441    0.4915 C   0  0  0  0  0  0  0  0  0  0  0  0
   -6.8143   -1.9126    0.5802 C   0  0  0  0  0  0  0  0  0  0  0  0
   -5.1756   -0.3874   -0.5661 C   0  0  0  0  0  0  0  0  0  0  0  0
   -3.9135    0.2108   -0.6659 C   0  0  0  0  0  0  0  0  0  0  0  0
   -2.9018   -0.0340    0.2835 C   0  0  0  0  0  0  0  0  0  0  0  0
   -1.6491    0.5385    0.2260 N   0  0  0  0  0  4  0  0  0  0  0  0
   -1.3162    1.5148   -0.8560 C   0  0  0  0  0  0  0  0  0  0  0  0
   -0.8731    0.7901   -2.1124 C   0  0  0  0  0  0  0  0  0  0  0  0
    1.6816   -1.4731    0.0706 S   0  0  0  0  0  0  0  0  0  0  0  0
    3.4286   -1.3801   -0.2920 C   0  0  0  0  0  0  0  0  0  0  0  0
    4.1878   -2.3857   -0.8746 C   0  0  0  0  0  0  0  0  0  0  0  0
    5.5414   -2.1462   -1.1000 C   0  0  0  0  0  0  0  0  0  0  0  0
    6.1086   -0.9165   -0.7451 C   0  0  0  0  0  0  0  0  0  0  0  0
    5.3317    0.0907   -0.1572 C   0  0  0  0  0  0  0  0  0  0  0  0
    3.9792   -0.1329    0.0789 C   0  0  0  0  0  0  0  0  0  0  0  0
    3.9919    2.8138   -0.8817 H   0  0  0  0  0  0  0  0  0  0  0  0
    2.3173    3.1448   -0.4188 H   0  0  0  0  0  0  0  0  0  0  0  0
    3.6365    4.0841    0.3013 H   0  0  0  0  0  0  0  0  0  0  0  0
    2.8285    2.4176    1.9300 H   0  0  0  0  0  0  0  0  0  0  0  0
    4.4755    2.0806    1.4990 H   0  0  0  0  0  0  0  0  0  0  0  0
    0.6915    1.8346    1.4960 H   0  0  0  0  0  0  0  0  0  0  0  0
   -0.2451   -0.8864    2.9629 H   0  0  0  0  0  0  0  0  0  0  0  0
   -2.4626   -1.9066    3.1268 H   0  0  0  0  0  0  0  0  0  0  0  0
   -4.7066   -2.2094    2.2492 H   0  0  0  0  0  0  0  0  0  0  0  0
   -7.0945   -2.0869    1.6244 H   0  0  0  0  0  0  0  0  0  0  0  0
   -6.7894   -2.8720    0.0544 H   0  0  0  0  0  0  0  0  0  0  0  0
   -7.5936   -1.2849    0.1355 H   0  0  0  0  0  0  0  0  0  0  0  0
   -5.9291   -0.1798   -1.3264 H   0  0  0  0  0  0  0  0  0  0  0  0
   -3.7662    0.8587   -1.5242 H   0  0  0  0  0  0  0  0  0  0  0  0
   -2.1898    2.1492   -1.0328 H   0  0  0  0  0  0  0  0  0  0  0  0
   -0.5399    2.2024   -0.5103 H   0  0  0  0  0  0  0  0  0  0  0  0
   -0.6775    1.5110   -2.9122 H   0  0  0  0  0  0  0  0  0  0  0  0
    0.0449    0.2233   -1.9424 H   0  0  0  0  0  0  0  0  0  0  0  0
   -1.6313    0.0869   -2.4683 H   0  0  0  0  0  0  0  0  0  0  0  0
    3.7448   -3.3375   -1.1495 H   0  0  0  0  0  0  0  0  0  0  0  0
    6.1617   -2.9165   -1.5536 H   0  0  0  0  0  0  0  0  0  0  0  0
    7.1675   -0.7423   -0.9278 H   0  0  0  0  0  0  0  0  0  0  0  0
    5.8128    1.0285    0.0977 H   0  0  0  0  0  0  0  0  0  0  0  0
  1  2  1  0
  2  3  1  0
  3  4  1  0
  4  5  2  3
  5  6  1  0
  6  7  2  0
  7  8  1  0
  8  9  2  0
  9 10  1  0
 10 11  2  0
 11 12  1  0
 11 13  1  0
 13 14  2  0
 14 15  1  0
 15 16  2  0
 16 17  1  0
 17 18  1  0
  4 19  1  0
 19 20  1  0
 20 21  2  0
 21 22  1  0
 22 23  2  0
 23 24  1  0
 24 25  2  0
 25  3  1  0
 16  6  1  0
 25 20  1  0
 15  9  1  0
  1 26  1  0
  1 27  1  0
  1 28  1  0
  2 29  1  0
  2 30  1  0
  5 31  1  0
  7 32  1  0
  8 33  1  0
 10 34  1  0
 12 35  1  0
 12 36  1  0
 12 37  1  0
 13 38  1  0
 14 39  1  0
 17 40  1  0
 17 41  1  0
 18 42  1  0
 18 43  1  0
 18 44  1  0
 21 45  1  0
 22 46  1  0
 23 47  1  0
 24 48  1  0
M  CHG  1  16   1
M  END
$$$$
