
     RDKit          3D

 61 66  0  0  0  0  0  0  0  0999 V2000
    6.7523    3.3187   -1.0334 F   0  0  0  0  0  0  0  0  0  0  0  0
    7.6738    2.3202   -0.9169 C   0  0  0  0  0  0  0  0  0  0  0  0
    8.2706    2.2241   -2.1397 F   0  0  0  0  0  0  0  0  0  0  0  0
    8.6325    2.7947   -0.0704 F   0  0  0  0  0  0  0  0  0  0  0  0
    7.0930    1.0096   -0.4455 C   0  0  0  0  0  0  0  0  0  0  0  0
    7.8140   -0.1818   -0.6102 C   0  0  0  0  0  0  0  0  0  0  0  0
    7.2913   -1.3949   -0.1574 C   0  0  0  0  0  0  0  0  0  0  0  0
    6.0457   -1.4321    0.4714 C   0  0  0  0  0  0  0  0  0  0  0  0
    5.3058   -0.2558    0.6501 C   0  0  0  0  0  0  0  0  0  0  0  0
    3.9632   -0.2880    1.3529 C   0  0  0  0  0  0  0  0  0  0  0  0
    2.8788    0.2920    0.5445 N   0  0  0  0  0  0  0  0  0  0  0  0
    1.7083    0.5836    1.4029 C   0  0  0  0  0  0  0  0  0  0  0  0
    0.3762    0.6867    0.6299 C   0  0  0  0  0  0  0  0  0  0  0  0
    0.0623   -0.5722   -0.0633 N   0  0  0  0  0  0  0  0  0  0  0  0
   -1.1986   -1.1552    0.0195 C   0  0  0  0  0  0  0  0  0  0  0  0
   -1.2688   -2.4565    0.1645 N   0  0  0  0  0  0  0  0  0  0  0  0
   -2.5137   -3.1025    0.2949 C   0  0  0  0  0  0  0  0  0  0  0  0
   -2.5279   -4.4888    0.4594 C   0  0  0  0  0  0  0  0  0  0  0  0
   -3.7352   -5.1792    0.6038 C   0  0  0  0  0  0  0  0  0  0  0  0
   -4.9454   -4.4849    0.5865 C   0  0  0  0  0  0  0  0  0  0  0  0
   -4.9550   -3.1002    0.4226 C   0  0  0  0  0  0  0  0  0  0  0  0
   -3.7391   -2.4230    0.2793 C   0  0  0  0  0  0  0  0  0  0  0  0
   -3.6579   -1.0334    0.0921 N   0  0  0  0  0  0  0  0  0  0  0  0
   -4.6697   -0.1068    0.0023 C   0  0  0  0  0  0  0  0  0  0  0  0
   -4.1106    1.1284   -0.2717 C   0  0  0  0  0  0  0  0  0  0  0  0
   -4.8826    2.3437   -0.4891 C   0  0  0  0  0  0  0  0  0  0  0  0
   -4.4607    3.2838   -1.4422 C   0  0  0  0  0  0  0  0  0  0  0  0
   -5.1915    4.4559   -1.6578 C   0  0  0  0  0  0  0  0  0  0  0  0
   -6.3488    4.7013   -0.9208 C   0  0  0  0  0  0  0  0  0  0  0  0
   -6.7768    3.7765    0.0328 C   0  0  0  0  0  0  0  0  0  0  0  0
   -6.0473    2.6039    0.2486 C   0  0  0  0  0  0  0  0  0  0  0  0
   -2.7041    0.9286   -0.3354 C   0  0  0  0  0  0  0  0  0  0  0  0
   -2.4423   -0.4024   -0.0593 C   0  0  0  0  0  0  0  0  0  0  0  0
    1.2271   -1.4229   -0.3666 C   0  0  0  0  0  0  0  0  0  0  0  0
    2.4947   -0.5744   -0.5946 C   0  0  0  0  0  0  0  0  0  0  0  0
    5.8427    0.9617    0.1922 C   0  0  0  0  0  0  0  0  0  0  0  0
    8.7891   -0.1669   -1.0956 H   0  0  0  0  0  0  0  0  0  0  0  0
    7.8569   -2.3132   -0.2919 H   0  0  0  0  0  0  0  0  0  0  0  0
    5.6549   -2.3882    0.8206 H   0  0  0  0  0  0  0  0  0  0  0  0
    3.7099   -1.3116    1.6588 H   0  0  0  0  0  0  0  0  0  0  0  0
    4.0899    0.2901    2.2791 H   0  0  0  0  0  0  0  0  0  0  0  0
    1.5913   -0.1957    2.1692 H   0  0  0  0  0  0  0  0  0  0  0  0
    1.8892    1.5275    1.9296 H   0  0  0  0  0  0  0  0  0  0  0  0
    0.4334    1.4976   -0.1058 H   0  0  0  0  0  0  0  0  0  0  0  0
   -0.4075    0.9430    1.3525 H   0  0  0  0  0  0  0  0  0  0  0  0
   -1.5870   -5.0329    0.4747 H   0  0  0  0  0  0  0  0  0  0  0  0
   -3.7294   -6.2584    0.7284 H   0  0  0  0  0  0  0  0  0  0  0  0
   -5.8827   -5.0260    0.6982 H   0  0  0  0  0  0  0  0  0  0  0  0
   -5.9088   -2.5838    0.4062 H   0  0  0  0  0  0  0  0  0  0  0  0
   -5.7064   -0.3956    0.1037 H   0  0  0  0  0  0  0  0  0  0  0  0
   -3.5672    3.1072   -2.0373 H   0  0  0  0  0  0  0  0  0  0  0  0
   -4.8572    5.1750   -2.4037 H   0  0  0  0  0  0  0  0  0  0  0  0
   -6.9169    5.6124   -1.0892 H   0  0  0  0  0  0  0  0  0  0  0  0
   -7.6776    3.9684    0.6119 H   0  0  0  0  0  0  0  0  0  0  0  0
   -6.3912    1.9035    1.0080 H   0  0  0  0  0  0  0  0  0  0  0  0
   -1.9629    1.6846   -0.5562 H   0  0  0  0  0  0  0  0  0  0  0  0
    1.4006   -2.1324    0.4523 H   0  0  0  0  0  0  0  0  0  0  0  0
    1.0272   -2.0020   -1.2767 H   0  0  0  0  0  0  0  0  0  0  0  0
    2.3105    0.0900   -1.4496 H   0  0  0  0  0  0  0  0  0  0  0  0
    3.3146   -1.2309   -0.9079 H   0  0  0  0  0  0  0  0  0  0  0  0
    5.2707    1.8799    0.3318 H   0  0  0  0  0  0  0  0  0  0  0  0
  1  2  1  0
  2  3  1  0
  2  4  1  0
  2  5  1  0
  5  6  2  0
  6  7  1  0
  7  8  2  0
  8  9  1  0
  9 10  1  0
 10 11  1  0
 11 12  1  0
 12 13  1  0
 13 14  1  0
 14 15  1  0
 15 16  2  0
 16 17  1  0
 17 18  2  0
 18 19  1  0
 19 20  2  0
 20 21  1  0
 21 22  2  0
 22 23  1  0
 23 24  1  0
 24 25  2  0
 25 26  1  0
 26 27  2  0
 27 28  1  0
 28 29  2  0
 29 30  1  0
 30 31  2  0
 25 32  1  0
 32 33  2  0
 14 34  1  0
 34 35  1  0
  9 36  2  0
 36  5  1  0
 35 11  1  0
 33 15  1  0
 22 17  1  0
 33 23  1  0
 31 26  1  0
  6 37  1  0
  7 38  1  0
  8 39  1  0
 10 40  1  0
 10 41  1  0
 12 42  1  0
 12 43  1  0
 13 44  1  0
 13 45  1  0
 18 46  1  0
 19 47  1  0
 20 48  1  0
 21 49  1  0
 24 50  1  0
 27 51  1  0
 28 52  1  0
 29 53  1  0
 30 54  1  0
 31 55  1  0
 32 56  1  0
 34 57  1  0
 34 58  1  0
 35 59  1  0
 35 60  1  0
 36 61  1  0
M  END
$$$$
