
     RDKit          3D

 40 42  0  0  0  0  0  0  0  0999 V2000
    4.3507   -1.5328   -1.1069 N   0  0  0  0  0  0  0  0  0  0  0  0
    2.9949   -1.4769   -1.6397 C   0  0  0  0  0  0  0  0  0  0  0  0
    1.9454   -1.1272   -0.5804 C   0  0  0  0  0  0  0  0  0  0  0  0
    2.0977    0.2908   -0.0222 C   0  0  0  0  0  0  0  0  0  0  0  0
    1.0266    0.6895    1.0095 C   0  0  0  0  0  0  0  0  0  0  0  0
   -0.3273    0.8353    0.4185 N   0  0  0  0  0  0  0  0  0  0  0  0
   -0.6071    2.0812   -0.2342 C   0  0  0  0  0  0  0  0  0  0  0  0
    0.3633    3.1034   -0.3779 C   0  0  0  0  0  0  0  0  0  0  0  0
    0.1006    4.3230   -1.0168 C   0  0  0  0  0  0  0  0  0  0  0  0
   -1.1534    4.5722   -1.5415 C   0  0  0  0  0  0  0  0  0  0  0  0
   -2.1353    3.5982   -1.4222 C   0  0  0  0  0  0  0  0  0  0  0  0
   -1.8748    2.3686   -0.7796 C   0  0  0  0  0  0  0  0  0  0  0  0
   -3.2561    1.2598   -0.7202 S   0  0  0  0  0  0  0  0  0  0  0  0
   -2.5887   -0.1442    0.1318 C   0  0  0  0  0  0  0  0  0  0  0  0
   -3.5026   -1.2039    0.3133 C   0  0  0  0  0  0  0  0  0  0  0  0
   -3.1310   -2.3778    0.9559 C   0  0  0  0  0  0  0  0  0  0  0  0
   -1.8322   -2.5105    1.4318 C   0  0  0  0  0  0  0  0  0  0  0  0
   -1.3772   -3.7803    2.1081 C   0  0  0  0  0  0  0  0  0  0  0  0
   -2.4020   -4.5409    2.5827 F   0  0  0  0  0  0  0  0  0  0  0  0
   -0.6679   -4.5850    1.2699 F   0  0  0  0  0  0  0  0  0  0  0  0
   -0.5630   -3.5451    3.1752 F   0  0  0  0  0  0  0  0  0  0  0  0
   -0.9233   -1.4471    1.2401 C   0  0  0  0  0  0  0  0  0  0  0  0
   -1.2611   -0.2312    0.5979 C   0  0  0  0  0  0  0  0  0  0  0  0
    4.6374   -0.6165   -0.7694 H   0  0  0  0  0  0  0  0  0  0  0  0
    4.3843   -2.1632   -0.3073 H   0  0  0  0  0  0  0  0  0  0  0  0
    2.9598   -0.7528   -2.4609 H   0  0  0  0  0  0  0  0  0  0  0  0
    2.7542   -2.4559   -2.0685 H   0  0  0  0  0  0  0  0  0  0  0  0
    1.9960   -1.8561    0.2371 H   0  0  0  0  0  0  0  0  0  0  0  0
    0.9605   -1.2327   -1.0486 H   0  0  0  0  0  0  0  0  0  0  0  0
    2.1085    0.9951   -0.8608 H   0  0  0  0  0  0  0  0  0  0  0  0
    3.0726    0.3807    0.4715 H   0  0  0  0  0  0  0  0  0  0  0  0
    1.0585    0.0016    1.8589 H   0  0  0  0  0  0  0  0  0  0  0  0
    1.3246    1.6252    1.4997 H   0  0  0  0  0  0  0  0  0  0  0  0
    1.3750    2.9947   -0.0030 H   0  0  0  0  0  0  0  0  0  0  0  0
    0.8849    5.0713   -1.0999 H   0  0  0  0  0  0  0  0  0  0  0  0
   -1.3693    5.5132   -2.0390 H   0  0  0  0  0  0  0  0  0  0  0  0
   -3.1213    3.8016   -1.8368 H   0  0  0  0  0  0  0  0  0  0  0  0
   -4.5238   -1.1148   -0.0558 H   0  0  0  0  0  0  0  0  0  0  0  0
   -3.8570   -3.1795    1.0767 H   0  0  0  0  0  0  0  0  0  0  0  0
    0.0788   -1.6312    1.6129 H   0  0  0  0  0  0  0  0  0  0  0  0
  1  2  1  0
  2  3  1  0
  3  4  1  0
  4  5  1  0
  5  6  1  0
  6  7  1  0
  7  8  2  0
  8  9  1  0
  9 10  2  0
 10 11  1  0
 11 12  2  0
 12 13  1  0
 13 14  1  0
 14 15  2  0
 15 16  1  0
 16 17  2  0
 17 18  1  0
 18 19  1  0
 18 20  1  0
 18 21  1  0
 17 22  1  0
 22 23  2  0
 23  6  1  0
 12  7  1  0
 23 14  1  0
  1 24  1  0
  1 25  1  0
  2 26  1  0
  2 27  1  0
  3 28  1  0
  3 29  1  0
  4 30  1  0
  4 31  1  0
  5 32  1  0
  5 33  1  0
  8 34  1  0
  9 35  1  0
 10 36  1  0
 11 37  1  0
 15 38  1  0
 16 39  1  0
 22 40  1  0
M  END
$$$$
