
     RDKit          3D

 33 35  0  0  0  0  0  0  0  0999 V2000
   -0.0244    2.4771   -0.3841 O   0  0  0  0  0  0  0  0  0  0  0  0
   -0.0105    1.2735   -0.1402 C   0  0  0  0  0  0  0  0  0  0  0  0
   -1.2737    0.4613   -0.0873 C   0  0  0  0  0  0  0  0  0  0  0  0
   -2.4181    1.1448   -0.2803 C   0  0  0  0  0  0  0  0  0  0  0  0
   -3.7184    0.5736   -0.2550 C   0  0  0  0  0  0  0  0  0  0  0  0
   -4.3472   -0.2179    0.7010 C   0  0  0  0  0  0  0  0  0  0  0  0
   -5.6615   -0.4879    0.2514 C   0  0  0  0  0  0  0  0  0  0  0  0
   -5.7864    0.1660   -0.9465 C   0  0  0  0  0  0  0  0  0  0  0  0
   -4.6375    0.8143   -1.2522 O   0  0  0  0  0  0  0  0  0  0  0  0
   -1.1139   -1.0106    0.1559 C   0  0  0  0  0  0  0  0  0  0  0  0
   -0.1417   -1.2277    1.3020 C   0  0  0  0  0  0  0  0  0  0  0  0
    1.2509   -0.7217    0.9363 C   0  0  0  0  0  0  0  0  0  0  0  0
    1.2758    0.5493    0.1326 C   0  0  0  0  0  0  0  0  0  0  0  0
    2.3607    1.1079   -0.4407 C   0  0  0  0  0  0  0  0  0  0  0  0
    3.6876    0.5986   -0.3728 C   0  0  0  0  0  0  0  0  0  0  0  0
    4.3976   -0.0252    0.6487 C   0  0  0  0  0  0  0  0  0  0  0  0
    5.7018   -0.3059    0.1743 C   0  0  0  0  0  0  0  0  0  0  0  0
    5.7413    0.1718   -1.1086 C   0  0  0  0  0  0  0  0  0  0  0  0
    4.5511    0.7230   -1.4420 O   0  0  0  0  0  0  0  0  0  0  0  0
   -2.3896    2.2067   -0.5193 H   0  0  0  0  0  0  0  0  0  0  0  0
   -3.9032   -0.5510    1.6290 H   0  0  0  0  0  0  0  0  0  0  0  0
   -6.4242   -1.0730    0.7451 H   0  0  0  0  0  0  0  0  0  0  0  0
   -6.5875    0.2719   -1.6645 H   0  0  0  0  0  0  0  0  0  0  0  0
   -2.0560   -1.5063    0.3985 H   0  0  0  0  0  0  0  0  0  0  0  0
   -0.7388   -1.4912   -0.7565 H   0  0  0  0  0  0  0  0  0  0  0  0
   -0.5003   -0.7113    2.2024 H   0  0  0  0  0  0  0  0  0  0  0  0
   -0.0867   -2.2934    1.5537 H   0  0  0  0  0  0  0  0  0  0  0  0
    1.7564   -1.5106    0.3645 H   0  0  0  0  0  0  0  0  0  0  0  0
    1.8062   -0.5841    1.8705 H   0  0  0  0  0  0  0  0  0  0  0  0
    2.2489    1.9952   -1.0631 H   0  0  0  0  0  0  0  0  0  0  0  0
    4.0262   -0.2384    1.6402 H   0  0  0  0  0  0  0  0  0  0  0  0
    6.5124   -0.7827    0.7067 H   0  0  0  0  0  0  0  0  0  0  0  0
    6.5026    0.2040   -1.8754 H   0  0  0  0  0  0  0  0  0  0  0  0
  1  2  2  0
  2  3  1  0
  3  4  2  3
  4  5  1  0
  5  6  2  0
  6  7  1  0
  7  8  2  0
  8  9  1  0
  3 10  1  0
 10 11  1  0
 11 12  1  0
 12 13  1  0
 13 14  2  3
 14 15  1  0
 15 16  2  0
 16 17  1  0
 17 18  2  0
 18 19  1  0
 13  2  1  0
 19 15  1  0
  9  5  1  0
  4 20  1  0
  6 21  1  0
  7 22  1  0
  8 23  1  0
 10 24  1  0
 10 25  1  0
 11 26  1  0
 11 27  1  0
 12 28  1  0
 12 29  1  0
 14 30  1  0
 16 31  1  0
 17 32  1  0
 18 33  1  0
M  END
$$$$
