
     RDKit          3D

 51 55  0  0  0  0  0  0  0  0999 V2000
    7.3224   -0.7529   -0.9475 C   0  0  0  0  0  0  0  0  0  0  0  0
    6.1483   -1.5021   -0.9833 C   0  0  0  0  0  0  0  0  0  0  0  0
    5.0456   -1.1115   -0.2216 C   0  0  0  0  0  0  0  0  0  0  0  0
    5.1058    0.0320    0.5853 C   0  0  0  0  0  0  0  0  0  0  0  0
    3.9130    0.4609    1.4080 C   0  0  0  0  0  0  0  0  0  0  0  0
    2.8435    1.2238    0.6007 C   0  0  0  0  0  0  0  0  0  0  0  0
    2.0095    0.3866   -0.2842 N   0  0  0  0  0  0  0  0  0  0  0  0
    1.1741   -0.5657    0.4827 C   0  0  0  0  0  0  0  0  0  0  0  0
   -0.0814   -1.0551   -0.2743 C   0  0  0  0  0  0  0  0  0  0  0  0
   -0.9635    0.0635   -0.6371 N   0  0  0  0  0  0  0  0  0  0  0  0
   -2.3372    0.0140   -0.4237 C   0  0  0  0  0  0  0  0  0  0  0  0
   -2.9326    1.1030   -0.0000 N   0  0  0  0  0  0  0  0  0  0  0  0
   -4.3128    1.1124    0.2752 C   0  0  0  0  0  0  0  0  0  0  0  0
   -4.8880    2.2968    0.7402 C   0  0  0  0  0  0  0  0  0  0  0  0
   -6.2514    2.3586    1.0406 C   0  0  0  0  0  0  0  0  0  0  0  0
   -7.0554    1.2300    0.8782 C   0  0  0  0  0  0  0  0  0  0  0  0
   -6.5019    0.0360    0.4144 C   0  0  0  0  0  0  0  0  0  0  0  0
   -5.1360   -0.0102    0.1187 C   0  0  0  0  0  0  0  0  0  0  0  0
   -4.5003   -1.1643   -0.3667 N   0  0  0  0  0  0  0  0  0  0  0  0
   -5.0343   -2.3993   -0.6499 C   0  0  0  0  0  0  0  0  0  0  0  0
   -4.0374   -3.1881   -1.1795 C   0  0  0  0  0  0  0  0  0  0  0  0
   -2.8569   -2.4097   -1.2023 C   0  0  0  0  0  0  0  0  0  0  0  0
   -3.1519   -1.1721   -0.6555 C   0  0  0  0  0  0  0  0  0  0  0  0
   -0.2970    1.3735   -0.7364 C   0  0  0  0  0  0  0  0  0  0  0  0
    1.1712    1.2165   -1.1808 C   0  0  0  0  0  0  0  0  0  0  0  0
    6.2909    0.7811    0.6093 C   0  0  0  0  0  0  0  0  0  0  0  0
    7.3936    0.3890   -0.1522 C   0  0  0  0  0  0  0  0  0  0  0  0
    8.1797   -1.0568   -1.5418 H   0  0  0  0  0  0  0  0  0  0  0  0
    6.0878   -2.3892   -1.6080 H   0  0  0  0  0  0  0  0  0  0  0  0
    4.1328   -1.7003   -0.2690 H   0  0  0  0  0  0  0  0  0  0  0  0
    3.4901   -0.4094    1.9232 H   0  0  0  0  0  0  0  0  0  0  0  0
    4.2639    1.1206    2.2130 H   0  0  0  0  0  0  0  0  0  0  0  0
    3.3611    1.9830   -0.0007 H   0  0  0  0  0  0  0  0  0  0  0  0
    2.1976    1.7693    1.3015 H   0  0  0  0  0  0  0  0  0  0  0  0
    0.8381   -0.1083    1.4234 H   0  0  0  0  0  0  0  0  0  0  0  0
    1.7797   -1.4403    0.7447 H   0  0  0  0  0  0  0  0  0  0  0  0
    0.2182   -1.5865   -1.1851 H   0  0  0  0  0  0  0  0  0  0  0  0
   -0.6004   -1.7678    0.3764 H   0  0  0  0  0  0  0  0  0  0  0  0
   -4.2635    3.1767    0.8691 H   0  0  0  0  0  0  0  0  0  0  0  0
   -6.6833    3.2886    1.4010 H   0  0  0  0  0  0  0  0  0  0  0  0
   -8.1160    1.2826    1.1121 H   0  0  0  0  0  0  0  0  0  0  0  0
   -7.1478   -0.8270    0.2927 H   0  0  0  0  0  0  0  0  0  0  0  0
   -6.0769   -2.6229   -0.4773 H   0  0  0  0  0  0  0  0  0  0  0  0
   -4.1526   -4.2079   -1.5236 H   0  0  0  0  0  0  0  0  0  0  0  0
   -1.8957   -2.7249   -1.5834 H   0  0  0  0  0  0  0  0  0  0  0  0
   -0.3384    1.8915    0.2299 H   0  0  0  0  0  0  0  0  0  0  0  0
   -0.8189    1.9939   -1.4748 H   0  0  0  0  0  0  0  0  0  0  0  0
    1.6128    2.2073   -1.3429 H   0  0  0  0  0  0  0  0  0  0  0  0
    1.1800    0.7282   -2.1643 H   0  0  0  0  0  0  0  0  0  0  0  0
    6.3642    1.6767    1.2217 H   0  0  0  0  0  0  0  0  0  0  0  0
    8.3077    0.9762   -0.1258 H   0  0  0  0  0  0  0  0  0  0  0  0
  1  2  2  0
  2  3  1  0
  3  4  2  0
  4  5  1  0
  5  6  1  0
  6  7  1  0
  7  8  1  0
  8  9  1  0
  9 10  1  0
 10 11  1  0
 11 12  2  0
 12 13  1  0
 13 14  2  0
 14 15  1  0
 15 16  2  0
 16 17  1  0
 17 18  2  0
 18 19  1  0
 19 20  1  0
 20 21  2  0
 21 22  1  0
 22 23  2  0
 10 24  1  0
 24 25  1  0
  4 26  1  0
 26 27  2  0
 27  1  1  0
 25  7  1  0
 23 11  1  0
 18 13  1  0
 23 19  1  0
  1 28  1  0
  2 29  1  0
  3 30  1  0
  5 31  1  0
  5 32  1  0
  6 33  1  0
  6 34  1  0
  8 35  1  0
  8 36  1  0
  9 37  1  0
  9 38  1  0
 14 39  1  0
 15 40  1  0
 16 41  1  0
 17 42  1  0
 20 43  1  0
 21 44  1  0
 22 45  1  0
 24 46  1  0
 24 47  1  0
 25 48  1  0
 25 49  1  0
 26 50  1  0
 27 51  1  0
M  END
$$$$
