
     RDKit          3D

 52 56  0  0  0  0  0  0  0  0999 V2000
    3.4795   -2.7941   -1.1953 O   0  0  0  0  0  0  0  0  0  0  0  0
    2.6452   -1.9064   -1.3712 C   0  0  0  0  0  0  0  0  0  0  0  0
    1.4451   -2.1391   -2.2780 C   0  0  0  0  0  0  0  0  0  0  0  0
   -0.0235   -2.6248   -1.3274 S   0  0  0  0  0  0  0  0  0  0  0  0
   -0.6904   -1.0761   -0.9188 C   0  0  0  0  0  0  0  0  0  0  0  0
   -0.0060    0.0436   -0.9764 N   0  0  0  0  0  0  0  0  0  0  0  0
   -0.7845    1.0381   -0.4691 N   0  0  0  0  0  0  0  0  0  0  0  0
   -1.9569    0.5227   -0.1410 C   0  0  0  0  0  0  0  0  0  0  0  0
   -3.1585    1.3385    0.2282 C   0  0  0  0  0  0  0  0  0  0  0  0
   -4.1540    1.4436   -0.8992 C   0  0  0  0  0  0  0  0  0  0  0  0
   -5.3856    0.8278   -1.0192 C   0  0  0  0  0  0  0  0  0  0  0  0
   -6.0511    1.1729   -2.2335 C   0  0  0  0  0  0  0  0  0  0  0  0
   -5.3116    2.0514   -2.9920 C   0  0  0  0  0  0  0  0  0  0  0  0
   -3.8253    2.4501   -2.2497 S   0  0  0  0  0  0  0  0  0  0  0  0
   -1.9346   -0.8531   -0.3578 N   0  0  0  0  0  0  0  0  0  0  0  0
   -2.9681   -1.7846   -0.0816 C   0  0  0  0  0  0  0  0  0  0  0  0
   -3.3335   -2.7408   -1.0383 C   0  0  0  0  0  0  0  0  0  0  0  0
   -4.3577   -3.6479   -0.7597 C   0  0  0  0  0  0  0  0  0  0  0  0
   -5.0133   -3.6086    0.4709 C   0  0  0  0  0  0  0  0  0  0  0  0
   -4.6448   -2.6643    1.4275 C   0  0  0  0  0  0  0  0  0  0  0  0
   -3.6245   -1.7507    1.1548 C   0  0  0  0  0  0  0  0  0  0  0  0
    2.6813   -0.6371   -0.8218 N   0  0  0  0  0  0  0  0  0  0  0  0
    3.7136   -0.0523   -0.0631 C   0  0  0  0  0  0  0  0  0  0  0  0
    4.9656   -0.6389    0.1276 C   0  0  0  0  0  0  0  0  0  0  0  0
    5.9537    0.0224    0.8654 C   0  0  0  0  0  0  0  0  0  0  0  0
    5.6923    1.2720    1.4202 C   0  0  0  0  0  0  0  0  0  0  0  0
    4.4486    1.8741    1.2191 C   0  0  0  0  0  0  0  0  0  0  0  0
    3.4604    1.2101    0.4918 C   0  0  0  0  0  0  0  0  0  0  0  0
    4.1295    3.1167    1.7050 O   0  0  0  0  0  0  0  0  0  0  0  0
    5.3036    3.8395    2.0912 C   0  0  0  0  0  0  0  0  0  0  0  0
    6.2304    2.9582    2.9121 C   0  0  0  0  0  0  0  0  0  0  0  0
    6.7073    1.8560    2.1333 O   0  0  0  0  0  0  0  0  0  0  0  0
    1.2548   -1.2607   -2.9037 H   0  0  0  0  0  0  0  0  0  0  0  0
    1.6956   -2.9577   -2.9588 H   0  0  0  0  0  0  0  0  0  0  0  0
   -2.8291    2.3476    0.5080 H   0  0  0  0  0  0  0  0  0  0  0  0
   -3.6532    0.9473    1.1235 H   0  0  0  0  0  0  0  0  0  0  0  0
   -5.7952    0.1561   -0.2740 H   0  0  0  0  0  0  0  0  0  0  0  0
   -7.0230    0.8039   -2.5287 H   0  0  0  0  0  0  0  0  0  0  0  0
   -5.5689    2.4817   -3.9487 H   0  0  0  0  0  0  0  0  0  0  0  0
   -2.8658   -2.7793   -2.0178 H   0  0  0  0  0  0  0  0  0  0  0  0
   -4.6461   -4.3868   -1.5067 H   0  0  0  0  0  0  0  0  0  0  0  0
   -5.8046   -4.3223    0.6854 H   0  0  0  0  0  0  0  0  0  0  0  0
   -5.1429   -2.6512    2.3950 H   0  0  0  0  0  0  0  0  0  0  0  0
   -3.3244   -1.0642    1.9434 H   0  0  0  0  0  0  0  0  0  0  0  0
    1.8280   -0.0827   -0.9081 H   0  0  0  0  0  0  0  0  0  0  0  0
    5.2102   -1.6078   -0.2924 H   0  0  0  0  0  0  0  0  0  0  0  0
    6.9237   -0.4452    1.0084 H   0  0  0  0  0  0  0  0  0  0  0  0
    2.4988    1.6964    0.3506 H   0  0  0  0  0  0  0  0  0  0  0  0
    5.7983    4.2103    1.1845 H   0  0  0  0  0  0  0  0  0  0  0  0
    4.9842    4.7032    2.6841 H   0  0  0  0  0  0  0  0  0  0  0  0
    5.7243    2.5615    3.8017 H   0  0  0  0  0  0  0  0  0  0  0  0
    7.1031    3.5309    3.2444 H   0  0  0  0  0  0  0  0  0  0  0  0
  1  2  2  0
  2  3  1  0
  3  4  1  0
  4  5  1  0
  5  6  2  0
  6  7  1  0
  7  8  2  0
  8  9  1  0
  9 10  1  0
 10 11  2  0
 11 12  1  0
 12 13  2  0
 13 14  1  0
  8 15  1  0
 15 16  1  0
 16 17  2  0
 17 18  1  0
 18 19  2  0
 19 20  1  0
 20 21  2  0
  2 22  1  0
 22 23  1  0
 23 24  2  0
 24 25  1  0
 25 26  2  0
 26 27  1  0
 27 28  2  0
 27 29  1  0
 29 30  1  0
 30 31  1  0
 31 32  1  0
 15  5  1  0
 21 16  1  0
 28 23  1  0
 14 10  1  0
 32 26  1  0
  3 33  1  0
  3 34  1  0
  9 35  1  0
  9 36  1  0
 11 37  1  0
 12 38  1  0
 13 39  1  0
 17 40  1  0
 18 41  1  0
 19 42  1  0
 20 43  1  0
 21 44  1  0
 22 45  1  0
 24 46  1  0
 25 47  1  0
 28 48  1  0
 30 49  1  0
 30 50  1  0
 31 51  1  0
 31 52  1  0
M  END
$$$$
