
     RDKit          3D

 35 37  0  0  0  0  0  0  0  0999 V2000
    6.5348   -0.3938    0.4868 C   0  0  0  0  0  0  0  0  0  0  0  0
    5.1333   -0.0136    0.8676 C   0  0  0  0  0  0  0  0  0  0  0  0
    4.8871    0.6568    2.0755 C   0  0  0  0  0  0  0  0  0  0  0  0
    3.5898    1.0005    2.4777 C   0  0  0  0  0  0  0  0  0  0  0  0
    2.5521    0.6322    1.6213 C   0  0  0  0  0  0  0  0  0  0  0  0
    1.1925    0.7992    1.6914 N   0  0  0  0  0  0  0  0  0  0  0  0
    0.6181    0.2349    0.5687 C   0  0  0  0  0  0  0  0  0  0  0  0
   -0.8012    0.2719    0.3937 C   0  0  0  0  0  0  0  0  0  0  0  0
   -1.6459    0.8670    1.3814 C   0  0  0  0  0  0  0  0  0  0  0  0
   -2.2604    1.3727    2.2265 N   0  0  0  0  0  0  0  0  0  0  0  0
   -1.3060   -0.2877   -0.7256 C   0  0  0  0  0  0  0  0  0  0  0  0
   -2.7288   -0.3574   -1.0782 C   0  0  0  0  0  0  0  0  0  0  0  0
   -3.3739   -1.6037   -1.0819 C   0  0  0  0  0  0  0  0  0  0  0  0
   -4.7257   -1.6999   -1.4233 C   0  0  0  0  0  0  0  0  0  0  0  0
   -5.4227   -0.5502   -1.7640 C   0  0  0  0  0  0  0  0  0  0  0  0
   -6.7246   -0.6602   -2.1572 O   0  0  0  0  0  0  0  0  0  0  0  0
   -4.7937    0.6908   -1.7377 C   0  0  0  0  0  0  0  0  0  0  0  0
   -5.5009    1.8287   -1.9999 O   0  0  0  0  0  0  0  0  0  0  0  0
   -3.4463    0.7965   -1.4177 C   0  0  0  0  0  0  0  0  0  0  0  0
    1.5579   -0.2808   -0.2058 N   0  0  0  0  0  0  0  0  0  0  0  0
    2.7529   -0.0431    0.4267 C   0  0  0  0  0  0  0  0  0  0  0  0
    4.0579   -0.3800    0.0388 C   0  0  0  0  0  0  0  0  0  0  0  0
    6.7821   -1.3751    0.9032 H   0  0  0  0  0  0  0  0  0  0  0  0
    6.6473   -0.4325   -0.6019 H   0  0  0  0  0  0  0  0  0  0  0  0
    7.2541    0.3422    0.8611 H   0  0  0  0  0  0  0  0  0  0  0  0
    5.7209    0.9225    2.7243 H   0  0  0  0  0  0  0  0  0  0  0  0
    3.4109    1.5232    3.4110 H   0  0  0  0  0  0  0  0  0  0  0  0
    0.7055    1.2604    2.4476 H   0  0  0  0  0  0  0  0  0  0  0  0
   -0.6434   -0.7568   -1.4533 H   0  0  0  0  0  0  0  0  0  0  0  0
   -2.8281   -2.5090   -0.8235 H   0  0  0  0  0  0  0  0  0  0  0  0
   -5.2217   -2.6659   -1.4389 H   0  0  0  0  0  0  0  0  0  0  0  0
   -6.8609    0.0275   -2.8348 H   0  0  0  0  0  0  0  0  0  0  0  0
   -6.3571    1.7213   -1.5452 H   0  0  0  0  0  0  0  0  0  0  0  0
   -2.9719    1.7739   -1.4228 H   0  0  0  0  0  0  0  0  0  0  0  0
    4.2163   -0.9145   -0.8918 H   0  0  0  0  0  0  0  0  0  0  0  0
  1  2  1  0
  2  3  2  0
  3  4  1  0
  4  5  2  0
  5  6  1  0
  6  7  1  0
  7  8  1  0
  8  9  1  0
  9 10  3  0
  8 11  2  3
 11 12  1  0
 12 13  2  0
 13 14  1  0
 14 15  2  0
 15 16  1  0
 15 17  1  0
 17 18  1  0
 17 19  2  0
  7 20  2  0
 20 21  1  0
 21 22  2  0
 22  2  1  0
 21  5  1  0
 19 12  1  0
  1 23  1  0
  1 24  1  0
  1 25  1  0
  3 26  1  0
  4 27  1  0
  6 28  1  0
 11 29  1  0
 13 30  1  0
 14 31  1  0
 16 32  1  0
 18 33  1  0
 19 34  1  0
 22 35  1  0
M  END
$$$$
