
     RDKit          3D

 61 65  0  0  0  0  0  0  0  0999 V2000
    2.3399   -4.2926    3.4549 C   0  0  0  0  0  0  0  0  0  0  0  0
    2.8674   -3.0974    2.7186 C   0  0  0  0  0  0  0  0  0  0  0  0
    4.0463   -2.4759    3.1240 C   0  0  0  0  0  0  0  0  0  0  0  0
    4.5509   -1.3889    2.4032 C   0  0  0  0  0  0  0  0  0  0  0  0
    3.9161   -0.8978    1.2714 C   0  0  0  0  0  0  0  0  0  0  0  0
    4.4595    0.1534    0.6313 N   0  0  0  0  0  0  0  0  0  0  0  0
    3.8712    0.6539   -0.4853 C   0  0  0  0  0  0  0  0  0  0  0  0
    4.5634    1.7992   -1.1149 C   0  0  0  0  0  0  0  0  0  0  0  0
    5.9609    1.9349   -1.0120 C   0  0  0  0  0  0  0  0  0  0  0  0
    6.6388    3.0070   -1.5995 C   0  0  0  0  0  0  0  0  0  0  0  0
    5.9311    3.9751   -2.3028 C   0  0  0  0  0  0  0  0  0  0  0  0
    4.5479    3.8724   -2.4158 C   0  0  0  0  0  0  0  0  0  0  0  0
    3.8725    2.7974   -1.8275 C   0  0  0  0  0  0  0  0  0  0  0  0
    2.7008    0.1091   -0.9837 C   0  0  0  0  0  0  0  0  0  0  0  0
    2.1321   -0.9663   -0.3019 C   0  0  0  0  0  0  0  0  0  0  0  0
    0.8717   -1.5126   -0.8342 C   0  0  0  0  0  0  0  0  0  0  0  0
    0.9234   -2.5404   -1.5020 O   0  0  0  0  0  0  0  0  0  0  0  0
   -0.3039   -0.8250   -0.5614 N   0  0  0  0  0  0  0  0  0  0  0  0
   -1.5565   -1.3424   -1.1153 C   0  0  0  0  0  0  0  0  0  0  0  0
   -2.6155   -0.2463   -1.2646 C   0  0  0  0  0  0  0  0  0  0  0  0
   -2.9185    0.4419    0.0357 N   0  0  0  0  0  0  0  0  0  0  0  0
   -4.4058    0.0110    0.7480 S   0  0  0  0  0  6  0  0  0  0  0  0
   -4.5754    0.8016    1.9462 O   0  0  0  0  0  0  0  0  0  0  0  0
   -4.4766   -1.4333    0.7672 O   0  0  0  0  0  0  0  0  0  0  0  0
   -5.6664    0.5238   -0.2736 C   0  0  0  0  0  0  0  0  0  0  0  0
   -5.8705    1.8339   -0.7570 C   0  0  0  0  0  0  0  0  0  0  0  0
   -5.0830    3.0616   -0.4940 C   0  0  0  0  0  0  0  0  0  0  0  0
   -6.9418    1.8812   -1.5608 N   0  0  0  0  0  0  0  0  0  0  0  0
   -7.4567    0.5955   -1.5834 O   0  0  0  0  0  0  0  0  0  0  0  0
   -6.6935   -0.2176   -0.8019 C   0  0  0  0  0  0  0  0  0  0  0  0
   -7.1187   -1.6267   -0.7087 C   0  0  0  0  0  0  0  0  0  0  0  0
   -1.7829    0.4100    1.0171 C   0  0  0  0  0  0  0  0  0  0  0  0
   -0.4168    0.3432    0.3231 C   0  0  0  0  0  0  0  0  0  0  0  0
    2.7323   -1.5180    0.8451 C   0  0  0  0  0  0  0  0  0  0  0  0
    2.2217   -2.6232    1.5726 C   0  0  0  0  0  0  0  0  0  0  0  0
    2.7807   -5.2077    3.0475 H   0  0  0  0  0  0  0  0  0  0  0  0
    2.5781   -4.2294    4.5222 H   0  0  0  0  0  0  0  0  0  0  0  0
    1.2501   -4.3553    3.3685 H   0  0  0  0  0  0  0  0  0  0  0  0
    4.5872   -2.8305    3.9988 H   0  0  0  0  0  0  0  0  0  0  0  0
    5.4719   -0.9137    2.7345 H   0  0  0  0  0  0  0  0  0  0  0  0
    6.5373    1.1900   -0.4644 H   0  0  0  0  0  0  0  0  0  0  0  0
    7.7186    3.0820   -1.5020 H   0  0  0  0  0  0  0  0  0  0  0  0
    6.4560    4.8106   -2.7578 H   0  0  0  0  0  0  0  0  0  0  0  0
    3.9912    4.6328   -2.9572 H   0  0  0  0  0  0  0  0  0  0  0  0
    2.7898    2.7648   -1.9224 H   0  0  0  0  0  0  0  0  0  0  0  0
    2.2386    0.4838   -1.8899 H   0  0  0  0  0  0  0  0  0  0  0  0
   -1.9081   -2.1267   -0.4345 H   0  0  0  0  0  0  0  0  0  0  0  0
   -1.3644   -1.8098   -2.0873 H   0  0  0  0  0  0  0  0  0  0  0  0
   -3.5217   -0.6685   -1.7110 H   0  0  0  0  0  0  0  0  0  0  0  0
   -2.2606    0.5254   -1.9595 H   0  0  0  0  0  0  0  0  0  0  0  0
   -5.5526    3.9432   -0.9423 H   0  0  0  0  0  0  0  0  0  0  0  0
   -4.9967    3.2432    0.5821 H   0  0  0  0  0  0  0  0  0  0  0  0
   -4.0764    2.9689   -0.9140 H   0  0  0  0  0  0  0  0  0  0  0  0
   -8.0871   -1.7845   -1.1945 H   0  0  0  0  0  0  0  0  0  0  0  0
   -6.3856   -2.2793   -1.1927 H   0  0  0  0  0  0  0  0  0  0  0  0
   -7.2168   -1.9285    0.3383 H   0  0  0  0  0  0  0  0  0  0  0  0
   -1.8874   -0.4614    1.6753 H   0  0  0  0  0  0  0  0  0  0  0  0
   -1.8306    1.3162    1.6307 H   0  0  0  0  0  0  0  0  0  0  0  0
    0.3742    0.3287    1.0780 H   0  0  0  0  0  0  0  0  0  0  0  0
   -0.2681    1.2299   -0.3045 H   0  0  0  0  0  0  0  0  0  0  0  0
    1.3169   -3.1261    1.2329 H   0  0  0  0  0  0  0  0  0  0  0  0
  1  2  1  0
  2  3  2  0
  3  4  1  0
  4  5  2  0
  5  6  1  0
  6  7  2  0
  7  8  1  0
  8  9  2  0
  9 10  1  0
 10 11  2  0
 11 12  1  0
 12 13  2  0
  7 14  1  0
 14 15  2  0
 15 16  1  0
 16 17  2  0
 16 18  1  0
 18 19  1  0
 19 20  1  0
 20 21  1  0
 21 22  1  0
 22 23  2  0
 22 24  2  0
 22 25  1  0
 25 26  1  0
 26 27  1  0
 26 28  2  0
 28 29  1  0
 29 30  1  0
 30 31  1  0
 21 32  1  0
 32 33  1  0
 15 34  1  0
 34 35  2  0
 35  2  1  0
 34  5  1  0
 13  8  1  0
 33 18  1  0
 30 25  2  0
  1 36  1  0
  1 37  1  0
  1 38  1  0
  3 39  1  0
  4 40  1  0
  9 41  1  0
 10 42  1  0
 11 43  1  0
 12 44  1  0
 13 45  1  0
 14 46  1  0
 19 47  1  0
 19 48  1  0
 20 49  1  0
 20 50  1  0
 27 51  1  0
 27 52  1  0
 27 53  1  0
 31 54  1  0
 31 55  1  0
 31 56  1  0
 32 57  1  0
 32 58  1  0
 33 59  1  0
 33 60  1  0
 35 61  1  0
M  END
$$$$
