
     RDKit          3D

 60 64  0  0  0  0  0  0  0  0999 V2000
   -0.4599    2.4284   -1.2887 C   0  0  0  0  0  0  0  0  0  0  0  0
   -1.4246    1.5392   -0.6478 N   0  0  0  0  0  0  0  0  0  0  0  0
   -2.7136    2.0424   -0.4616 C   0  0  0  0  0  0  0  0  0  0  0  0
   -3.0198    3.1914   -0.7958 O   0  0  0  0  0  0  0  0  0  0  0  0
   -3.7721    1.1486    0.1131 C   0  0  0  0  0  0  0  0  0  0  0  0
   -5.0472    1.4207   -0.2256 C   0  0  0  0  0  0  0  0  0  0  0  0
   -6.2384    0.7110    0.2508 C   0  0  0  0  0  0  0  0  0  0  0  0
   -7.0033    1.2555    1.2868 C   0  0  0  0  0  0  0  0  0  0  0  0
   -8.1407    0.5868    1.7472 C   0  0  0  0  0  0  0  0  0  0  0  0
   -8.5277   -0.6378    1.1803 C   0  0  0  0  0  0  0  0  0  0  0  0
   -9.7687   -1.3427    1.6712 C   0  0  0  0  0  0  0  0  0  0  0  0
   -9.8942   -1.3097    3.0278 F   0  0  0  0  0  0  0  0  0  0  0  0
  -10.9100   -0.7871    1.1774 F   0  0  0  0  0  0  0  0  0  0  0  0
   -9.8157   -2.6605    1.3266 F   0  0  0  0  0  0  0  0  0  0  0  0
   -7.7596   -1.1729    0.1343 C   0  0  0  0  0  0  0  0  0  0  0  0
   -6.6214   -0.5043   -0.3255 C   0  0  0  0  0  0  0  0  0  0  0  0
   -3.3225   -0.0692    1.2372 S   0  0  0  0  0  0  0  0  0  0  0  0
   -1.8274   -0.6308    0.4705 C   0  0  0  0  0  0  0  0  0  0  0  0
   -1.4284   -1.9493    0.7558 C   0  0  0  0  0  0  0  0  0  0  0  0
   -0.2349   -2.4581    0.2514 C   0  0  0  0  0  0  0  0  0  0  0  0
    0.5768   -1.6367   -0.5235 C   0  0  0  0  0  0  0  0  0  0  0  0
    1.8376   -2.1852   -1.0686 C   0  0  0  0  0  0  0  0  0  0  0  0
    1.7716   -3.2208   -1.7253 O   0  0  0  0  0  0  0  0  0  0  0  0
    3.0233   -1.5053   -0.8247 N   0  0  0  0  0  0  0  0  0  0  0  0
    3.2067   -0.4460    0.1786 C   0  0  0  0  0  0  0  0  0  0  0  0
    4.5919   -0.4804    0.8573 C   0  0  0  0  0  0  0  0  0  0  0  0
    5.6941   -0.5166   -0.1175 N   0  0  0  0  0  0  0  0  0  0  0  0
    6.7241    0.4127   -0.0015 C   0  0  0  0  0  0  0  0  0  0  0  0
    7.2645    0.7333    1.2459 C   0  0  0  0  0  0  0  0  0  0  0  0
    8.3080    1.6541    1.3450 C   0  0  0  0  0  0  0  0  0  0  0  0
    8.8062    2.2370    0.1919 C   0  0  0  0  0  0  0  0  0  0  0  0
    8.2390    1.8633   -1.0102 C   0  0  0  0  0  0  0  0  0  0  0  0
    7.2268    0.9733   -1.1242 N   0  0  0  0  0  0  0  0  0  0  0  0
    5.3583   -0.9282   -1.4919 C   0  0  0  0  0  0  0  0  0  0  0  0
    4.2427   -1.9847   -1.4839 C   0  0  0  0  0  0  0  0  0  0  0  0
    0.1760   -0.3299   -0.8340 C   0  0  0  0  0  0  0  0  0  0  0  0
   -1.0317    0.1960   -0.3394 C   0  0  0  0  0  0  0  0  0  0  0  0
    0.4923    2.3975   -0.7487 H   0  0  0  0  0  0  0  0  0  0  0  0
   -0.3235    2.1178   -2.3296 H   0  0  0  0  0  0  0  0  0  0  0  0
   -0.7943    3.4701   -1.2887 H   0  0  0  0  0  0  0  0  0  0  0  0
   -5.2703    2.2391   -0.9089 H   0  0  0  0  0  0  0  0  0  0  0  0
   -6.7176    2.2012    1.7438 H   0  0  0  0  0  0  0  0  0  0  0  0
   -8.7256    1.0254    2.5552 H   0  0  0  0  0  0  0  0  0  0  0  0
   -8.0436   -2.1173   -0.3284 H   0  0  0  0  0  0  0  0  0  0  0  0
   -6.0382   -0.9386   -1.1353 H   0  0  0  0  0  0  0  0  0  0  0  0
   -2.0500   -2.5910    1.3786 H   0  0  0  0  0  0  0  0  0  0  0  0
    0.0597   -3.4836    0.4633 H   0  0  0  0  0  0  0  0  0  0  0  0
    2.4301   -0.5128    0.9465 H   0  0  0  0  0  0  0  0  0  0  0  0
    3.0833    0.5081   -0.3477 H   0  0  0  0  0  0  0  0  0  0  0  0
    4.6644   -1.3809    1.4791 H   0  0  0  0  0  0  0  0  0  0  0  0
    4.6521    0.3856    1.5272 H   0  0  0  0  0  0  0  0  0  0  0  0
    6.9009    0.2506    2.1465 H   0  0  0  0  0  0  0  0  0  0  0  0
    8.7309    1.8997    2.3144 H   0  0  0  0  0  0  0  0  0  0  0  0
    9.6190    2.9529    0.2263 H   0  0  0  0  0  0  0  0  0  0  0  0
    8.5935    2.2785   -1.9493 H   0  0  0  0  0  0  0  0  0  0  0  0
    6.2399   -1.3564   -1.9844 H   0  0  0  0  0  0  0  0  0  0  0  0
    5.0209   -0.0615   -2.0757 H   0  0  0  0  0  0  0  0  0  0  0  0
    4.0031   -2.2891   -2.5090 H   0  0  0  0  0  0  0  0  0  0  0  0
    4.5706   -2.8787   -0.9393 H   0  0  0  0  0  0  0  0  0  0  0  0
    0.8164    0.2459   -1.4957 H   0  0  0  0  0  0  0  0  0  0  0  0
  1  2  1  0
  2  3  1  0
  3  4  2  0
  3  5  1  0
  5  6  2  3
  6  7  1  0
  7  8  2  0
  8  9  1  0
  9 10  2  0
 10 11  1  0
 11 12  1  0
 11 13  1  0
 11 14  1  0
 10 15  1  0
 15 16  2  0
  5 17  1  0
 17 18  1  0
 18 19  2  0
 19 20  1  0
 20 21  2  0
 21 22  1  0
 22 23  2  0
 22 24  1  0
 24 25  1  0
 25 26  1  0
 26 27  1  0
 27 28  1  0
 28 29  2  0
 29 30  1  0
 30 31  2  0
 31 32  1  0
 32 33  2  0
 27 34  1  0
 34 35  1  0
 21 36  1  0
 36 37  2  0
 37  2  1  0
 16  7  1  0
 37 18  1  0
 35 24  1  0
 33 28  1  0
  1 38  1  0
  1 39  1  0
  1 40  1  0
  6 41  1  0
  8 42  1  0
  9 43  1  0
 15 44  1  0
 16 45  1  0
 19 46  1  0
 20 47  1  0
 25 48  1  0
 25 49  1  0
 26 50  1  0
 26 51  1  0
 29 52  1  0
 30 53  1  0
 31 54  1  0
 32 55  1  0
 34 56  1  0
 34 57  1  0
 35 58  1  0
 35 59  1  0
 36 60  1  0
M  END
$$$$
