
     RDKit          3D

 53 55  0  0  0  0  0  0  0  0999 V2000
   -6.8235    1.7085    0.3274 C   0  0  0  0  0  0  0  0  0  0  0  0
   -6.9202    0.4090   -0.2487 O   0  0  0  0  0  0  0  0  0  0  0  0
   -5.8025   -0.3830   -0.1794 C   0  0  0  0  0  0  0  0  0  0  0  0
   -4.5410    0.0205    0.2684 C   0  0  0  0  0  0  0  0  0  0  0  0
   -3.4790   -0.8876    0.2979 C   0  0  0  0  0  0  0  0  0  0  0  0
   -2.1731   -0.5660    0.7270 N   0  0  0  0  0  0  0  0  0  0  0  0
   -1.6944    0.6671    1.1359 C   0  0  0  0  0  0  0  0  0  0  0  0
   -2.3455    1.7000    1.2442 O   0  0  0  0  0  0  0  0  0  0  0  0
   -0.2220    0.6205    1.5034 C   0  0  0  0  0  0  0  0  0  0  0  0
    0.4723    1.9530    1.2345 C   0  0  0  0  0  0  0  0  0  0  0  0
    0.7021    2.1000   -0.2119 N   0  0  0  0  0  0  0  0  0  0  0  0
    2.0660    2.9284   -0.7418 S   0  0  0  0  0  6  0  0  0  0  0  0
    2.3448    3.9890    0.2015 O   0  0  0  0  0  0  0  0  0  0  0  0
    1.8708    3.1820   -2.1529 O   0  0  0  0  0  0  0  0  0  0  0  0
    3.3153    1.6740   -0.5991 C   0  0  0  0  0  0  0  0  0  0  0  0
    3.2664    0.5680   -1.4545 C   0  0  0  0  0  0  0  0  0  0  0  0
    4.2230   -0.4400   -1.3325 C   0  0  0  0  0  0  0  0  0  0  0  0
    5.2304   -0.3231   -0.3748 C   0  0  0  0  0  0  0  0  0  0  0  0
    5.2918    0.7896    0.4742 C   0  0  0  0  0  0  0  0  0  0  0  0
    4.3222    1.7946    0.3629 C   0  0  0  0  0  0  0  0  0  0  0  0
    6.3282    0.8276    1.5636 C   0  0  0  0  0  0  0  0  0  0  0  0
    7.5875    0.0750    1.1647 C   0  0  0  0  0  0  0  0  0  0  0  0
    7.2800   -1.2739    0.5582 C   0  0  0  0  0  0  0  0  0  0  0  0
    8.0256   -2.2433    0.6859 O   0  0  0  0  0  0  0  0  0  0  0  0
    6.1708   -1.3469   -0.2404 N   0  0  0  0  0  0  0  0  0  0  0  0
   -3.6986   -2.2038   -0.1300 C   0  0  0  0  0  0  0  0  0  0  0  0
   -4.9497   -2.6115   -0.5988 C   0  0  0  0  0  0  0  0  0  0  0  0
   -5.0131   -3.9178   -1.0029 O   0  0  0  0  0  0  0  0  0  0  0  0
   -6.2242   -4.3324   -1.6284 C   0  0  0  0  0  0  0  0  0  0  0  0
   -5.9997   -1.6962   -0.6187 C   0  0  0  0  0  0  0  0  0  0  0  0
   -7.8127    2.1722    0.2679 H   0  0  0  0  0  0  0  0  0  0  0  0
   -6.5449    1.6542    1.3867 H   0  0  0  0  0  0  0  0  0  0  0  0
   -6.1260    2.3329   -0.2389 H   0  0  0  0  0  0  0  0  0  0  0  0
   -4.3893    1.0421    0.5924 H   0  0  0  0  0  0  0  0  0  0  0  0
   -1.5119   -1.3336    0.7057 H   0  0  0  0  0  0  0  0  0  0  0  0
    0.2883   -0.1883    0.9619 H   0  0  0  0  0  0  0  0  0  0  0  0
   -0.1718    0.3909    2.5764 H   0  0  0  0  0  0  0  0  0  0  0  0
   -0.1107    2.8060    1.5990 H   0  0  0  0  0  0  0  0  0  0  0  0
    1.4295    1.9452    1.7662 H   0  0  0  0  0  0  0  0  0  0  0  0
   -0.1112    2.2637   -0.8121 H   0  0  0  0  0  0  0  0  0  0  0  0
    2.4852    0.4876   -2.2081 H   0  0  0  0  0  0  0  0  0  0  0  0
    4.1740   -1.3023   -1.9933 H   0  0  0  0  0  0  0  0  0  0  0  0
    4.3431    2.6543    1.0289 H   0  0  0  0  0  0  0  0  0  0  0  0
    5.8936    0.3747    2.4639 H   0  0  0  0  0  0  0  0  0  0  0  0
    6.5922    1.8623    1.8060 H   0  0  0  0  0  0  0  0  0  0  0  0
    8.2255   -0.0665    2.0459 H   0  0  0  0  0  0  0  0  0  0  0  0
    8.1551    0.6449    0.4207 H   0  0  0  0  0  0  0  0  0  0  0  0
    6.0568   -2.2148   -0.7479 H   0  0  0  0  0  0  0  0  0  0  0  0
   -2.8923   -2.9350   -0.1163 H   0  0  0  0  0  0  0  0  0  0  0  0
   -6.0867   -5.3592   -1.9826 H   0  0  0  0  0  0  0  0  0  0  0  0
   -6.4519   -3.7088   -2.5029 H   0  0  0  0  0  0  0  0  0  0  0  0
   -7.0540   -4.3307   -0.9126 H   0  0  0  0  0  0  0  0  0  0  0  0
   -6.9909   -1.9730   -0.9627 H   0  0  0  0  0  0  0  0  0  0  0  0
  1  2  1  0
  2  3  1  0
  3  4  2  0
  4  5  1  0
  5  6  1  0
  6  7  1  0
  7  8  2  0
  7  9  1  0
  9 10  1  0
 10 11  1  0
 11 12  1  0
 12 13  2  0
 12 14  2  0
 12 15  1  0
 15 16  2  0
 16 17  1  0
 17 18  2  0
 18 19  1  0
 19 20  2  0
 19 21  1  0
 21 22  1  0
 22 23  1  0
 23 24  2  0
 23 25  1  0
  5 26  2  0
 26 27  1  0
 27 28  1  0
 28 29  1  0
 27 30  2  0
 30  3  1  0
 20 15  1  0
 25 18  1  0
  1 31  1  0
  1 32  1  0
  1 33  1  0
  4 34  1  0
  6 35  1  0
  9 36  1  0
  9 37  1  0
 10 38  1  0
 10 39  1  0
 11 40  1  0
 16 41  1  0
 17 42  1  0
 20 43  1  0
 21 44  1  0
 21 45  1  0
 22 46  1  0
 22 47  1  0
 25 48  1  0
 26 49  1  0
 29 50  1  0
 29 51  1  0
 29 52  1  0
 30 53  1  0
M  END
$$$$
