
     RDKit          3D

 61 65  0  0  0  0  0  0  0  0999 V2000
    6.3794   -4.1743    2.3730 C   0  0  0  0  0  0  0  0  0  0  0  0
    5.1717   -3.4136    1.9095 C   0  0  0  0  0  0  0  0  0  0  0  0
    5.2641   -2.5242    0.8359 C   0  0  0  0  0  0  0  0  0  0  0  0
    4.1473   -1.7902    0.4237 C   0  0  0  0  0  0  0  0  0  0  0  0
    2.9126   -1.9192    1.0799 C   0  0  0  0  0  0  0  0  0  0  0  0
    1.7389   -1.1472    0.6464 C   0  0  0  0  0  0  0  0  0  0  0  0
    1.7972    0.2350    0.4861 C   0  0  0  0  0  0  0  0  0  0  0  0
    0.6768    0.9670    0.0683 C   0  0  0  0  0  0  0  0  0  0  0  0
    0.7701    2.4171   -0.1290 C   0  0  0  0  0  0  0  0  0  0  0  0
    0.9413    2.9615   -1.4123 C   0  0  0  0  0  0  0  0  0  0  0  0
    1.0287    4.3437   -1.5958 C   0  0  0  0  0  0  0  0  0  0  0  0
    0.9493    5.2107   -0.5018 C   0  0  0  0  0  0  0  0  0  0  0  0
    1.0777    6.6941   -0.6950 C   0  0  0  0  0  0  0  0  0  0  0  0
    0.8158    4.6747    0.7827 C   0  0  0  0  0  0  0  0  0  0  0  0
    0.7287    3.2926    0.9684 C   0  0  0  0  0  0  0  0  0  0  0  0
   -0.5088    0.3315   -0.1851 N   0  0  0  0  0  4  0  0  0  0  0  0
   -1.6616    1.0905   -0.6094 C   0  0  0  0  0  0  0  0  0  0  0  0
   -2.0182    1.0775   -1.9598 C   0  0  0  0  0  0  0  0  0  0  0  0
   -3.1309    1.8132   -2.3608 C   0  0  0  0  0  0  0  0  0  0  0  0
   -3.8622    2.5441   -1.4195 C   0  0  0  0  0  0  0  0  0  0  0  0
   -3.4897    2.5454   -0.0717 C   0  0  0  0  0  0  0  0  0  0  0  0
   -2.3805    1.8132    0.3451 C   0  0  0  0  0  0  0  0  0  0  0  0
   -0.5970   -1.0259   -0.0333 C   0  0  0  0  0  0  0  0  0  0  0  0
   -1.8784   -1.6940   -0.2827 C   0  0  0  0  0  0  0  0  0  0  0  0
   -2.8971   -1.6876    0.6842 C   0  0  0  0  0  0  0  0  0  0  0  0
   -4.1161   -2.3256    0.4409 C   0  0  0  0  0  0  0  0  0  0  0  0
   -4.3421   -2.9854   -0.7712 C   0  0  0  0  0  0  0  0  0  0  0  0
   -5.6387   -3.7017   -1.0178 C   0  0  0  0  0  0  0  0  0  0  0  0
   -3.3197   -3.0270   -1.7238 C   0  0  0  0  0  0  0  0  0  0  0  0
   -2.1002   -2.3891   -1.4827 C   0  0  0  0  0  0  0  0  0  0  0  0
    0.5206   -1.7664    0.3775 C   0  0  0  0  0  0  0  0  0  0  0  0
    2.8358   -2.8057    2.1663 C   0  0  0  0  0  0  0  0  0  0  0  0
    3.9522   -3.5397    2.5796 C   0  0  0  0  0  0  0  0  0  0  0  0
    6.9407   -3.5776    3.0983 H   0  0  0  0  0  0  0  0  0  0  0  0
    6.0899   -5.1205    2.8422 H   0  0  0  0  0  0  0  0  0  0  0  0
    7.0344   -4.4169    1.5297 H   0  0  0  0  0  0  0  0  0  0  0  0
    6.2091   -2.3993    0.3101 H   0  0  0  0  0  0  0  0  0  0  0  0
    4.2592   -1.1217   -0.4274 H   0  0  0  0  0  0  0  0  0  0  0  0
    2.7296    0.7643    0.6896 H   0  0  0  0  0  0  0  0  0  0  0  0
    1.0171    2.3202   -2.2889 H   0  0  0  0  0  0  0  0  0  0  0  0
    1.1649    4.7434   -2.6001 H   0  0  0  0  0  0  0  0  0  0  0  0
    2.1240    6.9957   -0.5891 H   0  0  0  0  0  0  0  0  0  0  0  0
    0.7228    6.9926   -1.6871 H   0  0  0  0  0  0  0  0  0  0  0  0
    0.4748    7.2350    0.0415 H   0  0  0  0  0  0  0  0  0  0  0  0
    0.7843    5.3351    1.6486 H   0  0  0  0  0  0  0  0  0  0  0  0
    0.6306    2.9137    1.9849 H   0  0  0  0  0  0  0  0  0  0  0  0
   -1.4510    0.5163   -2.6958 H   0  0  0  0  0  0  0  0  0  0  0  0
   -3.4366    1.8237   -3.4060 H   0  0  0  0  0  0  0  0  0  0  0  0
   -4.7311    3.1188   -1.7394 H   0  0  0  0  0  0  0  0  0  0  0  0
   -4.0711    3.1210    0.6468 H   0  0  0  0  0  0  0  0  0  0  0  0
   -2.0990    1.8138    1.3932 H   0  0  0  0  0  0  0  0  0  0  0  0
   -2.7569   -1.1939    1.6445 H   0  0  0  0  0  0  0  0  0  0  0  0
   -4.8910   -2.3110    1.2065 H   0  0  0  0  0  0  0  0  0  0  0  0
   -5.8916   -3.6939   -2.0839 H   0  0  0  0  0  0  0  0  0  0  0  0
   -6.4616   -3.2131   -0.4854 H   0  0  0  0  0  0  0  0  0  0  0  0
   -5.5631   -4.7397   -0.6781 H   0  0  0  0  0  0  0  0  0  0  0  0
   -3.4684   -3.5633   -2.6604 H   0  0  0  0  0  0  0  0  0  0  0  0
   -1.3271   -2.4479   -2.2473 H   0  0  0  0  0  0  0  0  0  0  0  0
    0.4289   -2.8486    0.4847 H   0  0  0  0  0  0  0  0  0  0  0  0
    1.9075   -2.9294    2.7203 H   0  0  0  0  0  0  0  0  0  0  0  0
    3.8638   -4.2113    3.4319 H   0  0  0  0  0  0  0  0  0  0  0  0
  1  2  1  0
  2  3  2  0
  3  4  1  0
  4  5  2  0
  5  6  1  0
  6  7  2  0
  7  8  1  0
  8  9  1  0
  9 10  2  0
 10 11  1  0
 11 12  2  0
 12 13  1  0
 12 14  1  0
 14 15  2  0
  8 16  2  0
 16 17  1  0
 17 18  2  0
 18 19  1  0
 19 20  2  0
 20 21  1  0
 21 22  2  0
 16 23  1  0
 23 24  1  0
 24 25  2  0
 25 26  1  0
 26 27  2  0
 27 28  1  0
 27 29  1  0
 29 30  2  0
 23 31  2  0
  5 32  1  0
 32 33  2  0
 33  2  1  0
 31  6  1  0
 15  9  1  0
 22 17  1  0
 30 24  1  0
  1 34  1  0
  1 35  1  0
  1 36  1  0
  3 37  1  0
  4 38  1  0
  7 39  1  0
 10 40  1  0
 11 41  1  0
 13 42  1  0
 13 43  1  0
 13 44  1  0
 14 45  1  0
 15 46  1  0
 18 47  1  0
 19 48  1  0
 20 49  1  0
 21 50  1  0
 22 51  1  0
 25 52  1  0
 26 53  1  0
 28 54  1  0
 28 55  1  0
 28 56  1  0
 29 57  1  0
 30 58  1  0
 31 59  1  0
 32 60  1  0
 33 61  1  0
M  CHG  1  16   1
M  END
$$$$
