
     RDKit          3D

 69 71  0  0  0  0  0  0  0  0999 V2000
   -4.3728    2.6004   -3.8903 C   0  0  0  0  0  0  0  0  0  0  0  0
   -3.9116    1.6525   -2.9377 O   0  0  0  0  0  0  0  0  0  0  0  0
   -3.1681    2.1177   -1.8825 C   0  0  0  0  0  0  0  0  0  0  0  0
   -2.8757    3.4643   -1.6596 C   0  0  0  0  0  0  0  0  0  0  0  0
   -2.1545    3.8473   -0.5307 C   0  0  0  0  0  0  0  0  0  0  0  0
   -1.7303    2.8884    0.3880 C   0  0  0  0  0  0  0  0  0  0  0  0
   -2.0047    1.5174    0.1994 C   0  0  0  0  0  0  0  0  0  0  0  0
   -1.4928    0.5508    1.2727 C   0  0  0  0  0  0  0  0  0  0  0  0
   -2.0703   -0.8902    1.3736 C   0  0  0  0  0  0  0  0  0  0  0  0
   -1.3591   -1.8894    1.4844 O   0  0  0  0  0  0  0  0  0  0  0  0
   -3.4562   -0.9460    1.4882 N   0  0  0  0  0  0  0  0  0  0  0  0
   -4.2247   -2.1937    1.6248 C   0  0  0  0  0  0  0  0  0  0  0  0
   -5.7109   -1.8124    1.7574 C   0  0  0  0  0  0  0  0  0  0  0  0
   -3.8197   -2.9631    2.8936 C   0  0  0  0  0  0  0  0  0  0  0  0
   -4.0587   -3.0902    0.3884 C   0  0  0  0  0  0  0  0  0  0  0  0
   -0.0140    0.5312    1.3786 N   0  0  0  0  0  0  0  0  0  0  0  0
    0.7410    0.1519    0.2683 C   0  0  0  0  0  0  0  0  0  0  0  0
    0.2448   -0.1719   -0.8106 O   0  0  0  0  0  0  0  0  0  0  0  0
    2.2499    0.1721    0.4446 C   0  0  0  0  0  0  0  0  0  0  0  0
    2.9676   -0.0418   -0.8846 C   0  0  0  0  0  0  0  0  0  0  0  0
    4.4738   -0.0316   -0.7194 C   0  0  0  0  0  0  0  0  0  0  0  0
    5.0167    0.0971    0.3733 O   0  0  0  0  0  0  0  0  0  0  0  0
    5.1192   -0.1827   -1.9261 N   0  0  0  0  0  0  0  0  0  0  0  0
    6.4842   -0.2363   -2.0969 C   0  0  0  0  0  0  0  0  0  0  0  0
    7.5137   -0.1823   -1.1318 C   0  0  0  0  0  0  0  0  0  0  0  0
    8.6734   -0.2913   -1.8574 C   0  0  0  0  0  0  0  0  0  0  0  0
   10.1040   -0.3137   -1.5081 C   0  0  0  0  0  0  0  0  0  0  0  0
    8.3645   -0.3935   -3.1768 O   0  0  0  0  0  0  0  0  0  0  0  0
    6.9903   -0.3668   -3.3287 N   0  0  0  0  0  0  0  0  0  0  0  0
    0.5736    0.8784    2.6551 C   0  0  0  0  0  0  0  0  0  0  0  0
   -0.0007    0.4278    3.9782 C   0  0  0  0  0  0  0  0  0  0  0  0
    1.2872   -0.1537    3.4937 C   0  0  0  0  0  0  0  0  0  0  0  0
   -2.7039    1.1488   -0.9641 C   0  0  0  0  0  0  0  0  0  0  0  0
   -3.0101   -0.1758   -1.1430 O   0  0  0  0  0  0  0  0  0  0  0  0
   -2.3976   -0.7262   -2.3117 C   0  0  0  0  0  0  0  0  0  0  0  0
   -4.9269    2.0556   -4.6612 H   0  0  0  0  0  0  0  0  0  0  0  0
   -5.0608    3.3183   -3.4317 H   0  0  0  0  0  0  0  0  0  0  0  0
   -3.5358    3.1088   -4.3803 H   0  0  0  0  0  0  0  0  0  0  0  0
   -3.2018    4.2431   -2.3407 H   0  0  0  0  0  0  0  0  0  0  0  0
   -1.9278    4.8975   -0.3620 H   0  0  0  0  0  0  0  0  0  0  0  0
   -1.1737    3.2177    1.2640 H   0  0  0  0  0  0  0  0  0  0  0  0
   -1.8554    1.0076    2.2072 H   0  0  0  0  0  0  0  0  0  0  0  0
   -3.9252   -0.2101    0.9700 H   0  0  0  0  0  0  0  0  0  0  0  0
   -6.0597   -1.2664    0.8725 H   0  0  0  0  0  0  0  0  0  0  0  0
   -5.8761   -1.1635    2.6257 H   0  0  0  0  0  0  0  0  0  0  0  0
   -6.3441   -2.6989    1.8748 H   0  0  0  0  0  0  0  0  0  0  0  0
   -4.4734   -3.8285    3.0563 H   0  0  0  0  0  0  0  0  0  0  0  0
   -3.8846   -2.3209    3.7797 H   0  0  0  0  0  0  0  0  0  0  0  0
   -2.7944   -3.3420    2.8387 H   0  0  0  0  0  0  0  0  0  0  0  0
   -4.6735   -3.9935    0.4704 H   0  0  0  0  0  0  0  0  0  0  0  0
   -4.3616   -2.5638   -0.5234 H   0  0  0  0  0  0  0  0  0  0  0  0
   -3.0214   -3.4121    0.2515 H   0  0  0  0  0  0  0  0  0  0  0  0
    2.5319   -0.6269    1.1379 H   0  0  0  0  0  0  0  0  0  0  0  0
    2.5532    1.1348    0.8709 H   0  0  0  0  0  0  0  0  0  0  0  0
    2.6784   -1.0059   -1.3206 H   0  0  0  0  0  0  0  0  0  0  0  0
    2.6887    0.7482   -1.5926 H   0  0  0  0  0  0  0  0  0  0  0  0
    4.5928   -0.2647   -2.7861 H   0  0  0  0  0  0  0  0  0  0  0  0
    7.4290   -0.0875   -0.0592 H   0  0  0  0  0  0  0  0  0  0  0  0
   10.6710   -0.9301   -2.2128 H   0  0  0  0  0  0  0  0  0  0  0  0
   10.5169    0.7001   -1.5267 H   0  0  0  0  0  0  0  0  0  0  0  0
   10.2525   -0.7271   -0.5050 H   0  0  0  0  0  0  0  0  0  0  0  0
    0.9985    1.8806    2.6451 H   0  0  0  0  0  0  0  0  0  0  0  0
    0.0355    1.1200    4.8108 H   0  0  0  0  0  0  0  0  0  0  0  0
   -0.8561   -0.2381    4.0023 H   0  0  0  0  0  0  0  0  0  0  0  0
    1.2683   -1.1912    3.1740 H   0  0  0  0  0  0  0  0  0  0  0  0
    2.2038    0.1412    3.9903 H   0  0  0  0  0  0  0  0  0  0  0  0
   -1.9861   -1.7044   -2.0455 H   0  0  0  0  0  0  0  0  0  0  0  0
   -1.5871   -0.1105   -2.7181 H   0  0  0  0  0  0  0  0  0  0  0  0
   -3.1627   -0.8810   -3.0786 H   0  0  0  0  0  0  0  0  0  0  0  0
  1  2  1  0
  2  3  1  0
  3  4  2  0
  4  5  1  0
  5  6  2  0
  6  7  1  0
  7  8  1  0
  8  9  1  0
  9 10  2  0
  9 11  1  0
 11 12  1  0
 12 13  1  0
 12 14  1  0
 12 15  1  0
  8 16  1  0
 16 17  1  0
 17 18  2  0
 17 19  1  0
 19 20  1  0
 20 21  1  0
 21 22  2  0
 21 23  1  0
 23 24  1  0
 24 25  1  0
 25 26  2  0
 26 27  1  0
 26 28  1  0
 28 29  1  0
 16 30  1  0
 30 31  1  0
 31 32  1  0
  7 33  2  0
 33 34  1  0
 34 35  1  0
 33  3  1  0
 29 24  2  0
 32 30  1  0
  1 36  1  0
  1 37  1  0
  1 38  1  0
  4 39  1  0
  5 40  1  0
  6 41  1  0
  8 42  1  0
 11 43  1  0
 13 44  1  0
 13 45  1  0
 13 46  1  0
 14 47  1  0
 14 48  1  0
 14 49  1  0
 15 50  1  0
 15 51  1  0
 15 52  1  0
 19 53  1  0
 19 54  1  0
 20 55  1  0
 20 56  1  0
 23 57  1  0
 25 58  1  0
 27 59  1  0
 27 60  1  0
 27 61  1  0
 30 62  1  0
 31 63  1  0
 31 64  1  0
 32 65  1  0
 32 66  1  0
 35 67  1  0
 35 68  1  0
 35 69  1  0
M  END
$$$$
