
     RDKit          3D

 61 65  0  0  0  0  0  0  0  0999 V2000
    1.1068   -4.2616    1.7966 C   0  0  0  0  0  0  0  0  0  0  0  0
    1.9732   -3.1387    1.3096 C   0  0  0  0  0  0  0  0  0  0  0  0
    3.1960   -3.3994    0.6954 C   0  0  0  0  0  0  0  0  0  0  0  0
    3.9852   -2.3443    0.2272 C   0  0  0  0  0  0  0  0  0  0  0  0
    3.5853   -1.0199    0.3376 C   0  0  0  0  0  0  0  0  0  0  0  0
    4.4048   -0.0599   -0.1265 N   0  0  0  0  0  0  0  0  0  0  0  0
    4.0534    1.2473   -0.0233 C   0  0  0  0  0  0  0  0  0  0  0  0
    5.0384    2.2178   -0.5443 C   0  0  0  0  0  0  0  0  0  0  0  0
    6.4167    1.9427   -0.4780 C   0  0  0  0  0  0  0  0  0  0  0  0
    7.3672    2.8456   -0.9624 C   0  0  0  0  0  0  0  0  0  0  0  0
    6.9590    4.0463   -1.5324 C   0  0  0  0  0  0  0  0  0  0  0  0
    5.6023    4.3427   -1.6185 C   0  0  0  0  0  0  0  0  0  0  0  0
    4.6530    3.4378   -1.1307 C   0  0  0  0  0  0  0  0  0  0  0  0
    2.8464    1.6231    0.5387 C   0  0  0  0  0  0  0  0  0  0  0  0
    1.9868    0.6209    0.9885 C   0  0  0  0  0  0  0  0  0  0  0  0
    0.7011    1.0633    1.5591 C   0  0  0  0  0  0  0  0  0  0  0  0
    0.7173    1.6016    2.6619 O   0  0  0  0  0  0  0  0  0  0  0  0
   -0.4553    0.8696    0.8146 N   0  0  0  0  0  0  0  0  0  0  0  0
   -1.7381    1.2546    1.4035 C   0  0  0  0  0  0  0  0  0  0  0  0
   -2.8920    0.4021    0.8657 C   0  0  0  0  0  0  0  0  0  0  0  0
   -3.0166    0.4895   -0.6295 N   0  0  0  0  0  0  0  0  0  0  0  0
   -3.8205   -0.8278   -1.3547 S   0  0  0  0  0  6  0  0  0  0  0  0
   -4.0418   -0.5083   -2.7471 O   0  0  0  0  0  0  0  0  0  0  0  0
   -3.1318   -2.0336   -0.9508 O   0  0  0  0  0  0  0  0  0  0  0  0
   -5.3870   -0.9381   -0.7004 C   0  0  0  0  0  0  0  0  0  0  0  0
   -6.0527   -2.0745   -0.1971 C   0  0  0  0  0  0  0  0  0  0  0  0
   -5.5930   -3.4806   -0.1115 C   0  0  0  0  0  0  0  0  0  0  0  0
   -7.2728   -1.7455    0.2522 N   0  0  0  0  0  0  0  0  0  0  0  0
   -7.4174   -0.3913    0.0120 O   0  0  0  0  0  0  0  0  0  0  0  0
   -6.2870    0.0903   -0.5704 C   0  0  0  0  0  0  0  0  0  0  0  0
   -6.2789    1.5238   -0.9123 C   0  0  0  0  0  0  0  0  0  0  0  0
   -1.7389    0.8686   -1.3202 C   0  0  0  0  0  0  0  0  0  0  0  0
   -0.4982    0.3713   -0.5678 C   0  0  0  0  0  0  0  0  0  0  0  0
    2.3418   -0.7408    0.9258 C   0  0  0  0  0  0  0  0  0  0  0  0
    1.5473   -1.8106    1.4139 C   0  0  0  0  0  0  0  0  0  0  0  0
    1.7170   -5.1028    2.1438 H   0  0  0  0  0  0  0  0  0  0  0  0
    0.4536   -4.6065    0.9897 H   0  0  0  0  0  0  0  0  0  0  0  0
    0.4872   -3.9399    2.6400 H   0  0  0  0  0  0  0  0  0  0  0  0
    3.5528   -4.4212    0.5810 H   0  0  0  0  0  0  0  0  0  0  0  0
    4.9444   -2.5647   -0.2374 H   0  0  0  0  0  0  0  0  0  0  0  0
    6.7598    1.0074   -0.0374 H   0  0  0  0  0  0  0  0  0  0  0  0
    8.4242    2.6042   -0.8957 H   0  0  0  0  0  0  0  0  0  0  0  0
    7.6970    4.7473   -1.9130 H   0  0  0  0  0  0  0  0  0  0  0  0
    5.2797    5.2754   -2.0731 H   0  0  0  0  0  0  0  0  0  0  0  0
    3.6019    3.6961   -1.2341 H   0  0  0  0  0  0  0  0  0  0  0  0
    2.5701    2.6663    0.6491 H   0  0  0  0  0  0  0  0  0  0  0  0
   -1.8985    2.3126    1.1614 H   0  0  0  0  0  0  0  0  0  0  0  0
   -1.6906    1.1679    2.4949 H   0  0  0  0  0  0  0  0  0  0  0  0
   -3.8309    0.7465    1.3112 H   0  0  0  0  0  0  0  0  0  0  0  0
   -2.7284   -0.6376    1.1710 H   0  0  0  0  0  0  0  0  0  0  0  0
   -6.3963   -4.1449    0.2234 H   0  0  0  0  0  0  0  0  0  0  0  0
   -5.2563   -3.8379   -1.0899 H   0  0  0  0  0  0  0  0  0  0  0  0
   -4.7674   -3.5715    0.5999 H   0  0  0  0  0  0  0  0  0  0  0  0
   -5.6040    2.0715   -0.2474 H   0  0  0  0  0  0  0  0  0  0  0  0
   -7.2773    1.9618   -0.8161 H   0  0  0  0  0  0  0  0  0  0  0  0
   -5.9454    1.6738   -1.9433 H   0  0  0  0  0  0  0  0  0  0  0  0
   -1.7172    0.4953   -2.3492 H   0  0  0  0  0  0  0  0  0  0  0  0
   -1.7224    1.9633   -1.3904 H   0  0  0  0  0  0  0  0  0  0  0  0
   -0.5058   -0.7229   -0.5151 H   0  0  0  0  0  0  0  0  0  0  0  0
    0.4043    0.6808   -1.1029 H   0  0  0  0  0  0  0  0  0  0  0  0
    0.5887   -1.6042    1.8880 H   0  0  0  0  0  0  0  0  0  0  0  0
  1  2  1  0
  2  3  2  0
  3  4  1  0
  4  5  2  0
  5  6  1  0
  6  7  2  0
  7  8  1  0
  8  9  2  0
  9 10  1  0
 10 11  2  0
 11 12  1  0
 12 13  2  0
  7 14  1  0
 14 15  2  0
 15 16  1  0
 16 17  2  0
 16 18  1  0
 18 19  1  0
 19 20  1  0
 20 21  1  0
 21 22  1  0
 22 23  2  0
 22 24  2  0
 22 25  1  0
 25 26  1  0
 26 27  1  0
 26 28  2  0
 28 29  1  0
 29 30  1  0
 30 31  1  0
 21 32  1  0
 32 33  1  0
 15 34  1  0
 34 35  2  0
 35  2  1  0
 34  5  1  0
 13  8  1  0
 33 18  1  0
 30 25  2  0
  1 36  1  0
  1 37  1  0
  1 38  1  0
  3 39  1  0
  4 40  1  0
  9 41  1  0
 10 42  1  0
 11 43  1  0
 12 44  1  0
 13 45  1  0
 14 46  1  0
 19 47  1  0
 19 48  1  0
 20 49  1  0
 20 50  1  0
 27 51  1  0
 27 52  1  0
 27 53  1  0
 31 54  1  0
 31 55  1  0
 31 56  1  0
 32 57  1  0
 32 58  1  0
 33 59  1  0
 33 60  1  0
 35 61  1  0
M  END
$$$$
