
     RDKit          3D

 44 46  0  0  0  0  0  0  0  0999 V2000
   -6.5788    1.6827   -2.5996 C   0  0  0  0  0  0  0  0  0  0  0  0
   -5.5006    1.1029   -1.7319 C   0  0  0  0  0  0  0  0  0  0  0  0
   -5.0220   -0.1917   -1.9682 C   0  0  0  0  0  0  0  0  0  0  0  0
   -4.0407   -0.7602   -1.1437 C   0  0  0  0  0  0  0  0  0  0  0  0
   -3.5542   -2.1533   -1.4240 C   0  0  0  0  0  0  0  0  0  0  0  0
   -3.5170    0.0069   -0.0914 C   0  0  0  0  0  0  0  0  0  0  0  0
   -2.5330   -0.5252    0.7045 O   0  0  0  0  0  0  0  0  0  0  0  0
   -1.2470   -0.1881    0.1907 C   0  0  0  0  0  0  0  0  0  0  0  0
   -0.1178   -0.7728    1.0496 C   0  0  0  0  0  0  0  0  0  0  0  0
   -0.3346   -1.4465    2.0503 O   0  0  0  0  0  0  0  0  0  0  0  0
    1.1216   -0.4339    0.5378 N   0  0  0  0  0  0  0  0  0  0  0  0
    2.3507   -0.7774    1.0384 C   0  0  0  0  0  0  0  0  0  0  0  0
    3.4472   -0.3777    0.4374 N   0  0  0  0  0  0  0  0  0  0  0  0
    4.5606   -0.8499    1.1298 C   0  0  0  0  0  0  0  0  0  0  0  0
    5.9282   -0.5656    0.6980 C   0  0  0  0  0  0  0  0  0  0  0  0
    6.1647    0.2005   -0.4402 C   0  0  0  0  0  0  0  0  0  0  0  0
    7.4810    0.4507   -0.8211 C   0  0  0  0  0  0  0  0  0  0  0  0
    8.5199   -0.0684   -0.0586 C   0  0  0  0  0  0  0  0  0  0  0  0
    8.1988   -0.8202    1.0590 C   0  0  0  0  0  0  0  0  0  0  0  0
    6.9329   -1.0800    1.4537 N   0  0  0  0  0  0  0  0  0  0  0  0
    4.2614   -1.6033    2.2498 C   0  0  0  0  0  0  0  0  0  0  0  0
    2.5641   -1.7210    2.4368 S   0  0  0  0  0  0  0  0  0  0  0  0
   -4.0330    1.2773    0.2083 C   0  0  0  0  0  0  0  0  0  0  0  0
   -3.5384    2.0747    1.3812 C   0  0  0  0  0  0  0  0  0  0  0  0
   -5.0143    1.8212   -0.6326 C   0  0  0  0  0  0  0  0  0  0  0  0
   -7.5629    1.4207   -2.1990 H   0  0  0  0  0  0  0  0  0  0  0  0
   -6.5010    1.3044   -3.6243 H   0  0  0  0  0  0  0  0  0  0  0  0
   -6.4954    2.7735   -2.6497 H   0  0  0  0  0  0  0  0  0  0  0  0
   -5.4256   -0.7679   -2.7990 H   0  0  0  0  0  0  0  0  0  0  0  0
   -2.6458   -2.1198   -2.0330 H   0  0  0  0  0  0  0  0  0  0  0  0
   -3.3451   -2.6925   -0.4944 H   0  0  0  0  0  0  0  0  0  0  0  0
   -4.3114   -2.7326   -1.9633 H   0  0  0  0  0  0  0  0  0  0  0  0
   -1.1163    0.9011    0.1744 H   0  0  0  0  0  0  0  0  0  0  0  0
   -1.1251   -0.5849   -0.8250 H   0  0  0  0  0  0  0  0  0  0  0  0
    1.1855    0.1293   -0.2981 H   0  0  0  0  0  0  0  0  0  0  0  0
    5.3409    0.5981   -1.0241 H   0  0  0  0  0  0  0  0  0  0  0  0
    7.6912    1.0457   -1.7053 H   0  0  0  0  0  0  0  0  0  0  0  0
    9.5553    0.1081   -0.3281 H   0  0  0  0  0  0  0  0  0  0  0  0
    8.9757   -1.2473    1.6869 H   0  0  0  0  0  0  0  0  0  0  0  0
    4.9415   -2.0753    2.9452 H   0  0  0  0  0  0  0  0  0  0  0  0
   -4.2923    2.7982    1.7099 H   0  0  0  0  0  0  0  0  0  0  0  0
   -2.6301    2.6207    1.1095 H   0  0  0  0  0  0  0  0  0  0  0  0
   -3.3265    1.4265    2.2377 H   0  0  0  0  0  0  0  0  0  0  0  0
   -5.4121    2.8127   -0.4232 H   0  0  0  0  0  0  0  0  0  0  0  0
  1  2  1  0
  2  3  2  0
  3  4  1  0
  4  5  1  0
  4  6  2  0
  6  7  1  0
  7  8  1  0
  8  9  1  0
  9 10  2  0
  9 11  1  0
 11 12  1  0
 12 13  2  0
 13 14  1  0
 14 15  1  0
 15 16  2  0
 16 17  1  0
 17 18  2  0
 18 19  1  0
 19 20  2  0
 14 21  2  0
 21 22  1  0
  6 23  1  0
 23 24  1  0
 23 25  2  0
 25  2  1  0
 22 12  1  0
 20 15  1  0
  1 26  1  0
  1 27  1  0
  1 28  1  0
  3 29  1  0
  5 30  1  0
  5 31  1  0
  5 32  1  0
  8 33  1  0
  8 34  1  0
 11 35  1  0
 16 36  1  0
 17 37  1  0
 18 38  1  0
 19 39  1  0
 21 40  1  0
 24 41  1  0
 24 42  1  0
 24 43  1  0
 25 44  1  0
M  END
$$$$
