
     RDKit          3D

 57 61  0  0  0  0  0  0  0  0999 V2000
    1.2155   -4.0006    1.4345 O   0  0  0  0  0  0  0  0  0  0  0  0
    1.7256   -2.9045    1.2311 C   0  0  0  0  0  0  0  0  0  0  0  0
    0.9802   -1.7318    1.2710 N   0  0  0  0  0  0  0  0  0  0  0  0
    1.5086   -0.4600    1.0817 C   0  0  0  0  0  0  0  0  0  0  0  0
    0.5331    0.7089    1.1548 C   0  0  0  0  0  0  0  0  0  0  0  0
   -0.1663    0.7904    2.5145 C   0  0  0  0  0  0  0  0  0  0  0  0
   -1.4723    1.5613    2.3951 C   0  0  0  0  0  0  0  0  0  0  0  0
   -2.4271    0.8180    1.5277 N   0  0  0  0  0  0  0  0  0  0  0  0
   -3.8522    1.7218    1.1900 S   0  0  0  0  0  6  0  0  0  0  0  0
   -4.3193    2.3069    2.4262 O   0  0  0  0  0  0  0  0  0  0  0  0
   -3.5355    2.5220    0.0298 O   0  0  0  0  0  0  0  0  0  0  0  0
   -5.0330    0.4617    0.7447 C   0  0  0  0  0  0  0  0  0  0  0  0
   -5.0123   -0.7281    1.4953 C   0  0  0  0  0  0  0  0  0  0  0  0
   -5.8834   -1.7707    1.1871 C   0  0  0  0  0  0  0  0  0  0  0  0
   -6.7800   -1.6314    0.1332 C   0  0  0  0  0  0  0  0  0  0  0  0
   -6.8149   -0.4444   -0.6038 C   0  0  0  0  0  0  0  0  0  0  0  0
   -5.9526    0.6311   -0.3049 C   0  0  0  0  0  0  0  0  0  0  0  0
   -6.0695    1.9033   -1.1120 C   0  0  0  0  0  0  0  0  0  0  0  0
   -6.0792    3.0290   -0.3519 F   0  0  0  0  0  0  0  0  0  0  0  0
   -7.2334    1.9562   -1.8290 F   0  0  0  0  0  0  0  0  0  0  0  0
   -5.0833    2.0313   -2.0376 F   0  0  0  0  0  0  0  0  0  0  0  0
   -1.8211    0.1196    0.3585 C   0  0  0  0  0  0  0  0  0  0  0  0
   -0.4588    0.6881   -0.0181 C   0  0  0  0  0  0  0  0  0  0  0  0
    2.7673   -0.2243    0.8276 N   0  0  0  0  0  0  0  0  0  0  0  0
    3.5132   -1.3548    0.7595 C   0  0  0  0  0  0  0  0  0  0  0  0
    3.1093   -2.6558    0.9372 C   0  0  0  0  0  0  0  0  0  0  0  0
    4.1585   -3.5093    0.7944 N   0  0  0  0  0  0  0  0  0  0  0  0
    5.2338   -2.7714    0.5182 N   0  0  0  0  0  0  0  0  0  0  0  0
    4.8442   -1.4725    0.4779 N   0  0  0  0  0  0  0  0  0  0  0  0
    5.7987   -0.4191    0.2025 C   0  0  0  0  0  0  0  0  0  0  0  0
    5.7322    0.0260   -1.2381 C   0  0  0  0  0  0  0  0  0  0  0  0
    5.0933    1.2282   -1.5857 C   0  0  0  0  0  0  0  0  0  0  0  0
    5.0263    1.6399   -2.9205 C   0  0  0  0  0  0  0  0  0  0  0  0
    5.5907    0.8515   -3.9215 C   0  0  0  0  0  0  0  0  0  0  0  0
    6.2153   -0.3428   -3.5810 C   0  0  0  0  0  0  0  0  0  0  0  0
    6.7533   -1.1023   -4.5447 F   0  0  0  0  0  0  0  0  0  0  0  0
    6.2913   -0.7620   -2.2558 C   0  0  0  0  0  0  0  0  0  0  0  0
    0.0098   -1.8736    1.5041 H   0  0  0  0  0  0  0  0  0  0  0  0
    1.1391    1.6195    1.0368 H   0  0  0  0  0  0  0  0  0  0  0  0
   -0.3691   -0.2039    2.9295 H   0  0  0  0  0  0  0  0  0  0  0  0
    0.4970    1.2884    3.2323 H   0  0  0  0  0  0  0  0  0  0  0  0
   -1.2869    2.5648    1.9940 H   0  0  0  0  0  0  0  0  0  0  0  0
   -1.9110    1.6635    3.3938 H   0  0  0  0  0  0  0  0  0  0  0  0
   -4.3226   -0.8443    2.3296 H   0  0  0  0  0  0  0  0  0  0  0  0
   -5.8672   -2.6888    1.7713 H   0  0  0  0  0  0  0  0  0  0  0  0
   -7.4636   -2.4427   -0.1097 H   0  0  0  0  0  0  0  0  0  0  0  0
   -7.5394   -0.3562   -1.4146 H   0  0  0  0  0  0  0  0  0  0  0  0
   -1.7385   -0.9412    0.6182 H   0  0  0  0  0  0  0  0  0  0  0  0
   -2.4787    0.1604   -0.5164 H   0  0  0  0  0  0  0  0  0  0  0  0
   -0.0493    0.1311   -0.8693 H   0  0  0  0  0  0  0  0  0  0  0  0
   -0.6026    1.7190   -0.3677 H   0  0  0  0  0  0  0  0  0  0  0  0
    6.8024   -0.7885    0.4438 H   0  0  0  0  0  0  0  0  0  0  0  0
    5.5883    0.4101    0.8885 H   0  0  0  0  0  0  0  0  0  0  0  0
    4.6365    1.8504   -0.8178 H   0  0  0  0  0  0  0  0  0  0  0  0
    4.5327    2.5738   -3.1779 H   0  0  0  0  0  0  0  0  0  0  0  0
    5.5457    1.1563   -4.9627 H   0  0  0  0  0  0  0  0  0  0  0  0
    6.7812   -1.7076   -2.0314 H   0  0  0  0  0  0  0  0  0  0  0  0
  1  2  2  0
  2  3  1  0
  3  4  1  0
  4  5  1  0
  5  6  1  0
  6  7  1  0
  7  8  1  0
  8  9  1  0
  9 10  2  0
  9 11  2  0
  9 12  1  0
 12 13  2  0
 13 14  1  0
 14 15  2  0
 15 16  1  0
 16 17  2  0
 17 18  1  0
 18 19  1  0
 18 20  1  0
 18 21  1  0
  8 22  1  0
 22 23  1  0
  4 24  2  0
 24 25  1  0
 25 26  2  0
 26 27  1  0
 27 28  2  0
 28 29  1  0
 29 30  1  0
 30 31  1  0
 31 32  2  0
 32 33  1  0
 33 34  2  0
 34 35  1  0
 35 36  1  0
 35 37  2  0
 26  2  1  0
 37 31  1  0
 23  5  1  0
 29 25  1  0
 17 12  1  0
  3 38  1  0
  5 39  1  0
  6 40  1  0
  6 41  1  0
  7 42  1  0
  7 43  1  0
 13 44  1  0
 14 45  1  0
 15 46  1  0
 16 47  1  0
 22 48  1  0
 22 49  1  0
 23 50  1  0
 23 51  1  0
 30 52  1  0
 30 53  1  0
 32 54  1  0
 33 55  1  0
 34 56  1  0
 37 57  1  0
M  END
$$$$
