
     RDKit          3D

 46 49  0  0  0  0  0  0  0  0999 V2000
    4.4144    1.0186    2.0012 O   0  0  0  0  0  0  0  0  0  0  0  0
    3.6033    1.2393    1.1048 C   0  0  0  0  0  0  0  0  0  0  0  0
    2.6137    2.3914    1.2190 C   0  0  0  0  0  0  0  0  0  0  0  0
    1.0492    1.8290    1.9532 S   0  0  0  0  0  0  0  0  0  0  0  0
    0.3358    0.9926    0.6199 C   0  0  0  0  0  0  0  0  0  0  0  0
    0.7790    1.0198   -0.6157 N   0  0  0  0  0  0  0  0  0  0  0  0
    0.0203    0.1534   -1.3518 N   0  0  0  0  0  0  0  0  0  0  0  0
   -0.8958   -0.3717   -0.5583 C   0  0  0  0  0  0  0  0  0  0  0  0
   -1.9109   -1.3888   -0.9702 C   0  0  0  0  0  0  0  0  0  0  0  0
   -3.3035   -0.8390   -1.0948 C   0  0  0  0  0  0  0  0  0  0  0  0
   -3.7166    0.3944   -1.5648 C   0  0  0  0  0  0  0  0  0  0  0  0
   -5.1334    0.5414   -1.5365 C   0  0  0  0  0  0  0  0  0  0  0  0
   -5.7597   -0.5896   -1.0643 C   0  0  0  0  0  0  0  0  0  0  0  0
   -4.6440   -1.8183   -0.6577 S   0  0  0  0  0  0  0  0  0  0  0  0
   -0.7419    0.1535    0.7099 N   0  0  0  0  0  0  0  0  0  0  0  0
   -1.5053   -0.1828    1.8978 C   0  0  0  0  0  0  0  0  0  0  0  0
   -2.6774    0.7101    2.0822 C   0  0  0  0  0  0  0  0  0  0  0  0
   -4.0097    0.4721    2.3553 C   0  0  0  0  0  0  0  0  0  0  0  0
   -4.6376    1.7389    2.4281 C   0  0  0  0  0  0  0  0  0  0  0  0
   -3.6497    2.6690    2.2098 C   0  0  0  0  0  0  0  0  0  0  0  0
   -2.4568    2.0548    2.0091 O   0  0  0  0  0  0  0  0  0  0  0  0
    3.4707    0.5189   -0.0704 N   0  0  0  0  0  0  0  0  0  0  0  0
    4.2339   -0.5810   -0.5043 C   0  0  0  0  0  0  0  0  0  0  0  0
    3.8102   -1.2240   -1.6758 C   0  0  0  0  0  0  0  0  0  0  0  0
    4.5139   -2.3197   -2.1835 C   0  0  0  0  0  0  0  0  0  0  0  0
    5.6479   -2.7766   -1.5186 C   0  0  0  0  0  0  0  0  0  0  0  0
    6.6049   -4.2574   -2.1999 Br  0  0  0  0  0  0  0  0  0  0  0  0
    6.0812   -2.1469   -0.3547 C   0  0  0  0  0  0  0  0  0  0  0  0
    5.3744   -1.0494    0.1505 C   0  0  0  0  0  0  0  0  0  0  0  0
    3.0537    3.1499    1.8748 H   0  0  0  0  0  0  0  0  0  0  0  0
    2.4551    2.8687    0.2465 H   0  0  0  0  0  0  0  0  0  0  0  0
   -1.6193   -1.7973   -1.9467 H   0  0  0  0  0  0  0  0  0  0  0  0
   -1.8788   -2.2316   -0.2686 H   0  0  0  0  0  0  0  0  0  0  0  0
   -3.0315    1.1625   -1.9092 H   0  0  0  0  0  0  0  0  0  0  0  0
   -5.6646    1.4311   -1.8533 H   0  0  0  0  0  0  0  0  0  0  0  0
   -6.8211   -0.7564   -0.9433 H   0  0  0  0  0  0  0  0  0  0  0  0
   -0.8459   -0.1348    2.7696 H   0  0  0  0  0  0  0  0  0  0  0  0
   -1.8245   -1.2264    1.8098 H   0  0  0  0  0  0  0  0  0  0  0  0
   -4.4760   -0.4959    2.4783 H   0  0  0  0  0  0  0  0  0  0  0  0
   -5.6809    1.9492    2.6171 H   0  0  0  0  0  0  0  0  0  0  0  0
   -3.6317    3.7495    2.1701 H   0  0  0  0  0  0  0  0  0  0  0  0
    2.6514    0.7382   -0.6401 H   0  0  0  0  0  0  0  0  0  0  0  0
    2.9234   -0.8803   -2.2056 H   0  0  0  0  0  0  0  0  0  0  0  0
    4.1686   -2.8038   -3.0930 H   0  0  0  0  0  0  0  0  0  0  0  0
    6.9665   -2.4960    0.1701 H   0  0  0  0  0  0  0  0  0  0  0  0
    5.7454   -0.5786    1.0554 H   0  0  0  0  0  0  0  0  0  0  0  0
  1  2  2  0
  2  3  1  0
  3  4  1  0
  4  5  1  0
  5  6  2  0
  6  7  1  0
  7  8  2  0
  8  9  1  0
  9 10  1  0
 10 11  2  0
 11 12  1  0
 12 13  2  0
 13 14  1  0
  8 15  1  0
 15 16  1  0
 16 17  1  0
 17 18  2  0
 18 19  1  0
 19 20  2  0
 20 21  1  0
  2 22  1  0
 22 23  1  0
 23 24  2  0
 24 25  1  0
 25 26  2  0
 26 27  1  0
 26 28  1  0
 28 29  2  0
 15  5  1  0
 21 17  1  0
 29 23  1  0
 14 10  1  0
  3 30  1  0
  3 31  1  0
  9 32  1  0
  9 33  1  0
 11 34  1  0
 12 35  1  0
 13 36  1  0
 16 37  1  0
 16 38  1  0
 18 39  1  0
 19 40  1  0
 20 41  1  0
 22 42  1  0
 24 43  1  0
 25 44  1  0
 28 45  1  0
 29 46  1  0
M  END
$$$$
