
     RDKit          3D

 57 60  0  0  0  0  0  0  0  0999 V2000
    5.1201    1.9321    2.3375 C   0  0  0  0  0  0  0  0  0  0  0  0
    4.2336    1.1000    1.4717 C   0  0  0  0  0  0  0  0  0  0  0  0
    2.8591    0.9924    1.5518 C   0  0  0  0  0  0  0  0  0  0  0  0
    2.4162    0.1897    0.4806 C   0  0  0  0  0  0  0  0  0  0  0  0
    1.0712   -0.1707    0.1537 C   0  0  0  0  0  0  0  0  0  0  0  0
   -0.0104    0.1206    0.8964 C   0  0  0  0  0  0  0  0  0  0  0  0
   -1.3685   -0.2582    0.4943 C   0  0  0  0  0  0  0  0  0  0  0  0
   -1.6970   -1.6139    0.4504 C   0  0  0  0  0  0  0  0  0  0  0  0
   -2.9826   -2.0050    0.1226 C   0  0  0  0  0  0  0  0  0  0  0  0
   -3.9473   -1.0392   -0.1460 C   0  0  0  0  0  0  0  0  0  0  0  0
   -5.2663   -1.4249   -0.4617 C   0  0  0  0  0  0  0  0  0  0  0  0
   -6.2897   -0.5017   -0.7326 C   0  0  0  0  0  0  0  0  0  0  0  0
   -7.5921   -0.9025   -1.0164 N   0  0  0  0  0  0  0  0  0  0  0  0
   -8.5955    0.0784   -1.4337 C   0  0  0  0  0  0  0  0  0  0  0  0
   -7.8610   -2.2856   -1.4182 C   0  0  0  0  0  0  0  0  0  0  0  0
   -5.9237    0.8477   -0.6536 C   0  0  0  0  0  0  0  0  0  0  0  0
   -4.6164    1.2589   -0.3456 C   0  0  0  0  0  0  0  0  0  0  0  0
   -3.5988    0.3293   -0.0911 C   0  0  0  0  0  0  0  0  0  0  0  0
   -2.3077    0.6900    0.2113 N   0  0  0  0  0  4  0  0  0  0  0  0
   -1.9381    2.1268    0.2001 C   0  0  0  0  0  0  0  0  0  0  0  0
    3.5389   -0.2220   -0.2223 C   0  0  0  0  0  0  0  0  0  0  0  0
    3.6334   -1.1943   -1.3578 C   0  0  0  0  0  0  0  0  0  0  0  0
    4.6629    0.3689    0.3672 N   0  0  0  0  0  0  0  0  0  0  0  0
    6.0081    0.2599   -0.0922 C   0  0  0  0  0  0  0  0  0  0  0  0
    7.0439   -0.0010    0.8127 C   0  0  0  0  0  0  0  0  0  0  0  0
    8.3594   -0.1040    0.3566 C   0  0  0  0  0  0  0  0  0  0  0  0
    8.6451    0.0563   -0.9983 C   0  0  0  0  0  0  0  0  0  0  0  0
    7.6168    0.3181   -1.9020 C   0  0  0  0  0  0  0  0  0  0  0  0
    6.2985    0.4190   -1.4533 C   0  0  0  0  0  0  0  0  0  0  0  0
    5.6225    1.3143    3.0865 H   0  0  0  0  0  0  0  0  0  0  0  0
    4.5308    2.6819    2.8761 H   0  0  0  0  0  0  0  0  0  0  0  0
    5.8671    2.4744    1.7509 H   0  0  0  0  0  0  0  0  0  0  0  0
    2.2594    1.4808    2.3086 H   0  0  0  0  0  0  0  0  0  0  0  0
    0.9322   -0.7123   -0.7815 H   0  0  0  0  0  0  0  0  0  0  0  0
    0.0738    0.6559    1.8377 H   0  0  0  0  0  0  0  0  0  0  0  0
   -0.9524   -2.3741    0.6846 H   0  0  0  0  0  0  0  0  0  0  0  0
   -3.2260   -3.0669    0.0941 H   0  0  0  0  0  0  0  0  0  0  0  0
   -5.4916   -2.4894   -0.4802 H   0  0  0  0  0  0  0  0  0  0  0  0
   -8.3179    0.5384   -2.3880 H   0  0  0  0  0  0  0  0  0  0  0  0
   -9.5803   -0.3847   -1.5619 H   0  0  0  0  0  0  0  0  0  0  0  0
   -8.7257    0.8566   -0.6742 H   0  0  0  0  0  0  0  0  0  0  0  0
   -7.6208   -2.9840   -0.6094 H   0  0  0  0  0  0  0  0  0  0  0  0
   -8.9208   -2.4410   -1.6480 H   0  0  0  0  0  0  0  0  0  0  0  0
   -7.2890   -2.5499   -2.3145 H   0  0  0  0  0  0  0  0  0  0  0  0
   -6.6578    1.6311   -0.8312 H   0  0  0  0  0  0  0  0  0  0  0  0
   -4.4489    2.3313   -0.3072 H   0  0  0  0  0  0  0  0  0  0  0  0
   -0.8651    2.2825    0.3028 H   0  0  0  0  0  0  0  0  0  0  0  0
   -2.2377    2.5489   -0.7631 H   0  0  0  0  0  0  0  0  0  0  0  0
   -2.4557    2.6096    1.0332 H   0  0  0  0  0  0  0  0  0  0  0  0
    2.8207   -1.9266   -1.3141 H   0  0  0  0  0  0  0  0  0  0  0  0
    3.5623   -0.6725   -2.3167 H   0  0  0  0  0  0  0  0  0  0  0  0
    4.5617   -1.7727   -1.3291 H   0  0  0  0  0  0  0  0  0  0  0  0
    6.8467   -0.1712    1.8670 H   0  0  0  0  0  0  0  0  0  0  0  0
    9.1628   -0.3170    1.0580 H   0  0  0  0  0  0  0  0  0  0  0  0
    9.6709   -0.0225   -1.3499 H   0  0  0  0  0  0  0  0  0  0  0  0
    7.8447    0.4518   -2.9566 H   0  0  0  0  0  0  0  0  0  0  0  0
    5.5221    0.6624   -2.1727 H   0  0  0  0  0  0  0  0  0  0  0  0
  1  2  1  0
  2  3  2  0
  3  4  1  0
  4  5  1  0
  5  6  2  3
  6  7  1  0
  7  8  2  0
  8  9  1  0
  9 10  2  0
 10 11  1  0
 11 12  2  0
 12 13  1  0
 13 14  1  0
 13 15  1  0
 12 16  1  0
 16 17  2  0
 17 18  1  0
 18 19  2  0
 19 20  1  0
  4 21  2  0
 21 22  1  0
 21 23  1  0
 23 24  1  0
 24 25  2  0
 25 26  1  0
 26 27  2  0
 27 28  1  0
 28 29  2  0
 23  2  1  0
 29 24  1  0
 19  7  1  0
 18 10  1  0
  1 30  1  0
  1 31  1  0
  1 32  1  0
  3 33  1  0
  5 34  1  0
  6 35  1  0
  8 36  1  0
  9 37  1  0
 11 38  1  0
 14 39  1  0
 14 40  1  0
 14 41  1  0
 15 42  1  0
 15 43  1  0
 15 44  1  0
 16 45  1  0
 17 46  1  0
 20 47  1  0
 20 48  1  0
 20 49  1  0
 22 50  1  0
 22 51  1  0
 22 52  1  0
 25 53  1  0
 26 54  1  0
 27 55  1  0
 28 56  1  0
 29 57  1  0
M  CHG  1  19   1
M  END
$$$$
