
     RDKit          3D

 36 37  0  0  0  0  0  0  0  0999 V2000
    4.0543   -0.5200    1.6014 C   0  0  0  0  0  0  0  0  0  0  0  0
    4.4594    0.2871    0.4283 N   0  0  0  0  0  0  0  0  0  0  0  0
    5.9263    0.4927    0.3955 C   0  0  0  0  0  0  0  0  0  0  0  0
    3.8332   -0.2529   -1.0721 S   0  0  0  0  0  6  0  0  0  0  0  0
    4.2985    0.6415   -2.1100 O   0  0  0  0  0  0  0  0  0  0  0  0
    4.0639   -1.6803   -1.1482 O   0  0  0  0  0  0  0  0  0  0  0  0
    2.0877    0.0274   -0.8894 C   0  0  0  0  0  0  0  0  0  0  0  0
    1.6237    1.3407   -0.7701 C   0  0  0  0  0  0  0  0  0  0  0  0
    0.2539    1.5761   -0.6337 C   0  0  0  0  0  0  0  0  0  0  0  0
   -0.6514    0.5037   -0.6190 C   0  0  0  0  0  0  0  0  0  0  0  0
   -2.1000    0.8120   -0.4730 C   0  0  0  0  0  0  0  0  0  0  0  0
   -2.5557    1.9439   -0.4545 O   0  0  0  0  0  0  0  0  0  0  0  0
   -2.8203   -0.3269   -0.3464 O   0  0  0  0  0  0  0  0  0  0  0  0
   -4.2256   -0.1358   -0.2470 C   0  0  0  0  0  0  0  0  0  0  0  0
   -4.6585    0.2715    1.1428 C   0  0  0  0  0  0  0  0  0  0  0  0
   -6.0841   -0.2124    1.1769 C   0  0  0  0  0  0  0  0  0  0  0  0
   -6.0922   -1.4179    0.4106 O   0  0  0  0  0  0  0  0  0  0  0  0
   -4.9946   -1.4319   -0.4097 C   0  0  0  0  0  0  0  0  0  0  0  0
   -4.7129   -2.3563   -1.1555 O   0  0  0  0  0  0  0  0  0  0  0  0
   -0.1729   -0.8098   -0.7503 C   0  0  0  0  0  0  0  0  0  0  0  0
    1.1976   -1.0497   -0.8878 C   0  0  0  0  0  0  0  0  0  0  0  0
    4.3953   -0.0300    2.5195 H   0  0  0  0  0  0  0  0  0  0  0  0
    4.4910   -1.5223    1.5619 H   0  0  0  0  0  0  0  0  0  0  0  0
    2.9664   -0.5968    1.6699 H   0  0  0  0  0  0  0  0  0  0  0  0
    6.1938    1.2269   -0.3698 H   0  0  0  0  0  0  0  0  0  0  0  0
    6.2686    0.8924    1.3557 H   0  0  0  0  0  0  0  0  0  0  0  0
    6.4504   -0.4484    0.2034 H   0  0  0  0  0  0  0  0  0  0  0  0
    2.3216    2.1759   -0.7873 H   0  0  0  0  0  0  0  0  0  0  0  0
   -0.1054    2.6002   -0.5438 H   0  0  0  0  0  0  0  0  0  0  0  0
   -4.5925    0.5533   -1.0190 H   0  0  0  0  0  0  0  0  0  0  0  0
   -4.0538   -0.2468    1.8975 H   0  0  0  0  0  0  0  0  0  0  0  0
   -4.5710    1.3448    1.3328 H   0  0  0  0  0  0  0  0  0  0  0  0
   -6.7768    0.4993    0.7151 H   0  0  0  0  0  0  0  0  0  0  0  0
   -6.4190   -0.4226    2.1966 H   0  0  0  0  0  0  0  0  0  0  0  0
   -0.8561   -1.6571   -0.7580 H   0  0  0  0  0  0  0  0  0  0  0  0
    1.5570   -2.0711   -0.9984 H   0  0  0  0  0  0  0  0  0  0  0  0
  1  2  1  0
  2  3  1  0
  2  4  1  0
  4  5  2  0
  4  6  2  0
  4  7  1  0
  7  8  2  0
  8  9  1  0
  9 10  2  0
 10 11  1  0
 11 12  2  0
 11 13  1  0
 13 14  1  0
 14 15  1  0
 15 16  1  0
 16 17  1  0
 17 18  1  0
 18 19  2  0
 10 20  1  0
 20 21  2  0
 21  7  1  0
 18 14  1  0
  1 22  1  0
  1 23  1  0
  1 24  1  0
  3 25  1  0
  3 26  1  0
  3 27  1  0
  8 28  1  0
  9 29  1  0
 14 30  1  0
 15 31  1  0
 15 32  1  0
 16 33  1  0
 16 34  1  0
 20 35  1  0
 21 36  1  0
M  END
$$$$
