
     RDKit          3D

 38 40  0  0  0  0  0  0  0  0999 V2000
    0.6928    0.2770   -2.5473 O   0  0  0  0  0  0  0  0  0  0  0  0
    0.4736    0.2056   -1.3404 C   0  0  0  0  0  0  0  0  0  0  0  0
    1.4916    0.1526   -0.4263 N   0  0  0  0  0  0  0  0  0  0  0  0
    2.8588    0.2067   -0.8918 C   0  0  0  0  0  0  0  0  0  0  0  0
    3.8169    0.0255    0.2566 C   0  0  0  0  0  0  0  0  0  0  0  0
    4.0032   -1.2436    0.8262 C   0  0  0  0  0  0  0  0  0  0  0  0
    4.8741   -1.4160    1.9042 C   0  0  0  0  0  0  0  0  0  0  0  0
    5.5594   -0.3191    2.4212 C   0  0  0  0  0  0  0  0  0  0  0  0
    6.6306   -0.5295    3.7512 Cl  0  0  0  0  0  0  0  0  0  0  0  0
    5.3802    0.9484    1.8709 C   0  0  0  0  0  0  0  0  0  0  0  0
    4.5088    1.1213    0.7926 C   0  0  0  0  0  0  0  0  0  0  0  0
   -0.8042    0.1642   -0.8119 N   0  0  0  0  0  0  0  0  0  0  0  0
   -1.1359    0.0973    0.6117 C   0  0  0  0  0  0  0  0  0  0  0  0
   -2.3522   -0.7878    0.8731 C   0  0  0  0  0  0  0  0  0  0  0  0
   -3.5211   -0.3610    0.0304 C   0  0  0  0  0  0  0  0  0  0  0  0
   -4.8332   -0.5993    0.4603 C   0  0  0  0  0  0  0  0  0  0  0  0
   -5.9138   -0.2254   -0.3374 C   0  0  0  0  0  0  0  0  0  0  0  0
   -5.6913    0.3775   -1.5727 C   0  0  0  0  0  0  0  0  0  0  0  0
   -4.3872    0.6032   -2.0136 C   0  0  0  0  0  0  0  0  0  0  0  0
   -3.2899    0.2348   -1.2198 C   0  0  0  0  0  0  0  0  0  0  0  0
   -1.8911    0.4747   -1.7394 C   0  0  0  0  0  0  0  0  0  0  0  0
    1.3170    0.6532    0.4295 H   0  0  0  0  0  0  0  0  0  0  0  0
    3.0175   -0.5728   -1.6468 H   0  0  0  0  0  0  0  0  0  0  0  0
    3.0171    1.1723   -1.3868 H   0  0  0  0  0  0  0  0  0  0  0  0
    3.4653   -2.1031    0.4296 H   0  0  0  0  0  0  0  0  0  0  0  0
    5.0112   -2.4046    2.3339 H   0  0  0  0  0  0  0  0  0  0  0  0
    5.9146    1.8040    2.2752 H   0  0  0  0  0  0  0  0  0  0  0  0
    4.3762    2.1162    0.3722 H   0  0  0  0  0  0  0  0  0  0  0  0
   -1.3196    1.1255    0.9472 H   0  0  0  0  0  0  0  0  0  0  0  0
   -0.2971   -0.2956    1.1932 H   0  0  0  0  0  0  0  0  0  0  0  0
   -2.1159   -1.8316    0.6328 H   0  0  0  0  0  0  0  0  0  0  0  0
   -2.6084   -0.7351    1.9376 H   0  0  0  0  0  0  0  0  0  0  0  0
   -5.0202   -1.0785    1.4185 H   0  0  0  0  0  0  0  0  0  0  0  0
   -6.9296   -0.4093    0.0024 H   0  0  0  0  0  0  0  0  0  0  0  0
   -6.5333    0.6653   -2.1968 H   0  0  0  0  0  0  0  0  0  0  0  0
   -4.2281    1.0646   -2.9863 H   0  0  0  0  0  0  0  0  0  0  0  0
   -1.7480   -0.1138   -2.6540 H   0  0  0  0  0  0  0  0  0  0  0  0
   -1.7886    1.5362   -1.9991 H   0  0  0  0  0  0  0  0  0  0  0  0
  1  2  2  0
  2  3  1  0
  3  4  1  0
  4  5  1  0
  5  6  2  0
  6  7  1  0
  7  8  2  0
  8  9  1  0
  8 10  1  0
 10 11  2  0
  2 12  1  0
 12 13  1  0
 13 14  1  0
 14 15  1  0
 15 16  2  0
 16 17  1  0
 17 18  2  0
 18 19  1  0
 19 20  2  0
 20 21  1  0
 11  5  1  0
 21 12  1  0
 20 15  1  0
  3 22  1  0
  4 23  1  0
  4 24  1  0
  6 25  1  0
  7 26  1  0
 10 27  1  0
 11 28  1  0
 13 29  1  0
 13 30  1  0
 14 31  1  0
 14 32  1  0
 16 33  1  0
 17 34  1  0
 18 35  1  0
 19 36  1  0
 21 37  1  0
 21 38  1  0
M  END
$$$$
