
     RDKit          3D

 61 66  0  0  0  0  0  0  0  0999 V2000
    9.9755   -2.5508   -2.2359 Cl  0  0  0  0  0  0  0  0  0  0  0  0
    8.6220   -1.7709   -1.4974 C   0  0  0  0  0  0  0  0  0  0  0  0
    7.6286   -1.2587   -2.3367 C   0  0  0  0  0  0  0  0  0  0  0  0
    6.5113   -0.6171   -1.7968 C   0  0  0  0  0  0  0  0  0  0  0  0
    6.3779   -0.4753   -0.4106 C   0  0  0  0  0  0  0  0  0  0  0  0
    5.1642    0.2051    0.1786 C   0  0  0  0  0  0  0  0  0  0  0  0
    4.0341   -0.7983    0.4660 C   0  0  0  0  0  0  0  0  0  0  0  0
    2.8789   -0.1625    1.1126 N   0  0  0  0  0  0  0  0  0  0  0  0
    2.0144   -1.1700    1.7637 C   0  0  0  0  0  0  0  0  0  0  0  0
    0.6606   -0.5938    2.2315 C   0  0  0  0  0  0  0  0  0  0  0  0
   -0.1194   -0.0158    1.1134 N   0  0  0  0  0  0  0  0  0  0  0  0
   -1.4085   -0.4362    0.9224 C   0  0  0  0  0  0  0  0  0  0  0  0
   -1.9268   -1.7157    0.9835 C   0  0  0  0  0  0  0  0  0  0  0  0
   -3.2697   -1.6646    0.5518 C   0  0  0  0  0  0  0  0  0  0  0  0
   -3.5551   -0.3526    0.2275 C   0  0  0  0  0  0  0  0  0  0  0  0
   -4.7418    0.2805   -0.3087 C   0  0  0  0  0  0  0  0  0  0  0  0
   -5.8828   -0.5284   -0.8160 C   0  0  0  0  0  0  0  0  0  0  0  0
   -5.6763   -1.6320   -1.6530 C   0  0  0  0  0  0  0  0  0  0  0  0
   -6.7686   -2.3541   -2.1373 C   0  0  0  0  0  0  0  0  0  0  0  0
   -8.0660   -1.9671   -1.8000 C   0  0  0  0  0  0  0  0  0  0  0  0
   -8.2763   -0.8542   -0.9838 C   0  0  0  0  0  0  0  0  0  0  0  0
   -7.1872   -0.1311   -0.4962 C   0  0  0  0  0  0  0  0  0  0  0  0
   -4.8356    1.5758   -0.3620 N   0  0  0  0  0  0  0  0  0  0  0  0
   -3.7620    2.3656    0.0926 C   0  0  0  0  0  0  0  0  0  0  0  0
   -3.9210    3.7537    0.0615 C   0  0  0  0  0  0  0  0  0  0  0  0
   -2.9068    4.6005    0.5099 C   0  0  0  0  0  0  0  0  0  0  0  0
   -1.7234    4.0611    1.0067 C   0  0  0  0  0  0  0  0  0  0  0  0
   -1.5453    2.6770    1.0456 C   0  0  0  0  0  0  0  0  0  0  0  0
   -2.5533    1.8321    0.5708 C   0  0  0  0  0  0  0  0  0  0  0  0
   -2.4584    0.4182    0.5818 N   0  0  0  0  0  0  0  0  0  0  0  0
    0.6643    0.2154   -0.1228 C   0  0  0  0  0  0  0  0  0  0  0  0
    2.0956    0.7029    0.2007 C   0  0  0  0  0  0  0  0  0  0  0  0
    7.3747   -0.9971    0.4276 C   0  0  0  0  0  0  0  0  0  0  0  0
    8.4941   -1.6414   -0.1109 C   0  0  0  0  0  0  0  0  0  0  0  0
    9.6743   -2.2571    0.9918 Cl  0  0  0  0  0  0  0  0  0  0  0  0
    7.7182   -1.3562   -3.4159 H   0  0  0  0  0  0  0  0  0  0  0  0
    5.7485   -0.2262   -2.4671 H   0  0  0  0  0  0  0  0  0  0  0  0
    5.4539    0.7189    1.1050 H   0  0  0  0  0  0  0  0  0  0  0  0
    4.8326    0.9932   -0.5086 H   0  0  0  0  0  0  0  0  0  0  0  0
    3.7298   -1.3153   -0.4544 H   0  0  0  0  0  0  0  0  0  0  0  0
    4.4389   -1.5697    1.1362 H   0  0  0  0  0  0  0  0  0  0  0  0
    1.8228   -2.0084    1.0808 H   0  0  0  0  0  0  0  0  0  0  0  0
    2.5397   -1.5754    2.6367 H   0  0  0  0  0  0  0  0  0  0  0  0
    0.8415    0.2054    2.9605 H   0  0  0  0  0  0  0  0  0  0  0  0
    0.1036   -1.3744    2.7617 H   0  0  0  0  0  0  0  0  0  0  0  0
   -1.3762   -2.6064    1.2547 H   0  0  0  0  0  0  0  0  0  0  0  0
   -3.9417   -2.5079    0.4641 H   0  0  0  0  0  0  0  0  0  0  0  0
   -4.6728   -1.9232   -1.9518 H   0  0  0  0  0  0  0  0  0  0  0  0
   -6.6093   -3.2107   -2.7890 H   0  0  0  0  0  0  0  0  0  0  0  0
   -8.9158   -2.5261   -2.1831 H   0  0  0  0  0  0  0  0  0  0  0  0
   -9.2879   -0.5438   -0.7351 H   0  0  0  0  0  0  0  0  0  0  0  0
   -7.3549    0.7428    0.1302 H   0  0  0  0  0  0  0  0  0  0  0  0
   -4.8502    4.1729   -0.3138 H   0  0  0  0  0  0  0  0  0  0  0  0
   -3.0472    5.6774    0.4809 H   0  0  0  0  0  0  0  0  0  0  0  0
   -0.9388    4.7169    1.3746 H   0  0  0  0  0  0  0  0  0  0  0  0
   -0.6265    2.2916    1.4713 H   0  0  0  0  0  0  0  0  0  0  0  0
    0.1707    0.9685   -0.7475 H   0  0  0  0  0  0  0  0  0  0  0  0
    0.7187   -0.7103   -0.7105 H   0  0  0  0  0  0  0  0  0  0  0  0
    2.0192    1.6831    0.6872 H   0  0  0  0  0  0  0  0  0  0  0  0
    2.6176    0.8745   -0.7470 H   0  0  0  0  0  0  0  0  0  0  0  0
    7.2790   -0.8998    1.5079 H   0  0  0  0  0  0  0  0  0  0  0  0
  1  2  1  0
  2  3  2  0
  3  4  1  0
  4  5  2  0
  5  6  1  0
  6  7  1  0
  7  8  1  0
  8  9  1  0
  9 10  1  0
 10 11  1  0
 11 12  1  0
 12 13  2  0
 13 14  1  0
 14 15  2  0
 15 16  1  0
 16 17  1  0
 17 18  2  0
 18 19  1  0
 19 20  2  0
 20 21  1  0
 21 22  2  0
 16 23  2  0
 23 24  1  0
 24 25  2  0
 25 26  1  0
 26 27  2  0
 27 28  1  0
 28 29  2  0
 29 30  1  0
 11 31  1  0
 31 32  1  0
  5 33  1  0
 33 34  2  0
 34 35  1  0
 34  2  1  0
 32  8  1  0
 30 12  1  0
 30 15  1  0
 22 17  1  0
 29 24  1  0
  3 36  1  0
  4 37  1  0
  6 38  1  0
  6 39  1  0
  7 40  1  0
  7 41  1  0
  9 42  1  0
  9 43  1  0
 10 44  1  0
 10 45  1  0
 13 46  1  0
 14 47  1  0
 18 48  1  0
 19 49  1  0
 20 50  1  0
 21 51  1  0
 22 52  1  0
 25 53  1  0
 26 54  1  0
 27 55  1  0
 28 56  1  0
 31 57  1  0
 31 58  1  0
 32 59  1  0
 32 60  1  0
 33 61  1  0
M  END
$$$$
