
     RDKit          3D

 52 55  0  0  0  0  0  0  0  0999 V2000
   -6.4069    3.4558    1.3083 C   0  0  0  0  0  0  0  0  0  0  0  0
   -6.6700    2.6098    0.0705 C   0  0  0  0  0  0  0  0  0  0  0  0
   -5.4082    1.9155   -0.4385 C   0  0  0  0  0  0  0  0  0  0  0  0
   -4.9542    0.9982    0.5556 O   0  0  0  0  0  0  0  0  0  0  0  0
   -3.8044    0.3085    0.2875 C   0  0  0  0  0  0  0  0  0  0  0  0
   -3.3616   -0.5123    1.3270 C   0  0  0  0  0  0  0  0  0  0  0  0
   -2.1982   -1.2739    1.1895 C   0  0  0  0  0  0  0  0  0  0  0  0
   -1.4677   -1.2300   -0.0019 C   0  0  0  0  0  0  0  0  0  0  0  0
   -0.2513   -2.0193   -0.1516 C   0  0  0  0  0  0  0  0  0  0  0  0
    1.0803   -1.6291   -0.0870 C   0  0  0  0  0  0  0  0  0  0  0  0
    1.6380   -0.2951    0.1269 C   0  0  0  0  0  0  0  0  0  0  0  0
    0.9438    0.7104    0.2341 O   0  0  0  0  0  0  0  0  0  0  0  0
    3.0259   -0.3154    0.1827 N   0  0  0  0  0  0  0  0  0  0  0  0
    3.7351    0.8335    0.3698 N   0  0  0  0  0  0  0  0  0  0  0  0
    5.0214    0.6924    0.4100 C   0  0  0  0  0  0  0  0  0  0  0  0
    5.9241    1.8437    0.6069 C   0  0  0  0  0  0  0  0  0  0  0  0
    5.4138    3.1363    0.7588 C   0  0  0  0  0  0  0  0  0  0  0  0
    6.2872    4.2087    0.9438 C   0  0  0  0  0  0  0  0  0  0  0  0
    7.6648    3.9897    0.9767 C   0  0  0  0  0  0  0  0  0  0  0  0
    8.1732    2.6988    0.8251 C   0  0  0  0  0  0  0  0  0  0  0  0
    7.3042    1.6220    0.6397 C   0  0  0  0  0  0  0  0  0  0  0  0
    1.8844   -2.7289   -0.2494 N   0  0  0  0  0  0  0  0  0  0  0  0
    1.1133   -3.7860   -0.4208 N   0  0  0  0  0  0  0  0  0  0  0  0
   -0.1974   -3.3953   -0.3936 N   0  0  0  0  0  0  0  0  0  0  0  0
   -1.2457   -4.3245   -0.6181 C   0  0  0  0  0  0  0  0  0  0  0  0
   -2.5183   -3.9336   -0.6854 N   0  0  0  0  0  0  0  0  0  0  0  0
   -3.2245   -5.1081   -0.9345 O   0  0  0  0  0  0  0  0  0  0  0  0
   -2.3691   -6.2013   -1.0248 N   0  0  0  0  0  0  0  0  0  0  0  0
   -1.1459   -5.7140   -0.8224 C   0  0  0  0  0  0  0  0  0  0  0  0
   -0.0245   -6.4603   -0.8193 N   0  0  0  0  0  0  0  0  0  0  0  0
   -1.9074   -0.4033   -1.0412 C   0  0  0  0  0  0  0  0  0  0  0  0
   -3.0718    0.3609   -0.8981 C   0  0  0  0  0  0  0  0  0  0  0  0
   -6.0553    2.8420    2.1434 H   0  0  0  0  0  0  0  0  0  0  0  0
   -5.6538    4.2236    1.1047 H   0  0  0  0  0  0  0  0  0  0  0  0
   -7.3268    3.9581    1.6242 H   0  0  0  0  0  0  0  0  0  0  0  0
   -7.4281    1.8578    0.3187 H   0  0  0  0  0  0  0  0  0  0  0  0
   -7.0780    3.2469   -0.7219 H   0  0  0  0  0  0  0  0  0  0  0  0
   -4.6370    2.6668   -0.6478 H   0  0  0  0  0  0  0  0  0  0  0  0
   -5.6560    1.3728   -1.3584 H   0  0  0  0  0  0  0  0  0  0  0  0
   -3.9258   -0.5544    2.2553 H   0  0  0  0  0  0  0  0  0  0  0  0
   -1.8754   -1.8956    2.0205 H   0  0  0  0  0  0  0  0  0  0  0  0
    3.5072   -1.2039    0.0815 H   0  0  0  0  0  0  0  0  0  0  0  0
    5.4998   -0.2977    0.2988 H   0  0  0  0  0  0  0  0  0  0  0  0
    4.3403    3.3135    0.7345 H   0  0  0  0  0  0  0  0  0  0  0  0
    5.8915    5.2145    1.0624 H   0  0  0  0  0  0  0  0  0  0  0  0
    8.3428    4.8275    1.1214 H   0  0  0  0  0  0  0  0  0  0  0  0
    9.2476    2.5338    0.8519 H   0  0  0  0  0  0  0  0  0  0  0  0
    7.7138    0.6225    0.5233 H   0  0  0  0  0  0  0  0  0  0  0  0
    0.8958   -6.0276   -0.8725 H   0  0  0  0  0  0  0  0  0  0  0  0
   -0.0663   -7.4061   -1.1849 H   0  0  0  0  0  0  0  0  0  0  0  0
   -1.3454   -0.3363   -1.9696 H   0  0  0  0  0  0  0  0  0  0  0  0
   -3.3730    0.9879   -1.7301 H   0  0  0  0  0  0  0  0  0  0  0  0
  1  2  1  0
  2  3  1  0
  3  4  1  0
  4  5  1  0
  5  6  2  0
  6  7  1  0
  7  8  2  0
  8  9  1  0
  9 10  2  0
 10 11  1  0
 11 12  2  0
 11 13  1  0
 13 14  1  0
 14 15  2  3
 15 16  1  0
 16 17  2  0
 17 18  1  0
 18 19  2  0
 19 20  1  0
 20 21  2  0
 10 22  1  0
 22 23  2  0
 23 24  1  0
 24 25  1  0
 25 26  2  0
 26 27  1  0
 27 28  1  0
 28 29  2  0
 29 30  1  0
  8 31  1  0
 31 32  2  0
 32  5  1  0
 24  9  1  0
 29 25  1  0
 21 16  1  0
  1 33  1  0
  1 34  1  0
  1 35  1  0
  2 36  1  0
  2 37  1  0
  3 38  1  0
  3 39  1  0
  6 40  1  0
  7 41  1  0
 13 42  1  0
 15 43  1  0
 17 44  1  0
 18 45  1  0
 19 46  1  0
 20 47  1  0
 21 48  1  0
 30 49  1  0
 30 50  1  0
 31 51  1  0
 32 52  1  0
M  END
$$$$
