
     RDKit          3D

 78 81  0  0  0  0  0  0  0  0999 V2000
   -3.6197    2.0343    1.5931 C   0  0  0  0  0  0  0  0  0  0  0  0
   -2.7334    1.9950    0.3409 C   0  0  0  0  0  0  0  0  0  0  0  0
   -2.3097    3.4179   -0.0899 C   0  0  0  0  0  0  0  0  0  0  0  0
   -1.8498    4.2711    1.0142 N   0  0  0  0  0  0  0  0  0  0  0  0
   -2.8030    5.3044    1.5122 C   0  0  0  0  0  0  0  0  0  0  0  0
   -2.5335    6.6488    0.8304 C   0  0  0  0  0  0  0  0  0  0  0  0
   -2.8814    5.4304    3.0541 C   0  0  0  0  0  0  0  0  0  0  0  0
   -1.9268    6.3356    3.5976 O   0  0  0  0  0  0  0  0  0  0  0  0
   -0.5186    4.3124    1.4318 C   0  0  0  0  0  0  0  0  0  0  0  0
   -0.1105    5.0265    2.3422 O   0  0  0  0  0  0  0  0  0  0  0  0
    0.4902    3.5305    0.6958 C   0  0  0  0  0  0  0  0  0  0  0  0
    1.4988    4.2716    0.0643 C   0  0  0  0  0  0  0  0  0  0  0  0
    2.5011    3.6150   -0.6326 C   0  0  0  0  0  0  0  0  0  0  0  0
    2.5246    2.2201   -0.6580 C   0  0  0  0  0  0  0  0  0  0  0  0
    1.5552    1.4595    0.0166 C   0  0  0  0  0  0  0  0  0  0  0  0
    1.6417    0.0441    0.0749 N   0  0  0  0  0  0  0  0  0  0  0  0
    2.8123   -0.6955   -0.0720 C   0  0  0  0  0  0  0  0  0  0  0  0
    3.9263   -0.2033   -0.2222 O   0  0  0  0  0  0  0  0  0  0  0  0
    2.5635   -2.0559   -0.0037 N   0  0  0  0  0  0  0  0  0  0  0  0
    3.5317   -3.0850    0.0358 C   0  0  0  0  0  0  0  0  0  0  0  0
    3.0960   -4.3951   -0.2028 C   0  0  0  0  0  0  0  0  0  0  0  0
    3.9951   -5.4670   -0.1812 C   0  0  0  0  0  0  0  0  0  0  0  0
    5.3531   -5.2475    0.0876 C   0  0  0  0  0  0  0  0  0  0  0  0
    6.3418   -6.3858    0.1190 C   0  0  0  0  0  0  0  0  0  0  0  0
    5.8271   -7.5684   -0.3214 F   0  0  0  0  0  0  0  0  0  0  0  0
    6.8149   -6.6317    1.3735 F   0  0  0  0  0  0  0  0  0  0  0  0
    7.4398   -6.1517   -0.6547 F   0  0  0  0  0  0  0  0  0  0  0  0
    5.7824   -3.9389    0.3395 C   0  0  0  0  0  0  0  0  0  0  0  0
    4.8806   -2.8703    0.3162 C   0  0  0  0  0  0  0  0  0  0  0  0
    0.4872    2.1293    0.6508 C   0  0  0  0  0  0  0  0  0  0  0  0
   -0.5020    1.4447    1.3198 O   0  0  0  0  0  0  0  0  0  0  0  0
   -1.5463    0.9887    0.4374 C   0  0  0  0  0  0  0  0  0  0  0  0
   -2.0529   -0.3747    0.9819 C   0  0  0  0  0  0  0  0  0  0  0  0
   -1.0653   -1.4537    0.8727 N   0  0  0  0  0  0  0  0  0  0  0  0
   -0.4375   -1.8557    2.1342 C   0  0  0  0  0  0  0  0  0  0  0  0
   -0.9097   -2.2889   -0.2317 C   0  0  0  0  0  0  0  0  0  0  0  0
   -0.0700   -3.1870   -0.2109 O   0  0  0  0  0  0  0  0  0  0  0  0
   -1.7102   -2.0112   -1.3128 N   0  0  0  0  0  0  0  0  0  0  0  0
   -1.8896   -2.8106   -2.4660 C   0  0  0  0  0  0  0  0  0  0  0  0
   -1.4172   -4.1224   -2.5875 C   0  0  0  0  0  0  0  0  0  0  0  0
   -1.6523   -4.8569   -3.7556 C   0  0  0  0  0  0  0  0  0  0  0  0
   -2.3638   -4.2804   -4.7989 C   0  0  0  0  0  0  0  0  0  0  0  0
   -2.5837   -4.9829   -5.9192 F   0  0  0  0  0  0  0  0  0  0  0  0
   -2.8501   -2.9849   -4.6930 C   0  0  0  0  0  0  0  0  0  0  0  0
   -2.6171   -2.2508   -3.5249 C   0  0  0  0  0  0  0  0  0  0  0  0
   -3.0382    2.2863    2.4873 H   0  0  0  0  0  0  0  0  0  0  0  0
   -4.1117    1.0722    1.7712 H   0  0  0  0  0  0  0  0  0  0  0  0
   -4.4242    2.7694    1.4799 H   0  0  0  0  0  0  0  0  0  0  0  0
   -3.3660    1.6141   -0.4720 H   0  0  0  0  0  0  0  0  0  0  0  0
   -1.5442    3.3716   -0.8730 H   0  0  0  0  0  0  0  0  0  0  0  0
   -3.1693    3.9109   -0.5620 H   0  0  0  0  0  0  0  0  0  0  0  0
   -3.8017    4.9704    1.2027 H   0  0  0  0  0  0  0  0  0  0  0  0
   -3.2670    7.4006    1.1430 H   0  0  0  0  0  0  0  0  0  0  0  0
   -2.5999    6.5476   -0.2597 H   0  0  0  0  0  0  0  0  0  0  0  0
   -1.5337    7.0317    1.0537 H   0  0  0  0  0  0  0  0  0  0  0  0
   -2.7569    4.4610    3.5451 H   0  0  0  0  0  0  0  0  0  0  0  0
   -3.8656    5.8205    3.3320 H   0  0  0  0  0  0  0  0  0  0  0  0
   -1.0476    5.9822    3.3198 H   0  0  0  0  0  0  0  0  0  0  0  0
    1.5032    5.3584    0.1253 H   0  0  0  0  0  0  0  0  0  0  0  0
    3.2847    4.1804   -1.1319 H   0  0  0  0  0  0  0  0  0  0  0  0
    3.3336    1.7431   -1.2075 H   0  0  0  0  0  0  0  0  0  0  0  0
    0.8996   -0.4179    0.5833 H   0  0  0  0  0  0  0  0  0  0  0  0
    1.6112   -2.3625   -0.1826 H   0  0  0  0  0  0  0  0  0  0  0  0
    2.0509   -4.5977   -0.4249 H   0  0  0  0  0  0  0  0  0  0  0  0
    3.6229   -6.4727   -0.3742 H   0  0  0  0  0  0  0  0  0  0  0  0
    6.8319   -3.7380    0.5510 H   0  0  0  0  0  0  0  0  0  0  0  0
    5.2619   -1.8788    0.5488 H   0  0  0  0  0  0  0  0  0  0  0  0
   -1.1491    0.8337   -0.5763 H   0  0  0  0  0  0  0  0  0  0  0  0
   -2.9607   -0.6809    0.4549 H   0  0  0  0  0  0  0  0  0  0  0  0
   -2.3095   -0.2847    2.0415 H   0  0  0  0  0  0  0  0  0  0  0  0
    0.3906   -2.5515    1.9834 H   0  0  0  0  0  0  0  0  0  0  0  0
   -0.0597   -0.9682    2.6492 H   0  0  0  0  0  0  0  0  0  0  0  0
   -1.1928   -2.3463    2.7547 H   0  0  0  0  0  0  0  0  0  0  0  0
   -2.1266   -1.0985   -1.3564 H   0  0  0  0  0  0  0  0  0  0  0  0
   -0.8717   -4.6115   -1.7857 H   0  0  0  0  0  0  0  0  0  0  0  0
   -1.2867   -5.8743   -3.8516 H   0  0  0  0  0  0  0  0  0  0  0  0
   -3.4092   -2.5562   -5.5187 H   0  0  0  0  0  0  0  0  0  0  0  0
   -3.0079   -1.2382   -3.4660 H   0  0  0  0  0  0  0  0  0  0  0  0
  1  2  1  0
  2  3  1  0
  3  4  1  0
  4  5  1  0
  5  6  1  0
  5  7  1  0
  7  8  1  0
  4  9  1  0
  9 10  2  0
  9 11  1  0
 11 12  2  0
 12 13  1  0
 13 14  2  0
 14 15  1  0
 15 16  1  0
 16 17  1  0
 17 18  2  0
 17 19  1  0
 19 20  1  0
 20 21  2  0
 21 22  1  0
 22 23  2  0
 23 24  1  0
 24 25  1  0
 24 26  1  0
 24 27  1  0
 23 28  1  0
 28 29  2  0
 15 30  2  0
 30 31  1  0
 31 32  1  0
 32 33  1  0
 33 34  1  0
 34 35  1  0
 34 36  1  0
 36 37  2  0
 36 38  1  0
 38 39  1  0
 39 40  2  0
 40 41  1  0
 41 42  2  0
 42 43  1  0
 42 44  1  0
 44 45  2  0
 32  2  1  0
 45 39  1  0
 30 11  1  0
 29 20  1  0
  1 46  1  0
  1 47  1  0
  1 48  1  0
  2 49  1  0
  3 50  1  0
  3 51  1  0
  5 52  1  0
  6 53  1  0
  6 54  1  0
  6 55  1  0
  7 56  1  0
  7 57  1  0
  8 58  1  0
 12 59  1  0
 13 60  1  0
 14 61  1  0
 16 62  1  0
 19 63  1  0
 21 64  1  0
 22 65  1  0
 28 66  1  0
 29 67  1  0
 32 68  1  0
 33 69  1  0
 33 70  1  0
 35 71  1  0
 35 72  1  0
 35 73  1  0
 38 74  1  0
 40 75  1  0
 41 76  1  0
 44 77  1  0
 45 78  1  0
M  END
$$$$
