
     RDKit          3D

 51 54  0  0  0  0  0  0  0  0999 V2000
    6.0736    0.1575   -1.9684 C   0  0  0  0  0  0  0  0  0  0  0  0
    4.9096    0.2674   -2.9413 C   0  0  0  0  0  0  0  0  0  0  0  0
    3.6246    0.6176   -2.2382 C   0  0  0  0  0  0  0  0  0  0  0  0
    3.2437    1.9505   -2.0707 C   0  0  0  0  0  0  0  0  0  0  0  0
    2.0543    2.2743   -1.4055 C   0  0  0  0  0  0  0  0  0  0  0  0
    1.2116    1.2805   -0.8833 C   0  0  0  0  0  0  0  0  0  0  0  0
   -0.0265    1.6154   -0.2038 N   0  0  0  0  0  0  0  0  0  0  0  0
   -0.7759    2.6994   -0.6809 C   0  0  0  0  0  0  0  0  0  0  0  0
   -0.4756    3.4256   -1.6291 O   0  0  0  0  0  0  0  0  0  0  0  0
   -2.0744    2.9643   -0.0382 C   0  0  0  0  0  0  0  0  0  0  0  0
   -2.8943    3.9934   -0.5378 C   0  0  0  0  0  0  0  0  0  0  0  0
   -4.1420    4.2373    0.0269 C   0  0  0  0  0  0  0  0  0  0  0  0
   -4.5761    3.4472    1.0831 C   0  0  0  0  0  0  0  0  0  0  0  0
   -3.7572    2.4269    1.5801 C   0  0  0  0  0  0  0  0  0  0  0  0
   -2.4864    2.1812    1.0335 C   0  0  0  0  0  0  0  0  0  0  0  0
   -1.6184    1.1767    1.5264 N   0  0  0  0  0  0  0  0  0  0  0  0
   -1.9738    0.3959    2.7170 C   0  0  0  0  0  0  0  0  0  0  0  0
   -2.6966   -0.8813    2.2942 C   0  0  0  0  0  0  0  0  0  0  0  0
   -3.9150   -0.9319    2.1508 O   0  0  0  0  0  0  0  0  0  0  0  0
   -1.8534   -1.9323    2.0057 N   0  0  0  0  0  0  0  0  0  0  0  0
   -2.3690   -3.1429    1.4146 C   0  0  0  0  0  0  0  0  0  0  0  0
   -1.2692   -4.1284    1.3055 C   0  0  0  0  0  0  0  0  0  0  0  0
   -0.2660   -4.3292    0.3775 C   0  0  0  0  0  0  0  0  0  0  0  0
    0.4830   -5.4409    0.8341 C   0  0  0  0  0  0  0  0  0  0  0  0
   -0.1085   -5.8467    2.0076 C   0  0  0  0  0  0  0  0  0  0  0  0
   -1.1724   -5.0545    2.3028 O   0  0  0  0  0  0  0  0  0  0  0  0
   -0.4155    0.8445    0.9004 C   0  0  0  0  0  0  0  0  0  0  0  0
    0.2505   -0.0926    1.3606 O   0  0  0  0  0  0  0  0  0  0  0  0
    1.6125   -0.0548   -1.0548 C   0  0  0  0  0  0  0  0  0  0  0  0
    2.8016   -0.3832   -1.7184 C   0  0  0  0  0  0  0  0  0  0  0  0
    5.8916   -0.6178   -1.2149 H   0  0  0  0  0  0  0  0  0  0  0  0
    6.2435    1.1042   -1.4418 H   0  0  0  0  0  0  0  0  0  0  0  0
    6.9918   -0.1006   -2.5056 H   0  0  0  0  0  0  0  0  0  0  0  0
    5.1339    1.0254   -3.7027 H   0  0  0  0  0  0  0  0  0  0  0  0
    4.7870   -0.6796   -3.4824 H   0  0  0  0  0  0  0  0  0  0  0  0
    3.8688    2.7540   -2.4538 H   0  0  0  0  0  0  0  0  0  0  0  0
    1.8213    3.3292   -1.2845 H   0  0  0  0  0  0  0  0  0  0  0  0
   -2.5643    4.6022   -1.3781 H   0  0  0  0  0  0  0  0  0  0  0  0
   -4.7759    5.0288   -0.3645 H   0  0  0  0  0  0  0  0  0  0  0  0
   -5.5588    3.6141    1.5203 H   0  0  0  0  0  0  0  0  0  0  0  0
   -4.1673    1.8245    2.3859 H   0  0  0  0  0  0  0  0  0  0  0  0
   -2.5857    0.9642    3.4227 H   0  0  0  0  0  0  0  0  0  0  0  0
   -1.0698    0.1284    3.2788 H   0  0  0  0  0  0  0  0  0  0  0  0
   -0.8649   -1.7153    1.8769 H   0  0  0  0  0  0  0  0  0  0  0  0
   -2.7707   -2.8982    0.4254 H   0  0  0  0  0  0  0  0  0  0  0  0
   -3.1930   -3.5210    2.0310 H   0  0  0  0  0  0  0  0  0  0  0  0
   -0.0977   -3.7420   -0.5161 H   0  0  0  0  0  0  0  0  0  0  0  0
    1.3488   -5.8922    0.3708 H   0  0  0  0  0  0  0  0  0  0  0  0
    0.0933   -6.6381    2.7175 H   0  0  0  0  0  0  0  0  0  0  0  0
    0.9949   -0.8771   -0.7042 H   0  0  0  0  0  0  0  0  0  0  0  0
    3.0746   -1.4301   -1.8289 H   0  0  0  0  0  0  0  0  0  0  0  0
  1  2  1  0
  2  3  1  0
  3  4  2  0
  4  5  1  0
  5  6  2  0
  6  7  1  0
  7  8  1  0
  8  9  2  0
  8 10  1  0
 10 11  2  0
 11 12  1  0
 12 13  2  0
 13 14  1  0
 14 15  2  0
 15 16  1  0
 16 17  1  0
 17 18  1  0
 18 19  2  0
 18 20  1  0
 20 21  1  0
 21 22  1  0
 22 23  2  0
 23 24  1  0
 24 25  2  0
 25 26  1  0
 16 27  1  0
 27 28  2  0
  6 29  1  0
 29 30  2  0
 30  3  1  0
 27  7  1  0
 15 10  1  0
 26 22  1  0
  1 31  1  0
  1 32  1  0
  1 33  1  0
  2 34  1  0
  2 35  1  0
  4 36  1  0
  5 37  1  0
 11 38  1  0
 12 39  1  0
 13 40  1  0
 14 41  1  0
 17 42  1  0
 17 43  1  0
 20 44  1  0
 21 45  1  0
 21 46  1  0
 23 47  1  0
 24 48  1  0
 25 49  1  0
 29 50  1  0
 30 51  1  0
M  END
$$$$
