
     RDKit          3D

 40 42  0  0  0  0  0  0  0  0999 V2000
    5.3731   -1.0581   -0.2535 N   0  0  0  0  0  0  0  0  0  0  0  0
    4.0590   -0.7507   -0.8037 C   0  0  0  0  0  0  0  0  0  0  0  0
    3.0768   -0.3709    0.3034 C   0  0  0  0  0  0  0  0  0  0  0  0
    1.6949   -0.0502   -0.2701 C   0  0  0  0  0  0  0  0  0  0  0  0
    0.7114    0.3384    0.8441 C   0  0  0  0  0  0  0  0  0  0  0  0
   -0.6347    0.6381    0.3047 N   0  0  0  0  0  0  0  0  0  0  0  0
   -0.9181    2.0005   -0.0106 C   0  0  0  0  0  0  0  0  0  0  0  0
    0.1023    2.9675   -0.1653 C   0  0  0  0  0  0  0  0  0  0  0  0
   -0.1647    4.3041   -0.4878 C   0  0  0  0  0  0  0  0  0  0  0  0
   -1.4704    4.7238   -0.6719 C   0  0  0  0  0  0  0  0  0  0  0  0
   -2.5013    3.8024   -0.5348 C   0  0  0  0  0  0  0  0  0  0  0  0
   -2.2371    2.4557   -0.2127 C   0  0  0  0  0  0  0  0  0  0  0  0
   -3.6705    1.4196   -0.0480 S   0  0  0  0  0  0  0  0  0  0  0  0
   -2.9540   -0.1998    0.0839 C   0  0  0  0  0  0  0  0  0  0  0  0
   -3.8700   -1.2686    0.0290 C   0  0  0  0  0  0  0  0  0  0  0  0
   -3.4453   -2.5882    0.1414 C   0  0  0  0  0  0  0  0  0  0  0  0
   -2.0916   -2.8617    0.3167 C   0  0  0  0  0  0  0  0  0  0  0  0
   -1.5957   -4.2834    0.4110 C   0  0  0  0  0  0  0  0  0  0  0  0
   -2.5302   -5.1492    0.8924 F   0  0  0  0  0  0  0  0  0  0  0  0
   -0.5134   -4.4133    1.2292 F   0  0  0  0  0  0  0  0  0  0  0  0
   -1.2111   -4.7784   -0.7970 F   0  0  0  0  0  0  0  0  0  0  0  0
   -1.1810   -1.7864    0.3636 C   0  0  0  0  0  0  0  0  0  0  0  0
   -1.5757   -0.4316    0.2609 C   0  0  0  0  0  0  0  0  0  0  0  0
    5.7262   -0.2599    0.2727 H   0  0  0  0  0  0  0  0  0  0  0  0
    5.3001   -1.8266    0.4122 H   0  0  0  0  0  0  0  0  0  0  0  0
    3.6915   -1.6230   -1.3550 H   0  0  0  0  0  0  0  0  0  0  0  0
    4.1578    0.0709   -1.5214 H   0  0  0  0  0  0  0  0  0  0  0  0
    2.9908   -1.1951    1.0227 H   0  0  0  0  0  0  0  0  0  0  0  0
    3.4552    0.5004    0.8527 H   0  0  0  0  0  0  0  0  0  0  0  0
    1.7840    0.7590   -1.0035 H   0  0  0  0  0  0  0  0  0  0  0  0
    1.3224   -0.9170   -0.8274 H   0  0  0  0  0  0  0  0  0  0  0  0
    0.6644   -0.4532    1.6033 H   0  0  0  0  0  0  0  0  0  0  0  0
    1.1047    1.1861    1.4203 H   0  0  0  0  0  0  0  0  0  0  0  0
    1.1507    2.7116   -0.0566 H   0  0  0  0  0  0  0  0  0  0  0  0
    0.6552    5.0094   -0.5984 H   0  0  0  0  0  0  0  0  0  0  0  0
   -1.6885    5.7580   -0.9225 H   0  0  0  0  0  0  0  0  0  0  0  0
   -3.5257    4.1402   -0.6803 H   0  0  0  0  0  0  0  0  0  0  0  0
   -4.9329   -1.0718   -0.1037 H   0  0  0  0  0  0  0  0  0  0  0  0
   -4.1752   -3.3943    0.0905 H   0  0  0  0  0  0  0  0  0  0  0  0
   -0.1331   -2.0540    0.4696 H   0  0  0  0  0  0  0  0  0  0  0  0
  1  2  1  0
  2  3  1  0
  3  4  1  0
  4  5  1  0
  5  6  1  0
  6  7  1  0
  7  8  2  0
  8  9  1  0
  9 10  2  0
 10 11  1  0
 11 12  2  0
 12 13  1  0
 13 14  1  0
 14 15  2  0
 15 16  1  0
 16 17  2  0
 17 18  1  0
 18 19  1  0
 18 20  1  0
 18 21  1  0
 17 22  1  0
 22 23  2  0
 23  6  1  0
 12  7  1  0
 23 14  1  0
  1 24  1  0
  1 25  1  0
  2 26  1  0
  2 27  1  0
  3 28  1  0
  3 29  1  0
  4 30  1  0
  4 31  1  0
  5 32  1  0
  5 33  1  0
  8 34  1  0
  9 35  1  0
 10 36  1  0
 11 37  1  0
 15 38  1  0
 16 39  1  0
 22 40  1  0
M  END
$$$$
