
     RDKit          3D

 37 39  0  0  0  0  0  0  0  0999 V2000
   -3.9955   -1.5688    2.0923 C   0  0  0  0  0  0  0  0  0  0  0  0
   -4.4701   -1.5276    0.6503 C   0  0  0  0  0  0  0  0  0  0  0  0
   -4.2082   -0.2469    0.0129 N   0  0  0  0  0  0  0  0  0  0  0  0
   -5.2370    0.6257   -0.1013 N   0  0  0  0  0  0  0  0  0  0  0  0
   -4.7003    1.6722   -0.7266 C   0  0  0  0  0  0  0  0  0  0  0  0
   -3.3385    1.4802   -0.9819 C   0  0  0  0  0  0  0  0  0  0  0  0
   -2.2885    2.7314   -1.8980 Br  0  0  0  0  0  0  0  0  0  0  0  0
   -3.0085    0.2390   -0.4725 C   0  0  0  0  0  0  0  0  0  0  0  0
   -1.7542   -0.4901   -0.4310 C   0  0  0  0  0  0  0  0  0  0  0  0
   -1.7402   -1.7152   -0.4197 O   0  0  0  0  0  0  0  0  0  0  0  0
   -0.6410    0.3245   -0.3569 N   0  0  0  0  0  0  0  0  0  0  0  0
    0.6951   -0.0532   -0.3079 C   0  0  0  0  0  0  0  0  0  0  0  0
    1.1648   -1.6913   -0.4901 S   0  0  0  0  0  0  0  0  0  0  0  0
    2.7687   -1.2862   -0.3093 C   0  0  0  0  0  0  0  0  0  0  0  0
    2.9924    0.0502   -0.1277 C   0  0  0  0  0  0  0  0  0  0  0  0
    1.7846    0.8114   -0.1385 C   0  0  0  0  0  0  0  0  0  0  0  0
    1.6128    2.2529    0.0239 C   0  0  0  0  0  0  0  0  0  0  0  0
    2.7305    3.0248   -0.1051 N   0  0  0  0  0  0  0  0  0  0  0  0
    0.5220    2.7791    0.2283 O   0  0  0  0  0  0  0  0  0  0  0  0
    4.4468    0.3092    0.0507 C   0  0  0  0  0  0  0  0  0  0  0  0
    5.0205   -1.1200    0.3001 C   0  0  0  0  0  0  0  0  0  0  0  0
    3.9898   -2.1236   -0.2944 C   0  0  0  0  0  0  0  0  0  0  0  0
   -4.4783   -0.7856    2.6865 H   0  0  0  0  0  0  0  0  0  0  0  0
   -2.9135   -1.4212    2.1650 H   0  0  0  0  0  0  0  0  0  0  0  0
   -4.2368   -2.5365    2.5428 H   0  0  0  0  0  0  0  0  0  0  0  0
   -4.0101   -2.3150    0.0475 H   0  0  0  0  0  0  0  0  0  0  0  0
   -5.5528   -1.6982    0.6136 H   0  0  0  0  0  0  0  0  0  0  0  0
   -5.3293    2.5189   -0.9691 H   0  0  0  0  0  0  0  0  0  0  0  0
   -0.7982    1.3265   -0.2556 H   0  0  0  0  0  0  0  0  0  0  0  0
    3.5658    2.6700   -0.5429 H   0  0  0  0  0  0  0  0  0  0  0  0
    2.5770    4.0241   -0.1278 H   0  0  0  0  0  0  0  0  0  0  0  0
    4.8746    0.7343   -0.8634 H   0  0  0  0  0  0  0  0  0  0  0  0
    4.6611    0.9687    0.8962 H   0  0  0  0  0  0  0  0  0  0  0  0
    6.0205   -1.2475   -0.1257 H   0  0  0  0  0  0  0  0  0  0  0  0
    5.0993   -1.2880    1.3825 H   0  0  0  0  0  0  0  0  0  0  0  0
    3.8987   -3.0159    0.3307 H   0  0  0  0  0  0  0  0  0  0  0  0
    4.2759   -2.4125   -1.3108 H   0  0  0  0  0  0  0  0  0  0  0  0
  1  2  1  0
  2  3  1  0
  3  4  1  0
  4  5  2  0
  5  6  1  0
  6  7  1  0
  6  8  2  0
  8  9  1  0
  9 10  2  0
  9 11  1  0
 11 12  1  0
 12 13  1  0
 13 14  1  0
 14 15  2  0
 15 16  1  0
 16 17  1  0
 17 18  1  0
 17 19  2  0
 15 20  1  0
 20 21  1  0
 21 22  1  0
  8  3  1  0
 16 12  2  0
 22 14  1  0
  1 23  1  0
  1 24  1  0
  1 25  1  0
  2 26  1  0
  2 27  1  0
  5 28  1  0
 11 29  1  0
 18 30  1  0
 18 31  1  0
 20 32  1  0
 20 33  1  0
 21 34  1  0
 21 35  1  0
 22 36  1  0
 22 37  1  0
M  END
$$$$
