
     RDKit          3D

 51 54  0  0  0  0  0  0  0  0999 V2000
    3.7609    1.3432    2.5457 O   0  0  0  0  0  0  0  0  0  0  0  0
    3.3447    1.5644    1.4137 C   0  0  0  0  0  0  0  0  0  0  0  0
    2.1079    2.4394    1.1812 C   0  0  0  0  0  0  0  0  0  0  0  0
    0.9135    1.6196    1.1952 N   0  0  0  0  0  0  0  0  0  0  0  0
    0.5762    0.8243    0.1269 C   0  0  0  0  0  0  0  0  0  0  0  0
    1.2525    0.6930   -0.8836 O   0  0  0  0  0  0  0  0  0  0  0  0
   -0.7242    0.0582    0.3141 C   0  0  0  0  0  0  0  0  0  0  0  0
   -1.7705    0.7761    0.5959 N   0  0  0  0  0  0  0  0  0  0  0  0
   -2.9812    0.1391    0.7688 N   0  0  0  0  0  0  0  0  0  0  0  0
   -4.1387    0.9976    1.0037 C   0  0  0  0  0  0  0  0  0  0  0  0
   -4.7607    1.4848   -0.2839 C   0  0  0  0  0  0  0  0  0  0  0  0
   -4.2737    2.6356   -0.9206 C   0  0  0  0  0  0  0  0  0  0  0  0
   -4.8490    3.0840   -2.1109 C   0  0  0  0  0  0  0  0  0  0  0  0
   -5.9100    2.3822   -2.6809 C   0  0  0  0  0  0  0  0  0  0  0  0
   -6.3909    1.2270   -2.0668 C   0  0  0  0  0  0  0  0  0  0  0  0
   -5.8171    0.7774   -0.8767 C   0  0  0  0  0  0  0  0  0  0  0  0
   -3.1670   -1.2368    0.6500 C   0  0  0  0  0  0  0  0  0  0  0  0
   -4.2484   -1.8043    0.7861 O   0  0  0  0  0  0  0  0  0  0  0  0
   -1.9625   -2.0398    0.3631 C   0  0  0  0  0  0  0  0  0  0  0  0
   -2.0516   -3.4353    0.2722 C   0  0  0  0  0  0  0  0  0  0  0  0
   -0.9048   -4.1930    0.0322 C   0  0  0  0  0  0  0  0  0  0  0  0
    0.3283   -3.5599   -0.1135 C   0  0  0  0  0  0  0  0  0  0  0  0
    0.4178   -2.1680   -0.0286 C   0  0  0  0  0  0  0  0  0  0  0  0
   -0.7349   -1.4065    0.2022 C   0  0  0  0  0  0  0  0  0  0  0  0
    3.7970    0.9792    0.2413 N   0  0  0  0  0  0  0  0  0  0  0  0
    4.9185    0.1359    0.0930 C   0  0  0  0  0  0  0  0  0  0  0  0
    4.9140   -0.7125   -1.0268 C   0  0  0  0  0  0  0  0  0  0  0  0
    5.9714   -1.5970   -1.2540 C   0  0  0  0  0  0  0  0  0  0  0  0
    7.0435   -1.6230   -0.3694 C   0  0  0  0  0  0  0  0  0  0  0  0
    8.0559   -2.4708   -0.5949 F   0  0  0  0  0  0  0  0  0  0  0  0
    7.0787   -0.7683    0.7227 C   0  0  0  0  0  0  0  0  0  0  0  0
    8.1419   -0.7779    1.5388 F   0  0  0  0  0  0  0  0  0  0  0  0
    6.0270    0.1141    0.9529 C   0  0  0  0  0  0  0  0  0  0  0  0
    6.1490    0.9885    1.9614 F   0  0  0  0  0  0  0  0  0  0  0  0
    2.0340    3.1784    1.9838 H   0  0  0  0  0  0  0  0  0  0  0  0
    2.1875    2.9659    0.2238 H   0  0  0  0  0  0  0  0  0  0  0  0
    0.2556    1.7039    1.9630 H   0  0  0  0  0  0  0  0  0  0  0  0
   -3.8223    1.8506    1.6158 H   0  0  0  0  0  0  0  0  0  0  0  0
   -4.8850    0.4557    1.5964 H   0  0  0  0  0  0  0  0  0  0  0  0
   -3.4395    3.1851   -0.4902 H   0  0  0  0  0  0  0  0  0  0  0  0
   -4.4680    3.9791   -2.5952 H   0  0  0  0  0  0  0  0  0  0  0  0
   -6.3595    2.7325   -3.6071 H   0  0  0  0  0  0  0  0  0  0  0  0
   -7.2133    0.6733   -2.5158 H   0  0  0  0  0  0  0  0  0  0  0  0
   -6.1957   -0.1323   -0.4126 H   0  0  0  0  0  0  0  0  0  0  0  0
   -3.0128   -3.9343    0.3919 H   0  0  0  0  0  0  0  0  0  0  0  0
   -0.9748   -5.2766   -0.0358 H   0  0  0  0  0  0  0  0  0  0  0  0
    1.2223   -4.1524   -0.2933 H   0  0  0  0  0  0  0  0  0  0  0  0
    1.3952   -1.7073   -0.1423 H   0  0  0  0  0  0  0  0  0  0  0  0
    3.1181    0.9752   -0.5238 H   0  0  0  0  0  0  0  0  0  0  0  0
    4.0783   -0.7053   -1.7256 H   0  0  0  0  0  0  0  0  0  0  0  0
    5.9663   -2.2623   -2.1132 H   0  0  0  0  0  0  0  0  0  0  0  0
  1  2  2  0
  2  3  1  0
  3  4  1  0
  4  5  1  0
  5  6  2  0
  5  7  1  0
  7  8  2  0
  8  9  1  0
  9 10  1  0
 10 11  1  0
 11 12  2  0
 12 13  1  0
 13 14  2  0
 14 15  1  0
 15 16  2  0
  9 17  1  0
 17 18  2  0
 17 19  1  0
 19 20  2  0
 20 21  1  0
 21 22  2  0
 22 23  1  0
 23 24  2  0
  2 25  1  0
 25 26  1  0
 26 27  2  0
 27 28  1  0
 28 29  2  0
 29 30  1  0
 29 31  1  0
 31 32  1  0
 31 33  2  0
 33 34  1  0
 24  7  1  0
 33 26  1  0
 16 11  1  0
 24 19  1  0
  3 35  1  0
  3 36  1  0
  4 37  1  0
 10 38  1  0
 10 39  1  0
 12 40  1  0
 13 41  1  0
 14 42  1  0
 15 43  1  0
 16 44  1  0
 20 45  1  0
 21 46  1  0
 22 47  1  0
 23 48  1  0
 25 49  1  0
 27 50  1  0
 28 51  1  0
M  END
$$$$
