
     RDKit          3D

 56 60  0  0  0  0  0  0  0  0999 V2000
   -1.2047    3.5340   -1.2134 C   0  0  0  0  0  0  0  0  0  0  0  0
   -2.2193    2.5235   -1.6737 C   0  0  0  0  0  0  0  0  0  0  0  0
   -2.6627    2.5589   -3.0031 C   0  0  0  0  0  0  0  0  0  0  0  0
   -3.6173    1.6515   -3.4587 C   0  0  0  0  0  0  0  0  0  0  0  0
   -4.1457    0.6955   -2.5932 C   0  0  0  0  0  0  0  0  0  0  0  0
   -3.7171    0.6230   -1.2606 C   0  0  0  0  0  0  0  0  0  0  0  0
   -4.3245   -0.4091   -0.3505 C   0  0  0  0  0  0  0  0  0  0  0  0
   -2.7419    1.5385   -0.8055 C   0  0  0  0  0  0  0  0  0  0  0  0
   -2.2922    1.4764    0.5462 N   0  0  0  0  0  0  0  0  0  0  0  0
   -1.1561    0.7638    0.9175 C   0  0  0  0  0  0  0  0  0  0  0  0
   -0.2743   -0.1358   -0.3106 S   0  0  0  0  0  0  0  0  0  0  0  0
    1.4030   -0.0070    0.3706 C   0  0  0  0  0  0  0  0  0  0  0  0
    2.4211   -0.4777   -0.6654 C   0  0  0  0  0  0  0  0  0  0  0  0
    2.7767    0.3357   -1.5236 O   0  0  0  0  0  0  0  0  0  0  0  0
    2.8869   -1.8026   -0.5761 N   0  0  0  0  0  0  0  0  0  0  0  0
    2.2270   -2.7589    0.3233 C   0  0  0  0  0  0  0  0  0  0  0  0
    2.4846   -4.2435    0.1472 C   0  0  0  0  0  0  0  0  0  0  0  0
    1.8501   -5.0971    0.7659 O   0  0  0  0  0  0  0  0  0  0  0  0
    3.5101   -4.5996   -0.6690 N   0  0  0  0  0  0  0  0  0  0  0  0
    4.2836   -3.6796   -1.3779 C   0  0  0  0  0  0  0  0  0  0  0  0
    5.3476   -4.1946   -2.1323 C   0  0  0  0  0  0  0  0  0  0  0  0
    6.1661   -3.3401   -2.8617 C   0  0  0  0  0  0  0  0  0  0  0  0
    5.9220   -1.9740   -2.8319 C   0  0  0  0  0  0  0  0  0  0  0  0
    4.8551   -1.4618   -2.0817 C   0  0  0  0  0  0  0  0  0  0  0  0
    4.0006   -2.2992   -1.3477 C   0  0  0  0  0  0  0  0  0  0  0  0
   -0.7062    0.6960    2.1296 N   0  0  0  0  0  0  0  0  0  0  0  0
   -1.3962    1.3811    3.1343 C   0  0  0  0  0  0  0  0  0  0  0  0
   -0.9140    1.3152    4.4441 C   0  0  0  0  0  0  0  0  0  0  0  0
   -1.5723    1.9829    5.4805 C   0  0  0  0  0  0  0  0  0  0  0  0
   -2.7221    2.7246    5.2137 C   0  0  0  0  0  0  0  0  0  0  0  0
   -3.2130    2.7970    3.9108 C   0  0  0  0  0  0  0  0  0  0  0  0
   -2.5461    2.1236    2.8794 C   0  0  0  0  0  0  0  0  0  0  0  0
   -3.0385    2.1819    1.4911 C   0  0  0  0  0  0  0  0  0  0  0  0
   -4.0514    2.8386    1.2557 O   0  0  0  0  0  0  0  0  0  0  0  0
   -1.5792    4.0857   -0.3452 H   0  0  0  0  0  0  0  0  0  0  0  0
   -0.2622    3.0427   -0.9545 H   0  0  0  0  0  0  0  0  0  0  0  0
   -0.9889    4.2701   -1.9955 H   0  0  0  0  0  0  0  0  0  0  0  0
   -2.2708    3.3015   -3.6950 H   0  0  0  0  0  0  0  0  0  0  0  0
   -3.9564    1.6949   -4.4908 H   0  0  0  0  0  0  0  0  0  0  0  0
   -4.8988    0.0057   -2.9681 H   0  0  0  0  0  0  0  0  0  0  0  0
   -4.9666   -1.1023   -0.9043 H   0  0  0  0  0  0  0  0  0  0  0  0
   -3.5456   -1.0080    0.1323 H   0  0  0  0  0  0  0  0  0  0  0  0
   -4.9396    0.0751    0.4151 H   0  0  0  0  0  0  0  0  0  0  0  0
    1.6294    1.0435    0.5892 H   0  0  0  0  0  0  0  0  0  0  0  0
    1.4973   -0.5497    1.3132 H   0  0  0  0  0  0  0  0  0  0  0  0
    1.1444   -2.6308    0.2351 H   0  0  0  0  0  0  0  0  0  0  0  0
    2.5312   -2.5029    1.3453 H   0  0  0  0  0  0  0  0  0  0  0  0
    3.6985   -5.5910   -0.7376 H   0  0  0  0  0  0  0  0  0  0  0  0
    5.5490   -5.2624   -2.1566 H   0  0  0  0  0  0  0  0  0  0  0  0
    6.9915   -3.7360   -3.4471 H   0  0  0  0  0  0  0  0  0  0  0  0
    6.5594   -1.2933   -3.3921 H   0  0  0  0  0  0  0  0  0  0  0  0
    4.7401   -0.3829   -2.0904 H   0  0  0  0  0  0  0  0  0  0  0  0
   -0.0186    0.7368    4.6585 H   0  0  0  0  0  0  0  0  0  0  0  0
   -1.1865    1.9225    6.4956 H   0  0  0  0  0  0  0  0  0  0  0  0
   -3.2359    3.2446    6.0189 H   0  0  0  0  0  0  0  0  0  0  0  0
   -4.1105    3.3749    3.7005 H   0  0  0  0  0  0  0  0  0  0  0  0
  1  2  1  0
  2  3  2  0
  3  4  1  0
  4  5  2  0
  5  6  1  0
  6  7  1  0
  6  8  2  0
  8  9  1  0
  9 10  1  0
 10 11  1  0
 11 12  1  0
 12 13  1  0
 13 14  2  0
 13 15  1  0
 15 16  1  0
 16 17  1  0
 17 18  2  0
 17 19  1  0
 19 20  1  0
 20 21  2  0
 21 22  1  0
 22 23  2  0
 23 24  1  0
 24 25  2  0
 10 26  2  0
 26 27  1  0
 27 28  2  0
 28 29  1  0
 29 30  2  0
 30 31  1  0
 31 32  2  0
 32 33  1  0
 33 34  2  0
  8  2  1  0
 33  9  1  0
 25 15  1  0
 32 27  1  0
 25 20  1  0
  1 35  1  0
  1 36  1  0
  1 37  1  0
  3 38  1  0
  4 39  1  0
  5 40  1  0
  7 41  1  0
  7 42  1  0
  7 43  1  0
 12 44  1  0
 12 45  1  0
 16 46  1  0
 16 47  1  0
 19 48  1  0
 21 49  1  0
 22 50  1  0
 23 51  1  0
 24 52  1  0
 28 53  1  0
 29 54  1  0
 30 55  1  0
 31 56  1  0
M  END
$$$$
