
     RDKit          3D

 47 51  0  0  0  0  0  0  0  0999 V2000
   -1.5082   -1.2218   -3.4807 C   0  0  0  0  0  0  0  0  0  0  0  0
   -2.1346   -0.3229   -2.4604 C   0  0  0  0  0  0  0  0  0  0  0  0
   -3.3750    0.0639   -2.6298 N   0  0  0  0  0  0  0  0  0  0  0  0
   -3.9125    0.8886   -1.6806 C   0  0  0  0  0  0  0  0  0  0  0  0
   -5.5264    1.4508   -1.7653 S   0  0  0  0  0  0  0  0  0  0  0  0
   -5.3620    2.3286   -0.3079 C   0  0  0  0  0  0  0  0  0  0  0  0
   -4.1018    2.2188    0.2520 C   0  0  0  0  0  0  0  0  0  0  0  0
   -3.2975    1.3809   -0.5492 C   0  0  0  0  0  0  0  0  0  0  0  0
   -1.8517    0.9002   -0.3940 C   0  0  0  0  0  0  0  0  0  0  0  0
   -0.9757    1.1570    0.5428 N   0  0  0  0  0  0  0  0  0  0  0  0
    0.1649    0.4686    0.2111 N   0  0  0  0  0  0  0  0  0  0  0  0
   -0.0568   -0.1864   -0.9124 C   0  0  0  0  0  0  0  0  0  0  0  0
    1.1112   -1.2145   -1.6627 S   0  0  0  0  0  0  0  0  0  0  0  0
    2.6202   -0.6989   -0.7947 C   0  0  0  0  0  0  0  0  0  0  0  0
    3.8172   -1.4811   -1.3114 C   0  0  0  0  0  0  0  0  0  0  0  0
    4.0559   -1.6460   -2.5058 O   0  0  0  0  0  0  0  0  0  0  0  0
    4.6330   -1.9835   -0.3202 N   0  0  0  0  0  0  0  0  0  0  0  0
    5.8834   -2.6194   -0.6657 C   0  0  0  0  0  0  0  0  0  0  0  0
    6.5104   -3.1385    0.5726 C   0  0  0  0  0  0  0  0  0  0  0  0
    6.8821   -4.3988    0.9937 C   0  0  0  0  0  0  0  0  0  0  0  0
    7.4279   -4.2414    2.2907 C   0  0  0  0  0  0  0  0  0  0  0  0
    7.3543   -2.8984    2.5793 C   0  0  0  0  0  0  0  0  0  0  0  0
    6.7979   -2.2196    1.5424 O   0  0  0  0  0  0  0  0  0  0  0  0
   -1.3382    0.0591   -1.3587 N   0  0  0  0  0  0  0  0  0  0  0  0
   -3.7340    2.8867    1.5402 C   0  0  0  0  0  0  0  0  0  0  0  0
   -4.7465    3.9782    1.9240 C   0  0  0  0  0  0  0  0  0  0  0  0
   -6.1964    3.5106    1.7201 C   0  0  0  0  0  0  0  0  0  0  0  0
   -6.4834    3.1460    0.2544 C   0  0  0  0  0  0  0  0  0  0  0  0
   -2.2198   -1.4086   -4.2919 H   0  0  0  0  0  0  0  0  0  0  0  0
   -0.6287   -0.7475   -3.9236 H   0  0  0  0  0  0  0  0  0  0  0  0
   -1.2571   -2.1890   -3.0360 H   0  0  0  0  0  0  0  0  0  0  0  0
    2.4963   -0.8687    0.2786 H   0  0  0  0  0  0  0  0  0  0  0  0
    2.8147    0.3636   -0.9652 H   0  0  0  0  0  0  0  0  0  0  0  0
    4.5676   -1.5934    0.6110 H   0  0  0  0  0  0  0  0  0  0  0  0
    5.6887   -3.4224   -1.3843 H   0  0  0  0  0  0  0  0  0  0  0  0
    6.5292   -1.8753   -1.1459 H   0  0  0  0  0  0  0  0  0  0  0  0
    6.7705   -5.3168    0.4334 H   0  0  0  0  0  0  0  0  0  0  0  0
    7.8268   -5.0099    2.9367 H   0  0  0  0  0  0  0  0  0  0  0  0
    7.6417   -2.2974    3.4312 H   0  0  0  0  0  0  0  0  0  0  0  0
   -3.7056    2.1262    2.3313 H   0  0  0  0  0  0  0  0  0  0  0  0
   -2.7331    3.3282    1.4760 H   0  0  0  0  0  0  0  0  0  0  0  0
   -4.5933    4.2650    2.9701 H   0  0  0  0  0  0  0  0  0  0  0  0
   -4.5680    4.8760    1.3172 H   0  0  0  0  0  0  0  0  0  0  0  0
   -6.3792    2.6362    2.3591 H   0  0  0  0  0  0  0  0  0  0  0  0
   -6.8913    4.2940    2.0436 H   0  0  0  0  0  0  0  0  0  0  0  0
   -6.5820    4.0660   -0.3350 H   0  0  0  0  0  0  0  0  0  0  0  0
   -7.4354    2.6068    0.1941 H   0  0  0  0  0  0  0  0  0  0  0  0
  1  2  1  0
  2  3  2  0
  3  4  1  0
  4  5  1  0
  5  6  1  0
  6  7  2  0
  7  8  1  0
  8  9  1  0
  9 10  2  0
 10 11  1  0
 11 12  2  0
 12 13  1  0
 13 14  1  0
 14 15  1  0
 15 16  2  0
 15 17  1  0
 17 18  1  0
 18 19  1  0
 19 20  2  0
 20 21  1  0
 21 22  2  0
 22 23  1  0
 12 24  1  0
  7 25  1  0
 25 26  1  0
 26 27  1  0
 27 28  1  0
 24  2  1  0
  8  4  2  0
 24  9  1  0
 28  6  1  0
 23 19  1  0
  1 29  1  0
  1 30  1  0
  1 31  1  0
 14 32  1  0
 14 33  1  0
 17 34  1  0
 18 35  1  0
 18 36  1  0
 20 37  1  0
 21 38  1  0
 22 39  1  0
 25 40  1  0
 25 41  1  0
 26 42  1  0
 26 43  1  0
 27 44  1  0
 27 45  1  0
 28 46  1  0
 28 47  1  0
M  END
$$$$
