
     RDKit          3D

 40 42  0  0  0  0  0  0  0  0999 V2000
   -3.7112   -1.3943   -3.4789 C   0  0  0  0  0  0  0  0  0  0  0  0
   -4.4783   -0.6660   -2.5265 O   0  0  0  0  0  0  0  0  0  0  0  0
   -4.0160   -0.6789   -1.2349 C   0  0  0  0  0  0  0  0  0  0  0  0
   -2.9800   -1.4723   -0.7388 C   0  0  0  0  0  0  0  0  0  0  0  0
   -2.5968   -1.3739    0.6086 C   0  0  0  0  0  0  0  0  0  0  0  0
   -1.5327   -2.2153    1.1667 C   0  0  0  0  0  0  0  0  0  0  0  0
   -0.2368   -2.2146    0.8211 C   0  0  0  0  0  0  0  0  0  0  0  0
    0.9194   -3.2516    1.6028 S   0  0  0  0  0  0  0  0  0  0  0  0
    2.2846   -2.6127    0.6870 C   0  0  0  0  0  0  0  0  0  0  0  0
    3.8420   -3.1869    0.8549 S   0  0  0  0  0  0  0  0  0  0  0  0
    1.8093   -1.6307   -0.1552 N   0  0  0  0  0  0  0  0  0  0  0  0
    2.6598   -0.9004   -1.0232 N   0  0  0  0  0  0  0  0  0  0  0  0
    3.1026    0.3219   -0.4305 C   0  0  0  0  0  0  0  0  0  0  0  0
    2.9266    0.5208    0.9024 N   0  0  0  0  0  0  0  0  0  0  0  0
    3.4009    1.6657    1.4491 C   0  0  0  0  0  0  0  0  0  0  0  0
    4.0656    2.6499    0.7348 C   0  0  0  0  0  0  0  0  0  0  0  0
    4.5341    3.8943    1.4232 C   0  0  0  0  0  0  0  0  0  0  0  0
    4.9316    3.6749    2.7060 F   0  0  0  0  0  0  0  0  0  0  0  0
    5.5919    4.4814    0.7997 F   0  0  0  0  0  0  0  0  0  0  0  0
    3.5621    4.8432    1.4877 F   0  0  0  0  0  0  0  0  0  0  0  0
    4.2390    2.4442   -0.6364 C   0  0  0  0  0  0  0  0  0  0  0  0
    3.7631    1.2721   -1.2242 C   0  0  0  0  0  0  0  0  0  0  0  0
    3.9865    1.0455   -2.9208 Cl  0  0  0  0  0  0  0  0  0  0  0  0
    0.4482   -1.3761   -0.2070 C   0  0  0  0  0  0  0  0  0  0  0  0
   -0.0940   -0.6275   -1.0090 O   0  0  0  0  0  0  0  0  0  0  0  0
   -3.2797   -0.4973    1.4629 C   0  0  0  0  0  0  0  0  0  0  0  0
   -4.3236    0.2882    0.9766 C   0  0  0  0  0  0  0  0  0  0  0  0
   -4.6797    0.1895   -0.3613 C   0  0  0  0  0  0  0  0  0  0  0  0
   -5.7070    0.9711   -0.8159 O   0  0  0  0  0  0  0  0  0  0  0  0
   -2.6747   -1.0414   -3.5088 H   0  0  0  0  0  0  0  0  0  0  0  0
   -4.1513   -1.2193   -4.4655 H   0  0  0  0  0  0  0  0  0  0  0  0
   -3.7588   -2.4698   -3.2798 H   0  0  0  0  0  0  0  0  0  0  0  0
   -2.4535   -2.1692   -1.3818 H   0  0  0  0  0  0  0  0  0  0  0  0
   -1.8746   -2.8728    1.9654 H   0  0  0  0  0  0  0  0  0  0  0  0
    2.1563   -0.6549   -1.8811 H   0  0  0  0  0  0  0  0  0  0  0  0
    3.2232    1.7632    2.5192 H   0  0  0  0  0  0  0  0  0  0  0  0
    4.7462    3.1926   -1.2427 H   0  0  0  0  0  0  0  0  0  0  0  0
   -3.0044   -0.4171    2.5121 H   0  0  0  0  0  0  0  0  0  0  0  0
   -4.8547    0.9712    1.6326 H   0  0  0  0  0  0  0  0  0  0  0  0
   -5.7851    0.7535   -1.7652 H   0  0  0  0  0  0  0  0  0  0  0  0
  1  2  1  0
  2  3  1  0
  3  4  2  0
  4  5  1  0
  5  6  1  0
  6  7  2  3
  7  8  1  0
  8  9  1  0
  9 10  2  0
  9 11  1  0
 11 12  1  0
 12 13  1  0
 13 14  2  0
 14 15  1  0
 15 16  2  0
 16 17  1  0
 17 18  1  0
 17 19  1  0
 17 20  1  0
 16 21  1  0
 21 22  2  0
 22 23  1  0
 11 24  1  0
 24 25  2  0
  5 26  2  0
 26 27  1  0
 27 28  2  0
 28 29  1  0
 28  3  1  0
 24  7  1  0
 22 13  1  0
  1 30  1  0
  1 31  1  0
  1 32  1  0
  4 33  1  0
  6 34  1  0
 12 35  1  0
 15 36  1  0
 21 37  1  0
 26 38  1  0
 27 39  1  0
 29 40  1  0
M  END
$$$$
