
     RDKit          3D

 46 48  0  0  0  0  0  0  0  0999 V2000
   -8.0750   -0.9028   -0.9193 C   0  0  0  0  0  0  0  0  0  0  0  0
   -7.5489    0.3753   -0.5854 O   0  0  0  0  0  0  0  0  0  0  0  0
   -6.2962    0.4044   -0.0353 C   0  0  0  0  0  0  0  0  0  0  0  0
   -5.7935    1.6867    0.1958 C   0  0  0  0  0  0  0  0  0  0  0  0
   -4.5327    1.8659    0.7690 C   0  0  0  0  0  0  0  0  0  0  0  0
   -3.7525    0.7571    1.1114 C   0  0  0  0  0  0  0  0  0  0  0  0
   -2.4412    0.9830    1.7285 C   0  0  0  0  0  0  0  0  0  0  0  0
   -1.2565    0.8486    1.1158 C   0  0  0  0  0  0  0  0  0  0  0  0
    0.2500    1.1167    1.9579 S   0  0  0  0  0  0  0  0  0  0  0  0
    1.1609    0.7251    0.5376 C   0  0  0  0  0  0  0  0  0  0  0  0
    2.4981    0.7271    0.5067 C   0  0  0  0  0  0  0  0  0  0  0  0
    3.2586    0.3873   -0.7262 C   0  0  0  0  0  0  0  0  0  0  0  0
    2.7003    0.2386   -1.8096 O   0  0  0  0  0  0  0  0  0  0  0  0
    4.7370    0.2628   -0.6265 C   0  0  0  0  0  0  0  0  0  0  0  0
    5.3788   -0.1800    0.5359 C   0  0  0  0  0  0  0  0  0  0  0  0
    6.7732   -0.2826    0.5699 C   0  0  0  0  0  0  0  0  0  0  0  0
    7.5389    0.0351   -0.5584 C   0  0  0  0  0  0  0  0  0  0  0  0
    9.0366   -0.0461   -0.5082 C   0  0  0  0  0  0  0  0  0  0  0  0
    6.8928    0.4743   -1.7194 C   0  0  0  0  0  0  0  0  0  0  0  0
    5.5003    0.5772   -1.7573 C   0  0  0  0  0  0  0  0  0  0  0  0
    0.3490    0.4241   -0.5112 N   0  0  0  0  0  0  0  0  0  0  0  0
   -1.0070    0.4716   -0.3098 C   0  0  0  0  0  0  0  0  0  0  0  0
   -1.8402    0.2460   -1.1708 O   0  0  0  0  0  0  0  0  0  0  0  0
   -4.2490   -0.5329    0.8640 C   0  0  0  0  0  0  0  0  0  0  0  0
   -3.4761   -1.6031    1.2481 O   0  0  0  0  0  0  0  0  0  0  0  0
   -3.3478   -2.5927    0.2284 C   0  0  0  0  0  0  0  0  0  0  0  0
   -5.5245   -0.7069    0.3090 C   0  0  0  0  0  0  0  0  0  0  0  0
   -9.0520   -0.7499   -1.3879 H   0  0  0  0  0  0  0  0  0  0  0  0
   -7.4355   -1.4184   -1.6435 H   0  0  0  0  0  0  0  0  0  0  0  0
   -8.2282   -1.5114   -0.0221 H   0  0  0  0  0  0  0  0  0  0  0  0
   -6.3909    2.5550   -0.0713 H   0  0  0  0  0  0  0  0  0  0  0  0
   -4.1665    2.8752    0.9395 H   0  0  0  0  0  0  0  0  0  0  0  0
   -2.4898    1.2685    2.7761 H   0  0  0  0  0  0  0  0  0  0  0  0
    3.0623    0.9998    1.3900 H   0  0  0  0  0  0  0  0  0  0  0  0
    4.8189   -0.4727    1.4193 H   0  0  0  0  0  0  0  0  0  0  0  0
    7.2599   -0.6232    1.4820 H   0  0  0  0  0  0  0  0  0  0  0  0
    9.3621   -0.8365    0.1763 H   0  0  0  0  0  0  0  0  0  0  0  0
    9.4515    0.9083   -0.1701 H   0  0  0  0  0  0  0  0  0  0  0  0
    9.4484   -0.2819   -1.4951 H   0  0  0  0  0  0  0  0  0  0  0  0
    7.4686    0.7344   -2.6054 H   0  0  0  0  0  0  0  0  0  0  0  0
    5.0137    0.9084   -2.6731 H   0  0  0  0  0  0  0  0  0  0  0  0
    0.7310    0.1996   -1.4273 H   0  0  0  0  0  0  0  0  0  0  0  0
   -3.2359   -2.1517   -0.7683 H   0  0  0  0  0  0  0  0  0  0  0  0
   -2.4458   -3.1745    0.4410 H   0  0  0  0  0  0  0  0  0  0  0  0
   -4.2012   -3.2775    0.2526 H   0  0  0  0  0  0  0  0  0  0  0  0
   -5.9041   -1.7114    0.1725 H   0  0  0  0  0  0  0  0  0  0  0  0
  1  2  1  0
  2  3  1  0
  3  4  2  0
  4  5  1  0
  5  6  2  0
  6  7  1  0
  7  8  2  3
  8  9  1  0
  9 10  1  0
 10 11  2  3
 11 12  1  0
 12 13  2  0
 12 14  1  0
 14 15  2  0
 15 16  1  0
 16 17  2  0
 17 18  1  0
 17 19  1  0
 19 20  2  0
 10 21  1  0
 21 22  1  0
 22 23  2  0
  6 24  1  0
 24 25  1  0
 25 26  1  0
 24 27  2  0
 27  3  1  0
 22  8  1  0
 20 14  1  0
  1 28  1  0
  1 29  1  0
  1 30  1  0
  4 31  1  0
  5 32  1  0
  7 33  1  0
 11 34  1  0
 15 35  1  0
 16 36  1  0
 18 37  1  0
 18 38  1  0
 18 39  1  0
 19 40  1  0
 20 41  1  0
 21 42  1  0
 26 43  1  0
 26 44  1  0
 26 45  1  0
 27 46  1  0
M  END
$$$$
