
     RDKit          3D

 31 32  0  0  0  0  0  0  0  0999 V2000
   -3.0018    1.3390    1.1060 C   0  0  0  0  0  0  0  0  0  0  0  0
   -2.5238    0.6688   -0.1195 N   0  0  0  0  0  4  0  0  0  0  0  0
   -3.2681   -0.3345   -0.6445 C   0  0  0  0  0  0  0  0  0  0  0  0
   -2.8614   -1.0108   -1.7872 C   0  0  0  0  0  0  0  0  0  0  0  0
   -1.6745   -0.6512   -2.4035 C   0  0  0  0  0  0  0  0  0  0  0  0
   -0.9175    0.3790   -1.8617 C   0  0  0  0  0  0  0  0  0  0  0  0
   -1.3486    1.0369   -0.7018 C   0  0  0  0  0  0  0  0  0  0  0  0
   -0.5578    2.1409   -0.1409 C   0  0  0  0  0  0  0  0  0  0  0  0
    0.6777    2.0384    0.3778 C   0  0  0  0  0  0  0  0  0  0  0  0
    1.4483    0.7981    0.5031 C   0  0  0  0  0  0  0  0  0  0  0  0
    2.5573    0.5906   -0.3273 C   0  0  0  0  0  0  0  0  0  0  0  0
    3.2992   -0.5910   -0.2350 C   0  0  0  0  0  0  0  0  0  0  0  0
    2.9305   -1.5662    0.7000 C   0  0  0  0  0  0  0  0  0  0  0  0
    3.6973   -2.8156    0.7939 N   0  0  0  0  0  4  0  0  0  0  0  0
    3.2908   -3.6766    1.5864 O   0  0  0  0  0  0  0  0  0  0  0  0
    4.6908   -2.9358    0.0652 O   0  0  0  0  0  1  0  0  0  0  0  0
    1.8312   -1.3609    1.5448 C   0  0  0  0  0  0  0  0  0  0  0  0
    1.0947   -0.1766    1.4449 C   0  0  0  0  0  0  0  0  0  0  0  0
   -2.2344    1.2351    1.8774 H   0  0  0  0  0  0  0  0  0  0  0  0
   -3.1958    2.3876    0.8667 H   0  0  0  0  0  0  0  0  0  0  0  0
   -3.9255    0.8701    1.4545 H   0  0  0  0  0  0  0  0  0  0  0  0
   -4.1959   -0.5955   -0.1419 H   0  0  0  0  0  0  0  0  0  0  0  0
   -3.4697   -1.8152   -2.1964 H   0  0  0  0  0  0  0  0  0  0  0  0
   -1.3397   -1.1669   -3.3025 H   0  0  0  0  0  0  0  0  0  0  0  0
    0.0117    0.6699   -2.3490 H   0  0  0  0  0  0  0  0  0  0  0  0
   -1.0272    3.1219   -0.1845 H   0  0  0  0  0  0  0  0  0  0  0  0
    1.1906    2.9326    0.7328 H   0  0  0  0  0  0  0  0  0  0  0  0
    2.8574    1.3456   -1.0528 H   0  0  0  0  0  0  0  0  0  0  0  0
    4.1575   -0.7329   -0.8904 H   0  0  0  0  0  0  0  0  0  0  0  0
    1.5469   -2.1051    2.2871 H   0  0  0  0  0  0  0  0  0  0  0  0
    0.2597   -0.0196    2.1233 H   0  0  0  0  0  0  0  0  0  0  0  0
  1  2  1  0
  2  3  2  0
  3  4  1  0
  4  5  2  0
  5  6  1  0
  6  7  2  0
  7  8  1  0
  8  9  2  3
  9 10  1  0
 10 11  2  0
 11 12  1  0
 12 13  2  0
 13 14  1  0
 14 15  2  0
 14 16  1  0
 13 17  1  0
 17 18  2  0
  7  2  1  0
 18 10  1  0
  1 19  1  0
  1 20  1  0
  1 21  1  0
  3 22  1  0
  4 23  1  0
  5 24  1  0
  6 25  1  0
  8 26  1  0
  9 27  1  0
 11 28  1  0
 12 29  1  0
 17 30  1  0
 18 31  1  0
M  CHG  3   2   1  14   1  16  -1
M  END
$$$$
