
     RDKit          3D

 38 40  0  0  0  0  0  0  0  0999 V2000
   -0.4783    2.0222   -2.0602 C   0  0  0  0  0  0  0  0  0  0  0  0
   -0.6956    1.0092   -0.9721 C   0  0  0  0  0  0  0  0  0  0  0  0
   -1.3525    1.4029    0.2022 C   0  0  0  0  0  0  0  0  0  0  0  0
   -1.5877    0.4891    1.2296 C   0  0  0  0  0  0  0  0  0  0  0  0
   -2.2395    0.9842    2.3254 O   0  0  0  0  0  0  0  0  0  0  0  0
   -1.1705   -0.8413    1.1192 C   0  0  0  0  0  0  0  0  0  0  0  0
   -1.3343   -2.0531    2.4211 S   0  0  0  0  0  0  0  0  0  0  0  0
   -3.0592   -2.2099    2.5733 C   0  0  0  0  0  0  0  0  0  0  0  0
   -3.8688   -1.1429    2.8728 N   0  0  0  0  0  0  0  0  0  0  0  0
   -5.0621   -1.6888    2.9253 C   0  0  0  0  0  0  0  0  0  0  0  0
   -4.9634   -3.0225    2.6802 N   0  0  0  0  0  0  0  0  0  0  0  0
   -3.6894   -3.3812    2.4614 N   0  0  0  0  0  0  0  0  0  0  0  0
   -0.5101   -1.2346   -0.0528 C   0  0  0  0  0  0  0  0  0  0  0  0
   -0.2680   -0.3229   -1.0881 C   0  0  0  0  0  0  0  0  0  0  0  0
    0.4336   -0.7497   -2.2534 N   0  0  0  0  0  0  0  0  0  0  0  0
    2.0230   -1.3042   -2.1388 S   0  0  0  0  0  6  0  0  0  0  0  0
    2.5264   -1.3457   -3.4962 O   0  0  0  0  0  0  0  0  0  0  0  0
    2.0736   -2.4722   -1.2873 O   0  0  0  0  0  0  0  0  0  0  0  0
    2.8635    0.0229   -1.2998 C   0  0  0  0  0  0  0  0  0  0  0  0
    2.9798   -0.0013    0.0945 C   0  0  0  0  0  0  0  0  0  0  0  0
    3.6484    1.0361    0.7474 C   0  0  0  0  0  0  0  0  0  0  0  0
    4.2094    2.0760    0.0051 C   0  0  0  0  0  0  0  0  0  0  0  0
    5.0321    3.3533    0.8120 Cl  0  0  0  0  0  0  0  0  0  0  0  0
    4.1144    2.0865   -1.3875 C   0  0  0  0  0  0  0  0  0  0  0  0
    3.4445    1.0536   -2.0468 C   0  0  0  0  0  0  0  0  0  0  0  0
   -0.8427    3.0128   -1.7679 H   0  0  0  0  0  0  0  0  0  0  0  0
   -1.0177    1.7258   -2.9655 H   0  0  0  0  0  0  0  0  0  0  0  0
    0.5870    2.1211   -2.2871 H   0  0  0  0  0  0  0  0  0  0  0  0
   -1.6933    2.4286    0.3291 H   0  0  0  0  0  0  0  0  0  0  0  0
   -2.7140    0.2408    2.7551 H   0  0  0  0  0  0  0  0  0  0  0  0
   -5.9984   -1.1894    3.1311 H   0  0  0  0  0  0  0  0  0  0  0  0
   -5.6923   -3.7273    2.6510 H   0  0  0  0  0  0  0  0  0  0  0  0
   -0.1836   -2.2677   -0.1608 H   0  0  0  0  0  0  0  0  0  0  0  0
    0.2539   -0.2716   -3.1338 H   0  0  0  0  0  0  0  0  0  0  0  0
    2.5529   -0.8159    0.6763 H   0  0  0  0  0  0  0  0  0  0  0  0
    3.7313    1.0257    1.8316 H   0  0  0  0  0  0  0  0  0  0  0  0
    4.5647    2.8920   -1.9624 H   0  0  0  0  0  0  0  0  0  0  0  0
    3.3834    1.0593   -3.1329 H   0  0  0  0  0  0  0  0  0  0  0  0
  1  2  1  0
  2  3  2  0
  3  4  1  0
  4  5  1  0
  4  6  2  0
  6  7  1  0
  7  8  1  0
  8  9  1  0
  9 10  2  0
 10 11  1  0
 11 12  1  0
  6 13  1  0
 13 14  2  0
 14 15  1  0
 15 16  1  0
 16 17  2  0
 16 18  2  0
 16 19  1  0
 19 20  2  0
 20 21  1  0
 21 22  2  0
 22 23  1  0
 22 24  1  0
 24 25  2  0
 14  2  1  0
 25 19  1  0
 12  8  2  0
  1 26  1  0
  1 27  1  0
  1 28  1  0
  3 29  1  0
  5 30  1  0
 10 31  1  0
 11 32  1  0
 13 33  1  0
 15 34  1  0
 20 35  1  0
 21 36  1  0
 24 37  1  0
 25 38  1  0
M  END
$$$$
