
     RDKit          3D

 57 60  0  0  0  0  0  0  0  0999 V2000
    8.7740    3.0194   -0.7954 C   0  0  0  0  0  0  0  0  0  0  0  0
    7.7176    2.0446   -0.3154 C   0  0  0  0  0  0  0  0  0  0  0  0
    6.5175    2.7829   -0.0525 O   0  0  0  0  0  0  0  0  0  0  0  0
    5.5328    1.9326    0.3730 C   0  0  0  0  0  0  0  0  0  0  0  0
    4.5858    1.4819   -0.5406 C   0  0  0  0  0  0  0  0  0  0  0  0
    3.5642    0.6307   -0.1111 C   0  0  0  0  0  0  0  0  0  0  0  0
    3.4748    0.2427    1.2343 C   0  0  0  0  0  0  0  0  0  0  0  0
    2.4198   -0.6261    1.5750 N   0  0  0  0  0  0  0  0  0  0  0  0
    2.0895   -1.1242    2.8213 C   0  0  0  0  0  0  0  0  0  0  0  0
    2.6720   -0.8837    3.8773 O   0  0  0  0  0  0  0  0  0  0  0  0
    0.9210   -2.0996    2.7947 C   0  0  0  0  0  0  0  0  0  0  0  0
   -0.6747   -1.2471    2.6225 S   0  0  0  0  0  0  0  0  0  0  0  0
   -0.8480   -1.1940    0.8965 C   0  0  0  0  0  0  0  0  0  0  0  0
    0.1718   -1.2473    0.0691 N   0  0  0  0  0  0  0  0  0  0  0  0
   -0.3188   -1.2899   -1.2004 N   0  0  0  0  0  0  0  0  0  0  0  0
   -1.6400   -1.2700   -1.1399 C   0  0  0  0  0  0  0  0  0  0  0  0
   -2.5282   -1.1771   -2.3418 C   0  0  0  0  0  0  0  0  0  0  0  0
   -3.4129    0.0368   -2.3641 C   0  0  0  0  0  0  0  0  0  0  0  0
   -3.1573    1.3303   -1.9297 C   0  0  0  0  0  0  0  0  0  0  0  0
   -4.3177    2.1058   -2.1539 C   0  0  0  0  0  0  0  0  0  0  0  0
   -5.2474    1.2832   -2.7478 C   0  0  0  0  0  0  0  0  0  0  0  0
   -4.6867    0.0405   -2.8943 N   0  0  0  0  0  0  0  0  0  0  0  0
   -5.3509   -1.0731   -3.5380 C   0  0  0  0  0  0  0  0  0  0  0  0
   -2.0440   -1.2433    0.1945 N   0  0  0  0  0  0  0  0  0  0  0  0
   -3.3711   -1.2825    0.7019 C   0  0  0  0  0  0  0  0  0  0  0  0
   -3.7597   -0.4126    1.7328 C   0  0  0  0  0  0  0  0  0  0  0  0
   -5.0693   -0.4505    2.2186 C   0  0  0  0  0  0  0  0  0  0  0  0
   -5.9794   -1.3530    1.6789 C   0  0  0  0  0  0  0  0  0  0  0  0
   -7.2347   -1.3898    2.1480 F   0  0  0  0  0  0  0  0  0  0  0  0
   -5.6037   -2.2250    0.6637 C   0  0  0  0  0  0  0  0  0  0  0  0
   -4.2976   -2.1917    0.1700 C   0  0  0  0  0  0  0  0  0  0  0  0
    4.4187    0.7263    2.1442 C   0  0  0  0  0  0  0  0  0  0  0  0
    5.4460    1.5755    1.7152 C   0  0  0  0  0  0  0  0  0  0  0  0
    8.9281    3.8128   -0.0577 H   0  0  0  0  0  0  0  0  0  0  0  0
    9.7260    2.5081   -0.9692 H   0  0  0  0  0  0  0  0  0  0  0  0
    8.4596    3.5045   -1.7254 H   0  0  0  0  0  0  0  0  0  0  0  0
    8.0723    1.5496    0.5973 H   0  0  0  0  0  0  0  0  0  0  0  0
    7.5382    1.2881   -1.0887 H   0  0  0  0  0  0  0  0  0  0  0  0
    4.6439    1.7860   -1.5815 H   0  0  0  0  0  0  0  0  0  0  0  0
    2.8361    0.2766   -0.8397 H   0  0  0  0  0  0  0  0  0  0  0  0
    1.7962   -0.8810    0.8077 H   0  0  0  0  0  0  0  0  0  0  0  0
    1.0719   -2.8552    2.0145 H   0  0  0  0  0  0  0  0  0  0  0  0
    0.9082   -2.6339    3.7524 H   0  0  0  0  0  0  0  0  0  0  0  0
   -3.1024   -2.1027   -2.4350 H   0  0  0  0  0  0  0  0  0  0  0  0
   -1.8936   -1.1330   -3.2376 H   0  0  0  0  0  0  0  0  0  0  0  0
   -2.2313    1.6782   -1.4865 H   0  0  0  0  0  0  0  0  0  0  0  0
   -4.4579    3.1540   -1.9159 H   0  0  0  0  0  0  0  0  0  0  0  0
   -6.2556    1.4917   -3.0854 H   0  0  0  0  0  0  0  0  0  0  0  0
   -6.2557   -0.7210   -4.0437 H   0  0  0  0  0  0  0  0  0  0  0  0
   -4.6706   -1.5081   -4.2750 H   0  0  0  0  0  0  0  0  0  0  0  0
   -5.6125   -1.8030   -2.7698 H   0  0  0  0  0  0  0  0  0  0  0  0
   -3.0809    0.3338    2.1431 H   0  0  0  0  0  0  0  0  0  0  0  0
   -5.3870    0.2265    3.0080 H   0  0  0  0  0  0  0  0  0  0  0  0
   -6.3287   -2.9336    0.2706 H   0  0  0  0  0  0  0  0  0  0  0  0
   -4.0165   -2.9152   -0.5904 H   0  0  0  0  0  0  0  0  0  0  0  0
    4.3812    0.4660    3.1975 H   0  0  0  0  0  0  0  0  0  0  0  0
    6.1676    1.9581    2.4325 H   0  0  0  0  0  0  0  0  0  0  0  0
  1  2  1  0
  2  3  1  0
  3  4  1  0
  4  5  2  0
  5  6  1  0
  6  7  2  0
  7  8  1  0
  8  9  1  0
  9 10  2  0
  9 11  1  0
 11 12  1  0
 12 13  1  0
 13 14  2  0
 14 15  1  0
 15 16  2  0
 16 17  1  0
 17 18  1  0
 18 19  2  0
 19 20  1  0
 20 21  2  0
 21 22  1  0
 22 23  1  0
 16 24  1  0
 24 25  1  0
 25 26  2  0
 26 27  1  0
 27 28  2  0
 28 29  1  0
 28 30  1  0
 30 31  2  0
  7 32  1  0
 32 33  2  0
 33  4  1  0
 24 13  1  0
 31 25  1  0
 22 18  1  0
  1 34  1  0
  1 35  1  0
  1 36  1  0
  2 37  1  0
  2 38  1  0
  5 39  1  0
  6 40  1  0
  8 41  1  0
 11 42  1  0
 11 43  1  0
 17 44  1  0
 17 45  1  0
 19 46  1  0
 20 47  1  0
 21 48  1  0
 23 49  1  0
 23 50  1  0
 23 51  1  0
 26 52  1  0
 27 53  1  0
 30 54  1  0
 31 55  1  0
 32 56  1  0
 33 57  1  0
M  END
$$$$
