
     RDKit          3D

 32 34  0  0  0  0  0  0  0  0999 V2000
   -3.3486    0.1317    1.4075 O   0  0  0  0  0  0  0  0  0  0  0  0
   -3.6463   -0.9451    0.9207 C   0  0  0  0  0  0  0  0  0  0  0  0
   -4.5405   -1.8019    1.5019 N   0  0  0  0  0  0  0  0  0  0  0  0
   -4.7617   -3.0070    0.9156 C   0  0  0  0  0  0  0  0  0  0  0  0
   -5.7909   -4.1510    1.5235 S   0  0  0  0  0  0  0  0  0  0  0  0
   -3.8045   -3.1345   -0.5371 S   0  0  0  0  0  0  0  0  0  0  0  0
   -3.1106   -1.5448   -0.3375 C   0  0  0  0  0  0  0  0  0  0  0  0
   -2.2261   -1.0657   -1.2222 C   0  0  0  0  0  0  0  0  0  0  0  0
   -1.5899    0.2036   -1.1916 C   0  0  0  0  0  0  0  0  0  0  0  0
   -2.0428    1.4675   -0.8381 C   0  0  0  0  0  0  0  0  0  0  0  0
   -0.9842    2.3854   -1.0407 C   0  0  0  0  0  0  0  0  0  0  0  0
    0.0766    1.6577   -1.5252 C   0  0  0  0  0  0  0  0  0  0  0  0
    1.6529    2.2399   -1.9821 S   0  0  0  0  0  0  0  0  0  0  0  0
    2.6768    0.7681   -1.6951 C   0  0  0  0  0  0  0  0  0  0  0  0
    3.0041    0.5566   -0.2372 C   0  0  0  0  0  0  0  0  0  0  0  0
    4.0320    1.2889    0.3763 C   0  0  0  0  0  0  0  0  0  0  0  0
    4.3292    1.1001    1.7270 C   0  0  0  0  0  0  0  0  0  0  0  0
    3.6009    0.1814    2.4800 C   0  0  0  0  0  0  0  0  0  0  0  0
    2.5740   -0.5480    1.8843 C   0  0  0  0  0  0  0  0  0  0  0  0
    2.2762   -0.3616    0.5334 C   0  0  0  0  0  0  0  0  0  0  0  0
   -0.2948    0.3526   -1.6397 O   0  0  0  0  0  0  0  0  0  0  0  0
   -4.9855   -1.5465    2.3706 H   0  0  0  0  0  0  0  0  0  0  0  0
   -1.9142   -1.7022   -2.0480 H   0  0  0  0  0  0  0  0  0  0  0  0
   -3.0319    1.7110   -0.4750 H   0  0  0  0  0  0  0  0  0  0  0  0
   -0.9954    3.4504   -0.8564 H   0  0  0  0  0  0  0  0  0  0  0  0
    2.2050   -0.1230   -2.1244 H   0  0  0  0  0  0  0  0  0  0  0  0
    3.6135    0.9004   -2.2496 H   0  0  0  0  0  0  0  0  0  0  0  0
    4.6041    2.0162   -0.1959 H   0  0  0  0  0  0  0  0  0  0  0  0
    5.1261    1.6740    2.1926 H   0  0  0  0  0  0  0  0  0  0  0  0
    3.8300    0.0378    3.5325 H   0  0  0  0  0  0  0  0  0  0  0  0
    2.0005   -1.2590    2.4728 H   0  0  0  0  0  0  0  0  0  0  0  0
    1.4658   -0.9330    0.0861 H   0  0  0  0  0  0  0  0  0  0  0  0
  1  2  2  0
  2  3  1  0
  3  4  1  0
  4  5  2  0
  4  6  1  0
  6  7  1  0
  7  8  2  3
  8  9  1  0
  9 10  2  0
 10 11  1  0
 11 12  2  0
 12 13  1  0
 13 14  1  0
 14 15  1  0
 15 16  2  0
 16 17  1  0
 17 18  2  0
 18 19  1  0
 19 20  2  0
 12 21  1  0
  7  2  1  0
 21  9  1  0
 20 15  1  0
  3 22  1  0
  8 23  1  0
 10 24  1  0
 11 25  1  0
 14 26  1  0
 14 27  1  0
 16 28  1  0
 17 29  1  0
 18 30  1  0
 19 31  1  0
 20 32  1  0
M  END
$$$$
