
     RDKit          3D

 50 53  0  0  0  0  0  0  0  0999 V2000
   -5.3119    2.0270    1.5913 C   0  0  0  0  0  0  0  0  0  0  0  0
   -3.8951    2.2121    1.2832 N   0  0  0  0  0  0  0  0  0  0  0  0
   -3.5994    1.8874   -0.1322 C   0  0  0  0  0  0  0  0  0  0  0  0
   -3.6003    0.3777   -0.4794 C   0  0  0  0  0  0  0  0  0  0  0  0
   -2.6833   -0.3460    0.4317 N   0  0  0  0  0  0  0  0  0  0  0  0
   -2.5831   -1.7312    0.1199 C   0  0  0  0  0  0  0  0  0  0  0  0
   -3.6820   -2.6007    0.1403 C   0  0  0  0  0  0  0  0  0  0  0  0
   -3.5180   -3.9526   -0.1658 C   0  0  0  0  0  0  0  0  0  0  0  0
   -2.2568   -4.4477   -0.4927 C   0  0  0  0  0  0  0  0  0  0  0  0
   -1.1492   -3.5973   -0.5170 C   0  0  0  0  0  0  0  0  0  0  0  0
   -1.3052   -2.2459   -0.2133 C   0  0  0  0  0  0  0  0  0  0  0  0
   -0.2605   -1.2998   -0.2071 N   0  0  0  0  0  0  0  0  0  0  0  0
    1.0809   -1.4784   -0.4749 C   0  0  0  0  0  0  0  0  0  0  0  0
    1.5866   -2.5555   -0.7791 O   0  0  0  0  0  0  0  0  0  0  0  0
    1.8678   -0.2564   -0.3608 C   0  0  0  0  0  0  0  0  0  0  0  0
    1.5598    1.0551   -0.0418 C   0  0  0  0  0  0  0  0  0  0  0  0
    2.7726    1.7890   -0.0931 C   0  0  0  0  0  0  0  0  0  0  0  0
    3.7641    0.8951   -0.4414 C   0  0  0  0  0  0  0  0  0  0  0  0
    5.2062    0.9913   -0.6575 C   0  0  0  0  0  0  0  0  0  0  0  0
    5.9603   -0.1306   -1.0353 C   0  0  0  0  0  0  0  0  0  0  0  0
    7.3410   -0.0369   -1.2398 C   0  0  0  0  0  0  0  0  0  0  0  0
    7.9928    1.1848   -1.0698 C   0  0  0  0  0  0  0  0  0  0  0  0
    9.6984    1.2340   -1.3352 Cl  0  0  0  0  0  0  0  0  0  0  0  0
    7.2569    2.3125   -0.6950 C   0  0  0  0  0  0  0  0  0  0  0  0
    7.9906    3.8617   -0.4654 Cl  0  0  0  0  0  0  0  0  0  0  0  0
    5.8741    2.2134   -0.4910 C   0  0  0  0  0  0  0  0  0  0  0  0
    3.2135   -0.3422   -0.6054 O   0  0  0  0  0  0  0  0  0  0  0  0
   -3.0252   -0.1274    1.8573 C   0  0  0  0  0  0  0  0  0  0  0  0
   -3.0352    1.3903    2.1667 C   0  0  0  0  0  0  0  0  0  0  0  0
   -5.5158    2.3134    2.6293 H   0  0  0  0  0  0  0  0  0  0  0  0
   -5.6563    0.9977    1.4496 H   0  0  0  0  0  0  0  0  0  0  0  0
   -5.9262    2.6808    0.9624 H   0  0  0  0  0  0  0  0  0  0  0  0
   -2.6046    2.2925   -0.3611 H   0  0  0  0  0  0  0  0  0  0  0  0
   -4.2949    2.4177   -0.7942 H   0  0  0  0  0  0  0  0  0  0  0  0
   -4.6230   -0.0124   -0.4121 H   0  0  0  0  0  0  0  0  0  0  0  0
   -3.2620    0.2579   -1.5159 H   0  0  0  0  0  0  0  0  0  0  0  0
   -4.6721   -2.2385    0.3988 H   0  0  0  0  0  0  0  0  0  0  0  0
   -4.3743   -4.6220   -0.1475 H   0  0  0  0  0  0  0  0  0  0  0  0
   -2.1300   -5.5012   -0.7295 H   0  0  0  0  0  0  0  0  0  0  0  0
   -0.1825   -4.0167   -0.7752 H   0  0  0  0  0  0  0  0  0  0  0  0
   -0.6036   -0.3768    0.0369 H   0  0  0  0  0  0  0  0  0  0  0  0
    0.5837    1.4498    0.2027 H   0  0  0  0  0  0  0  0  0  0  0  0
    2.8993    2.8442    0.1031 H   0  0  0  0  0  0  0  0  0  0  0  0
    5.4766   -1.0974   -1.1754 H   0  0  0  0  0  0  0  0  0  0  0  0
    7.8977   -0.9249   -1.5305 H   0  0  0  0  0  0  0  0  0  0  0  0
    5.3220    3.1035   -0.1986 H   0  0  0  0  0  0  0  0  0  0  0  0
   -2.2738   -0.6072    2.4972 H   0  0  0  0  0  0  0  0  0  0  0  0
   -4.0024   -0.5612    2.1030 H   0  0  0  0  0  0  0  0  0  0  0  0
   -2.0083    1.7676    2.0683 H   0  0  0  0  0  0  0  0  0  0  0  0
   -3.3099    1.5505    3.2165 H   0  0  0  0  0  0  0  0  0  0  0  0
  1  2  1  0
  2  3  1  0
  3  4  1  0
  4  5  1  0
  5  6  1  0
  6  7  2  0
  7  8  1  0
  8  9  2  0
  9 10  1  0
 10 11  2  0
 11 12  1  0
 12 13  1  0
 13 14  2  0
 13 15  1  0
 15 16  2  0
 16 17  1  0
 17 18  2  0
 18 19  1  0
 19 20  2  0
 20 21  1  0
 21 22  2  0
 22 23  1  0
 22 24  1  0
 24 25  1  0
 24 26  2  0
 18 27  1  0
  5 28  1  0
 28 29  1  0
 29  2  1  0
 11  6  1  0
 27 15  1  0
 26 19  1  0
  1 30  1  0
  1 31  1  0
  1 32  1  0
  3 33  1  0
  3 34  1  0
  4 35  1  0
  4 36  1  0
  7 37  1  0
  8 38  1  0
  9 39  1  0
 10 40  1  0
 12 41  1  0
 16 42  1  0
 17 43  1  0
 20 44  1  0
 21 45  1  0
 26 46  1  0
 28 47  1  0
 28 48  1  0
 29 49  1  0
 29 50  1  0
M  END
$$$$
