
     RDKit          3D

 47 51  0  0  0  0  0  0  0  0999 V2000
   -0.8495    0.2504   -4.7545 C   0  0  0  0  0  0  0  0  0  0  0  0
   -1.3324    0.4915   -3.3571 C   0  0  0  0  0  0  0  0  0  0  0  0
   -2.2552    1.3968   -3.1492 N   0  0  0  0  0  0  0  0  0  0  0  0
   -2.6838    1.5788   -1.8627 C   0  0  0  0  0  0  0  0  0  0  0  0
   -3.8876    2.7266   -1.4535 S   0  0  0  0  0  0  0  0  0  0  0  0
   -3.7988    2.3151    0.2046 C   0  0  0  0  0  0  0  0  0  0  0  0
   -2.8852    1.3082    0.4694 C   0  0  0  0  0  0  0  0  0  0  0  0
   -2.2564    0.9134   -0.7319 C   0  0  0  0  0  0  0  0  0  0  0  0
   -1.1729   -0.1300   -1.0222 C   0  0  0  0  0  0  0  0  0  0  0  0
   -0.5277   -0.9254   -0.2052 N   0  0  0  0  0  0  0  0  0  0  0  0
    0.3278   -1.6640   -0.9789 N   0  0  0  0  0  0  0  0  0  0  0  0
    0.2043   -1.2694   -2.2347 C   0  0  0  0  0  0  0  0  0  0  0  0
    1.1686   -1.8920   -3.5301 S   0  0  0  0  0  0  0  0  0  0  0  0
    2.5281   -2.6895   -2.6305 C   0  0  0  0  0  0  0  0  0  0  0  0
    3.4172   -1.6517   -1.9687 C   0  0  0  0  0  0  0  0  0  0  0  0
    4.3043   -1.0589   -2.5912 O   0  0  0  0  0  0  0  0  0  0  0  0
    3.1485   -1.4496   -0.6233 N   0  0  0  0  0  0  0  0  0  0  0  0
    3.8572   -0.4600    0.1606 C   0  0  0  0  0  0  0  0  0  0  0  0
    4.1883   -1.0394    1.4880 C   0  0  0  0  0  0  0  0  0  0  0  0
    3.4953   -1.8160    2.3982 C   0  0  0  0  0  0  0  0  0  0  0  0
    4.3779   -2.0496    3.4807 C   0  0  0  0  0  0  0  0  0  0  0  0
    5.5450   -1.3882    3.1732 C   0  0  0  0  0  0  0  0  0  0  0  0
    5.4446   -0.7848    1.9630 O   0  0  0  0  0  0  0  0  0  0  0  0
   -0.7563   -0.2869   -2.3289 N   0  0  0  0  0  0  0  0  0  0  0  0
   -2.6670    0.7605    1.8461 C   0  0  0  0  0  0  0  0  0  0  0  0
   -3.2693    1.6744    2.9308 C   0  0  0  0  0  0  0  0  0  0  0  0
   -4.6620    2.1992    2.5405 C   0  0  0  0  0  0  0  0  0  0  0  0
   -4.6013    3.0306    1.2463 C   0  0  0  0  0  0  0  0  0  0  0  0
   -1.0188   -0.7906   -5.0442 H   0  0  0  0  0  0  0  0  0  0  0  0
    0.2052    0.5257   -4.8486 H   0  0  0  0  0  0  0  0  0  0  0  0
   -1.4147    0.8762   -5.4577 H   0  0  0  0  0  0  0  0  0  0  0  0
    3.1391   -3.2525   -3.3503 H   0  0  0  0  0  0  0  0  0  0  0  0
    2.1385   -3.4105   -1.9032 H   0  0  0  0  0  0  0  0  0  0  0  0
    2.2334   -1.7295   -0.2792 H   0  0  0  0  0  0  0  0  0  0  0  0
    3.1920    0.4058    0.2808 H   0  0  0  0  0  0  0  0  0  0  0  0
    4.7603   -0.1238   -0.3566 H   0  0  0  0  0  0  0  0  0  0  0  0
    2.4774   -2.1642    2.2950 H   0  0  0  0  0  0  0  0  0  0  0  0
    4.1879   -2.6231    4.3777 H   0  0  0  0  0  0  0  0  0  0  0  0
    6.4905   -1.2650    3.6782 H   0  0  0  0  0  0  0  0  0  0  0  0
   -1.5967    0.6261    2.0407 H   0  0  0  0  0  0  0  0  0  0  0  0
   -3.1363   -0.2302    1.9187 H   0  0  0  0  0  0  0  0  0  0  0  0
   -3.3273    1.1244    3.8775 H   0  0  0  0  0  0  0  0  0  0  0  0
   -2.6022    2.5298    3.0938 H   0  0  0  0  0  0  0  0  0  0  0  0
   -5.3463    1.3519    2.4081 H   0  0  0  0  0  0  0  0  0  0  0  0
   -5.0687    2.8187    3.3477 H   0  0  0  0  0  0  0  0  0  0  0  0
   -4.1006    3.9789    1.4728 H   0  0  0  0  0  0  0  0  0  0  0  0
   -5.6146    3.2618    0.8943 H   0  0  0  0  0  0  0  0  0  0  0  0
  1  2  1  0
  2  3  2  0
  3  4  1  0
  4  5  1  0
  5  6  1  0
  6  7  2  0
  7  8  1  0
  8  9  1  0
  9 10  2  0
 10 11  1  0
 11 12  2  0
 12 13  1  0
 13 14  1  0
 14 15  1  0
 15 16  2  0
 15 17  1  0
 17 18  1  0
 18 19  1  0
 19 20  2  0
 20 21  1  0
 21 22  2  0
 22 23  1  0
 12 24  1  0
  7 25  1  0
 25 26  1  0
 26 27  1  0
 27 28  1  0
 24  2  1  0
  8  4  2  0
 24  9  1  0
 28  6  1  0
 23 19  1  0
  1 29  1  0
  1 30  1  0
  1 31  1  0
 14 32  1  0
 14 33  1  0
 17 34  1  0
 18 35  1  0
 18 36  1  0
 20 37  1  0
 21 38  1  0
 22 39  1  0
 25 40  1  0
 25 41  1  0
 26 42  1  0
 26 43  1  0
 27 44  1  0
 27 45  1  0
 28 46  1  0
 28 47  1  0
M  END
$$$$
