
     RDKit          3D

 57 60  0  0  0  0  0  0  0  0999 V2000
   -7.5020   -1.1091    2.1797 C   0  0  0  0  0  0  0  0  0  0  0  0
   -7.2156    0.0209    1.3660 O   0  0  0  0  0  0  0  0  0  0  0  0
   -5.9004    0.3749    1.2303 C   0  0  0  0  0  0  0  0  0  0  0  0
   -5.6856    1.5081    0.4428 C   0  0  0  0  0  0  0  0  0  0  0  0
   -4.3946    1.9920    0.2160 C   0  0  0  0  0  0  0  0  0  0  0  0
   -3.3017    1.3363    0.7755 C   0  0  0  0  0  0  0  0  0  0  0  0
   -1.9618    1.7448    0.6028 N   0  0  0  0  0  0  0  0  0  0  0  0
   -1.4650    2.7805   -0.1618 C   0  0  0  0  0  0  0  0  0  0  0  0
   -2.1346    3.5792   -0.8146 O   0  0  0  0  0  0  0  0  0  0  0  0
    0.0440    2.9449   -0.0857 C   0  0  0  0  0  0  0  0  0  0  0  0
    0.7741    1.6881   -0.1929 N   0  0  0  0  0  0  0  0  0  0  0  0
    1.4408    1.0903    0.8430 C   0  0  0  0  0  0  0  0  0  0  0  0
    1.9352   -0.1162    0.3865 C   0  0  0  0  0  0  0  0  0  0  0  0
    2.8303   -1.2441    1.3465 S   0  0  0  0  0  6  0  0  0  0  0  0
    2.5992   -2.5491    0.7601 O   0  0  0  0  0  0  0  0  0  0  0  0
    2.3983   -0.9570    2.7041 O   0  0  0  0  0  0  0  0  0  0  0  0
    4.5405   -0.7599    1.1959 C   0  0  0  0  0  0  0  0  0  0  0  0
    5.0299   -0.8489   -0.2237 C   0  0  0  0  0  0  0  0  0  0  0  0
    5.1288    0.3040   -1.0167 C   0  0  0  0  0  0  0  0  0  0  0  0
    5.5712    0.2192   -2.3374 C   0  0  0  0  0  0  0  0  0  0  0  0
    5.9267   -1.0147   -2.8773 C   0  0  0  0  0  0  0  0  0  0  0  0
    5.8417   -2.1654   -2.0973 C   0  0  0  0  0  0  0  0  0  0  0  0
    5.3978   -2.0841   -0.7770 C   0  0  0  0  0  0  0  0  0  0  0  0
    1.5888   -0.2394   -0.9910 C   0  0  0  0  0  0  0  0  0  0  0  0
    1.8076   -1.2089   -1.9944 C   0  0  0  0  0  0  0  0  0  0  0  0
    1.3222   -0.9989   -3.2890 C   0  0  0  0  0  0  0  0  0  0  0  0
    0.6161    0.1566   -3.5995 C   0  0  0  0  0  0  0  0  0  0  0  0
    0.3761    1.1322   -2.6293 C   0  0  0  0  0  0  0  0  0  0  0  0
    0.8735    0.9166   -1.3332 C   0  0  0  0  0  0  0  0  0  0  0  0
   -3.5100    0.1855    1.5668 C   0  0  0  0  0  0  0  0  0  0  0  0
   -2.3629   -0.3834    2.0744 O   0  0  0  0  0  0  0  0  0  0  0  0
   -2.4824   -1.6681    2.6725 C   0  0  0  0  0  0  0  0  0  0  0  0
   -4.8079   -0.2868    1.7957 C   0  0  0  0  0  0  0  0  0  0  0  0
   -7.0496   -2.0179    1.7686 H   0  0  0  0  0  0  0  0  0  0  0  0
   -7.1835   -0.9409    3.2139 H   0  0  0  0  0  0  0  0  0  0  0  0
   -8.5871   -1.2508    2.1844 H   0  0  0  0  0  0  0  0  0  0  0  0
   -6.5344    2.0249   -0.0009 H   0  0  0  0  0  0  0  0  0  0  0  0
   -4.2798    2.8775   -0.4003 H   0  0  0  0  0  0  0  0  0  0  0  0
   -1.3046    1.1250    1.0722 H   0  0  0  0  0  0  0  0  0  0  0  0
    0.3029    3.4210    0.8656 H   0  0  0  0  0  0  0  0  0  0  0  0
    0.3900    3.5880   -0.9020 H   0  0  0  0  0  0  0  0  0  0  0  0
    1.4885    1.5408    1.8273 H   0  0  0  0  0  0  0  0  0  0  0  0
    5.1238   -1.4228    1.8440 H   0  0  0  0  0  0  0  0  0  0  0  0
    4.6384    0.2559    1.5932 H   0  0  0  0  0  0  0  0  0  0  0  0
    4.8504    1.2785   -0.6207 H   0  0  0  0  0  0  0  0  0  0  0  0
    5.6320    1.1161   -2.9488 H   0  0  0  0  0  0  0  0  0  0  0  0
    6.2666   -1.0797   -3.9075 H   0  0  0  0  0  0  0  0  0  0  0  0
    6.1152   -3.1291   -2.5195 H   0  0  0  0  0  0  0  0  0  0  0  0
    5.3273   -2.9980   -0.1889 H   0  0  0  0  0  0  0  0  0  0  0  0
    2.3532   -2.1233   -1.7749 H   0  0  0  0  0  0  0  0  0  0  0  0
    1.4978   -1.7504   -4.0549 H   0  0  0  0  0  0  0  0  0  0  0  0
    0.2389    0.3019   -4.6092 H   0  0  0  0  0  0  0  0  0  0  0  0
   -0.1874    2.0253   -2.8847 H   0  0  0  0  0  0  0  0  0  0  0  0
   -1.4731   -2.0266    2.8943 H   0  0  0  0  0  0  0  0  0  0  0  0
   -3.0308   -1.6082    3.6176 H   0  0  0  0  0  0  0  0  0  0  0  0
   -2.9480   -2.3876    1.9900 H   0  0  0  0  0  0  0  0  0  0  0  0
   -4.9647   -1.1597    2.4148 H   0  0  0  0  0  0  0  0  0  0  0  0
  1  2  1  0
  2  3  1  0
  3  4  2  0
  4  5  1  0
  5  6  2  0
  6  7  1  0
  7  8  1  0
  8  9  2  0
  8 10  1  0
 10 11  1  0
 11 12  1  0
 12 13  2  0
 13 14  1  0
 14 15  2  0
 14 16  2  0
 14 17  1  0
 17 18  1  0
 18 19  2  0
 19 20  1  0
 20 21  2  0
 21 22  1  0
 22 23  2  0
 13 24  1  0
 24 25  2  0
 25 26  1  0
 26 27  2  0
 27 28  1  0
 28 29  2  0
  6 30  1  0
 30 31  1  0
 31 32  1  0
 30 33  2  0
 33  3  1  0
 29 11  1  0
 23 18  1  0
 29 24  1  0
  1 34  1  0
  1 35  1  0
  1 36  1  0
  4 37  1  0
  5 38  1  0
  7 39  1  0
 10 40  1  0
 10 41  1  0
 12 42  1  0
 17 43  1  0
 17 44  1  0
 19 45  1  0
 20 46  1  0
 21 47  1  0
 22 48  1  0
 23 49  1  0
 25 50  1  0
 26 51  1  0
 27 52  1  0
 28 53  1  0
 32 54  1  0
 32 55  1  0
 32 56  1  0
 33 57  1  0
M  END
$$$$
