
     RDKit          3D

 51 55  0  0  0  0  0  0  0  0999 V2000
    9.3050    1.7279   -0.7553 Cl  0  0  0  0  0  0  0  0  0  0  0  0
    7.7728    1.2775   -0.0960 C   0  0  0  0  0  0  0  0  0  0  0  0
    7.5629   -0.0726    0.1987 C   0  0  0  0  0  0  0  0  0  0  0  0
    6.3430   -0.4954    0.7322 C   0  0  0  0  0  0  0  0  0  0  0  0
    5.3197    0.4283    0.9812 C   0  0  0  0  0  0  0  0  0  0  0  0
    3.9926   -0.0304    1.5414 C   0  0  0  0  0  0  0  0  0  0  0  0
    2.9763   -0.3242    0.4241 C   0  0  0  0  0  0  0  0  0  0  0  0
    1.7044   -0.8450    0.9488 N   0  0  0  0  0  0  0  0  0  0  0  0
    0.9406   -1.5239   -0.1205 C   0  0  0  0  0  0  0  0  0  0  0  0
   -0.5346   -1.7834    0.2531 C   0  0  0  0  0  0  0  0  0  0  0  0
   -1.2525   -0.5320    0.5350 N   0  0  0  0  0  0  0  0  0  0  0  0
   -2.5418   -0.3089    0.0595 C   0  0  0  0  0  0  0  0  0  0  0  0
   -2.8366    0.8938   -0.3726 N   0  0  0  0  0  0  0  0  0  0  0  0
   -4.1077    1.1810   -0.9042 C   0  0  0  0  0  0  0  0  0  0  0  0
   -4.3573    2.4759   -1.3638 C   0  0  0  0  0  0  0  0  0  0  0  0
   -5.5982    2.8123   -1.9117 C   0  0  0  0  0  0  0  0  0  0  0  0
   -6.6053    1.8513   -2.0059 C   0  0  0  0  0  0  0  0  0  0  0  0
   -6.3777    0.5513   -1.5528 C   0  0  0  0  0  0  0  0  0  0  0  0
   -5.1306    0.2299   -1.0076 C   0  0  0  0  0  0  0  0  0  0  0  0
   -4.8213   -1.0481   -0.5149 N   0  0  0  0  0  0  0  0  0  0  0  0
   -5.6115   -2.1715   -0.4513 C   0  0  0  0  0  0  0  0  0  0  0  0
   -4.8990   -3.1636    0.1848 C   0  0  0  0  0  0  0  0  0  0  0  0
   -3.6293   -2.6276    0.5020 C   0  0  0  0  0  0  0  0  0  0  0  0
   -3.5831   -1.3285    0.0244 C   0  0  0  0  0  0  0  0  0  0  0  0
   -0.3914    0.6227    0.8407 C   0  0  0  0  0  0  0  0  0  0  0  0
    0.8769    0.1917    1.6096 C   0  0  0  0  0  0  0  0  0  0  0  0
    5.5343    1.7815    0.6796 C   0  0  0  0  0  0  0  0  0  0  0  0
    6.7559    2.2074    0.1450 C   0  0  0  0  0  0  0  0  0  0  0  0
    6.9398    3.8923   -0.1949 Cl  0  0  0  0  0  0  0  0  0  0  0  0
    8.3473   -0.8037    0.0145 H   0  0  0  0  0  0  0  0  0  0  0  0
    6.1976   -1.5517    0.9539 H   0  0  0  0  0  0  0  0  0  0  0  0
    4.1486   -0.9303    2.1510 H   0  0  0  0  0  0  0  0  0  0  0  0
    3.6191    0.7363    2.2304 H   0  0  0  0  0  0  0  0  0  0  0  0
    2.8052    0.5680   -0.1926 H   0  0  0  0  0  0  0  0  0  0  0  0
    3.4252   -1.0770   -0.2385 H   0  0  0  0  0  0  0  0  0  0  0  0
    0.9644   -0.9282   -1.0438 H   0  0  0  0  0  0  0  0  0  0  0  0
    1.4207   -2.4846   -0.3418 H   0  0  0  0  0  0  0  0  0  0  0  0
   -0.5808   -2.4291    1.1375 H   0  0  0  0  0  0  0  0  0  0  0  0
   -0.9987   -2.3186   -0.5832 H   0  0  0  0  0  0  0  0  0  0  0  0
   -3.5740    3.2261   -1.2940 H   0  0  0  0  0  0  0  0  0  0  0  0
   -5.7761    3.8249   -2.2648 H   0  0  0  0  0  0  0  0  0  0  0  0
   -7.5693    2.1174   -2.4325 H   0  0  0  0  0  0  0  0  0  0  0  0
   -7.1770   -0.1776   -1.6334 H   0  0  0  0  0  0  0  0  0  0  0  0
   -6.6192   -2.1823   -0.8398 H   0  0  0  0  0  0  0  0  0  0  0  0
   -5.2604   -4.1595    0.4063 H   0  0  0  0  0  0  0  0  0  0  0  0
   -2.8380   -3.1423    1.0283 H   0  0  0  0  0  0  0  0  0  0  0  0
   -0.1058    1.1331   -0.0877 H   0  0  0  0  0  0  0  0  0  0  0  0
   -0.9417    1.3394    1.4624 H   0  0  0  0  0  0  0  0  0  0  0  0
    1.4584    1.0888    1.8495 H   0  0  0  0  0  0  0  0  0  0  0  0
    0.5622   -0.2282    2.5738 H   0  0  0  0  0  0  0  0  0  0  0  0
    4.7458    2.5092    0.8640 H   0  0  0  0  0  0  0  0  0  0  0  0
  1  2  1  0
  2  3  2  0
  3  4  1  0
  4  5  2  0
  5  6  1  0
  6  7  1  0
  7  8  1  0
  8  9  1  0
  9 10  1  0
 10 11  1  0
 11 12  1  0
 12 13  2  0
 13 14  1  0
 14 15  2  0
 15 16  1  0
 16 17  2  0
 17 18  1  0
 18 19  2  0
 19 20  1  0
 20 21  1  0
 21 22  2  0
 22 23  1  0
 23 24  2  0
 11 25  1  0
 25 26  1  0
  5 27  1  0
 27 28  2  0
 28 29  1  0
 28  2  1  0
 26  8  1  0
 24 12  1  0
 19 14  1  0
 24 20  1  0
  3 30  1  0
  4 31  1  0
  6 32  1  0
  6 33  1  0
  7 34  1  0
  7 35  1  0
  9 36  1  0
  9 37  1  0
 10 38  1  0
 10 39  1  0
 15 40  1  0
 16 41  1  0
 17 42  1  0
 18 43  1  0
 21 44  1  0
 22 45  1  0
 23 46  1  0
 25 47  1  0
 25 48  1  0
 26 49  1  0
 26 50  1  0
 27 51  1  0
M  END
$$$$
