
     RDKit          3D

 58 61  0  0  0  0  0  0  0  0999 V2000
   -1.7615    3.6108   -1.6407 C   0  0  0  0  0  0  0  0  0  0  0  0
   -2.1637    4.1271   -0.3787 O   0  0  0  0  0  0  0  0  0  0  0  0
   -2.4718    3.2113    0.5902 C   0  0  0  0  0  0  0  0  0  0  0  0
   -2.7467    3.7588    1.8449 C   0  0  0  0  0  0  0  0  0  0  0  0
   -3.0638    2.9356    2.9250 C   0  0  0  0  0  0  0  0  0  0  0  0
   -3.1078    1.5525    2.7544 C   0  0  0  0  0  0  0  0  0  0  0  0
   -2.8431    0.9837    1.5008 C   0  0  0  0  0  0  0  0  0  0  0  0
   -2.8666   -0.4759    1.3159 C   0  0  0  0  0  0  0  0  0  0  0  0
   -4.3248   -1.3144    1.6362 S   0  0  0  0  0  0  0  0  0  0  0  0
   -3.6564   -2.8343    1.2043 C   0  0  0  0  0  0  0  0  0  0  0  0
   -4.3128   -4.0801    1.2200 C   0  0  0  0  0  0  0  0  0  0  0  0
   -3.6110   -5.2291    0.8382 C   0  0  0  0  0  0  0  0  0  0  0  0
   -2.2808   -5.1485    0.4508 C   0  0  0  0  0  0  0  0  0  0  0  0
   -1.4917   -6.1955    0.0600 O   0  0  0  0  0  0  0  0  0  0  0  0
   -2.0744   -7.4920    0.0990 C   0  0  0  0  0  0  0  0  0  0  0  0
   -1.6412   -3.9030    0.4385 C   0  0  0  0  0  0  0  0  0  0  0  0
   -2.3232   -2.7151    0.8130 C   0  0  0  0  0  0  0  0  0  0  0  0
   -1.8739   -1.3400    0.8737 C   0  0  0  0  0  0  0  0  0  0  0  0
   -0.5401   -0.8636    0.5155 C   0  0  0  0  0  0  0  0  0  0  0  0
    0.3053   -0.3139    1.4831 C   0  0  0  0  0  0  0  0  0  0  0  0
    1.5689    0.1574    1.1194 C   0  0  0  0  0  0  0  0  0  0  0  0
    2.0018    0.0878   -0.2071 C   0  0  0  0  0  0  0  0  0  0  0  0
    3.2543    0.5887   -0.4264 O   0  0  0  0  0  0  0  0  0  0  0  0
    3.6460    0.7849   -1.7852 C   0  0  0  0  0  0  0  0  0  0  0  0
    5.0013    1.5178   -1.8320 C   0  0  0  0  0  0  0  0  0  0  0  0
    5.0129    2.8813   -1.2619 N   0  0  0  0  0  0  0  0  0  0  0  0
    6.3805    3.4022   -1.2290 C   0  0  0  0  0  0  0  0  0  0  0  0
    4.1427    3.8010   -1.9918 C   0  0  0  0  0  0  0  0  0  0  0  0
    1.1666   -0.4785   -1.1704 C   0  0  0  0  0  0  0  0  0  0  0  0
   -0.1003   -0.9518   -0.8107 C   0  0  0  0  0  0  0  0  0  0  0  0
   -2.5304    1.8265    0.4201 C   0  0  0  0  0  0  0  0  0  0  0  0
   -1.5007    4.4589   -2.2799 H   0  0  0  0  0  0  0  0  0  0  0  0
   -0.8724    2.9795   -1.5475 H   0  0  0  0  0  0  0  0  0  0  0  0
   -2.5818    3.0698   -2.1235 H   0  0  0  0  0  0  0  0  0  0  0  0
   -2.7063    4.8367    1.9819 H   0  0  0  0  0  0  0  0  0  0  0  0
   -3.2701    3.3723    3.8983 H   0  0  0  0  0  0  0  0  0  0  0  0
   -3.3411    0.9211    3.6083 H   0  0  0  0  0  0  0  0  0  0  0  0
   -5.3532   -4.1508    1.5257 H   0  0  0  0  0  0  0  0  0  0  0  0
   -4.1443   -6.1740    0.8593 H   0  0  0  0  0  0  0  0  0  0  0  0
   -2.3787   -7.7582    1.1165 H   0  0  0  0  0  0  0  0  0  0  0  0
   -1.3131   -8.2104   -0.2194 H   0  0  0  0  0  0  0  0  0  0  0  0
   -2.9150   -7.5672   -0.5983 H   0  0  0  0  0  0  0  0  0  0  0  0
   -0.5962   -3.8502    0.1402 H   0  0  0  0  0  0  0  0  0  0  0  0
   -0.0113   -0.2409    2.5207 H   0  0  0  0  0  0  0  0  0  0  0  0
    2.2193    0.5928    1.8744 H   0  0  0  0  0  0  0  0  0  0  0  0
    2.8862    1.3487   -2.3370 H   0  0  0  0  0  0  0  0  0  0  0  0
    3.7754   -0.1934   -2.2639 H   0  0  0  0  0  0  0  0  0  0  0  0
    5.3519    1.5419   -2.8714 H   0  0  0  0  0  0  0  0  0  0  0  0
    5.7118    0.9069   -1.2609 H   0  0  0  0  0  0  0  0  0  0  0  0
    7.0292    2.7483   -0.6365 H   0  0  0  0  0  0  0  0  0  0  0  0
    6.4074    4.3856   -0.7473 H   0  0  0  0  0  0  0  0  0  0  0  0
    6.8106    3.4969   -2.2331 H   0  0  0  0  0  0  0  0  0  0  0  0
    3.0924    3.5090   -1.9001 H   0  0  0  0  0  0  0  0  0  0  0  0
    4.4001    3.8558   -3.0560 H   0  0  0  0  0  0  0  0  0  0  0  0
    4.2097    4.8120   -1.5725 H   0  0  0  0  0  0  0  0  0  0  0  0
    1.4720   -0.5729   -2.2067 H   0  0  0  0  0  0  0  0  0  0  0  0
   -0.7429   -1.3853   -1.5740 H   0  0  0  0  0  0  0  0  0  0  0  0
   -2.3332    1.3750   -0.5467 H   0  0  0  0  0  0  0  0  0  0  0  0
  1  2  1  0
  2  3  1  0
  3  4  2  0
  4  5  1  0
  5  6  2  0
  6  7  1  0
  7  8  1  0
  8  9  1  0
  9 10  1  0
 10 11  2  0
 11 12  1  0
 12 13  2  0
 13 14  1  0
 14 15  1  0
 13 16  1  0
 16 17  2  0
 17 18  1  0
 18 19  1  0
 19 20  2  0
 20 21  1  0
 21 22  2  0
 22 23  1  0
 23 24  1  0
 24 25  1  0
 25 26  1  0
 26 27  1  0
 26 28  1  0
 22 29  1  0
 29 30  2  0
  7 31  2  0
 31  3  1  0
 18  8  2  0
 30 19  1  0
 17 10  1  0
  1 32  1  0
  1 33  1  0
  1 34  1  0
  4 35  1  0
  5 36  1  0
  6 37  1  0
 11 38  1  0
 12 39  1  0
 15 40  1  0
 15 41  1  0
 15 42  1  0
 16 43  1  0
 20 44  1  0
 21 45  1  0
 24 46  1  0
 24 47  1  0
 25 48  1  0
 25 49  1  0
 27 50  1  0
 27 51  1  0
 27 52  1  0
 28 53  1  0
 28 54  1  0
 28 55  1  0
 29 56  1  0
 30 57  1  0
 31 58  1  0
M  END
$$$$
