
     RDKit          3D

 68 70  0  0  0  0  0  0  0  0999 V2000
   -6.0707    3.8201    0.3058 C   0  0  0  0  0  0  0  0  0  0  0  0
   -5.8729    2.5523    0.9179 O   0  0  0  0  0  0  0  0  0  0  0  0
   -4.7874    1.8297    0.5057 C   0  0  0  0  0  0  0  0  0  0  0  0
   -4.6110    0.6117    1.1646 C   0  0  0  0  0  0  0  0  0  0  0  0
   -3.5370   -0.2255    0.8474 C   0  0  0  0  0  0  0  0  0  0  0  0
   -2.6196    0.1381   -0.1489 C   0  0  0  0  0  0  0  0  0  0  0  0
   -1.4125   -0.7220   -0.5111 C   0  0  0  0  0  0  0  0  0  0  0  0
   -1.6526   -2.2505   -0.3224 C   0  0  0  0  0  0  0  0  0  0  0  0
   -1.0814   -2.9140    0.5402 O   0  0  0  0  0  0  0  0  0  0  0  0
   -2.5864   -2.7854   -1.1963 N   0  0  0  0  0  0  0  0  0  0  0  0
   -3.0571   -4.1784   -1.1823 C   0  0  0  0  0  0  0  0  0  0  0  0
   -1.8948   -5.1609   -1.3967 C   0  0  0  0  0  0  0  0  0  0  0  0
   -4.0568   -4.3547   -2.3401 C   0  0  0  0  0  0  0  0  0  0  0  0
   -3.7799   -4.4921    0.1377 C   0  0  0  0  0  0  0  0  0  0  0  0
   -0.1647   -0.2885    0.1548 N   0  0  0  0  0  0  0  0  0  0  0  0
   -0.1683   -0.1730    1.6197 C   0  0  0  0  0  0  0  0  0  0  0  0
   -0.4897    1.2145    2.0551 C   0  0  0  0  0  0  0  0  0  0  0  0
   -0.2267    2.4775    1.5591 C   0  0  0  0  0  0  0  0  0  0  0  0
   -0.8238    3.3953    2.4571 C   0  0  0  0  0  0  0  0  0  0  0  0
   -1.4020    2.6395    3.4490 C   0  0  0  0  0  0  0  0  0  0  0  0
   -1.1990    1.3176    3.2186 O   0  0  0  0  0  0  0  0  0  0  0  0
    0.9971   -0.3229   -0.6057 C   0  0  0  0  0  0  0  0  0  0  0  0
    0.9796   -0.6158   -1.8027 O   0  0  0  0  0  0  0  0  0  0  0  0
    2.3083    0.0335    0.0762 C   0  0  0  0  0  0  0  0  0  0  0  0
    3.4533    0.1027   -0.9317 C   0  0  0  0  0  0  0  0  0  0  0  0
    4.7134    0.6951   -0.3314 C   0  0  0  0  0  0  0  0  0  0  0  0
    4.7556    1.1364    0.8128 O   0  0  0  0  0  0  0  0  0  0  0  0
    5.7544    0.6865   -1.2327 N   0  0  0  0  0  0  0  0  0  0  0  0
    7.0059    1.2172   -1.0141 C   0  0  0  0  0  0  0  0  0  0  0  0
    7.5231    1.8686    0.1275 C   0  0  0  0  0  0  0  0  0  0  0  0
    8.8024    2.2178   -0.2247 C   0  0  0  0  0  0  0  0  0  0  0  0
    9.9032    2.9233    0.4559 C   0  0  0  0  0  0  0  0  0  0  0  0
    9.0478    1.7874   -1.4905 O   0  0  0  0  0  0  0  0  0  0  0  0
    7.9189    1.1640   -1.9901 N   0  0  0  0  0  0  0  0  0  0  0  0
   -2.8037    1.3657   -0.8066 C   0  0  0  0  0  0  0  0  0  0  0  0
   -3.8788    2.2032   -0.4834 C   0  0  0  0  0  0  0  0  0  0  0  0
   -5.2280    4.4902    0.5056 H   0  0  0  0  0  0  0  0  0  0  0  0
   -6.2484    3.7164   -0.7699 H   0  0  0  0  0  0  0  0  0  0  0  0
   -6.9651    4.2688    0.7478 H   0  0  0  0  0  0  0  0  0  0  0  0
   -5.3083    0.3158    1.9452 H   0  0  0  0  0  0  0  0  0  0  0  0
   -3.4239   -1.1519    1.4067 H   0  0  0  0  0  0  0  0  0  0  0  0
   -1.2795   -0.6077   -1.5961 H   0  0  0  0  0  0  0  0  0  0  0  0
   -3.0945   -2.1316   -1.7805 H   0  0  0  0  0  0  0  0  0  0  0  0
   -2.2593   -6.1902   -1.4906 H   0  0  0  0  0  0  0  0  0  0  0  0
   -1.1837   -5.1465   -0.5645 H   0  0  0  0  0  0  0  0  0  0  0  0
   -1.3368   -4.9160   -2.3071 H   0  0  0  0  0  0  0  0  0  0  0  0
   -4.4397   -5.3803   -2.3867 H   0  0  0  0  0  0  0  0  0  0  0  0
   -4.9137   -3.6807   -2.2262 H   0  0  0  0  0  0  0  0  0  0  0  0
   -3.5906   -4.1251   -3.3052 H   0  0  0  0  0  0  0  0  0  0  0  0
   -4.5923   -3.7794    0.3211 H   0  0  0  0  0  0  0  0  0  0  0  0
   -3.1011   -4.4403    0.9953 H   0  0  0  0  0  0  0  0  0  0  0  0
   -4.2126   -5.4989    0.1236 H   0  0  0  0  0  0  0  0  0  0  0  0
   -0.8904   -0.8806    2.0410 H   0  0  0  0  0  0  0  0  0  0  0  0
    0.8043   -0.4533    2.0321 H   0  0  0  0  0  0  0  0  0  0  0  0
    0.3150    2.7057    0.6524 H   0  0  0  0  0  0  0  0  0  0  0  0
   -0.8346    4.4736    2.3899 H   0  0  0  0  0  0  0  0  0  0  0  0
   -1.9634    2.8760    4.3416 H   0  0  0  0  0  0  0  0  0  0  0  0
    2.1926    0.9982    0.5793 H   0  0  0  0  0  0  0  0  0  0  0  0
    2.5456   -0.7303    0.8245 H   0  0  0  0  0  0  0  0  0  0  0  0
    3.6784   -0.9033   -1.3095 H   0  0  0  0  0  0  0  0  0  0  0  0
    3.1695    0.7309   -1.7859 H   0  0  0  0  0  0  0  0  0  0  0  0
    5.6332    0.2925   -2.1565 H   0  0  0  0  0  0  0  0  0  0  0  0
    7.0307    2.0744    1.0670 H   0  0  0  0  0  0  0  0  0  0  0  0
   10.3103    3.7127   -0.1854 H   0  0  0  0  0  0  0  0  0  0  0  0
   10.7111    2.2266    0.7008 H   0  0  0  0  0  0  0  0  0  0  0  0
    9.5565    3.3890    1.3847 H   0  0  0  0  0  0  0  0  0  0  0  0
   -2.0975    1.6879   -1.5702 H   0  0  0  0  0  0  0  0  0  0  0  0
   -3.9702    3.1434   -1.0186 H   0  0  0  0  0  0  0  0  0  0  0  0
  1  2  1  0
  2  3  1  0
  3  4  2  0
  4  5  1  0
  5  6  2  0
  6  7  1  0
  7  8  1  0
  8  9  2  0
  8 10  1  0
 10 11  1  0
 11 12  1  0
 11 13  1  0
 11 14  1  0
  7 15  1  0
 15 16  1  0
 16 17  1  0
 17 18  2  0
 18 19  1  0
 19 20  2  0
 20 21  1  0
 15 22  1  0
 22 23  2  0
 22 24  1  0
 24 25  1  0
 25 26  1  0
 26 27  2  0
 26 28  1  0
 28 29  1  0
 29 30  1  0
 30 31  2  0
 31 32  1  0
 31 33  1  0
 33 34  1  0
  6 35  1  0
 35 36  2  0
 36  3  1  0
 21 17  1  0
 34 29  2  0
  1 37  1  0
  1 38  1  0
  1 39  1  0
  4 40  1  0
  5 41  1  0
  7 42  1  0
 10 43  1  0
 12 44  1  0
 12 45  1  0
 12 46  1  0
 13 47  1  0
 13 48  1  0
 13 49  1  0
 14 50  1  0
 14 51  1  0
 14 52  1  0
 16 53  1  0
 16 54  1  0
 18 55  1  0
 19 56  1  0
 20 57  1  0
 24 58  1  0
 24 59  1  0
 25 60  1  0
 25 61  1  0
 28 62  1  0
 30 63  1  0
 32 64  1  0
 32 65  1  0
 32 66  1  0
 35 67  1  0
 36 68  1  0
M  END
$$$$
