
     RDKit          3D

 35 37  0  0  0  0  0  0  0  0999 V2000
    5.7582   -1.5457    0.5279 C   0  0  0  0  0  0  0  0  0  0  0  0
    4.6935   -0.6186    0.3108 O   0  0  0  0  0  0  0  0  0  0  0  0
    3.7180   -1.0840   -0.5092 C   0  0  0  0  0  0  0  0  0  0  0  0
    3.6965   -2.1827   -1.0412 O   0  0  0  0  0  0  0  0  0  0  0  0
    2.6482   -0.0637   -0.6850 C   0  0  0  0  0  0  0  0  0  0  0  0
    1.5534   -0.3857   -1.4970 C   0  0  0  0  0  0  0  0  0  0  0  0
    0.5222    0.5378   -1.6936 C   0  0  0  0  0  0  0  0  0  0  0  0
    0.5676    1.7910   -1.0729 C   0  0  0  0  0  0  0  0  0  0  0  0
   -0.4992    2.7828   -1.2653 C   0  0  0  0  0  0  0  0  0  0  0  0
   -1.7946    2.6488   -0.9127 C   0  0  0  0  0  0  0  0  0  0  0  0
   -2.7103    3.7118   -1.1661 C   0  0  0  0  0  0  0  0  0  0  0  0
   -3.4302    4.6003   -1.3663 N   0  0  0  0  0  0  0  0  0  0  0  0
   -2.2822    1.4642   -0.2890 C   0  0  0  0  0  0  0  0  0  0  0  0
   -2.7815    0.4124   -0.9078 N   0  0  0  0  0  0  0  0  0  0  0  0
   -3.1414   -0.5651    0.0046 C   0  0  0  0  0  0  0  0  0  0  0  0
   -3.6970   -1.8221   -0.3087 C   0  0  0  0  0  0  0  0  0  0  0  0
   -4.0132   -2.7181    0.7177 C   0  0  0  0  0  0  0  0  0  0  0  0
   -3.7837   -2.3761    2.0465 C   0  0  0  0  0  0  0  0  0  0  0  0
   -3.2346   -1.1348    2.3827 C   0  0  0  0  0  0  0  0  0  0  0  0
   -2.9203   -0.2435    1.3434 C   0  0  0  0  0  0  0  0  0  0  0  0
   -2.2440    1.3347    1.4358 S   0  0  0  0  0  0  0  0  0  0  0  0
    1.6669    2.1184   -0.2712 C   0  0  0  0  0  0  0  0  0  0  0  0
    2.7006    1.1961   -0.0743 C   0  0  0  0  0  0  0  0  0  0  0  0
    5.3830   -2.4551    1.0079 H   0  0  0  0  0  0  0  0  0  0  0  0
    6.4848   -1.0761    1.1967 H   0  0  0  0  0  0  0  0  0  0  0  0
    6.2590   -1.7827   -0.4161 H   0  0  0  0  0  0  0  0  0  0  0  0
    1.4962   -1.3589   -1.9820 H   0  0  0  0  0  0  0  0  0  0  0  0
   -0.3155    0.2621   -2.3325 H   0  0  0  0  0  0  0  0  0  0  0  0
   -0.1600    3.7111   -1.7252 H   0  0  0  0  0  0  0  0  0  0  0  0
   -3.8754   -2.0852   -1.3466 H   0  0  0  0  0  0  0  0  0  0  0  0
   -4.4414   -3.6872    0.4720 H   0  0  0  0  0  0  0  0  0  0  0  0
   -4.0346   -3.0824    2.8355 H   0  0  0  0  0  0  0  0  0  0  0  0
   -3.0568   -0.8695    3.4205 H   0  0  0  0  0  0  0  0  0  0  0  0
    1.7283    3.0902    0.2148 H   0  0  0  0  0  0  0  0  0  0  0  0
    3.5396    1.4756    0.5585 H   0  0  0  0  0  0  0  0  0  0  0  0
  1  2  1  0
  2  3  1  0
  3  4  2  0
  3  5  1  0
  5  6  2  0
  6  7  1  0
  7  8  2  0
  8  9  1  0
  9 10  2  3
 10 11  1  0
 11 12  3  0
 10 13  1  0
 13 14  2  0
 14 15  1  0
 15 16  2  0
 16 17  1  0
 17 18  2  0
 18 19  1  0
 19 20  2  0
 20 21  1  0
  8 22  1  0
 22 23  2  0
 23  5  1  0
 21 13  1  0
 20 15  1  0
  1 24  1  0
  1 25  1  0
  1 26  1  0
  6 27  1  0
  7 28  1  0
  9 29  1  0
 16 30  1  0
 17 31  1  0
 18 32  1  0
 19 33  1  0
 22 34  1  0
 23 35  1  0
M  END
$$$$
