
     RDKit          3D

 49 52  0  0  0  0  0  0  0  0999 V2000
   -5.1660    3.3972    1.4851 C   0  0  0  0  0  0  0  0  0  0  0  0
   -4.0757    2.3729    1.3672 C   0  0  0  0  0  0  0  0  0  0  0  0
   -2.8015    2.7575    0.9276 C   0  0  0  0  0  0  0  0  0  0  0  0
   -1.7674    1.8237    0.8442 C   0  0  0  0  0  0  0  0  0  0  0  0
   -2.0025    0.4905    1.1955 C   0  0  0  0  0  0  0  0  0  0  0  0
   -0.9603   -0.4658    1.1017 N   0  0  0  0  0  0  0  0  0  0  0  0
   -1.0173   -1.7298    0.5194 C   0  0  0  0  0  0  0  0  0  0  0  0
   -2.1481   -2.2752   -0.2979 C   0  0  0  0  0  0  0  0  0  0  0  0
   -2.4066   -1.4927   -1.5568 C   0  0  0  0  0  0  0  0  0  0  0  0
   -3.5218   -0.7448   -1.8907 C   0  0  0  0  0  0  0  0  0  0  0  0
   -3.4023   -0.1301   -3.1716 C   0  0  0  0  0  0  0  0  0  0  0  0
   -2.2058   -0.4353   -3.7808 C   0  0  0  0  0  0  0  0  0  0  0  0
   -1.2417   -1.4706   -2.8175 S   0  0  0  0  0  0  0  0  0  0  0  0
    0.1427   -2.3413    0.6785 N   0  0  0  0  0  0  0  0  0  0  0  0
    0.9929   -1.4912    1.3215 N   0  0  0  0  0  0  0  0  0  0  0  0
    0.3459   -0.3720    1.5575 C   0  0  0  0  0  0  0  0  0  0  0  0
    1.0123    0.9503    2.4640 S   0  0  0  0  0  0  0  0  0  0  0  0
    2.6534    0.2988    2.8955 C   0  0  0  0  0  0  0  0  0  0  0  0
    3.6295    0.4673    1.7391 C   0  0  0  0  0  0  0  0  0  0  0  0
    4.3591    1.4553    1.6680 O   0  0  0  0  0  0  0  0  0  0  0  0
    3.5875   -0.5689    0.8220 N   0  0  0  0  0  0  0  0  0  0  0  0
    4.4169   -0.7489   -0.3019 C   0  0  0  0  0  0  0  0  0  0  0  0
    4.0300   -1.7278   -1.2322 C   0  0  0  0  0  0  0  0  0  0  0  0
    4.8072   -1.9773   -2.3678 C   0  0  0  0  0  0  0  0  0  0  0  0
    5.9789   -1.2566   -2.5649 C   0  0  0  0  0  0  0  0  0  0  0  0
    6.7248   -1.4967   -3.6520 F   0  0  0  0  0  0  0  0  0  0  0  0
    6.3698   -0.2934   -1.6442 C   0  0  0  0  0  0  0  0  0  0  0  0
    7.5015    0.3981   -1.8390 F   0  0  0  0  0  0  0  0  0  0  0  0
    5.5974   -0.0319   -0.5154 C   0  0  0  0  0  0  0  0  0  0  0  0
   -3.2688    0.1007    1.6395 C   0  0  0  0  0  0  0  0  0  0  0  0
   -4.2980    1.0419    1.7311 C   0  0  0  0  0  0  0  0  0  0  0  0
   -4.9752    4.0538    2.3432 H   0  0  0  0  0  0  0  0  0  0  0  0
   -5.2189    4.0046    0.5740 H   0  0  0  0  0  0  0  0  0  0  0  0
   -6.1430    2.9230    1.6220 H   0  0  0  0  0  0  0  0  0  0  0  0
   -2.6115    3.7898    0.6462 H   0  0  0  0  0  0  0  0  0  0  0  0
   -0.8035    2.1556    0.4656 H   0  0  0  0  0  0  0  0  0  0  0  0
   -1.9129   -3.3124   -0.5749 H   0  0  0  0  0  0  0  0  0  0  0  0
   -3.0569   -2.3436    0.3054 H   0  0  0  0  0  0  0  0  0  0  0  0
   -4.3860   -0.6306   -1.2450 H   0  0  0  0  0  0  0  0  0  0  0  0
   -4.1550    0.5084   -3.6225 H   0  0  0  0  0  0  0  0  0  0  0  0
   -1.8516   -0.1058   -4.7459 H   0  0  0  0  0  0  0  0  0  0  0  0
    2.6069   -0.7486    3.2185 H   0  0  0  0  0  0  0  0  0  0  0  0
    3.0400    0.8705    3.7478 H   0  0  0  0  0  0  0  0  0  0  0  0
    2.7767   -1.1899    0.8820 H   0  0  0  0  0  0  0  0  0  0  0  0
    3.1098   -2.2965   -1.0906 H   0  0  0  0  0  0  0  0  0  0  0  0
    4.5081   -2.7238   -3.0952 H   0  0  0  0  0  0  0  0  0  0  0  0
    5.9540    0.7240    0.1769 H   0  0  0  0  0  0  0  0  0  0  0  0
   -3.4713   -0.9132    1.9707 H   0  0  0  0  0  0  0  0  0  0  0  0
   -5.2755    0.7308    2.0973 H   0  0  0  0  0  0  0  0  0  0  0  0
  1  2  1  0
  2  3  2  0
  3  4  1  0
  4  5  2  0
  5  6  1  0
  6  7  1  0
  7  8  1  0
  8  9  1  0
  9 10  2  0
 10 11  1  0
 11 12  2  0
 12 13  1  0
  7 14  2  0
 14 15  1  0
 15 16  2  0
 16 17  1  0
 17 18  1  0
 18 19  1  0
 19 20  2  0
 19 21  1  0
 21 22  1  0
 22 23  2  0
 23 24  1  0
 24 25  2  0
 25 26  1  0
 25 27  1  0
 27 28  1  0
 27 29  2  0
  5 30  1  0
 30 31  2  0
 31  2  1  0
 16  6  1  0
 29 22  1  0
 13  9  1  0
  1 32  1  0
  1 33  1  0
  1 34  1  0
  3 35  1  0
  4 36  1  0
  8 37  1  0
  8 38  1  0
 10 39  1  0
 11 40  1  0
 12 41  1  0
 18 42  1  0
 18 43  1  0
 21 44  1  0
 23 45  1  0
 24 46  1  0
 29 47  1  0
 30 48  1  0
 31 49  1  0
M  END
$$$$
