
     RDKit          3D

 48 49  0  0  0  0  0  0  0  0999 V2000
   -4.8889   -2.3759   -0.0390 C   0  0  0  0  0  0  0  0  0  0  0  0
   -4.8064   -1.0648   -0.8060 C   0  0  0  0  0  0  0  0  0  0  0  0
   -5.3090    0.0681   -0.0209 N   0  0  0  0  0  0  0  0  0  0  0  0
   -6.7540    0.2900   -0.0068 C   0  0  0  0  0  0  0  0  0  0  0  0
   -7.1989    1.2021   -1.1402 C   0  0  0  0  0  0  0  0  0  0  0  0
   -4.5064    1.0186    0.6099 C   0  0  0  0  0  0  0  0  0  0  0  0
   -4.9397    2.0242    1.1685 O   0  0  0  0  0  0  0  0  0  0  0  0
   -3.0457    0.8311    0.6016 C   0  0  0  0  0  0  0  0  0  0  0  0
   -2.2722    1.5779   -0.2899 C   0  0  0  0  0  0  0  0  0  0  0  0
   -0.8816    1.4373   -0.2743 C   0  0  0  0  0  0  0  0  0  0  0  0
   -0.2582    0.5791    0.6451 C   0  0  0  0  0  0  0  0  0  0  0  0
    1.1495    0.5473    0.6372 N   0  0  0  0  0  0  0  0  0  0  0  0
    1.9849   -0.0854    1.5453 C   0  0  0  0  0  0  0  0  0  0  0  0
    1.6468   -0.8129    2.4771 O   0  0  0  0  0  0  0  0  0  0  0  0
    3.4508    0.2913    1.3401 C   0  0  0  0  0  0  0  0  0  0  0  0
    3.8195    0.0632   -0.0207 O   0  0  0  0  0  0  0  0  0  0  0  0
    5.1657   -0.0653   -0.2577 C   0  0  0  0  0  0  0  0  0  0  0  0
    6.1454    0.5858    0.5037 C   0  0  0  0  0  0  0  0  0  0  0  0
    7.5031    0.4061    0.2119 C   0  0  0  0  0  0  0  0  0  0  0  0
    7.8820   -0.4220   -0.8558 C   0  0  0  0  0  0  0  0  0  0  0  0
    9.3072   -0.6206   -1.1518 N   0  0  0  0  0  4  0  0  0  0  0  0
   10.1269    0.0600   -0.5166 O   0  0  0  0  0  0  0  0  0  0  0  0
    9.6026   -1.4549   -2.0190 O   0  0  0  0  0  1  0  0  0  0  0  0
    6.9142   -1.0557   -1.6460 C   0  0  0  0  0  0  0  0  0  0  0  0
    5.5608   -0.8675   -1.3459 C   0  0  0  0  0  0  0  0  0  0  0  0
    4.3912   -1.6613   -2.3432 Cl  0  0  0  0  0  0  0  0  0  0  0  0
   -1.0498   -0.1615    1.5318 C   0  0  0  0  0  0  0  0  0  0  0  0
   -2.4434   -0.0359    1.5133 C   0  0  0  0  0  0  0  0  0  0  0  0
   -4.5170   -3.1992   -0.6595 H   0  0  0  0  0  0  0  0  0  0  0  0
   -5.9203   -2.6076    0.2501 H   0  0  0  0  0  0  0  0  0  0  0  0
   -4.2885   -2.3426    0.8788 H   0  0  0  0  0  0  0  0  0  0  0  0
   -3.7708   -0.8922   -1.1087 H   0  0  0  0  0  0  0  0  0  0  0  0
   -5.3946   -1.1309   -1.7286 H   0  0  0  0  0  0  0  0  0  0  0  0
   -7.2662   -0.6757   -0.0730 H   0  0  0  0  0  0  0  0  0  0  0  0
   -7.0373    0.7428    0.9521 H   0  0  0  0  0  0  0  0  0  0  0  0
   -6.6956    2.1754   -1.0880 H   0  0  0  0  0  0  0  0  0  0  0  0
   -8.2789    1.3748   -1.0858 H   0  0  0  0  0  0  0  0  0  0  0  0
   -6.9697    0.7609   -2.1183 H   0  0  0  0  0  0  0  0  0  0  0  0
   -2.7473    2.2747   -0.9771 H   0  0  0  0  0  0  0  0  0  0  0  0
   -0.2928    2.0335   -0.9729 H   0  0  0  0  0  0  0  0  0  0  0  0
    1.6128    1.0978   -0.0798 H   0  0  0  0  0  0  0  0  0  0  0  0
    3.5519    1.3626    1.5757 H   0  0  0  0  0  0  0  0  0  0  0  0
    4.0565   -0.3049    2.0413 H   0  0  0  0  0  0  0  0  0  0  0  0
    5.8812    1.2525    1.3234 H   0  0  0  0  0  0  0  0  0  0  0  0
    8.2477    0.9140    0.8253 H   0  0  0  0  0  0  0  0  0  0  0  0
    7.1976   -1.6923   -2.4857 H   0  0  0  0  0  0  0  0  0  0  0  0
   -0.6165   -0.8448    2.2550 H   0  0  0  0  0  0  0  0  0  0  0  0
   -3.0487   -0.5969    2.2240 H   0  0  0  0  0  0  0  0  0  0  0  0
  1  2  1  0
  2  3  1  0
  3  4  1  0
  4  5  1  0
  3  6  1  0
  6  7  2  0
  6  8  1  0
  8  9  2  0
  9 10  1  0
 10 11  2  0
 11 12  1  0
 12 13  1  0
 13 14  2  0
 13 15  1  0
 15 16  1  0
 16 17  1  0
 17 18  2  0
 18 19  1  0
 19 20  2  0
 20 21  1  0
 21 22  2  0
 21 23  1  0
 20 24  1  0
 24 25  2  0
 25 26  1  0
 11 27  1  0
 27 28  2  0
 28  8  1  0
 25 17  1  0
  1 29  1  0
  1 30  1  0
  1 31  1  0
  2 32  1  0
  2 33  1  0
  4 34  1  0
  4 35  1  0
  5 36  1  0
  5 37  1  0
  5 38  1  0
  9 39  1  0
 10 40  1  0
 12 41  1  0
 15 42  1  0
 15 43  1  0
 18 44  1  0
 19 45  1  0
 24 46  1  0
 27 47  1  0
 28 48  1  0
M  CHG  2  21   1  23  -1
M  END
$$$$
