
     RDKit          3D

 60 66  0  0  0  0  0  0  0  0999 V2000
    1.2420    2.2915    3.0160 O   0  0  0  0  0  0  0  0  0  0  0  0
    0.5096    2.6622    2.1109 C   0  0  0  0  0  0  0  0  0  0  0  0
   -0.0897    3.9217    2.0313 N   0  0  0  0  0  0  0  0  0  0  0  0
   -0.7883    4.0726    0.8403 C   0  0  0  0  0  0  0  0  0  0  0  0
   -1.4756    5.1911    0.4182 C   0  0  0  0  0  0  0  0  0  0  0  0
   -2.1041    5.1251   -0.8276 C   0  0  0  0  0  0  0  0  0  0  0  0
   -2.0275    3.9601   -1.6132 C   0  0  0  0  0  0  0  0  0  0  0  0
   -1.3224    2.8392   -1.1657 C   0  0  0  0  0  0  0  0  0  0  0  0
   -0.7073    2.9052    0.0744 C   0  0  0  0  0  0  0  0  0  0  0  0
    0.0984    1.8886    0.8254 C   0  0  0  0  0  0  0  0  0  0  0  0
    1.2778    1.3460    0.0896 N   0  0  0  0  0  0  0  0  0  0  0  0
    1.3620   -0.1392    0.3326 C   0  0  2  0  0  0  0  0  0  0  0  0
    1.7760   -0.8866   -0.9427 C   0  0  0  0  0  0  0  0  0  0  0  0
    3.2157   -0.6759   -1.3084 C   0  0  0  0  0  0  0  0  0  0  0  0
    3.6937    0.1592   -2.2994 C   0  0  0  0  0  0  0  0  0  0  0  0
    5.0584    0.0705   -2.3175 N   0  0  0  0  0  0  0  0  0  0  0  0
    5.4907   -0.8110   -1.3547 C   0  0  0  0  0  0  0  0  0  0  0  0
    6.7894   -1.2083   -1.0147 C   0  0  0  0  0  0  0  0  0  0  0  0
    6.9334   -2.1330    0.0234 C   0  0  0  0  0  0  0  0  0  0  0  0
    5.8217   -2.6385    0.6923 C   0  0  0  0  0  0  0  0  0  0  0  0
    4.5300   -2.2311    0.3388 C   0  0  0  0  0  0  0  0  0  0  0  0
    4.3563   -1.2985   -0.7049 C   0  0  0  0  0  0  0  0  0  0  0  0
   -0.0063   -0.4633    0.8050 C   0  0  0  0  0  0  0  0  0  0  0  0
   -0.7319    0.7022    1.0853 C   0  0  0  0  0  0  0  0  0  0  0  0
   -1.9813    0.3455    1.5228 C   0  0  0  0  0  0  0  0  0  0  0  0
   -3.0328    1.0620    1.9011 O   0  0  0  0  0  0  0  0  0  0  0  0
   -2.0178   -1.0401    1.5076 N   0  0  0  0  0  0  0  0  0  0  0  0
   -3.1618   -1.8476    1.9114 C   0  0  0  0  0  0  0  0  0  0  0  0
   -4.0688   -2.1565    0.7446 C   0  0  0  0  0  0  0  0  0  0  0  0
   -5.1236   -1.2937    0.4129 C   0  0  0  0  0  0  0  0  0  0  0  0
   -5.9571   -1.5757   -0.6705 C   0  0  0  0  0  0  0  0  0  0  0  0
   -5.7427   -2.7199   -1.4366 C   0  0  0  0  0  0  0  0  0  0  0  0
   -4.6924   -3.5805   -1.1231 C   0  0  0  0  0  0  0  0  0  0  0  0
   -3.8581   -3.2997   -0.0399 C   0  0  0  0  0  0  0  0  0  0  0  0
   -0.7916   -1.5462    1.1020 C   0  0  0  0  0  0  0  0  0  0  0  0
   -0.5662   -2.8533    1.0608 O   0  0  0  0  0  0  0  0  0  0  0  0
    0.0358    4.6303    2.7384 H   0  0  0  0  0  0  0  0  0  0  0  0
   -1.5293    6.0912    1.0196 H   0  0  0  0  0  0  0  0  0  0  0  0
   -2.6566    5.9850   -1.2005 H   0  0  0  0  0  0  0  0  0  0  0  0
   -2.5216    3.9314   -2.5823 H   0  0  0  0  0  0  0  0  0  0  0  0
   -1.2605    1.9387   -1.7703 H   0  0  0  0  0  0  0  0  0  0  0  0
    2.1260    1.7701    0.4628 H   0  0  0  0  0  0  0  0  0  0  0  0
    2.0708   -0.3235    1.1501 H   0  0  0  0  0  0  0  0  0  0  0  0
    1.1328   -0.5914   -1.7833 H   0  0  0  0  0  0  0  0  0  0  0  0
    1.6123   -1.9643   -0.8143 H   0  0  0  0  0  0  0  0  0  0  0  0
    3.1732    0.8124   -2.9876 H   0  0  0  0  0  0  0  0  0  0  0  0
    5.6670    0.5778   -2.9443 H   0  0  0  0  0  0  0  0  0  0  0  0
    7.6577   -0.8158   -1.5337 H   0  0  0  0  0  0  0  0  0  0  0  0
    7.9292   -2.4611    0.3126 H   0  0  0  0  0  0  0  0  0  0  0  0
    5.9566   -3.3559    1.4981 H   0  0  0  0  0  0  0  0  0  0  0  0
    3.6736   -2.6328    0.8708 H   0  0  0  0  0  0  0  0  0  0  0  0
   -2.8285    1.9974    1.7216 H   0  0  0  0  0  0  0  0  0  0  0  0
   -3.7037   -1.3092    2.6978 H   0  0  0  0  0  0  0  0  0  0  0  0
   -2.7885   -2.7695    2.3725 H   0  0  0  0  0  0  0  0  0  0  0  0
   -5.2942   -0.3909    0.9964 H   0  0  0  0  0  0  0  0  0  0  0  0
   -6.7705   -0.8993   -0.9185 H   0  0  0  0  0  0  0  0  0  0  0  0
   -6.3903   -2.9378   -2.2815 H   0  0  0  0  0  0  0  0  0  0  0  0
   -4.5187   -4.4688   -1.7244 H   0  0  0  0  0  0  0  0  0  0  0  0
   -3.0342   -3.9735    0.1874 H   0  0  0  0  0  0  0  0  0  0  0  0
    0.3538   -2.9848    0.7752 H   0  0  0  0  0  0  0  0  0  0  0  0
  1  2  2  0
  2  3  1  0
  3  4  1  0
  4  5  2  0
  5  6  1  0
  6  7  2  0
  7  8  1  0
  8  9  2  0
  9 10  1  0
 10 11  1  0
 11 12  1  0
 12 13  1  0
 13 14  1  0
 14 15  2  0
 15 16  1  0
 16 17  1  0
 17 18  2  0
 18 19  1  0
 19 20  2  0
 20 21  1  0
 21 22  2  0
 12 23  1  0
 23 24  1  0
 24 25  2  0
 25 26  1  0
 25 27  1  0
 27 28  1  0
 28 29  1  0
 29 30  2  0
 30 31  1  0
 31 32  2  0
 32 33  1  0
 33 34  2  0
 27 35  1  0
 35 36  1  0
 10  2  1  0
 22 14  1  0
 35 23  2  0
  9  4  1  0
 24 10  1  0
 34 29  1  0
 22 17  1  0
  3 37  1  0
  5 38  1  0
  6 39  1  0
  7 40  1  0
  8 41  1  0
 11 42  1  0
 12 43  1  1
 13 44  1  0
 13 45  1  0
 15 46  1  0
 16 47  1  0
 18 48  1  0
 19 49  1  0
 20 50  1  0
 21 51  1  0
 26 52  1  0
 28 53  1  0
 28 54  1  0
 30 55  1  0
 31 56  1  0
 32 57  1  0
 33 58  1  0
 34 59  1  0
 36 60  1  0
M  END
$$$$
