
     RDKit          3D

 46 49  0  0  0  0  0  0  0  0999 V2000
   -5.5820    3.3712    0.9072 C   0  0  0  0  0  0  0  0  0  0  0  0
   -5.6110    2.0696    0.3339 O   0  0  0  0  0  0  0  0  0  0  0  0
   -4.4419    1.3610    0.3531 C   0  0  0  0  0  0  0  0  0  0  0  0
   -3.2169    1.8103    0.8449 C   0  0  0  0  0  0  0  0  0  0  0  0
   -2.0906    0.9786    0.8054 C   0  0  0  0  0  0  0  0  0  0  0  0
   -2.1835   -0.3125    0.2706 C   0  0  0  0  0  0  0  0  0  0  0  0
   -1.0382   -1.1579    0.2188 N   0  0  0  0  0  0  0  0  0  0  0  0
   -0.0543   -1.3393    1.1833 C   0  0  0  0  0  0  0  0  0  0  0  0
   -0.1550   -0.7500    2.8186 S   0  0  0  0  0  0  0  0  0  0  0  0
    1.6045   -0.6072    3.2304 C   0  0  0  0  0  0  0  0  0  0  0  0
    2.2467    0.4960    2.4032 C   0  0  0  0  0  0  0  0  0  0  0  0
    2.1254    1.6722    2.7357 O   0  0  0  0  0  0  0  0  0  0  0  0
    2.9261    0.0153    1.3002 N   0  0  0  0  0  0  0  0  0  0  0  0
    3.6273    0.7937    0.3637 C   0  0  0  0  0  0  0  0  0  0  0  0
    3.6794    2.1342    0.5097 N   0  0  0  0  0  0  0  0  0  0  0  0
    4.3551    2.8532   -0.4187 C   0  0  0  0  0  0  0  0  0  0  0  0
    4.9983    2.2891   -1.5062 C   0  0  0  0  0  0  0  0  0  0  0  0
    5.8346    3.2647   -2.6424 Cl  0  0  0  0  0  0  0  0  0  0  0  0
    4.9562    0.9101   -1.6533 C   0  0  0  0  0  0  0  0  0  0  0  0
    4.2658    0.1510   -0.7071 C   0  0  0  0  0  0  0  0  0  0  0  0
    4.2599   -1.5664   -0.8832 Cl  0  0  0  0  0  0  0  0  0  0  0  0
    0.9161   -2.1328    0.7860 N   0  0  0  0  0  0  0  0  0  0  0  0
    0.5304   -2.5630   -0.4542 C   0  0  0  0  0  0  0  0  0  0  0  0
    1.1813   -3.4664   -1.3096 C   0  0  0  0  0  0  0  0  0  0  0  0
    0.6329   -3.7288   -2.5683 C   0  0  0  0  0  0  0  0  0  0  0  0
   -0.5387   -3.0956   -2.9744 C   0  0  0  0  0  0  0  0  0  0  0  0
   -1.2070   -2.1996   -2.1320 C   0  0  0  0  0  0  0  0  0  0  0  0
   -0.6675   -1.9706   -0.8533 C   0  0  0  0  0  0  0  0  0  0  0  0
   -3.4107   -0.7620   -0.2283 C   0  0  0  0  0  0  0  0  0  0  0  0
   -4.5302    0.0741   -0.1826 C   0  0  0  0  0  0  0  0  0  0  0  0
   -5.3145    3.3302    1.9686 H   0  0  0  0  0  0  0  0  0  0  0  0
   -6.5898    3.7911    0.8341 H   0  0  0  0  0  0  0  0  0  0  0  0
   -4.9057    4.0306    0.3530 H   0  0  0  0  0  0  0  0  0  0  0  0
   -3.0968    2.8058    1.2607 H   0  0  0  0  0  0  0  0  0  0  0  0
   -1.1459    1.3844    1.1632 H   0  0  0  0  0  0  0  0  0  0  0  0
    1.7031   -0.3388    4.2874 H   0  0  0  0  0  0  0  0  0  0  0  0
    2.1217   -1.5627    3.0960 H   0  0  0  0  0  0  0  0  0  0  0  0
    2.8273   -0.9730    1.0762 H   0  0  0  0  0  0  0  0  0  0  0  0
    4.3594    3.9263   -0.2487 H   0  0  0  0  0  0  0  0  0  0  0  0
    5.4573    0.4301   -2.4885 H   0  0  0  0  0  0  0  0  0  0  0  0
    2.1023   -3.9462   -0.9959 H   0  0  0  0  0  0  0  0  0  0  0  0
    1.1342   -4.4231   -3.2385 H   0  0  0  0  0  0  0  0  0  0  0  0
   -0.9403   -3.2956   -3.9662 H   0  0  0  0  0  0  0  0  0  0  0  0
   -2.1029   -1.6959   -2.4802 H   0  0  0  0  0  0  0  0  0  0  0  0
   -3.5365   -1.7707   -0.6133 H   0  0  0  0  0  0  0  0  0  0  0  0
   -5.4857   -0.2848   -0.5589 H   0  0  0  0  0  0  0  0  0  0  0  0
  1  2  1  0
  2  3  1  0
  3  4  2  0
  4  5  1  0
  5  6  2  0
  6  7  1  0
  7  8  1  0
  8  9  1  0
  9 10  1  0
 10 11  1  0
 11 12  2  0
 11 13  1  0
 13 14  1  0
 14 15  2  0
 15 16  1  0
 16 17  2  0
 17 18  1  0
 17 19  1  0
 19 20  2  0
 20 21  1  0
  8 22  2  0
 22 23  1  0
 23 24  2  0
 24 25  1  0
 25 26  2  0
 26 27  1  0
 27 28  2  0
  6 29  1  0
 29 30  2  0
 30  3  1  0
 28  7  1  0
 20 14  1  0
 28 23  1  0
  1 31  1  0
  1 32  1  0
  1 33  1  0
  4 34  1  0
  5 35  1  0
 10 36  1  0
 10 37  1  0
 13 38  1  0
 16 39  1  0
 19 40  1  0
 24 41  1  0
 25 42  1  0
 26 43  1  0
 27 44  1  0
 29 45  1  0
 30 46  1  0
M  END
$$$$
