
     RDKit          3D

 72 77  0  0  0  0  0  0  0  0999 V2000
   -9.1726    2.0629    1.6175 C   0  0  0  0  0  0  0  0  0  0  0  0
   -8.3230    1.3442    0.6135 C   0  0  0  0  0  0  0  0  0  0  0  0
   -7.9819    1.9577   -0.5907 C   0  0  0  0  0  0  0  0  0  0  0  0
   -7.1794    1.2922   -1.5190 C   0  0  0  0  0  0  0  0  0  0  0  0
   -6.6813    0.0058   -1.2562 C   0  0  0  0  0  0  0  0  0  0  0  0
   -5.8450   -0.6728   -2.3104 C   0  0  0  0  0  0  0  0  0  0  0  0
   -6.9895   -0.6119   -0.0246 C   0  0  0  0  0  0  0  0  0  0  0  0
   -6.4788   -1.9889    0.3476 C   0  0  0  0  0  0  0  0  0  0  0  0
   -5.5834   -1.9432    1.4899 N   0  0  0  0  0  0  0  0  0  0  0  0
   -5.9955   -2.3499    2.7185 N   0  0  0  0  0  0  0  0  0  0  0  0
   -4.9709   -2.2035    3.5596 N   0  0  0  0  0  0  0  0  0  0  0  0
   -3.9210   -1.7270    2.8379 C   0  0  0  0  0  0  0  0  0  0  0  0
   -2.5833   -1.3806    3.2284 C   0  0  0  0  0  0  0  0  0  0  0  0
   -2.1121   -1.4721    4.3561 O   0  0  0  0  0  0  0  0  0  0  0  0
   -1.8272   -0.9067    2.1602 N   0  0  0  0  0  0  0  0  0  0  0  0
   -2.2928   -0.8038    0.8574 C   0  0  0  0  0  0  0  0  0  0  0  0
   -1.3408   -0.2488   -0.2015 C   0  0  0  0  0  0  0  0  0  0  0  0
   -0.0701   -1.0856   -0.3772 C   0  0  0  0  0  0  0  0  0  0  0  0
    1.1158   -0.6512    0.4773 C   0  0  0  0  0  0  0  0  0  0  0  0
    1.3071    0.8159    0.4784 N   0  0  0  0  0  0  0  0  0  0  0  0
    2.1825    1.5125   -0.8152 S   0  0  0  0  0  6  0  0  0  0  0  0
    1.6037    1.0300   -2.0509 O   0  0  0  0  0  0  0  0  0  0  0  0
    2.3231    2.9295   -0.5587 O   0  0  0  0  0  0  0  0  0  0  0  0
    3.7965    0.7910   -0.6325 C   0  0  0  0  0  0  0  0  0  0  0  0
    4.5834    1.1621    0.4651 C   0  0  0  0  0  0  0  0  0  0  0  0
    5.8590    0.6154    0.6152 C   0  0  0  0  0  0  0  0  0  0  0  0
    6.3375   -0.2867   -0.3418 C   0  0  0  0  0  0  0  0  0  0  0  0
    7.9450   -1.0179   -0.1429 S   0  0  0  0  0  6  0  0  0  0  0  0
    8.4117   -0.7233    1.1952 O   0  0  0  0  0  0  0  0  0  0  0  0
    7.8767   -2.3718   -0.6498 O   0  0  0  0  0  0  0  0  0  0  0  0
    8.8519   -0.1283   -1.2766 N   0  0  0  0  0  0  0  0  0  0  0  0
   10.0842    0.4749   -0.7480 C   0  0  0  0  0  0  0  0  0  0  0  0
   11.2359    0.7900   -1.6594 C   0  0  0  0  0  0  0  0  0  0  0  0
   11.3553   -0.3169   -0.6531 C   0  0  0  0  0  0  0  0  0  0  0  0
    5.5480   -0.6600   -1.4379 C   0  0  0  0  0  0  0  0  0  0  0  0
    4.2739   -0.1108   -1.5896 C   0  0  0  0  0  0  0  0  0  0  0  0
    0.0984    1.5591    0.8992 C   0  0  0  0  0  0  0  0  0  0  0  0
   -1.0806    1.2492   -0.0098 C   0  0  0  0  0  0  0  0  0  0  0  0
   -3.5007   -1.1361    0.4931 N   0  0  0  0  0  0  0  0  0  0  0  0
   -4.2692   -1.5738    1.5184 C   0  0  0  0  0  0  0  0  0  0  0  0
   -7.8134    0.0711    0.8938 C   0  0  0  0  0  0  0  0  0  0  0  0
   -9.9103    2.6995    1.1172 H   0  0  0  0  0  0  0  0  0  0  0  0
   -8.5475    2.6856    2.2633 H   0  0  0  0  0  0  0  0  0  0  0  0
   -9.7261    1.3536    2.2435 H   0  0  0  0  0  0  0  0  0  0  0  0
   -8.3476    2.9561   -0.8234 H   0  0  0  0  0  0  0  0  0  0  0  0
   -6.9440    1.7902   -2.4577 H   0  0  0  0  0  0  0  0  0  0  0  0
   -4.8552   -0.9178   -1.9167 H   0  0  0  0  0  0  0  0  0  0  0  0
   -6.3435   -1.5856   -2.6540 H   0  0  0  0  0  0  0  0  0  0  0  0
   -5.6960   -0.0304   -3.1843 H   0  0  0  0  0  0  0  0  0  0  0  0
   -7.3230   -2.6429    0.5973 H   0  0  0  0  0  0  0  0  0  0  0  0
   -5.9294   -2.4771   -0.4640 H   0  0  0  0  0  0  0  0  0  0  0  0
   -0.8906   -0.6478    2.4169 H   0  0  0  0  0  0  0  0  0  0  0  0
   -1.8993   -0.3452   -1.1446 H   0  0  0  0  0  0  0  0  0  0  0  0
   -0.2781   -2.1456   -0.1864 H   0  0  0  0  0  0  0  0  0  0  0  0
    0.2248   -1.0285   -1.4327 H   0  0  0  0  0  0  0  0  0  0  0  0
    2.0223   -1.1638    0.1406 H   0  0  0  0  0  0  0  0  0  0  0  0
    0.9798   -0.9758    1.5153 H   0  0  0  0  0  0  0  0  0  0  0  0
    4.2053    1.8725    1.1980 H   0  0  0  0  0  0  0  0  0  0  0  0
    6.4688    0.8963    1.4713 H   0  0  0  0  0  0  0  0  0  0  0  0
    9.0213   -0.7319   -2.0851 H   0  0  0  0  0  0  0  0  0  0  0  0
    9.8824    1.1932    0.0451 H   0  0  0  0  0  0  0  0  0  0  0  0
   11.7896    1.7034   -1.4771 H   0  0  0  0  0  0  0  0  0  0  0  0
   11.1558    0.5212   -2.7064 H   0  0  0  0  0  0  0  0  0  0  0  0
   11.3575   -1.3385   -1.0131 H   0  0  0  0  0  0  0  0  0  0  0  0
   11.9826   -0.1544    0.2168 H   0  0  0  0  0  0  0  0  0  0  0  0
    5.9205   -1.3710   -2.1733 H   0  0  0  0  0  0  0  0  0  0  0  0
    3.6658   -0.3883   -2.4479 H   0  0  0  0  0  0  0  0  0  0  0  0
    0.2898    2.6374    0.9119 H   0  0  0  0  0  0  0  0  0  0  0  0
   -0.1271    1.2989    1.9391 H   0  0  0  0  0  0  0  0  0  0  0  0
   -1.9757    1.7503    0.3793 H   0  0  0  0  0  0  0  0  0  0  0  0
   -0.8880    1.6930   -0.9952 H   0  0  0  0  0  0  0  0  0  0  0  0
   -8.0620   -0.3986    1.8449 H   0  0  0  0  0  0  0  0  0  0  0  0
  1  2  1  0
  2  3  2  0
  3  4  1  0
  4  5  2  0
  5  6  1  0
  5  7  1  0
  7  8  1  0
  8  9  1  0
  9 10  1  0
 10 11  2  0
 11 12  1  0
 12 13  1  0
 13 14  2  0
 13 15  1  0
 15 16  1  0
 16 17  1  0
 17 18  1  0
 18 19  1  0
 19 20  1  0
 20 21  1  0
 21 22  2  0
 21 23  2  0
 21 24  1  0
 24 25  2  0
 25 26  1  0
 26 27  2  0
 27 28  1  0
 28 29  2  0
 28 30  2  0
 28 31  1  0
 31 32  1  0
 32 33  1  0
 33 34  1  0
 27 35  1  0
 35 36  2  0
 20 37  1  0
 37 38  1  0
 16 39  2  0
 39 40  1  0
  7 41  2  0
 41  2  1  0
 40  9  1  0
 40 12  2  0
 38 17  1  0
 36 24  1  0
 34 32  1  0
  1 42  1  0
  1 43  1  0
  1 44  1  0
  3 45  1  0
  4 46  1  0
  6 47  1  0
  6 48  1  0
  6 49  1  0
  8 50  1  0
  8 51  1  0
 15 52  1  0
 17 53  1  0
 18 54  1  0
 18 55  1  0
 19 56  1  0
 19 57  1  0
 25 58  1  0
 26 59  1  0
 31 60  1  0
 32 61  1  0
 33 62  1  0
 33 63  1  0
 34 64  1  0
 34 65  1  0
 35 66  1  0
 36 67  1  0
 37 68  1  0
 37 69  1  0
 38 70  1  0
 38 71  1  0
 41 72  1  0
M  END
$$$$
