
     RDKit          3D

 50 52  0  0  0  0  0  0  0  0999 V2000
    6.6367   -1.6148    0.4944 C   0  0  0  0  0  0  0  0  0  0  0  0
    6.0259   -1.4954    1.8100 N   0  0  0  0  0  0  0  0  0  0  0  0
    4.5073   -2.1070    2.1257 S   0  0  0  0  0  6  0  0  0  0  0  0
    4.3936   -3.3947    1.4768 O   0  0  0  0  0  0  0  0  0  0  0  0
    4.2780   -1.9395    3.5462 O   0  0  0  0  0  0  0  0  0  0  0  0
    3.4640   -0.9433    1.2784 C   0  0  0  0  0  0  0  0  0  0  0  0
    2.8093   -1.3171    0.1035 C   0  0  0  0  0  0  0  0  0  0  0  0
    2.0067   -0.3838   -0.5598 C   0  0  0  0  0  0  0  0  0  0  0  0
    1.8461    0.9074   -0.0428 C   0  0  0  0  0  0  0  0  0  0  0  0
    1.0218    1.8800   -0.8090 C   0  0  0  0  0  0  0  0  0  0  0  0
    0.8724    1.7491   -2.0190 O   0  0  0  0  0  0  0  0  0  0  0  0
    0.4098    2.8818   -0.0897 N   0  0  0  0  0  0  0  0  0  0  0  0
   -0.3856    3.9164   -0.7373 C   0  0  0  0  0  0  0  0  0  0  0  0
   -1.8042    3.4445   -1.0682 C   0  0  0  0  0  0  0  0  0  0  0  0
   -2.8029    3.9613   -0.5776 O   0  0  0  0  0  0  0  0  0  0  0  0
   -1.8620    2.4263   -1.9944 N   0  0  0  0  0  0  0  0  0  0  0  0
   -3.1041    1.7469   -2.3075 C   0  0  0  0  0  0  0  0  0  0  0  0
   -3.5546    0.8005   -1.1858 C   0  0  0  0  0  0  0  0  0  0  0  0
   -4.9156    0.1954   -1.5214 C   0  0  0  0  0  0  0  0  0  0  0  0
   -5.3884   -0.6304   -0.4492 O   0  0  0  0  0  0  0  0  0  0  0  0
   -4.3964   -1.4426    0.0409 C   0  0  0  0  0  0  0  0  0  0  0  0
   -4.7986   -2.4792    0.8846 C   0  0  0  0  0  0  0  0  0  0  0  0
   -3.8470   -3.3571    1.4120 C   0  0  0  0  0  0  0  0  0  0  0  0
   -2.4946   -3.1964    1.0967 C   0  0  0  0  0  0  0  0  0  0  0  0
   -2.0903   -2.1525    0.2587 C   0  0  0  0  0  0  0  0  0  0  0  0
   -3.0399   -1.2671   -0.2566 C   0  0  0  0  0  0  0  0  0  0  0  0
   -2.5746   -0.2504   -1.0555 O   0  0  0  0  0  0  0  0  0  0  0  0
    2.5041    1.2766    1.1428 C   0  0  0  0  0  0  0  0  0  0  0  0
    3.3082    0.3460    1.8089 C   0  0  0  0  0  0  0  0  0  0  0  0
    7.5683   -2.1923    0.5659 H   0  0  0  0  0  0  0  0  0  0  0  0
    5.9797   -2.1049   -0.2331 H   0  0  0  0  0  0  0  0  0  0  0  0
    6.8808   -0.6107    0.1213 H   0  0  0  0  0  0  0  0  0  0  0  0
    6.6066   -1.2535    2.6197 H   0  0  0  0  0  0  0  0  0  0  0  0
    2.9225   -2.3194   -0.3043 H   0  0  0  0  0  0  0  0  0  0  0  0
    1.5063   -0.6664   -1.4827 H   0  0  0  0  0  0  0  0  0  0  0  0
    0.3227    2.7888    0.9118 H   0  0  0  0  0  0  0  0  0  0  0  0
   -0.4477    4.7615   -0.0426 H   0  0  0  0  0  0  0  0  0  0  0  0
    0.1090    4.2489   -1.6573 H   0  0  0  0  0  0  0  0  0  0  0  0
   -0.9841    1.9557   -2.2238 H   0  0  0  0  0  0  0  0  0  0  0  0
   -3.8728    2.5099   -2.4921 H   0  0  0  0  0  0  0  0  0  0  0  0
   -2.9257    1.1934   -3.2384 H   0  0  0  0  0  0  0  0  0  0  0  0
   -3.5990    1.3349   -0.2292 H   0  0  0  0  0  0  0  0  0  0  0  0
   -5.6608    0.9834   -1.6752 H   0  0  0  0  0  0  0  0  0  0  0  0
   -4.8750   -0.4140   -2.4326 H   0  0  0  0  0  0  0  0  0  0  0  0
   -5.8519   -2.6070    1.1231 H   0  0  0  0  0  0  0  0  0  0  0  0
   -4.1622   -4.1676    2.0675 H   0  0  0  0  0  0  0  0  0  0  0  0
   -1.7562   -3.8819    1.5084 H   0  0  0  0  0  0  0  0  0  0  0  0
   -1.0362   -2.0241    0.0197 H   0  0  0  0  0  0  0  0  0  0  0  0
    2.4288    2.2927    1.5418 H   0  0  0  0  0  0  0  0  0  0  0  0
    3.8218    0.6337    2.7263 H   0  0  0  0  0  0  0  0  0  0  0  0
  1  2  1  0
  2  3  1  0
  3  4  2  0
  3  5  2  0
  3  6  1  0
  6  7  2  0
  7  8  1  0
  8  9  2  0
  9 10  1  0
 10 11  2  0
 10 12  1  0
 12 13  1  0
 13 14  1  0
 14 15  2  0
 14 16  1  0
 16 17  1  0
 17 18  1  0
 18 19  1  0
 19 20  1  0
 20 21  1  0
 21 22  2  0
 22 23  1  0
 23 24  2  0
 24 25  1  0
 25 26  2  0
 26 27  1  0
  9 28  1  0
 28 29  2  0
 29  6  1  0
 27 18  1  0
 26 21  1  0
  1 30  1  0
  1 31  1  0
  1 32  1  0
  2 33  1  0
  7 34  1  0
  8 35  1  0
 12 36  1  0
 13 37  1  0
 13 38  1  0
 16 39  1  0
 17 40  1  0
 17 41  1  0
 18 42  1  0
 19 43  1  0
 19 44  1  0
 22 45  1  0
 23 46  1  0
 24 47  1  0
 25 48  1  0
 28 49  1  0
 29 50  1  0
M  END
$$$$
