
     RDKit          3D

 50 52  0  0  0  0  0  0  0  0999 V2000
    0.3416    0.0039   -2.5484 C   0  0  0  0  0  0  0  0  0  0  0  0
    0.9358    1.2447   -1.9086 C   0  0  0  0  0  0  0  0  0  0  0  0
    1.6757    0.9288   -0.6811 N   0  0  0  0  0  4  0  0  0  0  0  0
    1.1238    0.9621    0.5316 C   0  0  0  0  0  0  0  0  0  0  0  0
   -0.2359    1.2667    0.8335 C   0  0  0  0  0  0  0  0  0  0  0  0
   -0.6873    1.5898    2.0589 C   0  0  0  0  0  0  0  0  0  0  0  0
   -2.0857    1.8461    2.3499 C   0  0  0  0  0  0  0  0  0  0  0  0
   -3.1652    1.1370    1.9760 C   0  0  0  0  0  0  0  0  0  0  0  0
   -3.1989   -0.0868    1.3002 N   0  0  0  0  0  0  0  0  0  0  0  0
   -2.2021   -1.0588    1.5096 C   0  0  0  0  0  0  0  0  0  0  0  0
   -1.8757   -1.3656    2.9623 C   0  0  0  0  0  0  0  0  0  0  0  0
   -1.6193   -1.6558    0.5963 O   0  0  0  0  0  0  0  0  0  0  0  0
   -4.2812   -0.4091    0.3909 C   0  0  0  0  0  0  0  0  0  0  0  0
   -4.5425   -1.7384    0.0051 C   0  0  0  0  0  0  0  0  0  0  0  0
   -5.5999   -2.0520   -0.8561 C   0  0  0  0  0  0  0  0  0  0  0  0
   -6.4310   -1.0426   -1.3350 C   0  0  0  0  0  0  0  0  0  0  0  0
   -6.2004    0.2784   -0.9614 C   0  0  0  0  0  0  0  0  0  0  0  0
   -5.1336    0.5924   -0.1097 C   0  0  0  0  0  0  0  0  0  0  0  0
    2.2877    0.5282    1.7248 S   0  0  0  0  0  0  0  0  0  0  0  0
    3.5228    0.2977    0.5584 C   0  0  0  0  0  0  0  0  0  0  0  0
    4.8539   -0.0978    0.7582 C   0  0  0  0  0  0  0  0  0  0  0  0
    5.6955   -0.2202   -0.3537 C   0  0  0  0  0  0  0  0  0  0  0  0
    6.9646   -0.6173   -0.0519 O   0  0  0  0  0  0  0  0  0  0  0  0
    7.8937   -0.7489   -1.1165 C   0  0  0  0  0  0  0  0  0  0  0  0
    5.2121    0.0556   -1.6268 C   0  0  0  0  0  0  0  0  0  0  0  0
    3.8775    0.4463   -1.8182 C   0  0  0  0  0  0  0  0  0  0  0  0
    3.0200    0.5647   -0.7089 C   0  0  0  0  0  0  0  0  0  0  0  0
    1.1250   -0.7131   -2.8345 H   0  0  0  0  0  0  0  0  0  0  0  0
   -0.3409   -0.5027   -1.8649 H   0  0  0  0  0  0  0  0  0  0  0  0
   -0.2106    0.2732   -3.4485 H   0  0  0  0  0  0  0  0  0  0  0  0
    1.6079    1.7459   -2.6237 H   0  0  0  0  0  0  0  0  0  0  0  0
    0.1537    1.9828   -1.6934 H   0  0  0  0  0  0  0  0  0  0  0  0
   -0.9674    1.1799    0.0318 H   0  0  0  0  0  0  0  0  0  0  0  0
   -0.0209    1.7352    2.9102 H   0  0  0  0  0  0  0  0  0  0  0  0
   -2.2598    2.7618    2.9165 H   0  0  0  0  0  0  0  0  0  0  0  0
   -4.1447    1.5628    2.1902 H   0  0  0  0  0  0  0  0  0  0  0  0
   -1.9957   -2.4480    3.1253 H   0  0  0  0  0  0  0  0  0  0  0  0
   -0.8401   -1.0817    3.1707 H   0  0  0  0  0  0  0  0  0  0  0  0
   -2.5384   -0.8431    3.6579 H   0  0  0  0  0  0  0  0  0  0  0  0
   -3.9386   -2.5687    0.3727 H   0  0  0  0  0  0  0  0  0  0  0  0
   -5.7733   -3.0836   -1.1507 H   0  0  0  0  0  0  0  0  0  0  0  0
   -7.2584   -1.2858   -1.9978 H   0  0  0  0  0  0  0  0  0  0  0  0
   -6.8493    1.0660   -1.3338 H   0  0  0  0  0  0  0  0  0  0  0  0
   -4.9965    1.6381    0.1463 H   0  0  0  0  0  0  0  0  0  0  0  0
    5.2324   -0.3135    1.7557 H   0  0  0  0  0  0  0  0  0  0  0  0
    7.5646   -1.5125   -1.8324 H   0  0  0  0  0  0  0  0  0  0  0  0
    8.8501   -1.0745   -0.6897 H   0  0  0  0  0  0  0  0  0  0  0  0
    8.0584    0.2158   -1.6099 H   0  0  0  0  0  0  0  0  0  0  0  0
    5.8489   -0.0313   -2.5098 H   0  0  0  0  0  0  0  0  0  0  0  0
    3.5474    0.6480   -2.8332 H   0  0  0  0  0  0  0  0  0  0  0  0
  1  2  1  0
  2  3  1  0
  3  4  2  0
  4  5  1  0
  5  6  2  3
  6  7  1  0
  7  8  2  3
  8  9  1  0
  9 10  1  0
 10 11  1  0
 10 12  2  0
  9 13  1  0
 13 14  2  0
 14 15  1  0
 15 16  2  0
 16 17  1  0
 17 18  2  0
  4 19  1  0
 19 20  1  0
 20 21  2  0
 21 22  1  0
 22 23  1  0
 23 24  1  0
 22 25  2  0
 25 26  1  0
 26 27  2  0
 27  3  1  0
 18 13  1  0
 27 20  1  0
  1 28  1  0
  1 29  1  0
  1 30  1  0
  2 31  1  0
  2 32  1  0
  5 33  1  0
  6 34  1  0
  7 35  1  0
  8 36  1  0
 11 37  1  0
 11 38  1  0
 11 39  1  0
 14 40  1  0
 15 41  1  0
 16 42  1  0
 17 43  1  0
 18 44  1  0
 21 45  1  0
 24 46  1  0
 24 47  1  0
 24 48  1  0
 25 49  1  0
 26 50  1  0
M  CHG  1   3   1
M  END
$$$$
