
     RDKit          3D

 56 61  0  0  0  0  0  0  0  0999 V2000
   -5.7317   -2.4550    1.8025 C   0  0  0  0  0  0  0  0  0  0  0  0
   -4.6965   -2.2643    0.7345 C   0  0  0  0  0  0  0  0  0  0  0  0
   -5.0203   -2.3702   -0.6315 C   0  0  0  0  0  0  0  0  0  0  0  0
   -6.6345   -2.7233   -1.1455 Cl  0  0  0  0  0  0  0  0  0  0  0  0
   -4.0499   -2.1891   -1.6368 C   0  0  0  0  0  0  0  0  0  0  0  0
   -2.7250   -1.8987   -1.3096 C   0  0  0  0  0  0  0  0  0  0  0  0
   -2.3943   -1.7898    0.0323 C   0  0  0  0  0  0  0  0  0  0  0  0
   -3.3696   -1.9700    1.0251 C   0  0  0  0  0  0  0  0  0  0  0  0
   -2.7927   -1.7967    2.2802 N   0  0  0  0  0  0  0  0  0  0  0  0
   -1.4285   -1.5068    2.1961 C   0  0  0  0  0  0  0  0  0  0  0  0
   -0.7115   -1.2980    3.1626 O   0  0  0  0  0  0  0  0  0  0  0  0
   -1.0698   -1.4954    0.6861 C   0  0  0  0  0  0  0  0  0  0  0  0
    0.0193   -2.4774    0.3513 N   0  0  0  0  0  0  0  0  0  0  0  0
    1.3038   -1.6972    0.1315 C   0  0  2  0  0  0  0  0  0  0  0  0
    2.1966   -1.8072    1.3815 C   0  0  0  0  0  0  0  0  0  0  0  0
    3.6001   -1.2766    1.1877 C   0  0  0  0  0  0  0  0  0  0  0  0
    4.5246   -1.9723    0.3965 C   0  0  0  0  0  0  0  0  0  0  0  0
    5.8192   -1.4798    0.2231 C   0  0  0  0  0  0  0  0  0  0  0  0
    6.2029   -0.2905    0.8399 C   0  0  0  0  0  0  0  0  0  0  0  0
    5.2930    0.4074    1.6316 C   0  0  0  0  0  0  0  0  0  0  0  0
    3.9980   -0.0830    1.8056 C   0  0  0  0  0  0  0  0  0  0  0  0
    0.7880   -0.3373   -0.1474 C   0  0  0  0  0  0  0  0  0  0  0  0
   -0.5565   -0.2085    0.1928 C   0  0  0  0  0  0  0  0  0  0  0  0
   -0.9498    1.0841   -0.0485 C   0  0  0  0  0  0  0  0  0  0  0  0
   -2.1402    1.6607    0.1017 O   0  0  0  0  0  0  0  0  0  0  0  0
    0.1545    1.7560   -0.6126 N   0  0  0  0  0  0  0  0  0  0  0  0
    0.1626    3.0967   -1.1158 C   0  0  0  0  0  0  0  0  0  0  0  0
    0.9738    3.4377   -2.2092 C   0  0  0  0  0  0  0  0  0  0  0  0
    0.9879    4.7471   -2.6970 C   0  0  0  0  0  0  0  0  0  0  0  0
    0.1919    5.7231   -2.1026 C   0  0  0  0  0  0  0  0  0  0  0  0
   -0.6260    5.3903   -1.0251 C   0  0  0  0  0  0  0  0  0  0  0  0
   -0.6461    4.0816   -0.5348 C   0  0  0  0  0  0  0  0  0  0  0  0
    1.2406    0.8582   -0.6311 C   0  0  0  0  0  0  0  0  0  0  0  0
    2.4786    1.1712   -1.0055 O   0  0  0  0  0  0  0  0  0  0  0  0
   -6.5158   -1.6964    1.7104 H   0  0  0  0  0  0  0  0  0  0  0  0
   -6.1783   -3.4519    1.7263 H   0  0  0  0  0  0  0  0  0  0  0  0
   -5.3156   -2.3687    2.8099 H   0  0  0  0  0  0  0  0  0  0  0  0
   -4.3317   -2.2739   -2.6849 H   0  0  0  0  0  0  0  0  0  0  0  0
   -1.9828   -1.7526   -2.0894 H   0  0  0  0  0  0  0  0  0  0  0  0
   -3.2584   -1.8754    3.1718 H   0  0  0  0  0  0  0  0  0  0  0  0
   -0.2174   -2.8648   -0.5603 H   0  0  0  0  0  0  0  0  0  0  0  0
    1.8084   -2.1110   -0.7493 H   0  0  0  0  0  0  0  0  0  0  0  0
    1.7348   -1.2977    2.2363 H   0  0  0  0  0  0  0  0  0  0  0  0
    2.2857   -2.8615    1.6783 H   0  0  0  0  0  0  0  0  0  0  0  0
    4.2428   -2.9044   -0.0870 H   0  0  0  0  0  0  0  0  0  0  0  0
    6.5287   -2.0253   -0.3930 H   0  0  0  0  0  0  0  0  0  0  0  0
    7.2109    0.0916    0.7046 H   0  0  0  0  0  0  0  0  0  0  0  0
    5.5905    1.3339    2.1147 H   0  0  0  0  0  0  0  0  0  0  0  0
    3.2966    0.4736    2.4234 H   0  0  0  0  0  0  0  0  0  0  0  0
   -2.7660    0.9926    0.4314 H   0  0  0  0  0  0  0  0  0  0  0  0
    1.5646    2.6905   -2.7348 H   0  0  0  0  0  0  0  0  0  0  0  0
    1.6102    5.0010   -3.5517 H   0  0  0  0  0  0  0  0  0  0  0  0
    0.2013    6.7409   -2.4841 H   0  0  0  0  0  0  0  0  0  0  0  0
   -1.2502    6.1500   -0.5614 H   0  0  0  0  0  0  0  0  0  0  0  0
   -1.2773    3.8652    0.3229 H   0  0  0  0  0  0  0  0  0  0  0  0
    2.6267    2.1173   -0.8274 H   0  0  0  0  0  0  0  0  0  0  0  0
  1  2  1  0
  2  3  2  0
  3  4  1  0
  3  5  1  0
  5  6  2  0
  6  7  1  0
  7  8  2  0
  8  9  1  0
  9 10  1  0
 10 11  2  0
 10 12  1  0
 12 13  1  0
 13 14  1  0
 14 15  1  0
 15 16  1  0
 16 17  2  0
 17 18  1  0
 18 19  2  0
 19 20  1  0
 20 21  2  0
 14 22  1  0
 22 23  1  0
 23 24  2  0
 24 25  1  0
 24 26  1  0
 26 27  1  0
 27 28  2  0
 28 29  1  0
 29 30  2  0
 30 31  1  0
 31 32  2  0
 26 33  1  0
 33 34  1  0
  8  2  1  0
 23 12  1  0
 32 27  1  0
 12  7  1  0
 21 16  1  0
 33 22  2  0
  1 35  1  0
  1 36  1  0
  1 37  1  0
  5 38  1  0
  6 39  1  0
  9 40  1  0
 13 41  1  0
 14 42  1  6
 15 43  1  0
 15 44  1  0
 17 45  1  0
 18 46  1  0
 19 47  1  0
 20 48  1  0
 21 49  1  0
 25 50  1  0
 28 51  1  0
 29 52  1  0
 30 53  1  0
 31 54  1  0
 32 55  1  0
 34 56  1  0
M  END
$$$$
