
     RDKit          3D

 36 37  0  0  0  0  0  0  0  0999 V2000
   -0.4077   -0.4540   -2.7993 O   0  0  0  0  0  0  0  0  0  0  0  0
   -0.3894   -1.2424   -1.8583 C   0  0  0  0  0  0  0  0  0  0  0  0
    0.7054   -2.3005   -1.7006 C   0  0  0  0  0  0  0  0  0  0  0  0
    1.7971   -1.8774   -0.8837 O   0  0  0  0  0  0  0  0  0  0  0  0
    1.5419   -1.8715    0.4454 C   0  0  0  0  0  0  0  0  0  0  0  0
    0.4994   -2.1904    0.9897 O   0  0  0  0  0  0  0  0  0  0  0  0
    2.7504   -1.4079    1.1464 C   0  0  0  0  0  0  0  0  0  0  0  0
    3.9218   -2.1706    1.0121 C   0  0  0  0  0  0  0  0  0  0  0  0
    5.0819   -1.7871    1.6800 C   0  0  0  0  0  0  0  0  0  0  0  0
    5.0721   -0.6459    2.4807 C   0  0  0  0  0  0  0  0  0  0  0  0
    3.9050    0.1178    2.6133 C   0  0  0  0  0  0  0  0  0  0  0  0
    3.9945    1.5223    3.6201 Cl  0  0  0  0  0  0  0  0  0  0  0  0
    2.7297   -0.2573    1.9454 C   0  0  0  0  0  0  0  0  0  0  0  0
    1.2956    0.7084    2.0683 Cl  0  0  0  0  0  0  0  0  0  0  0  0
   -1.3429   -1.2604   -0.8629 N   0  0  0  0  0  0  0  0  0  0  0  0
   -2.4099   -0.2779   -0.8111 C   0  0  0  0  0  0  0  0  0  0  0  0
   -1.9670    1.0480   -0.1834 C   0  0  0  0  0  0  0  0  0  0  0  0
   -3.0607    1.9984   -0.0840 N   0  0  0  0  0  0  0  0  0  0  0  0
   -3.3556    2.9233   -1.0540 C   0  0  0  0  0  0  0  0  0  0  0  0
   -2.5619    2.9973   -2.1567 O   0  0  0  0  0  0  0  0  0  0  0  0
   -4.4350    3.6716   -0.7996 C   0  0  0  0  0  0  0  0  0  0  0  0
   -5.1656    3.2277    0.7136 S   0  0  0  0  0  0  0  0  0  0  0  0
   -3.9495    1.9619    0.9777 C   0  0  0  0  0  0  0  0  0  0  0  0
   -3.9550    1.2063    1.9349 O   0  0  0  0  0  0  0  0  0  0  0  0
    0.2781   -3.2394   -1.3269 H   0  0  0  0  0  0  0  0  0  0  0  0
    1.1038   -2.5192   -2.6974 H   0  0  0  0  0  0  0  0  0  0  0  0
    3.9292   -3.0652    0.3920 H   0  0  0  0  0  0  0  0  0  0  0  0
    5.9918   -2.3754    1.5799 H   0  0  0  0  0  0  0  0  0  0  0  0
    5.9817   -0.3511    3.0007 H   0  0  0  0  0  0  0  0  0  0  0  0
   -1.0991   -1.7418    0.0047 H   0  0  0  0  0  0  0  0  0  0  0  0
   -3.2234   -0.7245   -0.2292 H   0  0  0  0  0  0  0  0  0  0  0  0
   -2.7844   -0.1087   -1.8273 H   0  0  0  0  0  0  0  0  0  0  0  0
   -1.5967    0.8519    0.8302 H   0  0  0  0  0  0  0  0  0  0  0  0
   -1.1333    1.4930   -0.7386 H   0  0  0  0  0  0  0  0  0  0  0  0
   -2.9063    3.6891   -2.7454 H   0  0  0  0  0  0  0  0  0  0  0  0
   -4.8361    4.4513   -1.4297 H   0  0  0  0  0  0  0  0  0  0  0  0
  1  2  2  0
  2  3  1  0
  3  4  1  0
  4  5  1  0
  5  6  2  0
  5  7  1  0
  7  8  2  0
  8  9  1  0
  9 10  2  0
 10 11  1  0
 11 12  1  0
 11 13  2  0
 13 14  1  0
  2 15  1  0
 15 16  1  0
 16 17  1  0
 17 18  1  0
 18 19  1  0
 19 20  1  0
 19 21  2  0
 21 22  1  0
 22 23  1  0
 23 24  2  0
 13  7  1  0
 23 18  1  0
  3 25  1  0
  3 26  1  0
  8 27  1  0
  9 28  1  0
 10 29  1  0
 15 30  1  0
 16 31  1  0
 16 32  1  0
 17 33  1  0
 17 34  1  0
 20 35  1  0
 21 36  1  0
M  END
$$$$
