
     RDKit          3D

 56 60  0  0  0  0  0  0  0  0999 V2000
   -5.6834   -2.7305   -2.2657 C   0  0  0  0  0  0  0  0  0  0  0  0
   -4.2714   -2.2948   -1.9865 C   0  0  0  0  0  0  0  0  0  0  0  0
   -3.2525   -3.2589   -2.0155 C   0  0  0  0  0  0  0  0  0  0  0  0
   -1.9227   -2.9084   -1.7635 C   0  0  0  0  0  0  0  0  0  0  0  0
   -1.5686   -1.5850   -1.4646 C   0  0  0  0  0  0  0  0  0  0  0  0
   -0.1727   -1.2060   -1.1985 C   0  0  0  0  0  0  0  0  0  0  0  0
    0.3492   -0.3741   -2.1285 N   0  0  0  0  0  0  0  0  0  0  0  0
    1.6400    0.0506   -2.0230 N   0  0  0  0  0  0  0  0  0  0  0  0
    2.4092   -0.3355   -0.9829 C   0  0  0  0  0  0  0  0  0  0  0  0
    3.7218    0.1917   -0.9675 N   0  0  0  0  0  0  0  0  0  0  0  0
    4.2693    1.0351    0.0377 C   0  0  0  0  0  0  0  0  0  0  0  0
    3.4679    1.7295    0.9718 C   0  0  0  0  0  0  0  0  0  0  0  0
    4.0389    2.5894    1.9173 C   0  0  0  0  0  0  0  0  0  0  0  0
    5.4061    2.7481    1.8955 C   0  0  0  0  0  0  0  0  0  0  0  0
    6.1933    2.0956    0.9782 C   0  0  0  0  0  0  0  0  0  0  0  0
    5.6570    1.2446    0.0347 C   0  0  0  0  0  0  0  0  0  0  0  0
    7.5126    2.3939    1.1214 O   0  0  0  0  0  0  0  0  0  0  0  0
    7.4651    3.3064    2.2379 C   0  0  0  0  0  0  0  0  0  0  0  0
    6.1294    3.5386    2.7321 O   0  0  0  0  0  0  0  0  0  0  0  0
    1.9212   -1.2155    0.0078 C   0  0  0  0  0  0  0  0  0  0  0  0
    2.7065   -1.6991    1.0851 C   0  0  0  0  0  0  0  0  0  0  0  0
    2.1799   -2.5451    2.0609 C   0  0  0  0  0  0  0  0  0  0  0  0
    0.8529   -2.9364    1.9856 C   0  0  0  0  0  0  0  0  0  0  0  0
    0.0626   -2.4963    0.9238 C   0  0  0  0  0  0  0  0  0  0  0  0
    0.5789   -1.6498   -0.0917 C   0  0  0  0  0  0  0  0  0  0  0  0
   -2.5839   -0.6164   -1.4455 C   0  0  0  0  0  0  0  0  0  0  0  0
   -3.9233   -0.9656   -1.6837 C   0  0  0  0  0  0  0  0  0  0  0  0
   -5.1736    0.3004   -1.5784 S   0  0  0  0  0  6  0  0  0  0  0  0
   -5.3488    0.8333   -2.9103 O   0  0  0  0  0  0  0  0  0  0  0  0
   -6.2817   -0.1970   -0.7944 O   0  0  0  0  0  0  0  0  0  0  0  0
   -4.4553    1.5350   -0.6850 N   0  0  0  0  0  0  0  0  0  0  0  0
   -4.5116    1.4454    0.7809 C   0  0  0  0  0  0  0  0  0  0  0  0
   -3.4360    2.3402    1.3969 C   0  0  0  0  0  0  0  0  0  0  0  0
   -3.4832    2.2551    2.8154 O   0  0  0  0  0  0  0  0  0  0  0  0
   -5.7051   -3.7141   -2.7482 H   0  0  0  0  0  0  0  0  0  0  0  0
   -6.1821   -2.0381   -2.9504 H   0  0  0  0  0  0  0  0  0  0  0  0
   -6.2495   -2.8045   -1.3325 H   0  0  0  0  0  0  0  0  0  0  0  0
   -3.4855   -4.2976   -2.2456 H   0  0  0  0  0  0  0  0  0  0  0  0
   -1.1568   -3.6813   -1.8136 H   0  0  0  0  0  0  0  0  0  0  0  0
    3.7904    0.7010   -1.8523 H   0  0  0  0  0  0  0  0  0  0  0  0
    2.3871    1.6123    0.9675 H   0  0  0  0  0  0  0  0  0  0  0  0
    3.4261    3.1182    2.6380 H   0  0  0  0  0  0  0  0  0  0  0  0
    6.3001    0.7423   -0.6797 H   0  0  0  0  0  0  0  0  0  0  0  0
    8.0738    2.8967    3.0521 H   0  0  0  0  0  0  0  0  0  0  0  0
    7.8956    4.2651    1.9257 H   0  0  0  0  0  0  0  0  0  0  0  0
    3.7549   -1.4178    1.1689 H   0  0  0  0  0  0  0  0  0  0  0  0
    2.8094   -2.8925    2.8765 H   0  0  0  0  0  0  0  0  0  0  0  0
    0.4311   -3.5891    2.7461 H   0  0  0  0  0  0  0  0  0  0  0  0
   -0.9750   -2.8252    0.8990 H   0  0  0  0  0  0  0  0  0  0  0  0
   -2.3125    0.4189   -1.2491 H   0  0  0  0  0  0  0  0  0  0  0  0
   -4.6198    2.4440   -1.1184 H   0  0  0  0  0  0  0  0  0  0  0  0
   -5.4988    1.7632    1.1333 H   0  0  0  0  0  0  0  0  0  0  0  0
   -4.3538    0.4152    1.1191 H   0  0  0  0  0  0  0  0  0  0  0  0
   -2.4398    2.0321    1.0614 H   0  0  0  0  0  0  0  0  0  0  0  0
   -3.5899    3.3845    1.1038 H   0  0  0  0  0  0  0  0  0  0  0  0
   -2.7932    2.8481    3.1613 H   0  0  0  0  0  0  0  0  0  0  0  0
  1  2  1  0
  2  3  2  0
  3  4  1  0
  4  5  2  0
  5  6  1  0
  6  7  2  0
  7  8  1  0
  8  9  2  0
  9 10  1  0
 10 11  1  0
 11 12  2  0
 12 13  1  0
 13 14  2  0
 14 15  1  0
 15 16  2  0
 15 17  1  0
 17 18  1  0
 18 19  1  0
  9 20  1  0
 20 21  2  0
 21 22  1  0
 22 23  2  0
 23 24  1  0
 24 25  2  0
  5 26  1  0
 26 27  2  0
 27 28  1  0
 28 29  2  0
 28 30  2  0
 28 31  1  0
 31 32  1  0
 32 33  1  0
 33 34  1  0
 27  2  1  0
 25  6  1  0
 16 11  1  0
 25 20  1  0
 19 14  1  0
  1 35  1  0
  1 36  1  0
  1 37  1  0
  3 38  1  0
  4 39  1  0
 10 40  1  0
 12 41  1  0
 13 42  1  0
 16 43  1  0
 18 44  1  0
 18 45  1  0
 21 46  1  0
 22 47  1  0
 23 48  1  0
 24 49  1  0
 26 50  1  0
 31 51  1  0
 32 52  1  0
 32 53  1  0
 33 54  1  0
 33 55  1  0
 34 56  1  0
M  END
$$$$
