
     RDKit          3D

 48 50  0  0  0  0  0  0  0  0999 V2000
   -2.6037    2.7575    4.2046 C   0  0  0  0  0  0  0  0  0  0  0  0
   -3.1064    1.9094    3.1672 O   0  0  0  0  0  0  0  0  0  0  0  0
   -2.2291    0.9539    2.7535 C   0  0  0  0  0  0  0  0  0  0  0  0
   -1.1253    0.7710    3.2569 O   0  0  0  0  0  0  0  0  0  0  0  0
   -2.8297    0.0605    1.6546 C   0  0  0  0  0  0  0  0  0  0  0  0
   -3.8761    0.7779    0.7842 C   0  0  0  0  0  0  0  0  0  0  0  0
   -4.5063   -0.1130   -0.2619 C   0  0  0  0  0  0  0  0  0  0  0  0
   -5.4027   -1.1258    0.1108 C   0  0  0  0  0  0  0  0  0  0  0  0
   -5.9704   -1.9584   -0.8581 C   0  0  0  0  0  0  0  0  0  0  0  0
   -5.6522   -1.7825   -2.2065 C   0  0  0  0  0  0  0  0  0  0  0  0
   -4.7672   -0.7727   -2.5874 C   0  0  0  0  0  0  0  0  0  0  0  0
   -4.1956    0.0587   -1.6201 C   0  0  0  0  0  0  0  0  0  0  0  0
   -1.7413   -0.5705    0.9053 N   0  0  0  0  0  0  0  0  0  0  0  0
   -0.8999    0.1321    0.0694 C   0  0  0  0  0  0  0  0  0  0  0  0
   -1.0895    1.3005   -0.2538 O   0  0  0  0  0  0  0  0  0  0  0  0
    0.2752   -0.6240   -0.3663 C   0  0  0  0  0  0  0  0  0  0  0  0
    1.3509   -0.1580   -1.1645 C   0  0  0  0  0  0  0  0  0  0  0  0
    2.2181   -1.2207   -1.2367 C   0  0  0  0  0  0  0  0  0  0  0  0
    3.5511   -1.4475   -1.8512 C   0  0  0  0  0  0  0  0  0  0  0  0
    4.0988   -0.1601   -2.1505 O   0  0  0  0  0  0  0  0  0  0  0  0
    5.3126    0.0869   -1.5617 C   0  0  0  0  0  0  0  0  0  0  0  0
    5.4770    1.3114   -0.9063 C   0  0  0  0  0  0  0  0  0  0  0  0
    4.4601    2.1851   -0.8524 F   0  0  0  0  0  0  0  0  0  0  0  0
    6.6919    1.6529   -0.2988 C   0  0  0  0  0  0  0  0  0  0  0  0
    7.7664    0.7603   -0.3506 C   0  0  0  0  0  0  0  0  0  0  0  0
    7.6236   -0.4576   -1.0281 C   0  0  0  0  0  0  0  0  0  0  0  0
    6.4060   -0.7801   -1.6350 C   0  0  0  0  0  0  0  0  0  0  0  0
    6.3079   -1.9408   -2.3029 F   0  0  0  0  0  0  0  0  0  0  0  0
    1.6866   -2.2729   -0.5519 O   0  0  0  0  0  0  0  0  0  0  0  0
    0.4721   -1.9064   -0.0015 N   0  0  0  0  0  0  0  0  0  0  0  0
   -1.7397    3.3297    3.8430 H   0  0  0  0  0  0  0  0  0  0  0  0
   -2.3395    2.1636    5.0904 H   0  0  0  0  0  0  0  0  0  0  0  0
   -3.3977    3.4612    4.4838 H   0  0  0  0  0  0  0  0  0  0  0  0
   -3.3226   -0.7616    2.1879 H   0  0  0  0  0  0  0  0  0  0  0  0
   -4.6904    1.1592    1.4160 H   0  0  0  0  0  0  0  0  0  0  0  0
   -3.4483    1.6713    0.3107 H   0  0  0  0  0  0  0  0  0  0  0  0
   -5.6658   -1.2768    1.1574 H   0  0  0  0  0  0  0  0  0  0  0  0
   -6.6607   -2.7448   -0.5605 H   0  0  0  0  0  0  0  0  0  0  0  0
   -6.0928   -2.4335   -2.9600 H   0  0  0  0  0  0  0  0  0  0  0  0
   -4.5183   -0.6334   -3.6386 H   0  0  0  0  0  0  0  0  0  0  0  0
   -3.5007    0.8376   -1.9334 H   0  0  0  0  0  0  0  0  0  0  0  0
   -1.3747   -1.4521    1.2406 H   0  0  0  0  0  0  0  0  0  0  0  0
    1.4839    0.8275   -1.5915 H   0  0  0  0  0  0  0  0  0  0  0  0
    4.1669   -2.0397   -1.1643 H   0  0  0  0  0  0  0  0  0  0  0  0
    3.4427   -1.9981   -2.7967 H   0  0  0  0  0  0  0  0  0  0  0  0
    6.7855    2.6081    0.2117 H   0  0  0  0  0  0  0  0  0  0  0  0
    8.7132    1.0106    0.1306 H   0  0  0  0  0  0  0  0  0  0  0  0
    8.4563   -1.1557   -1.0908 H   0  0  0  0  0  0  0  0  0  0  0  0
  1  2  1  0
  2  3  1  0
  3  4  2  0
  3  5  1  0
  5  6  1  0
  6  7  1  0
  7  8  2  0
  8  9  1  0
  9 10  2  0
 10 11  1  0
 11 12  2  0
  5 13  1  0
 13 14  1  0
 14 15  2  0
 14 16  1  0
 16 17  1  0
 17 18  2  0
 18 19  1  0
 19 20  1  0
 20 21  1  0
 21 22  2  0
 22 23  1  0
 22 24  1  0
 24 25  2  0
 25 26  1  0
 26 27  2  0
 27 28  1  0
 18 29  1  0
 29 30  1  0
 12  7  1  0
 30 16  2  0
 27 21  1  0
  1 31  1  0
  1 32  1  0
  1 33  1  0
  5 34  1  0
  6 35  1  0
  6 36  1  0
  8 37  1  0
  9 38  1  0
 10 39  1  0
 11 40  1  0
 12 41  1  0
 13 42  1  0
 17 43  1  0
 19 44  1  0
 19 45  1  0
 24 46  1  0
 25 47  1  0
 26 48  1  0
M  END
$$$$
