
     RDKit          3D

 43 45  0  0  0  0  0  0  0  0999 V2000
   -2.6637   -1.0186    1.6884 C   0  0  0  0  0  0  0  0  0  0  0  0
   -2.4424   -1.0285    0.1610 C   0  0  0  0  0  0  0  0  0  0  0  0
   -2.1295   -2.4890   -0.2246 C   0  0  0  0  0  0  0  0  0  0  0  0
   -3.6081   -0.4083   -0.6593 C   0  0  0  0  0  0  0  0  0  0  0  0
   -3.0516   -0.3971   -2.1011 C   0  0  0  0  0  0  0  0  0  0  0  0
   -1.5561   -0.0717   -1.8982 C   0  0  0  0  0  0  0  0  0  0  0  0
   -1.4135    0.0267   -0.3592 C   0  0  0  0  0  0  0  0  0  0  0  0
   -0.0250   -0.0367    0.2516 C   0  0  0  0  0  0  0  0  0  0  0  0
    1.2503    0.7249   -0.7537 S   0  0  0  0  0  6  0  0  0  0  0  0
    1.6666   -0.2228   -1.7668 O   0  0  0  0  0  0  0  0  0  0  0  0
    0.8527    2.0660   -1.1138 O   0  0  0  0  0  0  0  0  0  0  0  0
    2.5287    0.8501    0.3607 N   0  0  0  0  0  0  0  0  0  0  0  0
    3.2049   -0.4285    0.7514 C   0  0  0  0  0  0  0  0  0  0  0  0
    4.5955   -0.5277    0.1177 C   0  0  0  0  0  0  0  0  0  0  0  0
    5.4791    0.5185    0.5460 O   0  0  0  0  0  0  0  0  0  0  0  0
    4.8016    1.7521    0.8296 C   0  0  0  0  0  0  0  0  0  0  0  0
    3.5116    1.9337    0.0245 C   0  0  0  0  0  0  0  0  0  0  0  0
   -2.1856    1.2983    0.0104 C   0  0  0  0  0  0  0  0  0  0  0  0
   -1.7038    2.3302    0.4480 O   0  0  0  0  0  0  0  0  0  0  0  0
   -3.6697    1.0608   -0.1828 C   0  0  0  0  0  0  0  0  0  0  0  0
   -2.8108   -0.0220    2.1130 H   0  0  0  0  0  0  0  0  0  0  0  0
   -3.5444   -1.6161    1.9498 H   0  0  0  0  0  0  0  0  0  0  0  0
   -1.8007   -1.4510    2.2078 H   0  0  0  0  0  0  0  0  0  0  0  0
   -1.8724   -2.6323   -1.2763 H   0  0  0  0  0  0  0  0  0  0  0  0
   -2.9937   -3.1299   -0.0151 H   0  0  0  0  0  0  0  0  0  0  0  0
   -1.2841   -2.8740    0.3567 H   0  0  0  0  0  0  0  0  0  0  0  0
   -4.5678   -0.9240   -0.5755 H   0  0  0  0  0  0  0  0  0  0  0  0
   -3.5454    0.3464   -2.7357 H   0  0  0  0  0  0  0  0  0  0  0  0
   -3.1746   -1.3716   -2.5854 H   0  0  0  0  0  0  0  0  0  0  0  0
   -1.3034    0.8667   -2.4043 H   0  0  0  0  0  0  0  0  0  0  0  0
   -0.9343   -0.8652   -2.3249 H   0  0  0  0  0  0  0  0  0  0  0  0
    0.2872   -1.0749    0.3973 H   0  0  0  0  0  0  0  0  0  0  0  0
   -0.0032    0.4675    1.2239 H   0  0  0  0  0  0  0  0  0  0  0  0
    2.6052   -1.2998    0.4731 H   0  0  0  0  0  0  0  0  0  0  0  0
    3.2855   -0.4289    1.8449 H   0  0  0  0  0  0  0  0  0  0  0  0
    4.5314   -0.4908   -0.9758 H   0  0  0  0  0  0  0  0  0  0  0  0
    5.0646   -1.4794    0.3862 H   0  0  0  0  0  0  0  0  0  0  0  0
    4.5911    1.7772    1.9052 H   0  0  0  0  0  0  0  0  0  0  0  0
    5.5006    2.5664    0.6138 H   0  0  0  0  0  0  0  0  0  0  0  0
    3.0647    2.9037    0.2653 H   0  0  0  0  0  0  0  0  0  0  0  0
    3.7443    1.8988   -1.0464 H   0  0  0  0  0  0  0  0  0  0  0  0
   -4.1961    1.1617    0.7690 H   0  0  0  0  0  0  0  0  0  0  0  0
   -4.0853    1.7391   -0.9313 H   0  0  0  0  0  0  0  0  0  0  0  0
  1  2  1  0
  2  3  1  0
  2  4  1  0
  4  5  1  0
  5  6  1  0
  6  7  1  0
  7  8  1  0
  8  9  1  0
  9 10  2  0
  9 11  2  0
  9 12  1  0
 12 13  1  0
 13 14  1  0
 14 15  1  0
 15 16  1  0
 16 17  1  0
  7 18  1  0
 18 19  2  0
 18 20  1  0
  7  2  1  0
 17 12  1  0
 20  4  1  0
  1 21  1  0
  1 22  1  0
  1 23  1  0
  3 24  1  0
  3 25  1  0
  3 26  1  0
  4 27  1  0
  5 28  1  0
  5 29  1  0
  6 30  1  0
  6 31  1  0
  8 32  1  0
  8 33  1  0
 13 34  1  0
 13 35  1  0
 14 36  1  0
 14 37  1  0
 16 38  1  0
 16 39  1  0
 17 40  1  0
 17 41  1  0
 20 42  1  0
 20 43  1  0
M  END
$$$$
