
     RDKit          3D

 44 47  0  0  0  0  0  0  0  0999 V2000
   -3.7992    5.3557   -0.5811 N   0  0  0  0  0  0  0  0  0  0  0  0
   -4.3396    4.1444   -0.8090 C   0  0  0  0  0  0  0  0  0  0  0  0
   -5.6249    3.9376   -1.0919 N   0  0  0  0  0  0  0  0  0  0  0  0
   -5.7578    2.5610   -1.2346 O   0  0  0  0  0  0  0  0  0  0  0  0
   -4.5372    1.9138   -1.0538 N   0  0  0  0  0  0  0  0  0  0  0  0
   -3.6790    2.9002   -0.7950 C   0  0  0  0  0  0  0  0  0  0  0  0
   -2.3034    2.6425   -0.5616 N   0  0  0  0  0  0  0  0  0  0  0  0
   -1.4226    3.6657   -0.3480 N   0  0  0  0  0  0  0  0  0  0  0  0
   -0.2178    3.1696   -0.1370 N   0  0  0  0  0  0  0  0  0  0  0  0
   -0.2932    1.8061   -0.2254 C   0  0  0  0  0  0  0  0  0  0  0  0
    0.8754    0.9481   -0.0318 C   0  0  0  0  0  0  0  0  0  0  0  0
    0.8197   -0.2698   -0.1681 O   0  0  0  0  0  0  0  0  0  0  0  0
    2.0164    1.6758    0.2931 N   0  0  0  0  0  0  0  0  0  0  0  0
    3.2967    1.1892    0.3590 N   0  0  0  0  0  0  0  0  0  0  0  0
    3.4778   -0.0080    0.8181 C   0  0  0  0  0  0  0  0  0  0  0  0
    4.8189   -0.6299    0.8643 C   0  0  0  0  0  0  0  0  0  0  0  0
    4.9423   -1.9927    0.5475 C   0  0  0  0  0  0  0  0  0  0  0  0
    3.5949   -2.9759    0.0861 Cl  0  0  0  0  0  0  0  0  0  0  0  0
    6.1962   -2.6153    0.5687 C   0  0  0  0  0  0  0  0  0  0  0  0
    7.3344   -1.8899    0.9097 C   0  0  0  0  0  0  0  0  0  0  0  0
    7.2191   -0.5412    1.2386 C   0  0  0  0  0  0  0  0  0  0  0  0
    5.9685    0.0918    1.2224 C   0  0  0  0  0  0  0  0  0  0  0  0
    5.9434    1.7438    1.7357 Cl  0  0  0  0  0  0  0  0  0  0  0  0
   -1.6007    1.4388   -0.5146 C   0  0  0  0  0  0  0  0  0  0  0  0
   -2.1885    0.0861   -0.7171 C   0  0  0  0  0  0  0  0  0  0  0  0
   -2.8166   -0.5550    0.8578 S   0  0  0  0  0  0  0  0  0  0  0  0
   -3.3396   -2.1237    0.3485 C   0  0  0  0  0  0  0  0  0  0  0  0
   -3.3718   -2.5100   -0.8826 N   0  0  0  0  0  0  0  0  0  0  0  0
   -3.9272   -3.8783   -0.9403 C   0  0  0  0  0  0  0  0  0  0  0  0
   -3.6955   -4.5909    0.3826 C   0  0  0  0  0  0  0  0  0  0  0  0
   -3.8320   -3.2526    1.5785 S   0  0  0  0  0  0  0  0  0  0  0  0
   -2.7908    5.4911   -0.5352 H   0  0  0  0  0  0  0  0  0  0  0  0
   -4.3339    6.1904   -0.7966 H   0  0  0  0  0  0  0  0  0  0  0  0
    1.9613    2.6852    0.1696 H   0  0  0  0  0  0  0  0  0  0  0  0
    2.6492   -0.6274    1.2000 H   0  0  0  0  0  0  0  0  0  0  0  0
    6.2913   -3.6690    0.3136 H   0  0  0  0  0  0  0  0  0  0  0  0
    8.3080   -2.3746    0.9244 H   0  0  0  0  0  0  0  0  0  0  0  0
    8.1113    0.0161    1.5187 H   0  0  0  0  0  0  0  0  0  0  0  0
   -2.9738    0.0959   -1.4769 H   0  0  0  0  0  0  0  0  0  0  0  0
   -1.4238   -0.5981   -1.0980 H   0  0  0  0  0  0  0  0  0  0  0  0
   -4.9975   -3.8178   -1.1744 H   0  0  0  0  0  0  0  0  0  0  0  0
   -3.4494   -4.4341   -1.7543 H   0  0  0  0  0  0  0  0  0  0  0  0
   -4.4238   -5.3859    0.5614 H   0  0  0  0  0  0  0  0  0  0  0  0
   -2.6851   -5.0090    0.4289 H   0  0  0  0  0  0  0  0  0  0  0  0
  1  2  1  0
  2  3  2  0
  3  4  1  0
  4  5  1  0
  5  6  2  0
  6  7  1  0
  7  8  1  0
  8  9  2  0
  9 10  1  0
 10 11  1  0
 11 12  2  0
 11 13  1  0
 13 14  1  0
 14 15  2  3
 15 16  1  0
 16 17  2  0
 17 18  1  0
 17 19  1  0
 19 20  2  0
 20 21  1  0
 21 22  2  0
 22 23  1  0
 10 24  2  0
 24 25  1  0
 25 26  1  0
 26 27  1  0
 27 28  2  0
 28 29  1  0
 29 30  1  0
 30 31  1  0
  6  2  1  0
 24  7  1  0
 31 27  1  0
 22 16  1  0
  1 32  1  0
  1 33  1  0
 13 34  1  0
 15 35  1  0
 19 36  1  0
 20 37  1  0
 21 38  1  0
 25 39  1  0
 25 40  1  0
 29 41  1  0
 29 42  1  0
 30 43  1  0
 30 44  1  0
M  END
$$$$
