
     RDKit          3D

 46 49  0  0  0  0  0  0  0  0999 V2000
   -4.1147   -3.6853   -0.0964 C   0  0  0  0  0  0  0  0  0  0  0  0
   -3.3853   -2.7154    0.6458 O   0  0  0  0  0  0  0  0  0  0  0  0
   -2.6786   -1.7910   -0.0724 C   0  0  0  0  0  0  0  0  0  0  0  0
   -2.5562   -1.7487   -1.4612 C   0  0  0  0  0  0  0  0  0  0  0  0
   -1.7929   -0.7481   -2.0685 C   0  0  0  0  0  0  0  0  0  0  0  0
   -1.1468    0.2129   -1.2917 C   0  0  0  0  0  0  0  0  0  0  0  0
   -1.2622    0.1786    0.1005 C   0  0  0  0  0  0  0  0  0  0  0  0
   -0.5539    1.1541    0.9185 C   0  0  0  0  0  0  0  0  0  0  0  0
    0.7832    1.2128    1.3034 C   0  0  0  0  0  0  0  0  0  0  0  0
    1.9024    0.3070    1.0275 C   0  0  0  0  0  0  0  0  0  0  0  0
    3.0684    0.6705    1.1785 O   0  0  0  0  0  0  0  0  0  0  0  0
    1.5508   -0.9849    0.6194 N   0  0  0  0  0  0  0  0  0  0  0  0
    2.4962   -1.9848    0.5653 N   0  0  0  0  0  0  0  0  0  0  0  0
    3.4684   -1.8866   -0.2997 C   0  0  0  0  0  0  0  0  0  0  0  0
    4.6033   -2.8789   -0.1793 C   0  0  0  0  0  0  0  0  0  0  0  0
    3.5719   -0.9257   -1.3846 C   0  0  0  0  0  0  0  0  0  0  0  0
    4.6208   -0.0732   -1.6799 C   0  0  0  0  0  0  0  0  0  0  0  0
    4.3660    0.7147   -2.8431 C   0  0  0  0  0  0  0  0  0  0  0  0
    3.1493    0.4033   -3.3910 C   0  0  0  0  0  0  0  0  0  0  0  0
    2.4407    1.1085   -4.7868 Cl  0  0  0  0  0  0  0  0  0  0  0  0
    2.3226   -0.8113   -2.5554 S   0  0  0  0  0  0  0  0  0  0  0  0
    0.9826    2.3544    2.0364 N   0  0  0  0  0  0  0  0  0  0  0  0
   -0.1646    2.9974    2.1417 N   0  0  0  0  0  0  0  0  0  0  0  0
   -1.1223    2.3177    1.4529 N   0  0  0  0  0  0  0  0  0  0  0  0
   -2.4441    2.8208    1.3419 C   0  0  0  0  0  0  0  0  0  0  0  0
   -3.3665    2.1951    0.6101 N   0  0  0  0  0  0  0  0  0  0  0  0
   -4.5003    2.9955    0.7340 O   0  0  0  0  0  0  0  0  0  0  0  0
   -4.2507    4.1039    1.5362 N   0  0  0  0  0  0  0  0  0  0  0  0
   -2.9792    3.9891    1.9175 C   0  0  0  0  0  0  0  0  0  0  0  0
   -2.3459    4.8636    2.7219 N   0  0  0  0  0  0  0  0  0  0  0  0
   -2.0294   -0.8260    0.7034 C   0  0  0  0  0  0  0  0  0  0  0  0
   -4.8658   -3.2108   -0.7366 H   0  0  0  0  0  0  0  0  0  0  0  0
   -3.4416   -4.3220   -0.6800 H   0  0  0  0  0  0  0  0  0  0  0  0
   -4.6422   -4.3251    0.6176 H   0  0  0  0  0  0  0  0  0  0  0  0
   -3.0408   -2.4785   -2.1017 H   0  0  0  0  0  0  0  0  0  0  0  0
   -1.7007   -0.7192   -3.1519 H   0  0  0  0  0  0  0  0  0  0  0  0
   -0.5556    0.9820   -1.7849 H   0  0  0  0  0  0  0  0  0  0  0  0
    0.6431   -1.3163    0.9300 H   0  0  0  0  0  0  0  0  0  0  0  0
    4.8968   -3.2444   -1.1679 H   0  0  0  0  0  0  0  0  0  0  0  0
    4.3014   -3.7311    0.4369 H   0  0  0  0  0  0  0  0  0  0  0  0
    5.4610   -2.3903    0.2922 H   0  0  0  0  0  0  0  0  0  0  0  0
    5.5135    0.0077   -1.0699 H   0  0  0  0  0  0  0  0  0  0  0  0
    5.0373    1.4646   -3.2421 H   0  0  0  0  0  0  0  0  0  0  0  0
   -2.7714    5.7667    2.9028 H   0  0  0  0  0  0  0  0  0  0  0  0
   -1.3324    4.8443    2.8301 H   0  0  0  0  0  0  0  0  0  0  0  0
   -2.1357   -0.8677    1.7856 H   0  0  0  0  0  0  0  0  0  0  0  0
  1  2  1  0
  2  3  1  0
  3  4  2  0
  4  5  1  0
  5  6  2  0
  6  7  1  0
  7  8  1  0
  8  9  2  0
  9 10  1  0
 10 11  2  0
 10 12  1  0
 12 13  1  0
 13 14  2  3
 14 15  1  0
 14 16  1  0
 16 17  2  0
 17 18  1  0
 18 19  2  0
 19 20  1  0
 19 21  1  0
  9 22  1  0
 22 23  2  0
 23 24  1  0
 24 25  1  0
 25 26  2  0
 26 27  1  0
 27 28  1  0
 28 29  2  0
 29 30  1  0
  7 31  2  0
 31  3  1  0
 24  8  1  0
 29 25  1  0
 21 16  1  0
  1 32  1  0
  1 33  1  0
  1 34  1  0
  4 35  1  0
  5 36  1  0
  6 37  1  0
 12 38  1  0
 15 39  1  0
 15 40  1  0
 15 41  1  0
 17 42  1  0
 18 43  1  0
 30 44  1  0
 30 45  1  0
 31 46  1  0
M  END
$$$$
