
     RDKit          3D

 68 71  0  0  0  0  0  0  0  0999 V2000
    9.0809   -1.5899    4.4152 C   0  0  0  0  0  0  0  0  0  0  0  0
    8.1902   -0.8647    3.4938 C   0  0  0  0  0  0  0  0  0  0  0  0
    6.8495   -0.9262    3.2063 C   0  0  0  0  0  0  0  0  0  0  0  0
    6.6525    0.0615    2.2170 C   0  0  0  0  0  0  0  0  0  0  0  0
    5.4978    0.4333    1.5660 N   0  0  0  0  0  0  0  0  0  0  0  0
    4.2541   -0.1201    1.7695 C   0  0  0  0  0  0  0  0  0  0  0  0
    3.9896   -1.0233    2.5566 O   0  0  0  0  0  0  0  0  0  0  0  0
    3.2041    0.5232    0.8860 C   0  0  0  0  0  0  0  0  0  0  0  0
    1.8229   -0.0845    1.1147 C   0  0  0  0  0  0  0  0  0  0  0  0
    0.7818    0.5388    0.2018 C   0  0  0  0  0  0  0  0  0  0  0  0
    1.0872    1.4850   -0.5290 O   0  0  0  0  0  0  0  0  0  0  0  0
   -0.5137    0.0329    0.2455 N   0  0  0  0  0  0  0  0  0  0  0  0
   -0.8478   -1.2540    0.8687 C   0  0  0  0  0  0  0  0  0  0  0  0
   -0.9803   -1.1255    2.3459 C   0  0  0  0  0  0  0  0  0  0  0  0
   -0.3273   -1.7195    3.4083 C   0  0  0  0  0  0  0  0  0  0  0  0
   -0.9187   -1.1992    4.5848 C   0  0  0  0  0  0  0  0  0  0  0  0
   -1.8988   -0.3308    4.1681 C   0  0  0  0  0  0  0  0  0  0  0  0
   -1.9461   -0.2836    2.8135 O   0  0  0  0  0  0  0  0  0  0  0  0
   -1.4696    0.5914   -0.7325 C   0  0  0  0  0  0  0  0  0  0  0  0
   -1.4450   -0.2359   -2.0534 C   0  0  0  0  0  0  0  0  0  0  0  0
   -1.0366   -1.3958   -2.1193 O   0  0  0  0  0  0  0  0  0  0  0  0
   -1.9596    0.4346   -3.1532 N   0  0  0  0  0  0  0  0  0  0  0  0
   -2.1277   -0.2258   -4.4292 C   0  0  0  0  0  0  0  0  0  0  0  0
   -3.3833   -1.1074   -4.4835 C   0  0  0  0  0  0  0  0  0  0  0  0
   -4.0220   -0.8559   -5.8502 C   0  0  0  0  0  0  0  0  0  0  0  0
   -2.9950   -0.0608   -6.6423 C   0  0  0  0  0  0  0  0  0  0  0  0
   -2.2947    0.7652   -5.5774 C   0  0  0  0  0  0  0  0  0  0  0  0
   -2.8781    0.8101   -0.1670 C   0  0  0  0  0  0  0  0  0  0  0  0
   -3.9144   -0.1083   -0.4341 C   0  0  0  0  0  0  0  0  0  0  0  0
   -5.2022    0.0865    0.0655 C   0  0  0  0  0  0  0  0  0  0  0  0
   -5.4816    1.1987    0.8487 C   0  0  0  0  0  0  0  0  0  0  0  0
   -4.4713    2.1126    1.1404 C   0  0  0  0  0  0  0  0  0  0  0  0
   -3.1673    1.9315    0.6481 C   0  0  0  0  0  0  0  0  0  0  0  0
   -2.1122    2.9394    1.0227 C   0  0  0  0  0  0  0  0  0  0  0  0
    7.8017    0.6811    1.9250 N   0  0  0  0  0  0  0  0  0  0  0  0
    8.7650    0.0987    2.7276 O   0  0  0  0  0  0  0  0  0  0  0  0
    8.5446   -2.3936    4.9288 H   0  0  0  0  0  0  0  0  0  0  0  0
    9.4830   -0.9100    5.1724 H   0  0  0  0  0  0  0  0  0  0  0  0
    9.9193   -2.0350    3.8703 H   0  0  0  0  0  0  0  0  0  0  0  0
    6.1229   -1.5901    3.6498 H   0  0  0  0  0  0  0  0  0  0  0  0
    5.6272    1.1765    0.8923 H   0  0  0  0  0  0  0  0  0  0  0  0
    3.1840    1.5988    1.0993 H   0  0  0  0  0  0  0  0  0  0  0  0
    3.5056    0.3899   -0.1601 H   0  0  0  0  0  0  0  0  0  0  0  0
    1.8754   -1.1618    0.9333 H   0  0  0  0  0  0  0  0  0  0  0  0
    1.5260    0.0923    2.1528 H   0  0  0  0  0  0  0  0  0  0  0  0
   -1.7834   -1.6493    0.4636 H   0  0  0  0  0  0  0  0  0  0  0  0
   -0.0726   -1.9841    0.6155 H   0  0  0  0  0  0  0  0  0  0  0  0
    0.4828   -2.4335    3.3406 H   0  0  0  0  0  0  0  0  0  0  0  0
   -0.6637   -1.4291    5.6096 H   0  0  0  0  0  0  0  0  0  0  0  0
   -2.6145    0.2966    4.6807 H   0  0  0  0  0  0  0  0  0  0  0  0
   -1.1134    1.5811   -1.0459 H   0  0  0  0  0  0  0  0  0  0  0  0
   -2.4825    1.2857   -2.9797 H   0  0  0  0  0  0  0  0  0  0  0  0
   -1.2458   -0.8531   -4.6143 H   0  0  0  0  0  0  0  0  0  0  0  0
   -4.0975   -0.8721   -3.6862 H   0  0  0  0  0  0  0  0  0  0  0  0
   -3.1097   -2.1627   -4.3698 H   0  0  0  0  0  0  0  0  0  0  0  0
   -4.9357   -0.2628   -5.7236 H   0  0  0  0  0  0  0  0  0  0  0  0
   -4.2990   -1.7868   -6.3541 H   0  0  0  0  0  0  0  0  0  0  0  0
   -2.2824   -0.7394   -7.1259 H   0  0  0  0  0  0  0  0  0  0  0  0
   -3.4565    0.5594   -7.4161 H   0  0  0  0  0  0  0  0  0  0  0  0
   -2.9244    1.6141   -5.2824 H   0  0  0  0  0  0  0  0  0  0  0  0
   -1.3356    1.1640   -5.9225 H   0  0  0  0  0  0  0  0  0  0  0  0
   -3.7315   -1.0014   -1.0294 H   0  0  0  0  0  0  0  0  0  0  0  0
   -5.9841   -0.6369   -0.1515 H   0  0  0  0  0  0  0  0  0  0  0  0
   -6.4826    1.3500    1.2438 H   0  0  0  0  0  0  0  0  0  0  0  0
   -4.7058    2.9689    1.7693 H   0  0  0  0  0  0  0  0  0  0  0  0
   -1.2877    2.4543    1.5525 H   0  0  0  0  0  0  0  0  0  0  0  0
   -1.7327    3.4461    0.1307 H   0  0  0  0  0  0  0  0  0  0  0  0
   -2.5137    3.7106    1.6884 H   0  0  0  0  0  0  0  0  0  0  0  0
  1  2  1  0
  2  3  2  0
  3  4  1  0
  4  5  1  0
  5  6  1  0
  6  7  2  0
  6  8  1  0
  8  9  1  0
  9 10  1  0
 10 11  2  0
 10 12  1  0
 12 13  1  0
 13 14  1  0
 14 15  2  0
 15 16  1  0
 16 17  2  0
 17 18  1  0
 12 19  1  0
 19 20  1  0
 20 21  2  0
 20 22  1  0
 22 23  1  0
 23 24  1  0
 24 25  1  0
 25 26  1  0
 26 27  1  0
 19 28  1  0
 28 29  2  0
 29 30  1  0
 30 31  2  0
 31 32  1  0
 32 33  2  0
 33 34  1  0
  4 35  2  0
 35 36  1  0
 36  2  1  0
 18 14  1  0
 27 23  1  0
 33 28  1  0
  1 37  1  0
  1 38  1  0
  1 39  1  0
  3 40  1  0
  5 41  1  0
  8 42  1  0
  8 43  1  0
  9 44  1  0
  9 45  1  0
 13 46  1  0
 13 47  1  0
 15 48  1  0
 16 49  1  0
 17 50  1  0
 19 51  1  0
 22 52  1  0
 23 53  1  0
 24 54  1  0
 24 55  1  0
 25 56  1  0
 25 57  1  0
 26 58  1  0
 26 59  1  0
 27 60  1  0
 27 61  1  0
 29 62  1  0
 30 63  1  0
 31 64  1  0
 32 65  1  0
 34 66  1  0
 34 67  1  0
 34 68  1  0
M  END
$$$$
