
     RDKit          3D

 41 43  0  0  0  0  0  0  0  0999 V2000
   -0.0444    2.5213   -0.9482 O   0  0  0  0  0  0  0  0  0  0  0  0
    0.3303    1.5062   -0.3659 C   0  0  0  0  0  0  0  0  0  0  0  0
    0.8371    1.5710    1.0659 C   0  0  0  0  0  0  0  0  0  0  0  0
    2.6212    1.9590    1.0796 S   0  0  0  0  0  0  0  0  0  0  0  0
    3.2801    0.5178    1.9202 C   0  0  0  0  0  0  0  0  0  0  0  0
    4.1472    0.7320    3.0057 C   0  0  0  0  0  0  0  0  0  0  0  0
    4.7155   -0.3446    3.6836 C   0  0  0  0  0  0  0  0  0  0  0  0
    4.4344   -1.6425    3.2807 C   0  0  0  0  0  0  0  0  0  0  0  0
    3.5870   -1.8495    2.1959 C   0  0  0  0  0  0  0  0  0  0  0  0
    3.0073   -0.7931    1.5031 N   0  0  0  0  0  4  0  0  0  0  0  0
    2.2398   -1.0544    0.5122 O   0  0  0  0  0  1  0  0  0  0  0  0
    0.3888    0.2290   -0.8928 N   0  0  0  0  0  0  0  0  0  0  0  0
   -0.1270   -0.1945   -2.1350 C   0  0  0  0  0  0  0  0  0  0  0  0
    0.5448   -1.2580   -2.7550 C   0  0  0  0  0  0  0  0  0  0  0  0
    0.1416   -1.7301   -4.0076 C   0  0  0  0  0  0  0  0  0  0  0  0
   -0.9493   -1.1533   -4.6523 C   0  0  0  0  0  0  0  0  0  0  0  0
   -1.6548   -0.1257   -4.0298 C   0  0  0  0  0  0  0  0  0  0  0  0
   -1.2692    0.3284   -2.7612 C   0  0  0  0  0  0  0  0  0  0  0  0
   -2.0890    1.2712   -2.1889 O   0  0  0  0  0  0  0  0  0  0  0  0
   -2.8868    0.8753   -1.1341 C   0  0  0  0  0  0  0  0  0  0  0  0
   -3.3017   -0.4364   -0.8891 C   0  0  0  0  0  0  0  0  0  0  0  0
   -4.1257   -0.7148    0.2045 C   0  0  0  0  0  0  0  0  0  0  0  0
   -4.5435    0.3145    1.0481 C   0  0  0  0  0  0  0  0  0  0  0  0
   -4.1413    1.6256    0.7989 C   0  0  0  0  0  0  0  0  0  0  0  0
   -3.3186    1.9044   -0.2929 C   0  0  0  0  0  0  0  0  0  0  0  0
    0.5938    0.6522    1.6079 H   0  0  0  0  0  0  0  0  0  0  0  0
    0.3040    2.3814    1.5748 H   0  0  0  0  0  0  0  0  0  0  0  0
    4.3831    1.7456    3.3254 H   0  0  0  0  0  0  0  0  0  0  0  0
    5.3828   -0.1656    4.5247 H   0  0  0  0  0  0  0  0  0  0  0  0
    4.8740   -2.4903    3.7996 H   0  0  0  0  0  0  0  0  0  0  0  0
    3.3146   -2.8185    1.8049 H   0  0  0  0  0  0  0  0  0  0  0  0
    1.0987   -0.3791   -0.4616 H   0  0  0  0  0  0  0  0  0  0  0  0
    1.4138   -1.7083   -2.2792 H   0  0  0  0  0  0  0  0  0  0  0  0
    0.6899   -2.5394   -4.4829 H   0  0  0  0  0  0  0  0  0  0  0  0
   -1.2578   -1.5096   -5.6315 H   0  0  0  0  0  0  0  0  0  0  0  0
   -2.5245    0.3097   -4.5148 H   0  0  0  0  0  0  0  0  0  0  0  0
   -2.9992   -1.2523   -1.5383 H   0  0  0  0  0  0  0  0  0  0  0  0
   -4.4448   -1.7363    0.3939 H   0  0  0  0  0  0  0  0  0  0  0  0
   -5.1868    0.0951    1.8961 H   0  0  0  0  0  0  0  0  0  0  0  0
   -4.4681    2.4315    1.4502 H   0  0  0  0  0  0  0  0  0  0  0  0
   -2.9974    2.9250   -0.4892 H   0  0  0  0  0  0  0  0  0  0  0  0
  1  2  2  0
  2  3  1  0
  3  4  1  0
  4  5  1  0
  5  6  2  0
  6  7  1  0
  7  8  2  0
  8  9  1  0
  9 10  2  0
 10 11  1  0
  2 12  1  0
 12 13  1  0
 13 14  2  0
 14 15  1  0
 15 16  2  0
 16 17  1  0
 17 18  2  0
 18 19  1  0
 19 20  1  0
 20 21  2  0
 21 22  1  0
 22 23  2  0
 23 24  1  0
 24 25  2  0
 10  5  1  0
 18 13  1  0
 25 20  1  0
  3 26  1  0
  3 27  1  0
  6 28  1  0
  7 29  1  0
  8 30  1  0
  9 31  1  0
 12 32  1  0
 14 33  1  0
 15 34  1  0
 16 35  1  0
 17 36  1  0
 21 37  1  0
 22 38  1  0
 23 39  1  0
 24 40  1  0
 25 41  1  0
M  CHG  2  10   1  11  -1
M  END
$$$$
