
     RDKit          3D

 53 54  0  0  0  0  0  0  0  0999 V2000
   -5.1799   -0.0514    1.6838 C   0  0  0  0  0  0  0  0  0  0  0  0
   -5.9501   -0.4960    0.4531 C   0  0  0  0  0  0  0  0  0  0  0  0
   -5.1195   -1.2573   -0.4966 N   0  0  0  0  0  0  0  0  0  0  0  0
   -4.7434   -2.6301   -0.1214 C   0  0  0  0  0  0  0  0  0  0  0  0
   -5.7073   -3.6144   -0.7618 C   0  0  0  0  0  0  0  0  0  0  0  0
   -4.3383   -0.4885   -1.7776 S   0  0  0  0  0  6  0  0  0  0  0  0
   -3.8484   -1.4962   -2.6945 O   0  0  0  0  0  0  0  0  0  0  0  0
   -5.1806    0.5954   -2.2380 O   0  0  0  0  0  0  0  0  0  0  0  0
   -2.9047    0.2462   -1.0132 C   0  0  0  0  0  0  0  0  0  0  0  0
   -1.7892   -0.5470   -0.7279 C   0  0  0  0  0  0  0  0  0  0  0  0
   -0.6545    0.0329   -0.1531 C   0  0  0  0  0  0  0  0  0  0  0  0
   -0.6254    1.4098    0.1172 C   0  0  0  0  0  0  0  0  0  0  0  0
    0.5567    2.0786    0.7257 C   0  0  0  0  0  0  0  0  0  0  0  0
    0.6675    3.2881    0.8340 O   0  0  0  0  0  0  0  0  0  0  0  0
    1.4608    1.1567    1.1377 O   0  0  0  0  0  0  0  0  0  0  0  0
    2.6136    1.6877    1.7988 C   0  0  0  0  0  0  0  0  0  0  0  0
    3.8060    1.9194    0.8700 C   0  0  0  0  0  0  0  0  0  0  0  0
    4.8661    2.4053    1.2672 O   0  0  0  0  0  0  0  0  0  0  0  0
    3.6288    1.4879   -0.4284 N   0  0  0  0  0  0  0  0  0  0  0  0
    4.7189    1.4867   -1.3857 C   0  0  0  0  0  0  0  0  0  0  0  0
    5.4689    0.1491   -1.4624 C   0  0  0  0  0  0  0  0  0  0  0  0
    5.7276   -0.4931   -0.1846 N   0  0  0  0  0  0  0  0  0  0  0  0
    6.6228   -0.0313    0.7461 C   0  0  0  0  0  0  0  0  0  0  0  0
    7.2296    1.1734    0.5704 O   0  0  0  0  0  0  0  0  0  0  0  0
    6.7643   -0.8045    1.8257 C   0  0  0  0  0  0  0  0  0  0  0  0
    5.7248   -2.1936    1.7426 S   0  0  0  0  0  0  0  0  0  0  0  0
    5.0803   -1.6657    0.1757 C   0  0  0  0  0  0  0  0  0  0  0  0
    4.1999   -2.2588   -0.4270 O   0  0  0  0  0  0  0  0  0  0  0  0
   -1.7381    2.2012   -0.2034 C   0  0  0  0  0  0  0  0  0  0  0  0
   -2.8756    1.6235   -0.7725 C   0  0  0  0  0  0  0  0  0  0  0  0
   -4.7435   -0.8976    2.2226 H   0  0  0  0  0  0  0  0  0  0  0  0
   -5.8498    0.4720    2.3731 H   0  0  0  0  0  0  0  0  0  0  0  0
   -4.3697    0.6340    1.4301 H   0  0  0  0  0  0  0  0  0  0  0  0
   -6.7964   -1.1228    0.7586 H   0  0  0  0  0  0  0  0  0  0  0  0
   -6.3921    0.3768   -0.0378 H   0  0  0  0  0  0  0  0  0  0  0  0
   -3.7212   -2.8584   -0.4350 H   0  0  0  0  0  0  0  0  0  0  0  0
   -4.7619   -2.7571    0.9654 H   0  0  0  0  0  0  0  0  0  0  0  0
   -5.6915   -3.5317   -1.8531 H   0  0  0  0  0  0  0  0  0  0  0  0
   -6.7349   -3.4318   -0.4294 H   0  0  0  0  0  0  0  0  0  0  0  0
   -5.4394   -4.6404   -0.4920 H   0  0  0  0  0  0  0  0  0  0  0  0
   -1.7892   -1.6098   -0.9591 H   0  0  0  0  0  0  0  0  0  0  0  0
    0.2004   -0.6020    0.0677 H   0  0  0  0  0  0  0  0  0  0  0  0
    2.3917    2.6179    2.3331 H   0  0  0  0  0  0  0  0  0  0  0  0
    2.9216    0.9449    2.5419 H   0  0  0  0  0  0  0  0  0  0  0  0
    2.7923    0.9568   -0.6397 H   0  0  0  0  0  0  0  0  0  0  0  0
    5.4164    2.2926   -1.1352 H   0  0  0  0  0  0  0  0  0  0  0  0
    4.2929    1.7242   -2.3655 H   0  0  0  0  0  0  0  0  0  0  0  0
    6.4234    0.2860   -1.9863 H   0  0  0  0  0  0  0  0  0  0  0  0
    4.8757   -0.5386   -2.0775 H   0  0  0  0  0  0  0  0  0  0  0  0
    6.5400    1.8346    0.8134 H   0  0  0  0  0  0  0  0  0  0  0  0
    7.4045   -0.5894    2.6693 H   0  0  0  0  0  0  0  0  0  0  0  0
   -1.7229    3.2738   -0.0132 H   0  0  0  0  0  0  0  0  0  0  0  0
   -3.7281    2.2518   -1.0225 H   0  0  0  0  0  0  0  0  0  0  0  0
  1  2  1  0
  2  3  1  0
  3  4  1  0
  4  5  1  0
  3  6  1  0
  6  7  2  0
  6  8  2  0
  6  9  1  0
  9 10  2  0
 10 11  1  0
 11 12  2  0
 12 13  1  0
 13 14  2  0
 13 15  1  0
 15 16  1  0
 16 17  1  0
 17 18  2  0
 17 19  1  0
 19 20  1  0
 20 21  1  0
 21 22  1  0
 22 23  1  0
 23 24  1  0
 23 25  2  0
 25 26  1  0
 26 27  1  0
 27 28  2  0
 12 29  1  0
 29 30  2  0
 30  9  1  0
 27 22  1  0
  1 31  1  0
  1 32  1  0
  1 33  1  0
  2 34  1  0
  2 35  1  0
  4 36  1  0
  4 37  1  0
  5 38  1  0
  5 39  1  0
  5 40  1  0
 10 41  1  0
 11 42  1  0
 16 43  1  0
 16 44  1  0
 19 45  1  0
 20 46  1  0
 20 47  1  0
 21 48  1  0
 21 49  1  0
 24 50  1  0
 25 51  1  0
 29 52  1  0
 30 53  1  0
M  END
$$$$
