
     RDKit          3D

 56 60  0  0  0  0  0  0  0  0999 V2000
   -5.9021   -1.7784   -0.3187 C   0  0  0  0  0  0  0  0  0  0  0  0
   -4.4406   -1.5847   -0.0162 C   0  0  0  0  0  0  0  0  0  0  0  0
   -3.6507   -2.7212    0.2219 C   0  0  0  0  0  0  0  0  0  0  0  0
   -2.2841   -2.6085    0.5060 C   0  0  0  0  0  0  0  0  0  0  0  0
   -1.6643   -1.3544    0.5942 C   0  0  0  0  0  0  0  0  0  0  0  0
   -0.2245   -1.2067    0.8628 C   0  0  0  0  0  0  0  0  0  0  0  0
    0.4250   -0.5165   -0.1059 N   0  0  0  0  0  0  0  0  0  0  0  0
    1.7603   -0.2613    0.0063 N   0  0  0  0  0  0  0  0  0  0  0  0
    2.4641   -0.7001    1.0733 C   0  0  0  0  0  0  0  0  0  0  0  0
    3.8477   -0.4086    1.1743 N   0  0  0  0  0  0  0  0  0  0  0  0
    4.5766    0.6358    0.5701 C   0  0  0  0  0  0  0  0  0  0  0  0
    5.9918    0.5539    0.5658 C   0  0  0  0  0  0  0  0  0  0  0  0
    6.7886    1.6118    0.1081 C   0  0  0  0  0  0  0  0  0  0  0  0
    6.1486    2.7516   -0.3197 C   0  0  0  0  0  0  0  0  0  0  0  0
    4.7792    2.8524   -0.3098 C   0  0  0  0  0  0  0  0  0  0  0  0
    3.9718    1.8226    0.1340 C   0  0  0  0  0  0  0  0  0  0  0  0
    4.3483    4.0668   -0.7540 O   0  0  0  0  0  0  0  0  0  0  0  0
    5.6074    4.7366   -0.9785 C   0  0  0  0  0  0  0  0  0  0  0  0
    6.7524    3.8882   -0.7490 O   0  0  0  0  0  0  0  0  0  0  0  0
    1.8371   -1.4443    2.1013 C   0  0  0  0  0  0  0  0  0  0  0  0
    2.5299   -1.9133    3.2471 C   0  0  0  0  0  0  0  0  0  0  0  0
    1.8837   -2.6055    4.2674 C   0  0  0  0  0  0  0  0  0  0  0  0
    0.5210   -2.8372    4.1809 C   0  0  0  0  0  0  0  0  0  0  0  0
   -0.1888   -2.3835    3.0706 C   0  0  0  0  0  0  0  0  0  0  0  0
    0.4479   -1.6942    2.0043 C   0  0  0  0  0  0  0  0  0  0  0  0
   -2.4537   -0.2165    0.3628 C   0  0  0  0  0  0  0  0  0  0  0  0
   -3.8200   -0.3234    0.0512 C   0  0  0  0  0  0  0  0  0  0  0  0
   -4.6989    1.1938   -0.2810 S   0  0  0  0  0  6  0  0  0  0  0  0
   -6.0350    1.0876    0.2637 O   0  0  0  0  0  0  0  0  0  0  0  0
   -3.8451    2.3129    0.0459 O   0  0  0  0  0  0  0  0  0  0  0  0
   -4.8457    1.1368   -1.9448 N   0  0  0  0  0  0  0  0  0  0  0  0
   -3.6904    1.4306   -2.7965 C   0  0  0  0  0  0  0  0  0  0  0  0
   -3.5863    0.3902   -3.9111 C   0  0  0  0  0  0  0  0  0  0  0  0
   -2.4641    0.6491   -4.7483 O   0  0  0  0  0  0  0  0  0  0  0  0
   -6.5147   -1.4346    0.5232 H   0  0  0  0  0  0  0  0  0  0  0  0
   -6.1394   -2.8370   -0.4813 H   0  0  0  0  0  0  0  0  0  0  0  0
   -6.1879   -1.2531   -1.2321 H   0  0  0  0  0  0  0  0  0  0  0  0
   -4.0947   -3.7173    0.1779 H   0  0  0  0  0  0  0  0  0  0  0  0
   -1.7016   -3.5190    0.6488 H   0  0  0  0  0  0  0  0  0  0  0  0
    4.3746   -1.2739    1.2279 H   0  0  0  0  0  0  0  0  0  0  0  0
    6.4874   -0.3355    0.9421 H   0  0  0  0  0  0  0  0  0  0  0  0
    7.8705    1.5461    0.1133 H   0  0  0  0  0  0  0  0  0  0  0  0
    2.8973    1.9650    0.1614 H   0  0  0  0  0  0  0  0  0  0  0  0
    5.6714    5.6001   -0.2982 H   0  0  0  0  0  0  0  0  0  0  0  0
    5.6377    5.1013   -2.0180 H   0  0  0  0  0  0  0  0  0  0  0  0
    3.5932   -1.7139    3.3683 H   0  0  0  0  0  0  0  0  0  0  0  0
    2.4433   -2.9404    5.1348 H   0  0  0  0  0  0  0  0  0  0  0  0
    0.0041   -3.3523    4.9825 H   0  0  0  0  0  0  0  0  0  0  0  0
   -1.2625   -2.5579    3.0574 H   0  0  0  0  0  0  0  0  0  0  0  0
   -1.9826    0.7669    0.4068 H   0  0  0  0  0  0  0  0  0  0  0  0
   -5.7889    1.2771   -2.3032 H   0  0  0  0  0  0  0  0  0  0  0  0
   -3.8045    2.4329   -3.2266 H   0  0  0  0  0  0  0  0  0  0  0  0
   -2.7521    1.4416   -2.2297 H   0  0  0  0  0  0  0  0  0  0  0  0
   -4.4869    0.4144   -4.5353 H   0  0  0  0  0  0  0  0  0  0  0  0
   -3.4920   -0.6220   -3.5036 H   0  0  0  0  0  0  0  0  0  0  0  0
   -1.6589    0.4495   -4.2341 H   0  0  0  0  0  0  0  0  0  0  0  0
  1  2  1  0
  2  3  2  0
  3  4  1  0
  4  5  2  0
  5  6  1  0
  6  7  2  0
  7  8  1  0
  8  9  2  0
  9 10  1  0
 10 11  1  0
 11 12  2  0
 12 13  1  0
 13 14  2  0
 14 15  1  0
 15 16  2  0
 15 17  1  0
 17 18  1  0
 18 19  1  0
  9 20  1  0
 20 21  2  0
 21 22  1  0
 22 23  2  0
 23 24  1  0
 24 25  2  0
  5 26  1  0
 26 27  2  0
 27 28  1  0
 28 29  2  0
 28 30  2  0
 28 31  1  0
 31 32  1  0
 32 33  1  0
 33 34  1  0
 27  2  1  0
 25  6  1  0
 16 11  1  0
 25 20  1  0
 19 14  1  0
  1 35  1  0
  1 36  1  0
  1 37  1  0
  3 38  1  0
  4 39  1  0
 10 40  1  0
 12 41  1  0
 13 42  1  0
 16 43  1  0
 18 44  1  0
 18 45  1  0
 21 46  1  0
 22 47  1  0
 23 48  1  0
 24 49  1  0
 26 50  1  0
 31 51  1  0
 32 52  1  0
 32 53  1  0
 33 54  1  0
 33 55  1  0
 34 56  1  0
M  END
$$$$
