
     RDKit          3D

 43 45  0  0  0  0  0  0  0  0999 V2000
    1.7297   -0.3045    2.5605 O   0  0  0  0  0  0  0  0  0  0  0  0
    2.0230   -0.3297    1.3688 C   0  0  0  0  0  0  0  0  0  0  0  0
    3.4742   -0.4491    0.9269 C   0  0  0  0  0  0  0  0  0  0  0  0
    3.9577    1.0142   -0.0490 S   0  0  0  0  0  0  0  0  0  0  0  0
    5.6229    0.5461   -0.4830 C   0  0  0  0  0  0  0  0  0  0  0  0
    6.6805    1.3686   -0.0845 C   0  0  0  0  0  0  0  0  0  0  0  0
    7.9981    1.0442   -0.4245 C   0  0  0  0  0  0  0  0  0  0  0  0
    8.2654   -0.1032   -1.1749 C   0  0  0  0  0  0  0  0  0  0  0  0
    7.2172   -0.9236   -1.5846 C   0  0  0  0  0  0  0  0  0  0  0  0
    5.9087   -0.5940   -1.2413 C   0  0  0  0  0  0  0  0  0  0  0  0
    4.9193   -1.3996   -1.6563 F   0  0  0  0  0  0  0  0  0  0  0  0
    1.1383   -0.3229    0.3028 N   0  0  0  0  0  0  0  0  0  0  0  0
   -0.2682   -0.2693    0.3447 C   0  0  0  0  0  0  0  0  0  0  0  0
   -0.9484   -0.3170   -0.8712 C   0  0  0  0  0  0  0  0  0  0  0  0
   -2.3492   -0.2779   -0.9095 C   0  0  0  0  0  0  0  0  0  0  0  0
   -3.1228   -0.1659    0.2563 C   0  0  0  0  0  0  0  0  0  0  0  0
   -4.5249   -0.1454    0.1768 N   0  0  0  0  0  0  0  0  0  0  0  0
   -5.0814    0.8693   -0.7551 C   0  0  0  0  0  0  0  0  0  0  0  0
   -6.5907    0.6423   -0.9501 C   0  0  0  0  0  0  0  0  0  0  0  0
   -7.2949    0.6507    0.3004 O   0  0  0  0  0  0  0  0  0  0  0  0
   -6.7915   -0.3954    1.1478 C   0  0  0  0  0  0  0  0  0  0  0  0
   -5.2941   -0.2090    1.4420 C   0  0  0  0  0  0  0  0  0  0  0  0
   -2.4171   -0.1304    1.4656 C   0  0  0  0  0  0  0  0  0  0  0  0
   -1.0141   -0.1787    1.5129 C   0  0  0  0  0  0  0  0  0  0  0  0
    3.5799   -1.3710    0.3462 H   0  0  0  0  0  0  0  0  0  0  0  0
    4.1097   -0.5233    1.8131 H   0  0  0  0  0  0  0  0  0  0  0  0
    6.4904    2.2677    0.4985 H   0  0  0  0  0  0  0  0  0  0  0  0
    8.8150    1.6863   -0.1067 H   0  0  0  0  0  0  0  0  0  0  0  0
    9.2891   -0.3543   -1.4397 H   0  0  0  0  0  0  0  0  0  0  0  0
    7.4095   -1.8169   -2.1712 H   0  0  0  0  0  0  0  0  0  0  0  0
    1.5585   -0.3232   -0.6197 H   0  0  0  0  0  0  0  0  0  0  0  0
   -0.4088   -0.4031   -1.8095 H   0  0  0  0  0  0  0  0  0  0  0  0
   -2.8305   -0.3683   -1.8794 H   0  0  0  0  0  0  0  0  0  0  0  0
   -4.6120    0.8294   -1.7422 H   0  0  0  0  0  0  0  0  0  0  0  0
   -4.9142    1.8693   -0.3354 H   0  0  0  0  0  0  0  0  0  0  0  0
   -7.0091    1.4405   -1.5724 H   0  0  0  0  0  0  0  0  0  0  0  0
   -6.7810   -0.3109   -1.4591 H   0  0  0  0  0  0  0  0  0  0  0  0
   -6.9838   -1.3656    0.6718 H   0  0  0  0  0  0  0  0  0  0  0  0
   -7.3587   -0.3656    2.0840 H   0  0  0  0  0  0  0  0  0  0  0  0
   -5.1536    0.7257    2.0030 H   0  0  0  0  0  0  0  0  0  0  0  0
   -4.9630   -1.0540    2.0593 H   0  0  0  0  0  0  0  0  0  0  0  0
   -2.9335   -0.0482    2.4169 H   0  0  0  0  0  0  0  0  0  0  0  0
   -0.5420   -0.1346    2.4879 H   0  0  0  0  0  0  0  0  0  0  0  0
  1  2  2  0
  2  3  1  0
  3  4  1  0
  4  5  1  0
  5  6  2  0
  6  7  1  0
  7  8  2  0
  8  9  1  0
  9 10  2  0
 10 11  1  0
  2 12  1  0
 12 13  1  0
 13 14  2  0
 14 15  1  0
 15 16  2  0
 16 17  1  0
 17 18  1  0
 18 19  1  0
 19 20  1  0
 20 21  1  0
 21 22  1  0
 16 23  1  0
 23 24  2  0
 10  5  1  0
 24 13  1  0
 22 17  1  0
  3 25  1  0
  3 26  1  0
  6 27  1  0
  7 28  1  0
  8 29  1  0
  9 30  1  0
 12 31  1  0
 14 32  1  0
 15 33  1  0
 18 34  1  0
 18 35  1  0
 19 36  1  0
 19 37  1  0
 21 38  1  0
 21 39  1  0
 22 40  1  0
 22 41  1  0
 23 42  1  0
 24 43  1  0
M  END
$$$$
