
     RDKit          3D

 37 38  0  0  0  0  0  0  0  0999 V2000
    1.6821    3.3605   -1.3766 O   0  0  0  0  0  0  0  0  0  0  0  0
    1.0995    2.4252   -0.8330 C   0  0  0  0  0  0  0  0  0  0  0  0
   -0.0543    2.6573    0.1472 C   0  0  0  0  0  0  0  0  0  0  0  0
   -1.2150    1.8500   -0.0619 O   0  0  0  0  0  0  0  0  0  0  0  0
   -1.3219    0.7416    0.7091 C   0  0  0  0  0  0  0  0  0  0  0  0
   -0.4712    0.3060    1.4669 O   0  0  0  0  0  0  0  0  0  0  0  0
   -2.6460    0.1144    0.4743 C   0  0  0  0  0  0  0  0  0  0  0  0
   -3.7818    0.9266    0.3057 C   0  0  0  0  0  0  0  0  0  0  0  0
   -5.0403    0.3466    0.1227 C   0  0  0  0  0  0  0  0  0  0  0  0
   -5.1619   -1.0409    0.1074 C   0  0  0  0  0  0  0  0  0  0  0  0
   -6.7125   -1.7540   -0.1028 Cl  0  0  0  0  0  0  0  0  0  0  0  0
   -4.0420   -1.8616    0.2668 C   0  0  0  0  0  0  0  0  0  0  0  0
   -2.7872   -1.2826    0.4556 C   0  0  0  0  0  0  0  0  0  0  0  0
   -1.6927   -2.0906    0.6042 O   0  0  0  0  0  0  0  0  0  0  0  0
    1.4737    1.1132   -1.0006 N   0  0  0  0  0  0  0  0  0  0  0  0
    2.6864    0.7435   -1.7150 C   0  0  0  0  0  0  0  0  0  0  0  0
    3.1472   -0.6951   -1.4222 C   0  0  0  0  0  0  0  0  0  0  0  0
    3.3946   -0.9269   -0.0052 N   0  0  0  0  0  0  0  0  0  0  0  0
    2.4082   -1.2655    0.8858 C   0  0  0  0  0  0  0  0  0  0  0  0
    1.1576   -1.4920    0.4027 O   0  0  0  0  0  0  0  0  0  0  0  0
    2.7885   -1.2830    2.1664 C   0  0  0  0  0  0  0  0  0  0  0  0
    4.4725   -0.8750    2.3243 S   0  0  0  0  0  0  0  0  0  0  0  0
    4.6193   -0.6339    0.5704 C   0  0  0  0  0  0  0  0  0  0  0  0
    5.6419   -0.2609    0.0180 O   0  0  0  0  0  0  0  0  0  0  0  0
    0.3308    2.5708    1.1716 H   0  0  0  0  0  0  0  0  0  0  0  0
   -0.3798    3.6963    0.0201 H   0  0  0  0  0  0  0  0  0  0  0  0
   -3.6961    2.0152    0.3295 H   0  0  0  0  0  0  0  0  0  0  0  0
   -5.9145    0.9846    0.0041 H   0  0  0  0  0  0  0  0  0  0  0  0
   -4.1619   -2.9445    0.2572 H   0  0  0  0  0  0  0  0  0  0  0  0
   -1.9288   -3.0063    0.3611 H   0  0  0  0  0  0  0  0  0  0  0  0
    1.0066    0.3910   -0.4600 H   0  0  0  0  0  0  0  0  0  0  0  0
    3.4744    1.4569   -1.4505 H   0  0  0  0  0  0  0  0  0  0  0  0
    2.4794    0.8569   -2.7864 H   0  0  0  0  0  0  0  0  0  0  0  0
    2.4057   -1.4179   -1.7889 H   0  0  0  0  0  0  0  0  0  0  0  0
    4.0764   -0.8834   -1.9710 H   0  0  0  0  0  0  0  0  0  0  0  0
    0.5054   -1.3390    1.1229 H   0  0  0  0  0  0  0  0  0  0  0  0
    2.1575   -1.5034    3.0150 H   0  0  0  0  0  0  0  0  0  0  0  0
  1  2  2  0
  2  3  1  0
  3  4  1  0
  4  5  1  0
  5  6  2  0
  5  7  1  0
  7  8  2  0
  8  9  1  0
  9 10  2  0
 10 11  1  0
 10 12  1  0
 12 13  2  0
 13 14  1  0
  2 15  1  0
 15 16  1  0
 16 17  1  0
 17 18  1  0
 18 19  1  0
 19 20  1  0
 19 21  2  0
 21 22  1  0
 22 23  1  0
 23 24  2  0
 13  7  1  0
 23 18  1  0
  3 25  1  0
  3 26  1  0
  8 27  1  0
  9 28  1  0
 12 29  1  0
 14 30  1  0
 15 31  1  0
 16 32  1  0
 16 33  1  0
 17 34  1  0
 17 35  1  0
 20 36  1  0
 21 37  1  0
M  END
$$$$
