
     RDKit          3D

 57 62  0  0  0  0  0  0  0  0999 V2000
    5.5681   -0.0824   -0.9541 C   0  0  0  0  0  0  0  0  0  0  0  0
    5.2618   -0.6653   -2.2148 O   0  0  0  0  0  0  0  0  0  0  0  0
    3.9728   -1.0869   -2.4043 C   0  0  0  0  0  0  0  0  0  0  0  0
    3.7119   -1.5900   -3.6953 C   0  0  0  0  0  0  0  0  0  0  0  0
    2.4449   -2.0594   -4.0524 C   0  0  0  0  0  0  0  0  0  0  0  0
    1.4615   -2.0119   -3.0897 C   0  0  0  0  0  0  0  0  0  0  0  0
    1.6941   -1.5181   -1.8038 C   0  0  0  0  0  0  0  0  0  0  0  0
    2.9554   -1.0539   -1.4454 C   0  0  0  0  0  0  0  0  0  0  0  0
    0.4156   -1.6221   -1.0099 C   0  0  0  0  0  0  0  0  0  0  0  0
    0.5383   -2.4591    0.2305 N   0  0  0  0  0  0  0  0  0  0  0  0
    0.5471   -1.5632    1.4391 C   0  0  2  0  0  0  0  0  0  0  0  0
   -0.3331   -2.0860    2.5901 C   0  0  0  0  0  0  0  0  0  0  0  0
   -1.8349   -1.9912    2.4201 C   0  0  0  0  0  0  0  0  0  0  0  0
   -2.5059   -2.7576    1.4602 C   0  0  0  0  0  0  0  0  0  0  0  0
   -3.8897   -2.6539    1.3071 C   0  0  0  0  0  0  0  0  0  0  0  0
   -4.6217   -1.7932    2.1214 C   0  0  0  0  0  0  0  0  0  0  0  0
   -3.9692   -1.0324    3.0884 C   0  0  0  0  0  0  0  0  0  0  0  0
   -2.5843   -1.1305    3.2368 C   0  0  0  0  0  0  0  0  0  0  0  0
    0.1699   -0.2466    0.8843 C   0  0  0  0  0  0  0  0  0  0  0  0
    0.0719   -0.2876   -0.5044 C   0  0  0  0  0  0  0  0  0  0  0  0
   -0.2848    0.9523   -0.9610 C   0  0  0  0  0  0  0  0  0  0  0  0
   -0.3851    1.3651   -2.2238 O   0  0  0  0  0  0  0  0  0  0  0  0
   -0.4601    1.7689    0.1723 N   0  0  0  0  0  0  0  0  0  0  0  0
   -0.8775    3.1316    0.1608 C   0  0  0  0  0  0  0  0  0  0  0  0
   -1.8844    3.5465   -0.7211 C   0  0  0  0  0  0  0  0  0  0  0  0
   -2.2955    4.8803   -0.7297 C   0  0  0  0  0  0  0  0  0  0  0  0
   -1.7045    5.8002    0.1355 C   0  0  0  0  0  0  0  0  0  0  0  0
   -0.7028    5.3899    1.0146 C   0  0  0  0  0  0  0  0  0  0  0  0
   -0.2884    4.0570    1.0324 C   0  0  0  0  0  0  0  0  0  0  0  0
   -0.1423    1.0128    1.3167 C   0  0  0  0  0  0  0  0  0  0  0  0
   -0.2340    1.4546    2.5705 O   0  0  0  0  0  0  0  0  0  0  0  0
   -0.5769   -2.2307   -2.0391 C   0  0  0  0  0  0  0  0  0  0  0  0
   -1.7553   -2.5253   -1.9022 O   0  0  0  0  0  0  0  0  0  0  0  0
    0.1454   -2.4292   -3.2210 N   0  0  0  0  0  0  0  0  0  0  0  0
    6.6174    0.2271   -0.9752 H   0  0  0  0  0  0  0  0  0  0  0  0
    4.9610    0.8108   -0.7729 H   0  0  0  0  0  0  0  0  0  0  0  0
    5.4522   -0.8111   -0.1450 H   0  0  0  0  0  0  0  0  0  0  0  0
    4.5154   -1.6095   -4.4288 H   0  0  0  0  0  0  0  0  0  0  0  0
    2.2549   -2.4427   -5.0479 H   0  0  0  0  0  0  0  0  0  0  0  0
    3.1139   -0.6728   -0.4438 H   0  0  0  0  0  0  0  0  0  0  0  0
    1.4033   -2.9886    0.1869 H   0  0  0  0  0  0  0  0  0  0  0  0
    1.5849   -1.5096    1.7937 H   0  0  0  0  0  0  0  0  0  0  0  0
   -0.0530   -1.5361    3.4994 H   0  0  0  0  0  0  0  0  0  0  0  0
   -0.0776   -3.1330    2.8023 H   0  0  0  0  0  0  0  0  0  0  0  0
   -1.9556   -3.4311    0.8069 H   0  0  0  0  0  0  0  0  0  0  0  0
   -4.3893   -3.2411    0.5409 H   0  0  0  0  0  0  0  0  0  0  0  0
   -5.6977   -1.7134    1.9974 H   0  0  0  0  0  0  0  0  0  0  0  0
   -4.5370   -0.3592    3.7242 H   0  0  0  0  0  0  0  0  0  0  0  0
   -2.0892   -0.5223    3.9901 H   0  0  0  0  0  0  0  0  0  0  0  0
   -0.3306    2.3365   -2.2491 H   0  0  0  0  0  0  0  0  0  0  0  0
   -2.3944    2.8380   -1.3725 H   0  0  0  0  0  0  0  0  0  0  0  0
   -3.0868    5.2002   -1.4039 H   0  0  0  0  0  0  0  0  0  0  0  0
   -2.0269    6.8388    0.1259 H   0  0  0  0  0  0  0  0  0  0  0  0
   -0.2379    6.1126    1.6813 H   0  0  0  0  0  0  0  0  0  0  0  0
    0.5234    3.7719    1.6989 H   0  0  0  0  0  0  0  0  0  0  0  0
   -0.9014    2.1646    2.5935 H   0  0  0  0  0  0  0  0  0  0  0  0
   -0.2773   -2.8123   -4.0519 H   0  0  0  0  0  0  0  0  0  0  0  0
  1  2  1  0
  2  3  1  0
  3  4  2  0
  4  5  1  0
  5  6  2  0
  6  7  1  0
  7  8  2  0
  7  9  1  0
  9 10  1  0
 10 11  1  0
 11 12  1  0
 12 13  1  0
 13 14  2  0
 14 15  1  0
 15 16  2  0
 16 17  1  0
 17 18  2  0
 11 19  1  0
 19 20  1  0
 20 21  2  0
 21 22  1  0
 21 23  1  0
 23 24  1  0
 24 25  2  0
 25 26  1  0
 26 27  2  0
 27 28  1  0
 28 29  2  0
 23 30  1  0
 30 31  1  0
  9 32  1  0
 32 33  2  0
 32 34  1  0
  8  3  1  0
 20  9  1  0
 29 24  1  0
 34  6  1  0
 18 13  1  0
 30 19  2  0
  1 35  1  0
  1 36  1  0
  1 37  1  0
  4 38  1  0
  5 39  1  0
  8 40  1  0
 10 41  1  0
 11 42  1  1
 12 43  1  0
 12 44  1  0
 14 45  1  0
 15 46  1  0
 16 47  1  0
 17 48  1  0
 18 49  1  0
 22 50  1  0
 25 51  1  0
 26 52  1  0
 27 53  1  0
 28 54  1  0
 29 55  1  0
 31 56  1  0
 34 57  1  0
M  END
$$$$
