
     RDKit          3D

 33 35  0  0  0  0  0  0  0  0999 V2000
    5.4766   -1.4327    0.0598 C   0  0  0  0  0  0  0  0  0  0  0  0
    4.6913   -0.3863    0.6180 O   0  0  0  0  0  0  0  0  0  0  0  0
    3.3846   -0.3147    0.2203 C   0  0  0  0  0  0  0  0  0  0  0  0
    2.7555   -1.1676   -0.6861 C   0  0  0  0  0  0  0  0  0  0  0  0
    1.4051   -0.9839   -0.9998 C   0  0  0  0  0  0  0  0  0  0  0  0
    0.6760    0.0553   -0.4107 C   0  0  0  0  0  0  0  0  0  0  0  0
    1.3030    0.9316    0.4891 C   0  0  0  0  0  0  0  0  0  0  0  0
    2.6548    0.7264    0.8048 C   0  0  0  0  0  0  0  0  0  0  0  0
    0.5417    2.0526    1.1488 C   0  0  0  0  0  0  0  0  0  0  0  0
   -0.6858    2.4644    0.3375 C   0  0  0  0  0  0  0  0  0  0  0  0
   -1.5138    1.2532    0.0112 C   0  0  0  0  0  0  0  0  0  0  0  0
   -2.8063    1.1458    0.3653 C   0  0  0  0  0  0  0  0  0  0  0  0
   -3.5933   -0.0254    0.1994 C   0  0  0  0  0  0  0  0  0  0  0  0
   -4.9552   -0.1234   -0.0640 C   0  0  0  0  0  0  0  0  0  0  0  0
   -5.2933   -1.4967   -0.1094 C   0  0  0  0  0  0  0  0  0  0  0  0
   -4.1304   -2.1751    0.1481 C   0  0  0  0  0  0  0  0  0  0  0  0
   -3.1124   -1.3065    0.3546 O   0  0  0  0  0  0  0  0  0  0  0  0
   -0.7625    0.2136   -0.7609 C   0  0  0  0  0  0  0  0  0  0  0  0
   -1.2587   -0.4176   -1.6854 O   0  0  0  0  0  0  0  0  0  0  0  0
    5.5583   -1.3280   -1.0271 H   0  0  0  0  0  0  0  0  0  0  0  0
    5.0781   -2.4150    0.3345 H   0  0  0  0  0  0  0  0  0  0  0  0
    6.4845   -1.3536    0.4784 H   0  0  0  0  0  0  0  0  0  0  0  0
    3.2810   -1.9873   -1.1646 H   0  0  0  0  0  0  0  0  0  0  0  0
    0.9198   -1.6591   -1.7027 H   0  0  0  0  0  0  0  0  0  0  0  0
    3.1552    1.3837    1.5137 H   0  0  0  0  0  0  0  0  0  0  0  0
    1.1927    2.9270    1.2677 H   0  0  0  0  0  0  0  0  0  0  0  0
    0.2385    1.7241    2.1510 H   0  0  0  0  0  0  0  0  0  0  0  0
   -1.2599    3.2082    0.9024 H   0  0  0  0  0  0  0  0  0  0  0  0
   -0.3764    2.9488   -0.5980 H   0  0  0  0  0  0  0  0  0  0  0  0
   -3.2948    1.9826    0.8561 H   0  0  0  0  0  0  0  0  0  0  0  0
   -5.6226    0.7123   -0.2218 H   0  0  0  0  0  0  0  0  0  0  0  0
   -6.2605   -1.9352   -0.3077 H   0  0  0  0  0  0  0  0  0  0  0  0
   -3.8707   -3.2217    0.2182 H   0  0  0  0  0  0  0  0  0  0  0  0
  1  2  1  0
  2  3  1  0
  3  4  2  0
  4  5  1  0
  5  6  2  0
  6  7  1  0
  7  8  2  0
  7  9  1  0
  9 10  1  0
 10 11  1  0
 11 12  2  3
 12 13  1  0
 13 14  2  0
 14 15  1  0
 15 16  2  0
 16 17  1  0
 11 18  1  0
 18 19  2  0
  8  3  1  0
 17 13  1  0
 18  6  1  0
  1 20  1  0
  1 21  1  0
  1 22  1  0
  4 23  1  0
  5 24  1  0
  8 25  1  0
  9 26  1  0
  9 27  1  0
 10 28  1  0
 10 29  1  0
 12 30  1  0
 14 31  1  0
 15 32  1  0
 16 33  1  0
M  END
$$$$
