
     RDKit          3D

 29 29  0  0  0  0  0  0  0  0999 V2000
   -3.6106   -4.1771   -0.3422 C   0  0  0  0  0  0  0  0  0  0  0  0
   -3.7836   -3.0223   -0.0597 C   0  0  0  0  0  0  0  0  0  0  0  0
   -3.9999   -1.6127    0.2907 C   0  0  0  0  0  0  0  0  0  0  0  0
   -3.6657   -0.7141   -0.8138 N   0  0  0  0  0  0  0  0  0  0  0  0
   -2.2360   -0.6425   -1.1220 C   0  0  0  0  0  0  0  0  0  0  0  0
   -1.4264    0.1412   -0.0896 C   0  0  0  0  0  0  0  0  0  0  0  0
    0.0376    0.2547   -0.5102 C   0  0  0  0  0  0  0  0  0  0  0  0
    0.7207    1.0017    0.4956 O   0  0  0  0  0  0  0  0  0  0  0  0
    2.0614    1.2291    0.3313 C   0  0  0  0  0  0  0  0  0  0  0  0
    2.8151    0.7787   -0.7580 C   0  0  0  0  0  0  0  0  0  0  0  0
    4.1831    1.0623   -0.8366 C   0  0  0  0  0  0  0  0  0  0  0  0
    4.8032    1.7963    0.1718 C   0  0  0  0  0  0  0  0  0  0  0  0
    6.4853    2.1395    0.0657 Cl  0  0  0  0  0  0  0  0  0  0  0  0
    4.0712    2.2525    1.2623 C   0  0  0  0  0  0  0  0  0  0  0  0
    2.7055    1.9687    1.3396 C   0  0  0  0  0  0  0  0  0  0  0  0
    1.8367    2.5579    2.7155 Cl  0  0  0  0  0  0  0  0  0  0  0  0
   -3.4608   -5.1999   -0.5998 H   0  0  0  0  0  0  0  0  0  0  0  0
   -3.4557   -1.3492    1.2032 H   0  0  0  0  0  0  0  0  0  0  0  0
   -5.0632   -1.4769    0.5213 H   0  0  0  0  0  0  0  0  0  0  0  0
   -4.0083    0.2183   -0.5870 H   0  0  0  0  0  0  0  0  0  0  0  0
   -2.1440   -0.1373   -2.0912 H   0  0  0  0  0  0  0  0  0  0  0  0
   -1.8102   -1.6419   -1.2678 H   0  0  0  0  0  0  0  0  0  0  0  0
   -1.8438    1.1477    0.0420 H   0  0  0  0  0  0  0  0  0  0  0  0
   -1.4732   -0.3365    0.8960 H   0  0  0  0  0  0  0  0  0  0  0  0
    0.4722   -0.7486   -0.5937 H   0  0  0  0  0  0  0  0  0  0  0  0
    0.1029    0.7752   -1.4730 H   0  0  0  0  0  0  0  0  0  0  0  0
    2.3717    0.2040   -1.5648 H   0  0  0  0  0  0  0  0  0  0  0  0
    4.7578    0.7063   -1.6886 H   0  0  0  0  0  0  0  0  0  0  0  0
    4.5570    2.8248    2.0476 H   0  0  0  0  0  0  0  0  0  0  0  0
  1  2  3  0
  2  3  1  0
  3  4  1  0
  4  5  1  0
  5  6  1  0
  6  7  1  0
  7  8  1  0
  8  9  1  0
  9 10  2  0
 10 11  1  0
 11 12  2  0
 12 13  1  0
 12 14  1  0
 14 15  2  0
 15 16  1  0
 15  9  1  0
  1 17  1  0
  3 18  1  0
  3 19  1  0
  4 20  1  0
  5 21  1  0
  5 22  1  0
  6 23  1  0
  6 24  1  0
  7 25  1  0
  7 26  1  0
 10 27  1  0
 11 28  1  0
 14 29  1  0
M  END
$$$$
