
     RDKit          3D

 42 44  0  0  0  0  0  0  0  0999 V2000
   -4.3145   -1.0375    2.1548 C   0  0  0  0  0  0  0  0  0  0  0  0
   -4.2860   -0.8536    0.6367 C   0  0  0  0  0  0  0  0  0  0  0  0
   -4.6152   -2.1574   -0.0915 C   0  0  0  0  0  0  0  0  0  0  0  0
   -3.0111   -0.2911    0.1847 N   0  0  0  0  0  0  0  0  0  0  0  0
   -1.7923   -0.9084    0.3398 C   0  0  0  0  0  0  0  0  0  0  0  0
   -0.8202   -0.0866   -0.1834 C   0  0  0  0  0  0  0  0  0  0  0  0
    0.5656   -0.4323   -0.1623 C   0  0  0  0  0  0  0  0  0  0  0  0
    1.5774    0.4379   -0.0068 C   0  0  0  0  0  0  0  0  0  0  0  0
    2.9941    0.0592    0.0220 C   0  0  0  0  0  0  0  0  0  0  0  0
    3.9303    0.8921   -0.5882 C   0  0  0  0  0  0  0  0  0  0  0  0
    5.2801    0.5609   -0.5478 C   0  0  0  0  0  0  0  0  0  0  0  0
    5.6952   -0.5588    0.0851 N   0  0  0  0  0  4  0  0  0  0  0  0
    7.1311   -0.8836    0.1244 C   0  0  0  0  0  0  0  0  0  0  0  0
    4.8092   -1.3687    0.7060 C   0  0  0  0  0  0  0  0  0  0  0  0
    3.4497   -1.0772    0.6887 C   0  0  0  0  0  0  0  0  0  0  0  0
   -1.4723    1.0646   -0.7213 C   0  0  0  0  0  0  0  0  0  0  0  0
   -1.0387    2.2150   -1.4198 C   0  0  0  0  0  0  0  0  0  0  0  0
   -1.9626    3.1866   -1.8164 C   0  0  0  0  0  0  0  0  0  0  0  0
   -3.3129    3.0278   -1.5351 C   0  0  0  0  0  0  0  0  0  0  0  0
   -3.7762    1.8950   -0.8613 C   0  0  0  0  0  0  0  0  0  0  0  0
   -2.8439    0.9186   -0.4661 C   0  0  0  0  0  0  0  0  0  0  0  0
   -4.0813   -0.0971    2.6663 H   0  0  0  0  0  0  0  0  0  0  0  0
   -5.3065   -1.3639    2.4848 H   0  0  0  0  0  0  0  0  0  0  0  0
   -3.5883   -1.7869    2.4876 H   0  0  0  0  0  0  0  0  0  0  0  0
   -5.0676   -0.1308    0.3824 H   0  0  0  0  0  0  0  0  0  0  0  0
   -3.8985   -2.9499    0.1495 H   0  0  0  0  0  0  0  0  0  0  0  0
   -5.6130   -2.5129    0.1866 H   0  0  0  0  0  0  0  0  0  0  0  0
   -4.5992   -2.0127   -1.1774 H   0  0  0  0  0  0  0  0  0  0  0  0
   -1.7199   -1.8733    0.8245 H   0  0  0  0  0  0  0  0  0  0  0  0
    0.7805   -1.4944   -0.2592 H   0  0  0  0  0  0  0  0  0  0  0  0
    1.3657    1.4989    0.1106 H   0  0  0  0  0  0  0  0  0  0  0  0
    3.6158    1.7976   -1.1046 H   0  0  0  0  0  0  0  0  0  0  0  0
    6.0347    1.1868   -1.0159 H   0  0  0  0  0  0  0  0  0  0  0  0
    7.5502   -0.4064    1.0136 H   0  0  0  0  0  0  0  0  0  0  0  0
    7.2518   -1.9690    0.1708 H   0  0  0  0  0  0  0  0  0  0  0  0
    7.6089   -0.5055   -0.7831 H   0  0  0  0  0  0  0  0  0  0  0  0
    5.1975   -2.2438    1.2196 H   0  0  0  0  0  0  0  0  0  0  0  0
    2.7570   -1.7355    1.2098 H   0  0  0  0  0  0  0  0  0  0  0  0
    0.0089    2.3501   -1.6660 H   0  0  0  0  0  0  0  0  0  0  0  0
   -1.6232    4.0690   -2.3528 H   0  0  0  0  0  0  0  0  0  0  0  0
   -4.0227    3.7898   -1.8500 H   0  0  0  0  0  0  0  0  0  0  0  0
   -4.8376    1.7872   -0.6625 H   0  0  0  0  0  0  0  0  0  0  0  0
  1  2  1  0
  2  3  1  0
  2  4  1  0
  4  5  1  0
  5  6  2  0
  6  7  1  0
  7  8  2  3
  8  9  1  0
  9 10  2  0
 10 11  1  0
 11 12  2  0
 12 13  1  0
 12 14  1  0
 14 15  2  0
  6 16  1  0
 16 17  2  0
 17 18  1  0
 18 19  2  0
 19 20  1  0
 20 21  2  0
 21  4  1  0
 15  9  1  0
 21 16  1  0
  1 22  1  0
  1 23  1  0
  1 24  1  0
  2 25  1  0
  3 26  1  0
  3 27  1  0
  3 28  1  0
  5 29  1  0
  7 30  1  0
  8 31  1  0
 10 32  1  0
 11 33  1  0
 13 34  1  0
 13 35  1  0
 13 36  1  0
 14 37  1  0
 15 38  1  0
 17 39  1  0
 18 40  1  0
 19 41  1  0
 20 42  1  0
M  CHG  1  12   1
M  END
$$$$
