
     RDKit          3D

 41 42  0  0  0  0  0  0  0  0999 V2000
    2.3902    3.7527    1.2803 C   0  0  0  0  0  0  0  0  0  0  0  0
    2.4695    2.4973    2.1277 C   0  0  0  0  0  0  0  0  0  0  0  0
    1.9852    1.3709    1.3839 O   0  0  0  0  0  0  0  0  0  0  0  0
    0.6516    1.1255    1.4340 C   0  0  0  0  0  0  0  0  0  0  0  0
   -0.1540    1.8372    2.0378 O   0  0  0  0  0  0  0  0  0  0  0  0
    0.2056   -0.1134    0.6277 C   0  0  0  0  0  0  0  0  0  0  0  0
   -1.0896    0.3296    0.0365 N   0  0  0  0  0  0  0  0  0  0  0  0
   -1.8832   -0.5271   -0.6851 C   0  0  0  0  0  0  0  0  0  0  0  0
   -1.4627   -1.5975   -1.1061 O   0  0  0  0  0  0  0  0  0  0  0  0
   -3.2859   -0.1039   -0.9390 C   0  0  0  0  0  0  0  0  0  0  0  0
   -3.6666    1.2455   -0.9517 C   0  0  0  0  0  0  0  0  0  0  0  0
   -4.9970    1.5936   -1.1978 C   0  0  0  0  0  0  0  0  0  0  0  0
   -5.9458    0.5993   -1.4381 C   0  0  0  0  0  0  0  0  0  0  0  0
   -5.5617   -0.7409   -1.4393 C   0  0  0  0  0  0  0  0  0  0  0  0
   -6.7344   -1.9621   -1.7451 Cl  0  0  0  0  0  0  0  0  0  0  0  0
   -4.2377   -1.0985   -1.1952 C   0  0  0  0  0  0  0  0  0  0  0  0
    1.0439   -0.4027   -0.5561 N   0  0  0  0  0  0  0  0  0  0  0  0
    2.2076   -1.0814   -0.3974 C   0  0  0  0  0  0  0  0  0  0  0  0
    2.9169   -1.1801    0.7040 N   0  0  0  0  0  0  0  0  0  0  0  0
    4.0429   -1.9609    0.5531 N   0  0  0  0  0  0  0  0  0  0  0  0
    4.1523   -2.4343   -0.6685 C   0  0  0  0  0  0  0  0  0  0  0  0
    5.2506   -3.3090   -1.1474 C   0  0  0  0  0  0  0  0  0  0  0  0
    2.8851   -1.9553   -1.7203 S   0  0  0  0  0  0  0  0  0  0  0  0
    0.0385   -1.2379    1.6987 C   0  0  0  0  0  0  0  0  0  0  0  0
   -1.1390   -1.0857    2.3688 F   0  0  0  0  0  0  0  0  0  0  0  0
    1.0084   -1.2384    2.6407 F   0  0  0  0  0  0  0  0  0  0  0  0
    0.0060   -2.4776    1.1524 F   0  0  0  0  0  0  0  0  0  0  0  0
    2.8084    4.6096    1.8160 H   0  0  0  0  0  0  0  0  0  0  0  0
    2.9401    3.6190    0.3430 H   0  0  0  0  0  0  0  0  0  0  0  0
    1.3538    3.9802    1.0114 H   0  0  0  0  0  0  0  0  0  0  0  0
    3.5137    2.2887    2.3820 H   0  0  0  0  0  0  0  0  0  0  0  0
    1.9245    2.6147    3.0713 H   0  0  0  0  0  0  0  0  0  0  0  0
   -1.5553    1.0493    0.5827 H   0  0  0  0  0  0  0  0  0  0  0  0
   -2.9417    2.0407   -0.7986 H   0  0  0  0  0  0  0  0  0  0  0  0
   -5.2939    2.6402   -1.2104 H   0  0  0  0  0  0  0  0  0  0  0  0
   -6.9799    0.8749   -1.6306 H   0  0  0  0  0  0  0  0  0  0  0  0
   -3.9462   -2.1468   -1.2006 H   0  0  0  0  0  0  0  0  0  0  0  0
    0.4604   -0.8034   -1.2910 H   0  0  0  0  0  0  0  0  0  0  0  0
    5.7964   -2.8350   -1.9693 H   0  0  0  0  0  0  0  0  0  0  0  0
    5.9632   -3.5062   -0.3401 H   0  0  0  0  0  0  0  0  0  0  0  0
    4.8599   -4.2711   -1.4936 H   0  0  0  0  0  0  0  0  0  0  0  0
  1  2  1  0
  2  3  1  0
  3  4  1  0
  4  5  2  0
  4  6  1  0
  6  7  1  0
  7  8  1  0
  8  9  2  0
  8 10  1  0
 10 11  2  0
 11 12  1  0
 12 13  2  0
 13 14  1  0
 14 15  1  0
 14 16  2  0
  6 17  1  0
 17 18  1  0
 18 19  2  0
 19 20  1  0
 20 21  2  0
 21 22  1  0
 21 23  1  0
  6 24  1  0
 24 25  1  0
 24 26  1  0
 24 27  1  0
 16 10  1  0
 23 18  1  0
  1 28  1  0
  1 29  1  0
  1 30  1  0
  2 31  1  0
  2 32  1  0
  7 33  1  0
 11 34  1  0
 12 35  1  0
 13 36  1  0
 16 37  1  0
 17 38  1  0
 22 39  1  0
 22 40  1  0
 22 41  1  0
M  END
$$$$
