
     RDKit          3D

 40 44  0  0  0  0  0  0  0  0999 V2000
   -8.2653   -0.5351    2.6501 O   0  0  0  0  0  0  0  0  0  0  0  0
   -7.9314   -0.2312    1.5208 C   0  0  0  0  0  0  0  0  0  0  0  0
   -8.7413    0.4454    0.6914 O   0  0  0  0  0  0  0  0  0  0  0  0
   -6.5930   -0.4300    0.9423 C   0  0  0  0  0  0  0  0  0  0  0  0
   -5.5004   -0.0550    1.7328 C   0  0  0  0  0  0  0  0  0  0  0  0
   -4.1978   -0.2076    1.2483 C   0  0  0  0  0  0  0  0  0  0  0  0
   -3.9599   -0.7456   -0.0255 C   0  0  0  0  0  0  0  0  0  0  0  0
   -2.6009   -0.9063   -0.5385 C   0  0  0  0  0  0  0  0  0  0  0  0
   -2.0586   -1.3937   -1.7054 C   0  0  0  0  0  0  0  0  0  0  0  0
   -0.6524   -1.2754   -1.5746 C   0  0  0  0  0  0  0  0  0  0  0  0
   -0.3785   -0.7027   -0.3387 C   0  0  0  0  0  0  0  0  0  0  0  0
    0.8352   -0.3692    0.3243 C   0  0  0  0  0  0  0  0  0  0  0  0
    2.0007   -0.0369   -0.2463 C   0  0  0  0  0  0  0  0  0  0  0  0
    2.4026    0.1212   -1.9371 S   0  0  0  0  0  0  0  0  0  0  0  0
    4.0034    0.5899   -1.5188 C   0  0  0  0  0  0  0  0  0  0  0  0
    5.0481    0.9119   -2.2283 N   0  0  0  0  0  0  0  0  0  0  0  0
    6.0099    1.1824   -1.2737 C   0  0  0  0  0  0  0  0  0  0  0  0
    7.3434    1.5825   -1.4448 C   0  0  0  0  0  0  0  0  0  0  0  0
    8.1342    1.7987   -0.3088 C   0  0  0  0  0  0  0  0  0  0  0  0
    7.6115    1.6210    0.9746 C   0  0  0  0  0  0  0  0  0  0  0  0
    6.2849    1.2224    1.1722 C   0  0  0  0  0  0  0  0  0  0  0  0
    5.5132    1.0122    0.0252 C   0  0  0  0  0  0  0  0  0  0  0  0
    4.2137    0.6283   -0.1814 N   0  0  0  0  0  0  0  0  0  0  0  0
    3.1583    0.2975    0.6380 C   0  0  0  0  0  0  0  0  0  0  0  0
    3.2378    0.2992    1.8524 O   0  0  0  0  0  0  0  0  0  0  0  0
   -1.5923   -0.5031    0.2846 O   0  0  0  0  0  0  0  0  0  0  0  0
   -5.0650   -1.1372   -0.7978 C   0  0  0  0  0  0  0  0  0  0  0  0
   -6.3750   -0.9882   -0.3194 C   0  0  0  0  0  0  0  0  0  0  0  0
   -7.6535   -1.5779   -1.3222 Cl  0  0  0  0  0  0  0  0  0  0  0  0
   -9.5797    0.5440    1.1891 H   0  0  0  0  0  0  0  0  0  0  0  0
   -5.6587    0.3614    2.7262 H   0  0  0  0  0  0  0  0  0  0  0  0
   -3.3665    0.0989    1.8817 H   0  0  0  0  0  0  0  0  0  0  0  0
   -2.5982   -1.7967   -2.5505 H   0  0  0  0  0  0  0  0  0  0  0  0
    0.0741   -1.5927   -2.3094 H   0  0  0  0  0  0  0  0  0  0  0  0
    0.7664   -0.3563    1.4118 H   0  0  0  0  0  0  0  0  0  0  0  0
    7.7475    1.7201   -2.4421 H   0  0  0  0  0  0  0  0  0  0  0  0
    9.1697    2.1094   -0.4303 H   0  0  0  0  0  0  0  0  0  0  0  0
    8.2488    1.7962    1.8398 H   0  0  0  0  0  0  0  0  0  0  0  0
    5.8793    1.0846    2.1705 H   0  0  0  0  0  0  0  0  0  0  0  0
   -4.9142   -1.5739   -1.7825 H   0  0  0  0  0  0  0  0  0  0  0  0
  1  2  2  0
  2  3  1  0
  2  4  1  0
  4  5  2  0
  5  6  1  0
  6  7  2  0
  7  8  1  0
  8  9  2  0
  9 10  1  0
 10 11  2  0
 11 12  1  0
 12 13  2  3
 13 14  1  0
 14 15  1  0
 15 16  2  0
 16 17  1  0
 17 18  2  0
 18 19  1  0
 19 20  2  0
 20 21  1  0
 21 22  2  0
 22 23  1  0
 23 24  1  0
 24 25  2  0
 11 26  1  0
  7 27  1  0
 27 28  2  0
 28 29  1  0
 28  4  1  0
 26  8  1  0
 24 13  1  0
 23 15  1  0
 22 17  1  0
  3 30  1  0
  5 31  1  0
  6 32  1  0
  9 33  1  0
 10 34  1  0
 12 35  1  0
 18 36  1  0
 19 37  1  0
 20 38  1  0
 21 39  1  0
 27 40  1  0
M  END
$$$$
