
     RDKit          3D

 42 44  0  0  0  0  0  0  0  0999 V2000
   -8.2526   -1.1580    1.2420 C   0  0  0  0  0  0  0  0  0  0  0  0
   -7.6281   -0.2501    0.2149 C   0  0  0  0  0  0  0  0  0  0  0  0
   -8.3235    0.4397   -0.5278 O   0  0  0  0  0  0  0  0  0  0  0  0
   -6.1393   -0.1962    0.1077 C   0  0  0  0  0  0  0  0  0  0  0  0
   -5.3014   -0.9533    0.9314 C   0  0  0  0  0  0  0  0  0  0  0  0
   -3.9103   -0.8658    0.7896 C   0  0  0  0  0  0  0  0  0  0  0  0
   -3.3354   -0.0270   -0.1739 C   0  0  0  0  0  0  0  0  0  0  0  0
   -1.9270    0.0033   -0.2442 N   0  0  0  0  0  0  0  0  0  0  0  0
   -1.1481    0.6920   -1.1572 C   0  0  0  0  0  0  0  0  0  0  0  0
   -1.5430    1.3459   -2.1147 O   0  0  0  0  0  0  0  0  0  0  0  0
    0.3234    0.5669   -0.9509 C   0  0  0  0  0  0  0  0  0  0  0  0
    1.1580    0.5677   -2.0723 C   0  0  0  0  0  0  0  0  0  0  0  0
    2.5434    0.4512   -1.9190 C   0  0  0  0  0  0  0  0  0  0  0  0
    3.1166    0.3389   -0.6452 C   0  0  0  0  0  0  0  0  0  0  0  0
    4.5214    0.2239   -0.5834 N   0  0  0  0  0  0  0  0  0  0  0  0
    5.3142    0.0448    0.5444 C   0  0  0  0  0  0  0  0  0  0  0  0
    4.8699   -0.0744    1.6827 O   0  0  0  0  0  0  0  0  0  0  0  0
    6.7447   -0.0052    0.2621 C   0  0  0  0  0  0  0  0  0  0  0  0
    7.5058    0.1702   -0.8839 C   0  0  0  0  0  0  0  0  0  0  0  0
    8.8630   -0.0046   -0.5128 C   0  0  0  0  0  0  0  0  0  0  0  0
    8.8578   -0.2740    0.8330 C   0  0  0  0  0  0  0  0  0  0  0  0
    7.5894   -0.2758    1.3099 O   0  0  0  0  0  0  0  0  0  0  0  0
    2.2790    0.3617    0.4725 C   0  0  0  0  0  0  0  0  0  0  0  0
    0.8904    0.4803    0.3244 C   0  0  0  0  0  0  0  0  0  0  0  0
   -4.1752    0.7298   -0.9907 C   0  0  0  0  0  0  0  0  0  0  0  0
   -5.5665    0.6454   -0.8522 C   0  0  0  0  0  0  0  0  0  0  0  0
   -7.9789   -2.1978    1.0455 H   0  0  0  0  0  0  0  0  0  0  0  0
   -7.9497   -0.8569    2.2481 H   0  0  0  0  0  0  0  0  0  0  0  0
   -9.3423   -1.0771    1.1778 H   0  0  0  0  0  0  0  0  0  0  0  0
   -5.6994   -1.6189    1.6914 H   0  0  0  0  0  0  0  0  0  0  0  0
   -3.2848   -1.4672    1.4451 H   0  0  0  0  0  0  0  0  0  0  0  0
   -1.4428   -0.5997    0.4077 H   0  0  0  0  0  0  0  0  0  0  0  0
    0.7311    0.6579   -3.0698 H   0  0  0  0  0  0  0  0  0  0  0  0
    3.1613    0.4507   -2.8136 H   0  0  0  0  0  0  0  0  0  0  0  0
    4.9986    0.2510   -1.4721 H   0  0  0  0  0  0  0  0  0  0  0  0
    7.1446    0.4036   -1.8748 H   0  0  0  0  0  0  0  0  0  0  0  0
    9.7368    0.0610   -1.1462 H   0  0  0  0  0  0  0  0  0  0  0  0
    9.6306   -0.4756    1.5621 H   0  0  0  0  0  0  0  0  0  0  0  0
    2.6722    0.3061    1.4833 H   0  0  0  0  0  0  0  0  0  0  0  0
    0.2778    0.5356    1.2204 H   0  0  0  0  0  0  0  0  0  0  0  0
   -3.7834    1.4030   -1.7474 H   0  0  0  0  0  0  0  0  0  0  0  0
   -6.1986    1.2470   -1.5040 H   0  0  0  0  0  0  0  0  0  0  0  0
  1  2  1  0
  2  3  2  0
  2  4  1  0
  4  5  2  0
  5  6  1  0
  6  7  2  0
  7  8  1  0
  8  9  1  0
  9 10  2  0
  9 11  1  0
 11 12  2  0
 12 13  1  0
 13 14  2  0
 14 15  1  0
 15 16  1  0
 16 17  2  0
 16 18  1  0
 18 19  2  0
 19 20  1  0
 20 21  2  0
 21 22  1  0
 14 23  1  0
 23 24  2  0
  7 25  1  0
 25 26  2  0
 26  4  1  0
 24 11  1  0
 22 18  1  0
  1 27  1  0
  1 28  1  0
  1 29  1  0
  5 30  1  0
  6 31  1  0
  8 32  1  0
 12 33  1  0
 13 34  1  0
 15 35  1  0
 19 36  1  0
 20 37  1  0
 21 38  1  0
 23 39  1  0
 24 40  1  0
 25 41  1  0
 26 42  1  0
M  END
$$$$
