
     RDKit          3D

 40 42  0  0  0  0  0  0  0  0999 V2000
    2.5549    5.2552    0.0327 C   0  0  0  0  0  0  0  0  0  0  0  0
    2.0997    3.8104    0.1429 C   0  0  0  0  0  0  0  0  0  0  0  0
    0.3875    3.6553   -0.4616 S   0  0  0  0  0  0  0  0  0  0  0  0
    0.1046    1.9072   -0.2129 C   0  0  0  0  0  0  0  0  0  0  0  0
   -1.1343    1.3918   -0.5239 C   0  0  0  0  0  0  0  0  0  0  0  0
   -1.3258    0.0383   -0.3293 C   0  0  0  0  0  0  0  0  0  0  0  0
   -2.5811   -0.5377   -0.6149 N   0  0  0  0  0  0  0  0  0  0  0  0
   -2.6971   -1.9411   -0.1543 C   0  0  0  0  0  0  0  0  0  0  0  0
   -4.1180   -2.4591   -0.4240 C   0  0  0  0  0  0  0  0  0  0  0  0
   -4.4573   -2.3556   -1.8169 O   0  0  0  0  0  0  0  0  0  0  0  0
   -4.3863   -0.9855   -2.2407 C   0  0  0  0  0  0  0  0  0  0  0  0
   -2.9794   -0.3987   -2.0347 C   0  0  0  0  0  0  0  0  0  0  0  0
   -0.3413   -0.7246    0.1724 N   0  0  0  0  0  0  0  0  0  0  0  0
    0.8418   -0.1440    0.4481 C   0  0  0  0  0  0  0  0  0  0  0  0
    1.9206   -0.9994    0.9857 C   0  0  0  0  0  0  0  0  0  0  0  0
    1.7311   -2.3800    1.1936 C   0  0  0  0  0  0  0  0  0  0  0  0
    2.7507   -3.1919    1.7018 C   0  0  0  0  0  0  0  0  0  0  0  0
    3.9888   -2.6405    2.0158 C   0  0  0  0  0  0  0  0  0  0  0  0
    4.2077   -1.2803    1.8219 C   0  0  0  0  0  0  0  0  0  0  0  0
    3.1854   -0.4719    1.3133 C   0  0  0  0  0  0  0  0  0  0  0  0
    1.1071    1.1584    0.2652 N   0  0  0  0  0  0  0  0  0  0  0  0
    3.5838    5.3495    0.3958 H   0  0  0  0  0  0  0  0  0  0  0  0
    1.9292    5.9215    0.6362 H   0  0  0  0  0  0  0  0  0  0  0  0
    2.5374    5.6047   -1.0052 H   0  0  0  0  0  0  0  0  0  0  0  0
    2.1518    3.4902    1.1885 H   0  0  0  0  0  0  0  0  0  0  0  0
    2.7604    3.1735   -0.4541 H   0  0  0  0  0  0  0  0  0  0  0  0
   -1.9321    2.0288   -0.8810 H   0  0  0  0  0  0  0  0  0  0  0  0
   -1.9819   -2.5745   -0.6959 H   0  0  0  0  0  0  0  0  0  0  0  0
   -2.4969   -2.0146    0.9214 H   0  0  0  0  0  0  0  0  0  0  0  0
   -4.1883   -3.5149   -0.1438 H   0  0  0  0  0  0  0  0  0  0  0  0
   -4.8590   -1.9057    0.1652 H   0  0  0  0  0  0  0  0  0  0  0  0
   -5.1379   -0.4046   -1.6927 H   0  0  0  0  0  0  0  0  0  0  0  0
   -4.6492   -0.9535   -3.3028 H   0  0  0  0  0  0  0  0  0  0  0  0
   -2.9974    0.6498   -2.3509 H   0  0  0  0  0  0  0  0  0  0  0  0
   -2.2647   -0.9401   -2.6684 H   0  0  0  0  0  0  0  0  0  0  0  0
    0.7723   -2.8384    0.9562 H   0  0  0  0  0  0  0  0  0  0  0  0
    2.5734   -4.2538    1.8508 H   0  0  0  0  0  0  0  0  0  0  0  0
    4.7819   -3.2698    2.4107 H   0  0  0  0  0  0  0  0  0  0  0  0
    5.1728   -0.8436    2.0653 H   0  0  0  0  0  0  0  0  0  0  0  0
    3.3852    0.5891    1.1722 H   0  0  0  0  0  0  0  0  0  0  0  0
  1  2  1  0
  2  3  1  0
  3  4  1  0
  4  5  2  0
  5  6  1  0
  6  7  1  0
  7  8  1  0
  8  9  1  0
  9 10  1  0
 10 11  1  0
 11 12  1  0
  6 13  2  0
 13 14  1  0
 14 15  1  0
 15 16  2  0
 16 17  1  0
 17 18  2  0
 18 19  1  0
 19 20  2  0
 14 21  2  0
 21  4  1  0
 12  7  1  0
 20 15  1  0
  1 22  1  0
  1 23  1  0
  1 24  1  0
  2 25  1  0
  2 26  1  0
  5 27  1  0
  8 28  1  0
  8 29  1  0
  9 30  1  0
  9 31  1  0
 11 32  1  0
 11 33  1  0
 12 34  1  0
 12 35  1  0
 16 36  1  0
 17 37  1  0
 18 38  1  0
 19 39  1  0
 20 40  1  0
M  END
$$$$
