
     RDKit          3D

 48 51  0  0  0  0  0  0  0  0999 V2000
    7.3003    0.2691   -1.9203 C   0  0  0  0  0  0  0  0  0  0  0  0
    5.9824    0.2752   -1.2624 C   0  0  0  0  0  0  0  0  0  0  0  0
    5.5461    0.0253    0.0137 C   0  0  0  0  0  0  0  0  0  0  0  0
    4.1425    0.2145   -0.0447 C   0  0  0  0  0  0  0  0  0  0  0  0
    3.1799    0.0701    1.0482 C   0  0  0  0  0  0  0  0  0  0  0  0
    3.5107   -0.2736    2.1791 O   0  0  0  0  0  0  0  0  0  0  0  0
    1.8792    0.3446    0.6923 N   0  0  0  0  0  0  0  0  0  0  0  0
    0.7715    0.1615    1.6001 C   0  0  0  0  0  0  0  0  0  0  0  0
    0.3847   -1.3283    1.7655 C   0  0  0  0  0  0  0  0  0  0  0  0
   -0.5326   -1.9050    0.6405 C   0  0  0  0  0  0  0  0  0  0  0  0
   -0.9227   -3.3468    1.0261 C   0  0  0  0  0  0  0  0  0  0  0  0
    0.2065   -1.9703   -0.7113 C   0  0  0  0  0  0  0  0  0  0  0  0
   -1.8356   -1.0582    0.4959 C   0  0  0  0  0  0  0  0  0  0  0  0
   -1.5567    0.4057    0.5918 C   0  0  0  0  0  0  0  0  0  0  0  0
   -0.3808    0.9472    1.0822 C   0  0  0  0  0  0  0  0  0  0  0  0
   -0.5364    2.3291    0.9399 C   0  0  0  0  0  0  0  0  0  0  0  0
   -1.7049    2.6513    0.3933 N   0  0  0  0  0  0  0  0  0  0  0  0
   -2.3723    1.4713    0.2260 N   0  0  0  0  0  0  0  0  0  0  0  0
   -3.7185    1.5099   -0.2600 C   0  0  0  0  0  0  0  0  0  0  0  0
   -4.2166    2.7281   -0.7667 C   0  0  0  0  0  0  0  0  0  0  0  0
   -5.5225    2.8220   -1.2549 C   0  0  0  0  0  0  0  0  0  0  0  0
   -6.3409    1.7032   -1.2311 C   0  0  0  0  0  0  0  0  0  0  0  0
   -7.5940    1.7879   -1.6956 F   0  0  0  0  0  0  0  0  0  0  0  0
   -5.8788    0.4967   -0.7221 C   0  0  0  0  0  0  0  0  0  0  0  0
   -4.5703    0.3979   -0.2325 C   0  0  0  0  0  0  0  0  0  0  0  0
    3.7594    0.5559   -1.2889 N   0  0  0  0  0  0  0  0  0  0  0  0
    4.9176    0.5928   -2.0448 O   0  0  0  0  0  0  0  0  0  0  0  0
    7.5289    1.2574   -2.3307 H   0  0  0  0  0  0  0  0  0  0  0  0
    7.3173   -0.4574   -2.7384 H   0  0  0  0  0  0  0  0  0  0  0  0
    8.0915    0.0032   -1.2124 H   0  0  0  0  0  0  0  0  0  0  0  0
    6.1380   -0.2532    0.8733 H   0  0  0  0  0  0  0  0  0  0  0  0
    1.7092    0.5700   -0.2833 H   0  0  0  0  0  0  0  0  0  0  0  0
    1.0762    0.5507    2.5796 H   0  0  0  0  0  0  0  0  0  0  0  0
    1.2847   -1.9475    1.8703 H   0  0  0  0  0  0  0  0  0  0  0  0
   -0.1594   -1.4210    2.7170 H   0  0  0  0  0  0  0  0  0  0  0  0
   -0.0372   -3.9874    1.1068 H   0  0  0  0  0  0  0  0  0  0  0  0
   -1.5902   -3.7899    0.2785 H   0  0  0  0  0  0  0  0  0  0  0  0
   -1.4414   -3.3739    1.9910 H   0  0  0  0  0  0  0  0  0  0  0  0
   -0.3773   -2.5330   -1.4493 H   0  0  0  0  0  0  0  0  0  0  0  0
    0.3805   -0.9799   -1.1405 H   0  0  0  0  0  0  0  0  0  0  0  0
    1.1755   -2.4711   -0.6071 H   0  0  0  0  0  0  0  0  0  0  0  0
   -2.5251   -1.3232    1.3073 H   0  0  0  0  0  0  0  0  0  0  0  0
   -2.3152   -1.3031   -0.4583 H   0  0  0  0  0  0  0  0  0  0  0  0
    0.1609    3.1182    1.1923 H   0  0  0  0  0  0  0  0  0  0  0  0
   -3.5905    3.6193   -0.7967 H   0  0  0  0  0  0  0  0  0  0  0  0
   -5.8995    3.7600   -1.6496 H   0  0  0  0  0  0  0  0  0  0  0  0
   -6.5439   -0.3613   -0.6992 H   0  0  0  0  0  0  0  0  0  0  0  0
   -4.2801   -0.5540    0.1902 H   0  0  0  0  0  0  0  0  0  0  0  0
  1  2  1  0
  2  3  2  0
  3  4  1  0
  4  5  1  0
  5  6  2  0
  5  7  1  0
  7  8  1  0
  8  9  1  0
  9 10  1  0
 10 11  1  0
 10 12  1  0
 10 13  1  0
 13 14  1  0
 14 15  2  0
 15 16  1  0
 16 17  2  0
 17 18  1  0
 18 19  1  0
 19 20  2  0
 20 21  1  0
 21 22  2  0
 22 23  1  0
 22 24  1  0
 24 25  2  0
  4 26  2  0
 26 27  1  0
 27  2  1  0
 15  8  1  0
 25 19  1  0
 18 14  1  0
  1 28  1  0
  1 29  1  0
  1 30  1  0
  3 31  1  0
  7 32  1  0
  8 33  1  0
  9 34  1  0
  9 35  1  0
 11 36  1  0
 11 37  1  0
 11 38  1  0
 12 39  1  0
 12 40  1  0
 12 41  1  0
 13 42  1  0
 13 43  1  0
 16 44  1  0
 20 45  1  0
 21 46  1  0
 24 47  1  0
 25 48  1  0
M  END
$$$$
