
     RDKit          3D

 60 62  0  0  0  0  0  0  0  0999 V2000
   -4.3459    2.5404    1.2439 C   0  0  0  0  0  0  0  0  0  0  0  0
   -3.1005    2.7183    0.4271 C   0  0  0  0  0  0  0  0  0  0  0  0
   -1.8586    2.3446    0.9435 C   0  0  0  0  0  0  0  0  0  0  0  0
   -0.7068    2.4912    0.1728 C   0  0  0  0  0  0  0  0  0  0  0  0
   -0.7852    2.9877   -1.1387 C   0  0  0  0  0  0  0  0  0  0  0  0
    0.7525    3.1290   -2.0444 S   0  0  0  0  0  6  0  0  0  0  0  0
    1.8438    3.0737   -1.0935 O   0  0  0  0  0  0  0  0  0  0  0  0
    0.6498    4.2346   -2.9720 O   0  0  0  0  0  0  0  0  0  0  0  0
    0.7951    1.7271   -2.9870 N   0  0  0  0  0  0  0  0  0  0  0  0
    0.5180    0.4594   -2.3852 C   0  0  0  0  0  0  0  0  0  0  0  0
    1.4087   -0.0187   -1.4113 C   0  0  0  0  0  0  0  0  0  0  0  0
    1.1632   -1.2178   -0.7343 C   0  0  0  0  0  0  0  0  0  0  0  0
    2.0923   -1.7891    0.3350 C   0  0  0  0  0  0  0  0  0  0  0  0
    1.4545   -1.8669    1.7133 C   0  0  0  0  0  0  0  0  0  0  0  0
    0.3236   -1.4962    2.0080 O   0  0  0  0  0  0  0  0  0  0  0  0
    2.3210   -2.4779    2.5761 O   0  0  0  0  0  0  0  0  0  0  0  0
    1.8784   -2.6267    3.9406 C   0  0  0  0  0  0  0  0  0  0  0  0
    2.2443   -1.3678    4.7263 C   0  0  0  0  0  0  0  0  0  0  0  0
    2.5873   -3.8522    4.5113 C   0  0  0  0  0  0  0  0  0  0  0  0
    3.4389   -1.1085    0.4412 C   0  0  0  0  0  0  0  0  0  0  0  0
    3.5660   -0.0034    0.9795 O   0  0  0  0  0  0  0  0  0  0  0  0
    4.5939   -1.9010   -0.1317 C   0  0  0  0  0  0  0  0  0  0  0  0
    5.7778   -1.2329   -0.1093 F   0  0  0  0  0  0  0  0  0  0  0  0
    4.3706   -2.2522   -1.4286 F   0  0  0  0  0  0  0  0  0  0  0  0
    4.7935   -3.0662    0.5470 F   0  0  0  0  0  0  0  0  0  0  0  0
   -0.0097   -1.9135   -1.0659 C   0  0  0  0  0  0  0  0  0  0  0  0
   -0.2804   -3.0596   -0.3597 O   0  0  0  0  0  0  0  0  0  0  0  0
   -0.9184   -1.4778   -2.0528 C   0  0  0  0  0  0  0  0  0  0  0  0
   -2.0777   -2.2161   -2.3772 C   0  0  0  0  0  0  0  0  0  0  0  0
   -2.9711   -1.7782   -3.3531 C   0  0  0  0  0  0  0  0  0  0  0  0
   -2.7204   -0.5943   -4.0282 C   0  0  0  0  0  0  0  0  0  0  0  0
   -1.5783    0.1494   -3.7239 C   0  0  0  0  0  0  0  0  0  0  0  0
   -0.6531   -0.2675   -2.7346 C   0  0  0  0  0  0  0  0  0  0  0  0
   -2.0273    3.3676   -1.6813 C   0  0  0  0  0  0  0  0  0  0  0  0
   -2.1987    3.9588   -3.0529 C   0  0  0  0  0  0  0  0  0  0  0  0
   -3.1750    3.2189   -0.8803 C   0  0  0  0  0  0  0  0  0  0  0  0
   -5.0916    3.3010    0.9901 H   0  0  0  0  0  0  0  0  0  0  0  0
   -4.7736    1.5496    1.0640 H   0  0  0  0  0  0  0  0  0  0  0  0
   -4.1295    2.6437    2.3137 H   0  0  0  0  0  0  0  0  0  0  0  0
   -1.7762    1.9441    1.9526 H   0  0  0  0  0  0  0  0  0  0  0  0
    0.2512    2.2065    0.6060 H   0  0  0  0  0  0  0  0  0  0  0  0
    0.5011    1.8907   -3.9482 H   0  0  0  0  0  0  0  0  0  0  0  0
    2.2940    0.5765   -1.1902 H   0  0  0  0  0  0  0  0  0  0  0  0
    2.2855   -2.8308    0.0400 H   0  0  0  0  0  0  0  0  0  0  0  0
    0.7963   -2.8021    3.9819 H   0  0  0  0  0  0  0  0  0  0  0  0
    1.7145   -0.4913    4.3279 H   0  0  0  0  0  0  0  0  0  0  0  0
    3.3159   -1.1507    4.6456 H   0  0  0  0  0  0  0  0  0  0  0  0
    1.9889   -1.4751    5.7865 H   0  0  0  0  0  0  0  0  0  0  0  0
    2.3021   -4.0309    5.5532 H   0  0  0  0  0  0  0  0  0  0  0  0
    3.6758   -3.7355    4.4615 H   0  0  0  0  0  0  0  0  0  0  0  0
    2.3379   -4.7453    3.9215 H   0  0  0  0  0  0  0  0  0  0  0  0
   -0.9712   -2.7942    0.2815 H   0  0  0  0  0  0  0  0  0  0  0  0
   -2.2874   -3.1571   -1.8719 H   0  0  0  0  0  0  0  0  0  0  0  0
   -3.8539   -2.3668   -3.5869 H   0  0  0  0  0  0  0  0  0  0  0  0
   -3.4089   -0.2483   -4.7957 H   0  0  0  0  0  0  0  0  0  0  0  0
   -1.4210    1.0653   -4.2835 H   0  0  0  0  0  0  0  0  0  0  0  0
   -3.2540    3.9743   -3.3501 H   0  0  0  0  0  0  0  0  0  0  0  0
   -1.8376    4.9917   -3.0707 H   0  0  0  0  0  0  0  0  0  0  0  0
   -1.6748    3.3647   -3.8082 H   0  0  0  0  0  0  0  0  0  0  0  0
   -4.1496    3.5032   -1.2773 H   0  0  0  0  0  0  0  0  0  0  0  0
  1  2  1  0
  2  3  2  0
  3  4  1  0
  4  5  2  0
  5  6  1  0
  6  7  2  0
  6  8  2  0
  6  9  1  0
  9 10  1  0
 10 11  2  0
 11 12  1  0
 12 13  1  0
 13 14  1  0
 14 15  2  0
 14 16  1  0
 16 17  1  0
 17 18  1  0
 17 19  1  0
 13 20  1  0
 20 21  2  0
 20 22  1  0
 22 23  1  0
 22 24  1  0
 22 25  1  0
 12 26  2  0
 26 27  1  0
 26 28  1  0
 28 29  2  0
 29 30  1  0
 30 31  2  0
 31 32  1  0
 32 33  2  0
  5 34  1  0
 34 35  1  0
 34 36  2  0
 36  2  1  0
 33 10  1  0
 33 28  1  0
  1 37  1  0
  1 38  1  0
  1 39  1  0
  3 40  1  0
  4 41  1  0
  9 42  1  0
 11 43  1  0
 13 44  1  0
 17 45  1  0
 18 46  1  0
 18 47  1  0
 18 48  1  0
 19 49  1  0
 19 50  1  0
 19 51  1  0
 27 52  1  0
 29 53  1  0
 30 54  1  0
 31 55  1  0
 32 56  1  0
 35 57  1  0
 35 58  1  0
 35 59  1  0
 36 60  1  0
M  END
$$$$
