
     RDKit          3D

 51 53  0  0  0  0  0  0  0  0999 V2000
   -8.6899   -0.5011   -2.3350 C   0  0  0  0  0  0  0  0  0  0  0  0
   -7.3683   -0.3092   -1.6530 C   0  0  0  0  0  0  0  0  0  0  0  0
   -7.2747    0.4598   -0.4889 C   0  0  0  0  0  0  0  0  0  0  0  0
   -6.0378    0.6683    0.1330 C   0  0  0  0  0  0  0  0  0  0  0  0
   -4.8745    0.1210   -0.4063 C   0  0  0  0  0  0  0  0  0  0  0  0
   -3.5953    0.2825    0.1556 N   0  0  0  0  0  0  0  0  0  0  0  0
   -3.2411    0.9802    1.2958 C   0  0  0  0  0  0  0  0  0  0  0  0
   -3.9930    1.6032    2.0402 O   0  0  0  0  0  0  0  0  0  0  0  0
   -1.7392    0.9135    1.5919 C   0  0  0  0  0  0  0  0  0  0  0  0
   -1.0378    0.1965    0.5683 O   0  0  0  0  0  0  0  0  0  0  0  0
    0.2696    0.0241    0.9266 C   0  0  0  0  0  0  0  0  0  0  0  0
    1.2032    1.0230    0.6611 C   0  0  0  0  0  0  0  0  0  0  0  0
    2.5444    0.8190    0.9933 C   0  0  0  0  0  0  0  0  0  0  0  0
    2.9479   -0.3840    1.5857 C   0  0  0  0  0  0  0  0  0  0  0  0
    4.3297   -0.6529    1.8821 N   0  0  0  0  0  0  0  0  0  0  0  0
    5.1146    0.4311    2.5033 C   0  0  0  0  0  0  0  0  0  0  0  0
    5.1721   -1.6388    0.7593 S   0  0  0  0  0  6  0  0  0  0  0  0
    4.3647   -2.7947    0.4262 O   0  0  0  0  0  0  0  0  0  0  0  0
    6.5309   -1.8071    1.2365 O   0  0  0  0  0  0  0  0  0  0  0  0
    5.2571   -0.6185   -0.7042 C   0  0  0  0  0  0  0  0  0  0  0  0
    4.2409   -0.7051   -1.6649 C   0  0  0  0  0  0  0  0  0  0  0  0
    4.3190    0.0754   -2.8184 C   0  0  0  0  0  0  0  0  0  0  0  0
    5.4136    0.9141   -3.0078 C   0  0  0  0  0  0  0  0  0  0  0  0
    5.4850    1.6626   -4.1159 F   0  0  0  0  0  0  0  0  0  0  0  0
    6.4387    0.9842   -2.0683 C   0  0  0  0  0  0  0  0  0  0  0  0
    6.3681    0.2086   -0.9105 C   0  0  0  0  0  0  0  0  0  0  0  0
    2.0046   -1.3907    1.8126 C   0  0  0  0  0  0  0  0  0  0  0  0
    0.6639   -1.1901    1.4807 C   0  0  0  0  0  0  0  0  0  0  0  0
   -4.9657   -0.6371   -1.5794 C   0  0  0  0  0  0  0  0  0  0  0  0
   -6.2006   -0.8467   -2.2012 C   0  0  0  0  0  0  0  0  0  0  0  0
   -8.7222   -1.4615   -2.8611 H   0  0  0  0  0  0  0  0  0  0  0  0
   -9.5090   -0.5018   -1.6074 H   0  0  0  0  0  0  0  0  0  0  0  0
   -8.8587    0.3042   -3.0574 H   0  0  0  0  0  0  0  0  0  0  0  0
   -8.1655    0.9067   -0.0518 H   0  0  0  0  0  0  0  0  0  0  0  0
   -6.0205    1.2683    1.0374 H   0  0  0  0  0  0  0  0  0  0  0  0
   -2.8201   -0.1631   -0.3278 H   0  0  0  0  0  0  0  0  0  0  0  0
   -1.3708    1.9445    1.6443 H   0  0  0  0  0  0  0  0  0  0  0  0
   -1.6211    0.4143    2.5616 H   0  0  0  0  0  0  0  0  0  0  0  0
    0.8956    1.9515    0.1884 H   0  0  0  0  0  0  0  0  0  0  0  0
    3.2625    1.6016    0.7680 H   0  0  0  0  0  0  0  0  0  0  0  0
    5.4206    1.1818    1.7701 H   0  0  0  0  0  0  0  0  0  0  0  0
    4.5254    0.9266    3.2829 H   0  0  0  0  0  0  0  0  0  0  0  0
    6.0029    0.0244    2.9959 H   0  0  0  0  0  0  0  0  0  0  0  0
    3.3932   -1.3719   -1.5197 H   0  0  0  0  0  0  0  0  0  0  0  0
    3.5396    0.0303   -3.5732 H   0  0  0  0  0  0  0  0  0  0  0  0
    7.2886    1.6351   -2.2508 H   0  0  0  0  0  0  0  0  0  0  0  0
    7.1778    0.2478   -0.1853 H   0  0  0  0  0  0  0  0  0  0  0  0
    2.3134   -2.3414    2.2421 H   0  0  0  0  0  0  0  0  0  0  0  0
   -0.0607   -1.9815    1.6515 H   0  0  0  0  0  0  0  0  0  0  0  0
   -4.0782   -1.0735   -2.0298 H   0  0  0  0  0  0  0  0  0  0  0  0
   -6.2430   -1.4335   -3.1159 H   0  0  0  0  0  0  0  0  0  0  0  0
  1  2  1  0
  2  3  2  0
  3  4  1  0
  4  5  2  0
  5  6  1  0
  6  7  1  0
  7  8  2  0
  7  9  1  0
  9 10  1  0
 10 11  1  0
 11 12  2  0
 12 13  1  0
 13 14  2  0
 14 15  1  0
 15 16  1  0
 15 17  1  0
 17 18  2  0
 17 19  2  0
 17 20  1  0
 20 21  2  0
 21 22  1  0
 22 23  2  0
 23 24  1  0
 23 25  1  0
 25 26  2  0
 14 27  1  0
 27 28  2  0
  5 29  1  0
 29 30  2  0
 30  2  1  0
 28 11  1  0
 26 20  1  0
  1 31  1  0
  1 32  1  0
  1 33  1  0
  3 34  1  0
  4 35  1  0
  6 36  1  0
  9 37  1  0
  9 38  1  0
 12 39  1  0
 13 40  1  0
 16 41  1  0
 16 42  1  0
 16 43  1  0
 21 44  1  0
 22 45  1  0
 25 46  1  0
 26 47  1  0
 27 48  1  0
 28 49  1  0
 29 50  1  0
 30 51  1  0
M  END
$$$$
