
     RDKit          3D

 53 57  0  0  0  0  0  0  0  0999 V2000
    6.9639    0.5190    0.4115 C   0  0  0  0  0  0  0  0  0  0  0  0
    5.8521    1.4000    0.5054 O   0  0  0  0  0  0  0  0  0  0  0  0
    4.6745    0.8645    0.9484 C   0  0  0  0  0  0  0  0  0  0  0  0
    4.4543   -0.4700    1.2849 C   0  0  0  0  0  0  0  0  0  0  0  0
    3.1924   -0.8868    1.7250 C   0  0  0  0  0  0  0  0  0  0  0  0
    2.1279    0.0207    1.8238 C   0  0  0  0  0  0  0  0  0  0  0  0
    0.7651   -0.4385    2.3003 C   0  0  0  0  0  0  0  0  0  0  0  0
   -0.2964   -0.2205    1.3077 N   0  0  0  0  0  0  0  0  0  0  0  0
   -0.5105   -1.0484    0.2275 C   0  0  0  0  0  0  0  0  0  0  0  0
    0.3286   -2.2524    0.0564 C   0  0  0  0  0  0  0  0  0  0  0  0
    0.0410   -3.4107    0.7839 C   0  0  0  0  0  0  0  0  0  0  0  0
    0.8239   -4.5492    0.5943 C   0  0  0  0  0  0  0  0  0  0  0  0
    1.8732   -4.5297   -0.3278 C   0  0  0  0  0  0  0  0  0  0  0  0
    2.1384   -3.3767   -1.0702 C   0  0  0  0  0  0  0  0  0  0  0  0
    1.3597   -2.2346   -0.8861 C   0  0  0  0  0  0  0  0  0  0  0  0
   -1.4174   -0.8380   -0.6660 N   0  0  0  0  0  0  0  0  0  0  0  0
   -2.2454    0.2595   -0.5884 C   0  0  0  0  0  0  0  0  0  0  0  0
   -2.1330    1.1323    0.4358 C   0  0  0  0  0  0  0  0  0  0  0  0
   -3.0369    2.3083    0.4982 C   0  0  0  0  0  0  0  0  0  0  0  0
   -2.9966    3.1381    1.4013 O   0  0  0  0  0  0  0  0  0  0  0  0
   -4.0278    2.4847   -0.5799 C   0  0  0  0  0  0  0  0  0  0  0  0
   -4.8851    3.5981   -0.5436 C   0  0  0  0  0  0  0  0  0  0  0  0
   -5.8270    3.7878   -1.5483 C   0  0  0  0  0  0  0  0  0  0  0  0
   -5.9105    2.8671   -2.5847 C   0  0  0  0  0  0  0  0  0  0  0  0
   -5.0532    1.7594   -2.6147 C   0  0  0  0  0  0  0  0  0  0  0  0
   -4.0894    1.5400   -1.6121 C   0  0  0  0  0  0  0  0  0  0  0  0
   -3.2067    0.4375   -1.6043 N   0  0  0  0  0  0  0  0  0  0  0  0
   -3.3199   -0.5176   -2.7129 C   0  0  0  0  0  0  0  0  0  0  0  0
   -1.1006    0.8932    1.4758 C   0  0  0  0  0  0  0  0  0  0  0  0
   -0.9678    1.6495    2.4363 O   0  0  0  0  0  0  0  0  0  0  0  0
    2.3624    1.3628    1.4991 C   0  0  0  0  0  0  0  0  0  0  0  0
    3.6232    1.7758    1.0610 C   0  0  0  0  0  0  0  0  0  0  0  0
    7.8229    1.1006    0.0630 H   0  0  0  0  0  0  0  0  0  0  0  0
    6.7785   -0.2727   -0.3220 H   0  0  0  0  0  0  0  0  0  0  0  0
    7.2209    0.0997    1.3901 H   0  0  0  0  0  0  0  0  0  0  0  0
    5.2408   -1.2141    1.2173 H   0  0  0  0  0  0  0  0  0  0  0  0
    3.0487   -1.9348    1.9816 H   0  0  0  0  0  0  0  0  0  0  0  0
    0.7946   -1.5010    2.5614 H   0  0  0  0  0  0  0  0  0  0  0  0
    0.5382    0.0828    3.2380 H   0  0  0  0  0  0  0  0  0  0  0  0
   -0.7891   -3.4310    1.4849 H   0  0  0  0  0  0  0  0  0  0  0  0
    0.6112   -5.4561    1.1550 H   0  0  0  0  0  0  0  0  0  0  0  0
    2.4786   -5.4207   -0.4782 H   0  0  0  0  0  0  0  0  0  0  0  0
    2.9479   -3.3699   -1.7961 H   0  0  0  0  0  0  0  0  0  0  0  0
    1.5591   -1.3372   -1.4666 H   0  0  0  0  0  0  0  0  0  0  0  0
   -4.8157    4.3175    0.2705 H   0  0  0  0  0  0  0  0  0  0  0  0
   -6.4897    4.6488   -1.5210 H   0  0  0  0  0  0  0  0  0  0  0  0
   -6.6434    3.0061   -3.3761 H   0  0  0  0  0  0  0  0  0  0  0  0
   -5.1663    1.0756   -3.4510 H   0  0  0  0  0  0  0  0  0  0  0  0
   -3.1140   -0.0254   -3.6706 H   0  0  0  0  0  0  0  0  0  0  0  0
   -2.6161   -1.3534   -2.6404 H   0  0  0  0  0  0  0  0  0  0  0  0
   -4.3206   -0.9648   -2.7388 H   0  0  0  0  0  0  0  0  0  0  0  0
    1.5700    2.1037    1.5924 H   0  0  0  0  0  0  0  0  0  0  0  0
    3.7873    2.8215    0.8111 H   0  0  0  0  0  0  0  0  0  0  0  0
  1  2  1  0
  2  3  1  0
  3  4  2  0
  4  5  1  0
  5  6  2  0
  6  7  1  0
  7  8  1  0
  8  9  1  0
  9 10  1  0
 10 11  2  0
 11 12  1  0
 12 13  2  0
 13 14  1  0
 14 15  2  0
  9 16  2  0
 16 17  1  0
 17 18  2  0
 18 19  1  0
 19 20  2  0
 19 21  1  0
 21 22  2  0
 22 23  1  0
 23 24  2  0
 24 25  1  0
 25 26  2  0
 26 27  1  0
 27 28  1  0
 18 29  1  0
 29 30  2  0
  6 31  1  0
 31 32  2  0
 32  3  1  0
 29  8  1  0
 15 10  1  0
 27 17  1  0
 26 21  1  0
  1 33  1  0
  1 34  1  0
  1 35  1  0
  4 36  1  0
  5 37  1  0
  7 38  1  0
  7 39  1  0
 11 40  1  0
 12 41  1  0
 13 42  1  0
 14 43  1  0
 15 44  1  0
 22 45  1  0
 23 46  1  0
 24 47  1  0
 25 48  1  0
 28 49  1  0
 28 50  1  0
 28 51  1  0
 31 52  1  0
 32 53  1  0
M  END
$$$$
