
     RDKit          3D

 60 63  0  0  0  0  0  0  0  0999 V2000
   11.0688   -2.7004   -1.0487 C   0  0  0  0  0  0  0  0  0  0  0  0
    9.8930   -1.8201   -0.6590 C   0  0  0  0  0  0  0  0  0  0  0  0
    8.8625   -2.0084   -1.6252 O   0  0  0  0  0  0  0  0  0  0  0  0
    7.6940   -1.3273   -1.4302 C   0  0  0  0  0  0  0  0  0  0  0  0
    7.4188   -0.4494   -0.3827 C   0  0  0  0  0  0  0  0  0  0  0  0
    6.1693    0.1755   -0.3001 C   0  0  0  0  0  0  0  0  0  0  0  0
    5.1853   -0.0586   -1.2688 C   0  0  0  0  0  0  0  0  0  0  0  0
    3.8313    0.5888   -1.1603 C   0  0  0  0  0  0  0  0  0  0  0  0
    2.9077   -0.2828   -0.4744 N   0  0  0  0  0  0  0  0  0  0  0  0
    1.5946    0.1033   -0.2938 C   0  0  0  0  0  0  0  0  0  0  0  0
    1.1435    1.1412   -0.7699 O   0  0  0  0  0  0  0  0  0  0  0  0
    0.7854   -0.8934    0.5371 C   0  0  0  0  0  0  0  0  0  0  0  0
   -0.5422   -0.3834    0.8321 N   0  0  0  0  0  0  0  0  0  0  0  0
   -0.6767    0.3382    2.0250 N   0  0  0  0  0  0  0  0  0  0  0  0
   -1.8107    0.8975    2.3422 C   0  0  0  0  0  0  0  0  0  0  0  0
   -1.8932    1.6602    3.6332 C   0  0  0  0  0  0  0  0  0  0  0  0
   -2.9413    0.7643    1.4564 C   0  0  0  0  0  0  0  0  0  0  0  0
   -4.2365    1.2557    1.4632 C   0  0  0  0  0  0  0  0  0  0  0  0
   -4.8742    2.2495    2.3650 C   0  0  0  0  0  0  0  0  0  0  0  0
   -4.8636    0.6633    0.3605 N   0  0  0  0  0  0  0  0  0  0  0  0
   -6.2417    0.6310   -0.0189 C   0  0  0  0  0  0  0  0  0  0  0  0
   -6.5723    0.2784   -1.3383 C   0  0  0  0  0  0  0  0  0  0  0  0
   -7.9074    0.2293   -1.7521 C   0  0  0  0  0  0  0  0  0  0  0  0
   -8.9375    0.5292   -0.8565 C   0  0  0  0  0  0  0  0  0  0  0  0
  -10.3717    0.4500   -1.2890 C   0  0  0  0  0  0  0  0  0  0  0  0
   -8.6122    0.8404    0.4686 C   0  0  0  0  0  0  0  0  0  0  0  0
   -7.2764    0.8887    0.8867 C   0  0  0  0  0  0  0  0  0  0  0  0
   -3.9578    0.0233   -0.4273 N   0  0  0  0  0  0  0  0  0  0  0  0
   -2.8187    0.0378    0.2673 C   0  0  0  0  0  0  0  0  0  0  0  0
   -1.5614   -0.5886   -0.1177 C   0  0  0  0  0  0  0  0  0  0  0  0
   -1.4082   -1.2462   -1.1449 O   0  0  0  0  0  0  0  0  0  0  0  0
    5.4656   -0.9442   -2.3144 C   0  0  0  0  0  0  0  0  0  0  0  0
    6.7121   -1.5683   -2.3932 C   0  0  0  0  0  0  0  0  0  0  0  0
   10.7739   -3.7571   -1.0504 H   0  0  0  0  0  0  0  0  0  0  0  0
   11.8998   -2.5712   -0.3485 H   0  0  0  0  0  0  0  0  0  0  0  0
   11.4149   -2.4659   -2.0635 H   0  0  0  0  0  0  0  0  0  0  0  0
    9.5425   -2.1178    0.3385 H   0  0  0  0  0  0  0  0  0  0  0  0
   10.2152   -0.7708   -0.6466 H   0  0  0  0  0  0  0  0  0  0  0  0
    8.1521   -0.2257    0.3866 H   0  0  0  0  0  0  0  0  0  0  0  0
    5.9709    0.8519    0.5276 H   0  0  0  0  0  0  0  0  0  0  0  0
    3.4313    0.8239   -2.1557 H   0  0  0  0  0  0  0  0  0  0  0  0
    3.8934    1.5366   -0.6092 H   0  0  0  0  0  0  0  0  0  0  0  0
    3.2902   -0.9983    0.1272 H   0  0  0  0  0  0  0  0  0  0  0  0
    1.3060   -1.0854    1.4811 H   0  0  0  0  0  0  0  0  0  0  0  0
    0.7127   -1.8324   -0.0209 H   0  0  0  0  0  0  0  0  0  0  0  0
   -1.0022    1.4770    4.2417 H   0  0  0  0  0  0  0  0  0  0  0  0
   -1.9522    2.7309    3.4202 H   0  0  0  0  0  0  0  0  0  0  0  0
   -2.7732    1.3462    4.2011 H   0  0  0  0  0  0  0  0  0  0  0  0
   -5.3295    1.7558    3.2287 H   0  0  0  0  0  0  0  0  0  0  0  0
   -5.6274    2.8502    1.8479 H   0  0  0  0  0  0  0  0  0  0  0  0
   -4.1383    2.9661    2.7390 H   0  0  0  0  0  0  0  0  0  0  0  0
   -5.7959    0.0474   -2.0668 H   0  0  0  0  0  0  0  0  0  0  0  0
   -8.1323   -0.0464   -2.7813 H   0  0  0  0  0  0  0  0  0  0  0  0
  -10.4661    0.6087   -2.3679 H   0  0  0  0  0  0  0  0  0  0  0  0
  -10.9698    1.2243   -0.7944 H   0  0  0  0  0  0  0  0  0  0  0  0
  -10.7829   -0.5325   -1.0432 H   0  0  0  0  0  0  0  0  0  0  0  0
   -9.4020    1.0355    1.1917 H   0  0  0  0  0  0  0  0  0  0  0  0
   -7.0943    1.0803    1.9371 H   0  0  0  0  0  0  0  0  0  0  0  0
    4.7151   -1.1559   -3.0732 H   0  0  0  0  0  0  0  0  0  0  0  0
    6.9199   -2.2501   -3.2127 H   0  0  0  0  0  0  0  0  0  0  0  0
  1  2  1  0
  2  3  1  0
  3  4  1  0
  4  5  2  0
  5  6  1  0
  6  7  2  0
  7  8  1  0
  8  9  1  0
  9 10  1  0
 10 11  2  0
 10 12  1  0
 12 13  1  0
 13 14  1  0
 14 15  2  0
 15 16  1  0
 15 17  1  0
 17 18  2  0
 18 19  1  0
 18 20  1  0
 20 21  1  0
 21 22  2  0
 22 23  1  0
 23 24  2  0
 24 25  1  0
 24 26  1  0
 26 27  2  0
 20 28  1  0
 28 29  2  0
 29 30  1  0
 30 31  2  0
  7 32  1  0
 32 33  2  0
 33  4  1  0
 30 13  1  0
 29 17  1  0
 27 21  1  0
  1 34  1  0
  1 35  1  0
  1 36  1  0
  2 37  1  0
  2 38  1  0
  5 39  1  0
  6 40  1  0
  8 41  1  0
  8 42  1  0
  9 43  1  0
 12 44  1  0
 12 45  1  0
 16 46  1  0
 16 47  1  0
 16 48  1  0
 19 49  1  0
 19 50  1  0
 19 51  1  0
 22 52  1  0
 23 53  1  0
 25 54  1  0
 25 55  1  0
 25 56  1  0
 26 57  1  0
 27 58  1  0
 32 59  1  0
 33 60  1  0
M  END
$$$$
