
     RDKit          3D

 36 37  0  0  0  0  0  0  0  0999 V2000
   -0.8449   -0.0181    2.9837 O   0  0  0  0  0  0  0  0  0  0  0  0
   -0.1422   -0.6390    2.1908 C   0  0  0  0  0  0  0  0  0  0  0  0
    1.3205   -0.9789    2.4900 C   0  0  0  0  0  0  0  0  0  0  0  0
    2.2351   -0.0575    1.8938 O   0  0  0  0  0  0  0  0  0  0  0  0
    2.4251   -0.2211    0.5622 C   0  0  0  0  0  0  0  0  0  0  0  0
    1.9303   -1.0923   -0.1340 O   0  0  0  0  0  0  0  0  0  0  0  0
    3.2985    0.8616    0.0706 C   0  0  0  0  0  0  0  0  0  0  0  0
    4.5337    1.0659    0.7051 C   0  0  0  0  0  0  0  0  0  0  0  0
    5.3930    2.0711    0.2591 C   0  0  0  0  0  0  0  0  0  0  0  0
    5.0256    2.8740   -0.8198 C   0  0  0  0  0  0  0  0  0  0  0  0
    3.7982    2.6726   -1.4551 C   0  0  0  0  0  0  0  0  0  0  0  0
    2.9296    1.6687   -1.0116 C   0  0  0  0  0  0  0  0  0  0  0  0
    1.2550    1.5148   -1.8926 Br  0  0  0  0  0  0  0  0  0  0  0  0
   -0.5910   -1.0934    0.9656 N   0  0  0  0  0  0  0  0  0  0  0  0
   -1.8676   -0.6487    0.4378 C   0  0  0  0  0  0  0  0  0  0  0  0
   -2.3718   -1.5433   -0.6956 C   0  0  0  0  0  0  0  0  0  0  0  0
   -3.5933   -1.0376   -1.2954 N   0  0  0  0  0  0  0  0  0  0  0  0
   -4.8406   -1.2402   -0.7585 C   0  0  0  0  0  0  0  0  0  0  0  0
   -4.9580   -1.9969    0.3683 O   0  0  0  0  0  0  0  0  0  0  0  0
   -5.8360   -0.6418   -1.4221 C   0  0  0  0  0  0  0  0  0  0  0  0
   -5.2347    0.2445   -2.7918 S   0  0  0  0  0  0  0  0  0  0  0  0
   -3.5626   -0.2136   -2.4086 C   0  0  0  0  0  0  0  0  0  0  0  0
   -2.5944    0.1666   -3.0453 O   0  0  0  0  0  0  0  0  0  0  0  0
    1.4630   -0.9314    3.5749 H   0  0  0  0  0  0  0  0  0  0  0  0
    1.5441   -2.0095    2.1901 H   0  0  0  0  0  0  0  0  0  0  0  0
    4.8316    0.4439    1.5466 H   0  0  0  0  0  0  0  0  0  0  0  0
    6.3484    2.2300    0.7547 H   0  0  0  0  0  0  0  0  0  0  0  0
    5.6931    3.6602   -1.1666 H   0  0  0  0  0  0  0  0  0  0  0  0
    3.5216    3.3129   -2.2906 H   0  0  0  0  0  0  0  0  0  0  0  0
    0.1389   -1.3232    0.2865 H   0  0  0  0  0  0  0  0  0  0  0  0
   -1.7292    0.3801    0.0832 H   0  0  0  0  0  0  0  0  0  0  0  0
   -2.5996   -0.6117    1.2541 H   0  0  0  0  0  0  0  0  0  0  0  0
   -2.5370   -2.5690   -0.3444 H   0  0  0  0  0  0  0  0  0  0  0  0
   -1.6015   -1.6040   -1.4743 H   0  0  0  0  0  0  0  0  0  0  0  0
   -5.8959   -2.0227    0.6264 H   0  0  0  0  0  0  0  0  0  0  0  0
   -6.8851   -0.6731   -1.1693 H   0  0  0  0  0  0  0  0  0  0  0  0
  1  2  2  0
  2  3  1  0
  3  4  1  0
  4  5  1  0
  5  6  2  0
  5  7  1  0
  7  8  2  0
  8  9  1  0
  9 10  2  0
 10 11  1  0
 11 12  2  0
 12 13  1  0
  2 14  1  0
 14 15  1  0
 15 16  1  0
 16 17  1  0
 17 18  1  0
 18 19  1  0
 18 20  2  0
 20 21  1  0
 21 22  1  0
 22 23  2  0
 12  7  1  0
 22 17  1  0
  3 24  1  0
  3 25  1  0
  8 26  1  0
  9 27  1  0
 10 28  1  0
 11 29  1  0
 14 30  1  0
 15 31  1  0
 15 32  1  0
 16 33  1  0
 16 34  1  0
 19 35  1  0
 20 36  1  0
M  END
$$$$
