
     RDKit          3D

 62 66  0  0  0  0  0  0  0  0999 V2000
   -2.9678    5.4183   -1.9902 C   0  0  0  0  0  0  0  0  0  0  0  0
   -4.3131    5.0958   -1.6598 O   0  0  0  0  0  0  0  0  0  0  0  0
   -4.5543    3.8219   -1.2225 C   0  0  0  0  0  0  0  0  0  0  0  0
   -5.8846    3.5528   -0.9234 C   0  0  0  0  0  0  0  0  0  0  0  0
   -6.2838    2.2935   -0.4684 C   0  0  0  0  0  0  0  0  0  0  0  0
   -5.3117    1.2883   -0.3123 C   0  0  0  0  0  0  0  0  0  0  0  0
   -5.5729   -0.3227    0.2245 S   0  0  0  0  0  0  0  0  0  0  0  0
   -3.9175   -0.7290    0.0918 C   0  0  0  0  0  0  0  0  0  0  0  0
   -3.4995   -2.0896    0.4590 C   0  0  0  0  0  0  0  0  0  0  0  0
   -3.7685   -3.1446   -0.4297 C   0  0  0  0  0  0  0  0  0  0  0  0
   -3.3686   -4.4455   -0.1295 C   0  0  0  0  0  0  0  0  0  0  0  0
   -2.6968   -4.7040    1.0613 C   0  0  0  0  0  0  0  0  0  0  0  0
   -2.4217   -3.6647    1.9547 C   0  0  0  0  0  0  0  0  0  0  0  0
   -2.8138   -2.3524    1.6630 C   0  0  0  0  0  0  0  0  0  0  0  0
   -2.5964   -1.2805    2.4926 O   0  0  0  0  0  0  0  0  0  0  0  0
   -1.7142   -1.4727    3.5891 C   0  0  0  0  0  0  0  0  0  0  0  0
   -3.1639    0.3425   -0.3585 C   0  0  0  0  0  0  0  0  0  0  0  0
   -1.7215    0.2405   -0.5440 C   0  0  0  0  0  0  0  0  0  0  0  0
   -0.8557    0.8434    0.3742 C   0  0  0  0  0  0  0  0  0  0  0  0
    0.5301    0.7610    0.1998 C   0  0  0  0  0  0  0  0  0  0  0  0
    1.0583    0.0775   -0.8962 C   0  0  0  0  0  0  0  0  0  0  0  0
    2.3864   -0.0773   -1.1840 O   0  0  0  0  0  0  0  0  0  0  0  0
    3.3226    0.4871   -0.2596 C   0  0  0  0  0  0  0  0  0  0  0  0
    4.7394    0.1946   -0.7806 C   0  0  0  0  0  0  0  0  0  0  0  0
    5.7973    0.7735    0.0704 N   0  0  0  0  0  0  0  0  0  0  0  0
    6.0181   -0.0050    1.3002 C   0  0  0  0  0  0  0  0  0  0  0  0
    6.9778   -1.1279    0.9297 C   0  0  0  0  0  0  0  0  0  0  0  0
    7.6612   -0.6631   -0.3480 C   0  0  0  0  0  0  0  0  0  0  0  0
    7.1055    0.7287   -0.6047 C   0  0  0  0  0  0  0  0  0  0  0  0
    0.1900   -0.5197   -1.8144 C   0  0  0  0  0  0  0  0  0  0  0  0
   -1.1942   -0.4402   -1.6437 C   0  0  0  0  0  0  0  0  0  0  0  0
   -3.9658    1.5223   -0.5977 C   0  0  0  0  0  0  0  0  0  0  0  0
   -3.5969    2.8160   -1.0627 C   0  0  0  0  0  0  0  0  0  0  0  0
   -2.9462    6.4607   -2.3226 H   0  0  0  0  0  0  0  0  0  0  0  0
   -2.3154    5.3347   -1.1148 H   0  0  0  0  0  0  0  0  0  0  0  0
   -2.6044    4.7981   -2.8164 H   0  0  0  0  0  0  0  0  0  0  0  0
   -6.6309    4.3346   -1.0465 H   0  0  0  0  0  0  0  0  0  0  0  0
   -7.3273    2.0971   -0.2401 H   0  0  0  0  0  0  0  0  0  0  0  0
   -4.2901   -2.9511   -1.3645 H   0  0  0  0  0  0  0  0  0  0  0  0
   -3.5822   -5.2543   -0.8233 H   0  0  0  0  0  0  0  0  0  0  0  0
   -2.3873   -5.7187    1.2996 H   0  0  0  0  0  0  0  0  0  0  0  0
   -1.9059   -3.9147    2.8756 H   0  0  0  0  0  0  0  0  0  0  0  0
   -1.5624   -0.5012    4.0694 H   0  0  0  0  0  0  0  0  0  0  0  0
   -0.7356   -1.8343    3.2558 H   0  0  0  0  0  0  0  0  0  0  0  0
   -2.1539   -2.1452    4.3326 H   0  0  0  0  0  0  0  0  0  0  0  0
   -1.2574    1.3708    1.2369 H   0  0  0  0  0  0  0  0  0  0  0  0
    1.1643    1.2405    0.9376 H   0  0  0  0  0  0  0  0  0  0  0  0
    3.1782    1.5728   -0.1975 H   0  0  0  0  0  0  0  0  0  0  0  0
    3.1794    0.0327    0.7269 H   0  0  0  0  0  0  0  0  0  0  0  0
    4.8011    0.6335   -1.7858 H   0  0  0  0  0  0  0  0  0  0  0  0
    4.8640   -0.8864   -0.9257 H   0  0  0  0  0  0  0  0  0  0  0  0
    5.1027   -0.3815    1.7664 H   0  0  0  0  0  0  0  0  0  0  0  0
    6.4954    0.6501    2.0402 H   0  0  0  0  0  0  0  0  0  0  0  0
    7.7020   -1.3123    1.7299 H   0  0  0  0  0  0  0  0  0  0  0  0
    6.4356   -2.0622    0.7447 H   0  0  0  0  0  0  0  0  0  0  0  0
    7.4092   -1.3401   -1.1725 H   0  0  0  0  0  0  0  0  0  0  0  0
    8.7509   -0.6504   -0.2451 H   0  0  0  0  0  0  0  0  0  0  0  0
    7.7610    1.4763   -0.1402 H   0  0  0  0  0  0  0  0  0  0  0  0
    7.0591    0.9729   -1.6716 H   0  0  0  0  0  0  0  0  0  0  0  0
    0.5950   -1.0531   -2.6707 H   0  0  0  0  0  0  0  0  0  0  0  0
   -1.8516   -0.9109   -2.3700 H   0  0  0  0  0  0  0  0  0  0  0  0
   -2.5508    2.9908   -1.2893 H   0  0  0  0  0  0  0  0  0  0  0  0
  1  2  1  0
  2  3  1  0
  3  4  2  0
  4  5  1  0
  5  6  2  0
  6  7  1  0
  7  8  1  0
  8  9  1  0
  9 10  2  0
 10 11  1  0
 11 12  2  0
 12 13  1  0
 13 14  2  0
 14 15  1  0
 15 16  1  0
  8 17  2  0
 17 18  1  0
 18 19  2  0
 19 20  1  0
 20 21  2  0
 21 22  1  0
 22 23  1  0
 23 24  1  0
 24 25  1  0
 25 26  1  0
 26 27  1  0
 27 28  1  0
 28 29  1  0
 21 30  1  0
 30 31  2  0
 17 32  1  0
 32 33  2  0
 33  3  1  0
 32  6  1  0
 14  9  1  0
 31 18  1  0
 29 25  1  0
  1 34  1  0
  1 35  1  0
  1 36  1  0
  4 37  1  0
  5 38  1  0
 10 39  1  0
 11 40  1  0
 12 41  1  0
 13 42  1  0
 16 43  1  0
 16 44  1  0
 16 45  1  0
 19 46  1  0
 20 47  1  0
 23 48  1  0
 23 49  1  0
 24 50  1  0
 24 51  1  0
 26 52  1  0
 26 53  1  0
 27 54  1  0
 27 55  1  0
 28 56  1  0
 28 57  1  0
 29 58  1  0
 29 59  1  0
 30 60  1  0
 31 61  1  0
 33 62  1  0
M  END
$$$$
