
     RDKit          3D

 40 41  0  0  0  0  0  0  0  0999 V2000
    6.3997   -0.5101   -5.0806 C   0  0  0  0  0  0  0  0  0  0  0  0
    5.6921   -0.2010   -3.7713 C   0  0  0  0  0  0  0  0  0  0  0  0
    4.1756   -0.1851   -3.9446 C   0  0  0  0  0  0  0  0  0  0  0  0
    3.4438    0.1236   -2.6459 C   0  0  0  0  0  0  0  0  0  0  0  0
    4.0364    0.3333   -1.5945 O   0  0  0  0  0  0  0  0  0  0  0  0
    2.0696    0.1282   -2.8321 N   0  0  0  0  0  0  0  0  0  0  0  0
    1.0720    0.3741   -1.8670 C   0  0  0  0  0  0  0  0  0  0  0  0
   -0.2597    0.3165   -2.2962 C   0  0  0  0  0  0  0  0  0  0  0  0
   -1.3093    0.5471   -1.4007 C   0  0  0  0  0  0  0  0  0  0  0  0
   -1.0423    0.8322   -0.0575 C   0  0  0  0  0  0  0  0  0  0  0  0
   -2.1933    1.0708    0.8564 C   0  0  0  0  0  0  0  0  0  0  0  0
   -3.2985    1.3725    0.4111 O   0  0  0  0  0  0  0  0  0  0  0  0
   -1.9586    0.9019    2.2085 N   0  0  0  0  0  0  0  0  0  0  0  0
   -3.0881    0.8883    3.0487 N   0  0  0  0  0  0  0  0  0  0  0  0
   -3.1460   -0.0722    4.0459 C   0  0  0  0  0  0  0  0  0  0  0  0
   -2.1453   -0.7324    4.3360 O   0  0  0  0  0  0  0  0  0  0  0  0
   -4.4358   -0.2501    4.6974 C   0  0  0  0  0  0  0  0  0  0  0  0
   -4.7305   -1.1421    5.7137 C   0  0  0  0  0  0  0  0  0  0  0  0
   -6.0902   -1.0701    6.1328 C   0  0  0  0  0  0  0  0  0  0  0  0
   -6.7952   -0.1245    5.4237 C   0  0  0  0  0  0  0  0  0  0  0  0
   -5.8195    0.6658    4.2639 S   0  0  0  0  0  0  0  0  0  0  0  0
    0.2863    0.9052    0.3728 C   0  0  0  0  0  0  0  0  0  0  0  0
    1.3346    0.6733   -0.5287 C   0  0  0  0  0  0  0  0  0  0  0  0
    6.1007   -1.4901   -5.4663 H   0  0  0  0  0  0  0  0  0  0  0  0
    6.1673    0.2438   -5.8395 H   0  0  0  0  0  0  0  0  0  0  0  0
    7.4840   -0.5200   -4.9324 H   0  0  0  0  0  0  0  0  0  0  0  0
    5.9751   -0.9497   -3.0218 H   0  0  0  0  0  0  0  0  0  0  0  0
    6.0359    0.7699   -3.3951 H   0  0  0  0  0  0  0  0  0  0  0  0
    3.8338   -1.1621   -4.3066 H   0  0  0  0  0  0  0  0  0  0  0  0
    3.8947    0.5735   -4.6850 H   0  0  0  0  0  0  0  0  0  0  0  0
    1.7407   -0.0701   -3.7689 H   0  0  0  0  0  0  0  0  0  0  0  0
   -0.5043    0.0936   -3.3318 H   0  0  0  0  0  0  0  0  0  0  0  0
   -2.3372    0.5008   -1.7564 H   0  0  0  0  0  0  0  0  0  0  0  0
   -1.1711    0.3470    2.5430 H   0  0  0  0  0  0  0  0  0  0  0  0
   -3.9490    1.2540    2.6420 H   0  0  0  0  0  0  0  0  0  0  0  0
   -3.9935   -1.8174    6.1349 H   0  0  0  0  0  0  0  0  0  0  0  0
   -6.5269   -1.6805    6.9140 H   0  0  0  0  0  0  0  0  0  0  0  0
   -7.8381    0.1420    5.5305 H   0  0  0  0  0  0  0  0  0  0  0  0
    0.5400    1.1639    1.3972 H   0  0  0  0  0  0  0  0  0  0  0  0
    2.3500    0.7432   -0.1495 H   0  0  0  0  0  0  0  0  0  0  0  0
  1  2  1  0
  2  3  1  0
  3  4  1  0
  4  5  2  0
  4  6  1  0
  6  7  1  0
  7  8  2  0
  8  9  1  0
  9 10  2  0
 10 11  1  0
 11 12  2  0
 11 13  1  0
 13 14  1  0
 14 15  1  0
 15 16  2  0
 15 17  1  0
 17 18  2  0
 18 19  1  0
 19 20  2  0
 20 21  1  0
 10 22  1  0
 22 23  2  0
 23  7  1  0
 21 17  1  0
  1 24  1  0
  1 25  1  0
  1 26  1  0
  2 27  1  0
  2 28  1  0
  3 29  1  0
  3 30  1  0
  6 31  1  0
  8 32  1  0
  9 33  1  0
 13 34  1  0
 14 35  1  0
 18 36  1  0
 19 37  1  0
 20 38  1  0
 22 39  1  0
 23 40  1  0
M  END
$$$$
