
     RDKit          3D

 38 39  0  0  0  0  0  0  0  0999 V2000
   -0.0588    0.7677   -2.5565 C   0  0  0  0  0  0  0  0  0  0  0  0
    0.4521    0.8254   -1.1313 C   0  0  0  0  0  0  0  0  0  0  0  0
    1.8244    0.2782   -0.9095 C   0  0  0  0  0  0  0  0  0  0  0  0
    2.5752    0.7108    0.1140 C   0  0  0  0  0  0  0  0  0  0  0  0
    3.9303    0.2217    0.3993 C   0  0  0  0  0  0  0  0  0  0  0  0
    4.8588   -0.0501   -0.6143 C   0  0  0  0  0  0  0  0  0  0  0  0
    6.1482   -0.4867   -0.2983 C   0  0  0  0  0  0  0  0  0  0  0  0
    6.5251   -0.6462    1.0336 C   0  0  0  0  0  0  0  0  0  0  0  0
    5.6156   -0.3643    2.0505 C   0  0  0  0  0  0  0  0  0  0  0  0
    4.3268    0.0729    1.7346 C   0  0  0  0  0  0  0  0  0  0  0  0
   -0.2350    1.3024   -0.1305 N   0  0  0  0  0  0  0  0  0  0  0  0
   -1.5050    1.7347   -0.4179 N   0  0  0  0  0  0  0  0  0  0  0  0
   -2.5648    0.8275   -0.1659 C   0  0  0  0  0  0  0  0  0  0  0  0
   -3.7035    1.3753    0.2932 N   0  0  0  0  0  0  0  0  0  0  0  0
   -4.7376    0.5464    0.5409 C   0  0  0  0  0  0  0  0  0  0  0  0
   -6.0028    1.1609    1.0588 C   0  0  0  0  0  0  0  0  0  0  0  0
   -4.6597   -0.8152    0.3356 C   0  0  0  0  0  0  0  0  0  0  0  0
   -3.4598   -1.2953   -0.1444 C   0  0  0  0  0  0  0  0  0  0  0  0
   -3.2764   -2.7604   -0.3992 C   0  0  0  0  0  0  0  0  0  0  0  0
   -2.4135   -0.4886   -0.4028 N   0  0  0  0  0  0  0  0  0  0  0  0
    0.7457    0.5093   -3.2512 H   0  0  0  0  0  0  0  0  0  0  0  0
   -0.4574    1.7426   -2.8516 H   0  0  0  0  0  0  0  0  0  0  0  0
   -0.8423    0.0105   -2.6401 H   0  0  0  0  0  0  0  0  0  0  0  0
    2.1683   -0.4695   -1.6134 H   0  0  0  0  0  0  0  0  0  0  0  0
    2.1792    1.4466    0.8114 H   0  0  0  0  0  0  0  0  0  0  0  0
    4.5951    0.0862   -1.6599 H   0  0  0  0  0  0  0  0  0  0  0  0
    6.8596   -0.6961   -1.0929 H   0  0  0  0  0  0  0  0  0  0  0  0
    7.5282   -0.9848    1.2790 H   0  0  0  0  0  0  0  0  0  0  0  0
    5.9076   -0.4829    3.0906 H   0  0  0  0  0  0  0  0  0  0  0  0
    3.6298    0.2880    2.5419 H   0  0  0  0  0  0  0  0  0  0  0  0
   -1.8004    2.5489    0.1211 H   0  0  0  0  0  0  0  0  0  0  0  0
   -5.8957    2.2455    1.1626 H   0  0  0  0  0  0  0  0  0  0  0  0
   -6.2494    0.7475    2.0418 H   0  0  0  0  0  0  0  0  0  0  0  0
   -6.8290    0.9649    0.3683 H   0  0  0  0  0  0  0  0  0  0  0  0
   -5.4954   -1.4719    0.5401 H   0  0  0  0  0  0  0  0  0  0  0  0
   -3.4145   -3.3259    0.5276 H   0  0  0  0  0  0  0  0  0  0  0  0
   -2.2702   -2.9676   -0.7780 H   0  0  0  0  0  0  0  0  0  0  0  0
   -3.9988   -3.1083   -1.1442 H   0  0  0  0  0  0  0  0  0  0  0  0
  1  2  1  0
  2  3  1  0
  3  4  2  3
  4  5  1  0
  5  6  2  0
  6  7  1  0
  7  8  2  0
  8  9  1  0
  9 10  2  0
  2 11  2  3
 11 12  1  0
 12 13  1  0
 13 14  2  0
 14 15  1  0
 15 16  1  0
 15 17  2  0
 17 18  1  0
 18 19  1  0
 18 20  2  0
 10  5  1  0
 20 13  1  0
  1 21  1  0
  1 22  1  0
  1 23  1  0
  3 24  1  0
  4 25  1  0
  6 26  1  0
  7 27  1  0
  8 28  1  0
  9 29  1  0
 10 30  1  0
 12 31  1  0
 16 32  1  0
 16 33  1  0
 16 34  1  0
 17 35  1  0
 19 36  1  0
 19 37  1  0
 19 38  1  0
M  END
$$$$
