
     RDKit          3D

 35 37  0  0  0  0  0  0  0  0999 V2000
    7.2666    1.2386   -1.6718 C   0  0  0  0  0  0  0  0  0  0  0  0
    5.8791    1.1537   -1.3322 O   0  0  0  0  0  0  0  0  0  0  0  0
    5.3515   -0.0943   -1.4071 C   0  0  0  0  0  0  0  0  0  0  0  0
    5.9472   -1.1082   -1.7440 O   0  0  0  0  0  0  0  0  0  0  0  0
    3.9096   -0.0730   -1.0362 C   0  0  0  0  0  0  0  0  0  0  0  0
    3.2449   -1.2952   -0.8851 C   0  0  0  0  0  0  0  0  0  0  0  0
    1.8823   -1.3247   -0.5668 C   0  0  0  0  0  0  0  0  0  0  0  0
    1.1644   -0.1348   -0.3927 C   0  0  0  0  0  0  0  0  0  0  0  0
   -0.2807   -0.2143   -0.1222 C   0  0  0  0  0  0  0  0  0  0  0  0
   -0.9832    0.4555    0.8182 C   0  0  0  0  0  0  0  0  0  0  0  0
   -0.3528    1.3370    1.7508 C   0  0  0  0  0  0  0  0  0  0  0  0
    0.1542    2.0654    2.5010 N   0  0  0  0  0  0  0  0  0  0  0  0
   -2.3976    0.2072    0.8911 C   0  0  0  0  0  0  0  0  0  0  0  0
   -3.0043   -0.9090    0.5197 N   0  0  0  0  0  0  0  0  0  0  0  0
   -4.3734   -0.8232    0.7046 C   0  0  0  0  0  0  0  0  0  0  0  0
   -5.3088   -1.8360    0.4193 C   0  0  0  0  0  0  0  0  0  0  0  0
   -6.6690   -1.6132    0.6545 C   0  0  0  0  0  0  0  0  0  0  0  0
   -7.1062   -0.3867    1.1520 C   0  0  0  0  0  0  0  0  0  0  0  0
   -6.1961    0.6341    1.4421 C   0  0  0  0  0  0  0  0  0  0  0  0
   -4.8307    0.3907    1.2153 C   0  0  0  0  0  0  0  0  0  0  0  0
   -3.4868    1.4266    1.4765 S   0  0  0  0  0  0  0  0  0  0  0  0
    1.8281    1.0867   -0.5631 C   0  0  0  0  0  0  0  0  0  0  0  0
    3.1936    1.1192   -0.8703 C   0  0  0  0  0  0  0  0  0  0  0  0
    7.3713    1.2934   -2.7604 H   0  0  0  0  0  0  0  0  0  0  0  0
    7.6674    2.1615   -1.2352 H   0  0  0  0  0  0  0  0  0  0  0  0
    7.8403    0.3971   -1.2665 H   0  0  0  0  0  0  0  0  0  0  0  0
    3.7827   -2.2323   -1.0231 H   0  0  0  0  0  0  0  0  0  0  0  0
    1.3892   -2.2895   -0.4610 H   0  0  0  0  0  0  0  0  0  0  0  0
   -0.8004   -0.9188   -0.7740 H   0  0  0  0  0  0  0  0  0  0  0  0
   -4.9638   -2.7902    0.0336 H   0  0  0  0  0  0  0  0  0  0  0  0
   -7.3889   -2.4027    0.4453 H   0  0  0  0  0  0  0  0  0  0  0  0
   -8.1681   -0.2242    1.3255 H   0  0  0  0  0  0  0  0  0  0  0  0
   -6.5383    1.5862    1.8412 H   0  0  0  0  0  0  0  0  0  0  0  0
    1.2977    2.0328   -0.4745 H   0  0  0  0  0  0  0  0  0  0  0  0
    3.6788    2.0848   -0.9920 H   0  0  0  0  0  0  0  0  0  0  0  0
  1  2  1  0
  2  3  1  0
  3  4  2  0
  3  5  1  0
  5  6  2  0
  6  7  1  0
  7  8  2  0
  8  9  1  0
  9 10  2  3
 10 11  1  0
 11 12  3  0
 10 13  1  0
 13 14  2  0
 14 15  1  0
 15 16  2  0
 16 17  1  0
 17 18  2  0
 18 19  1  0
 19 20  2  0
 20 21  1  0
  8 22  1  0
 22 23  2  0
 23  5  1  0
 21 13  1  0
 20 15  1  0
  1 24  1  0
  1 25  1  0
  1 26  1  0
  6 27  1  0
  7 28  1  0
  9 29  1  0
 16 30  1  0
 17 31  1  0
 18 32  1  0
 19 33  1  0
 22 34  1  0
 23 35  1  0
M  END
$$$$
