
     RDKit          3D

 37 39  0  0  0  0  0  0  0  0999 V2000
   -3.5092   -1.5621    1.3770 C   0  0  0  0  0  0  0  0  0  0  0  0
   -4.3600   -0.3975    0.9503 C   0  0  0  0  0  0  0  0  0  0  0  0
   -5.7398   -0.4179    1.2036 C   0  0  0  0  0  0  0  0  0  0  0  0
   -6.5468    0.6500    0.8162 C   0  0  0  0  0  0  0  0  0  0  0  0
   -5.9826    1.7469    0.1726 C   0  0  0  0  0  0  0  0  0  0  0  0
   -4.6100    1.7802   -0.0860 C   0  0  0  0  0  0  0  0  0  0  0  0
   -3.7919    0.7132    0.2989 C   0  0  0  0  0  0  0  0  0  0  0  0
   -2.4390    0.6484    0.0920 O   0  0  0  0  0  0  0  0  0  0  0  0
   -1.8210    1.7526   -0.5634 C   0  0  0  0  0  0  0  0  0  0  0  0
   -0.3140    1.5214   -0.7131 C   0  0  0  0  0  0  0  0  0  0  0  0
    0.3916    2.3653   -1.2583 O   0  0  0  0  0  0  0  0  0  0  0  0
    0.0943    0.3190   -0.1846 N   0  0  0  0  0  0  0  0  0  0  0  0
    1.3635   -0.1933   -0.1513 C   0  0  0  0  0  0  0  0  0  0  0  0
    1.6338   -1.3612    0.3842 N   0  0  0  0  0  0  0  0  0  0  0  0
    2.9762   -1.6692    0.3029 N   0  0  0  0  0  0  0  0  0  0  0  0
    3.6821   -0.7232   -0.2924 C   0  0  0  0  0  0  0  0  0  0  0  0
    5.1372   -0.7879   -0.5148 C   0  0  0  0  0  0  0  0  0  0  0  0
    5.8372   -1.9222   -0.0824 C   0  0  0  0  0  0  0  0  0  0  0  0
    7.2052   -1.9918   -0.2870 C   0  0  0  0  0  0  0  0  0  0  0  0
    7.9206   -1.0202   -0.8869 N   0  0  0  0  0  0  0  0  0  0  0  0
    7.2387    0.0669   -1.2989 C   0  0  0  0  0  0  0  0  0  0  0  0
    5.8705    0.2281   -1.1390 C   0  0  0  0  0  0  0  0  0  0  0  0
    2.7160    0.6130   -0.7907 S   0  0  0  0  0  0  0  0  0  0  0  0
   -3.0296   -2.0199    0.5057 H   0  0  0  0  0  0  0  0  0  0  0  0
   -4.1047   -2.3356    1.8732 H   0  0  0  0  0  0  0  0  0  0  0  0
   -2.7406   -1.2312    2.0831 H   0  0  0  0  0  0  0  0  0  0  0  0
   -6.1949   -1.2691    1.7056 H   0  0  0  0  0  0  0  0  0  0  0  0
   -7.6149    0.6253    1.0167 H   0  0  0  0  0  0  0  0  0  0  0  0
   -6.6122    2.5801   -0.1298 H   0  0  0  0  0  0  0  0  0  0  0  0
   -4.2166    2.6565   -0.5904 H   0  0  0  0  0  0  0  0  0  0  0  0
   -1.9486    2.6655    0.0296 H   0  0  0  0  0  0  0  0  0  0  0  0
   -2.2299    1.8713   -1.5733 H   0  0  0  0  0  0  0  0  0  0  0  0
   -0.6155   -0.2724    0.2347 H   0  0  0  0  0  0  0  0  0  0  0  0
    5.3279   -2.7465    0.4094 H   0  0  0  0  0  0  0  0  0  0  0  0
    7.7762   -2.8576    0.0369 H   0  0  0  0  0  0  0  0  0  0  0  0
    7.8394    0.8348   -1.7789 H   0  0  0  0  0  0  0  0  0  0  0  0
    5.4112    1.1401   -1.5039 H   0  0  0  0  0  0  0  0  0  0  0  0
  1  2  1  0
  2  3  2  0
  3  4  1  0
  4  5  2  0
  5  6  1  0
  6  7  2  0
  7  8  1  0
  8  9  1  0
  9 10  1  0
 10 11  2  0
 10 12  1  0
 12 13  1  0
 13 14  2  0
 14 15  1  0
 15 16  2  0
 16 17  1  0
 17 18  2  0
 18 19  1  0
 19 20  2  0
 20 21  1  0
 21 22  2  0
 16 23  1  0
  7  2  1  0
 23 13  1  0
 22 17  1  0
  1 24  1  0
  1 25  1  0
  1 26  1  0
  3 27  1  0
  4 28  1  0
  5 29  1  0
  6 30  1  0
  9 31  1  0
  9 32  1  0
 12 33  1  0
 18 34  1  0
 19 35  1  0
 21 36  1  0
 22 37  1  0
M  END
$$$$
