
     RDKit          3D

 36 37  0  0  0  0  0  0  0  0999 V2000
   -1.8318    0.8656    2.2368 O   0  0  0  0  0  0  0  0  0  0  0  0
   -0.7146    0.7093    1.7524 C   0  0  0  0  0  0  0  0  0  0  0  0
    0.5432    0.6018    2.6178 C   0  0  0  0  0  0  0  0  0  0  0  0
    1.6497   -0.0558    1.9954 O   0  0  0  0  0  0  0  0  0  0  0  0
    1.5495   -1.4060    1.9599 C   0  0  0  0  0  0  0  0  0  0  0  0
    0.6358   -2.0854    2.3928 O   0  0  0  0  0  0  0  0  0  0  0  0
    2.7916   -1.9792    1.4122 C   0  0  0  0  0  0  0  0  0  0  0  0
    3.4408   -2.9318    2.2138 C   0  0  0  0  0  0  0  0  0  0  0  0
    4.6236   -3.5242    1.7787 C   0  0  0  0  0  0  0  0  0  0  0  0
    5.1554   -3.1725    0.5398 C   0  0  0  0  0  0  0  0  0  0  0  0
    4.5008   -2.2374   -0.2720 C   0  0  0  0  0  0  0  0  0  0  0  0
    5.2284   -1.8797   -1.8007 Cl  0  0  0  0  0  0  0  0  0  0  0  0
    3.3059   -1.6355    0.1537 C   0  0  0  0  0  0  0  0  0  0  0  0
    2.4588   -0.5354   -0.8875 Cl  0  0  0  0  0  0  0  0  0  0  0  0
   -0.4773    0.6926    0.3959 N   0  0  0  0  0  0  0  0  0  0  0  0
   -1.5495    0.7509   -0.5792 C   0  0  0  0  0  0  0  0  0  0  0  0
   -2.1527    2.1520   -0.7271 C   0  0  0  0  0  0  0  0  0  0  0  0
   -3.0699    2.2341   -1.8509 N   0  0  0  0  0  0  0  0  0  0  0  0
   -4.4020    1.9141   -1.7681 C   0  0  0  0  0  0  0  0  0  0  0  0
   -4.9163    1.5445   -0.5638 O   0  0  0  0  0  0  0  0  0  0  0  0
   -5.0670    1.9971   -2.9259 C   0  0  0  0  0  0  0  0  0  0  0  0
   -4.0150    2.4837   -4.2214 S   0  0  0  0  0  0  0  0  0  0  0  0
   -2.6228    2.5502   -3.1231 C   0  0  0  0  0  0  0  0  0  0  0  0
   -1.4880    2.8173   -3.4820 O   0  0  0  0  0  0  0  0  0  0  0  0
    0.8640    1.6222    2.8529 H   0  0  0  0  0  0  0  0  0  0  0  0
    0.2905    0.1101    3.5646 H   0  0  0  0  0  0  0  0  0  0  0  0
    3.0226   -3.2111    3.1802 H   0  0  0  0  0  0  0  0  0  0  0  0
    5.1284   -4.2600    2.4015 H   0  0  0  0  0  0  0  0  0  0  0  0
    6.0800   -3.6381    0.2039 H   0  0  0  0  0  0  0  0  0  0  0  0
    0.4756    0.5742    0.0677 H   0  0  0  0  0  0  0  0  0  0  0  0
   -2.3243    0.0330   -0.2876 H   0  0  0  0  0  0  0  0  0  0  0  0
   -1.1272    0.4130   -1.5323 H   0  0  0  0  0  0  0  0  0  0  0  0
   -2.6636    2.4661    0.1903 H   0  0  0  0  0  0  0  0  0  0  0  0
   -1.3428    2.8736   -0.8931 H   0  0  0  0  0  0  0  0  0  0  0  0
   -5.8641    1.3583   -0.6704 H   0  0  0  0  0  0  0  0  0  0  0  0
   -6.1155    1.7883   -3.0780 H   0  0  0  0  0  0  0  0  0  0  0  0
  1  2  2  0
  2  3  1  0
  3  4  1  0
  4  5  1  0
  5  6  2  0
  5  7  1  0
  7  8  2  0
  8  9  1  0
  9 10  2  0
 10 11  1  0
 11 12  1  0
 11 13  2  0
 13 14  1  0
  2 15  1  0
 15 16  1  0
 16 17  1  0
 17 18  1  0
 18 19  1  0
 19 20  1  0
 19 21  2  0
 21 22  1  0
 22 23  1  0
 23 24  2  0
 13  7  1  0
 23 18  1  0
  3 25  1  0
  3 26  1  0
  8 27  1  0
  9 28  1  0
 10 29  1  0
 15 30  1  0
 16 31  1  0
 16 32  1  0
 17 33  1  0
 17 34  1  0
 20 35  1  0
 21 36  1  0
M  END
$$$$
