
     RDKit          3D

 61 63  0  0  0  0  0  0  0  0999 V2000
   -8.0255    3.0587    2.1545 C   0  0  0  0  0  0  0  0  0  0  0  0
   -8.4070    1.7402    1.7892 O   0  0  0  0  0  0  0  0  0  0  0  0
   -7.5754    1.0704    0.9331 C   0  0  0  0  0  0  0  0  0  0  0  0
   -7.9605   -0.2443    0.6528 C   0  0  0  0  0  0  0  0  0  0  0  0
   -7.2002   -1.0452   -0.2044 C   0  0  0  0  0  0  0  0  0  0  0  0
   -6.0415   -0.5369   -0.8035 C   0  0  0  0  0  0  0  0  0  0  0  0
   -5.1945   -1.4024   -1.7004 C   0  0  0  0  0  0  0  0  0  0  0  0
   -4.1490   -2.0451   -0.9508 N   0  0  0  0  0  0  0  0  0  0  0  0
   -2.8859   -1.5131   -0.8346 C   0  0  0  0  0  0  0  0  0  0  0  0
   -2.4528   -0.5421   -1.4362 O   0  0  0  0  0  0  0  0  0  0  0  0
   -2.0031   -2.2665    0.1900 C   0  0  0  0  0  0  0  0  0  0  0  0
   -2.4434   -3.2614    0.7535 O   0  0  0  0  0  0  0  0  0  0  0  0
   -0.7578   -1.7119    0.3845 N   0  0  0  0  0  0  0  0  0  0  0  0
    0.2477   -2.3470    1.2191 C   0  0  0  0  0  0  0  0  0  0  0  0
    1.1646   -1.3481    1.9636 C   0  0  0  0  0  0  0  0  0  0  0  0
    1.6934   -1.9957    3.1408 O   0  0  0  0  0  0  0  0  0  0  0  0
    2.9767   -2.4987    2.7649 C   0  0  0  0  0  0  0  0  0  0  0  0
    3.5411   -1.4195    1.8700 C   0  0  0  0  0  0  0  0  0  0  0  0
    2.3478   -0.8364    1.2322 N   0  0  0  0  0  0  0  0  0  0  0  0
    2.3098   -0.7136   -0.4351 S   0  0  0  0  0  6  0  0  0  0  0  0
    2.6571   -2.0105   -0.9758 O   0  0  0  0  0  0  0  0  0  0  0  0
    1.0818   -0.0469   -0.8109 O   0  0  0  0  0  0  0  0  0  0  0  0
    3.6466    0.4077   -0.7607 C   0  0  0  0  0  0  0  0  0  0  0  0
    3.4834    1.7595   -0.4543 C   0  0  0  0  0  0  0  0  0  0  0  0
    4.5325    2.6495   -0.6888 C   0  0  0  0  0  0  0  0  0  0  0  0
    5.7386    2.1915   -1.2338 C   0  0  0  0  0  0  0  0  0  0  0  0
    6.8274    2.9893   -1.4850 O   0  0  0  0  0  0  0  0  0  0  0  0
    6.7094    4.3758   -1.2052 C   0  0  0  0  0  0  0  0  0  0  0  0
    5.8856    0.8254   -1.5635 C   0  0  0  0  0  0  0  0  0  0  0  0
    7.0973    0.4608   -2.0969 O   0  0  0  0  0  0  0  0  0  0  0  0
    7.2200   -0.8519   -2.6268 C   0  0  0  0  0  0  0  0  0  0  0  0
    4.8342   -0.0646   -1.3257 C   0  0  0  0  0  0  0  0  0  0  0  0
   -5.6555    0.7805   -0.5159 C   0  0  0  0  0  0  0  0  0  0  0  0
   -6.4187    1.5799    0.3443 C   0  0  0  0  0  0  0  0  0  0  0  0
   -8.0145    3.7223    1.2852 H   0  0  0  0  0  0  0  0  0  0  0  0
   -7.0581    3.0605    2.6677 H   0  0  0  0  0  0  0  0  0  0  0  0
   -8.7747    3.4412    2.8535 H   0  0  0  0  0  0  0  0  0  0  0  0
   -8.8596   -0.6506    1.1114 H   0  0  0  0  0  0  0  0  0  0  0  0
   -7.5192   -2.0680   -0.3947 H   0  0  0  0  0  0  0  0  0  0  0  0
   -4.7689   -0.8090   -2.5179 H   0  0  0  0  0  0  0  0  0  0  0  0
   -5.8045   -2.1912   -2.1515 H   0  0  0  0  0  0  0  0  0  0  0  0
   -4.3832   -2.7891   -0.2993 H   0  0  0  0  0  0  0  0  0  0  0  0
   -0.4870   -0.9656   -0.2650 H   0  0  0  0  0  0  0  0  0  0  0  0
   -0.2681   -2.9714    1.9591 H   0  0  0  0  0  0  0  0  0  0  0  0
    0.8190   -3.0394    0.5924 H   0  0  0  0  0  0  0  0  0  0  0  0
    0.5730   -0.4941    2.3134 H   0  0  0  0  0  0  0  0  0  0  0  0
    3.5884   -2.6771    3.6534 H   0  0  0  0  0  0  0  0  0  0  0  0
    2.8459   -3.4433    2.2252 H   0  0  0  0  0  0  0  0  0  0  0  0
    4.2802   -1.8235    1.1730 H   0  0  0  0  0  0  0  0  0  0  0  0
    4.0205   -0.6325    2.4646 H   0  0  0  0  0  0  0  0  0  0  0  0
    2.5480    2.1234   -0.0317 H   0  0  0  0  0  0  0  0  0  0  0  0
    4.3783    3.6930   -0.4352 H   0  0  0  0  0  0  0  0  0  0  0  0
    6.5171    4.5562   -0.1419 H   0  0  0  0  0  0  0  0  0  0  0  0
    7.6646    4.8482   -1.4529 H   0  0  0  0  0  0  0  0  0  0  0  0
    5.9373    4.8370   -1.8297 H   0  0  0  0  0  0  0  0  0  0  0  0
    8.2081   -0.9356   -3.0921 H   0  0  0  0  0  0  0  0  0  0  0  0
    6.4708   -1.0399   -3.4026 H   0  0  0  0  0  0  0  0  0  0  0  0
    7.1651   -1.6017   -1.8316 H   0  0  0  0  0  0  0  0  0  0  0  0
    4.9210   -1.1187   -1.5641 H   0  0  0  0  0  0  0  0  0  0  0  0
   -4.7466    1.1899   -0.9582 H   0  0  0  0  0  0  0  0  0  0  0  0
   -6.0772    2.5915    0.5331 H   0  0  0  0  0  0  0  0  0  0  0  0
  1  2  1  0
  2  3  1  0
  3  4  2  0
  4  5  1  0
  5  6  2  0
  6  7  1  0
  7  8  1  0
  8  9  1  0
  9 10  2  0
  9 11  1  0
 11 12  2  0
 11 13  1  0
 13 14  1  0
 14 15  1  0
 15 16  1  0
 16 17  1  0
 17 18  1  0
 18 19  1  0
 19 20  1  0
 20 21  2  0
 20 22  2  0
 20 23  1  0
 23 24  2  0
 24 25  1  0
 25 26  2  0
 26 27  1  0
 27 28  1  0
 26 29  1  0
 29 30  1  0
 30 31  1  0
 29 32  2  0
  6 33  1  0
 33 34  2  0
 34  3  1  0
 19 15  1  0
 32 23  1  0
  1 35  1  0
  1 36  1  0
  1 37  1  0
  4 38  1  0
  5 39  1  0
  7 40  1  0
  7 41  1  0
  8 42  1  0
 13 43  1  0
 14 44  1  0
 14 45  1  0
 15 46  1  0
 17 47  1  0
 17 48  1  0
 18 49  1  0
 18 50  1  0
 24 51  1  0
 25 52  1  0
 28 53  1  0
 28 54  1  0
 28 55  1  0
 31 56  1  0
 31 57  1  0
 31 58  1  0
 32 59  1  0
 33 60  1  0
 34 61  1  0
M  END
$$$$
