
     RDKit          3D

 36 37  0  0  0  0  0  0  0  0999 V2000
   -2.7191   -1.2622    2.3509 C   0  0  0  0  0  0  0  0  0  0  0  0
   -3.4781   -0.6269    1.2014 C   0  0  0  0  0  0  0  0  0  0  0  0
   -2.6285   -0.5049    0.0502 O   0  0  0  0  0  0  0  0  0  0  0  0
   -1.8645    0.6136   -0.0043 C   0  0  0  0  0  0  0  0  0  0  0  0
   -1.8217    1.4960    0.8395 O   0  0  0  0  0  0  0  0  0  0  0  0
   -1.0341    0.6307   -1.2383 C   0  0  0  0  0  0  0  0  0  0  0  0
   -1.3545   -0.2049   -2.3226 C   0  0  0  0  0  0  0  0  0  0  0  0
   -0.6005   -0.1622   -3.4961 C   0  0  0  0  0  0  0  0  0  0  0  0
    0.4688    0.7217   -3.6021 C   0  0  0  0  0  0  0  0  0  0  0  0
    0.7952    1.5561   -2.5318 C   0  0  0  0  0  0  0  0  0  0  0  0
    0.0638    1.5086   -1.3392 C   0  0  0  0  0  0  0  0  0  0  0  0
    0.4535    2.3576   -0.2467 N   0  0  0  0  0  0  0  0  0  0  0  0
    1.9876    2.1657    0.4449 S   0  0  0  0  0  6  0  0  0  0  0  0
    2.9882    2.4186   -0.5733 O   0  0  0  0  0  0  0  0  0  0  0  0
    2.0066    2.9132    1.6828 O   0  0  0  0  0  0  0  0  0  0  0  0
    2.0561    0.4464    0.8356 C   0  0  0  0  0  0  0  0  0  0  0  0
    2.8817   -0.4143    0.1035 C   0  0  0  0  0  0  0  0  0  0  0  0
    2.9271   -1.7703    0.4330 C   0  0  0  0  0  0  0  0  0  0  0  0
    2.1584   -2.2596    1.4908 C   0  0  0  0  0  0  0  0  0  0  0  0
    1.3445   -1.3930    2.2213 C   0  0  0  0  0  0  0  0  0  0  0  0
    1.2994   -0.0407    1.8921 C   0  0  0  0  0  0  0  0  0  0  0  0
    0.4908    0.7598    2.5970 F   0  0  0  0  0  0  0  0  0  0  0  0
   -1.8948   -0.6212    2.6775 H   0  0  0  0  0  0  0  0  0  0  0  0
   -3.3814   -1.4361    3.2036 H   0  0  0  0  0  0  0  0  0  0  0  0
   -2.2794   -2.2164    2.0428 H   0  0  0  0  0  0  0  0  0  0  0  0
   -4.3145   -1.2716    0.9124 H   0  0  0  0  0  0  0  0  0  0  0  0
   -3.9023    0.3426    1.4869 H   0  0  0  0  0  0  0  0  0  0  0  0
   -2.1997   -0.8879   -2.2721 H   0  0  0  0  0  0  0  0  0  0  0  0
   -0.8569   -0.8087   -4.3326 H   0  0  0  0  0  0  0  0  0  0  0  0
    1.0487    0.7703   -4.5213 H   0  0  0  0  0  0  0  0  0  0  0  0
    1.6214    2.2549   -2.6470 H   0  0  0  0  0  0  0  0  0  0  0  0
   -0.2589    2.4891    0.4884 H   0  0  0  0  0  0  0  0  0  0  0  0
    3.4885   -0.0403   -0.7187 H   0  0  0  0  0  0  0  0  0  0  0  0
    3.5665   -2.4453   -0.1321 H   0  0  0  0  0  0  0  0  0  0  0  0
    2.1975   -3.3155    1.7487 H   0  0  0  0  0  0  0  0  0  0  0  0
    0.7442   -1.7625    3.0476 H   0  0  0  0  0  0  0  0  0  0  0  0
  1  2  1  0
  2  3  1  0
  3  4  1  0
  4  5  2  0
  4  6  1  0
  6  7  2  0
  7  8  1  0
  8  9  2  0
  9 10  1  0
 10 11  2  0
 11 12  1  0
 12 13  1  0
 13 14  2  0
 13 15  2  0
 13 16  1  0
 16 17  2  0
 17 18  1  0
 18 19  2  0
 19 20  1  0
 20 21  2  0
 21 22  1  0
 11  6  1  0
 21 16  1  0
  1 23  1  0
  1 24  1  0
  1 25  1  0
  2 26  1  0
  2 27  1  0
  7 28  1  0
  8 29  1  0
  9 30  1  0
 10 31  1  0
 12 32  1  0
 17 33  1  0
 18 34  1  0
 19 35  1  0
 20 36  1  0
M  END
$$$$
