
     RDKit          3D

 51 54  0  0  0  0  0  0  0  0999 V2000
    2.9856    0.2490   -0.7372 O   0  0  0  0  0  0  0  0  0  0  0  0
    3.2014    0.3733    0.4661 C   0  0  0  0  0  0  0  0  0  0  0  0
    2.1056    0.1165    1.5041 C   0  0  0  0  0  0  0  0  0  0  0  0
    0.9621   -0.5229    0.8948 N   0  0  0  0  0  0  0  0  0  0  0  0
   -0.1740   -0.7812    1.6215 C   0  0  0  0  0  0  0  0  0  0  0  0
   -0.2783   -0.6413    2.8290 O   0  0  0  0  0  0  0  0  0  0  0  0
   -1.3517   -1.2409    0.7642 C   0  0  0  0  0  0  0  0  0  0  0  0
   -1.4954   -0.6141   -0.3674 N   0  0  0  0  0  0  0  0  0  0  0  0
   -2.5403   -0.9618   -1.1944 N   0  0  0  0  0  0  0  0  0  0  0  0
   -2.6910   -0.1731   -2.4151 C   0  0  0  0  0  0  0  0  0  0  0  0
   -3.4676    1.1016   -2.1780 C   0  0  0  0  0  0  0  0  0  0  0  0
   -2.8065    2.2776   -1.7954 C   0  0  0  0  0  0  0  0  0  0  0  0
   -3.5260    3.4507   -1.5626 C   0  0  0  0  0  0  0  0  0  0  0  0
   -4.9129    3.4583   -1.7021 C   0  0  0  0  0  0  0  0  0  0  0  0
   -5.5821    2.2922   -2.0692 C   0  0  0  0  0  0  0  0  0  0  0  0
   -4.8643    1.1184   -2.3029 C   0  0  0  0  0  0  0  0  0  0  0  0
   -3.4775   -1.9467   -0.8976 C   0  0  0  0  0  0  0  0  0  0  0  0
   -4.4191   -2.2494   -1.6273 O   0  0  0  0  0  0  0  0  0  0  0  0
   -3.2901   -2.6689    0.3753 C   0  0  0  0  0  0  0  0  0  0  0  0
   -4.1727   -3.6990    0.7304 C   0  0  0  0  0  0  0  0  0  0  0  0
   -3.9854   -4.3982    1.9216 C   0  0  0  0  0  0  0  0  0  0  0  0
   -2.9169   -4.0732    2.7546 C   0  0  0  0  0  0  0  0  0  0  0  0
   -2.0368   -3.0457    2.4020 C   0  0  0  0  0  0  0  0  0  0  0  0
   -2.2291   -2.3338    1.2113 C   0  0  0  0  0  0  0  0  0  0  0  0
    4.3925    0.7742    1.0444 N   0  0  0  0  0  0  0  0  0  0  0  0
    5.5965    1.1185    0.3900 C   0  0  0  0  0  0  0  0  0  0  0  0
    5.7673    1.1272   -0.9975 C   0  0  0  0  0  0  0  0  0  0  0  0
    7.0017    1.4876   -1.5538 C   0  0  0  0  0  0  0  0  0  0  0  0
    8.0632    1.8356   -0.7243 C   0  0  0  0  0  0  0  0  0  0  0  0
    9.2389    2.1741   -1.2700 F   0  0  0  0  0  0  0  0  0  0  0  0
    7.9077    1.8288    0.6528 C   0  0  0  0  0  0  0  0  0  0  0  0
    8.9330    2.1585    1.4504 F   0  0  0  0  0  0  0  0  0  0  0  0
    6.6824    1.4747    1.2028 C   0  0  0  0  0  0  0  0  0  0  0  0
    6.5294    1.4664    2.5376 F   0  0  0  0  0  0  0  0  0  0  0  0
    1.7865    1.0734    1.9301 H   0  0  0  0  0  0  0  0  0  0  0  0
    2.4808   -0.5309    2.3033 H   0  0  0  0  0  0  0  0  0  0  0  0
    0.8641   -0.4628   -0.1181 H   0  0  0  0  0  0  0  0  0  0  0  0
   -1.6916    0.0578   -2.8049 H   0  0  0  0  0  0  0  0  0  0  0  0
   -3.1895   -0.7725   -3.1864 H   0  0  0  0  0  0  0  0  0  0  0  0
   -1.7258    2.2793   -1.6697 H   0  0  0  0  0  0  0  0  0  0  0  0
   -3.0046    4.3571   -1.2673 H   0  0  0  0  0  0  0  0  0  0  0  0
   -5.4731    4.3710   -1.5181 H   0  0  0  0  0  0  0  0  0  0  0  0
   -6.6641    2.2937   -2.1690 H   0  0  0  0  0  0  0  0  0  0  0  0
   -5.4000    0.2109   -2.5772 H   0  0  0  0  0  0  0  0  0  0  0  0
   -5.0051   -3.9588    0.0782 H   0  0  0  0  0  0  0  0  0  0  0  0
   -4.6709   -5.1966    2.1975 H   0  0  0  0  0  0  0  0  0  0  0  0
   -2.7682   -4.6186    3.6843 H   0  0  0  0  0  0  0  0  0  0  0  0
   -1.2158   -2.8223    3.0782 H   0  0  0  0  0  0  0  0  0  0  0  0
    4.4276    0.8295    2.0600 H   0  0  0  0  0  0  0  0  0  0  0  0
    4.9623    0.8613   -1.6771 H   0  0  0  0  0  0  0  0  0  0  0  0
    7.1376    1.4959   -2.6320 H   0  0  0  0  0  0  0  0  0  0  0  0
  1  2  2  0
  2  3  1  0
  3  4  1  0
  4  5  1  0
  5  6  2  0
  5  7  1  0
  7  8  2  0
  8  9  1  0
  9 10  1  0
 10 11  1  0
 11 12  2  0
 12 13  1  0
 13 14  2  0
 14 15  1  0
 15 16  2  0
  9 17  1  0
 17 18  2  0
 17 19  1  0
 19 20  2  0
 20 21  1  0
 21 22  2  0
 22 23  1  0
 23 24  2  0
  2 25  1  0
 25 26  1  0
 26 27  2  0
 27 28  1  0
 28 29  2  0
 29 30  1  0
 29 31  1  0
 31 32  1  0
 31 33  2  0
 33 34  1  0
 24  7  1  0
 33 26  1  0
 16 11  1  0
 24 19  1  0
  3 35  1  0
  3 36  1  0
  4 37  1  0
 10 38  1  0
 10 39  1  0
 12 40  1  0
 13 41  1  0
 14 42  1  0
 15 43  1  0
 16 44  1  0
 20 45  1  0
 21 46  1  0
 22 47  1  0
 23 48  1  0
 25 49  1  0
 27 50  1  0
 28 51  1  0
M  END
$$$$
