
     RDKit          3D

 26 27  0  0  0  0  0  0  0  0999 V2000
    1.2159   -1.3212   -2.1072 O   0  0  0  0  0  0  0  0  0  0  0  0
    1.5479   -0.6077   -1.1646 C   0  0  0  0  0  0  0  0  0  0  0  0
    2.8294    0.2011   -1.2212 C   0  0  0  0  0  0  0  0  0  0  0  0
    3.0158    1.0675    0.0195 C   0  0  0  0  0  0  0  0  0  0  0  0
    2.9214    0.2260    1.2873 C   0  0  0  0  0  0  0  0  0  0  0  0
    1.6416   -0.5856    1.3386 C   0  0  0  0  0  0  0  0  0  0  0  0
    1.3818   -1.2859    2.3134 O   0  0  0  0  0  0  0  0  0  0  0  0
    0.7769   -0.5501    0.1172 C   0  0  0  0  0  0  0  0  0  0  0  0
   -0.5587   -0.3337    0.1675 C   0  0  0  0  0  0  0  0  0  0  0  0
   -1.3897   -0.1128    1.7072 S   0  0  0  0  0  0  0  0  0  0  0  0
   -2.9768   -0.8945    1.3117 C   0  0  0  0  0  0  0  0  0  0  0  0
   -3.7881   -0.0867    0.3026 C   0  0  0  0  0  0  0  0  0  0  0  0
   -2.9819    0.7184   -0.7125 C   0  0  0  0  0  0  0  0  0  0  0  0
   -1.5113   -0.1558   -1.3078 S   0  0  0  0  0  0  0  0  0  0  0  0
    2.7970    0.8376   -2.1116 H   0  0  0  0  0  0  0  0  0  0  0  0
    3.6661   -0.4997   -1.3181 H   0  0  0  0  0  0  0  0  0  0  0  0
    2.2490    1.8526    0.0398 H   0  0  0  0  0  0  0  0  0  0  0  0
    3.9883    1.5705   -0.0211 H   0  0  0  0  0  0  0  0  0  0  0  0
    2.9513    0.8798    2.1651 H   0  0  0  0  0  0  0  0  0  0  0  0
    3.7649   -0.4717    1.3374 H   0  0  0  0  0  0  0  0  0  0  0  0
   -2.7894   -1.9056    0.9315 H   0  0  0  0  0  0  0  0  0  0  0  0
   -3.5521   -1.0124    2.2360 H   0  0  0  0  0  0  0  0  0  0  0  0
   -4.4630   -0.7733   -0.2249 H   0  0  0  0  0  0  0  0  0  0  0  0
   -4.4460    0.6082    0.8407 H   0  0  0  0  0  0  0  0  0  0  0  0
   -3.6161    0.9547   -1.5737 H   0  0  0  0  0  0  0  0  0  0  0  0
   -2.6744    1.6804   -0.2859 H   0  0  0  0  0  0  0  0  0  0  0  0
  1  2  2  0
  2  3  1  0
  3  4  1  0
  4  5  1  0
  5  6  1  0
  6  7  2  0
  6  8  1  0
  8  9  2  3
  9 10  1  0
 10 11  1  0
 11 12  1  0
 12 13  1  0
 13 14  1  0
  8  2  1  0
 14  9  1  0
  3 15  1  0
  3 16  1  0
  4 17  1  0
  4 18  1  0
  5 19  1  0
  5 20  1  0
 11 21  1  0
 11 22  1  0
 12 23  1  0
 12 24  1  0
 13 25  1  0
 13 26  1  0
M  END
$$$$
