
     RDKit          3D

 61 63  0  0  0  0  0  0  0  0999 V2000
   -4.4845   -3.7155    1.3443 C   0  0  0  0  0  0  0  0  0  0  0  0
   -3.3534   -3.3079    0.5814 O   0  0  0  0  0  0  0  0  0  0  0  0
   -3.4157   -2.0774   -0.0049 C   0  0  0  0  0  0  0  0  0  0  0  0
   -4.4452   -1.1532    0.1484 C   0  0  0  0  0  0  0  0  0  0  0  0
   -4.3742    0.0877   -0.4887 C   0  0  0  0  0  0  0  0  0  0  0  0
   -3.2749    0.4195   -1.2912 C   0  0  0  0  0  0  0  0  0  0  0  0
   -3.1716    1.7861   -1.9188 C   0  0  0  0  0  0  0  0  0  0  0  0
   -2.7070    2.7441   -0.9527 N   0  0  0  0  0  0  0  0  0  0  0  0
   -1.3629    2.9229   -0.7242 C   0  0  0  0  0  0  0  0  0  0  0  0
   -0.4438    2.5493   -1.4398 O   0  0  0  0  0  0  0  0  0  0  0  0
   -1.0567    3.5815    0.6386 C   0  0  0  0  0  0  0  0  0  0  0  0
   -1.9744    3.9506    1.3573 O   0  0  0  0  0  0  0  0  0  0  0  0
    0.2873    3.6092    0.9283 N   0  0  0  0  0  0  0  0  0  0  0  0
    0.7348    3.5184    2.3106 C   0  0  0  0  0  0  0  0  0  0  0  0
    0.6750    2.0724    2.8562 C   0  0  0  0  0  0  0  0  0  0  0  0
   -0.6799    1.7077    3.1586 O   0  0  0  0  0  0  0  0  0  0  0  0
   -0.7317    0.2871    3.0188 C   0  0  0  0  0  0  0  0  0  0  0  0
    0.1402    0.0049    1.8186 C   0  0  0  0  0  0  0  0  0  0  0  0
    1.1377    1.0951    1.8333 N   0  0  0  0  0  0  0  0  0  0  0  0
    2.7609    0.6775    1.9850 S   0  0  0  0  0  6  0  0  0  0  0  0
    2.8672   -0.1740    3.1499 O   0  0  0  0  0  0  0  0  0  0  0  0
    3.5395    1.8897    1.8624 O   0  0  0  0  0  0  0  0  0  0  0  0
    3.0755   -0.3044    0.5425 C   0  0  0  0  0  0  0  0  0  0  0  0
    3.6823   -1.5548    0.6799 C   0  0  0  0  0  0  0  0  0  0  0  0
    3.8998   -2.3425   -0.4509 C   0  0  0  0  0  0  0  0  0  0  0  0
    3.5161   -1.8828   -1.7162 C   0  0  0  0  0  0  0  0  0  0  0  0
    3.6901   -2.5878   -2.8807 O   0  0  0  0  0  0  0  0  0  0  0  0
    4.2696   -3.8803   -2.7943 C   0  0  0  0  0  0  0  0  0  0  0  0
    2.9186   -0.6101   -1.8472 C   0  0  0  0  0  0  0  0  0  0  0  0
    2.5701   -0.2348   -3.1228 O   0  0  0  0  0  0  0  0  0  0  0  0
    2.3774    1.1540   -3.3565 C   0  0  0  0  0  0  0  0  0  0  0  0
    2.6910    0.1743   -0.7122 C   0  0  0  0  0  0  0  0  0  0  0  0
   -2.2417   -0.5158   -1.4461 C   0  0  0  0  0  0  0  0  0  0  0  0
   -2.3160   -1.7529   -0.8074 C   0  0  0  0  0  0  0  0  0  0  0  0
   -4.6220   -3.0729    2.2177 H   0  0  0  0  0  0  0  0  0  0  0  0
   -5.3884   -3.7402    0.7303 H   0  0  0  0  0  0  0  0  0  0  0  0
   -4.2992   -4.7321    1.7044 H   0  0  0  0  0  0  0  0  0  0  0  0
   -5.3160   -1.3586    0.7635 H   0  0  0  0  0  0  0  0  0  0  0  0
   -5.1859    0.7994   -0.3501 H   0  0  0  0  0  0  0  0  0  0  0  0
   -4.1500    2.1130   -2.2780 H   0  0  0  0  0  0  0  0  0  0  0  0
   -2.4957    1.7656   -2.7799 H   0  0  0  0  0  0  0  0  0  0  0  0
   -3.3068    2.9828   -0.1682 H   0  0  0  0  0  0  0  0  0  0  0  0
    0.8625    3.1211    0.2459 H   0  0  0  0  0  0  0  0  0  0  0  0
    0.1165    4.1825    2.9223 H   0  0  0  0  0  0  0  0  0  0  0  0
    1.7676    3.8786    2.3187 H   0  0  0  0  0  0  0  0  0  0  0  0
    1.2418    2.0007    3.7908 H   0  0  0  0  0  0  0  0  0  0  0  0
   -1.7634   -0.0411    2.8776 H   0  0  0  0  0  0  0  0  0  0  0  0
   -0.3313   -0.1727    3.9288 H   0  0  0  0  0  0  0  0  0  0  0  0
   -0.4320    0.1073    0.8910 H   0  0  0  0  0  0  0  0  0  0  0  0
    0.5629   -1.0024    1.8479 H   0  0  0  0  0  0  0  0  0  0  0  0
    3.9918   -1.9230    1.6568 H   0  0  0  0  0  0  0  0  0  0  0  0
    4.3748   -3.3083   -0.3131 H   0  0  0  0  0  0  0  0  0  0  0  0
    5.2943   -3.8302   -2.4119 H   0  0  0  0  0  0  0  0  0  0  0  0
    3.6542   -4.5507   -2.1868 H   0  0  0  0  0  0  0  0  0  0  0  0
    4.3136   -4.2944   -3.8088 H   0  0  0  0  0  0  0  0  0  0  0  0
    2.3295    1.3086   -4.4389 H   0  0  0  0  0  0  0  0  0  0  0  0
    3.2131    1.7455   -2.9741 H   0  0  0  0  0  0  0  0  0  0  0  0
    1.4282    1.4888   -2.9332 H   0  0  0  0  0  0  0  0  0  0  0  0
    2.2085    1.1423   -0.7844 H   0  0  0  0  0  0  0  0  0  0  0  0
   -1.3644   -0.2790   -2.0487 H   0  0  0  0  0  0  0  0  0  0  0  0
   -1.5037   -2.4682   -0.9311 H   0  0  0  0  0  0  0  0  0  0  0  0
  1  2  1  0
  2  3  1  0
  3  4  2  0
  4  5  1  0
  5  6  2  0
  6  7  1  0
  7  8  1  0
  8  9  1  0
  9 10  2  0
  9 11  1  0
 11 12  2  0
 11 13  1  0
 13 14  1  0
 14 15  1  0
 15 16  1  0
 16 17  1  0
 17 18  1  0
 18 19  1  0
 19 20  1  0
 20 21  2  0
 20 22  2  0
 20 23  1  0
 23 24  2  0
 24 25  1  0
 25 26  2  0
 26 27  1  0
 27 28  1  0
 26 29  1  0
 29 30  1  0
 30 31  1  0
 29 32  2  0
  6 33  1  0
 33 34  2  0
 34  3  1  0
 19 15  1  0
 32 23  1  0
  1 35  1  0
  1 36  1  0
  1 37  1  0
  4 38  1  0
  5 39  1  0
  7 40  1  0
  7 41  1  0
  8 42  1  0
 13 43  1  0
 14 44  1  0
 14 45  1  0
 15 46  1  0
 17 47  1  0
 17 48  1  0
 18 49  1  0
 18 50  1  0
 24 51  1  0
 25 52  1  0
 28 53  1  0
 28 54  1  0
 28 55  1  0
 31 56  1  0
 31 57  1  0
 31 58  1  0
 32 59  1  0
 33 60  1  0
 34 61  1  0
M  END
$$$$
