
     RDKit          3D

 54 56  0  0  0  0  0  0  0  0999 V2000
   10.1363    1.0389   -2.4002 C   0  0  0  0  0  0  0  0  0  0  0  0
    9.9736    0.4571   -1.1126 O   0  0  0  0  0  0  0  0  0  0  0  0
    8.8152    0.7477   -0.4464 C   0  0  0  0  0  0  0  0  0  0  0  0
    8.6580    0.0804    0.7698 C   0  0  0  0  0  0  0  0  0  0  0  0
    7.5188    0.2815    1.5532 C   0  0  0  0  0  0  0  0  0  0  0  0
    6.5192    1.1651    1.1320 C   0  0  0  0  0  0  0  0  0  0  0  0
    5.2802    1.3744    1.9653 C   0  0  0  0  0  0  0  0  0  0  0  0
    4.0964    0.5617    1.4378 C   0  0  0  0  0  0  0  0  0  0  0  0
    2.8635    0.7481    2.3219 C   0  0  0  0  0  0  0  0  0  0  0  0
    1.6898    0.0057    1.8035 C   0  0  0  0  0  0  0  0  0  0  0  0
    1.6262   -1.1463    1.1714 N   0  0  0  0  0  0  0  0  0  0  0  0
    0.2888   -1.3787    0.9282 N   0  0  0  0  0  0  0  0  0  0  0  0
   -0.3733   -0.3596    1.4363 C   0  0  0  0  0  0  0  0  0  0  0  0
   -2.0968   -0.1661    1.3879 S   0  0  0  0  0  0  0  0  0  0  0  0
   -2.5613   -1.7148    0.5599 C   0  0  0  0  0  0  0  0  0  0  0  0
   -4.0703   -1.7829    0.3916 C   0  0  0  0  0  0  0  0  0  0  0  0
   -4.7265   -2.6515    0.9588 O   0  0  0  0  0  0  0  0  0  0  0  0
   -4.5616   -0.8129   -0.4659 N   0  0  0  0  0  0  0  0  0  0  0  0
   -5.8955   -0.6043   -0.8881 C   0  0  0  0  0  0  0  0  0  0  0  0
   -6.9481   -1.4591   -0.5507 C   0  0  0  0  0  0  0  0  0  0  0  0
   -8.2631   -1.2173   -0.9965 C   0  0  0  0  0  0  0  0  0  0  0  0
   -9.3547   -2.1778   -0.6054 C   0  0  0  0  0  0  0  0  0  0  0  0
   -8.5286   -0.0989   -1.8094 C   0  0  0  0  0  0  0  0  0  0  0  0
   -9.9161    0.1990   -2.3095 C   0  0  0  0  0  0  0  0  0  0  0  0
   -7.4761    0.7626   -2.1469 C   0  0  0  0  0  0  0  0  0  0  0  0
   -6.1776    0.5107   -1.6938 C   0  0  0  0  0  0  0  0  0  0  0  0
   -4.8097    1.7331   -2.2068 Br  0  0  0  0  0  0  0  0  0  0  0  0
    0.4588    0.5660    2.0100 O   0  0  0  0  0  0  0  0  0  0  0  0
    6.6800    1.8346   -0.0876 C   0  0  0  0  0  0  0  0  0  0  0  0
    7.8209    1.6283   -0.8720 C   0  0  0  0  0  0  0  0  0  0  0  0
    9.3346    0.7288   -3.0798 H   0  0  0  0  0  0  0  0  0  0  0  0
   10.1992    2.1305   -2.3345 H   0  0  0  0  0  0  0  0  0  0  0  0
   11.0818    0.6756   -2.8138 H   0  0  0  0  0  0  0  0  0  0  0  0
    9.4290   -0.6078    1.1085 H   0  0  0  0  0  0  0  0  0  0  0  0
    7.4214   -0.2592    2.4916 H   0  0  0  0  0  0  0  0  0  0  0  0
    5.0332    2.4432    1.9770 H   0  0  0  0  0  0  0  0  0  0  0  0
    5.4873    1.1009    3.0076 H   0  0  0  0  0  0  0  0  0  0  0  0
    3.8635    0.8639    0.4085 H   0  0  0  0  0  0  0  0  0  0  0  0
    4.3660   -0.5015    1.3939 H   0  0  0  0  0  0  0  0  0  0  0  0
    2.6189    1.8154    2.3889 H   0  0  0  0  0  0  0  0  0  0  0  0
    3.0782    0.4011    3.3395 H   0  0  0  0  0  0  0  0  0  0  0  0
   -2.2370   -2.5727    1.1591 H   0  0  0  0  0  0  0  0  0  0  0  0
   -2.0947   -1.7818   -0.4287 H   0  0  0  0  0  0  0  0  0  0  0  0
   -3.9018   -0.1085   -0.7823 H   0  0  0  0  0  0  0  0  0  0  0  0
   -6.7721   -2.3375    0.0640 H   0  0  0  0  0  0  0  0  0  0  0  0
   -9.7346   -2.6976   -1.4906 H   0  0  0  0  0  0  0  0  0  0  0  0
  -10.1750   -1.6444   -0.1139 H   0  0  0  0  0  0  0  0  0  0  0  0
   -8.9931   -2.9362    0.0974 H   0  0  0  0  0  0  0  0  0  0  0  0
  -10.5775    0.4385   -1.4707 H   0  0  0  0  0  0  0  0  0  0  0  0
  -10.3174   -0.6587   -2.8590 H   0  0  0  0  0  0  0  0  0  0  0  0
   -9.9213    1.0549   -2.9933 H   0  0  0  0  0  0  0  0  0  0  0  0
   -7.6706    1.6342   -2.7687 H   0  0  0  0  0  0  0  0  0  0  0  0
    5.9145    2.5233   -0.4393 H   0  0  0  0  0  0  0  0  0  0  0  0
    7.9006    2.1714   -1.8073 H   0  0  0  0  0  0  0  0  0  0  0  0
  1  2  1  0
  2  3  1  0
  3  4  2  0
  4  5  1  0
  5  6  2  0
  6  7  1  0
  7  8  1  0
  8  9  1  0
  9 10  1  0
 10 11  2  0
 11 12  1  0
 12 13  2  0
 13 14  1  0
 14 15  1  0
 15 16  1  0
 16 17  2  0
 16 18  1  0
 18 19  1  0
 19 20  2  0
 20 21  1  0
 21 22  1  0
 21 23  2  0
 23 24  1  0
 23 25  1  0
 25 26  2  0
 26 27  1  0
 13 28  1  0
  6 29  1  0
 29 30  2  0
 30  3  1  0
 28 10  1  0
 26 19  1  0
  1 31  1  0
  1 32  1  0
  1 33  1  0
  4 34  1  0
  5 35  1  0
  7 36  1  0
  7 37  1  0
  8 38  1  0
  8 39  1  0
  9 40  1  0
  9 41  1  0
 15 42  1  0
 15 43  1  0
 18 44  1  0
 20 45  1  0
 22 46  1  0
 22 47  1  0
 22 48  1  0
 24 49  1  0
 24 50  1  0
 24 51  1  0
 25 52  1  0
 29 53  1  0
 30 54  1  0
M  END
$$$$
