
     RDKit          3D

 47 49  0  0  0  0  0  0  0  0999 V2000
   -2.5380    0.7356    1.0050 O   0  0  0  0  0  0  0  0  0  0  0  0
   -2.8730   -0.1412    0.2155 C   0  0  0  0  0  0  0  0  0  0  0  0
   -4.3435   -0.4599   -0.0932 C   0  0  0  0  0  0  0  0  0  0  0  0
   -5.2226    0.3916    0.6249 O   0  0  0  0  0  0  0  0  0  0  0  0
   -6.5642    0.2119    0.4400 C   0  0  0  0  0  0  0  0  0  0  0  0
   -7.3724    1.0856    1.1739 C   0  0  0  0  0  0  0  0  0  0  0  0
   -8.7642    1.0170    1.0832 C   0  0  0  0  0  0  0  0  0  0  0  0
   -9.3505    0.0672    0.2522 C   0  0  0  0  0  0  0  0  0  0  0  0
  -11.2330   -0.0349    0.1214 Br  0  0  0  0  0  0  0  0  0  0  0  0
   -8.5565   -0.8099   -0.4845 C   0  0  0  0  0  0  0  0  0  0  0  0
   -7.1618   -0.7378   -0.3907 C   0  0  0  0  0  0  0  0  0  0  0  0
   -2.0088   -0.9589   -0.5072 N   0  0  0  0  0  0  0  0  0  0  0  0
   -0.5987   -0.9632   -0.4679 C   0  0  0  0  0  0  0  0  0  0  0  0
    0.1639   -0.1485    0.3716 C   0  0  0  0  0  0  0  0  0  0  0  0
    1.5638   -0.2118    0.3516 C   0  0  0  0  0  0  0  0  0  0  0  0
    2.2176   -1.0877   -0.5211 C   0  0  0  0  0  0  0  0  0  0  0  0
    3.7055   -1.1902   -0.5797 C   0  0  0  0  0  0  0  0  0  0  0  0
    4.1982   -2.2728   -0.8737 O   0  0  0  0  0  0  0  0  0  0  0  0
    4.3827   -0.0136   -0.3288 N   0  0  0  0  0  0  0  0  0  0  0  0
    5.7803    0.2099   -0.2740 C   0  0  0  0  0  0  0  0  0  0  0  0
    6.7000   -0.8423   -0.3853 C   0  0  0  0  0  0  0  0  0  0  0  0
    8.0779   -0.6101   -0.3263 C   0  0  0  0  0  0  0  0  0  0  0  0
    8.5637    0.6793   -0.1521 C   0  0  0  0  0  0  0  0  0  0  0  0
    7.6688    1.7399   -0.0340 C   0  0  0  0  0  0  0  0  0  0  0  0
    6.2788    1.5209   -0.0904 C   0  0  0  0  0  0  0  0  0  0  0  0
    5.4368    2.7434    0.0506 C   0  0  0  0  0  0  0  0  0  0  0  0
    5.8543    3.8812    0.1744 O   0  0  0  0  0  0  0  0  0  0  0  0
    4.1073    2.5159    0.0384 O   0  0  0  0  0  0  0  0  0  0  0  0
    1.4578   -1.9202   -1.3487 C   0  0  0  0  0  0  0  0  0  0  0  0
    0.0606   -1.8550   -1.3236 C   0  0  0  0  0  0  0  0  0  0  0  0
   -4.4882   -0.3239   -1.1720 H   0  0  0  0  0  0  0  0  0  0  0  0
   -4.5164   -1.5050    0.1917 H   0  0  0  0  0  0  0  0  0  0  0  0
   -6.9110    1.8270    1.8230 H   0  0  0  0  0  0  0  0  0  0  0  0
   -9.3737    1.7054    1.6621 H   0  0  0  0  0  0  0  0  0  0  0  0
   -9.0122   -1.5530   -1.1339 H   0  0  0  0  0  0  0  0  0  0  0  0
   -6.5781   -1.4374   -0.9786 H   0  0  0  0  0  0  0  0  0  0  0  0
   -2.4310   -1.6200   -1.1471 H   0  0  0  0  0  0  0  0  0  0  0  0
   -0.2979    0.5433    1.0699 H   0  0  0  0  0  0  0  0  0  0  0  0
    2.1189    0.4128    1.0467 H   0  0  0  0  0  0  0  0  0  0  0  0
    3.8265    0.8347   -0.2316 H   0  0  0  0  0  0  0  0  0  0  0  0
    6.3756   -1.8705   -0.5155 H   0  0  0  0  0  0  0  0  0  0  0  0
    8.7680   -1.4460   -0.4167 H   0  0  0  0  0  0  0  0  0  0  0  0
    9.6349    0.8593   -0.1067 H   0  0  0  0  0  0  0  0  0  0  0  0
    8.0619    2.7463    0.1040 H   0  0  0  0  0  0  0  0  0  0  0  0
    3.7360    3.4218    0.1394 H   0  0  0  0  0  0  0  0  0  0  0  0
    1.9527   -2.6218   -2.0180 H   0  0  0  0  0  0  0  0  0  0  0  0
   -0.4967   -2.5141   -1.9845 H   0  0  0  0  0  0  0  0  0  0  0  0
  1  2  2  0
  2  3  1  0
  3  4  1  0
  4  5  1  0
  5  6  2  0
  6  7  1  0
  7  8  2  0
  8  9  1  0
  8 10  1  0
 10 11  2  0
  2 12  1  0
 12 13  1  0
 13 14  2  0
 14 15  1  0
 15 16  2  0
 16 17  1  0
 17 18  2  0
 17 19  1  0
 19 20  1  0
 20 21  2  0
 21 22  1  0
 22 23  2  0
 23 24  1  0
 24 25  2  0
 25 26  1  0
 26 27  2  0
 26 28  1  0
 16 29  1  0
 29 30  2  0
 11  5  1  0
 30 13  1  0
 25 20  1  0
  3 31  1  0
  3 32  1  0
  6 33  1  0
  7 34  1  0
 10 35  1  0
 11 36  1  0
 12 37  1  0
 14 38  1  0
 15 39  1  0
 19 40  1  0
 21 41  1  0
 22 42  1  0
 23 43  1  0
 24 44  1  0
 28 45  1  0
 29 46  1  0
 30 47  1  0
M  END
$$$$
