
     RDKit          3D

 61 66  0  0  0  0  0  0  0  0999 V2000
   -2.0592   -0.7304    2.4668 C   0  0  0  0  0  0  0  0  0  0  0  0
   -2.3869   -0.8721    0.9748 C   0  0  0  0  0  0  0  0  0  0  0  0
   -3.4662   -1.9457    0.7781 C   0  0  0  0  0  0  0  0  0  0  0  0
   -2.8076    0.4442    0.3224 C   0  0  0  0  0  0  0  0  0  0  0  0
   -3.8409    1.2023    0.9173 C   0  0  0  0  0  0  0  0  0  0  0  0
   -4.3543    2.3525    0.3092 C   0  0  0  0  0  0  0  0  0  0  0  0
   -3.8609    2.7687   -0.9219 C   0  0  0  0  0  0  0  0  0  0  0  0
   -2.8385    2.0465   -1.5383 C   0  0  0  0  0  0  0  0  0  0  0  0
   -2.3063    0.9017   -0.9204 C   0  0  0  0  0  0  0  0  0  0  0  0
   -1.2308    0.2610   -1.5905 N   0  0  0  0  0  0  0  0  0  0  0  0
    0.0959    0.2090   -1.1856 C   0  0  0  0  0  0  0  0  0  0  0  0
    0.6915    0.8682    0.3009 S   0  0  0  0  0  0  0  0  0  0  0  0
    2.2705    1.6099   -0.2196 C   0  0  0  0  0  0  0  0  0  0  0  0
    3.4051    0.6164   -0.3084 C   0  0  0  0  0  0  0  0  0  0  0  0
    3.8805    0.3800   -1.5470 C   0  0  0  0  0  0  0  0  0  0  0  0
    4.9402   -0.5779   -1.8741 C   0  0  0  0  0  0  0  0  0  0  0  0
    5.4022   -0.6654   -3.0043 O   0  0  0  0  0  0  0  0  0  0  0  0
    5.3611   -1.3721   -0.8367 O   0  0  0  0  0  0  0  0  0  0  0  0
    4.9414   -1.1329    0.4897 C   0  0  0  0  0  0  0  0  0  0  0  0
    5.5534   -1.9852    1.4096 C   0  0  0  0  0  0  0  0  0  0  0  0
    5.2814   -1.8276    2.7552 C   0  0  0  0  0  0  0  0  0  0  0  0
    4.4232   -0.8141    3.1921 C   0  0  0  0  0  0  0  0  0  0  0  0
    4.2196   -0.7051    4.5796 C   0  0  0  0  0  0  0  0  0  0  0  0
    3.3988    0.2741    5.1140 C   0  0  0  0  0  0  0  0  0  0  0  0
    2.7890    1.1782    4.2590 C   0  0  0  0  0  0  0  0  0  0  0  0
    2.9910    1.0897    2.8737 C   0  0  0  0  0  0  0  0  0  0  0  0
    3.7892    0.0783    2.2628 C   0  0  0  0  0  0  0  0  0  0  0  0
    4.0265   -0.1127    0.8462 C   0  0  0  0  0  0  0  0  0  0  0  0
    0.8480   -0.2950   -2.1373 N   0  0  0  0  0  0  0  0  0  0  0  0
    0.0447   -0.5326   -3.2160 N   0  0  0  0  0  0  0  0  0  0  0  0
   -1.2044   -0.2004   -2.9070 C   0  0  0  0  0  0  0  0  0  0  0  0
   -2.3352   -0.3276   -3.8301 C   0  0  0  0  0  0  0  0  0  0  0  0
   -3.6155   -0.7417   -3.4374 C   0  0  0  0  0  0  0  0  0  0  0  0
   -4.6377   -0.8520   -4.3838 C   0  0  0  0  0  0  0  0  0  0  0  0
   -4.3463   -0.5494   -5.7036 C   0  0  0  0  0  0  0  0  0  0  0  0
   -3.1251   -0.1582   -6.1285 N   0  0  0  0  0  0  0  0  0  0  0  0
   -2.1491   -0.0691   -5.1876 C   0  0  0  0  0  0  0  0  0  0  0  0
   -2.9465   -0.4829    3.0657 H   0  0  0  0  0  0  0  0  0  0  0  0
   -1.6693   -1.6788    2.8661 H   0  0  0  0  0  0  0  0  0  0  0  0
   -1.3036    0.0415    2.6412 H   0  0  0  0  0  0  0  0  0  0  0  0
   -1.4801   -1.2547    0.4954 H   0  0  0  0  0  0  0  0  0  0  0  0
   -4.4247   -1.6676    1.2398 H   0  0  0  0  0  0  0  0  0  0  0  0
   -3.1448   -2.8982    1.2204 H   0  0  0  0  0  0  0  0  0  0  0  0
   -3.6428   -2.1206   -0.2840 H   0  0  0  0  0  0  0  0  0  0  0  0
   -4.2785    0.8922    1.8660 H   0  0  0  0  0  0  0  0  0  0  0  0
   -5.1492    2.9198    0.7957 H   0  0  0  0  0  0  0  0  0  0  0  0
   -4.2659    3.6592   -1.3957 H   0  0  0  0  0  0  0  0  0  0  0  0
   -2.4488    2.4088   -2.4871 H   0  0  0  0  0  0  0  0  0  0  0  0
    2.5365    2.4496    0.4270 H   0  0  0  0  0  0  0  0  0  0  0  0
    2.0877    2.0949   -1.1903 H   0  0  0  0  0  0  0  0  0  0  0  0
    3.4729    0.8749   -2.4238 H   0  0  0  0  0  0  0  0  0  0  0  0
    6.2424   -2.7636    1.0739 H   0  0  0  0  0  0  0  0  0  0  0  0
    5.7678   -2.4962    3.4618 H   0  0  0  0  0  0  0  0  0  0  0  0
    4.7103   -1.3941    5.2658 H   0  0  0  0  0  0  0  0  0  0  0  0
    3.2471    0.3378    6.1893 H   0  0  0  0  0  0  0  0  0  0  0  0
    2.1545    1.9625    4.6591 H   0  0  0  0  0  0  0  0  0  0  0  0
    2.5010    1.8691    2.2961 H   0  0  0  0  0  0  0  0  0  0  0  0
   -3.8374   -1.0013   -2.4063 H   0  0  0  0  0  0  0  0  0  0  0  0
   -5.6347   -1.1780   -4.0962 H   0  0  0  0  0  0  0  0  0  0  0  0
   -5.1075   -0.6188   -6.4766 H   0  0  0  0  0  0  0  0  0  0  0  0
   -1.1749    0.2312   -5.5769 H   0  0  0  0  0  0  0  0  0  0  0  0
  1  2  1  0
  2  3  1  0
  2  4  1  0
  4  5  2  0
  5  6  1  0
  6  7  2  0
  7  8  1  0
  8  9  2  0
  9 10  1  0
 10 11  1  0
 11 12  1  0
 12 13  1  0
 13 14  1  0
 14 15  2  0
 15 16  1  0
 16 17  2  0
 16 18  1  0
 18 19  1  0
 19 20  2  0
 20 21  1  0
 21 22  2  0
 22 23  1  0
 23 24  2  0
 24 25  1  0
 25 26  2  0
 26 27  1  0
 27 28  2  0
 11 29  2  0
 29 30  1  0
 30 31  2  0
 31 32  1  0
 32 33  2  0
 33 34  1  0
 34 35  2  0
 35 36  1  0
 36 37  2  0
  9  4  1  0
 31 10  1  0
 37 32  1  0
 28 14  1  0
 28 19  1  0
 27 22  1  0
  1 38  1  0
  1 39  1  0
  1 40  1  0
  2 41  1  0
  3 42  1  0
  3 43  1  0
  3 44  1  0
  5 45  1  0
  6 46  1  0
  7 47  1  0
  8 48  1  0
 13 49  1  0
 13 50  1  0
 15 51  1  0
 20 52  1  0
 21 53  1  0
 23 54  1  0
 24 55  1  0
 25 56  1  0
 26 57  1  0
 33 58  1  0
 34 59  1  0
 35 60  1  0
 37 61  1  0
M  END
$$$$
