
     RDKit          3D

 32 34  0  0  0  0  0  0  0  0999 V2000
   -0.4042    1.2863   -0.7055 O   0  0  0  0  0  0  0  0  0  0  0  0
   -0.4689    0.3730    0.1137 C   0  0  0  0  0  0  0  0  0  0  0  0
   -1.7803   -0.3785    0.3668 C   0  0  0  0  0  0  0  0  0  0  0  0
   -2.8586    0.5492    0.4656 O   0  0  0  0  0  0  0  0  0  0  0  0
   -3.9870    0.1717   -0.2107 C   0  0  0  0  0  0  0  0  0  0  0  0
   -4.6163    1.1754   -0.9527 C   0  0  0  0  0  0  0  0  0  0  0  0
   -5.7794    0.8879   -1.6769 C   0  0  0  0  0  0  0  0  0  0  0  0
   -6.3059   -0.4046   -1.6556 C   0  0  0  0  0  0  0  0  0  0  0  0
   -7.8713   -0.7859   -2.6485 Br  0  0  0  0  0  0  0  0  0  0  0  0
   -5.6908   -1.4105   -0.9092 C   0  0  0  0  0  0  0  0  0  0  0  0
   -4.5382   -1.1123   -0.1816 C   0  0  0  0  0  0  0  0  0  0  0  0
   -3.9608   -2.0818    0.5467 F   0  0  0  0  0  0  0  0  0  0  0  0
    0.5801   -0.1177    0.8620 N   0  0  0  0  0  0  0  0  0  0  0  0
    1.8603    0.3399    0.6903 C   0  0  0  0  0  0  0  0  0  0  0  0
    2.3330    1.2658   -0.1058 N   0  0  0  0  0  0  0  0  0  0  0  0
    3.7052    1.3914    0.0087 N   0  0  0  0  0  0  0  0  0  0  0  0
    4.1988    0.5359    0.8789 C   0  0  0  0  0  0  0  0  0  0  0  0
    5.7235    0.4679    1.2023 C   0  0  0  0  0  0  0  0  0  0  0  0
    6.7100    0.5269    0.0628 C   0  0  0  0  0  0  0  0  0  0  0  0
    6.5146   -0.7578    0.8163 C   0  0  0  0  0  0  0  0  0  0  0  0
    3.0353   -0.4555    1.6533 S   0  0  0  0  0  0  0  0  0  0  0  0
   -1.7252   -0.9443    1.3051 H   0  0  0  0  0  0  0  0  0  0  0  0
   -1.8915   -1.0832   -0.4709 H   0  0  0  0  0  0  0  0  0  0  0  0
   -4.1815    2.1762   -0.9780 H   0  0  0  0  0  0  0  0  0  0  0  0
   -6.2427    1.6752   -2.2717 H   0  0  0  0  0  0  0  0  0  0  0  0
   -6.0897   -2.4197   -0.8830 H   0  0  0  0  0  0  0  0  0  0  0  0
    0.4544   -0.8834    1.5077 H   0  0  0  0  0  0  0  0  0  0  0  0
    6.0013    0.9795    2.1195 H   0  0  0  0  0  0  0  0  0  0  0  0
    6.3225    0.5972   -0.9474 H   0  0  0  0  0  0  0  0  0  0  0  0
    7.6308    1.0839    0.2175 H   0  0  0  0  0  0  0  0  0  0  0  0
    6.0141   -1.5688    0.2962 H   0  0  0  0  0  0  0  0  0  0  0  0
    7.3081   -1.0793    1.4836 H   0  0  0  0  0  0  0  0  0  0  0  0
  1  2  2  0
  2  3  1  0
  3  4  1  0
  4  5  1  0
  5  6  2  0
  6  7  1  0
  7  8  2  0
  8  9  1  0
  8 10  1  0
 10 11  2  0
 11 12  1  0
  2 13  1  0
 13 14  1  0
 14 15  2  0
 15 16  1  0
 16 17  2  0
 17 18  1  0
 18 19  1  0
 19 20  1  0
 17 21  1  0
 11  5  1  0
 21 14  1  0
 20 18  1  0
  3 22  1  0
  3 23  1  0
  6 24  1  0
  7 25  1  0
 10 26  1  0
 13 27  1  0
 18 28  1  0
 19 29  1  0
 19 30  1  0
 20 31  1  0
 20 32  1  0
M  END
$$$$
