
     RDKit          3D

 32 32  0  0  0  0  0  0  0  0999 V2000
   -3.6610    2.4880   -2.4762 C   0  0  0  0  0  0  0  0  0  0  0  0
   -2.7871    1.6763   -2.6197 C   0  0  0  0  0  0  0  0  0  0  0  0
   -1.7116    0.6856   -2.8017 C   0  0  0  0  0  0  0  0  0  0  0  0
   -1.6840   -0.3817   -1.7865 N   0  0  0  0  0  0  0  0  0  0  0  0
   -2.8862   -1.2119   -1.8427 C   0  0  0  0  0  0  0  0  0  0  0  0
   -1.4196    0.1499   -0.4408 C   0  0  0  0  0  0  0  0  0  0  0  0
   -0.9185   -0.9128    0.5490 C   0  0  0  0  0  0  0  0  0  0  0  0
    0.4143   -1.5407    0.1376 C   0  0  0  0  0  0  0  0  0  0  0  0
    1.4511   -0.5643    0.0366 O   0  0  0  0  0  0  0  0  0  0  0  0
    2.1562   -0.1889    1.1469 C   0  0  0  0  0  0  0  0  0  0  0  0
    1.9495   -0.6904    2.4356 C   0  0  0  0  0  0  0  0  0  0  0  0
    2.7285   -0.2366    3.5063 C   0  0  0  0  0  0  0  0  0  0  0  0
    3.7170    0.7211    3.2945 C   0  0  0  0  0  0  0  0  0  0  0  0
    4.6682    1.2725    4.6172 Cl  0  0  0  0  0  0  0  0  0  0  0  0
    3.9372    1.2343    2.0218 C   0  0  0  0  0  0  0  0  0  0  0  0
    3.1583    0.7802    0.9544 C   0  0  0  0  0  0  0  0  0  0  0  0
    3.4671    1.4555   -0.6094 Cl  0  0  0  0  0  0  0  0  0  0  0  0
   -4.4351    3.2089   -2.3484 H   0  0  0  0  0  0  0  0  0  0  0  0
   -0.7413    1.1981   -2.8089 H   0  0  0  0  0  0  0  0  0  0  0  0
   -1.8011    0.2308   -3.7963 H   0  0  0  0  0  0  0  0  0  0  0  0
   -2.7723   -2.1079   -1.2245 H   0  0  0  0  0  0  0  0  0  0  0  0
   -3.0606   -1.5720   -2.8632 H   0  0  0  0  0  0  0  0  0  0  0  0
   -3.7836   -0.6803   -1.5078 H   0  0  0  0  0  0  0  0  0  0  0  0
   -0.6553    0.9362   -0.4947 H   0  0  0  0  0  0  0  0  0  0  0  0
   -2.3192    0.6232   -0.0266 H   0  0  0  0  0  0  0  0  0  0  0  0
   -0.8082   -0.4245    1.5242 H   0  0  0  0  0  0  0  0  0  0  0  0
   -1.6666   -1.7018    0.6809 H   0  0  0  0  0  0  0  0  0  0  0  0
    0.6961   -2.3653    0.8017 H   0  0  0  0  0  0  0  0  0  0  0  0
    0.3157   -1.9952   -0.8547 H   0  0  0  0  0  0  0  0  0  0  0  0
    1.1884   -1.4330    2.6496 H   0  0  0  0  0  0  0  0  0  0  0  0
    2.5561   -0.6360    4.5031 H   0  0  0  0  0  0  0  0  0  0  0  0
    4.7075    1.9826    1.8581 H   0  0  0  0  0  0  0  0  0  0  0  0
  1  2  3  0
  2  3  1  0
  3  4  1  0
  4  5  1  0
  4  6  1  0
  6  7  1  0
  7  8  1  0
  8  9  1  0
  9 10  1  0
 10 11  2  0
 11 12  1  0
 12 13  2  0
 13 14  1  0
 13 15  1  0
 15 16  2  0
 16 17  1  0
 16 10  1  0
  1 18  1  0
  3 19  1  0
  3 20  1  0
  5 21  1  0
  5 22  1  0
  5 23  1  0
  6 24  1  0
  6 25  1  0
  7 26  1  0
  7 27  1  0
  8 28  1  0
  8 29  1  0
 11 30  1  0
 12 31  1  0
 15 32  1  0
M  END
$$$$
