
     RDKit          3D

 55 58  0  0  0  0  0  0  0  0999 V2000
    6.8304    1.7005   -0.3305 C   0  0  0  0  0  0  0  0  0  0  0  0
    6.7796    0.7805    0.8834 C   0  0  0  0  0  0  0  0  0  0  0  0
    5.9653   -0.4179    0.6299 N   0  0  0  0  0  0  0  0  0  0  0  0
    6.6937   -1.6858    0.4889 C   0  0  0  0  0  0  0  0  0  0  0  0
    7.1495   -1.9088   -0.9456 C   0  0  0  0  0  0  0  0  0  0  0  0
    4.5770   -0.3616    0.5454 C   0  0  0  0  0  0  0  0  0  0  0  0
    3.8100   -1.4260    0.0411 C   0  0  0  0  0  0  0  0  0  0  0  0
    2.4088   -1.3751   -0.0442 C   0  0  0  0  0  0  0  0  0  0  0  0
    1.7112   -0.2403    0.3644 C   0  0  0  0  0  0  0  0  0  0  0  0
    0.2433   -0.2317    0.2968 C   0  0  0  0  0  0  0  0  0  0  0  0
   -0.4727    0.8457   -0.0681 C   0  0  0  0  0  0  0  0  0  0  0  0
   -1.9371    0.9464   -0.1477 C   0  0  0  0  0  0  0  0  0  0  0  0
   -2.7961   -0.1376   -0.0662 C   0  0  0  0  0  0  0  0  0  0  0  0
   -4.1791    0.0705   -0.1570 C   0  0  0  0  0  0  0  0  0  0  0  0
   -5.0716   -1.0931   -0.0518 C   0  0  0  0  0  0  0  0  0  0  0  0
   -5.4682   -1.7998   -1.1973 C   0  0  0  0  0  0  0  0  0  0  0  0
   -6.3188   -2.9027   -1.0938 C   0  0  0  0  0  0  0  0  0  0  0  0
   -6.7803   -3.3138    0.1557 C   0  0  0  0  0  0  0  0  0  0  0  0
   -6.3923   -2.6241    1.3026 C   0  0  0  0  0  0  0  0  0  0  0  0
   -5.5421   -1.5210    1.1998 C   0  0  0  0  0  0  0  0  0  0  0  0
   -4.6643    1.3896   -0.3405 C   0  0  0  0  0  0  0  0  0  0  0  0
   -6.0383    1.7208   -0.4467 C   0  0  0  0  0  0  0  0  0  0  0  0
   -6.4527    3.0398   -0.6274 C   0  0  0  0  0  0  0  0  0  0  0  0
   -5.5035    4.0483   -0.7046 C   0  0  0  0  0  0  0  0  0  0  0  0
   -4.1477    3.7299   -0.6007 C   0  0  0  0  0  0  0  0  0  0  0  0
   -3.7088    2.4242   -0.4204 C   0  0  0  0  0  0  0  0  0  0  0  0
   -2.3872    2.2075   -0.3287 N   0  0  0  0  0  0  0  0  0  0  0  0
    2.4437    0.8264    0.8822 C   0  0  0  0  0  0  0  0  0  0  0  0
    3.8444    0.7623    0.9641 C   0  0  0  0  0  0  0  0  0  0  0  0
    5.8422    2.0936   -0.5899 H   0  0  0  0  0  0  0  0  0  0  0  0
    7.4828    2.5553   -0.1244 H   0  0  0  0  0  0  0  0  0  0  0  0
    7.2230    1.1795   -1.2093 H   0  0  0  0  0  0  0  0  0  0  0  0
    6.4253    1.3202    1.7692 H   0  0  0  0  0  0  0  0  0  0  0  0
    7.8105    0.4913    1.1239 H   0  0  0  0  0  0  0  0  0  0  0  0
    7.5764   -1.6798    1.1413 H   0  0  0  0  0  0  0  0  0  0  0  0
    6.1005   -2.5377    0.8409 H   0  0  0  0  0  0  0  0  0  0  0  0
    7.6606   -2.8727   -1.0336 H   0  0  0  0  0  0  0  0  0  0  0  0
    7.8509   -1.1299   -1.2615 H   0  0  0  0  0  0  0  0  0  0  0  0
    6.3079   -1.9041   -1.6456 H   0  0  0  0  0  0  0  0  0  0  0  0
    4.2841   -2.3323   -0.3224 H   0  0  0  0  0  0  0  0  0  0  0  0
    1.8781   -2.2341   -0.4485 H   0  0  0  0  0  0  0  0  0  0  0  0
   -0.2315   -1.1714    0.5614 H   0  0  0  0  0  0  0  0  0  0  0  0
    0.0344    1.7713   -0.3359 H   0  0  0  0  0  0  0  0  0  0  0  0
   -2.4170   -1.1457    0.0642 H   0  0  0  0  0  0  0  0  0  0  0  0
   -5.1175   -1.4880   -2.1794 H   0  0  0  0  0  0  0  0  0  0  0  0
   -6.6205   -3.4408   -1.9891 H   0  0  0  0  0  0  0  0  0  0  0  0
   -7.4422   -4.1723    0.2356 H   0  0  0  0  0  0  0  0  0  0  0  0
   -6.7515   -2.9430    2.2781 H   0  0  0  0  0  0  0  0  0  0  0  0
   -5.2497   -0.9891    2.1036 H   0  0  0  0  0  0  0  0  0  0  0  0
   -6.7998    0.9449   -0.3889 H   0  0  0  0  0  0  0  0  0  0  0  0
   -7.5110    3.2738   -0.7073 H   0  0  0  0  0  0  0  0  0  0  0  0
   -5.8093    5.0818   -0.8450 H   0  0  0  0  0  0  0  0  0  0  0  0
   -3.4086    4.5261   -0.6613 H   0  0  0  0  0  0  0  0  0  0  0  0
    1.9424    1.7210    1.2444 H   0  0  0  0  0  0  0  0  0  0  0  0
    4.3435    1.6288    1.3871 H   0  0  0  0  0  0  0  0  0  0  0  0
  1  2  1  0
  2  3  1  0
  3  4  1  0
  4  5  1  0
  3  6  1  0
  6  7  2  0
  7  8  1  0
  8  9  2  0
  9 10  1  0
 10 11  2  3
 11 12  1  0
 12 13  2  0
 13 14  1  0
 14 15  1  0
 15 16  2  0
 16 17  1  0
 17 18  2  0
 18 19  1  0
 19 20  2  0
 14 21  2  0
 21 22  1  0
 22 23  2  0
 23 24  1  0
 24 25  2  0
 25 26  1  0
 26 27  2  0
  9 28  1  0
 28 29  2  0
 29  6  1  0
 27 12  1  0
 20 15  1  0
 26 21  1  0
  1 30  1  0
  1 31  1  0
  1 32  1  0
  2 33  1  0
  2 34  1  0
  4 35  1  0
  4 36  1  0
  5 37  1  0
  5 38  1  0
  5 39  1  0
  7 40  1  0
  8 41  1  0
 10 42  1  0
 11 43  1  0
 13 44  1  0
 16 45  1  0
 17 46  1  0
 18 47  1  0
 19 48  1  0
 20 49  1  0
 22 50  1  0
 23 51  1  0
 24 52  1  0
 25 53  1  0
 28 54  1  0
 29 55  1  0
M  END
$$$$
