
     RDKit          3D

 69 74  0  0  0  0  0  0  0  0999 V2000
    7.4867   -0.9252   -1.3803 C   0  0  0  0  0  0  0  0  0  0  0  0
    6.8977   -1.4311   -0.1918 O   0  0  0  0  0  0  0  0  0  0  0  0
    5.5384   -1.2983   -0.0465 C   0  0  0  0  0  0  0  0  0  0  0  0
    4.6891   -0.7567   -1.0177 C   0  0  0  0  0  0  0  0  0  0  0  0
    3.3076   -0.6634   -0.7910 C   0  0  0  0  0  0  0  0  0  0  0  0
    2.7693   -1.0915    0.4352 C   0  0  0  0  0  0  0  0  0  0  0  0
    3.6227   -1.6472    1.4032 C   0  0  0  0  0  0  0  0  0  0  0  0
    4.9996   -1.7526    1.1730 C   0  0  0  0  0  0  0  0  0  0  0  0
    5.8978   -2.2793    2.0688 O   0  0  0  0  0  0  0  0  0  0  0  0
    5.3957   -2.7503    3.3104 C   0  0  0  0  0  0  0  0  0  0  0  0
    1.2763   -1.0282    0.7079 C   0  0  0  0  0  0  0  0  0  0  0  0
    0.6105   -0.0832   -0.2041 N   0  0  0  0  0  0  0  0  0  0  0  0
   -0.7794   -0.1331    0.0199 C   0  0  0  0  0  0  0  0  0  0  0  0
   -1.5046   -1.1556   -0.4896 N   0  0  0  0  0  0  0  0  0  0  0  0
   -2.8361   -1.2061   -0.2782 C   0  0  0  0  0  0  0  0  0  0  0  0
   -3.6019   -2.3592   -0.9205 C   0  0  0  0  0  0  0  0  0  0  0  0
   -4.0403   -2.1187   -2.3159 N   0  0  0  0  0  0  0  0  0  0  0  0
   -4.9849   -0.9809   -2.3940 C   0  0  0  0  0  0  0  0  0  0  0  0
   -5.8524   -1.0502   -3.6597 C   0  0  0  0  0  0  0  0  0  0  0  0
   -6.7011   -2.2068   -3.6896 O   0  0  0  0  0  0  0  0  0  0  0  0
   -6.1663   -3.3162   -2.9563 C   0  0  0  0  0  0  0  0  0  0  0  0
   -4.6306   -3.3306   -2.9196 C   0  0  0  0  0  0  0  0  0  0  0  0
   -3.5543   -0.3194    0.4257 N   0  0  0  0  0  0  0  0  0  0  0  0
   -2.8131    0.6877    0.9113 C   0  0  0  0  0  0  0  0  0  0  0  0
   -3.5512    1.9344    1.8087 S   0  0  0  0  0  0  0  0  0  0  0  0
   -2.0726    2.7492    2.0005 C   0  0  0  0  0  0  0  0  0  0  0  0
   -1.0129    2.0753    1.4212 C   0  0  0  0  0  0  0  0  0  0  0  0
   -1.4458    0.8614    0.7656 C   0  0  0  0  0  0  0  0  0  0  0  0
    0.3847    2.6250    1.4591 C   0  0  0  0  0  0  0  0  0  0  0  0
    0.5349    3.7568    2.4898 C   0  0  0  0  0  0  0  0  0  0  0  0
   -0.6410    4.7523    2.4278 C   0  0  0  0  0  0  0  0  0  0  0  0
   -0.4168    5.9225    3.3834 C   0  0  0  0  0  0  0  0  0  0  0  0
   -1.9758    4.0440    2.7467 C   0  0  0  0  0  0  0  0  0  0  0  0
    0.9351   -0.3673   -1.6099 C   0  0  0  0  0  0  0  0  0  0  0  0
    2.4146   -0.0412   -1.8403 C   0  0  0  0  0  0  0  0  0  0  0  0
    8.5668   -1.0893   -1.3142 H   0  0  0  0  0  0  0  0  0  0  0  0
    7.1230   -1.4634   -2.2617 H   0  0  0  0  0  0  0  0  0  0  0  0
    7.3201    0.1528   -1.4767 H   0  0  0  0  0  0  0  0  0  0  0  0
    5.0775   -0.3979   -1.9653 H   0  0  0  0  0  0  0  0  0  0  0  0
    3.1845   -1.9924    2.3342 H   0  0  0  0  0  0  0  0  0  0  0  0
    4.6947   -3.5784    3.1639 H   0  0  0  0  0  0  0  0  0  0  0  0
    6.2418   -3.1314    3.8905 H   0  0  0  0  0  0  0  0  0  0  0  0
    4.9376   -1.9388    3.8853 H   0  0  0  0  0  0  0  0  0  0  0  0
    1.1228   -0.7029    1.7450 H   0  0  0  0  0  0  0  0  0  0  0  0
    0.8723   -2.0442    0.5983 H   0  0  0  0  0  0  0  0  0  0  0  0
   -2.9278   -3.2254   -0.9027 H   0  0  0  0  0  0  0  0  0  0  0  0
   -4.4588   -2.6168   -0.2834 H   0  0  0  0  0  0  0  0  0  0  0  0
   -5.6567   -0.9781   -1.5257 H   0  0  0  0  0  0  0  0  0  0  0  0
   -4.4215   -0.0411   -2.3943 H   0  0  0  0  0  0  0  0  0  0  0  0
   -5.2289   -1.0594   -4.5610 H   0  0  0  0  0  0  0  0  0  0  0  0
   -6.4992   -0.1686   -3.7220 H   0  0  0  0  0  0  0  0  0  0  0  0
   -6.5375   -4.2307   -3.4296 H   0  0  0  0  0  0  0  0  0  0  0  0
   -6.5791   -3.2870   -1.9415 H   0  0  0  0  0  0  0  0  0  0  0  0
   -4.2652   -3.3768   -3.9531 H   0  0  0  0  0  0  0  0  0  0  0  0
   -4.2761   -4.2446   -2.4290 H   0  0  0  0  0  0  0  0  0  0  0  0
    1.1031    1.8366    1.7039 H   0  0  0  0  0  0  0  0  0  0  0  0
    0.6369    3.0068    0.4622 H   0  0  0  0  0  0  0  0  0  0  0  0
    1.4864    4.2745    2.3169 H   0  0  0  0  0  0  0  0  0  0  0  0
    0.5896    3.3221    3.4973 H   0  0  0  0  0  0  0  0  0  0  0  0
   -0.6913    5.1560    1.4067 H   0  0  0  0  0  0  0  0  0  0  0  0
   -0.3495    5.5819    4.4223 H   0  0  0  0  0  0  0  0  0  0  0  0
    0.5095    6.4518    3.1377 H   0  0  0  0  0  0  0  0  0  0  0  0
   -1.2416    6.6388    3.3140 H   0  0  0  0  0  0  0  0  0  0  0  0
   -2.0444    3.8345    3.8219 H   0  0  0  0  0  0  0  0  0  0  0  0
   -2.8100    4.7064    2.4854 H   0  0  0  0  0  0  0  0  0  0  0  0
    0.7443   -1.4210   -1.8584 H   0  0  0  0  0  0  0  0  0  0  0  0
    0.3326    0.2528   -2.2863 H   0  0  0  0  0  0  0  0  0  0  0  0
    2.5594    1.0462   -1.8047 H   0  0  0  0  0  0  0  0  0  0  0  0
    2.7049   -0.3892   -2.8382 H   0  0  0  0  0  0  0  0  0  0  0  0
  1  2  1  0
  2  3  1  0
  3  4  2  0
  4  5  1  0
  5  6  2  0
  6  7  1  0
  7  8  2  0
  8  9  1  0
  9 10  1  0
  6 11  1  0
 11 12  1  0
 12 13  1  0
 13 14  2  0
 14 15  1  0
 15 16  1  0
 16 17  1  0
 17 18  1  0
 18 19  1  0
 19 20  1  0
 20 21  1  0
 21 22  1  0
 15 23  2  0
 23 24  1  0
 24 25  1  0
 25 26  1  0
 26 27  2  0
 27 28  1  0
 27 29  1  0
 29 30  1  0
 30 31  1  0
 31 32  1  0
 31 33  1  0
 12 34  1  0
 34 35  1  0
  8  3  1  0
 28 13  1  0
 35  5  1  0
 22 17  1  0
 28 24  2  0
 33 26  1  0
  1 36  1  0
  1 37  1  0
  1 38  1  0
  4 39  1  0
  7 40  1  0
 10 41  1  0
 10 42  1  0
 10 43  1  0
 11 44  1  0
 11 45  1  0
 16 46  1  0
 16 47  1  0
 18 48  1  0
 18 49  1  0
 19 50  1  0
 19 51  1  0
 21 52  1  0
 21 53  1  0
 22 54  1  0
 22 55  1  0
 29 56  1  0
 29 57  1  0
 30 58  1  0
 30 59  1  0
 31 60  1  0
 32 61  1  0
 32 62  1  0
 32 63  1  0
 33 64  1  0
 33 65  1  0
 34 66  1  0
 34 67  1  0
 35 68  1  0
 35 69  1  0
M  END
$$$$
