
     RDKit          3D

 92 95  0  0  0  0  0  0  0  0999 V2000
   -0.2080   -3.4826   -0.6028 C   0  0  0  0  0  0  0  0  0  0  0  0
   -0.7581   -3.0693    0.5457 C   0  0  0  0  0  0  0  0  0  0  0  0
   -0.0712   -3.1407    1.8850 C   0  0  0  0  0  0  0  0  0  0  0  0
    0.5559   -1.8042    2.3135 C   0  0  0  0  0  0  0  0  0  0  0  0
    1.3827   -1.9519    3.5995 C   0  0  0  0  0  0  0  0  0  0  0  0
    2.8176   -2.3108    3.2744 C   0  0  0  0  0  0  0  0  0  0  0  0
    3.1761   -3.4868    3.3605 O   0  0  0  0  0  0  0  0  0  0  0  0
    3.6748   -1.3033    2.8474 N   0  0  0  0  0  0  0  0  0  0  0  0
    3.3365    0.1224    2.7640 C   0  0  0  0  0  0  0  0  0  0  0  0
    3.7780    0.9195    3.9921 C   0  0  0  0  0  0  0  0  0  0  0  0
    3.5614    2.3102    3.7780 O   0  0  0  0  0  0  0  0  0  0  0  0
    5.0401   -1.6811    2.4718 C   0  0  0  0  0  0  0  0  0  0  0  0
    5.2004   -1.8056    0.9744 C   0  0  0  0  0  0  0  0  0  0  0  0
    4.7082   -2.9325    0.2996 C   0  0  0  0  0  0  0  0  0  0  0  0
    4.8417   -3.0441   -1.0848 C   0  0  0  0  0  0  0  0  0  0  0  0
    5.4651   -2.0310   -1.8094 C   0  0  0  0  0  0  0  0  0  0  0  0
    5.9578   -0.9062   -1.1508 C   0  0  0  0  0  0  0  0  0  0  0  0
    5.8271   -0.7931    0.2343 C   0  0  0  0  0  0  0  0  0  0  0  0
   -0.5171   -0.7541    2.5523 C   0  0  0  0  0  0  0  0  0  0  0  0
   -1.1330   -0.6531    3.6076 O   0  0  0  0  0  0  0  0  0  0  0  0
   -0.7275    0.0708    1.4738 N   0  0  0  0  0  0  0  0  0  0  0  0
   -1.7434    1.1293    1.4871 C   0  0  0  0  0  0  0  0  0  0  0  0
   -3.1265    0.5474    1.1405 C   0  0  0  0  0  0  0  0  0  0  0  0
   -3.0939   -0.1199   -0.1387 O   0  0  0  0  0  0  0  0  0  0  0  0
   -3.6267    0.5499   -1.1976 C   0  0  0  0  0  0  0  0  0  0  0  0
   -4.1072    1.6723   -1.1432 O   0  0  0  0  0  0  0  0  0  0  0  0
   -3.5036   -0.2933   -2.4521 C   0  0  0  0  0  0  0  0  0  0  0  0
   -4.5447   -1.4248   -2.4372 C   0  0  0  0  0  0  0  0  0  0  0  0
   -5.9772   -0.9777   -2.5495 C   0  0  0  0  0  0  0  0  0  0  0  0
   -6.8126   -1.3892   -3.5119 C   0  0  0  0  0  0  0  0  0  0  0  0
   -3.5522    0.6140   -3.6934 C   0  0  0  0  0  0  0  0  0  0  0  0
   -3.1477   -0.0879   -4.9706 C   0  0  0  0  0  0  0  0  0  0  0  0
   -4.1002   -0.3616   -5.9637 C   0  0  0  0  0  0  0  0  0  0  0  0
   -3.7271   -1.0091   -7.1425 C   0  0  0  0  0  0  0  0  0  0  0  0
   -2.4027   -1.3811   -7.3297 C   0  0  0  0  0  0  0  0  0  0  0  0
   -2.0433   -1.9984   -8.4618 F   0  0  0  0  0  0  0  0  0  0  0  0
   -1.4424   -1.1156   -6.3615 C   0  0  0  0  0  0  0  0  0  0  0  0
   -1.8123   -0.4670   -5.1830 C   0  0  0  0  0  0  0  0  0  0  0  0
   -1.3375    2.2770    0.5386 C   0  0  0  0  0  0  0  0  0  0  0  0
   -0.0894    2.9791    0.9940 C   0  0  0  0  0  0  0  0  0  0  0  0
    1.2029    2.6969    0.5966 C   0  0  0  0  0  0  0  0  0  0  0  0
    2.0526    3.5296    1.2728 N   0  0  0  0  0  0  0  0  0  0  0  0
    1.3409    4.3588    2.1066 C   0  0  0  0  0  0  0  0  0  0  0  0
    1.7913    5.3458    2.9923 C   0  0  0  0  0  0  0  0  0  0  0  0
    0.8301    6.0468    3.7245 C   0  0  0  0  0  0  0  0  0  0  0  0
   -0.5259    5.7673    3.5798 C   0  0  0  0  0  0  0  0  0  0  0  0
   -0.9569    4.7693    2.6972 C   0  0  0  0  0  0  0  0  0  0  0  0
   -0.0086    4.0470    1.9453 C   0  0  0  0  0  0  0  0  0  0  0  0
   -0.7603   -3.4231   -1.5347 H   0  0  0  0  0  0  0  0  0  0  0  0
    0.7965   -3.8973   -0.6398 H   0  0  0  0  0  0  0  0  0  0  0  0
   -1.7742   -2.6755    0.5353 H   0  0  0  0  0  0  0  0  0  0  0  0
    0.7070   -3.9145    1.8525 H   0  0  0  0  0  0  0  0  0  0  0  0
   -0.8070   -3.4757    2.6286 H   0  0  0  0  0  0  0  0  0  0  0  0
    1.2064   -1.4530    1.5003 H   0  0  0  0  0  0  0  0  0  0  0  0
    0.9683   -2.7350    4.2492 H   0  0  0  0  0  0  0  0  0  0  0  0
    1.3843   -1.0414    4.2076 H   0  0  0  0  0  0  0  0  0  0  0  0
    2.2618    0.2615    2.6296 H   0  0  0  0  0  0  0  0  0  0  0  0
    3.7922    0.5424    1.8597 H   0  0  0  0  0  0  0  0  0  0  0  0
    4.8462    0.7820    4.1858 H   0  0  0  0  0  0  0  0  0  0  0  0
    3.2348    0.6063    4.8898 H   0  0  0  0  0  0  0  0  0  0  0  0
    2.6026    2.4823    3.8808 H   0  0  0  0  0  0  0  0  0  0  0  0
    5.3256   -2.6316    2.9392 H   0  0  0  0  0  0  0  0  0  0  0  0
    5.7355   -0.9360    2.8742 H   0  0  0  0  0  0  0  0  0  0  0  0
    4.2223   -3.7321    0.8565 H   0  0  0  0  0  0  0  0  0  0  0  0
    4.4623   -3.9255   -1.5947 H   0  0  0  0  0  0  0  0  0  0  0  0
    5.5723   -2.1223   -2.8871 H   0  0  0  0  0  0  0  0  0  0  0  0
    6.4473   -0.1196   -1.7162 H   0  0  0  0  0  0  0  0  0  0  0  0
    6.2190    0.0908    0.7306 H   0  0  0  0  0  0  0  0  0  0  0  0
   -0.3848   -0.2318    0.5705 H   0  0  0  0  0  0  0  0  0  0  0  0
   -1.8027    1.5195    2.5111 H   0  0  0  0  0  0  0  0  0  0  0  0
   -3.4061   -0.2164    1.8748 H   0  0  0  0  0  0  0  0  0  0  0  0
   -3.9020    1.3217    1.1826 H   0  0  0  0  0  0  0  0  0  0  0  0
   -2.5050   -0.7509   -2.4109 H   0  0  0  0  0  0  0  0  0  0  0  0
   -4.4512   -1.9896   -1.5004 H   0  0  0  0  0  0  0  0  0  0  0  0
   -4.3098   -2.1364   -3.2392 H   0  0  0  0  0  0  0  0  0  0  0  0
   -6.3562   -0.2973   -1.7865 H   0  0  0  0  0  0  0  0  0  0  0  0
   -7.8419   -1.0433   -3.5378 H   0  0  0  0  0  0  0  0  0  0  0  0
   -6.4988   -2.0779   -4.2916 H   0  0  0  0  0  0  0  0  0  0  0  0
   -2.8712    1.4660   -3.5548 H   0  0  0  0  0  0  0  0  0  0  0  0
   -4.5457    1.0645   -3.8073 H   0  0  0  0  0  0  0  0  0  0  0  0
   -5.1389   -0.0694   -5.8261 H   0  0  0  0  0  0  0  0  0  0  0  0
   -4.4594   -1.2189   -7.9155 H   0  0  0  0  0  0  0  0  0  0  0  0
   -0.4121   -1.4093   -6.5341 H   0  0  0  0  0  0  0  0  0  0  0  0
   -1.0511   -0.2531   -4.4363 H   0  0  0  0  0  0  0  0  0  0  0  0
   -2.1510    3.0099    0.4766 H   0  0  0  0  0  0  0  0  0  0  0  0
   -1.1759    1.8940   -0.4771 H   0  0  0  0  0  0  0  0  0  0  0  0
    1.5917    1.9648   -0.0968 H   0  0  0  0  0  0  0  0  0  0  0  0
    3.0605    3.5207    1.2050 H   0  0  0  0  0  0  0  0  0  0  0  0
    2.8483    5.5610    3.1107 H   0  0  0  0  0  0  0  0  0  0  0  0
    1.1481    6.8241    4.4164 H   0  0  0  0  0  0  0  0  0  0  0  0
   -1.2560    6.3283    4.1555 H   0  0  0  0  0  0  0  0  0  0  0  0
   -2.0163    4.5597    2.5988 H   0  0  0  0  0  0  0  0  0  0  0  0
  1  2  2  0
  2  3  1  0
  3  4  1  0
  4  5  1  0
  5  6  1  0
  6  7  2  0
  6  8  1  0
  8  9  1  0
  9 10  1  0
 10 11  1  0
  8 12  1  0
 12 13  1  0
 13 14  2  0
 14 15  1  0
 15 16  2  0
 16 17  1  0
 17 18  2  0
  4 19  1  0
 19 20  2  0
 19 21  1  0
 21 22  1  0
 22 23  1  0
 23 24  1  0
 24 25  1  0
 25 26  2  0
 25 27  1  0
 27 28  1  0
 28 29  1  0
 29 30  2  0
 27 31  1  0
 31 32  1  0
 32 33  2  0
 33 34  1  0
 34 35  2  0
 35 36  1  0
 35 37  1  0
 37 38  2  0
 22 39  1  0
 39 40  1  0
 40 41  2  0
 41 42  1  0
 42 43  1  0
 43 44  2  0
 44 45  1  0
 45 46  2  0
 46 47  1  0
 47 48  2  0
 18 13  1  0
 38 32  1  0
 48 40  1  0
 48 43  1  0
  1 49  1  0
  1 50  1  0
  2 51  1  0
  3 52  1  0
  3 53  1  0
  4 54  1  0
  5 55  1  0
  5 56  1  0
  9 57  1  0
  9 58  1  0
 10 59  1  0
 10 60  1  0
 11 61  1  0
 12 62  1  0
 12 63  1  0
 14 64  1  0
 15 65  1  0
 16 66  1  0
 17 67  1  0
 18 68  1  0
 21 69  1  0
 22 70  1  0
 23 71  1  0
 23 72  1  0
 27 73  1  0
 28 74  1  0
 28 75  1  0
 29 76  1  0
 30 77  1  0
 30 78  1  0
 31 79  1  0
 31 80  1  0
 33 81  1  0
 34 82  1  0
 37 83  1  0
 38 84  1  0
 39 85  1  0
 39 86  1  0
 41 87  1  0
 42 88  1  0
 44 89  1  0
 45 90  1  0
 46 91  1  0
 47 92  1  0
M  END
$$$$
