
     RDKit          3D

 57 59  0  0  0  0  0  0  0  0999 V2000
   -5.2053   -2.8538    2.7536 C   0  0  0  0  0  0  0  0  0  0  0  0
   -5.0765   -3.0033    1.3391 O   0  0  0  0  0  0  0  0  0  0  0  0
   -4.2880   -2.0029    0.8261 C   0  0  0  0  0  0  0  0  0  0  0  0
   -2.9604   -2.3268    0.5339 C   0  0  0  0  0  0  0  0  0  0  0  0
   -2.1228   -1.3661   -0.0239 C   0  0  0  0  0  0  0  0  0  0  0  0
   -2.6344   -0.0962   -0.3035 C   0  0  0  0  0  0  0  0  0  0  0  0
   -1.5572    1.1167   -1.0266 S   0  0  0  0  0  6  0  0  0  0  0  0
   -2.3317    2.3077   -1.3048 O   0  0  0  0  0  0  0  0  0  0  0  0
   -0.3687    1.1664   -0.2057 O   0  0  0  0  0  0  0  0  0  0  0  0
   -1.1665    0.4094   -2.5174 N   0  0  0  0  0  0  0  0  0  0  0  0
   -2.2709    0.3038   -3.4964 C   0  0  0  0  0  0  0  0  0  0  0  0
   -1.9502    1.3824   -4.5032 C   0  0  0  0  0  0  0  0  0  0  0  0
   -0.5258    1.3471   -4.5801 O   0  0  0  0  0  0  0  0  0  0  0  0
   -0.0618    1.1129   -3.2352 C   0  0  0  0  0  0  0  0  0  0  0  0
    1.1911    0.2154   -3.3165 C   0  0  0  0  0  0  0  0  0  0  0  0
    1.7290   -0.1909   -2.0366 N   0  0  0  0  0  0  0  0  0  0  0  0
    2.4035    0.6960   -1.2289 C   0  0  0  0  0  0  0  0  0  0  0  0
    2.7691    1.8178   -1.5513 O   0  0  0  0  0  0  0  0  0  0  0  0
    2.6603    0.1584    0.1997 C   0  0  0  0  0  0  0  0  0  0  0  0
    2.3332   -0.9841    0.4925 O   0  0  0  0  0  0  0  0  0  0  0  0
    3.2690    1.0721    1.0247 N   0  0  0  0  0  0  0  0  0  0  0  0
    3.6625    0.7650    2.3730 C   0  0  0  0  0  0  0  0  0  0  0  0
    5.1283    0.4206    2.4422 C   0  0  0  0  0  0  0  0  0  0  0  0
    6.0822    1.4047    2.7473 C   0  0  0  0  0  0  0  0  0  0  0  0
    7.4387    1.0798    2.7976 C   0  0  0  0  0  0  0  0  0  0  0  0
    7.8422   -0.2233    2.5330 C   0  0  0  0  0  0  0  0  0  0  0  0
    9.1451   -0.5318    2.5774 F   0  0  0  0  0  0  0  0  0  0  0  0
    6.9163   -1.2094    2.2166 C   0  0  0  0  0  0  0  0  0  0  0  0
    5.5592   -0.8871    2.1665 C   0  0  0  0  0  0  0  0  0  0  0  0
   -3.9675    0.2314   -0.0218 C   0  0  0  0  0  0  0  0  0  0  0  0
   -4.8113   -0.7302    0.5377 C   0  0  0  0  0  0  0  0  0  0  0  0
   -6.1333   -0.5356    0.8352 O   0  0  0  0  0  0  0  0  0  0  0  0
   -6.7108    0.7146    0.4822 C   0  0  0  0  0  0  0  0  0  0  0  0
   -4.2257   -2.8884    3.2437 H   0  0  0  0  0  0  0  0  0  0  0  0
   -5.7290   -1.9303    3.0188 H   0  0  0  0  0  0  0  0  0  0  0  0
   -5.7977   -3.6947    3.1255 H   0  0  0  0  0  0  0  0  0  0  0  0
   -2.5856   -3.3240    0.7485 H   0  0  0  0  0  0  0  0  0  0  0  0
   -1.0835   -1.6076   -0.2350 H   0  0  0  0  0  0  0  0  0  0  0  0
   -3.2716    0.4146   -3.0729 H   0  0  0  0  0  0  0  0  0  0  0  0
   -2.2065   -0.6899   -3.9550 H   0  0  0  0  0  0  0  0  0  0  0  0
   -2.3865    1.1885   -5.4865 H   0  0  0  0  0  0  0  0  0  0  0  0
   -2.2613    2.3753   -4.1608 H   0  0  0  0  0  0  0  0  0  0  0  0
    0.1742    2.0840   -2.7862 H   0  0  0  0  0  0  0  0  0  0  0  0
    1.9748    0.7395   -3.8771 H   0  0  0  0  0  0  0  0  0  0  0  0
    0.9639   -0.7011   -3.8734 H   0  0  0  0  0  0  0  0  0  0  0  0
    1.3578   -1.0131   -1.5695 H   0  0  0  0  0  0  0  0  0  0  0  0
    3.5324    1.9584    0.6050 H   0  0  0  0  0  0  0  0  0  0  0  0
    3.4461    1.6460    2.9866 H   0  0  0  0  0  0  0  0  0  0  0  0
    3.0604   -0.0610    2.7688 H   0  0  0  0  0  0  0  0  0  0  0  0
    5.7736    2.4285    2.9468 H   0  0  0  0  0  0  0  0  0  0  0  0
    8.1825    1.8336    3.0364 H   0  0  0  0  0  0  0  0  0  0  0  0
    7.2538   -2.2186    2.0050 H   0  0  0  0  0  0  0  0  0  0  0  0
    4.8344   -1.6579    1.9069 H   0  0  0  0  0  0  0  0  0  0  0  0
   -4.3218    1.2323   -0.2450 H   0  0  0  0  0  0  0  0  0  0  0  0
   -7.7729    0.6790    0.7463 H   0  0  0  0  0  0  0  0  0  0  0  0
   -6.2542    1.5339    1.0475 H   0  0  0  0  0  0  0  0  0  0  0  0
   -6.6441    0.8918   -0.5966 H   0  0  0  0  0  0  0  0  0  0  0  0
  1  2  1  0
  2  3  1  0
  3  4  2  0
  4  5  1  0
  5  6  2  0
  6  7  1  0
  7  8  2  0
  7  9  2  0
  7 10  1  0
 10 11  1  0
 11 12  1  0
 12 13  1  0
 13 14  1  0
 14 15  1  0
 15 16  1  0
 16 17  1  0
 17 18  2  0
 17 19  1  0
 19 20  2  0
 19 21  1  0
 21 22  1  0
 22 23  1  0
 23 24  2  0
 24 25  1  0
 25 26  2  0
 26 27  1  0
 26 28  1  0
 28 29  2  0
  6 30  1  0
 30 31  2  0
 31 32  1  0
 32 33  1  0
 31  3  1  0
 14 10  1  0
 29 23  1  0
  1 34  1  0
  1 35  1  0
  1 36  1  0
  4 37  1  0
  5 38  1  0
 11 39  1  0
 11 40  1  0
 12 41  1  0
 12 42  1  0
 14 43  1  0
 15 44  1  0
 15 45  1  0
 16 46  1  0
 21 47  1  0
 22 48  1  0
 22 49  1  0
 24 50  1  0
 25 51  1  0
 28 52  1  0
 29 53  1  0
 30 54  1  0
 33 55  1  0
 33 56  1  0
 33 57  1  0
M  END
$$$$
