
     RDKit          3D

 57 62  0  0  0  0  0  0  0  0999 V2000
    6.2993   -2.9659   -1.9123 C   0  0  0  0  0  0  0  0  0  0  0  0
    5.6538   -1.9026   -1.0913 C   0  0  0  0  0  0  0  0  0  0  0  0
    5.9845   -0.5660   -1.0043 C   0  0  0  0  0  0  0  0  0  0  0  0
    5.1431    0.1384   -0.0944 C   0  0  0  0  0  0  0  0  0  0  0  0
    4.1781   -0.6765    0.4696 C   0  0  0  0  0  0  0  0  0  0  0  0
    3.1424   -0.3492    1.4395 C   0  0  0  0  0  0  0  0  0  0  0  0
    2.8750   -1.0873    2.3881 O   0  0  0  0  0  0  0  0  0  0  0  0
    2.4496    0.8641    1.2658 N   0  0  0  0  0  0  0  0  0  0  0  0
    1.5033    1.2580    2.3031 C   0  0  0  0  0  0  0  0  0  0  0  0
    0.1066    0.7235    1.9810 C   0  0  0  0  0  0  0  0  0  0  0  0
   -0.3662    1.1594    0.5631 C   0  0  0  0  0  0  0  0  0  0  0  0
    0.7384    0.8315   -0.4793 C   0  0  0  0  0  0  0  0  0  0  0  0
    2.1059    1.3763   -0.0571 C   0  0  0  0  0  0  0  0  0  0  0  0
   -0.4802    2.6052    0.6686 O   0  0  0  0  0  0  0  0  0  0  0  0
   -1.2662    3.2556   -0.2347 C   0  0  0  0  0  0  0  0  0  0  0  0
   -1.1618    4.6469   -0.2471 C   0  0  0  0  0  0  0  0  0  0  0  0
   -1.9098    5.3987   -1.1569 C   0  0  0  0  0  0  0  0  0  0  0  0
   -2.7636    4.7554   -2.0531 C   0  0  0  0  0  0  0  0  0  0  0  0
   -3.6748    5.6839   -3.1779 Cl  0  0  0  0  0  0  0  0  0  0  0  0
   -2.8835    3.3686   -2.0408 C   0  0  0  0  0  0  0  0  0  0  0  0
   -2.1382    2.6280   -1.1174 C   0  0  0  0  0  0  0  0  0  0  0  0
   -2.2574    1.1654   -1.0641 C   0  0  0  0  0  0  0  0  0  0  0  0
   -2.7489    0.5604   -2.0128 O   0  0  0  0  0  0  0  0  0  0  0  0
   -1.7273    0.4999    0.2011 C   0  0  0  0  0  0  0  0  0  0  0  0
   -1.7083   -1.0161    0.0554 C   0  0  0  0  0  0  0  0  0  0  0  0
   -3.0312   -1.3192    0.6741 C   0  0  0  0  0  0  0  0  0  0  0  0
   -3.6696   -2.6433    0.5493 C   0  0  0  0  0  0  0  0  0  0  0  0
   -3.0492   -3.7224   -0.0815 C   0  0  0  0  0  0  0  0  0  0  0  0
   -3.7172   -4.9441   -0.1593 C   0  0  0  0  0  0  0  0  0  0  0  0
   -4.9820   -5.0438    0.3985 C   0  0  0  0  0  0  0  0  0  0  0  0
   -5.6084   -4.0217    1.0182 N   0  0  0  0  0  0  0  0  0  0  0  0
   -4.9387   -2.8438    1.0806 C   0  0  0  0  0  0  0  0  0  0  0  0
   -3.5537   -0.3444    1.3469 N   0  0  0  0  0  0  0  0  0  0  0  0
   -2.6822    0.7603    1.2440 O   0  0  0  0  0  0  0  0  0  0  0  0
    4.3373   -2.2944   -0.0698 S   0  0  0  0  0  0  0  0  0  0  0  0
    6.9419   -2.5266   -2.6818 H   0  0  0  0  0  0  0  0  0  0  0  0
    5.5516   -3.5850   -2.4174 H   0  0  0  0  0  0  0  0  0  0  0  0
    6.9193   -3.6121   -1.2821 H   0  0  0  0  0  0  0  0  0  0  0  0
    6.8009   -0.1143   -1.5563 H   0  0  0  0  0  0  0  0  0  0  0  0
    5.2429    1.1919    0.1394 H   0  0  0  0  0  0  0  0  0  0  0  0
    1.5026    2.3527    2.3599 H   0  0  0  0  0  0  0  0  0  0  0  0
    1.8316    0.8884    3.2810 H   0  0  0  0  0  0  0  0  0  0  0  0
    0.1260   -0.3672    2.0680 H   0  0  0  0  0  0  0  0  0  0  0  0
   -0.5832    1.1011    2.7455 H   0  0  0  0  0  0  0  0  0  0  0  0
    0.8177   -0.2543   -0.6109 H   0  0  0  0  0  0  0  0  0  0  0  0
    0.4934    1.2604   -1.4575 H   0  0  0  0  0  0  0  0  0  0  0  0
    2.8399    1.0925   -0.8116 H   0  0  0  0  0  0  0  0  0  0  0  0
    2.0977    2.4706   -0.0068 H   0  0  0  0  0  0  0  0  0  0  0  0
   -0.4948    5.1499    0.4495 H   0  0  0  0  0  0  0  0  0  0  0  0
   -1.8221    6.4827   -1.1608 H   0  0  0  0  0  0  0  0  0  0  0  0
   -3.5570    2.8671   -2.7321 H   0  0  0  0  0  0  0  0  0  0  0  0
   -1.6348   -1.3658   -0.9771 H   0  0  0  0  0  0  0  0  0  0  0  0
   -0.9374   -1.5094    0.6525 H   0  0  0  0  0  0  0  0  0  0  0  0
   -2.0574   -3.6410   -0.5135 H   0  0  0  0  0  0  0  0  0  0  0  0
   -3.2611   -5.8009   -0.6442 H   0  0  0  0  0  0  0  0  0  0  0  0
   -5.5406   -5.9746    0.3611 H   0  0  0  0  0  0  0  0  0  0  0  0
   -5.4763   -2.0452    1.5860 H   0  0  0  0  0  0  0  0  0  0  0  0
  1  2  1  0
  2  3  2  0
  3  4  1  0
  4  5  2  0
  5  6  1  0
  6  7  2  0
  6  8  1  0
  8  9  1  0
  9 10  1  0
 10 11  1  0
 11 12  1  0
 12 13  1  0
 11 14  1  0
 14 15  1  0
 15 16  2  0
 16 17  1  0
 17 18  2  0
 18 19  1  0
 18 20  1  0
 20 21  2  0
 21 22  1  0
 22 23  2  0
 22 24  1  0
 24 25  1  0
 25 26  1  0
 26 27  1  0
 27 28  2  0
 28 29  1  0
 29 30  2  0
 30 31  1  0
 31 32  2  0
 26 33  2  0
 33 34  1  0
  5 35  1  0
 35  2  1  0
 13  8  1  0
 21 15  1  0
 34 24  1  0
 24 11  1  0
 32 27  1  0
  1 36  1  0
  1 37  1  0
  1 38  1  0
  3 39  1  0
  4 40  1  0
  9 41  1  0
  9 42  1  0
 10 43  1  0
 10 44  1  0
 12 45  1  0
 12 46  1  0
 13 47  1  0
 13 48  1  0
 16 49  1  0
 17 50  1  0
 20 51  1  0
 25 52  1  0
 25 53  1  0
 28 54  1  0
 29 55  1  0
 30 56  1  0
 32 57  1  0
M  END
$$$$
