
     RDKit          3D

 42 44  0  0  0  0  0  0  0  0999 V2000
    0.7578   -1.0569    2.2908 C   0  0  0  0  0  0  0  0  0  0  0  0
   -0.1736   -0.8008    1.1460 C   0  0  0  0  0  0  0  0  0  0  0  0
    0.1355   -0.7879   -0.1635 C   0  0  0  0  0  0  0  0  0  0  0  0
    1.3732   -0.9736   -0.7170 N   0  0  0  0  0  0  0  0  0  0  0  0
    1.6576   -1.2932   -2.0304 C   0  0  0  0  0  0  0  0  0  0  0  0
    0.8381   -1.7089   -2.8466 O   0  0  0  0  0  0  0  0  0  0  0  0
    3.1272   -1.2505   -2.4019 C   0  0  0  0  0  0  0  0  0  0  0  0
    3.8687   -0.1938   -1.7324 N   0  0  0  0  0  0  0  0  0  0  0  0
    4.4436    0.9039   -2.3090 C   0  0  0  0  0  0  0  0  0  0  0  0
    5.0443    1.6071   -1.2891 C   0  0  0  0  0  0  0  0  0  0  0  0
    4.7767    0.8514   -0.1268 C   0  0  0  0  0  0  0  0  0  0  0  0
    5.1603    1.1354    1.2446 N   0  0  0  0  0  4  0  0  0  0  0  0
    4.7040    0.4142    2.1449 O   0  0  0  0  0  0  0  0  0  0  0  0
    5.9174    2.1031    1.4125 O   0  0  0  0  0  1  0  0  0  0  0  0
    4.0685   -0.2633   -0.3941 N   0  0  0  0  0  0  0  0  0  0  0  0
   -1.1355   -0.4236   -0.8790 C   0  0  0  0  0  0  0  0  0  0  0  0
   -1.2096   -0.1211   -2.0594 O   0  0  0  0  0  0  0  0  0  0  0  0
   -2.1293   -0.3431    0.1152 N   0  0  0  0  0  0  0  0  0  0  0  0
   -3.3305    0.4095    0.0005 C   0  0  0  0  0  0  0  0  0  0  0  0
   -3.9692    0.5538   -1.2386 C   0  0  0  0  0  0  0  0  0  0  0  0
   -5.1571    1.2828   -1.3579 C   0  0  0  0  0  0  0  0  0  0  0  0
   -5.7252    1.8823   -0.2376 C   0  0  0  0  0  0  0  0  0  0  0  0
   -5.1040    1.7564    1.0008 C   0  0  0  0  0  0  0  0  0  0  0  0
   -3.9166    1.0265    1.1172 C   0  0  0  0  0  0  0  0  0  0  0  0
   -1.5408   -0.5970    1.3903 N   0  0  0  0  0  0  0  0  0  0  0  0
   -2.2619   -1.6181    2.1728 C   0  0  0  0  0  0  0  0  0  0  0  0
    1.8021   -1.1329    1.9768 H   0  0  0  0  0  0  0  0  0  0  0  0
    0.5013   -1.9914    2.7994 H   0  0  0  0  0  0  0  0  0  0  0  0
    0.6947   -0.2392    3.0153 H   0  0  0  0  0  0  0  0  0  0  0  0
    2.1721   -0.9351   -0.0841 H   0  0  0  0  0  0  0  0  0  0  0  0
    3.5991   -2.2034   -2.1427 H   0  0  0  0  0  0  0  0  0  0  0  0
    3.2178   -1.0844   -3.4802 H   0  0  0  0  0  0  0  0  0  0  0  0
    4.3752    1.0949   -3.3724 H   0  0  0  0  0  0  0  0  0  0  0  0
    5.5909    2.5371   -1.3656 H   0  0  0  0  0  0  0  0  0  0  0  0
   -3.5646    0.0874   -2.1339 H   0  0  0  0  0  0  0  0  0  0  0  0
   -5.6344    1.3784   -2.3304 H   0  0  0  0  0  0  0  0  0  0  0  0
   -6.6465    2.4507   -0.3319 H   0  0  0  0  0  0  0  0  0  0  0  0
   -5.5360    2.2323    1.8773 H   0  0  0  0  0  0  0  0  0  0  0  0
   -3.4399    0.9762    2.0920 H   0  0  0  0  0  0  0  0  0  0  0  0
   -2.1293   -2.6127    1.7316 H   0  0  0  0  0  0  0  0  0  0  0  0
   -3.3351   -1.4145    2.2269 H   0  0  0  0  0  0  0  0  0  0  0  0
   -1.8867   -1.6380    3.2016 H   0  0  0  0  0  0  0  0  0  0  0  0
  1  2  1  0
  2  3  2  0
  3  4  1  0
  4  5  1  0
  5  6  2  0
  5  7  1  0
  7  8  1  0
  8  9  1  0
  9 10  2  0
 10 11  1  0
 11 12  1  0
 12 13  2  0
 12 14  1  0
 11 15  2  0
  3 16  1  0
 16 17  2  0
 16 18  1  0
 18 19  1  0
 19 20  2  0
 20 21  1  0
 21 22  2  0
 22 23  1  0
 23 24  2  0
 18 25  1  0
 25 26  1  0
 25  2  1  0
 15  8  1  0
 24 19  1  0
  1 27  1  0
  1 28  1  0
  1 29  1  0
  4 30  1  0
  7 31  1  0
  7 32  1  0
  9 33  1  0
 10 34  1  0
 20 35  1  0
 21 36  1  0
 22 37  1  0
 23 38  1  0
 24 39  1  0
 26 40  1  0
 26 41  1  0
 26 42  1  0
M  CHG  2  12   1  14  -1
M  END
$$$$
