
     RDKit          3D

 44 46  0  0  0  0  0  0  0  0999 V2000
   -1.7777   -1.0180   -2.9181 C   0  0  0  0  0  0  0  0  0  0  0  0
   -2.5802    0.1236   -2.6070 O   0  0  0  0  0  0  0  0  0  0  0  0
   -2.3275    0.5384   -1.3262 C   0  0  0  0  0  0  0  0  0  0  0  0
   -1.5284    1.6688   -1.1628 C   0  0  0  0  0  0  0  0  0  0  0  0
   -1.2082    2.1148    0.1209 C   0  0  0  0  0  0  0  0  0  0  0  0
   -1.6897    1.4301    1.2443 C   0  0  0  0  0  0  0  0  0  0  0  0
   -1.3021    1.8426    2.5963 C   0  0  0  0  0  0  0  0  0  0  0  0
   -0.0617    1.7496    3.1182 C   0  0  0  0  0  0  0  0  0  0  0  0
    0.2022    2.2607    4.4213 C   0  0  0  0  0  0  0  0  0  0  0  0
    0.3520    2.6614    5.5004 N   0  0  0  0  0  0  0  0  0  0  0  0
    1.1013    1.1777    2.3703 C   0  0  0  0  0  0  0  0  0  0  0  0
    2.1638    1.7866    2.3481 O   0  0  0  0  0  0  0  0  0  0  0  0
    0.8579   -0.0757    1.8451 N   0  0  0  0  0  0  0  0  0  0  0  0
    1.7261   -0.8727    1.0569 C   0  0  0  0  0  0  0  0  0  0  0  0
    1.5758   -2.2552    1.2514 C   0  0  0  0  0  0  0  0  0  0  0  0
    2.3953   -3.1573    0.5874 C   0  0  0  0  0  0  0  0  0  0  0  0
    3.3572   -2.6834   -0.2982 C   0  0  0  0  0  0  0  0  0  0  0  0
    3.4985   -1.3325   -0.5711 C   0  0  0  0  0  0  0  0  0  0  0  0
    4.4196   -0.9966   -1.4906 N   0  0  0  0  0  0  0  0  0  0  0  0
    4.5372    0.3021   -1.8321 C   0  0  0  0  0  0  0  0  0  0  0  0
    3.7515    1.2993   -1.3048 C   0  0  0  0  0  0  0  0  0  0  0  0
    2.8023    0.9421   -0.3520 C   0  0  0  0  0  0  0  0  0  0  0  0
    2.6631   -0.3950    0.0889 C   0  0  0  0  0  0  0  0  0  0  0  0
   -2.5324    0.3261    1.0747 C   0  0  0  0  0  0  0  0  0  0  0  0
   -2.8709   -0.1028   -0.2096 C   0  0  0  0  0  0  0  0  0  0  0  0
   -3.6858   -1.2012   -0.3011 O   0  0  0  0  0  0  0  0  0  0  0  0
   -4.9602   -0.8440   -0.8431 C   0  0  0  0  0  0  0  0  0  0  0  0
   -2.0457   -1.8814   -2.2981 H   0  0  0  0  0  0  0  0  0  0  0  0
   -1.9665   -1.2844   -3.9644 H   0  0  0  0  0  0  0  0  0  0  0  0
   -0.7094   -0.7899   -2.8107 H   0  0  0  0  0  0  0  0  0  0  0  0
   -1.1382    2.1876   -2.0344 H   0  0  0  0  0  0  0  0  0  0  0  0
   -0.5727    2.9910    0.2308 H   0  0  0  0  0  0  0  0  0  0  0  0
   -2.1127    2.2718    3.1849 H   0  0  0  0  0  0  0  0  0  0  0  0
    0.0532   -0.5615    2.2227 H   0  0  0  0  0  0  0  0  0  0  0  0
    0.8461   -2.6462    1.9567 H   0  0  0  0  0  0  0  0  0  0  0  0
    2.2949   -4.2246    0.7597 H   0  0  0  0  0  0  0  0  0  0  0  0
    4.0008   -3.3928   -0.8156 H   0  0  0  0  0  0  0  0  0  0  0  0
    5.3003    0.5198   -2.5728 H   0  0  0  0  0  0  0  0  0  0  0  0
    3.8661    2.3285   -1.6225 H   0  0  0  0  0  0  0  0  0  0  0  0
    2.1606    1.7276    0.0294 H   0  0  0  0  0  0  0  0  0  0  0  0
   -2.9311   -0.2106    1.9314 H   0  0  0  0  0  0  0  0  0  0  0  0
   -5.4001    0.0045   -0.3040 H   0  0  0  0  0  0  0  0  0  0  0  0
   -4.8967   -0.6261   -1.9138 H   0  0  0  0  0  0  0  0  0  0  0  0
   -5.6282   -1.7030   -0.7186 H   0  0  0  0  0  0  0  0  0  0  0  0
  1  2  1  0
  2  3  1  0
  3  4  2  0
  4  5  1  0
  5  6  2  0
  6  7  1  0
  7  8  2  3
  8  9  1  0
  9 10  3  0
  8 11  1  0
 11 12  2  0
 11 13  1  0
 13 14  1  0
 14 15  2  0
 15 16  1  0
 16 17  2  0
 17 18  1  0
 18 19  2  0
 19 20  1  0
 20 21  2  0
 21 22  1  0
 22 23  2  0
  6 24  1  0
 24 25  2  0
 25 26  1  0
 26 27  1  0
 25  3  1  0
 23 14  1  0
 23 18  1  0
  1 28  1  0
  1 29  1  0
  1 30  1  0
  4 31  1  0
  5 32  1  0
  7 33  1  0
 13 34  1  0
 15 35  1  0
 16 36  1  0
 17 37  1  0
 20 38  1  0
 21 39  1  0
 22 40  1  0
 24 41  1  0
 27 42  1  0
 27 43  1  0
 27 44  1  0
M  END
$$$$
