
     RDKit          3D

 37 38  0  0  0  0  0  0  0  0999 V2000
   -5.1122    2.5330   -0.3198 C   0  0  0  0  0  0  0  0  0  0  0  0
   -4.6254    1.3757    0.3436 O   0  0  0  0  0  0  0  0  0  0  0  0
   -3.4208    0.8609   -0.0664 C   0  0  0  0  0  0  0  0  0  0  0  0
   -2.6356    1.4064   -1.0884 C   0  0  0  0  0  0  0  0  0  0  0  0
   -1.4177    0.8155   -1.4376 C   0  0  0  0  0  0  0  0  0  0  0  0
   -0.9737   -0.3234   -0.7598 C   0  0  0  0  0  0  0  0  0  0  0  0
    0.3159   -0.9858   -1.0969 C   0  0  0  0  0  0  0  0  0  0  0  0
    0.4558   -2.1887   -0.9094 O   0  0  0  0  0  0  0  0  0  0  0  0
    1.3156   -0.1668   -1.5778 N   0  0  0  0  0  0  0  0  0  0  0  0
    2.6499   -0.6716   -1.8117 C   0  0  0  0  0  0  0  0  0  0  0  0
    3.5440   -0.3887   -0.6305 C   0  0  0  0  0  0  0  0  0  0  0  0
    4.3913    0.7268   -0.6218 C   0  0  0  0  0  0  0  0  0  0  0  0
    5.1978    0.9928    0.4878 C   0  0  0  0  0  0  0  0  0  0  0  0
    5.1619    0.1520    1.6043 C   0  0  0  0  0  0  0  0  0  0  0  0
    6.1855    0.5465    2.9392 Cl  0  0  0  0  0  0  0  0  0  0  0  0
    4.3138   -0.9596    1.6101 C   0  0  0  0  0  0  0  0  0  0  0  0
    4.2096   -2.0382    2.9557 Cl  0  0  0  0  0  0  0  0  0  0  0  0
    3.5089   -1.2250    0.4972 C   0  0  0  0  0  0  0  0  0  0  0  0
   -1.7628   -0.8853    0.2520 C   0  0  0  0  0  0  0  0  0  0  0  0
   -2.9822   -0.2988    0.6066 C   0  0  0  0  0  0  0  0  0  0  0  0
   -3.8127   -0.7741    1.5918 O   0  0  0  0  0  0  0  0  0  0  0  0
   -3.4359   -1.9768    2.2483 C   0  0  0  0  0  0  0  0  0  0  0  0
   -5.2869    2.3352   -1.3825 H   0  0  0  0  0  0  0  0  0  0  0  0
   -6.0736    2.7976    0.1309 H   0  0  0  0  0  0  0  0  0  0  0  0
   -4.4353    3.3822   -0.1806 H   0  0  0  0  0  0  0  0  0  0  0  0
   -2.9488    2.2875   -1.6387 H   0  0  0  0  0  0  0  0  0  0  0  0
   -0.8453    1.2408   -2.2569 H   0  0  0  0  0  0  0  0  0  0  0  0
    1.2123    0.8337   -1.4868 H   0  0  0  0  0  0  0  0  0  0  0  0
    3.0328   -0.1713   -2.7080 H   0  0  0  0  0  0  0  0  0  0  0  0
    2.6293   -1.7464   -2.0243 H   0  0  0  0  0  0  0  0  0  0  0  0
    4.4324    1.3963   -1.4790 H   0  0  0  0  0  0  0  0  0  0  0  0
    5.8534    1.8606    0.4770 H   0  0  0  0  0  0  0  0  0  0  0  0
    2.8420   -2.0872    0.5050 H   0  0  0  0  0  0  0  0  0  0  0  0
   -1.3976   -1.7783    0.7505 H   0  0  0  0  0  0  0  0  0  0  0  0
   -3.3660   -2.8094    1.5406 H   0  0  0  0  0  0  0  0  0  0  0  0
   -4.2191   -2.2215    2.9723 H   0  0  0  0  0  0  0  0  0  0  0  0
   -2.5006   -1.8467    2.8025 H   0  0  0  0  0  0  0  0  0  0  0  0
  1  2  1  0
  2  3  1  0
  3  4  2  0
  4  5  1  0
  5  6  2  0
  6  7  1  0
  7  8  2  0
  7  9  1  0
  9 10  1  0
 10 11  1  0
 11 12  2  0
 12 13  1  0
 13 14  2  0
 14 15  1  0
 14 16  1  0
 16 17  1  0
 16 18  2  0
  6 19  1  0
 19 20  2  0
 20 21  1  0
 21 22  1  0
 20  3  1  0
 18 11  1  0
  1 23  1  0
  1 24  1  0
  1 25  1  0
  4 26  1  0
  5 27  1  0
  9 28  1  0
 10 29  1  0
 10 30  1  0
 12 31  1  0
 13 32  1  0
 18 33  1  0
 19 34  1  0
 22 35  1  0
 22 36  1  0
 22 37  1  0
M  END
$$$$
