
     RDKit          3D

 31 32  0  0  0  0  0  0  0  0999 V2000
    1.9906   -2.7520    3.3531 C   0  0  0  0  0  0  0  0  0  0  0  0
    0.5815   -2.6623    2.2181 S   0  0  0  0  0  0  0  0  0  0  0  0
    1.3327   -1.6754    0.9382 C   0  0  0  0  0  0  0  0  0  0  0  0
    2.0918   -2.2818   -0.0666 C   0  0  0  0  0  0  0  0  0  0  0  0
    2.6775   -1.5053   -1.0682 C   0  0  0  0  0  0  0  0  0  0  0  0
    2.5049   -0.1205   -1.0688 C   0  0  0  0  0  0  0  0  0  0  0  0
    1.7478    0.4866   -0.0672 C   0  0  0  0  0  0  0  0  0  0  0  0
    1.5545    1.9044   -0.0641 N   0  0  0  0  0  0  0  0  0  0  0  0
    0.4781    2.5194   -1.2311 S   0  0  0  0  0  6  0  0  0  0  0  0
    0.8234    2.0290   -2.5486 O   0  0  0  0  0  0  0  0  0  0  0  0
    0.3221    3.9325   -0.9609 O   0  0  0  0  0  0  0  0  0  0  0  0
   -1.1023    1.8559   -0.8992 C   0  0  0  0  0  0  0  0  0  0  0  0
   -2.0753    1.5494   -1.8292 C   0  0  0  0  0  0  0  0  0  0  0  0
   -3.1001    1.0200   -1.0986 N   0  0  0  0  0  0  0  0  0  0  0  0
   -4.3508    0.5413   -1.6292 C   0  0  0  0  0  0  0  0  0  0  0  0
   -2.7381    1.0371    0.2185 C   0  0  0  0  0  0  0  0  0  0  0  0
   -1.5361    1.5447    0.3838 N   0  0  0  0  0  0  0  0  0  0  0  0
    1.1548   -0.2889    0.9306 C   0  0  0  0  0  0  0  0  0  0  0  0
    2.8138   -3.3078    2.8954 H   0  0  0  0  0  0  0  0  0  0  0  0
    2.3352   -1.7489    3.6208 H   0  0  0  0  0  0  0  0  0  0  0  0
    1.6855   -3.2687    4.2684 H   0  0  0  0  0  0  0  0  0  0  0  0
    2.2286   -3.3614   -0.0790 H   0  0  0  0  0  0  0  0  0  0  0  0
    3.2669   -1.9790   -1.8488 H   0  0  0  0  0  0  0  0  0  0  0  0
    2.9636    0.4796   -1.8501 H   0  0  0  0  0  0  0  0  0  0  0  0
    1.2552    2.2733    0.8401 H   0  0  0  0  0  0  0  0  0  0  0  0
   -2.0990    1.6525   -2.9054 H   0  0  0  0  0  0  0  0  0  0  0  0
   -5.0146    0.2545   -0.8093 H   0  0  0  0  0  0  0  0  0  0  0  0
   -4.1476   -0.3248   -2.2652 H   0  0  0  0  0  0  0  0  0  0  0  0
   -4.8101    1.3442   -2.2126 H   0  0  0  0  0  0  0  0  0  0  0  0
   -3.3819    0.6717    1.0098 H   0  0  0  0  0  0  0  0  0  0  0  0
    0.5471    0.1806    1.7007 H   0  0  0  0  0  0  0  0  0  0  0  0
  1  2  1  0
  2  3  1  0
  3  4  2  0
  4  5  1  0
  5  6  2  0
  6  7  1  0
  7  8  1  0
  8  9  1  0
  9 10  2  0
  9 11  2  0
  9 12  1  0
 12 13  2  0
 13 14  1  0
 14 15  1  0
 14 16  1  0
 16 17  2  0
  7 18  2  0
 18  3  1  0
 17 12  1  0
  1 19  1  0
  1 20  1  0
  1 21  1  0
  4 22  1  0
  5 23  1  0
  6 24  1  0
  8 25  1  0
 13 26  1  0
 15 27  1  0
 15 28  1  0
 15 29  1  0
 16 30  1  0
 18 31  1  0
M  END
$$$$
