
     RDKit          3D

 48 51  0  0  0  0  0  0  0  0999 V2000
    7.6817    1.0513   -1.6982 C   0  0  0  0  0  0  0  0  0  0  0  0
    6.3139    0.8292   -1.1985 C   0  0  0  0  0  0  0  0  0  0  0  0
    5.7823    0.1745   -0.1168 C   0  0  0  0  0  0  0  0  0  0  0  0
    4.3821    0.3576   -0.2407 C   0  0  0  0  0  0  0  0  0  0  0  0
    3.3374   -0.1432    0.6536 C   0  0  0  0  0  0  0  0  0  0  0  0
    3.5847   -0.8389    1.6340 O   0  0  0  0  0  0  0  0  0  0  0  0
    2.0610    0.2252    0.2908 N   0  0  0  0  0  0  0  0  0  0  0  0
    0.8927   -0.2998    0.9569 C   0  0  0  0  0  0  0  0  0  0  0  0
    0.5695   -1.7265    0.4525 C   0  0  0  0  0  0  0  0  0  0  0  0
   -0.8869   -2.1867    0.7552 C   0  0  0  0  0  0  0  0  0  0  0  0
   -1.0967   -3.5920    0.1597 C   0  0  0  0  0  0  0  0  0  0  0  0
   -1.1224   -2.2759    2.2769 C   0  0  0  0  0  0  0  0  0  0  0  0
   -1.9135   -1.2081    0.1013 C   0  0  0  0  0  0  0  0  0  0  0  0
   -1.5126    0.2165    0.3024 C   0  0  0  0  0  0  0  0  0  0  0  0
   -0.2498    0.6209    0.7001 C   0  0  0  0  0  0  0  0  0  0  0  0
   -0.3617    2.0030    0.8831 C   0  0  0  0  0  0  0  0  0  0  0  0
   -1.5806    2.4536    0.5998 N   0  0  0  0  0  0  0  0  0  0  0  0
   -2.2880    1.3634    0.1807 N   0  0  0  0  0  0  0  0  0  0  0  0
   -3.6273    1.5520   -0.2871 C   0  0  0  0  0  0  0  0  0  0  0  0
   -4.3429    0.5544   -0.9622 C   0  0  0  0  0  0  0  0  0  0  0  0
   -5.6515    0.7959   -1.3987 C   0  0  0  0  0  0  0  0  0  0  0  0
   -6.2427    2.0316   -1.1707 C   0  0  0  0  0  0  0  0  0  0  0  0
   -7.4940    2.2533   -1.5930 F   0  0  0  0  0  0  0  0  0  0  0  0
   -5.5489    3.0401   -0.5197 C   0  0  0  0  0  0  0  0  0  0  0  0
   -4.2428    2.8039   -0.0830 C   0  0  0  0  0  0  0  0  0  0  0  0
    4.0916    1.0789   -1.3392 N   0  0  0  0  0  0  0  0  0  0  0  0
    5.3067    1.3712   -1.9324 O   0  0  0  0  0  0  0  0  0  0  0  0
    8.4212    0.5865   -1.0387 H   0  0  0  0  0  0  0  0  0  0  0  0
    7.9008    2.1220   -1.7539 H   0  0  0  0  0  0  0  0  0  0  0  0
    7.7992    0.6219   -2.6979 H   0  0  0  0  0  0  0  0  0  0  0  0
    6.3105   -0.3607    0.6586 H   0  0  0  0  0  0  0  0  0  0  0  0
    1.9623    0.7026   -0.6004 H   0  0  0  0  0  0  0  0  0  0  0  0
    1.0909   -0.3343    2.0353 H   0  0  0  0  0  0  0  0  0  0  0  0
    1.2907   -2.4343    0.8821 H   0  0  0  0  0  0  0  0  0  0  0  0
    0.7261   -1.7671   -0.6359 H   0  0  0  0  0  0  0  0  0  0  0  0
   -0.4074   -4.3177    0.6058 H   0  0  0  0  0  0  0  0  0  0  0  0
   -0.9259   -3.5943   -0.9228 H   0  0  0  0  0  0  0  0  0  0  0  0
   -2.1181   -3.9475    0.3362 H   0  0  0  0  0  0  0  0  0  0  0  0
   -0.3918   -2.9436    2.7474 H   0  0  0  0  0  0  0  0  0  0  0  0
   -1.0450   -1.3017    2.7694 H   0  0  0  0  0  0  0  0  0  0  0  0
   -2.1209   -2.6711    2.4963 H   0  0  0  0  0  0  0  0  0  0  0  0
   -1.9520   -1.4008   -0.9782 H   0  0  0  0  0  0  0  0  0  0  0  0
   -2.9070   -1.3986    0.5223 H   0  0  0  0  0  0  0  0  0  0  0  0
    0.3905    2.7029    1.2254 H   0  0  0  0  0  0  0  0  0  0  0  0
   -3.9179   -0.4099   -1.2047 H   0  0  0  0  0  0  0  0  0  0  0  0
   -6.2094    0.0275   -1.9255 H   0  0  0  0  0  0  0  0  0  0  0  0
   -6.0217    4.0029   -0.3549 H   0  0  0  0  0  0  0  0  0  0  0  0
   -3.7162    3.6097    0.4274 H   0  0  0  0  0  0  0  0  0  0  0  0
  1  2  1  0
  2  3  2  0
  3  4  1  0
  4  5  1  0
  5  6  2  0
  5  7  1  0
  7  8  1  0
  8  9  1  0
  9 10  1  0
 10 11  1  0
 10 12  1  0
 10 13  1  0
 13 14  1  0
 14 15  2  0
 15 16  1  0
 16 17  2  0
 17 18  1  0
 18 19  1  0
 19 20  2  0
 20 21  1  0
 21 22  2  0
 22 23  1  0
 22 24  1  0
 24 25  2  0
  4 26  2  0
 26 27  1  0
 27  2  1  0
 15  8  1  0
 25 19  1  0
 18 14  1  0
  1 28  1  0
  1 29  1  0
  1 30  1  0
  3 31  1  0
  7 32  1  0
  8 33  1  0
  9 34  1  0
  9 35  1  0
 11 36  1  0
 11 37  1  0
 11 38  1  0
 12 39  1  0
 12 40  1  0
 12 41  1  0
 13 42  1  0
 13 43  1  0
 16 44  1  0
 20 45  1  0
 21 46  1  0
 24 47  1  0
 25 48  1  0
M  END
$$$$
