
     RDKit          3D

 60 63  0  0  0  0  0  0  0  0999 V2000
   -8.6393   -1.5691   -0.1505 C   0  0  0  0  0  0  0  0  0  0  0  0
   -7.8289   -1.4725    1.0121 O   0  0  0  0  0  0  0  0  0  0  0  0
   -6.6766   -0.7317    0.9291 C   0  0  0  0  0  0  0  0  0  0  0  0
   -6.2226   -0.1041   -0.2371 C   0  0  0  0  0  0  0  0  0  0  0  0
   -5.0309    0.6235   -0.2293 C   0  0  0  0  0  0  0  0  0  0  0  0
   -4.2787    0.7032    0.9435 C   0  0  0  0  0  0  0  0  0  0  0  0
   -2.7616    1.6375    0.9625 S   0  0  0  0  0  6  0  0  0  0  0  0
   -2.5576    2.0957    2.3196 O   0  0  0  0  0  0  0  0  0  0  0  0
   -2.8122    2.5665   -0.1455 O   0  0  0  0  0  0  0  0  0  0  0  0
   -1.5782    0.5045    0.6213 N   0  0  0  0  0  0  0  0  0  0  0  0
   -1.3000   -0.5903    1.5555 C   0  0  0  0  0  0  0  0  0  0  0  0
   -1.4943   -1.8229    0.7013 C   0  0  0  0  0  0  0  0  0  0  0  0
   -1.0808   -1.4105   -0.6043 O   0  0  0  0  0  0  0  0  0  0  0  0
   -1.5116   -0.0435   -0.7454 C   0  0  0  0  0  0  0  0  0  0  0  0
   -0.5020    0.7348   -1.6100 C   0  0  0  0  0  0  0  0  0  0  0  0
    0.7696    0.9482   -0.9378 N   0  0  0  0  0  0  0  0  0  0  0  0
    1.9017    1.3277   -1.6137 C   0  0  0  0  0  0  0  0  0  0  0  0
    2.0290    1.3957   -2.8283 O   0  0  0  0  0  0  0  0  0  0  0  0
    3.0823    1.7006   -0.6870 C   0  0  0  0  0  0  0  0  0  0  0  0
    2.9586    1.6286    0.5278 O   0  0  0  0  0  0  0  0  0  0  0  0
    4.2092    2.0904   -1.3701 N   0  0  0  0  0  0  0  0  0  0  0  0
    5.4643    2.3403   -0.7128 C   0  0  0  0  0  0  0  0  0  0  0  0
    6.3492    1.1213   -0.7621 C   0  0  0  0  0  0  0  0  0  0  0  0
    6.2110    0.1061    0.2139 C   0  0  0  0  0  0  0  0  0  0  0  0
    7.0059   -1.0437    0.1764 C   0  0  0  0  0  0  0  0  0  0  0  0
    7.9215   -1.1553   -0.8463 C   0  0  0  0  0  0  0  0  0  0  0  0
    8.0576   -0.1795   -1.8051 C   0  0  0  0  0  0  0  0  0  0  0  0
    7.2879    0.9650   -1.7951 C   0  0  0  0  0  0  0  0  0  0  0  0
    9.0117   -0.4851   -2.7248 O   0  0  0  0  0  0  0  0  0  0  0  0
    9.4594   -1.7661   -2.2344 C   0  0  0  0  0  0  0  0  0  0  0  0
    8.7730   -2.1973   -1.0412 O   0  0  0  0  0  0  0  0  0  0  0  0
   -4.7376    0.1141    2.1260 C   0  0  0  0  0  0  0  0  0  0  0  0
   -5.9339   -0.6088    2.1229 C   0  0  0  0  0  0  0  0  0  0  0  0
   -6.4478   -1.2462    3.2249 O   0  0  0  0  0  0  0  0  0  0  0  0
   -5.9238   -0.8820    4.4952 C   0  0  0  0  0  0  0  0  0  0  0  0
   -9.5169   -2.1719    0.1025 H   0  0  0  0  0  0  0  0  0  0  0  0
   -8.9939   -0.5831   -0.4685 H   0  0  0  0  0  0  0  0  0  0  0  0
   -8.1079   -2.0796   -0.9602 H   0  0  0  0  0  0  0  0  0  0  0  0
   -6.7787   -0.1578   -1.1677 H   0  0  0  0  0  0  0  0  0  0  0  0
   -4.7047    1.1233   -1.1391 H   0  0  0  0  0  0  0  0  0  0  0  0
   -0.2556   -0.5011    1.8746 H   0  0  0  0  0  0  0  0  0  0  0  0
   -1.9266   -0.6045    2.4484 H   0  0  0  0  0  0  0  0  0  0  0  0
   -0.8951   -2.6731    1.0372 H   0  0  0  0  0  0  0  0  0  0  0  0
   -2.5472   -2.1223    0.6536 H   0  0  0  0  0  0  0  0  0  0  0  0
   -2.4865   -0.0692   -1.2390 H   0  0  0  0  0  0  0  0  0  0  0  0
   -0.3088    0.1974   -2.5451 H   0  0  0  0  0  0  0  0  0  0  0  0
   -0.8933    1.7261   -1.8610 H   0  0  0  0  0  0  0  0  0  0  0  0
    0.7662    1.0972    0.0689 H   0  0  0  0  0  0  0  0  0  0  0  0
    4.1788    1.9915   -2.3808 H   0  0  0  0  0  0  0  0  0  0  0  0
    5.9434    3.1814   -1.2259 H   0  0  0  0  0  0  0  0  0  0  0  0
    5.2976    2.6457    0.3266 H   0  0  0  0  0  0  0  0  0  0  0  0
    5.4716    0.2153    1.0070 H   0  0  0  0  0  0  0  0  0  0  0  0
    6.9034   -1.8223    0.9236 H   0  0  0  0  0  0  0  0  0  0  0  0
    7.4142    1.7147   -2.5689 H   0  0  0  0  0  0  0  0  0  0  0  0
    9.3033   -2.5155   -3.0189 H   0  0  0  0  0  0  0  0  0  0  0  0
   10.5321   -1.7029   -2.0180 H   0  0  0  0  0  0  0  0  0  0  0  0
   -4.1524    0.2276    3.0330 H   0  0  0  0  0  0  0  0  0  0  0  0
   -4.9007   -1.2525    4.6153 H   0  0  0  0  0  0  0  0  0  0  0  0
   -5.9742    0.2004    4.6537 H   0  0  0  0  0  0  0  0  0  0  0  0
   -6.5419   -1.3600    5.2613 H   0  0  0  0  0  0  0  0  0  0  0  0
  1  2  1  0
  2  3  1  0
  3  4  2  0
  4  5  1  0
  5  6  2  0
  6  7  1  0
  7  8  2  0
  7  9  2  0
  7 10  1  0
 10 11  1  0
 11 12  1  0
 12 13  1  0
 13 14  1  0
 14 15  1  0
 15 16  1  0
 16 17  1  0
 17 18  2  0
 17 19  1  0
 19 20  2  0
 19 21  1  0
 21 22  1  0
 22 23  1  0
 23 24  2  0
 24 25  1  0
 25 26  2  0
 26 27  1  0
 27 28  2  0
 27 29  1  0
 29 30  1  0
 30 31  1  0
  6 32  1  0
 32 33  2  0
 33 34  1  0
 34 35  1  0
 33  3  1  0
 14 10  1  0
 28 23  1  0
 31 26  1  0
  1 36  1  0
  1 37  1  0
  1 38  1  0
  4 39  1  0
  5 40  1  0
 11 41  1  0
 11 42  1  0
 12 43  1  0
 12 44  1  0
 14 45  1  0
 15 46  1  0
 15 47  1  0
 16 48  1  0
 21 49  1  0
 22 50  1  0
 22 51  1  0
 24 52  1  0
 25 53  1  0
 28 54  1  0
 30 55  1  0
 30 56  1  0
 32 57  1  0
 35 58  1  0
 35 59  1  0
 35 60  1  0
M  END
$$$$
