
     RDKit          3D

 43 44  0  0  0  0  0  0  0  0999 V2000
   -2.7959    2.3298    1.7141 C   0  0  0  0  0  0  0  0  0  0  0  0
   -2.7731    0.8135    1.7149 C   0  0  0  0  0  0  0  0  0  0  0  0
   -3.2924    0.3056    0.4175 N   0  0  0  0  0  4  0  0  0  0  0  0
   -4.6307    0.1083    0.3046 C   0  0  0  0  0  0  0  0  0  0  0  0
   -5.1992   -0.4034   -0.8597 C   0  0  0  0  0  0  0  0  0  0  0  0
   -6.6853   -0.5799   -0.9724 C   0  0  0  0  0  0  0  0  0  0  0  0
   -4.3679   -0.6930   -1.9351 C   0  0  0  0  0  0  0  0  0  0  0  0
   -2.9995   -0.4889   -1.8148 C   0  0  0  0  0  0  0  0  0  0  0  0
   -2.4626    0.0113   -0.6220 C   0  0  0  0  0  0  0  0  0  0  0  0
   -1.0201    0.2481   -0.5208 C   0  0  0  0  0  0  0  0  0  0  0  0
   -0.1251   -0.7508   -0.5841 C   0  0  0  0  0  0  0  0  0  0  0  0
    1.3282   -0.5461   -0.5128 C   0  0  0  0  0  0  0  0  0  0  0  0
    1.9201    0.4072    0.3148 C   0  0  0  0  0  0  0  0  0  0  0  0
    3.3170    0.5471    0.3616 C   0  0  0  0  0  0  0  0  0  0  0  0
    4.1827   -0.2615   -0.3939 C   0  0  0  0  0  0  0  0  0  0  0  0
    5.5695   -0.0977   -0.3609 N   0  0  0  0  0  0  0  0  0  0  0  0
    6.1779    0.6596    0.7325 C   0  0  0  0  0  0  0  0  0  0  0  0
    6.4301   -1.1009   -0.9876 C   0  0  0  0  0  0  0  0  0  0  0  0
    3.5592   -1.2160   -1.2143 C   0  0  0  0  0  0  0  0  0  0  0  0
    2.1643   -1.3668   -1.2682 C   0  0  0  0  0  0  0  0  0  0  0  0
   -3.8135    2.7081    1.5734 H   0  0  0  0  0  0  0  0  0  0  0  0
   -2.1774    2.7396    0.9102 H   0  0  0  0  0  0  0  0  0  0  0  0
   -2.4183    2.7150    2.6662 H   0  0  0  0  0  0  0  0  0  0  0  0
   -3.4126    0.4143    2.5105 H   0  0  0  0  0  0  0  0  0  0  0  0
   -1.7686    0.4187    1.8890 H   0  0  0  0  0  0  0  0  0  0  0  0
   -5.2427    0.3682    1.1652 H   0  0  0  0  0  0  0  0  0  0  0  0
   -7.1267   -0.8045    0.0043 H   0  0  0  0  0  0  0  0  0  0  0  0
   -7.1417    0.3337   -1.3654 H   0  0  0  0  0  0  0  0  0  0  0  0
   -6.9297   -1.4137   -1.6390 H   0  0  0  0  0  0  0  0  0  0  0  0
   -4.7766   -1.0747   -2.8707 H   0  0  0  0  0  0  0  0  0  0  0  0
   -2.3511   -0.7113   -2.6616 H   0  0  0  0  0  0  0  0  0  0  0  0
   -0.7083    1.2835   -0.4157 H   0  0  0  0  0  0  0  0  0  0  0  0
   -0.4389   -1.7851   -0.7214 H   0  0  0  0  0  0  0  0  0  0  0  0
    1.3226    1.0594    0.9444 H   0  0  0  0  0  0  0  0  0  0  0  0
    3.7111    1.3213    1.0137 H   0  0  0  0  0  0  0  0  0  0  0  0
    5.8496    1.7044    0.7204 H   0  0  0  0  0  0  0  0  0  0  0  0
    5.9387    0.2097    1.7023 H   0  0  0  0  0  0  0  0  0  0  0  0
    7.2697    0.6866    0.6422 H   0  0  0  0  0  0  0  0  0  0  0  0
    6.2241   -1.1853   -2.0600 H   0  0  0  0  0  0  0  0  0  0  0  0
    6.3048   -2.0788   -0.5098 H   0  0  0  0  0  0  0  0  0  0  0  0
    7.4877   -0.8257   -0.9064 H   0  0  0  0  0  0  0  0  0  0  0  0
    4.1466   -1.8781   -1.8442 H   0  0  0  0  0  0  0  0  0  0  0  0
    1.7541   -2.1307   -1.9252 H   0  0  0  0  0  0  0  0  0  0  0  0
  1  2  1  0
  2  3  1  0
  3  4  2  0
  4  5  1  0
  5  6  1  0
  5  7  2  0
  7  8  1  0
  8  9  2  0
  9 10  1  0
 10 11  2  3
 11 12  1  0
 12 13  2  0
 13 14  1  0
 14 15  2  0
 15 16  1  0
 16 17  1  0
 16 18  1  0
 15 19  1  0
 19 20  2  0
  9  3  1  0
 20 12  1  0
  1 21  1  0
  1 22  1  0
  1 23  1  0
  2 24  1  0
  2 25  1  0
  4 26  1  0
  6 27  1  0
  6 28  1  0
  6 29  1  0
  7 30  1  0
  8 31  1  0
 10 32  1  0
 11 33  1  0
 13 34  1  0
 14 35  1  0
 17 36  1  0
 17 37  1  0
 17 38  1  0
 18 39  1  0
 18 40  1  0
 18 41  1  0
 19 42  1  0
 20 43  1  0
M  CHG  1   3   1
M  END
$$$$
