
     RDKit          3D

 49 51  0  0  0  0  0  0  0  0999 V2000
    1.8170    6.5744   -0.5733 C   0  0  0  0  0  0  0  0  0  0  0  0
    0.9212    5.6209   -0.0203 O   0  0  0  0  0  0  0  0  0  0  0  0
    1.3892    4.3456    0.1798 C   0  0  0  0  0  0  0  0  0  0  0  0
    2.6630    3.9038   -0.2009 C   0  0  0  0  0  0  0  0  0  0  0  0
    3.0509    2.5833    0.0320 C   0  0  0  0  0  0  0  0  0  0  0  0
    2.1570    1.7032    0.6412 C   0  0  0  0  0  0  0  0  0  0  0  0
    2.6458    0.0237    0.9372 S   0  0  0  0  0  6  0  0  0  0  0  0
    4.0832    0.0122    1.1121 O   0  0  0  0  0  0  0  0  0  0  0  0
    1.7701   -0.5506    1.9354 O   0  0  0  0  0  0  0  0  0  0  0  0
    2.3545   -0.7131   -0.5578 N   0  0  0  0  0  0  0  0  0  0  0  0
    1.0130   -1.0572   -0.8812 C   0  0  0  0  0  0  0  0  0  0  0  0
    0.2327   -0.1494   -1.5855 C   0  0  0  0  0  0  0  0  0  0  0  0
   -1.1044   -0.4428   -1.8287 C   0  0  0  0  0  0  0  0  0  0  0  0
   -1.6583   -1.6524   -1.3788 C   0  0  0  0  0  0  0  0  0  0  0  0
   -0.8557   -2.6138   -0.7281 C   0  0  0  0  0  0  0  0  0  0  0  0
    0.4721   -2.2696   -0.4427 C   0  0  0  0  0  0  0  0  0  0  0  0
   -1.4334   -3.8631   -0.3255 N   0  0  0  0  0  0  0  0  0  0  0  0
   -0.7648   -5.0718   -0.1031 C   0  0  0  0  0  0  0  0  0  0  0  0
    0.6422   -5.2635   -0.6132 C   0  0  0  0  0  0  0  0  0  0  0  0
   -1.3242   -6.0338    0.4366 O   0  0  0  0  0  0  0  0  0  0  0  0
   -2.8944   -3.9673   -0.2455 C   0  0  0  0  0  0  0  0  0  0  0  0
   -3.6593   -2.6650   -0.4056 C   0  0  0  0  0  0  0  0  0  0  0  0
   -3.1226   -1.9124   -1.6065 C   0  0  0  0  0  0  0  0  0  0  0  0
    0.8890    2.1316    1.0464 C   0  0  0  0  0  0  0  0  0  0  0  0
    0.4959    3.4515    0.8102 C   0  0  0  0  0  0  0  0  0  0  0  0
   -0.7330    3.9633    1.1467 O   0  0  0  0  0  0  0  0  0  0  0  0
   -1.6291    3.1176    1.8548 C   0  0  0  0  0  0  0  0  0  0  0  0
    1.2935    7.5339   -0.6262 H   0  0  0  0  0  0  0  0  0  0  0  0
    2.6956    6.7101    0.0662 H   0  0  0  0  0  0  0  0  0  0  0  0
    2.1068    6.2979   -1.5923 H   0  0  0  0  0  0  0  0  0  0  0  0
    3.3769    4.5643   -0.6823 H   0  0  0  0  0  0  0  0  0  0  0  0
    4.0434    2.2513   -0.2652 H   0  0  0  0  0  0  0  0  0  0  0  0
    3.0833   -1.3932   -0.7724 H   0  0  0  0  0  0  0  0  0  0  0  0
    0.6490    0.7926   -1.9325 H   0  0  0  0  0  0  0  0  0  0  0  0
   -1.7197    0.2836   -2.3561 H   0  0  0  0  0  0  0  0  0  0  0  0
    1.0911   -2.9023    0.1819 H   0  0  0  0  0  0  0  0  0  0  0  0
    1.3636   -5.0400    0.1755 H   0  0  0  0  0  0  0  0  0  0  0  0
    0.7661   -6.3149   -0.8952 H   0  0  0  0  0  0  0  0  0  0  0  0
    0.8370   -4.6788   -1.5143 H   0  0  0  0  0  0  0  0  0  0  0  0
   -3.2080   -4.6759   -1.0240 H   0  0  0  0  0  0  0  0  0  0  0  0
   -3.1617   -4.4194    0.7180 H   0  0  0  0  0  0  0  0  0  0  0  0
   -4.7286   -2.8701   -0.5267 H   0  0  0  0  0  0  0  0  0  0  0  0
   -3.5476   -2.0572    0.5020 H   0  0  0  0  0  0  0  0  0  0  0  0
   -3.2534   -2.4876   -2.5305 H   0  0  0  0  0  0  0  0  0  0  0  0
   -3.6732   -0.9705   -1.7133 H   0  0  0  0  0  0  0  0  0  0  0  0
    0.2258    1.4198    1.5278 H   0  0  0  0  0  0  0  0  0  0  0  0
   -1.2002    2.7966    2.8098 H   0  0  0  0  0  0  0  0  0  0  0  0
   -1.9252    2.2587    1.2436 H   0  0  0  0  0  0  0  0  0  0  0  0
   -2.5319    3.6959    2.0739 H   0  0  0  0  0  0  0  0  0  0  0  0
  1  2  1  0
  2  3  1  0
  3  4  2  0
  4  5  1  0
  5  6  2  0
  6  7  1  0
  7  8  2  0
  7  9  2  0
  7 10  1  0
 10 11  1  0
 11 12  2  0
 12 13  1  0
 13 14  2  0
 14 15  1  0
 15 16  2  0
 15 17  1  0
 17 18  1  0
 18 19  1  0
 18 20  2  0
 17 21  1  0
 21 22  1  0
 22 23  1  0
  6 24  1  0
 24 25  2  0
 25 26  1  0
 26 27  1  0
 25  3  1  0
 16 11  1  0
 23 14  1  0
  1 28  1  0
  1 29  1  0
  1 30  1  0
  4 31  1  0
  5 32  1  0
 10 33  1  0
 12 34  1  0
 13 35  1  0
 16 36  1  0
 19 37  1  0
 19 38  1  0
 19 39  1  0
 21 40  1  0
 21 41  1  0
 22 42  1  0
 22 43  1  0
 23 44  1  0
 23 45  1  0
 24 46  1  0
 27 47  1  0
 27 48  1  0
 27 49  1  0
M  END
$$$$
