
     RDKit          3D

 46 47  0  0  0  0  0  0  0  0999 V2000
   -1.4029   -2.5734   -2.6979 C   0  0  0  0  0  0  0  0  0  0  0  0
   -0.6010   -2.6951   -1.4256 C   0  0  0  0  0  0  0  0  0  0  0  0
   -0.9264   -3.5007   -0.5597 O   0  0  0  0  0  0  0  0  0  0  0  0
    0.4645   -1.8233   -1.3701 N   0  0  0  0  0  0  0  0  0  0  0  0
    1.4737   -1.7480   -0.3846 C   0  0  0  0  0  0  0  0  0  0  0  0
    1.6078   -2.6544    0.6665 C   0  0  0  0  0  0  0  0  0  0  0  0
    2.6596   -2.5223    1.5787 C   0  0  0  0  0  0  0  0  0  0  0  0
    3.5899   -1.4930    1.4399 C   0  0  0  0  0  0  0  0  0  0  0  0
    3.4633   -0.5764    0.3981 C   0  0  0  0  0  0  0  0  0  0  0  0
    2.3926   -0.6868   -0.4905 C   0  0  0  0  0  0  0  0  0  0  0  0
    2.2085    0.2016   -1.5229 O   0  0  0  0  0  0  0  0  0  0  0  0
    2.1494    1.5795   -1.1220 C   0  0  0  0  0  0  0  0  0  0  0  0
    3.0125    2.3714   -2.0961 C   0  0  0  0  0  0  0  0  0  0  0  0
    0.6856    2.0623   -1.1566 C   0  0  0  0  0  0  0  0  0  0  0  0
    0.2837    2.9634   -1.8874 O   0  0  0  0  0  0  0  0  0  0  0  0
   -0.1349    1.4110   -0.2593 N   0  0  0  0  0  0  0  0  0  0  0  0
   -1.5504    1.7068   -0.1278 C   0  0  0  0  0  0  0  0  0  0  0  0
   -2.3594    1.1136   -1.2838 C   0  0  0  0  0  0  0  0  0  0  0  0
   -2.0451    1.2191    1.2238 C   0  0  0  0  0  0  0  0  0  0  0  0
   -2.4199    2.1517    2.2066 C   0  0  0  0  0  0  0  0  0  0  0  0
   -2.8588    1.7244    3.4614 C   0  0  0  0  0  0  0  0  0  0  0  0
   -2.9193    0.3653    3.7415 C   0  0  0  0  0  0  0  0  0  0  0  0
   -3.3382   -0.0419    4.9468 F   0  0  0  0  0  0  0  0  0  0  0  0
   -2.5476   -0.5763    2.7911 C   0  0  0  0  0  0  0  0  0  0  0  0
   -2.1094   -0.1521    1.5353 C   0  0  0  0  0  0  0  0  0  0  0  0
   -1.2969   -3.4964   -3.2743 H   0  0  0  0  0  0  0  0  0  0  0  0
   -1.0728   -1.7342   -3.3161 H   0  0  0  0  0  0  0  0  0  0  0  0
   -2.4546   -2.4173   -2.4419 H   0  0  0  0  0  0  0  0  0  0  0  0
    0.5669   -1.1417   -2.1165 H   0  0  0  0  0  0  0  0  0  0  0  0
    0.9227   -3.4869    0.7946 H   0  0  0  0  0  0  0  0  0  0  0  0
    2.7599   -3.2399    2.3903 H   0  0  0  0  0  0  0  0  0  0  0  0
    4.4176   -1.4124    2.1405 H   0  0  0  0  0  0  0  0  0  0  0  0
    4.2080    0.2056    0.2838 H   0  0  0  0  0  0  0  0  0  0  0  0
    2.5201    1.7562   -0.1043 H   0  0  0  0  0  0  0  0  0  0  0  0
    4.0495    2.0207   -2.0602 H   0  0  0  0  0  0  0  0  0  0  0  0
    2.6670    2.2370   -3.1274 H   0  0  0  0  0  0  0  0  0  0  0  0
    2.9965    3.4412   -1.8652 H   0  0  0  0  0  0  0  0  0  0  0  0
    0.2371    0.6341    0.2733 H   0  0  0  0  0  0  0  0  0  0  0  0
   -1.6600    2.7977   -0.1806 H   0  0  0  0  0  0  0  0  0  0  0  0
   -2.2361    0.0285   -1.3546 H   0  0  0  0  0  0  0  0  0  0  0  0
   -3.4277    1.3237   -1.1626 H   0  0  0  0  0  0  0  0  0  0  0  0
   -2.0409    1.5355   -2.2430 H   0  0  0  0  0  0  0  0  0  0  0  0
   -2.3705    3.2194    2.0011 H   0  0  0  0  0  0  0  0  0  0  0  0
   -3.1510    2.4423    4.2211 H   0  0  0  0  0  0  0  0  0  0  0  0
   -2.5979   -1.6340    3.0307 H   0  0  0  0  0  0  0  0  0  0  0  0
   -1.8150   -0.9054    0.8071 H   0  0  0  0  0  0  0  0  0  0  0  0
  1  2  1  0
  2  3  2  0
  2  4  1  0
  4  5  1  0
  5  6  2  0
  6  7  1  0
  7  8  2  0
  8  9  1  0
  9 10  2  0
 10 11  1  0
 11 12  1  0
 12 13  1  0
 12 14  1  0
 14 15  2  0
 14 16  1  0
 16 17  1  0
 17 18  1  0
 17 19  1  0
 19 20  2  0
 20 21  1  0
 21 22  2  0
 22 23  1  0
 22 24  1  0
 24 25  2  0
 10  5  1  0
 25 19  1  0
  1 26  1  0
  1 27  1  0
  1 28  1  0
  4 29  1  0
  6 30  1  0
  7 31  1  0
  8 32  1  0
  9 33  1  0
 12 34  1  0
 13 35  1  0
 13 36  1  0
 13 37  1  0
 16 38  1  0
 17 39  1  0
 18 40  1  0
 18 41  1  0
 18 42  1  0
 20 43  1  0
 21 44  1  0
 24 45  1  0
 25 46  1  0
M  END
$$$$
