
     RDKit          3D

 44 47  0  0  0  0  0  0  0  0999 V2000
   -6.0684   -1.7384    2.7596 C   0  0  0  0  0  0  0  0  0  0  0  0
   -4.7222   -1.3879    2.1476 C   0  0  0  0  0  0  0  0  0  0  0  0
   -4.7409   -1.8009    0.7764 O   0  0  0  0  0  0  0  0  0  0  0  0
   -3.5234   -1.5618    0.1870 C   0  0  0  0  0  0  0  0  0  0  0  0
   -2.6837   -2.6626    0.0013 C   0  0  0  0  0  0  0  0  0  0  0  0
   -1.4470   -2.4934   -0.6170 C   0  0  0  0  0  0  0  0  0  0  0  0
   -1.0612   -1.2259   -1.0639 C   0  0  0  0  0  0  0  0  0  0  0  0
    0.2446   -1.0464   -1.7032 C   0  0  0  0  0  0  0  0  0  0  0  0
    1.3495   -0.6207   -1.0750 C   0  0  0  0  0  0  0  0  0  0  0  0
    1.4998   -0.1971    0.6209 S   0  0  0  0  0  0  0  0  0  0  0  0
    3.1550    0.1737    0.3715 C   0  0  0  0  0  0  0  0  0  0  0  0
    4.1327    0.5975    1.1179 N   0  0  0  0  0  0  0  0  0  0  0  0
    5.1714    0.6663    0.2014 C   0  0  0  0  0  0  0  0  0  0  0  0
    6.6063    1.1400    0.6060 C   0  0  0  0  0  0  0  0  0  0  0  0
    7.6905    1.2546   -0.2437 C   0  0  0  0  0  0  0  0  0  0  0  0
    8.7746    1.7211    0.5387 C   0  0  0  0  0  0  0  0  0  0  0  0
    8.2904    1.8537    1.8182 C   0  0  0  0  0  0  0  0  0  0  0  0
    6.9791    1.5077    1.8693 O   0  0  0  0  0  0  0  0  0  0  0  0
    4.8515    0.3012   -1.0599 N   0  0  0  0  0  0  0  0  0  0  0  0
    3.5537   -0.0110   -0.9019 N   0  0  0  0  0  0  0  0  0  0  0  0
    2.6336   -0.4611   -1.8233 C   0  0  0  0  0  0  0  0  0  0  0  0
    2.8812   -0.6649   -2.9975 O   0  0  0  0  0  0  0  0  0  0  0  0
   -1.9237   -0.1283   -0.9015 C   0  0  0  0  0  0  0  0  0  0  0  0
   -3.1654   -0.2855   -0.2788 C   0  0  0  0  0  0  0  0  0  0  0  0
   -4.0902    0.7055   -0.0923 O   0  0  0  0  0  0  0  0  0  0  0  0
   -3.7779    2.0439   -0.4712 C   0  0  0  0  0  0  0  0  0  0  0  0
   -4.1290    2.2936   -1.9272 C   0  0  0  0  0  0  0  0  0  0  0  0
   -6.1093   -1.4359    3.8093 H   0  0  0  0  0  0  0  0  0  0  0  0
   -6.8809   -1.2424    2.2163 H   0  0  0  0  0  0  0  0  0  0  0  0
   -6.2527   -2.8166    2.6963 H   0  0  0  0  0  0  0  0  0  0  0  0
   -4.5579   -0.3062    2.2328 H   0  0  0  0  0  0  0  0  0  0  0  0
   -3.9277   -1.9160    2.6915 H   0  0  0  0  0  0  0  0  0  0  0  0
   -2.9967   -3.6464    0.3408 H   0  0  0  0  0  0  0  0  0  0  0  0
   -0.7955   -3.3547   -0.7481 H   0  0  0  0  0  0  0  0  0  0  0  0
    0.2714   -1.2892   -2.7653 H   0  0  0  0  0  0  0  0  0  0  0  0
    7.6884    1.0289   -1.3018 H   0  0  0  0  0  0  0  0  0  0  0  0
    9.7836    1.9312    0.2124 H   0  0  0  0  0  0  0  0  0  0  0  0
    8.7260    2.1693    2.7564 H   0  0  0  0  0  0  0  0  0  0  0  0
   -1.6045    0.8362   -1.2812 H   0  0  0  0  0  0  0  0  0  0  0  0
   -4.4065    2.6946    0.1481 H   0  0  0  0  0  0  0  0  0  0  0  0
   -2.7438    2.3163   -0.2336 H   0  0  0  0  0  0  0  0  0  0  0  0
   -5.1825    2.0581   -2.1127 H   0  0  0  0  0  0  0  0  0  0  0  0
   -3.5403    1.6605   -2.5984 H   0  0  0  0  0  0  0  0  0  0  0  0
   -3.9519    3.3397   -2.1916 H   0  0  0  0  0  0  0  0  0  0  0  0
  1  2  1  0
  2  3  1  0
  3  4  1  0
  4  5  2  0
  5  6  1  0
  6  7  2  0
  7  8  1  0
  8  9  2  3
  9 10  1  0
 10 11  1  0
 11 12  2  0
 12 13  1  0
 13 14  1  0
 14 15  2  0
 15 16  1  0
 16 17  2  0
 17 18  1  0
 13 19  2  0
 19 20  1  0
 20 21  1  0
 21 22  2  0
  7 23  1  0
 23 24  2  0
 24 25  1  0
 25 26  1  0
 26 27  1  0
 24  4  1  0
 21  9  1  0
 20 11  1  0
 18 14  1  0
  1 28  1  0
  1 29  1  0
  1 30  1  0
  2 31  1  0
  2 32  1  0
  5 33  1  0
  6 34  1  0
  8 35  1  0
 15 36  1  0
 16 37  1  0
 17 38  1  0
 23 39  1  0
 26 40  1  0
 26 41  1  0
 27 42  1  0
 27 43  1  0
 27 44  1  0
M  END
$$$$
