
     RDKit          3D

 57 61  0  0  0  0  0  0  0  0999 V2000
    1.6811    2.8387    3.4608 O   0  0  0  0  0  0  0  0  0  0  0  0
    1.9485    2.3419    2.3729 C   0  0  0  0  0  0  0  0  0  0  0  0
    1.0111    1.6197    1.6420 N   0  0  0  0  0  0  0  0  0  0  0  0
    1.2521    1.0673    0.3891 C   0  0  0  0  0  0  0  0  0  0  0  0
    0.1068    0.3036   -0.2662 C   0  0  0  0  0  0  0  0  0  0  0  0
   -1.1290    1.1851   -0.4685 C   0  0  0  0  0  0  0  0  0  0  0  0
   -2.3762    0.3306   -0.6298 C   0  0  0  0  0  0  0  0  0  0  0  0
   -2.6410   -0.4709    0.5957 N   0  0  0  0  0  0  0  0  0  0  0  0
   -3.9426    0.0365    1.5689 S   0  0  0  0  0  6  0  0  0  0  0  0
   -3.7642    1.4628    1.7521 O   0  0  0  0  0  0  0  0  0  0  0  0
   -4.0686   -0.8447    2.7059 O   0  0  0  0  0  0  0  0  0  0  0  0
   -5.3689   -0.2284    0.5354 C   0  0  0  0  0  0  0  0  0  0  0  0
   -6.2691    0.8436    0.4067 C   0  0  0  0  0  0  0  0  0  0  0  0
   -7.4028    0.7188   -0.3929 C   0  0  0  0  0  0  0  0  0  0  0  0
   -7.6432   -0.4713   -1.0692 C   0  0  0  0  0  0  0  0  0  0  0  0
   -6.7509   -1.5383   -0.9440 C   0  0  0  0  0  0  0  0  0  0  0  0
   -5.5989   -1.4454   -0.1337 C   0  0  0  0  0  0  0  0  0  0  0  0
   -4.6690   -2.6368   -0.0856 C   0  0  0  0  0  0  0  0  0  0  0  0
   -4.1080   -2.8923    1.1203 F   0  0  0  0  0  0  0  0  0  0  0  0
   -3.6473   -2.5280   -0.9802 F   0  0  0  0  0  0  0  0  0  0  0  0
   -5.3057   -3.7984   -0.4258 F   0  0  0  0  0  0  0  0  0  0  0  0
   -1.4411   -0.8720    1.3775 C   0  0  0  0  0  0  0  0  0  0  0  0
   -0.2104   -0.9958    0.4891 C   0  0  0  0  0  0  0  0  0  0  0  0
    2.3956    1.1480   -0.2360 N   0  0  0  0  0  0  0  0  0  0  0  0
    3.3350    1.8267    0.4670 C   0  0  0  0  0  0  0  0  0  0  0  0
    3.2143    2.4236    1.6980 C   0  0  0  0  0  0  0  0  0  0  0  0
    4.3845    3.0148    2.0618 N   0  0  0  0  0  0  0  0  0  0  0  0
    5.2602    2.7971    1.0801 N   0  0  0  0  0  0  0  0  0  0  0  0
    4.6354    2.0640    0.1253 N   0  0  0  0  0  0  0  0  0  0  0  0
    5.3290    1.6691   -1.0823 C   0  0  0  0  0  0  0  0  0  0  0  0
    5.8593    0.2610   -0.9771 C   0  0  0  0  0  0  0  0  0  0  0  0
    7.0714    0.0006   -0.3169 C   0  0  0  0  0  0  0  0  0  0  0  0
    7.5546   -1.3060   -0.2043 C   0  0  0  0  0  0  0  0  0  0  0  0
    6.8296   -2.3656   -0.7457 C   0  0  0  0  0  0  0  0  0  0  0  0
    5.6259   -2.1111   -1.3909 C   0  0  0  0  0  0  0  0  0  0  0  0
    4.9242   -3.1299   -1.9045 F   0  0  0  0  0  0  0  0  0  0  0  0
    5.1345   -0.8149   -1.5098 C   0  0  0  0  0  0  0  0  0  0  0  0
    0.1028    1.5725    2.0796 H   0  0  0  0  0  0  0  0  0  0  0  0
    0.4690    0.0067   -1.2614 H   0  0  0  0  0  0  0  0  0  0  0  0
   -0.9860    1.8062   -1.3612 H   0  0  0  0  0  0  0  0  0  0  0  0
   -1.2715    1.8835    0.3639 H   0  0  0  0  0  0  0  0  0  0  0  0
   -2.2620   -0.3613   -1.4726 H   0  0  0  0  0  0  0  0  0  0  0  0
   -3.2290    0.9711   -0.8769 H   0  0  0  0  0  0  0  0  0  0  0  0
   -6.0972    1.7823    0.9322 H   0  0  0  0  0  0  0  0  0  0  0  0
   -8.0985    1.5499   -0.4861 H   0  0  0  0  0  0  0  0  0  0  0  0
   -8.5275   -0.5723   -1.6950 H   0  0  0  0  0  0  0  0  0  0  0  0
   -6.9632   -2.4590   -1.4891 H   0  0  0  0  0  0  0  0  0  0  0  0
   -1.2534   -0.1482    2.1778 H   0  0  0  0  0  0  0  0  0  0  0  0
   -1.6393   -1.8441    1.8433 H   0  0  0  0  0  0  0  0  0  0  0  0
    0.6474   -1.3244    1.0881 H   0  0  0  0  0  0  0  0  0  0  0  0
   -0.3948   -1.7902   -0.2470 H   0  0  0  0  0  0  0  0  0  0  0  0
    4.6305    1.7692   -1.9213 H   0  0  0  0  0  0  0  0  0  0  0  0
    6.1457    2.3787   -1.2598 H   0  0  0  0  0  0  0  0  0  0  0  0
    7.6435    0.8163    0.1243 H   0  0  0  0  0  0  0  0  0  0  0  0
    8.4929   -1.4956    0.3114 H   0  0  0  0  0  0  0  0  0  0  0  0
    7.1913   -3.3855   -0.6632 H   0  0  0  0  0  0  0  0  0  0  0  0
    4.1829   -0.6593   -2.0105 H   0  0  0  0  0  0  0  0  0  0  0  0
  1  2  2  0
  2  3  1  0
  3  4  1  0
  4  5  1  0
  5  6  1  0
  6  7  1  0
  7  8  1  0
  8  9  1  0
  9 10  2  0
  9 11  2  0
  9 12  1  0
 12 13  2  0
 13 14  1  0
 14 15  2  0
 15 16  1  0
 16 17  2  0
 17 18  1  0
 18 19  1  0
 18 20  1  0
 18 21  1  0
  8 22  1  0
 22 23  1  0
  4 24  2  0
 24 25  1  0
 25 26  2  0
 26 27  1  0
 27 28  2  0
 28 29  1  0
 29 30  1  0
 30 31  1  0
 31 32  2  0
 32 33  1  0
 33 34  2  0
 34 35  1  0
 35 36  1  0
 35 37  2  0
 26  2  1  0
 37 31  1  0
 23  5  1  0
 29 25  1  0
 17 12  1  0
  3 38  1  0
  5 39  1  0
  6 40  1  0
  6 41  1  0
  7 42  1  0
  7 43  1  0
 13 44  1  0
 14 45  1  0
 15 46  1  0
 16 47  1  0
 22 48  1  0
 22 49  1  0
 23 50  1  0
 23 51  1  0
 30 52  1  0
 30 53  1  0
 32 54  1  0
 33 55  1  0
 34 56  1  0
 37 57  1  0
M  END
$$$$
