
     RDKit          3D

 38 39  0  0  0  0  0  0  0  0999 V2000
    0.0557   -0.9940   -2.0768 O   0  0  0  0  0  0  0  0  0  0  0  0
    0.4651   -1.6760   -1.1412 C   0  0  0  0  0  0  0  0  0  0  0  0
   -0.4522   -2.2260   -0.0454 C   0  0  0  0  0  0  0  0  0  0  0  0
   -1.6795   -1.5136    0.0896 O   0  0  0  0  0  0  0  0  0  0  0  0
   -1.5418   -0.2064    0.4209 C   0  0  0  0  0  0  0  0  0  0  0  0
   -0.4844    0.3696    0.6484 O   0  0  0  0  0  0  0  0  0  0  0  0
   -2.8622    0.4690    0.5169 C   0  0  0  0  0  0  0  0  0  0  0  0
   -4.0430   -0.1763    0.1146 C   0  0  0  0  0  0  0  0  0  0  0  0
   -5.2743    0.4777    0.2194 C   0  0  0  0  0  0  0  0  0  0  0  0
   -5.3286    1.7721    0.7216 C   0  0  0  0  0  0  0  0  0  0  0  0
   -6.5506    2.3664    0.8034 O   0  0  0  0  0  0  0  0  0  0  0  0
   -4.1715    2.4322    1.1215 C   0  0  0  0  0  0  0  0  0  0  0  0
   -2.9399    1.7792    1.0149 C   0  0  0  0  0  0  0  0  0  0  0  0
   -1.8473    2.4964    1.4293 O   0  0  0  0  0  0  0  0  0  0  0  0
    1.8002   -1.9809   -0.9716 N   0  0  0  0  0  0  0  0  0  0  0  0
    2.8052   -1.3706   -1.8264 C   0  0  0  0  0  0  0  0  0  0  0  0
    3.1636    0.0546   -1.3770 C   0  0  0  0  0  0  0  0  0  0  0  0
    3.9514    0.0659   -0.1553 N   0  0  0  0  0  0  0  0  0  0  0  0
    3.4724    0.1178    1.1328 C   0  0  0  0  0  0  0  0  0  0  0  0
    2.1456    0.1802    1.4310 O   0  0  0  0  0  0  0  0  0  0  0  0
    4.4159    0.0655    2.0774 C   0  0  0  0  0  0  0  0  0  0  0  0
    6.0008   -0.0763    1.3954 S   0  0  0  0  0  0  0  0  0  0  0  0
    5.3345   -0.0781   -0.2429 C   0  0  0  0  0  0  0  0  0  0  0  0
    6.0101   -0.2097   -1.2507 O   0  0  0  0  0  0  0  0  0  0  0  0
    0.0647   -2.2483    0.9201 H   0  0  0  0  0  0  0  0  0  0  0  0
   -0.7029   -3.2566   -0.3161 H   0  0  0  0  0  0  0  0  0  0  0  0
   -4.0241   -1.1838   -0.2908 H   0  0  0  0  0  0  0  0  0  0  0  0
   -6.1895   -0.0194   -0.0951 H   0  0  0  0  0  0  0  0  0  0  0  0
   -6.4390    3.2590    1.1770 H   0  0  0  0  0  0  0  0  0  0  0  0
   -4.2045    3.4450    1.5113 H   0  0  0  0  0  0  0  0  0  0  0  0
   -1.0395    1.9627    1.2741 H   0  0  0  0  0  0  0  0  0  0  0  0
    2.1119   -2.3727   -0.0901 H   0  0  0  0  0  0  0  0  0  0  0  0
    2.4191   -1.3427   -2.8509 H   0  0  0  0  0  0  0  0  0  0  0  0
    3.6815   -2.0262   -1.8153 H   0  0  0  0  0  0  0  0  0  0  0  0
    3.7666    0.5198   -2.1672 H   0  0  0  0  0  0  0  0  0  0  0  0
    2.2746    0.6808   -1.2539 H   0  0  0  0  0  0  0  0  0  0  0  0
    1.6070    0.3516    0.6389 H   0  0  0  0  0  0  0  0  0  0  0  0
    4.2287    0.0921    3.1402 H   0  0  0  0  0  0  0  0  0  0  0  0
  1  2  2  0
  2  3  1  0
  3  4  1  0
  4  5  1  0
  5  6  2  0
  5  7  1  0
  7  8  2  0
  8  9  1  0
  9 10  2  0
 10 11  1  0
 10 12  1  0
 12 13  2  0
 13 14  1  0
  2 15  1  0
 15 16  1  0
 16 17  1  0
 17 18  1  0
 18 19  1  0
 19 20  1  0
 19 21  2  0
 21 22  1  0
 22 23  1  0
 23 24  2  0
 13  7  1  0
 23 18  1  0
  3 25  1  0
  3 26  1  0
  8 27  1  0
  9 28  1  0
 11 29  1  0
 12 30  1  0
 14 31  1  0
 15 32  1  0
 16 33  1  0
 16 34  1  0
 17 35  1  0
 17 36  1  0
 20 37  1  0
 21 38  1  0
M  END
$$$$
