
     RDKit          3D

 47 50  0  0  0  0  0  0  0  0999 V2000
   -4.1641    4.9505    0.3513 N   0  0  0  0  0  0  0  0  0  0  0  0
   -4.5975    3.7134    0.6588 C   0  0  0  0  0  0  0  0  0  0  0  0
   -5.8688    3.4060    0.9124 N   0  0  0  0  0  0  0  0  0  0  0  0
   -5.8734    2.0447    1.1955 O   0  0  0  0  0  0  0  0  0  0  0  0
   -4.5902    1.5076    1.1165 N   0  0  0  0  0  0  0  0  0  0  0  0
   -3.8232    2.5424    0.7724 C   0  0  0  0  0  0  0  0  0  0  0  0
   -2.4256    2.3941    0.5772 N   0  0  0  0  0  0  0  0  0  0  0  0
   -1.6415    3.4625    0.2429 N   0  0  0  0  0  0  0  0  0  0  0  0
   -0.3871    3.0662    0.1336 N   0  0  0  0  0  0  0  0  0  0  0  0
   -0.3364    1.7218    0.3880 C   0  0  0  0  0  0  0  0  0  0  0  0
    0.9173    0.9697    0.3359 C   0  0  0  0  0  0  0  0  0  0  0  0
    0.9694   -0.2269    0.6013 O   0  0  0  0  0  0  0  0  0  0  0  0
    1.9921    1.7679   -0.0444 N   0  0  0  0  0  0  0  0  0  0  0  0
    3.2627    1.3488   -0.3477 N   0  0  0  0  0  0  0  0  0  0  0  0
    3.7425    0.3157    0.2692 C   0  0  0  0  0  0  0  0  0  0  0  0
    5.0864   -0.2152   -0.0440 C   0  0  0  0  0  0  0  0  0  0  0  0
    5.8862    0.3810   -1.0256 C   0  0  0  0  0  0  0  0  0  0  0  0
    7.1530   -0.1384   -1.3026 C   0  0  0  0  0  0  0  0  0  0  0  0
    7.6058   -1.2488   -0.5954 C   0  0  0  0  0  0  0  0  0  0  0  0
    8.8349   -1.7884   -0.8330 O   0  0  0  0  0  0  0  0  0  0  0  0
    6.8157   -1.8476    0.3810 C   0  0  0  0  0  0  0  0  0  0  0  0
    5.5492   -1.3312    0.6601 C   0  0  0  0  0  0  0  0  0  0  0  0
   -1.6155    1.2644    0.6671 C   0  0  0  0  0  0  0  0  0  0  0  0
   -2.1080   -0.1047    0.9593 C   0  0  0  0  0  0  0  0  0  0  0  0
   -2.7271   -0.5502   -0.2434 O   0  0  0  0  0  0  0  0  0  0  0  0
   -3.3276   -1.7784   -0.2199 C   0  0  0  0  0  0  0  0  0  0  0  0
   -4.0121   -2.1119   -1.3946 C   0  0  0  0  0  0  0  0  0  0  0  0
   -4.6711   -3.3366   -1.5091 C   0  0  0  0  0  0  0  0  0  0  0  0
   -4.6403   -4.2272   -0.4449 C   0  0  0  0  0  0  0  0  0  0  0  0
   -5.2704   -5.4044   -0.5488 F   0  0  0  0  0  0  0  0  0  0  0  0
   -3.9623   -3.9141    0.7273 C   0  0  0  0  0  0  0  0  0  0  0  0
   -3.3023   -2.6865    0.8418 C   0  0  0  0  0  0  0  0  0  0  0  0
   -3.2268    5.1082   -0.0148 H   0  0  0  0  0  0  0  0  0  0  0  0
   -4.8415    5.6637    0.1023 H   0  0  0  0  0  0  0  0  0  0  0  0
    1.7645    2.6936   -0.4025 H   0  0  0  0  0  0  0  0  0  0  0  0
    3.2029   -0.2063    1.0765 H   0  0  0  0  0  0  0  0  0  0  0  0
    5.5281    1.2476   -1.5763 H   0  0  0  0  0  0  0  0  0  0  0  0
    7.7640    0.3327   -2.0661 H   0  0  0  0  0  0  0  0  0  0  0  0
    9.2676   -1.2800   -1.5386 H   0  0  0  0  0  0  0  0  0  0  0  0
    7.1854   -2.7150    0.9211 H   0  0  0  0  0  0  0  0  0  0  0  0
    4.9363   -1.8065    1.4213 H   0  0  0  0  0  0  0  0  0  0  0  0
   -1.2804   -0.7710    1.2190 H   0  0  0  0  0  0  0  0  0  0  0  0
   -2.8076   -0.1003    1.8021 H   0  0  0  0  0  0  0  0  0  0  0  0
   -4.0327   -1.4102   -2.2250 H   0  0  0  0  0  0  0  0  0  0  0  0
   -5.2039   -3.5977   -2.4173 H   0  0  0  0  0  0  0  0  0  0  0  0
   -3.9494   -4.6281    1.5447 H   0  0  0  0  0  0  0  0  0  0  0  0
   -2.7772   -2.4772    1.7677 H   0  0  0  0  0  0  0  0  0  0  0  0
  1  2  1  0
  2  3  2  0
  3  4  1  0
  4  5  1  0
  5  6  2  0
  6  7  1  0
  7  8  1  0
  8  9  2  0
  9 10  1  0
 10 11  1  0
 11 12  2  0
 11 13  1  0
 13 14  1  0
 14 15  2  3
 15 16  1  0
 16 17  2  0
 17 18  1  0
 18 19  2  0
 19 20  1  0
 19 21  1  0
 21 22  2  0
 10 23  2  0
 23 24  1  0
 24 25  1  0
 25 26  1  0
 26 27  2  0
 27 28  1  0
 28 29  2  0
 29 30  1  0
 29 31  1  0
 31 32  2  0
  6  2  1  0
 23  7  1  0
 32 26  1  0
 22 16  1  0
  1 33  1  0
  1 34  1  0
 13 35  1  0
 15 36  1  0
 17 37  1  0
 18 38  1  0
 20 39  1  0
 21 40  1  0
 22 41  1  0
 24 42  1  0
 24 43  1  0
 27 44  1  0
 28 45  1  0
 31 46  1  0
 32 47  1  0
M  END
$$$$
