
     RDKit          3D

 36 36  0  0  0  0  0  0  0  0999 V2000
    3.0318   -2.0387    1.3802 C   0  0  0  0  0  0  0  0  0  0  0  0
    1.7252   -1.7563    0.6607 C   0  0  0  0  0  0  0  0  0  0  0  0
    0.6352   -1.7149    1.5855 O   0  0  0  0  0  0  0  0  0  0  0  0
    0.0856   -3.0016    1.8860 C   0  0  0  0  0  0  0  0  0  0  0  0
   -1.0046   -3.4017    0.8882 C   0  0  0  0  0  0  0  0  0  0  0  0
   -2.1797   -2.4214    0.8753 C   0  0  0  0  0  0  0  0  0  0  0  0
   -1.7932   -1.1205    0.3656 N   0  0  0  0  0  0  0  0  0  0  0  0
   -1.7691   -0.8679   -0.9894 C   0  0  0  0  0  0  0  0  0  0  0  0
   -2.2505   -1.6097   -1.8363 O   0  0  0  0  0  0  0  0  0  0  0  0
   -1.0458    0.3746   -1.3667 C   0  0  0  0  0  0  0  0  0  0  0  0
   -0.0484    0.2560   -2.3719 C   0  0  0  0  0  0  0  0  0  0  0  0
    0.7783    0.1511   -3.1804 N   0  0  0  0  0  0  0  0  0  0  0  0
   -1.4461    1.5198   -0.7849 C   0  0  0  0  0  0  0  0  0  0  0  0
   -0.8551    2.7900   -1.0328 C   0  0  0  0  0  0  0  0  0  0  0  0
   -1.4192    4.0524   -0.8532 C   0  0  0  0  0  0  0  0  0  0  0  0
   -0.4542    5.0266   -1.2139 C   0  0  0  0  0  0  0  0  0  0  0  0
    0.6558    4.3081   -1.5739 C   0  0  0  0  0  0  0  0  0  0  0  0
    1.9531    4.7176   -2.0102 N   0  0  0  0  0  4  0  0  0  0  0  0
    2.1068    5.9329   -2.1957 O   0  0  0  0  0  0  0  0  0  0  0  0
    2.8206    3.8474   -2.1495 O   0  0  0  0  0  1  0  0  0  0  0  0
    0.4387    2.9733   -1.4731 O   0  0  0  0  0  0  0  0  0  0  0  0
    3.1911   -1.3138    2.1853 H   0  0  0  0  0  0  0  0  0  0  0  0
    3.8745   -1.9846    0.6851 H   0  0  0  0  0  0  0  0  0  0  0  0
    3.0277   -3.0308    1.8412 H   0  0  0  0  0  0  0  0  0  0  0  0
    1.5421   -2.4841   -0.1366 H   0  0  0  0  0  0  0  0  0  0  0  0
    1.7852   -0.7668    0.1962 H   0  0  0  0  0  0  0  0  0  0  0  0
   -0.3499   -2.9353    2.8890 H   0  0  0  0  0  0  0  0  0  0  0  0
    0.8688   -3.7663    1.9258 H   0  0  0  0  0  0  0  0  0  0  0  0
   -1.3772   -4.3962    1.1591 H   0  0  0  0  0  0  0  0  0  0  0  0
   -0.5796   -3.4736   -0.1193 H   0  0  0  0  0  0  0  0  0  0  0  0
   -2.5688   -2.2720    1.8878 H   0  0  0  0  0  0  0  0  0  0  0  0
   -2.9890   -2.8229    0.2560 H   0  0  0  0  0  0  0  0  0  0  0  0
   -1.1268   -0.6203    0.9496 H   0  0  0  0  0  0  0  0  0  0  0  0
   -2.2841    1.5025   -0.0909 H   0  0  0  0  0  0  0  0  0  0  0  0
   -2.4270    4.2437   -0.5063 H   0  0  0  0  0  0  0  0  0  0  0  0
   -0.5524    6.1036   -1.2027 H   0  0  0  0  0  0  0  0  0  0  0  0
  1  2  1  0
  2  3  1  0
  3  4  1  0
  4  5  1  0
  5  6  1  0
  6  7  1  0
  7  8  1  0
  8  9  2  0
  8 10  1  0
 10 11  1  0
 11 12  3  0
 10 13  2  3
 13 14  1  0
 14 15  2  0
 15 16  1  0
 16 17  2  0
 17 18  1  0
 18 19  2  0
 18 20  1  0
 17 21  1  0
 21 14  1  0
  1 22  1  0
  1 23  1  0
  1 24  1  0
  2 25  1  0
  2 26  1  0
  4 27  1  0
  4 28  1  0
  5 29  1  0
  5 30  1  0
  6 31  1  0
  6 32  1  0
  7 33  1  0
 13 34  1  0
 15 35  1  0
 16 36  1  0
M  CHG  2  18   1  20  -1
M  END
$$$$
