
     RDKit          3D

 68 70  0  0  0  0  0  0  0  0999 V2000
   -4.5563    4.4723    3.9257 C   0  0  0  0  0  0  0  0  0  0  0  0
   -4.7348    3.9705    2.6084 O   0  0  0  0  0  0  0  0  0  0  0  0
   -3.9207    2.9428    2.2216 C   0  0  0  0  0  0  0  0  0  0  0  0
   -4.0259    2.5887    0.8750 C   0  0  0  0  0  0  0  0  0  0  0  0
   -3.2508    1.5544    0.3448 C   0  0  0  0  0  0  0  0  0  0  0  0
   -2.3575    0.8452    1.1618 C   0  0  0  0  0  0  0  0  0  0  0  0
   -1.4896   -0.2907    0.6180 C   0  0  0  0  0  0  0  0  0  0  0  0
   -2.2564   -1.1902   -0.4033 C   0  0  0  0  0  0  0  0  0  0  0  0
   -1.9259   -1.3167   -1.5798 O   0  0  0  0  0  0  0  0  0  0  0  0
   -3.3633   -1.8314    0.1412 N   0  0  0  0  0  0  0  0  0  0  0  0
   -4.3160   -2.6565   -0.6162 C   0  0  0  0  0  0  0  0  0  0  0  0
   -3.6132   -3.8328   -1.3135 C   0  0  0  0  0  0  0  0  0  0  0  0
   -5.3366   -3.2349    0.3820 C   0  0  0  0  0  0  0  0  0  0  0  0
   -5.0684   -1.8010   -1.6464 C   0  0  0  0  0  0  0  0  0  0  0  0
   -0.1564    0.1269    0.1248 N   0  0  0  0  0  0  0  0  0  0  0  0
    0.8612   -0.8273    0.2139 C   0  0  0  0  0  0  0  0  0  0  0  0
    0.6886   -1.9169    0.7671 O   0  0  0  0  0  0  0  0  0  0  0  0
    2.2259   -0.4516   -0.3463 C   0  0  0  0  0  0  0  0  0  0  0  0
    3.3020   -1.4203    0.1378 C   0  0  0  0  0  0  0  0  0  0  0  0
    4.6857   -1.0058   -0.3192 C   0  0  0  0  0  0  0  0  0  0  0  0
    4.8724   -0.0656   -1.0852 O   0  0  0  0  0  0  0  0  0  0  0  0
    5.6630   -1.8092    0.2235 N   0  0  0  0  0  0  0  0  0  0  0  0
    7.0163   -1.6735    0.0083 C   0  0  0  0  0  0  0  0  0  0  0  0
    7.7102   -0.7423   -0.7943 C   0  0  0  0  0  0  0  0  0  0  0  0
    9.0344   -1.0677   -0.6346 C   0  0  0  0  0  0  0  0  0  0  0  0
   10.2969   -0.5255   -1.1655 C   0  0  0  0  0  0  0  0  0  0  0  0
    9.1335   -2.1242    0.2149 O   0  0  0  0  0  0  0  0  0  0  0  0
    7.8674   -2.5101    0.6137 N   0  0  0  0  0  0  0  0  0  0  0  0
   -0.0688    1.2418   -0.7531 C   0  0  0  0  0  0  0  0  0  0  0  0
    0.0145    1.0635   -2.1401 C   0  0  0  0  0  0  0  0  0  0  0  0
    0.1135    2.1678   -2.9910 C   0  0  0  0  0  0  0  0  0  0  0  0
    0.1363    3.4544   -2.4572 C   0  0  0  0  0  0  0  0  0  0  0  0
    0.0617    3.6249   -1.0794 C   0  0  0  0  0  0  0  0  0  0  0  0
    0.0906    4.8628   -0.5673 F   0  0  0  0  0  0  0  0  0  0  0  0
   -0.0375    2.5340   -0.2230 C   0  0  0  0  0  0  0  0  0  0  0  0
   -2.2531    1.2105    2.5144 C   0  0  0  0  0  0  0  0  0  0  0  0
   -3.0313    2.2479    3.0403 C   0  0  0  0  0  0  0  0  0  0  0  0
   -5.2205    5.3333    4.0472 H   0  0  0  0  0  0  0  0  0  0  0  0
   -3.5291    4.8180    4.0847 H   0  0  0  0  0  0  0  0  0  0  0  0
   -4.8399    3.7232    4.6716 H   0  0  0  0  0  0  0  0  0  0  0  0
   -4.7104    3.1337    0.2281 H   0  0  0  0  0  0  0  0  0  0  0  0
   -3.3425    1.3237   -0.7167 H   0  0  0  0  0  0  0  0  0  0  0  0
   -1.3145   -0.9619    1.4725 H   0  0  0  0  0  0  0  0  0  0  0  0
   -3.6611   -1.5163    1.0573 H   0  0  0  0  0  0  0  0  0  0  0  0
   -4.3420   -4.5113   -1.7716 H   0  0  0  0  0  0  0  0  0  0  0  0
   -3.0150   -4.4125   -0.6015 H   0  0  0  0  0  0  0  0  0  0  0  0
   -2.9420   -3.4996   -2.1108 H   0  0  0  0  0  0  0  0  0  0  0  0
   -4.8386   -3.8426    1.1462 H   0  0  0  0  0  0  0  0  0  0  0  0
   -6.0778   -3.8659   -0.1201 H   0  0  0  0  0  0  0  0  0  0  0  0
   -5.8759   -2.4356    0.9040 H   0  0  0  0  0  0  0  0  0  0  0  0
   -4.3950   -1.3854   -2.4034 H   0  0  0  0  0  0  0  0  0  0  0  0
   -5.8292   -2.3896   -2.1708 H   0  0  0  0  0  0  0  0  0  0  0  0
   -5.5710   -0.9567   -1.1617 H   0  0  0  0  0  0  0  0  0  0  0  0
    2.1846   -0.4802   -1.4399 H   0  0  0  0  0  0  0  0  0  0  0  0
    2.4807    0.5659   -0.0282 H   0  0  0  0  0  0  0  0  0  0  0  0
    3.1033   -2.4298   -0.2429 H   0  0  0  0  0  0  0  0  0  0  0  0
    3.2980   -1.4650    1.2342 H   0  0  0  0  0  0  0  0  0  0  0  0
    5.4214   -2.5669    0.8486 H   0  0  0  0  0  0  0  0  0  0  0  0
    7.3096    0.0560   -1.4007 H   0  0  0  0  0  0  0  0  0  0  0  0
   10.1334   -0.0314   -2.1288 H   0  0  0  0  0  0  0  0  0  0  0  0
   11.0336   -1.3212   -1.3167 H   0  0  0  0  0  0  0  0  0  0  0  0
   10.7189    0.2078   -0.4709 H   0  0  0  0  0  0  0  0  0  0  0  0
   -0.0165    0.0649   -2.5726 H   0  0  0  0  0  0  0  0  0  0  0  0
    0.1692    2.0210   -4.0669 H   0  0  0  0  0  0  0  0  0  0  0  0
    0.2130    4.3230   -3.1032 H   0  0  0  0  0  0  0  0  0  0  0  0
   -0.0818    2.7082    0.8468 H   0  0  0  0  0  0  0  0  0  0  0  0
   -1.5576    0.6903    3.1717 H   0  0  0  0  0  0  0  0  0  0  0  0
   -2.9174    2.4881    4.0926 H   0  0  0  0  0  0  0  0  0  0  0  0
  1  2  1  0
  2  3  1  0
  3  4  2  0
  4  5  1  0
  5  6  2  0
  6  7  1  0
  7  8  1  0
  8  9  2  0
  8 10  1  0
 10 11  1  0
 11 12  1  0
 11 13  1  0
 11 14  1  0
  7 15  1  0
 15 16  1  0
 16 17  2  0
 16 18  1  0
 18 19  1  0
 19 20  1  0
 20 21  2  0
 20 22  1  0
 22 23  1  0
 23 24  1  0
 24 25  2  0
 25 26  1  0
 25 27  1  0
 27 28  1  0
 15 29  1  0
 29 30  2  0
 30 31  1  0
 31 32  2  0
 32 33  1  0
 33 34  1  0
 33 35  2  0
  6 36  1  0
 36 37  2  0
 37  3  1  0
 28 23  2  0
 35 29  1  0
  1 38  1  0
  1 39  1  0
  1 40  1  0
  4 41  1  0
  5 42  1  0
  7 43  1  0
 10 44  1  0
 12 45  1  0
 12 46  1  0
 12 47  1  0
 13 48  1  0
 13 49  1  0
 13 50  1  0
 14 51  1  0
 14 52  1  0
 14 53  1  0
 18 54  1  0
 18 55  1  0
 19 56  1  0
 19 57  1  0
 22 58  1  0
 24 59  1  0
 26 60  1  0
 26 61  1  0
 26 62  1  0
 30 63  1  0
 31 64  1  0
 32 65  1  0
 35 66  1  0
 36 67  1  0
 37 68  1  0
M  END
$$$$
