
     RDKit          3D

 47 49  0  0  0  0  0  0  0  0999 V2000
   -3.0036    1.0169   -1.2479 O   0  0  0  0  0  0  0  0  0  0  0  0
   -3.2209   -0.1451   -1.5724 C   0  0  0  0  0  0  0  0  0  0  0  0
   -4.6134   -0.6251   -2.0184 C   0  0  0  0  0  0  0  0  0  0  0  0
   -5.7037    0.2131   -1.6750 O   0  0  0  0  0  0  0  0  0  0  0  0
   -6.1490    0.1986   -0.3828 C   0  0  0  0  0  0  0  0  0  0  0  0
   -5.6056   -0.5360    0.6729 C   0  0  0  0  0  0  0  0  0  0  0  0
   -6.1696   -0.4518    1.9525 C   0  0  0  0  0  0  0  0  0  0  0  0
   -7.2753    0.3672    2.1738 C   0  0  0  0  0  0  0  0  0  0  0  0
   -8.0309    0.4793    3.9033 Br  0  0  0  0  0  0  0  0  0  0  0  0
   -7.8236    1.1060    1.1291 C   0  0  0  0  0  0  0  0  0  0  0  0
   -7.2571    1.0190   -0.1446 C   0  0  0  0  0  0  0  0  0  0  0  0
   -2.2840   -1.1721   -1.6004 N   0  0  0  0  0  0  0  0  0  0  0  0
   -0.9362   -1.1112   -1.1887 C   0  0  0  0  0  0  0  0  0  0  0  0
   -0.1600   -2.2631   -1.3718 C   0  0  0  0  0  0  0  0  0  0  0  0
    1.1824   -2.2879   -0.9810 C   0  0  0  0  0  0  0  0  0  0  0  0
    1.7704   -1.1563   -0.4065 C   0  0  0  0  0  0  0  0  0  0  0  0
    3.2026   -1.2269    0.0041 C   0  0  0  0  0  0  0  0  0  0  0  0
    3.6470   -2.3119    0.3600 O   0  0  0  0  0  0  0  0  0  0  0  0
    3.8994   -0.0398   -0.0999 N   0  0  0  0  0  0  0  0  0  0  0  0
    5.2440    0.2319    0.2544 C   0  0  0  0  0  0  0  0  0  0  0  0
    6.0468   -0.7275    0.8867 C   0  0  0  0  0  0  0  0  0  0  0  0
    7.3717   -0.4473    1.2376 C   0  0  0  0  0  0  0  0  0  0  0  0
    7.9200    0.7998    0.9637 C   0  0  0  0  0  0  0  0  0  0  0  0
    7.1384    1.7708    0.3441 C   0  0  0  0  0  0  0  0  0  0  0  0
    5.8017    1.5028   -0.0113 C   0  0  0  0  0  0  0  0  0  0  0  0
    5.0786    2.6350   -0.6564 C   0  0  0  0  0  0  0  0  0  0  0  0
    5.5655    3.7170   -0.9346 O   0  0  0  0  0  0  0  0  0  0  0  0
    3.7778    2.3936   -0.9260 O   0  0  0  0  0  0  0  0  0  0  0  0
    0.9948   -0.0105   -0.2028 C   0  0  0  0  0  0  0  0  0  0  0  0
   -0.3495    0.0096   -0.5970 C   0  0  0  0  0  0  0  0  0  0  0  0
   -4.7975   -1.6562   -1.6897 H   0  0  0  0  0  0  0  0  0  0  0  0
   -4.5814   -0.6515   -3.1139 H   0  0  0  0  0  0  0  0  0  0  0  0
   -4.7384   -1.1750    0.5483 H   0  0  0  0  0  0  0  0  0  0  0  0
   -5.7333   -1.0229    2.7691 H   0  0  0  0  0  0  0  0  0  0  0  0
   -8.6831    1.7508    1.2929 H   0  0  0  0  0  0  0  0  0  0  0  0
   -7.6802    1.6004   -0.9595 H   0  0  0  0  0  0  0  0  0  0  0  0
   -2.5879   -2.0618   -1.9761 H   0  0  0  0  0  0  0  0  0  0  0  0
   -0.5822   -3.1593   -1.8197 H   0  0  0  0  0  0  0  0  0  0  0  0
    1.7699   -3.1928   -1.1270 H   0  0  0  0  0  0  0  0  0  0  0  0
    3.4244    0.7444   -0.5473 H   0  0  0  0  0  0  0  0  0  0  0  0
    5.6673   -1.7144    1.1313 H   0  0  0  0  0  0  0  0  0  0  0  0
    7.9675   -1.2081    1.7394 H   0  0  0  0  0  0  0  0  0  0  0  0
    8.9484    1.0180    1.2405 H   0  0  0  0  0  0  0  0  0  0  0  0
    7.5744    2.7490    0.1471 H   0  0  0  0  0  0  0  0  0  0  0  0
    3.4846    3.2443   -1.3247 H   0  0  0  0  0  0  0  0  0  0  0  0
    1.4040    0.8691    0.2877 H   0  0  0  0  0  0  0  0  0  0  0  0
   -0.9149    0.9181   -0.4096 H   0  0  0  0  0  0  0  0  0  0  0  0
  1  2  2  0
  2  3  1  0
  3  4  1  0
  4  5  1  0
  5  6  2  0
  6  7  1  0
  7  8  2  0
  8  9  1  0
  8 10  1  0
 10 11  2  0
  2 12  1  0
 12 13  1  0
 13 14  2  0
 14 15  1  0
 15 16  2  0
 16 17  1  0
 17 18  2  0
 17 19  1  0
 19 20  1  0
 20 21  2  0
 21 22  1  0
 22 23  2  0
 23 24  1  0
 24 25  2  0
 25 26  1  0
 26 27  2  0
 26 28  1  0
 16 29  1  0
 29 30  2  0
 11  5  1  0
 30 13  1  0
 25 20  1  0
  3 31  1  0
  3 32  1  0
  6 33  1  0
  7 34  1  0
 10 35  1  0
 11 36  1  0
 12 37  1  0
 14 38  1  0
 15 39  1  0
 19 40  1  0
 21 41  1  0
 22 42  1  0
 23 43  1  0
 24 44  1  0
 28 45  1  0
 29 46  1  0
 30 47  1  0
M  END
$$$$
