
     RDKit          3D

 57 61  0  0  0  0  0  0  0  0999 V2000
   -5.0205   -3.5211   -2.6510 C   0  0  0  0  0  0  0  0  0  0  0  0
   -4.9616   -2.2454   -1.8645 C   0  0  0  0  0  0  0  0  0  0  0  0
   -5.8938   -1.9923   -0.8523 C   0  0  0  0  0  0  0  0  0  0  0  0
   -5.8205   -0.8193   -0.0977 C   0  0  0  0  0  0  0  0  0  0  0  0
   -4.8083    0.1197   -0.3383 C   0  0  0  0  0  0  0  0  0  0  0  0
   -4.7200    1.3799    0.4854 C   0  0  0  0  0  0  0  0  0  0  0  0
   -4.0704    1.1390    1.7567 N   0  0  0  0  0  0  0  0  0  0  0  0
   -4.7964    0.9631    2.8897 N   0  0  0  0  0  0  0  0  0  0  0  0
   -3.9411    0.7760    3.8955 N   0  0  0  0  0  0  0  0  0  0  0  0
   -2.6856    0.8572    3.3781 C   0  0  0  0  0  0  0  0  0  0  0  0
   -1.3980    0.7289    4.0028 C   0  0  0  0  0  0  0  0  0  0  0  0
   -1.1913    0.5095    5.1913 O   0  0  0  0  0  0  0  0  0  0  0  0
   -0.3576    0.8816    3.0932 N   0  0  0  0  0  0  0  0  0  0  0  0
   -0.5346    1.1339    1.7371 C   0  0  0  0  0  0  0  0  0  0  0  0
    0.7267    1.2606    0.8976 C   0  0  0  0  0  0  0  0  0  0  0  0
    1.5168   -0.0579    0.8567 C   0  0  0  0  0  0  0  0  0  0  0  0
    3.0295    0.1616    0.8741 C   0  0  0  0  0  0  0  0  0  0  0  0
    3.3494    1.2964   -0.0209 N   0  0  0  0  0  0  0  0  0  0  0  0
    4.9813    1.3952   -0.5404 S   0  0  0  0  0  6  0  0  0  0  0  0
    5.8088    1.2702    0.6388 O   0  0  0  0  0  0  0  0  0  0  0  0
    5.0889    2.5579   -1.3986 O   0  0  0  0  0  0  0  0  0  0  0  0
    5.1467   -0.0238   -1.5726 C   0  0  0  0  0  0  0  0  0  0  0  0
    4.6057    0.0133   -2.8650 C   0  0  0  0  0  0  0  0  0  0  0  0
    4.7471   -1.0908   -3.7075 C   0  0  0  0  0  0  0  0  0  0  0  0
    5.4300   -2.2238   -3.2634 C   0  0  0  0  0  0  0  0  0  0  0  0
    5.9741   -2.2514   -1.9781 C   0  0  0  0  0  0  0  0  0  0  0  0
    5.8331   -1.1489   -1.1371 C   0  0  0  0  0  0  0  0  0  0  0  0
    6.3513   -1.2285    0.0950 F   0  0  0  0  0  0  0  0  0  0  0  0
    2.8189    2.6031    0.4679 C   0  0  0  0  0  0  0  0  0  0  0  0
    1.5991    2.4237    1.3723 C   0  0  0  0  0  0  0  0  0  0  0  0
   -1.6994    1.2608    1.1633 N   0  0  0  0  0  0  0  0  0  0  0  0
   -2.7324    1.1051    2.0275 C   0  0  0  0  0  0  0  0  0  0  0  0
   -3.8614   -0.1472   -1.3369 C   0  0  0  0  0  0  0  0  0  0  0  0
   -3.9366   -1.3205   -2.0911 C   0  0  0  0  0  0  0  0  0  0  0  0
   -4.4120   -4.2895   -2.1646 H   0  0  0  0  0  0  0  0  0  0  0  0
   -4.6507   -3.3681   -3.6708 H   0  0  0  0  0  0  0  0  0  0  0  0
   -6.0506   -3.8841   -2.7314 H   0  0  0  0  0  0  0  0  0  0  0  0
   -6.6837   -2.7099   -0.6408 H   0  0  0  0  0  0  0  0  0  0  0  0
   -6.5545   -0.6487    0.6885 H   0  0  0  0  0  0  0  0  0  0  0  0
   -4.1550    2.1593   -0.0390 H   0  0  0  0  0  0  0  0  0  0  0  0
   -5.7199    1.7863    0.6789 H   0  0  0  0  0  0  0  0  0  0  0  0
    0.5623    0.7901    3.4969 H   0  0  0  0  0  0  0  0  0  0  0  0
    0.4033    1.4885   -0.1287 H   0  0  0  0  0  0  0  0  0  0  0  0
    1.2455   -0.7336    1.6759 H   0  0  0  0  0  0  0  0  0  0  0  0
    1.2427   -0.5884   -0.0652 H   0  0  0  0  0  0  0  0  0  0  0  0
    3.5128   -0.7612    0.5431 H   0  0  0  0  0  0  0  0  0  0  0  0
    3.3794    0.3729    1.8913 H   0  0  0  0  0  0  0  0  0  0  0  0
    4.0782    0.8981   -3.2178 H   0  0  0  0  0  0  0  0  0  0  0  0
    4.3283   -1.0666   -4.7119 H   0  0  0  0  0  0  0  0  0  0  0  0
    5.5436   -3.0834   -3.9203 H   0  0  0  0  0  0  0  0  0  0  0  0
    6.5106   -3.1276   -1.6250 H   0  0  0  0  0  0  0  0  0  0  0  0
    2.5301    3.1921   -0.4103 H   0  0  0  0  0  0  0  0  0  0  0  0
    3.5874    3.1605    1.0148 H   0  0  0  0  0  0  0  0  0  0  0  0
    1.9388    2.2481    2.4013 H   0  0  0  0  0  0  0  0  0  0  0  0
    1.0224    3.3561    1.4040 H   0  0  0  0  0  0  0  0  0  0  0  0
   -3.0501    0.5529   -1.5281 H   0  0  0  0  0  0  0  0  0  0  0  0
   -3.1867   -1.5094   -2.8561 H   0  0  0  0  0  0  0  0  0  0  0  0
  1  2  1  0
  2  3  2  0
  3  4  1  0
  4  5  2  0
  5  6  1  0
  6  7  1  0
  7  8  1  0
  8  9  2  0
  9 10  1  0
 10 11  1  0
 11 12  2  0
 11 13  1  0
 13 14  1  0
 14 15  1  0
 15 16  1  0
 16 17  1  0
 17 18  1  0
 18 19  1  0
 19 20  2  0
 19 21  2  0
 19 22  1  0
 22 23  2  0
 23 24  1  0
 24 25  2  0
 25 26  1  0
 26 27  2  0
 27 28  1  0
 18 29  1  0
 29 30  1  0
 14 31  2  0
 31 32  1  0
  5 33  1  0
 33 34  2  0
 34  2  1  0
 32  7  1  0
 32 10  2  0
 30 15  1  0
 27 22  1  0
  1 35  1  0
  1 36  1  0
  1 37  1  0
  3 38  1  0
  4 39  1  0
  6 40  1  0
  6 41  1  0
 13 42  1  0
 15 43  1  0
 16 44  1  0
 16 45  1  0
 17 46  1  0
 17 47  1  0
 23 48  1  0
 24 49  1  0
 25 50  1  0
 26 51  1  0
 29 52  1  0
 29 53  1  0
 30 54  1  0
 30 55  1  0
 33 56  1  0
 34 57  1  0
M  END
$$$$
