
     RDKit          3D

 57 62  0  0  0  0  0  0  0  0999 V2000
    3.4622   -1.5694   -4.8981 C   0  0  0  0  0  0  0  0  0  0  0  0
    2.4364   -1.2538   -3.9651 O   0  0  0  0  0  0  0  0  0  0  0  0
    2.7408   -1.3829   -2.6370 C   0  0  0  0  0  0  0  0  0  0  0  0
    3.9761   -1.8119   -2.1156 C   0  0  0  0  0  0  0  0  0  0  0  0
    4.1797   -1.9074   -0.7334 C   0  0  0  0  0  0  0  0  0  0  0  0
    3.1297   -1.5676    0.0915 C   0  0  0  0  0  0  0  0  0  0  0  0
    1.8965   -1.1395   -0.4034 C   0  0  0  0  0  0  0  0  0  0  0  0
    1.6920   -1.0449   -1.7721 C   0  0  0  0  0  0  0  0  0  0  0  0
    0.9816   -0.8594    0.7519 C   0  0  0  0  0  0  0  0  0  0  0  0
   -0.2816   -1.6579    0.7677 N   0  0  0  0  0  0  0  0  0  0  0  0
   -1.3969   -0.7612    1.2475 C   0  0  2  0  0  0  0  0  0  0  0  0
   -2.7186   -1.0172    0.4974 C   0  0  0  0  0  0  0  0  0  0  0  0
   -3.2732   -2.4138    0.6615 C   0  0  0  0  0  0  0  0  0  0  0  0
   -3.4123   -3.2559   -0.4508 C   0  0  0  0  0  0  0  0  0  0  0  0
   -3.9320   -4.5432   -0.3047 C   0  0  0  0  0  0  0  0  0  0  0  0
   -4.3210   -5.0008    0.9523 C   0  0  0  0  0  0  0  0  0  0  0  0
   -4.1927   -4.1711    2.0640 C   0  0  0  0  0  0  0  0  0  0  0  0
   -3.6740   -2.8830    1.9203 C   0  0  0  0  0  0  0  0  0  0  0  0
   -0.8396    0.5964    1.0082 C   0  0  0  0  0  0  0  0  0  0  0  0
    0.5177    0.5359    0.7015 C   0  0  0  0  0  0  0  0  0  0  0  0
    0.9802    1.8073    0.4785 C   0  0  0  0  0  0  0  0  0  0  0  0
    2.2143    2.2242    0.2025 O   0  0  0  0  0  0  0  0  0  0  0  0
   -0.1087    2.6917    0.6529 N   0  0  0  0  0  0  0  0  0  0  0  0
   -0.0761    4.1226    0.4980 C   0  0  0  0  0  0  0  0  0  0  0  0
    0.8877    4.7348   -0.3174 C   0  0  0  0  0  0  0  0  0  0  0  0
    0.9179    6.1251   -0.4717 C   0  0  0  0  0  0  0  0  0  0  0  0
   -0.0119    6.9234    0.1868 C   0  0  0  0  0  0  0  0  0  0  0  0
   -0.9735    6.3315    0.9996 C   0  0  0  0  0  0  0  0  0  0  0  0
   -1.0072    4.9412    1.1542 C   0  0  0  0  0  0  0  0  0  0  0  0
   -1.2325    1.9099    1.0098 C   0  0  0  0  0  0  0  0  0  0  0  0
   -2.4338    2.4344    1.2389 O   0  0  0  0  0  0  0  0  0  0  0  0
    1.8790   -1.1794    1.9850 C   0  0  0  0  0  0  0  0  0  0  0  0
    1.6080   -1.1018    3.1739 O   0  0  0  0  0  0  0  0  0  0  0  0
    3.1190   -1.5830    1.4787 N   0  0  0  0  0  0  0  0  0  0  0  0
    3.7554   -2.6215   -4.8207 H   0  0  0  0  0  0  0  0  0  0  0  0
    3.0606   -1.4089   -5.9033 H   0  0  0  0  0  0  0  0  0  0  0  0
    4.3254   -0.9071   -4.7746 H   0  0  0  0  0  0  0  0  0  0  0  0
    4.8014   -2.0813   -2.7678 H   0  0  0  0  0  0  0  0  0  0  0  0
    5.1323   -2.2403   -0.3363 H   0  0  0  0  0  0  0  0  0  0  0  0
    0.7409   -0.7071   -2.1741 H   0  0  0  0  0  0  0  0  0  0  0  0
   -0.4918   -1.9132   -0.1945 H   0  0  0  0  0  0  0  0  0  0  0  0
   -1.5208   -0.9188    2.3256 H   0  0  0  0  0  0  0  0  0  0  0  0
   -2.5874   -0.7946   -0.5709 H   0  0  0  0  0  0  0  0  0  0  0  0
   -3.4874   -0.3151    0.8448 H   0  0  0  0  0  0  0  0  0  0  0  0
   -3.1167   -2.9178   -1.4413 H   0  0  0  0  0  0  0  0  0  0  0  0
   -4.0329   -5.1897   -1.1725 H   0  0  0  0  0  0  0  0  0  0  0  0
   -4.7235   -6.0038    1.0659 H   0  0  0  0  0  0  0  0  0  0  0  0
   -4.4948   -4.5276    3.0453 H   0  0  0  0  0  0  0  0  0  0  0  0
   -3.5834   -2.2525    2.8017 H   0  0  0  0  0  0  0  0  0  0  0  0
    2.7936    1.4457    0.1325 H   0  0  0  0  0  0  0  0  0  0  0  0
    1.6123    4.1539   -0.8793 H   0  0  0  0  0  0  0  0  0  0  0  0
    1.6682    6.5801   -1.1130 H   0  0  0  0  0  0  0  0  0  0  0  0
    0.0131    8.0029    0.0676 H   0  0  0  0  0  0  0  0  0  0  0  0
   -1.6982    6.9496    1.5232 H   0  0  0  0  0  0  0  0  0  0  0  0
   -1.7535    4.5323    1.8276 H   0  0  0  0  0  0  0  0  0  0  0  0
   -3.0257    1.7259    1.5411 H   0  0  0  0  0  0  0  0  0  0  0  0
    3.8797   -1.8643    2.0790 H   0  0  0  0  0  0  0  0  0  0  0  0
  1  2  1  0
  2  3  1  0
  3  4  2  0
  4  5  1  0
  5  6  2  0
  6  7  1  0
  7  8  2  0
  7  9  1  0
  9 10  1  0
 10 11  1  0
 11 12  1  0
 12 13  1  0
 13 14  2  0
 14 15  1  0
 15 16  2  0
 16 17  1  0
 17 18  2  0
 11 19  1  0
 19 20  1  0
 20 21  2  0
 21 22  1  0
 21 23  1  0
 23 24  1  0
 24 25  2  0
 25 26  1  0
 26 27  2  0
 27 28  1  0
 28 29  2  0
 23 30  1  0
 30 31  1  0
  9 32  1  0
 32 33  2  0
 32 34  1  0
  8  3  1  0
 20  9  1  0
 29 24  1  0
 34  6  1  0
 18 13  1  0
 30 19  2  0
  1 35  1  0
  1 36  1  0
  1 37  1  0
  4 38  1  0
  5 39  1  0
  8 40  1  0
 10 41  1  0
 11 42  1  1
 12 43  1  0
 12 44  1  0
 14 45  1  0
 15 46  1  0
 16 47  1  0
 17 48  1  0
 18 49  1  0
 22 50  1  0
 25 51  1  0
 26 52  1  0
 27 53  1  0
 28 54  1  0
 29 55  1  0
 31 56  1  0
 34 57  1  0
M  END
$$$$
