
     RDKit          3D

 54 57  0  0  0  0  0  0  0  0999 V2000
    4.1834    2.0097    4.4742 C   0  0  0  0  0  0  0  0  0  0  0  0
    3.3329    1.0632    3.6411 C   0  0  0  0  0  0  0  0  0  0  0  0
    3.8850    0.8694    2.2361 C   0  0  0  0  0  0  0  0  0  0  0  0
    4.9610    1.3564    1.8916 O   0  0  0  0  0  0  0  0  0  0  0  0
    3.1136    0.1117    1.3682 N   0  0  0  0  0  0  0  0  0  0  0  0
    3.5683   -0.0739   -0.0158 C   0  0  0  0  0  0  0  0  0  0  0  0
    2.4051   -0.1026   -1.0231 C   0  0  0  0  0  0  0  0  0  0  0  0
    1.3335   -1.0665   -0.6554 N   0  0  0  0  0  0  0  0  0  0  0  0
    1.1494   -2.1076   -1.6050 C   0  0  0  0  0  0  0  0  0  0  0  0
    2.1695   -3.0093   -1.9385 C   0  0  0  0  0  0  0  0  0  0  0  0
    1.9315   -4.0333   -2.8558 C   0  0  0  0  0  0  0  0  0  0  0  0
    0.6734   -4.1621   -3.4420 C   0  0  0  0  0  0  0  0  0  0  0  0
    0.3938   -5.4355   -4.5672 Cl  0  0  0  0  0  0  0  0  0  0  0  0
   -0.3560   -3.2758   -3.1286 C   0  0  0  0  0  0  0  0  0  0  0  0
   -0.1219   -2.2464   -2.2177 C   0  0  0  0  0  0  0  0  0  0  0  0
   -1.0816   -1.2824   -1.8420 N   0  0  0  0  0  0  0  0  0  0  0  0
   -2.3772   -1.1406   -2.2876 C   0  0  0  0  0  0  0  0  0  0  0  0
   -2.9338   -1.8380   -3.1276 O   0  0  0  0  0  0  0  0  0  0  0  0
   -3.1313    0.0064   -1.6977 C   0  0  0  0  0  0  0  0  0  0  0  0
   -4.1610    0.5847   -2.4548 C   0  0  0  0  0  0  0  0  0  0  0  0
   -4.8779    1.6762   -1.9578 C   0  0  0  0  0  0  0  0  0  0  0  0
   -4.5688    2.1927   -0.7028 C   0  0  0  0  0  0  0  0  0  0  0  0
   -3.5762    1.5902    0.0770 C   0  0  0  0  0  0  0  0  0  0  0  0
   -2.8533    0.5044   -0.4168 C   0  0  0  0  0  0  0  0  0  0  0  0
   -3.2449    2.0208    1.3367 O   0  0  0  0  0  0  0  0  0  0  0  0
   -4.2354    2.9126    1.8639 C   0  0  0  0  0  0  0  0  0  0  0  0
   -4.6572    3.9325    0.8199 C   0  0  0  0  0  0  0  0  0  0  0  0
   -5.2862    3.2862   -0.2919 O   0  0  0  0  0  0  0  0  0  0  0  0
    1.4142   -1.6066    0.7237 C   0  0  0  0  0  0  0  0  0  0  0  0
    1.8289   -0.5089    1.7183 C   0  0  0  0  0  0  0  0  0  0  0  0
    3.7468    2.1374    5.4694 H   0  0  0  0  0  0  0  0  0  0  0  0
    4.2514    2.9953    4.0017 H   0  0  0  0  0  0  0  0  0  0  0  0
    5.2008    1.6232    4.5949 H   0  0  0  0  0  0  0  0  0  0  0  0
    3.2978    0.0896    4.1410 H   0  0  0  0  0  0  0  0  0  0  0  0
    2.3170    1.4677    3.5735 H   0  0  0  0  0  0  0  0  0  0  0  0
    4.2735    0.7153   -0.2979 H   0  0  0  0  0  0  0  0  0  0  0  0
    4.1135   -1.0248   -0.0414 H   0  0  0  0  0  0  0  0  0  0  0  0
    2.7930   -0.2766   -2.0348 H   0  0  0  0  0  0  0  0  0  0  0  0
    1.9377    0.8905   -1.0401 H   0  0  0  0  0  0  0  0  0  0  0  0
    3.1519   -2.9283   -1.4836 H   0  0  0  0  0  0  0  0  0  0  0  0
    2.7276   -4.7288   -3.1067 H   0  0  0  0  0  0  0  0  0  0  0  0
   -1.3224   -3.4016   -3.6044 H   0  0  0  0  0  0  0  0  0  0  0  0
   -0.6846   -0.5913   -1.2124 H   0  0  0  0  0  0  0  0  0  0  0  0
   -4.4009    0.1909   -3.4409 H   0  0  0  0  0  0  0  0  0  0  0  0
   -5.6647    2.1288   -2.5551 H   0  0  0  0  0  0  0  0  0  0  0  0
   -2.1025    0.0472    0.2197 H   0  0  0  0  0  0  0  0  0  0  0  0
   -5.0882    2.3184    2.2145 H   0  0  0  0  0  0  0  0  0  0  0  0
   -3.7958    3.4189    2.7279 H   0  0  0  0  0  0  0  0  0  0  0  0
   -5.3792    4.6361    1.2473 H   0  0  0  0  0  0  0  0  0  0  0  0
   -3.7987    4.5064    0.4504 H   0  0  0  0  0  0  0  0  0  0  0  0
    0.4355   -2.0051    1.0157 H   0  0  0  0  0  0  0  0  0  0  0  0
    2.1422   -2.4256    0.7848 H   0  0  0  0  0  0  0  0  0  0  0  0
    1.0811    0.2929    1.7278 H   0  0  0  0  0  0  0  0  0  0  0  0
    1.8864   -0.9300    2.7262 H   0  0  0  0  0  0  0  0  0  0  0  0
  1  2  1  0
  2  3  1  0
  3  4  2  0
  3  5  1  0
  5  6  1  0
  6  7  1  0
  7  8  1  0
  8  9  1  0
  9 10  2  0
 10 11  1  0
 11 12  2  0
 12 13  1  0
 12 14  1  0
 14 15  2  0
 15 16  1  0
 16 17  1  0
 17 18  2  0
 17 19  1  0
 19 20  2  0
 20 21  1  0
 21 22  2  0
 22 23  1  0
 23 24  2  0
 23 25  1  0
 25 26  1  0
 26 27  1  0
 27 28  1  0
  8 29  1  0
 29 30  1  0
 30  5  1  0
 15  9  1  0
 24 19  1  0
 28 22  1  0
  1 31  1  0
  1 32  1  0
  1 33  1  0
  2 34  1  0
  2 35  1  0
  6 36  1  0
  6 37  1  0
  7 38  1  0
  7 39  1  0
 10 40  1  0
 11 41  1  0
 14 42  1  0
 16 43  1  0
 20 44  1  0
 21 45  1  0
 24 46  1  0
 26 47  1  0
 26 48  1  0
 27 49  1  0
 27 50  1  0
 29 51  1  0
 29 52  1  0
 30 53  1  0
 30 54  1  0
M  END
$$$$
