
     RDKit          3D

 60 63  0  0  0  0  0  0  0  0999 V2000
    9.7122   -1.9156    0.0644 C   0  0  0  0  0  0  0  0  0  0  0  0
    9.2880   -0.9985   -1.0687 C   0  0  0  0  0  0  0  0  0  0  0  0
    7.9079   -1.1935   -1.3752 O   0  0  0  0  0  0  0  0  0  0  0  0
    6.9954   -0.3344   -0.8293 C   0  0  0  0  0  0  0  0  0  0  0  0
    7.2072    0.5021    0.2666 C   0  0  0  0  0  0  0  0  0  0  0  0
    6.1803    1.3348    0.7290 C   0  0  0  0  0  0  0  0  0  0  0  0
    4.9275    1.3410    0.1015 C   0  0  0  0  0  0  0  0  0  0  0  0
    3.8139    2.2250    0.6004 C   0  0  0  0  0  0  0  0  0  0  0  0
    2.9165    1.4830    1.4565 N   0  0  0  0  0  0  0  0  0  0  0  0
    1.7089    0.9921    0.9917 C   0  0  0  0  0  0  0  0  0  0  0  0
    1.2956    1.2111   -0.1441 O   0  0  0  0  0  0  0  0  0  0  0  0
    0.9632    0.1490    2.0298 C   0  0  0  0  0  0  0  0  0  0  0  0
   -0.3458   -0.2472    1.5393 N   0  0  0  0  0  0  0  0  0  0  0  0
   -0.4307   -1.5096    0.9408 N   0  0  0  0  0  0  0  0  0  0  0  0
   -1.5408   -1.9128    0.3878 C   0  0  0  0  0  0  0  0  0  0  0  0
   -1.5645   -3.2712   -0.2527 C   0  0  0  0  0  0  0  0  0  0  0  0
   -2.7012   -1.0551    0.4150 C   0  0  0  0  0  0  0  0  0  0  0  0
   -4.0155   -1.1949   -0.0001 C   0  0  0  0  0  0  0  0  0  0  0  0
   -4.7291   -2.3895   -0.5197 C   0  0  0  0  0  0  0  0  0  0  0  0
   -4.6098    0.0535    0.2259 N   0  0  0  0  0  0  0  0  0  0  0  0
   -5.8704    0.5755   -0.2028 C   0  0  0  0  0  0  0  0  0  0  0  0
   -6.3834    1.7179    0.4347 C   0  0  0  0  0  0  0  0  0  0  0  0
   -7.6106    2.2642    0.0449 C   0  0  0  0  0  0  0  0  0  0  0  0
   -8.3365    1.6974   -1.0059 C   0  0  0  0  0  0  0  0  0  0  0  0
   -9.6661    2.2624   -1.4095 C   0  0  0  0  0  0  0  0  0  0  0  0
   -7.8209    0.5689   -1.6520 C   0  0  0  0  0  0  0  0  0  0  0  0
   -6.5929    0.0178   -1.2632 C   0  0  0  0  0  0  0  0  0  0  0  0
   -3.8001    0.8441    0.9823 N   0  0  0  0  0  0  0  0  0  0  0  0
   -2.6281    0.2057    1.0169 C   0  0  0  0  0  0  0  0  0  0  0  0
   -1.3972    0.6862    1.6307 C   0  0  0  0  0  0  0  0  0  0  0  0
   -1.2854    1.7773    2.1866 O   0  0  0  0  0  0  0  0  0  0  0  0
    4.7132    0.4807   -0.9828 C   0  0  0  0  0  0  0  0  0  0  0  0
    5.7395   -0.3494   -1.4403 C   0  0  0  0  0  0  0  0  0  0  0  0
    9.1609   -1.6978    0.9834 H   0  0  0  0  0  0  0  0  0  0  0  0
    9.5012   -2.9587   -0.1900 H   0  0  0  0  0  0  0  0  0  0  0  0
   10.7820   -1.8125    0.2666 H   0  0  0  0  0  0  0  0  0  0  0  0
    9.5370    0.0506   -0.8704 H   0  0  0  0  0  0  0  0  0  0  0  0
    9.8479   -1.2759   -1.9690 H   0  0  0  0  0  0  0  0  0  0  0  0
    8.1557    0.5227    0.7927 H   0  0  0  0  0  0  0  0  0  0  0  0
    6.3693    1.9795    1.5851 H   0  0  0  0  0  0  0  0  0  0  0  0
    4.2197    3.0513    1.1952 H   0  0  0  0  0  0  0  0  0  0  0  0
    3.2744    2.6693   -0.2440 H   0  0  0  0  0  0  0  0  0  0  0  0
    3.2824    1.1464    2.3357 H   0  0  0  0  0  0  0  0  0  0  0  0
    0.8503    0.7355    2.9486 H   0  0  0  0  0  0  0  0  0  0  0  0
    1.5523   -0.7482    2.2516 H   0  0  0  0  0  0  0  0  0  0  0  0
   -0.5470   -3.6590   -0.3575 H   0  0  0  0  0  0  0  0  0  0  0  0
   -2.0187   -3.2152   -1.2453 H   0  0  0  0  0  0  0  0  0  0  0  0
   -2.1332   -3.9601    0.3763 H   0  0  0  0  0  0  0  0  0  0  0  0
   -4.3115   -3.3072   -0.0969 H   0  0  0  0  0  0  0  0  0  0  0  0
   -4.6424   -2.4525   -1.6085 H   0  0  0  0  0  0  0  0  0  0  0  0
   -5.7855   -2.3917   -0.2351 H   0  0  0  0  0  0  0  0  0  0  0  0
   -5.8425    2.1926    1.2527 H   0  0  0  0  0  0  0  0  0  0  0  0
   -7.9893    3.1400    0.5686 H   0  0  0  0  0  0  0  0  0  0  0  0
  -10.4727    1.7041   -0.9242 H   0  0  0  0  0  0  0  0  0  0  0  0
   -9.7490    3.3167   -1.1252 H   0  0  0  0  0  0  0  0  0  0  0  0
   -9.7967    2.2064   -2.4957 H   0  0  0  0  0  0  0  0  0  0  0  0
   -8.3668    0.1171   -2.4781 H   0  0  0  0  0  0  0  0  0  0  0  0
   -6.2193   -0.8154   -1.8464 H   0  0  0  0  0  0  0  0  0  0  0  0
    3.7422    0.4535   -1.4763 H   0  0  0  0  0  0  0  0  0  0  0  0
    5.5588   -1.0094   -2.2860 H   0  0  0  0  0  0  0  0  0  0  0  0
  1  2  1  0
  2  3  1  0
  3  4  1  0
  4  5  2  0
  5  6  1  0
  6  7  2  0
  7  8  1  0
  8  9  1  0
  9 10  1  0
 10 11  2  0
 10 12  1  0
 12 13  1  0
 13 14  1  0
 14 15  2  0
 15 16  1  0
 15 17  1  0
 17 18  2  0
 18 19  1  0
 18 20  1  0
 20 21  1  0
 21 22  2  0
 22 23  1  0
 23 24  2  0
 24 25  1  0
 24 26  1  0
 26 27  2  0
 20 28  1  0
 28 29  2  0
 29 30  1  0
 30 31  2  0
  7 32  1  0
 32 33  2  0
 33  4  1  0
 30 13  1  0
 29 17  1  0
 27 21  1  0
  1 34  1  0
  1 35  1  0
  1 36  1  0
  2 37  1  0
  2 38  1  0
  5 39  1  0
  6 40  1  0
  8 41  1  0
  8 42  1  0
  9 43  1  0
 12 44  1  0
 12 45  1  0
 16 46  1  0
 16 47  1  0
 16 48  1  0
 19 49  1  0
 19 50  1  0
 19 51  1  0
 22 52  1  0
 23 53  1  0
 25 54  1  0
 25 55  1  0
 25 56  1  0
 26 57  1  0
 27 58  1  0
 32 59  1  0
 33 60  1  0
M  END
$$$$
