
     RDKit          3D

 56 61  0  0  0  0  0  0  0  0999 V2000
    5.8998   -0.3743   -0.8752 C   0  0  0  0  0  0  0  0  0  0  0  0
    4.6609   -0.4978   -0.0394 C   0  0  0  0  0  0  0  0  0  0  0  0
    4.7292   -0.7003    1.3523 C   0  0  0  0  0  0  0  0  0  0  0  0
    6.2513   -0.8110    2.1684 Cl  0  0  0  0  0  0  0  0  0  0  0  0
    3.5668   -0.8233    2.1391 C   0  0  0  0  0  0  0  0  0  0  0  0
    2.2994   -0.7506    1.5603 C   0  0  0  0  0  0  0  0  0  0  0  0
    2.2193   -0.5496    0.1912 C   0  0  0  0  0  0  0  0  0  0  0  0
    3.3837   -0.4313   -0.5832 C   0  0  0  0  0  0  0  0  0  0  0  0
    3.0364   -0.2465   -1.9193 N   0  0  0  0  0  0  0  0  0  0  0  0
    1.6513   -0.2444   -2.1069 C   0  0  0  0  0  0  0  0  0  0  0  0
    1.1068   -0.0904   -3.1892 O   0  0  0  0  0  0  0  0  0  0  0  0
    1.0153   -0.4454   -0.7086 C   0  0  0  0  0  0  0  0  0  0  0  0
    0.1059   -1.6251   -0.6710 N   0  0  0  0  0  0  0  0  0  0  0  0
   -1.1903   -1.2589   -0.0008 C   0  0  2  0  0  0  0  0  0  0  0  0
   -2.3990   -1.6918   -0.8432 C   0  0  0  0  0  0  0  0  0  0  0  0
   -2.6032   -3.1905   -0.8420 C   0  0  0  0  0  0  0  0  0  0  0  0
   -2.0207   -3.9873   -1.8365 C   0  0  0  0  0  0  0  0  0  0  0  0
   -2.1933   -5.3719   -1.8243 C   0  0  0  0  0  0  0  0  0  0  0  0
   -2.9472   -5.9723   -0.8175 C   0  0  0  0  0  0  0  0  0  0  0  0
   -3.5282   -5.1891    0.1785 C   0  0  0  0  0  0  0  0  0  0  0  0
   -3.3563   -3.8041    0.1684 C   0  0  0  0  0  0  0  0  0  0  0  0
   -1.0653    0.2069    0.1592 C   0  0  0  0  0  0  0  0  0  0  0  0
    0.1818    0.6739   -0.2462 C   0  0  0  0  0  0  0  0  0  0  0  0
    0.2157    2.0364   -0.0858 C   0  0  0  0  0  0  0  0  0  0  0  0
    1.2021    2.9019   -0.3077 O   0  0  0  0  0  0  0  0  0  0  0  0
   -1.0198    2.4186    0.4741 N   0  0  0  0  0  0  0  0  0  0  0  0
   -1.3783    3.7333    0.9153 C   0  0  0  0  0  0  0  0  0  0  0  0
   -0.8675    4.8678    0.2676 C   0  0  0  0  0  0  0  0  0  0  0  0
   -1.2234    6.1471    0.7035 C   0  0  0  0  0  0  0  0  0  0  0  0
   -2.0780    6.2916    1.7887 C   0  0  0  0  0  0  0  0  0  0  0  0
   -2.4153    7.5186    2.2059 F   0  0  0  0  0  0  0  0  0  0  0  0
   -2.5833    5.1802    2.4514 C   0  0  0  0  0  0  0  0  0  0  0  0
   -2.2334    3.8986    2.0186 C   0  0  0  0  0  0  0  0  0  0  0  0
   -1.8295    1.2677    0.5590 C   0  0  0  0  0  0  0  0  0  0  0  0
   -3.1148    1.2631    0.9087 O   0  0  0  0  0  0  0  0  0  0  0  0
    5.6774   -0.1783   -1.9277 H   0  0  0  0  0  0  0  0  0  0  0  0
    6.5176    0.4574   -0.5209 H   0  0  0  0  0  0  0  0  0  0  0  0
    6.4792   -1.3024   -0.8332 H   0  0  0  0  0  0  0  0  0  0  0  0
    3.6520   -0.9774    3.2132 H   0  0  0  0  0  0  0  0  0  0  0  0
    1.4059   -0.8434    2.1711 H   0  0  0  0  0  0  0  0  0  0  0  0
    3.6723   -0.1521   -2.6972 H   0  0  0  0  0  0  0  0  0  0  0  0
    0.5408   -2.3890   -0.1618 H   0  0  0  0  0  0  0  0  0  0  0  0
   -1.2161   -1.7239    0.9931 H   0  0  0  0  0  0  0  0  0  0  0  0
   -2.3038   -1.3318   -1.8772 H   0  0  0  0  0  0  0  0  0  0  0  0
   -3.3143   -1.2196   -0.4619 H   0  0  0  0  0  0  0  0  0  0  0  0
   -1.4253   -3.5288   -2.6242 H   0  0  0  0  0  0  0  0  0  0  0  0
   -1.7394   -5.9807   -2.6016 H   0  0  0  0  0  0  0  0  0  0  0  0
   -3.0831   -7.0504   -0.8103 H   0  0  0  0  0  0  0  0  0  0  0  0
   -4.1178   -5.6571    0.9624 H   0  0  0  0  0  0  0  0  0  0  0  0
   -3.8171   -3.2052    0.9509 H   0  0  0  0  0  0  0  0  0  0  0  0
    1.9673    2.4120   -0.6565 H   0  0  0  0  0  0  0  0  0  0  0  0
   -0.2168    4.7834   -0.5993 H   0  0  0  0  0  0  0  0  0  0  0  0
   -0.8392    7.0287    0.2001 H   0  0  0  0  0  0  0  0  0  0  0  0
   -3.2333    5.3182    3.3099 H   0  0  0  0  0  0  0  0  0  0  0  0
   -2.5964    3.0474    2.5911 H   0  0  0  0  0  0  0  0  0  0  0  0
   -3.4887    2.1435    0.7218 H   0  0  0  0  0  0  0  0  0  0  0  0
  1  2  1  0
  2  3  2  0
  3  4  1  0
  3  5  1  0
  5  6  2  0
  6  7  1  0
  7  8  2  0
  8  9  1  0
  9 10  1  0
 10 11  2  0
 10 12  1  0
 12 13  1  0
 13 14  1  0
 14 15  1  0
 15 16  1  0
 16 17  2  0
 17 18  1  0
 18 19  2  0
 19 20  1  0
 20 21  2  0
 14 22  1  0
 22 23  1  0
 23 24  2  0
 24 25  1  0
 24 26  1  0
 26 27  1  0
 27 28  2  0
 28 29  1  0
 29 30  2  0
 30 31  1  0
 30 32  1  0
 32 33  2  0
 26 34  1  0
 34 35  1  0
  8  2  1  0
 23 12  1  0
 33 27  1  0
 12  7  1  0
 21 16  1  0
 34 22  2  0
  1 36  1  0
  1 37  1  0
  1 38  1  0
  5 39  1  0
  6 40  1  0
  9 41  1  0
 13 42  1  0
 14 43  1  1
 15 44  1  0
 15 45  1  0
 17 46  1  0
 18 47  1  0
 19 48  1  0
 20 49  1  0
 21 50  1  0
 25 51  1  0
 28 52  1  0
 29 53  1  0
 32 54  1  0
 33 55  1  0
 35 56  1  0
M  END
$$$$
