
     RDKit          3D

 27 27  0  0  0  0  0  0  0  0999 V2000
   -1.3384    1.2686   -1.2458 C   0  0  0  0  0  0  0  0  0  0  0  0
   -1.2179   -0.2527   -1.0891 C   0  0  0  0  0  0  0  0  0  0  0  0
   -0.5333   -0.8903   -2.3065 C   0  0  0  0  0  0  0  0  0  0  0  0
   -2.6520   -0.8297   -1.0210 C   0  0  0  0  0  0  0  0  0  0  0  0
   -0.3900   -0.7055    0.4587 S   0  0  0  0  0  6  0  0  0  0  0  0
    0.0172   -2.0934    0.3851 O   0  0  0  0  0  0  0  0  0  0  0  0
   -1.1880   -0.1844    1.5526 O   0  0  0  0  0  0  0  0  0  0  0  0
    1.1247    0.1321    0.6618 C   0  0  0  0  0  0  0  0  0  0  0  0
    1.8947    0.7660   -0.3611 C   0  0  0  0  0  0  0  0  0  0  0  0
    3.0274    1.3731    0.1337 C   0  0  0  0  0  0  0  0  0  0  0  0
    3.1813    1.1629    1.8160 S   0  0  0  0  0  0  0  0  0  0  0  0
    1.7427    0.2270    1.9039 C   0  0  0  0  0  0  0  0  0  0  0  0
    1.3463   -0.3744    3.1599 C   0  0  0  0  0  0  0  0  0  0  0  0
    0.7517   -1.4259    3.3397 O   0  0  0  0  0  0  0  0  0  0  0  0
    1.7146    0.3657    4.2312 O   0  0  0  0  0  0  0  0  0  0  0  0
   -0.3736    1.7551   -1.3978 H   0  0  0  0  0  0  0  0  0  0  0  0
   -1.9600    1.5243   -2.1119 H   0  0  0  0  0  0  0  0  0  0  0  0
   -1.7989    1.7255   -0.3629 H   0  0  0  0  0  0  0  0  0  0  0  0
    0.5064   -0.5839   -2.4202 H   0  0  0  0  0  0  0  0  0  0  0  0
   -0.5356   -1.9841   -2.2366 H   0  0  0  0  0  0  0  0  0  0  0  0
   -1.0539   -0.6215   -3.2330 H   0  0  0  0  0  0  0  0  0  0  0  0
   -3.2063   -0.6274   -1.9447 H   0  0  0  0  0  0  0  0  0  0  0  0
   -3.2212   -0.3938   -0.1923 H   0  0  0  0  0  0  0  0  0  0  0  0
   -2.6369   -1.9154   -0.8711 H   0  0  0  0  0  0  0  0  0  0  0  0
    1.6604    0.8094   -1.4138 H   0  0  0  0  0  0  0  0  0  0  0  0
    3.7752    1.9300   -0.4155 H   0  0  0  0  0  0  0  0  0  0  0  0
    1.3634   -0.1574    4.9808 H   0  0  0  0  0  0  0  0  0  0  0  0
  1  2  1  0
  2  3  1  0
  2  4  1  0
  2  5  1  0
  5  6  2  0
  5  7  2  0
  5  8  1  0
  8  9  1  0
  9 10  2  0
 10 11  1  0
 11 12  1  0
 12 13  1  0
 13 14  2  0
 13 15  1  0
 12  8  2  0
  1 16  1  0
  1 17  1  0
  1 18  1  0
  3 19  1  0
  3 20  1  0
  3 21  1  0
  4 22  1  0
  4 23  1  0
  4 24  1  0
  9 25  1  0
 10 26  1  0
 15 27  1  0
M  END
$$$$
