
     RDKit          3D

 44 46  0  0  0  0  0  0  0  0999 V2000
   -3.7845    2.5048   -0.2820 C   0  0  0  0  0  0  0  0  0  0  0  0
   -3.2009    1.1197   -0.2034 C   0  0  0  0  0  0  0  0  0  0  0  0
   -3.0574    0.3665   -1.3816 C   0  0  0  0  0  0  0  0  0  0  0  0
   -2.5139   -0.9305   -1.3755 C   0  0  0  0  0  0  0  0  0  0  0  0
   -2.4089   -1.6604   -2.6843 C   0  0  0  0  0  0  0  0  0  0  0  0
   -2.1253   -1.4765   -0.1406 C   0  0  0  0  0  0  0  0  0  0  0  0
   -1.4181   -3.1153    0.0035 S   0  0  0  0  0  6  0  0  0  0  0  0
   -2.0394   -3.9739   -0.9825 O   0  0  0  0  0  0  0  0  0  0  0  0
   -1.4139   -3.4895    1.4026 O   0  0  0  0  0  0  0  0  0  0  0  0
    0.1822   -2.8852   -0.5015 N   0  0  0  0  0  0  0  0  0  0  0  0
    0.9516   -1.8545    0.1077 C   0  0  0  0  0  0  0  0  0  0  0  0
    1.3068   -1.9333    1.4522 C   0  0  0  0  0  0  0  0  0  0  0  0
    2.0153   -0.8890    2.0439 C   0  0  0  0  0  0  0  0  0  0  0  0
    2.3711    0.2275    1.2886 C   0  0  0  0  0  0  0  0  0  0  0  0
    3.0709    1.1972    1.9524 O   0  0  0  0  0  0  0  0  0  0  0  0
    2.0139    0.3260   -0.0636 C   0  0  0  0  0  0  0  0  0  0  0  0
    2.3274    1.7644   -1.0760 S   0  0  0  0  0  0  0  0  0  0  0  0
    4.0645    1.7852   -1.1473 C   0  0  0  0  0  0  0  0  0  0  0  0
    4.8405    1.9251   -0.0248 N   0  0  0  0  0  0  0  0  0  0  0  0
    6.0603    1.9070   -0.5109 C   0  0  0  0  0  0  0  0  0  0  0  0
    6.0094    1.7716   -1.8630 N   0  0  0  0  0  0  0  0  0  0  0  0
    4.7406    1.6960   -2.2948 N   0  0  0  0  0  0  0  0  0  0  0  0
    1.2983   -0.7304   -0.6466 C   0  0  0  0  0  0  0  0  0  0  0  0
   -2.2818   -0.7384    1.0444 C   0  0  0  0  0  0  0  0  0  0  0  0
   -2.8125    0.5589    1.0252 C   0  0  0  0  0  0  0  0  0  0  0  0
   -2.9412    1.3209    2.3158 C   0  0  0  0  0  0  0  0  0  0  0  0
   -3.9639    2.8077   -1.3192 H   0  0  0  0  0  0  0  0  0  0  0  0
   -4.7427    2.5412    0.2454 H   0  0  0  0  0  0  0  0  0  0  0  0
   -3.0969    3.2352    0.1559 H   0  0  0  0  0  0  0  0  0  0  0  0
   -3.3763    0.8047   -2.3274 H   0  0  0  0  0  0  0  0  0  0  0  0
   -3.1732   -2.4398   -2.7488 H   0  0  0  0  0  0  0  0  0  0  0  0
   -2.5605   -0.9815   -3.5311 H   0  0  0  0  0  0  0  0  0  0  0  0
   -1.4147   -2.0958   -2.8152 H   0  0  0  0  0  0  0  0  0  0  0  0
    0.2872   -3.0328   -1.5033 H   0  0  0  0  0  0  0  0  0  0  0  0
    1.0384   -2.8023    2.0483 H   0  0  0  0  0  0  0  0  0  0  0  0
    2.2938   -0.9454    3.0929 H   0  0  0  0  0  0  0  0  0  0  0  0
    3.6060    1.6896    1.2945 H   0  0  0  0  0  0  0  0  0  0  0  0
    6.9841    1.9875    0.0447 H   0  0  0  0  0  0  0  0  0  0  0  0
    6.7691    1.7304   -2.5340 H   0  0  0  0  0  0  0  0  0  0  0  0
    0.9919   -0.6633   -1.6874 H   0  0  0  0  0  0  0  0  0  0  0  0
   -1.9768   -1.1726    1.9962 H   0  0  0  0  0  0  0  0  0  0  0  0
   -2.2939    2.2036    2.3001 H   0  0  0  0  0  0  0  0  0  0  0  0
   -2.6473    0.7094    3.1756 H   0  0  0  0  0  0  0  0  0  0  0  0
   -3.9789    1.6303    2.4752 H   0  0  0  0  0  0  0  0  0  0  0  0
  1  2  1  0
  2  3  2  0
  3  4  1  0
  4  5  1  0
  4  6  2  0
  6  7  1  0
  7  8  2  0
  7  9  2  0
  7 10  1  0
 10 11  1  0
 11 12  2  0
 12 13  1  0
 13 14  2  0
 14 15  1  0
 14 16  1  0
 16 17  1  0
 17 18  1  0
 18 19  1  0
 19 20  2  0
 20 21  1  0
 21 22  1  0
 16 23  2  0
  6 24  1  0
 24 25  2  0
 25 26  1  0
 25  2  1  0
 23 11  1  0
 22 18  2  0
  1 27  1  0
  1 28  1  0
  1 29  1  0
  3 30  1  0
  5 31  1  0
  5 32  1  0
  5 33  1  0
 10 34  1  0
 12 35  1  0
 13 36  1  0
 15 37  1  0
 20 38  1  0
 21 39  1  0
 23 40  1  0
 24 41  1  0
 26 42  1  0
 26 43  1  0
 26 44  1  0
M  END
$$$$
