
     RDKit          3D

 67 72  0  0  0  0  0  0  0  0999 V2000
    2.9780   -1.1475   -2.6652 O   0  0  0  0  0  0  0  0  0  0  0  0
    2.5877   -0.9220   -1.5149 C   0  0  0  0  0  0  0  0  0  0  0  0
    3.6033   -0.5620   -0.4203 C   0  0  0  0  0  0  0  0  0  0  0  0
    3.9191    0.9417   -0.4865 C   0  0  0  0  0  0  0  0  0  0  0  0
    5.0788    1.3392    0.3993 C   0  0  0  0  0  0  0  0  0  0  0  0
    4.8512    1.8839    1.6704 C   0  0  0  0  0  0  0  0  0  0  0  0
    5.9254    2.2230    2.4952 C   0  0  0  0  0  0  0  0  0  0  0  0
    7.2336    2.0238    2.0593 C   0  0  0  0  0  0  0  0  0  0  0  0
    7.4711    1.4789    0.7981 C   0  0  0  0  0  0  0  0  0  0  0  0
    6.3994    1.1377   -0.0292 C   0  0  0  0  0  0  0  0  0  0  0  0
    3.1396   -0.9868    0.9007 N   0  0  0  0  0  0  0  0  0  0  0  0
    1.8237   -0.6473    1.1988 C   0  0  0  0  0  0  0  0  0  0  0  0
    1.5890   -0.4111    2.4977 N   0  0  0  0  0  0  0  0  0  0  0  0
    0.3231   -0.1504    2.8232 C   0  0  0  0  0  0  0  0  0  0  0  0
   -0.7045   -0.0740    1.9731 N   0  0  0  0  0  0  0  0  0  0  0  0
   -0.4499   -0.2946    0.6642 C   0  0  0  0  0  0  0  0  0  0  0  0
   -1.5151   -0.0564   -0.2225 N   0  0  0  0  0  0  0  0  0  0  0  0
   -2.8190   -0.5818    0.2603 C   0  0  0  0  0  0  0  0  0  0  0  0
   -3.9765    0.0178   -0.5635 C   0  0  0  0  0  0  0  0  0  0  0  0
   -4.0636    1.4878   -0.3882 N   0  0  0  0  0  0  0  0  0  0  0  0
   -5.1334    2.0170    0.3530 C   0  0  0  0  0  0  0  0  0  0  0  0
   -5.7856    1.3252    1.3842 C   0  0  0  0  0  0  0  0  0  0  0  0
   -6.8477    1.9053    2.0896 C   0  0  0  0  0  0  0  0  0  0  0  0
   -7.2788    3.1905    1.7748 C   0  0  0  0  0  0  0  0  0  0  0  0
   -6.6430    3.9004    0.7611 C   0  0  0  0  0  0  0  0  0  0  0  0
   -5.5805    3.3176    0.0636 C   0  0  0  0  0  0  0  0  0  0  0  0
   -2.7697    2.1425   -0.0452 C   0  0  0  0  0  0  0  0  0  0  0  0
   -1.5605    1.3763   -0.6349 C   0  0  0  0  0  0  0  0  0  0  0  0
    0.8394   -0.6178    0.2027 C   0  0  0  0  0  0  0  0  0  0  0  0
    1.2305   -0.8937   -1.1610 N   0  0  0  0  0  0  0  0  0  0  0  0
    0.2938   -1.4077   -2.1546 C   0  0  0  0  0  0  0  0  0  0  0  0
    0.2639   -2.9262   -2.1865 C   0  0  0  0  0  0  0  0  0  0  0  0
   -0.3650   -3.6568   -1.1654 C   0  0  0  0  0  0  0  0  0  0  0  0
   -0.3714   -5.0538   -1.1896 C   0  0  0  0  0  0  0  0  0  0  0  0
    0.2491   -5.7295   -2.2396 C   0  0  0  0  0  0  0  0  0  0  0  0
    0.2466   -7.4492   -2.2692 Cl  0  0  0  0  0  0  0  0  0  0  0  0
    0.8780   -5.0219   -3.2624 C   0  0  0  0  0  0  0  0  0  0  0  0
    0.8875   -3.6254   -3.2337 C   0  0  0  0  0  0  0  0  0  0  0  0
    4.5096   -1.1431   -0.6384 H   0  0  0  0  0  0  0  0  0  0  0  0
    3.0367    1.5451   -0.2291 H   0  0  0  0  0  0  0  0  0  0  0  0
    4.1637    1.2252   -1.5205 H   0  0  0  0  0  0  0  0  0  0  0  0
    3.8382    2.0431    2.0346 H   0  0  0  0  0  0  0  0  0  0  0  0
    5.7375    2.6455    3.4795 H   0  0  0  0  0  0  0  0  0  0  0  0
    8.0686    2.2902    2.7032 H   0  0  0  0  0  0  0  0  0  0  0  0
    8.4911    1.3210    0.4562 H   0  0  0  0  0  0  0  0  0  0  0  0
    6.6057    0.7104   -1.0099 H   0  0  0  0  0  0  0  0  0  0  0  0
    3.7466   -0.7769    1.6872 H   0  0  0  0  0  0  0  0  0  0  0  0
    0.1086    0.0244    3.8728 H   0  0  0  0  0  0  0  0  0  0  0  0
   -2.8215   -1.6713    0.1434 H   0  0  0  0  0  0  0  0  0  0  0  0
   -2.9963   -0.3597    1.3200 H   0  0  0  0  0  0  0  0  0  0  0  0
   -3.7887   -0.1718   -1.6294 H   0  0  0  0  0  0  0  0  0  0  0  0
   -4.9206   -0.4922   -0.3363 H   0  0  0  0  0  0  0  0  0  0  0  0
   -5.4676    0.3304    1.6790 H   0  0  0  0  0  0  0  0  0  0  0  0
   -7.3365    1.3485    2.8863 H   0  0  0  0  0  0  0  0  0  0  0  0
   -8.1086    3.6373    2.3158 H   0  0  0  0  0  0  0  0  0  0  0  0
   -6.9772    4.9027    0.5038 H   0  0  0  0  0  0  0  0  0  0  0  0
   -5.1112    3.8810   -0.7401 H   0  0  0  0  0  0  0  0  0  0  0  0
   -2.6542    2.2018    1.0453 H   0  0  0  0  0  0  0  0  0  0  0  0
   -2.7575    3.1660   -0.4395 H   0  0  0  0  0  0  0  0  0  0  0  0
   -1.6330    1.3963   -1.7288 H   0  0  0  0  0  0  0  0  0  0  0  0
   -0.6362    1.9066   -0.3742 H   0  0  0  0  0  0  0  0  0  0  0  0
    0.6040   -1.0342   -3.1392 H   0  0  0  0  0  0  0  0  0  0  0  0
   -0.7216   -1.0396   -2.0488 H   0  0  0  0  0  0  0  0  0  0  0  0
   -0.8435   -3.1405   -0.3357 H   0  0  0  0  0  0  0  0  0  0  0  0
   -0.8528   -5.6072   -0.3863 H   0  0  0  0  0  0  0  0  0  0  0  0
    1.3676   -5.5478   -4.0809 H   0  0  0  0  0  0  0  0  0  0  0  0
    1.4013   -3.0837   -4.0270 H   0  0  0  0  0  0  0  0  0  0  0  0
  1  2  2  0
  2  3  1  0
  3  4  1  0
  4  5  1  0
  5  6  2  0
  6  7  1  0
  7  8  2  0
  8  9  1  0
  9 10  2  0
  3 11  1  0
 11 12  1  0
 12 13  2  0
 13 14  1  0
 14 15  2  0
 15 16  1  0
 16 17  1  0
 17 18  1  0
 18 19  1  0
 19 20  1  0
 20 21  1  0
 21 22  2  0
 22 23  1  0
 23 24  2  0
 24 25  1  0
 25 26  2  0
 20 27  1  0
 27 28  1  0
 16 29  2  0
 29 30  1  0
 30 31  1  0
 31 32  1  0
 32 33  2  0
 33 34  1  0
 34 35  2  0
 35 36  1  0
 35 37  1  0
 37 38  2  0
 30  2  1  0
 38 32  1  0
 10  5  1  0
 29 12  1  0
 28 17  1  0
 26 21  1  0
  3 39  1  0
  4 40  1  0
  4 41  1  0
  6 42  1  0
  7 43  1  0
  8 44  1  0
  9 45  1  0
 10 46  1  0
 11 47  1  0
 14 48  1  0
 18 49  1  0
 18 50  1  0
 19 51  1  0
 19 52  1  0
 22 53  1  0
 23 54  1  0
 24 55  1  0
 25 56  1  0
 26 57  1  0
 27 58  1  0
 27 59  1  0
 28 60  1  0
 28 61  1  0
 31 62  1  0
 31 63  1  0
 33 64  1  0
 34 65  1  0
 37 66  1  0
 38 67  1  0
M  END
$$$$
