
     RDKit          3D

 64 67  0  0  0  0  0  0  0  0999 V2000
    6.3896   -2.1791    3.0706 C   0  0  0  0  0  0  0  0  0  0  0  0
    5.6632   -0.9922    2.7721 O   0  0  0  0  0  0  0  0  0  0  0  0
    5.1162   -0.9029    1.5232 C   0  0  0  0  0  0  0  0  0  0  0  0
    4.6007    0.3525    1.2014 C   0  0  0  0  0  0  0  0  0  0  0  0
    4.0094    0.5803   -0.0435 C   0  0  0  0  0  0  0  0  0  0  0  0
    3.9122   -0.4520   -0.9821 C   0  0  0  0  0  0  0  0  0  0  0  0
    3.2647   -0.1503   -2.1944 N   0  0  0  0  0  0  0  0  0  0  0  0
    3.0092   -0.9917   -3.2647 C   0  0  0  0  0  0  0  0  0  0  0  0
    3.4014   -2.1492   -3.3975 O   0  0  0  0  0  0  0  0  0  0  0  0
    2.1808   -0.3119   -4.3669 C   0  0  0  0  0  0  0  0  0  0  0  0
    0.8500    0.0935   -3.8902 N   0  0  0  0  0  0  0  0  0  0  0  0
   -0.2015   -0.9058   -3.9733 C   0  0  0  0  0  0  0  0  0  0  0  0
    0.7507    1.2899   -3.2040 C   0  0  0  0  0  0  0  0  0  0  0  0
    1.7006    2.0587   -3.0613 O   0  0  0  0  0  0  0  0  0  0  0  0
   -0.5237    1.6090   -2.5348 C   0  0  0  0  0  0  0  0  0  0  0  0
   -0.7694    1.0230   -1.3527 C   0  0  0  0  0  0  0  0  0  0  0  0
   -1.8930    1.2756   -0.5114 C   0  0  0  0  0  0  0  0  0  0  0  0
   -2.6136    2.4458   -0.4479 C   0  0  0  0  0  0  0  0  0  0  0  0
   -3.5244    2.3014    0.5762 N   0  0  0  0  0  0  0  0  0  0  0  0
   -4.4351    3.2731    1.0835 C   0  0  0  0  0  0  0  0  0  0  0  0
   -4.4831    4.5745    0.5598 C   0  0  0  0  0  0  0  0  0  0  0  0
   -5.3696    5.5133    1.0993 C   0  0  0  0  0  0  0  0  0  0  0  0
   -6.2112    5.1609    2.1539 C   0  0  0  0  0  0  0  0  0  0  0  0
   -6.1677    3.8701    2.6784 C   0  0  0  0  0  0  0  0  0  0  0  0
   -5.2815    2.9291    2.1487 C   0  0  0  0  0  0  0  0  0  0  0  0
   -3.4501    1.0674    1.1324 N   0  0  0  0  0  0  0  0  0  0  0  0
   -2.4576    0.4353    0.4895 C   0  0  0  0  0  0  0  0  0  0  0  0
   -2.0705   -0.9238    0.8672 C   0  0  0  0  0  0  0  0  0  0  0  0
   -1.8981   -1.2522    2.2180 C   0  0  0  0  0  0  0  0  0  0  0  0
   -1.4812   -2.5350    2.5886 C   0  0  0  0  0  0  0  0  0  0  0  0
   -1.2458   -3.5146    1.6136 C   0  0  0  0  0  0  0  0  0  0  0  0
   -0.7347   -4.8682    2.0044 C   0  0  0  0  0  0  0  0  0  0  0  0
   -1.4263   -3.1897    0.2626 C   0  0  0  0  0  0  0  0  0  0  0  0
   -1.8465   -1.9067   -0.1081 C   0  0  0  0  0  0  0  0  0  0  0  0
    4.4295   -1.7068   -0.6605 C   0  0  0  0  0  0  0  0  0  0  0  0
    5.0309   -1.9327    0.5863 C   0  0  0  0  0  0  0  0  0  0  0  0
    5.7207   -3.0456    3.1266 H   0  0  0  0  0  0  0  0  0  0  0  0
    7.1946   -2.3524    2.3460 H   0  0  0  0  0  0  0  0  0  0  0  0
    6.8517   -2.0480    4.0545 H   0  0  0  0  0  0  0  0  0  0  0  0
    4.6512    1.1594    1.9307 H   0  0  0  0  0  0  0  0  0  0  0  0
    3.6159    1.5709   -0.2622 H   0  0  0  0  0  0  0  0  0  0  0  0
    2.9565    0.8155   -2.3094 H   0  0  0  0  0  0  0  0  0  0  0  0
    2.0663   -0.9995   -5.2126 H   0  0  0  0  0  0  0  0  0  0  0  0
    2.7340    0.5639   -4.7322 H   0  0  0  0  0  0  0  0  0  0  0  0
   -0.1473   -1.4104   -4.9455 H   0  0  0  0  0  0  0  0  0  0  0  0
   -1.1955   -0.4625   -3.8699 H   0  0  0  0  0  0  0  0  0  0  0  0
   -0.0483   -1.6486   -3.1884 H   0  0  0  0  0  0  0  0  0  0  0  0
   -1.1475    2.3675   -2.9867 H   0  0  0  0  0  0  0  0  0  0  0  0
   -0.0492    0.2929   -0.9798 H   0  0  0  0  0  0  0  0  0  0  0  0
   -2.5160    3.3673   -0.9988 H   0  0  0  0  0  0  0  0  0  0  0  0
   -3.8480    4.8955   -0.2595 H   0  0  0  0  0  0  0  0  0  0  0  0
   -5.4021    6.5249    0.6981 H   0  0  0  0  0  0  0  0  0  0  0  0
   -6.8968    5.8942    2.5708 H   0  0  0  0  0  0  0  0  0  0  0  0
   -6.8226    3.5948    3.5022 H   0  0  0  0  0  0  0  0  0  0  0  0
   -5.2632    1.9283    2.5776 H   0  0  0  0  0  0  0  0  0  0  0  0
   -2.0760   -0.5031    2.9908 H   0  0  0  0  0  0  0  0  0  0  0  0
   -1.3353   -2.7569    3.6443 H   0  0  0  0  0  0  0  0  0  0  0  0
   -1.1293   -5.6414    1.3382 H   0  0  0  0  0  0  0  0  0  0  0  0
   -1.0451   -5.1267    3.0228 H   0  0  0  0  0  0  0  0  0  0  0  0
    0.3578   -4.8795    1.9536 H   0  0  0  0  0  0  0  0  0  0  0  0
   -1.2379   -3.9351   -0.5098 H   0  0  0  0  0  0  0  0  0  0  0  0
   -2.0011   -1.6854   -1.1621 H   0  0  0  0  0  0  0  0  0  0  0  0
    4.3825   -2.5374   -1.3593 H   0  0  0  0  0  0  0  0  0  0  0  0
    5.4056   -2.9310    0.7943 H   0  0  0  0  0  0  0  0  0  0  0  0
  1  2  1  0
  2  3  1  0
  3  4  2  0
  4  5  1  0
  5  6  2  0
  6  7  1  0
  7  8  1  0
  8  9  2  0
  8 10  1  0
 10 11  1  0
 11 12  1  0
 11 13  1  0
 13 14  2  0
 13 15  1  0
 15 16  2  3
 16 17  1  0
 17 18  2  0
 18 19  1  0
 19 20  1  0
 20 21  2  0
 21 22  1  0
 22 23  2  0
 23 24  1  0
 24 25  2  0
 19 26  1  0
 26 27  2  0
 27 28  1  0
 28 29  2  0
 29 30  1  0
 30 31  2  0
 31 32  1  0
 31 33  1  0
 33 34  2  0
  6 35  1  0
 35 36  2  0
 36  3  1  0
 27 17  1  0
 34 28  1  0
 25 20  1  0
  1 37  1  0
  1 38  1  0
  1 39  1  0
  4 40  1  0
  5 41  1  0
  7 42  1  0
 10 43  1  0
 10 44  1  0
 12 45  1  0
 12 46  1  0
 12 47  1  0
 15 48  1  0
 16 49  1  0
 18 50  1  0
 21 51  1  0
 22 52  1  0
 23 53  1  0
 24 54  1  0
 25 55  1  0
 29 56  1  0
 30 57  1  0
 32 58  1  0
 32 59  1  0
 32 60  1  0
 33 61  1  0
 34 62  1  0
 35 63  1  0
 36 64  1  0
M  END
$$$$
