
     RDKit          3D

 64 67  0  0  0  0  0  0  0  0999 V2000
    8.5809   -2.5749   -0.1915 C   0  0  0  0  0  0  0  0  0  0  0  0
    8.0342   -2.1889    1.0632 O   0  0  0  0  0  0  0  0  0  0  0  0
    6.8479   -1.5086    1.0386 C   0  0  0  0  0  0  0  0  0  0  0  0
    6.3463   -1.1639    2.2964 C   0  0  0  0  0  0  0  0  0  0  0  0
    5.1500   -0.4489    2.4291 C   0  0  0  0  0  0  0  0  0  0  0  0
    4.4330   -0.0765    1.2968 C   0  0  0  0  0  0  0  0  0  0  0  0
    3.2340    0.6630    1.3241 N   0  0  0  0  0  0  0  0  0  0  0  0
    2.4702    1.0172    2.4109 C   0  0  0  0  0  0  0  0  0  0  0  0
    2.7140    0.7195    3.5812 O   0  0  0  0  0  0  0  0  0  0  0  0
    1.2713    1.9117    2.1204 C   0  0  0  0  0  0  0  0  0  0  0  0
    0.7008    1.9586    0.3986 S   0  0  0  0  0  0  0  0  0  0  0  0
    0.0208    0.3787    0.2545 C   0  0  0  0  0  0  0  0  0  0  0  0
    0.7011   -0.7043   -0.0237 N   0  0  0  0  0  0  0  0  0  0  0  0
   -0.1755   -1.7575   -0.0132 N   0  0  0  0  0  0  0  0  0  0  0  0
   -1.3797   -1.2937    0.2691 C   0  0  0  0  0  0  0  0  0  0  0  0
   -2.6041   -2.1308    0.4401 C   0  0  0  0  0  0  0  0  0  0  0  0
   -3.6277   -1.9456   -0.6392 C   0  0  0  0  0  0  0  0  0  0  0  0
   -4.9442   -1.5285   -0.5253 C   0  0  0  0  0  0  0  0  0  0  0  0
   -5.5145   -1.5296   -1.8181 C   0  0  0  0  0  0  0  0  0  0  0  0
   -4.5424   -1.9580   -2.6906 C   0  0  0  0  0  0  0  0  0  0  0  0
   -3.4061   -2.2281   -1.9715 N   0  0  0  0  0  0  0  0  0  0  0  0
   -2.1835   -2.7365   -2.5580 C   0  0  0  0  0  0  0  0  0  0  0  0
   -1.3054    0.0759    0.4034 N   0  0  0  0  0  0  0  0  0  0  0  0
   -2.3919    0.9956    0.6728 C   0  0  0  0  0  0  0  0  0  0  0  0
   -2.8605    1.7341   -0.5822 C   0  0  0  0  0  0  0  0  0  0  0  0
   -3.9266    2.7487   -0.2552 C   0  0  0  0  0  0  0  0  0  0  0  0
   -5.2800    2.4384   -0.4304 C   0  0  0  0  0  0  0  0  0  0  0  0
   -6.2666    3.3702   -0.1064 C   0  0  0  0  0  0  0  0  0  0  0  0
   -5.9094    4.6184    0.3967 C   0  0  0  0  0  0  0  0  0  0  0  0
   -4.5654    4.9377    0.5751 C   0  0  0  0  0  0  0  0  0  0  0  0
   -3.5766    4.0076    0.2515 C   0  0  0  0  0  0  0  0  0  0  0  0
    4.9298   -0.4483    0.0368 C   0  0  0  0  0  0  0  0  0  0  0  0
    4.2267   -0.0664   -1.0833 O   0  0  0  0  0  0  0  0  0  0  0  0
    3.5987   -1.2030   -1.6840 C   0  0  0  0  0  0  0  0  0  0  0  0
    6.1360   -1.1435   -0.1005 C   0  0  0  0  0  0  0  0  0  0  0  0
    8.8196   -1.7004   -0.8049 H   0  0  0  0  0  0  0  0  0  0  0  0
    7.9097   -3.2580   -0.7214 H   0  0  0  0  0  0  0  0  0  0  0  0
    9.5149   -3.1110    0.0016 H   0  0  0  0  0  0  0  0  0  0  0  0
    6.8962   -1.4462    3.1907 H   0  0  0  0  0  0  0  0  0  0  0  0
    4.8153   -0.1924    3.4283 H   0  0  0  0  0  0  0  0  0  0  0  0
    2.8433    0.8497    0.4041 H   0  0  0  0  0  0  0  0  0  0  0  0
    1.5520    2.9306    2.4063 H   0  0  0  0  0  0  0  0  0  0  0  0
    0.4407    1.5991    2.7613 H   0  0  0  0  0  0  0  0  0  0  0  0
   -3.0507   -1.9170    1.4193 H   0  0  0  0  0  0  0  0  0  0  0  0
   -2.3144   -3.1882    0.4726 H   0  0  0  0  0  0  0  0  0  0  0  0
   -5.4428   -1.2551    0.3963 H   0  0  0  0  0  0  0  0  0  0  0  0
   -6.5277   -1.2576   -2.0842 H   0  0  0  0  0  0  0  0  0  0  0  0
   -4.5734   -2.1058   -3.7629 H   0  0  0  0  0  0  0  0  0  0  0  0
   -1.7544   -3.4932   -1.8976 H   0  0  0  0  0  0  0  0  0  0  0  0
   -2.4130   -3.1953   -3.5240 H   0  0  0  0  0  0  0  0  0  0  0  0
   -1.4966   -1.8985   -2.6971 H   0  0  0  0  0  0  0  0  0  0  0  0
   -2.0472    1.6954    1.4435 H   0  0  0  0  0  0  0  0  0  0  0  0
   -3.2166    0.4385    1.1284 H   0  0  0  0  0  0  0  0  0  0  0  0
   -2.0266    2.2469   -1.0750 H   0  0  0  0  0  0  0  0  0  0  0  0
   -3.2369    1.0233   -1.3259 H   0  0  0  0  0  0  0  0  0  0  0  0
   -5.5758    1.4711   -0.8272 H   0  0  0  0  0  0  0  0  0  0  0  0
   -7.3150    3.1245   -0.2490 H   0  0  0  0  0  0  0  0  0  0  0  0
   -6.6792    5.3444    0.6455 H   0  0  0  0  0  0  0  0  0  0  0  0
   -4.2896    5.9140    0.9648 H   0  0  0  0  0  0  0  0  0  0  0  0
   -2.5318    4.2746    0.3935 H   0  0  0  0  0  0  0  0  0  0  0  0
    2.8237   -0.8367   -2.3630 H   0  0  0  0  0  0  0  0  0  0  0  0
    3.1228   -1.8513   -0.9402 H   0  0  0  0  0  0  0  0  0  0  0  0
    4.3249   -1.7721   -2.2735 H   0  0  0  0  0  0  0  0  0  0  0  0
    6.4929   -1.3728   -1.0967 H   0  0  0  0  0  0  0  0  0  0  0  0
  1  2  1  0
  2  3  1  0
  3  4  2  0
  4  5  1  0
  5  6  2  0
  6  7  1  0
  7  8  1  0
  8  9  2  0
  8 10  1  0
 10 11  1  0
 11 12  1  0
 12 13  2  0
 13 14  1  0
 14 15  2  0
 15 16  1  0
 16 17  1  0
 17 18  2  0
 18 19  1  0
 19 20  2  0
 20 21  1  0
 21 22  1  0
 15 23  1  0
 23 24  1  0
 24 25  1  0
 25 26  1  0
 26 27  2  0
 27 28  1  0
 28 29  2  0
 29 30  1  0
 30 31  2  0
  6 32  1  0
 32 33  1  0
 33 34  1  0
 32 35  2  0
 35  3  1  0
 23 12  1  0
 31 26  1  0
 21 17  1  0
  1 36  1  0
  1 37  1  0
  1 38  1  0
  4 39  1  0
  5 40  1  0
  7 41  1  0
 10 42  1  0
 10 43  1  0
 16 44  1  0
 16 45  1  0
 18 46  1  0
 19 47  1  0
 20 48  1  0
 22 49  1  0
 22 50  1  0
 22 51  1  0
 24 52  1  0
 24 53  1  0
 25 54  1  0
 25 55  1  0
 27 56  1  0
 28 57  1  0
 29 58  1  0
 30 59  1  0
 31 60  1  0
 34 61  1  0
 34 62  1  0
 34 63  1  0
 35 64  1  0
M  END
$$$$
