
     RDKit          3D

 73 75  0  0  0  0  0  0  0  0999 V2000
   -1.2625   -1.2067    1.6589 C   0  0  0  0  0  0  0  0  0  0  0  0
   -1.6125   -2.4288    0.8234 C   0  0  0  0  0  0  0  0  0  0  0  0
   -1.2883   -2.3786   -0.6807 C   0  0  0  0  0  0  0  0  0  0  0  0
    0.5054   -2.3414   -1.0176 S   0  0  0  0  0  0  0  0  0  0  0  0
    0.9194   -0.6389   -1.0791 C   0  0  0  0  0  0  0  0  0  0  0  0
    0.0281    0.2260   -0.7225 N   0  0  0  0  0  0  0  0  0  0  0  0
    0.3339    1.5860   -0.7769 C   0  0  0  0  0  0  0  0  0  0  0  0
   -0.6390    2.5116   -0.3924 C   0  0  0  0  0  0  0  0  0  0  0  0
   -0.3731    3.8862   -0.4225 C   0  0  0  0  0  0  0  0  0  0  0  0
   -1.2716    4.8546   -0.0481 O   0  0  0  0  0  0  0  0  0  0  0  0
   -2.6258    4.4587    0.1210 C   0  0  0  0  0  0  0  0  0  0  0  0
    0.8933    4.3427   -0.8392 C   0  0  0  0  0  0  0  0  0  0  0  0
    1.0868    5.7013   -0.8190 O   0  0  0  0  0  0  0  0  0  0  0  0
    2.2953    6.2028   -1.3780 C   0  0  0  0  0  0  0  0  0  0  0  0
    1.8623    3.4158   -1.2284 C   0  0  0  0  0  0  0  0  0  0  0  0
    1.5704    2.0475   -1.1955 C   0  0  0  0  0  0  0  0  0  0  0  0
    2.5767    1.0461   -1.5768 C   0  0  0  0  0  0  0  0  0  0  0  0
    3.6934    1.4314   -1.9200 O   0  0  0  0  0  0  0  0  0  0  0  0
    2.2021   -0.2949   -1.4957 N   0  0  0  0  0  0  0  0  0  0  0  0
    3.2721   -1.2619   -1.7983 C   0  0  0  0  0  0  0  0  0  0  0  0
    4.2968   -1.4134   -0.6572 C   0  0  0  0  0  0  0  0  0  0  0  0
    3.7006   -1.9549    0.6206 C   0  0  0  0  0  0  0  0  0  0  0  0
    3.5572   -3.3320    0.8107 C   0  0  0  0  0  0  0  0  0  0  0  0
    2.9272   -3.8281    1.9552 C   0  0  0  0  0  0  0  0  0  0  0  0
    2.4285   -2.9535    2.9261 C   0  0  0  0  0  0  0  0  0  0  0  0
    1.7685   -3.3507    4.0627 O   0  0  0  0  0  0  0  0  0  0  0  0
    1.4905   -4.7368    4.2081 C   0  0  0  0  0  0  0  0  0  0  0  0
    2.5929   -1.5649    2.7581 C   0  0  0  0  0  0  0  0  0  0  0  0
    2.0785   -0.7713    3.7543 O   0  0  0  0  0  0  0  0  0  0  0  0
    2.2992    0.6288    3.6592 C   0  0  0  0  0  0  0  0  0  0  0  0
    3.2269   -1.0781    1.6090 C   0  0  0  0  0  0  0  0  0  0  0  0
   -2.0807   -1.4322   -1.6035 C   0  0  0  0  0  0  0  0  0  0  0  0
   -1.7854   -1.2810   -2.7906 O   0  0  0  0  0  0  0  0  0  0  0  0
   -3.2033   -0.8373   -1.0658 N   0  0  0  0  0  0  0  0  0  0  0  0
   -4.0036    0.1087   -1.8206 C   0  0  0  0  0  0  0  0  0  0  0  0
   -4.7737   -0.5252   -2.9848 C   0  0  0  0  0  0  0  0  0  0  0  0
   -5.9308    0.2493   -3.3187 O   0  0  0  0  0  0  0  0  0  0  0  0
   -7.0733   -0.1145   -2.5545 C   0  0  0  0  0  0  0  0  0  0  0  0
   -1.7304   -0.2970    1.2766 H   0  0  0  0  0  0  0  0  0  0  0  0
   -0.1839   -1.0519    1.7131 H   0  0  0  0  0  0  0  0  0  0  0  0
   -1.6178   -1.3520    2.6833 H   0  0  0  0  0  0  0  0  0  0  0  0
   -2.6829   -2.6411    0.9543 H   0  0  0  0  0  0  0  0  0  0  0  0
   -1.0937   -3.2929    1.2669 H   0  0  0  0  0  0  0  0  0  0  0  0
   -1.5930   -3.3693   -1.0477 H   0  0  0  0  0  0  0  0  0  0  0  0
   -1.5982    2.1229   -0.0670 H   0  0  0  0  0  0  0  0  0  0  0  0
   -2.7387    3.8142    0.9992 H   0  0  0  0  0  0  0  0  0  0  0  0
   -3.2192    5.3617    0.2918 H   0  0  0  0  0  0  0  0  0  0  0  0
   -3.0140    3.9714   -0.7796 H   0  0  0  0  0  0  0  0  0  0  0  0
    2.3853    5.9254   -2.4330 H   0  0  0  0  0  0  0  0  0  0  0  0
    2.2632    7.2967   -1.3238 H   0  0  0  0  0  0  0  0  0  0  0  0
    3.1639    5.8687   -0.8012 H   0  0  0  0  0  0  0  0  0  0  0  0
    2.8515    3.7260   -1.5492 H   0  0  0  0  0  0  0  0  0  0  0  0
    2.8691   -2.2391   -2.0724 H   0  0  0  0  0  0  0  0  0  0  0  0
    3.8031   -0.9019   -2.6890 H   0  0  0  0  0  0  0  0  0  0  0  0
    5.1005   -2.0854   -0.9862 H   0  0  0  0  0  0  0  0  0  0  0  0
    4.7867   -0.4539   -0.4480 H   0  0  0  0  0  0  0  0  0  0  0  0
    3.9155   -4.0319    0.0599 H   0  0  0  0  0  0  0  0  0  0  0  0
    2.8330   -4.9058    2.0518 H   0  0  0  0  0  0  0  0  0  0  0  0
    0.8900   -5.1105    3.3722 H   0  0  0  0  0  0  0  0  0  0  0  0
    2.4125   -5.3135    4.3219 H   0  0  0  0  0  0  0  0  0  0  0  0
    0.9037   -4.8683    5.1200 H   0  0  0  0  0  0  0  0  0  0  0  0
    1.8987    1.0976    4.5644 H   0  0  0  0  0  0  0  0  0  0  0  0
    1.7660    1.0533    2.8016 H   0  0  0  0  0  0  0  0  0  0  0  0
    3.3692    0.8610    3.6158 H   0  0  0  0  0  0  0  0  0  0  0  0
    3.3444   -0.0111    1.4485 H   0  0  0  0  0  0  0  0  0  0  0  0
   -3.3976   -0.9271   -0.0782 H   0  0  0  0  0  0  0  0  0  0  0  0
   -3.3436    0.8988   -2.1997 H   0  0  0  0  0  0  0  0  0  0  0  0
   -4.6868    0.5857   -1.1097 H   0  0  0  0  0  0  0  0  0  0  0  0
   -4.1344   -0.5445   -3.8755 H   0  0  0  0  0  0  0  0  0  0  0  0
   -5.0586   -1.5637   -2.7730 H   0  0  0  0  0  0  0  0  0  0  0  0
   -6.8909    0.0217   -1.4855 H   0  0  0  0  0  0  0  0  0  0  0  0
   -7.3545   -1.1523   -2.7544 H   0  0  0  0  0  0  0  0  0  0  0  0
   -7.9010    0.5359   -2.8489 H   0  0  0  0  0  0  0  0  0  0  0  0
  1  2  1  0
  2  3  1  0
  3  4  1  0
  4  5  1  0
  5  6  2  0
  6  7  1  0
  7  8  2  0
  8  9  1  0
  9 10  1  0
 10 11  1  0
  9 12  2  0
 12 13  1  0
 13 14  1  0
 12 15  1  0
 15 16  2  0
 16 17  1  0
 17 18  2  0
 17 19  1  0
 19 20  1  0
 20 21  1  0
 21 22  1  0
 22 23  2  0
 23 24  1  0
 24 25  2  0
 25 26  1  0
 26 27  1  0
 25 28  1  0
 28 29  1  0
 29 30  1  0
 28 31  2  0
  3 32  1  0
 32 33  2  0
 32 34  1  0
 34 35  1  0
 35 36  1  0
 36 37  1  0
 37 38  1  0
 19  5  1  0
 31 22  1  0
 16  7  1  0
  1 39  1  0
  1 40  1  0
  1 41  1  0
  2 42  1  0
  2 43  1  0
  3 44  1  0
  8 45  1  0
 11 46  1  0
 11 47  1  0
 11 48  1  0
 14 49  1  0
 14 50  1  0
 14 51  1  0
 15 52  1  0
 20 53  1  0
 20 54  1  0
 21 55  1  0
 21 56  1  0
 23 57  1  0
 24 58  1  0
 27 59  1  0
 27 60  1  0
 27 61  1  0
 30 62  1  0
 30 63  1  0
 30 64  1  0
 31 65  1  0
 34 66  1  0
 35 67  1  0
 35 68  1  0
 36 69  1  0
 36 70  1  0
 38 71  1  0
 38 72  1  0
 38 73  1  0
M  END
$$$$
