
     RDKit          3D

 46 48  0  0  0  0  0  0  0  0999 V2000
   -6.8056   -3.0834    1.2904 C   0  0  0  0  0  0  0  0  0  0  0  0
   -6.5629   -2.2522    0.1621 O   0  0  0  0  0  0  0  0  0  0  0  0
   -5.6037   -1.2854    0.2994 C   0  0  0  0  0  0  0  0  0  0  0  0
   -4.8424   -1.0467    1.4413 C   0  0  0  0  0  0  0  0  0  0  0  0
   -3.8924   -0.0222    1.4447 C   0  0  0  0  0  0  0  0  0  0  0  0
   -3.6914    0.7690    0.3053 C   0  0  0  0  0  0  0  0  0  0  0  0
   -2.6913    1.8462    0.3431 C   0  0  0  0  0  0  0  0  0  0  0  0
   -1.3619    1.6811    0.3579 C   0  0  0  0  0  0  0  0  0  0  0  0
   -0.4815    0.1851    0.3365 S   0  0  0  0  0  0  0  0  0  0  0  0
    1.0307    1.0345    0.3272 C   0  0  0  0  0  0  0  0  0  0  0  0
    2.2141    0.4121    0.2972 C   0  0  0  0  0  0  0  0  0  0  0  0
    3.4989    1.1620    0.2906 C   0  0  0  0  0  0  0  0  0  0  0  0
    3.5404    2.3747    0.4783 O   0  0  0  0  0  0  0  0  0  0  0  0
    4.7562    0.3956    0.0842 C   0  0  0  0  0  0  0  0  0  0  0  0
    5.9294    0.8866    0.6694 C   0  0  0  0  0  0  0  0  0  0  0  0
    7.1385    0.2072    0.5030 C   0  0  0  0  0  0  0  0  0  0  0  0
    7.1909   -0.9708   -0.2505 C   0  0  0  0  0  0  0  0  0  0  0  0
    8.4969   -1.6799   -0.4595 C   0  0  0  0  0  0  0  0  0  0  0  0
    6.0227   -1.4415   -0.8623 C   0  0  0  0  0  0  0  0  0  0  0  0
    4.8103   -0.7644   -0.6973 C   0  0  0  0  0  0  0  0  0  0  0  0
    0.8490    2.3838    0.3518 N   0  0  0  0  0  0  0  0  0  0  0  0
   -0.4388    2.8515    0.3751 C   0  0  0  0  0  0  0  0  0  0  0  0
   -0.7695    4.0250    0.4116 O   0  0  0  0  0  0  0  0  0  0  0  0
   -4.4634    0.5378   -0.8476 C   0  0  0  0  0  0  0  0  0  0  0  0
   -4.2157    1.3613   -1.9172 O   0  0  0  0  0  0  0  0  0  0  0  0
   -4.9835    1.1539   -3.0951 C   0  0  0  0  0  0  0  0  0  0  0  0
   -5.4112   -0.4918   -0.8382 C   0  0  0  0  0  0  0  0  0  0  0  0
   -5.9132   -3.6605    1.5546 H   0  0  0  0  0  0  0  0  0  0  0  0
   -7.1652   -2.4973    2.1425 H   0  0  0  0  0  0  0  0  0  0  0  0
   -7.5927   -3.7935    1.0191 H   0  0  0  0  0  0  0  0  0  0  0  0
   -4.9610   -1.6346    2.3451 H   0  0  0  0  0  0  0  0  0  0  0  0
   -3.3093    0.1556    2.3458 H   0  0  0  0  0  0  0  0  0  0  0  0
   -3.1102    2.8507    0.3170 H   0  0  0  0  0  0  0  0  0  0  0  0
    2.2601   -0.6700    0.2954 H   0  0  0  0  0  0  0  0  0  0  0  0
    5.9076    1.8027    1.2572 H   0  0  0  0  0  0  0  0  0  0  0  0
    8.0398    0.6072    0.9633 H   0  0  0  0  0  0  0  0  0  0  0  0
    9.1541   -1.5509    0.4069 H   0  0  0  0  0  0  0  0  0  0  0  0
    8.3401   -2.7558   -0.5905 H   0  0  0  0  0  0  0  0  0  0  0  0
    8.9995   -1.2844   -1.3475 H   0  0  0  0  0  0  0  0  0  0  0  0
    6.0527   -2.3369   -1.4806 H   0  0  0  0  0  0  0  0  0  0  0  0
    3.9325   -1.1459   -1.2109 H   0  0  0  0  0  0  0  0  0  0  0  0
    1.6401    3.0236    0.3723 H   0  0  0  0  0  0  0  0  0  0  0  0
   -6.0496    1.3167   -2.9057 H   0  0  0  0  0  0  0  0  0  0  0  0
   -4.8017    0.1591   -3.5149 H   0  0  0  0  0  0  0  0  0  0  0  0
   -4.6620    1.8910   -3.8372 H   0  0  0  0  0  0  0  0  0  0  0  0
   -6.0245   -0.7060   -1.7073 H   0  0  0  0  0  0  0  0  0  0  0  0
  1  2  1  0
  2  3  1  0
  3  4  2  0
  4  5  1  0
  5  6  2  0
  6  7  1  0
  7  8  2  3
  8  9  1  0
  9 10  1  0
 10 11  2  3
 11 12  1  0
 12 13  2  0
 12 14  1  0
 14 15  2  0
 15 16  1  0
 16 17  2  0
 17 18  1  0
 17 19  1  0
 19 20  2  0
 10 21  1  0
 21 22  1  0
 22 23  2  0
  6 24  1  0
 24 25  1  0
 25 26  1  0
 24 27  2  0
 27  3  1  0
 22  8  1  0
 20 14  1  0
  1 28  1  0
  1 29  1  0
  1 30  1  0
  4 31  1  0
  5 32  1  0
  7 33  1  0
 11 34  1  0
 15 35  1  0
 16 36  1  0
 18 37  1  0
 18 38  1  0
 18 39  1  0
 19 40  1  0
 20 41  1  0
 21 42  1  0
 26 43  1  0
 26 44  1  0
 26 45  1  0
 27 46  1  0
M  END
$$$$
