
     RDKit          3D

 36 37  0  0  0  0  0  0  0  0999 V2000
    7.6927    0.0714    0.4400 C   0  0  0  0  0  0  0  0  0  0  0  0
    6.3209   -0.5523    0.3655 C   0  0  0  0  0  0  0  0  0  0  0  0
    6.1853   -1.7700    0.3802 O   0  0  0  0  0  0  0  0  0  0  0  0
    5.3159    0.3976    0.3159 N   0  0  0  0  0  0  0  0  0  0  0  0
    3.9262    0.1724    0.2374 C   0  0  0  0  0  0  0  0  0  0  0  0
    3.0954    1.3014    0.2255 C   0  0  0  0  0  0  0  0  0  0  0  0
    1.7037    1.1687    0.1501 C   0  0  0  0  0  0  0  0  0  0  0  0
    1.1253   -0.1037    0.0908 C   0  0  0  0  0  0  0  0  0  0  0  0
   -0.3505   -0.2962    0.0035 C   0  0  0  0  0  0  0  0  0  0  0  0
   -0.7877   -1.2777   -0.5884 O   0  0  0  0  0  0  0  0  0  0  0  0
   -1.1052    0.6746    0.6562 N   0  0  0  0  0  0  0  0  0  0  0  0
   -2.4664    0.6358    0.8249 N   0  0  0  0  0  0  0  0  0  0  0  0
   -3.1841    0.1463   -0.1368 C   0  0  0  0  0  0  0  0  0  0  0  0
   -4.6522    0.0207   -0.0200 C   0  0  0  0  0  0  0  0  0  0  0  0
   -5.3676   -0.5222   -1.0940 C   0  0  0  0  0  0  0  0  0  0  0  0
   -6.7553   -0.6489   -1.0065 C   0  0  0  0  0  0  0  0  0  0  0  0
   -7.4119   -0.2345    0.1484 C   0  0  0  0  0  0  0  0  0  0  0  0
   -8.7432   -0.3570    0.2285 F   0  0  0  0  0  0  0  0  0  0  0  0
   -6.7085    0.3042    1.2210 C   0  0  0  0  0  0  0  0  0  0  0  0
   -5.3210    0.4330    1.1391 C   0  0  0  0  0  0  0  0  0  0  0  0
    1.9512   -1.2317    0.0828 C   0  0  0  0  0  0  0  0  0  0  0  0
    3.3426   -1.0934    0.1615 C   0  0  0  0  0  0  0  0  0  0  0  0
    8.4346   -0.6374    0.0608 H   0  0  0  0  0  0  0  0  0  0  0  0
    7.7455    0.9762   -0.1724 H   0  0  0  0  0  0  0  0  0  0  0  0
    7.9226    0.3169    1.4800 H   0  0  0  0  0  0  0  0  0  0  0  0
    5.6078    1.3660    0.3516 H   0  0  0  0  0  0  0  0  0  0  0  0
    3.5186    2.3022    0.2665 H   0  0  0  0  0  0  0  0  0  0  0  0
    1.0930    2.0670    0.1104 H   0  0  0  0  0  0  0  0  0  0  0  0
   -0.6384    1.2249    1.3704 H   0  0  0  0  0  0  0  0  0  0  0  0
   -2.7528   -0.1740   -1.1006 H   0  0  0  0  0  0  0  0  0  0  0  0
   -4.8556   -0.8516   -1.9949 H   0  0  0  0  0  0  0  0  0  0  0  0
   -7.3276   -1.0691   -1.8276 H   0  0  0  0  0  0  0  0  0  0  0  0
   -7.2427    0.6179    2.1121 H   0  0  0  0  0  0  0  0  0  0  0  0
   -4.7680    0.8510    1.9769 H   0  0  0  0  0  0  0  0  0  0  0  0
    1.5176   -2.2284    0.0178 H   0  0  0  0  0  0  0  0  0  0  0  0
    3.9399   -2.0004    0.1549 H   0  0  0  0  0  0  0  0  0  0  0  0
  1  2  1  0
  2  3  2  0
  2  4  1  0
  4  5  1  0
  5  6  2  0
  6  7  1  0
  7  8  2  0
  8  9  1  0
  9 10  2  0
  9 11  1  0
 11 12  1  0
 12 13  2  3
 13 14  1  0
 14 15  2  0
 15 16  1  0
 16 17  2  0
 17 18  1  0
 17 19  1  0
 19 20  2  0
  8 21  1  0
 21 22  2  0
 22  5  1  0
 20 14  1  0
  1 23  1  0
  1 24  1  0
  1 25  1  0
  4 26  1  0
  6 27  1  0
  7 28  1  0
 11 29  1  0
 13 30  1  0
 15 31  1  0
 16 32  1  0
 19 33  1  0
 20 34  1  0
 21 35  1  0
 22 36  1  0
M  END
$$$$
