
     RDKit          3D

 41 44  0  0  0  0  0  0  0  0999 V2000
   -3.6907   -0.4301    0.4337 O   0  0  0  0  0  0  0  0  0  0  0  0
   -3.2502    0.7350   -0.3021 S   0  0  0  0  0  6  0  0  0  0  0  0
   -4.1627    1.8193   -0.6025 O   0  0  0  0  0  0  0  0  0  0  0  0
   -1.9445    1.4424    0.4969 N   0  0  0  0  0  0  0  0  0  0  0  0
   -0.7361    0.6993    0.6775 C   0  0  0  0  0  0  0  0  0  0  0  0
   -0.7581   -0.3739    1.5711 C   0  0  0  0  0  0  0  0  0  0  0  0
    0.3770   -1.1595    1.7622 C   0  0  0  0  0  0  0  0  0  0  0  0
    0.2801   -2.5408    2.8915 S   0  0  0  0  0  0  0  0  0  0  0  0
    1.1241   -1.9273    4.2921 C   0  0  0  0  0  0  0  0  0  0  0  0
    1.7419   -2.7596    5.1917 N   0  0  0  0  0  0  0  0  0  0  0  0
    2.2170   -1.9302    6.0893 C   0  0  0  0  0  0  0  0  0  0  0  0
    1.8832   -0.6590    5.7507 N   0  0  0  0  0  0  0  0  0  0  0  0
    1.1686   -0.6282    4.6171 N   0  0  0  0  0  0  0  0  0  0  0  0
    1.5353   -0.8671    1.0278 C   0  0  0  0  0  0  0  0  0  0  0  0
    2.6226   -1.6956    1.1872 O   0  0  0  0  0  0  0  0  0  0  0  0
    1.5981    0.2305    0.1339 C   0  0  0  0  0  0  0  0  0  0  0  0
    2.7774    0.5760   -0.5684 C   0  0  0  0  0  0  0  0  0  0  0  0
    2.8134    1.6459   -1.4621 C   0  0  0  0  0  0  0  0  0  0  0  0
    1.6728    2.4031   -1.6719 C   0  0  0  0  0  0  0  0  0  0  0  0
    0.5030    2.0990   -0.9754 C   0  0  0  0  0  0  0  0  0  0  0  0
    0.4364    1.0226   -0.0564 C   0  0  0  0  0  0  0  0  0  0  0  0
   -2.5490    0.1828   -1.8401 C   0  0  0  0  0  0  0  0  0  0  0  0
   -2.0636   -1.1242   -1.9496 C   0  0  0  0  0  0  0  0  0  0  0  0
   -1.5200   -1.5548   -3.1593 C   0  0  0  0  0  0  0  0  0  0  0  0
   -1.4775   -0.6890   -4.2535 C   0  0  0  0  0  0  0  0  0  0  0  0
   -1.9849    0.6073   -4.1464 C   0  0  0  0  0  0  0  0  0  0  0  0
   -2.5291    1.0467   -2.9397 C   0  0  0  0  0  0  0  0  0  0  0  0
   -1.8842    2.4473    0.3541 H   0  0  0  0  0  0  0  0  0  0  0  0
   -1.6659   -0.5921    2.1306 H   0  0  0  0  0  0  0  0  0  0  0  0
    2.7854   -2.1846    6.9720 H   0  0  0  0  0  0  0  0  0  0  0  0
    2.0929    0.2088    6.2302 H   0  0  0  0  0  0  0  0  0  0  0  0
    3.0162   -1.8413    0.3119 H   0  0  0  0  0  0  0  0  0  0  0  0
    3.7011    0.0238   -0.4105 H   0  0  0  0  0  0  0  0  0  0  0  0
    3.7341    1.8870   -1.9873 H   0  0  0  0  0  0  0  0  0  0  0  0
    1.6911    3.2366   -2.3696 H   0  0  0  0  0  0  0  0  0  0  0  0
   -0.3653    2.7231   -1.1684 H   0  0  0  0  0  0  0  0  0  0  0  0
   -2.1025   -1.8062   -1.1026 H   0  0  0  0  0  0  0  0  0  0  0  0
   -1.1346   -2.5674   -3.2514 H   0  0  0  0  0  0  0  0  0  0  0  0
   -1.0565   -1.0298   -5.1966 H   0  0  0  0  0  0  0  0  0  0  0  0
   -1.9617    1.2713   -5.0071 H   0  0  0  0  0  0  0  0  0  0  0  0
   -2.9348    2.0528   -2.8666 H   0  0  0  0  0  0  0  0  0  0  0  0
  1  2  2  0
  2  3  2  0
  2  4  1  0
  4  5  1  0
  5  6  2  0
  6  7  1  0
  7  8  1  0
  8  9  1  0
  9 10  1  0
 10 11  2  0
 11 12  1  0
 12 13  1  0
  7 14  2  0
 14 15  1  0
 14 16  1  0
 16 17  2  0
 17 18  1  0
 18 19  2  0
 19 20  1  0
 20 21  2  0
  2 22  1  0
 22 23  2  0
 23 24  1  0
 24 25  2  0
 25 26  1  0
 26 27  2  0
 21  5  1  0
 27 22  1  0
 13  9  2  0
 21 16  1  0
  4 28  1  0
  6 29  1  0
 11 30  1  0
 12 31  1  0
 15 32  1  0
 17 33  1  0
 18 34  1  0
 19 35  1  0
 20 36  1  0
 23 37  1  0
 24 38  1  0
 25 39  1  0
 26 40  1  0
 27 41  1  0
M  END
$$$$
