
     RDKit          3D

 55 58  0  0  0  0  0  0  0  0999 V2000
    4.6779   -2.2139    1.1022 C   0  0  0  0  0  0  0  0  0  0  0  0
    3.7238   -1.3227    1.7106 N   0  0  0  0  0  0  0  0  0  0  0  0
    3.6935    0.0525    1.6101 C   0  0  0  0  0  0  0  0  0  0  0  0
    4.6758    0.8919    0.8525 C   0  0  0  0  0  0  0  0  0  0  0  0
    4.7297    0.5957   -0.6314 C   0  0  0  0  0  0  0  0  0  0  0  0
    3.5714    0.6737   -1.4200 C   0  0  0  0  0  0  0  0  0  0  0  0
    3.6217    0.3898   -2.7849 C   0  0  0  0  0  0  0  0  0  0  0  0
    4.8315    0.0332   -3.3775 C   0  0  0  0  0  0  0  0  0  0  0  0
    5.9929   -0.0295   -2.6103 C   0  0  0  0  0  0  0  0  0  0  0  0
    5.9448    0.2554   -1.2449 C   0  0  0  0  0  0  0  0  0  0  0  0
    2.6607    0.5071    2.2940 N   0  0  0  0  0  0  0  0  0  0  0  0
    2.0131   -0.5630    2.8511 N   0  0  0  0  0  0  0  0  0  0  0  0
    2.6398   -1.6525    2.4683 C   0  0  0  0  0  0  0  0  0  0  0  0
    2.1609   -3.2702    2.8304 S   0  0  0  0  0  0  0  0  0  0  0  0
    0.5652   -2.9933    3.6423 C   0  0  0  0  0  0  0  0  0  0  0  0
   -0.5254   -2.7244    2.6209 C   0  0  0  0  0  0  0  0  0  0  0  0
   -1.2122   -3.6452    2.1844 O   0  0  0  0  0  0  0  0  0  0  0  0
   -0.6290   -1.3858    2.2738 N   0  0  0  0  0  0  0  0  0  0  0  0
   -1.5984   -0.7856    1.4480 C   0  0  0  0  0  0  0  0  0  0  0  0
   -2.7113   -1.4468    0.9441 C   0  0  0  0  0  0  0  0  0  0  0  0
   -3.6508   -0.7617    0.1565 C   0  0  0  0  0  0  0  0  0  0  0  0
   -3.5194    0.5988   -0.1536 C   0  0  0  0  0  0  0  0  0  0  0  0
   -4.4491    1.2732   -0.9224 N   0  0  0  0  0  0  0  0  0  0  0  0
   -4.6346    2.7276   -0.8130 C   0  0  0  0  0  0  0  0  0  0  0  0
   -6.1010    3.1022   -1.0827 C   0  0  0  0  0  0  0  0  0  0  0  0
   -6.5835    2.6948   -2.3697 O   0  0  0  0  0  0  0  0  0  0  0  0
   -5.9525    1.5047   -2.8618 C   0  0  0  0  0  0  0  0  0  0  0  0
   -5.4312    0.5689   -1.7572 C   0  0  0  0  0  0  0  0  0  0  0  0
   -2.3817    1.2399    0.3558 C   0  0  0  0  0  0  0  0  0  0  0  0
   -1.4370    0.5661    1.1446 C   0  0  0  0  0  0  0  0  0  0  0  0
    4.7820   -3.1214    1.6995 H   0  0  0  0  0  0  0  0  0  0  0  0
    5.6524   -1.7253    1.0595 H   0  0  0  0  0  0  0  0  0  0  0  0
    4.3255   -2.4618    0.0968 H   0  0  0  0  0  0  0  0  0  0  0  0
    4.4244    1.9533    0.9773 H   0  0  0  0  0  0  0  0  0  0  0  0
    5.6656    0.7632    1.3080 H   0  0  0  0  0  0  0  0  0  0  0  0
    2.6163    0.9531   -0.9746 H   0  0  0  0  0  0  0  0  0  0  0  0
    2.7145    0.4474   -3.3836 H   0  0  0  0  0  0  0  0  0  0  0  0
    4.8674   -0.1910   -4.4400 H   0  0  0  0  0  0  0  0  0  0  0  0
    6.9390   -0.3000   -3.0750 H   0  0  0  0  0  0  0  0  0  0  0  0
    6.8638    0.2073   -0.6656 H   0  0  0  0  0  0  0  0  0  0  0  0
    0.2955   -3.9000    4.1897 H   0  0  0  0  0  0  0  0  0  0  0  0
    0.6198   -2.1862    4.3771 H   0  0  0  0  0  0  0  0  0  0  0  0
    0.1272   -0.7737    2.5845 H   0  0  0  0  0  0  0  0  0  0  0  0
   -2.8948   -2.4943    1.1539 H   0  0  0  0  0  0  0  0  0  0  0  0
   -4.5122   -1.3256   -0.1863 H   0  0  0  0  0  0  0  0  0  0  0  0
   -4.3775    3.0871    0.1859 H   0  0  0  0  0  0  0  0  0  0  0  0
   -3.9862    3.2222   -1.5411 H   0  0  0  0  0  0  0  0  0  0  0  0
   -6.7499    2.6459   -0.3264 H   0  0  0  0  0  0  0  0  0  0  0  0
   -6.2305    4.1872   -1.0128 H   0  0  0  0  0  0  0  0  0  0  0  0
   -6.6898    0.9802   -3.4827 H   0  0  0  0  0  0  0  0  0  0  0  0
   -5.1313    1.8154   -3.5254 H   0  0  0  0  0  0  0  0  0  0  0  0
   -4.9779   -0.3022   -2.2375 H   0  0  0  0  0  0  0  0  0  0  0  0
   -6.2666    0.2373   -1.1351 H   0  0  0  0  0  0  0  0  0  0  0  0
   -2.1926    2.2849    0.1294 H   0  0  0  0  0  0  0  0  0  0  0  0
   -0.5700    1.1160    1.5062 H   0  0  0  0  0  0  0  0  0  0  0  0
  1  2  1  0
  2  3  1  0
  3  4  1  0
  4  5  1  0
  5  6  2  0
  6  7  1  0
  7  8  2  0
  8  9  1  0
  9 10  2  0
  3 11  2  0
 11 12  1  0
 12 13  2  0
 13 14  1  0
 14 15  1  0
 15 16  1  0
 16 17  2  0
 16 18  1  0
 18 19  1  0
 19 20  2  0
 20 21  1  0
 21 22  2  0
 22 23  1  0
 23 24  1  0
 24 25  1  0
 25 26  1  0
 26 27  1  0
 27 28  1  0
 22 29  1  0
 29 30  2  0
 13  2  1  0
 30 19  1  0
 10  5  1  0
 28 23  1  0
  1 31  1  0
  1 32  1  0
  1 33  1  0
  4 34  1  0
  4 35  1  0
  6 36  1  0
  7 37  1  0
  8 38  1  0
  9 39  1  0
 10 40  1  0
 15 41  1  0
 15 42  1  0
 18 43  1  0
 20 44  1  0
 21 45  1  0
 24 46  1  0
 24 47  1  0
 25 48  1  0
 25 49  1  0
 27 50  1  0
 27 51  1  0
 28 52  1  0
 28 53  1  0
 29 54  1  0
 30 55  1  0
M  END
$$$$
