
     RDKit          3D

 50 54  0  0  0  0  0  0  0  0999 V2000
   -4.9516    0.6397   -0.9565 C   0  0  0  0  0  0  0  0  0  0  0  0
   -4.5531   -0.5861   -0.1960 C   0  0  0  0  0  0  0  0  0  0  0  0
   -5.4163   -1.3347    0.5081 C   0  0  0  0  0  0  0  0  0  0  0  0
   -4.9751   -2.4987    1.2256 C   0  0  0  0  0  0  0  0  0  0  0  0
   -3.6842   -2.8463    1.2017 C   0  0  0  0  0  0  0  0  0  0  0  0
   -2.7413   -2.1113    0.4934 N   0  0  0  0  0  0  0  0  0  0  0  0
   -1.4186   -2.5177    0.5076 C   0  0  0  0  0  0  0  0  0  0  0  0
   -0.9999   -3.5012    1.1225 O   0  0  0  0  0  0  0  0  0  0  0  0
   -0.4655   -1.6837   -0.2761 C   0  0  0  0  0  0  0  0  0  0  0  0
    0.9487   -2.0251   -0.2851 C   0  0  0  0  0  0  0  0  0  0  0  0
    1.8544   -1.3029   -0.9653 C   0  0  0  0  0  0  0  0  0  0  0  0
    3.5282   -1.6855   -0.8195 S   0  0  0  0  0  6  0  0  0  0  0  0
    4.2910   -1.0181   -1.8611 O   0  0  0  0  0  0  0  0  0  0  0  0
    3.7043   -3.1094   -0.5947 O   0  0  0  0  0  0  0  0  0  0  0  0
    3.9555   -0.8605    0.7085 C   0  0  0  0  0  0  0  0  0  0  0  0
    4.0788   -1.6020    1.8900 C   0  0  0  0  0  0  0  0  0  0  0  0
    4.4219   -0.9481    3.0739 C   0  0  0  0  0  0  0  0  0  0  0  0
    4.6457    0.4256    3.0623 C   0  0  0  0  0  0  0  0  0  0  0  0
    4.9773    1.0474    4.2012 F   0  0  0  0  0  0  0  0  0  0  0  0
    4.5372    1.1633    1.8867 C   0  0  0  0  0  0  0  0  0  0  0  0
    4.1947    0.5197    0.6974 C   0  0  0  0  0  0  0  0  0  0  0  0
    1.3501   -0.1249   -1.7388 C   0  0  0  0  0  0  0  0  0  0  0  0
    2.1425    0.6053   -2.4694 N   0  0  0  0  0  0  0  0  0  0  0  0
   -0.0149    0.1902   -1.6713 N   0  0  0  0  0  0  0  0  0  0  0  0
   -0.4883    1.4355   -2.3098 C   0  0  0  0  0  0  0  0  0  0  0  0
   -0.3946    2.6509   -1.4438 C   0  0  0  0  0  0  0  0  0  0  0  0
    0.6677    3.4121   -0.9991 C   0  0  0  0  0  0  0  0  0  0  0  0
    0.1171    4.4396   -0.1977 C   0  0  0  0  0  0  0  0  0  0  0  0
   -1.2438    4.2452   -0.2080 C   0  0  0  0  0  0  0  0  0  0  0  0
   -1.5654    3.1638   -0.9632 O   0  0  0  0  0  0  0  0  0  0  0  0
   -0.9323   -0.6017   -0.9390 C   0  0  0  0  0  0  0  0  0  0  0  0
   -2.2644   -0.2714   -0.9086 N   0  0  0  0  0  0  0  0  0  0  0  0
   -3.1022   -0.9840   -0.2260 C   0  0  0  0  0  0  0  0  0  0  0  0
   -4.4046    1.5166   -0.5930 H   0  0  0  0  0  0  0  0  0  0  0  0
   -4.7419    0.5142   -2.0243 H   0  0  0  0  0  0  0  0  0  0  0  0
   -6.0212    0.8519   -0.8522 H   0  0  0  0  0  0  0  0  0  0  0  0
   -6.4713   -1.0819    0.5585 H   0  0  0  0  0  0  0  0  0  0  0  0
   -5.7043   -3.0804    1.7799 H   0  0  0  0  0  0  0  0  0  0  0  0
   -3.3296   -3.7226    1.7390 H   0  0  0  0  0  0  0  0  0  0  0  0
    1.2491   -2.8852    0.3111 H   0  0  0  0  0  0  0  0  0  0  0  0
    3.9163   -2.6779    1.8991 H   0  0  0  0  0  0  0  0  0  0  0  0
    4.5232   -1.4997    4.0040 H   0  0  0  0  0  0  0  0  0  0  0  0
    4.7270    2.2323    1.9051 H   0  0  0  0  0  0  0  0  0  0  0  0
    4.1224    1.0970   -0.2222 H   0  0  0  0  0  0  0  0  0  0  0  0
    3.1117    0.2453   -2.4999 H   0  0  0  0  0  0  0  0  0  0  0  0
    0.0673    1.6248   -3.2377 H   0  0  0  0  0  0  0  0  0  0  0  0
   -1.5241    1.3175   -2.6542 H   0  0  0  0  0  0  0  0  0  0  0  0
    1.7091    3.2362   -1.2321 H   0  0  0  0  0  0  0  0  0  0  0  0
    0.6451    5.2259    0.3221 H   0  0  0  0  0  0  0  0  0  0  0  0
   -2.0779    4.7611    0.2469 H   0  0  0  0  0  0  0  0  0  0  0  0
  1  2  1  0
  2  3  2  0
  3  4  1  0
  4  5  2  0
  5  6  1  0
  6  7  1  0
  7  8  2  0
  7  9  1  0
  9 10  1  0
 10 11  2  0
 11 12  1  0
 12 13  2  0
 12 14  2  0
 12 15  1  0
 15 16  2  0
 16 17  1  0
 17 18  2  0
 18 19  1  0
 18 20  1  0
 20 21  2  0
 11 22  1  0
 22 23  2  3
 22 24  1  0
 24 25  1  0
 25 26  1  0
 26 27  2  0
 27 28  1  0
 28 29  2  0
 29 30  1  0
 24 31  1  0
 31 32  1  0
 32 33  2  0
 33  2  1  0
 33  6  1  0
 31  9  2  0
 21 15  1  0
 30 26  1  0
  1 34  1  0
  1 35  1  0
  1 36  1  0
  3 37  1  0
  4 38  1  0
  5 39  1  0
 10 40  1  0
 16 41  1  0
 17 42  1  0
 20 43  1  0
 21 44  1  0
 23 45  1  0
 25 46  1  0
 25 47  1  0
 27 48  1  0
 28 49  1  0
 29 50  1  0
M  END
$$$$
