
     RDKit          3D

 41 43  0  0  0  0  0  0  0  0999 V2000
    2.4745   -0.1994   -2.4159 O   0  0  0  0  0  0  0  0  0  0  0  0
    1.8153   -0.5058   -1.4250 C   0  0  0  0  0  0  0  0  0  0  0  0
    2.4571   -0.5725   -0.0481 C   0  0  0  0  0  0  0  0  0  0  0  0
    2.0260    0.9397    0.8814 S   0  0  0  0  0  0  0  0  0  0  0  0
    3.3357    0.9532    2.1126 C   0  0  0  0  0  0  0  0  0  0  0  0
    3.9520    2.1881    2.3849 C   0  0  0  0  0  0  0  0  0  0  0  0
    4.9676    2.2819    3.3336 C   0  0  0  0  0  0  0  0  0  0  0  0
    5.3702    1.1508    4.0286 C   0  0  0  0  0  0  0  0  0  0  0  0
    4.7486   -0.0664    3.7654 C   0  0  0  0  0  0  0  0  0  0  0  0
    3.7338   -0.1881    2.8227 N   0  0  0  0  0  4  0  0  0  0  0  0
    3.2020   -1.3338    2.6436 O   0  0  0  0  0  1  0  0  0  0  0  0
    0.4667   -0.8115   -1.4016 N   0  0  0  0  0  0  0  0  0  0  0  0
   -0.4318   -0.8823   -2.4879 C   0  0  0  0  0  0  0  0  0  0  0  0
   -0.0555   -0.7188   -3.8217 C   0  0  0  0  0  0  0  0  0  0  0  0
   -1.0076   -0.8163   -4.8434 C   0  0  0  0  0  0  0  0  0  0  0  0
   -2.3424   -1.0849   -4.5435 C   0  0  0  0  0  0  0  0  0  0  0  0
   -2.7332   -1.2541   -3.2180 C   0  0  0  0  0  0  0  0  0  0  0  0
   -1.7840   -1.1348   -2.1967 C   0  0  0  0  0  0  0  0  0  0  0  0
   -2.1396   -1.3348   -0.8773 O   0  0  0  0  0  0  0  0  0  0  0  0
   -3.1362   -0.5335   -0.3656 C   0  0  0  0  0  0  0  0  0  0  0  0
   -4.0192   -1.1363    0.5315 C   0  0  0  0  0  0  0  0  0  0  0  0
   -5.0394   -0.3856    1.1174 C   0  0  0  0  0  0  0  0  0  0  0  0
   -5.1672    0.9707    0.8173 C   0  0  0  0  0  0  0  0  0  0  0  0
   -4.2705    1.5796   -0.0614 C   0  0  0  0  0  0  0  0  0  0  0  0
   -3.2488    0.8305   -0.6486 C   0  0  0  0  0  0  0  0  0  0  0  0
    3.5409   -0.6565   -0.1770 H   0  0  0  0  0  0  0  0  0  0  0  0
    2.0916   -1.4660    0.4664 H   0  0  0  0  0  0  0  0  0  0  0  0
    3.6458    3.0832    1.8457 H   0  0  0  0  0  0  0  0  0  0  0  0
    5.4450    3.2410    3.5273 H   0  0  0  0  0  0  0  0  0  0  0  0
    6.1615    1.2107    4.7711 H   0  0  0  0  0  0  0  0  0  0  0  0
    4.9910   -0.9991    4.2521 H   0  0  0  0  0  0  0  0  0  0  0  0
    0.0400   -0.9540   -0.4896 H   0  0  0  0  0  0  0  0  0  0  0  0
    0.9737   -0.5241   -4.1034 H   0  0  0  0  0  0  0  0  0  0  0  0
   -0.6984   -0.6891   -5.8781 H   0  0  0  0  0  0  0  0  0  0  0  0
   -3.0740   -1.1698   -5.3429 H   0  0  0  0  0  0  0  0  0  0  0  0
   -3.7695   -1.4804   -2.9839 H   0  0  0  0  0  0  0  0  0  0  0  0
   -3.9166   -2.1910    0.7707 H   0  0  0  0  0  0  0  0  0  0  0  0
   -5.7318   -0.8567    1.8108 H   0  0  0  0  0  0  0  0  0  0  0  0
   -5.9624    1.5553    1.2744 H   0  0  0  0  0  0  0  0  0  0  0  0
   -4.3638    2.6393   -0.2856 H   0  0  0  0  0  0  0  0  0  0  0  0
   -2.5469    1.3216   -1.3167 H   0  0  0  0  0  0  0  0  0  0  0  0
  1  2  2  0
  2  3  1  0
  3  4  1  0
  4  5  1  0
  5  6  2  0
  6  7  1  0
  7  8  2  0
  8  9  1  0
  9 10  2  0
 10 11  1  0
  2 12  1  0
 12 13  1  0
 13 14  2  0
 14 15  1  0
 15 16  2  0
 16 17  1  0
 17 18  2  0
 18 19  1  0
 19 20  1  0
 20 21  2  0
 21 22  1  0
 22 23  2  0
 23 24  1  0
 24 25  2  0
 10  5  1  0
 18 13  1  0
 25 20  1  0
  3 26  1  0
  3 27  1  0
  6 28  1  0
  7 29  1  0
  8 30  1  0
  9 31  1  0
 12 32  1  0
 14 33  1  0
 15 34  1  0
 16 35  1  0
 17 36  1  0
 21 37  1  0
 22 38  1  0
 23 39  1  0
 24 40  1  0
 25 41  1  0
M  CHG  2  10   1  11  -1
M  END
$$$$
