
     RDKit          3D

 49 51  0  0  0  0  0  0  0  0999 V2000
    2.3320   -2.0484   -2.8224 O   0  0  0  0  0  0  0  0  0  0  0  0
    2.4956   -0.8831   -2.4897 C   0  0  0  0  0  0  0  0  0  0  0  0
    3.6932   -0.2110   -2.4266 N   0  0  0  0  0  0  0  0  0  0  0  0
    4.9579   -0.8776   -2.5958 C   0  0  0  0  0  0  0  0  0  0  0  0
    5.5059   -1.3469   -1.2724 C   0  0  0  0  0  0  0  0  0  0  0  0
    5.1013   -2.5798   -0.7406 C   0  0  0  0  0  0  0  0  0  0  0  0
    5.5855   -3.0165    0.4938 C   0  0  0  0  0  0  0  0  0  0  0  0
    6.4764   -2.2217    1.2132 C   0  0  0  0  0  0  0  0  0  0  0  0
    6.8790   -0.9901    0.6996 C   0  0  0  0  0  0  0  0  0  0  0  0
    6.3936   -0.5502   -0.5349 C   0  0  0  0  0  0  0  0  0  0  0  0
    1.2829   -0.0264   -2.0584 C   0  0  0  0  0  0  0  0  0  0  0  0
    1.4232    1.1566   -1.7867 O   0  0  0  0  0  0  0  0  0  0  0  0
    0.1074   -0.7320   -2.0002 N   0  0  0  0  0  0  0  0  0  0  0  0
   -1.1307   -0.1486   -1.5122 C   0  0  0  0  0  0  0  0  0  0  0  0
   -1.0816    0.2861   -0.0204 C   0  0  0  0  0  0  0  0  0  0  0  0
   -0.5774   -0.8126    0.7739 O   0  0  0  0  0  0  0  0  0  0  0  0
   -1.7266   -1.5469    1.1984 C   0  0  0  0  0  0  0  0  0  0  0  0
   -2.7500   -0.4767    1.4965 C   0  0  0  0  0  0  0  0  0  0  0  0
   -2.3853    0.6289    0.5951 N   0  0  0  0  0  0  0  0  0  0  0  0
   -3.5735    1.3113   -0.3653 S   0  0  0  0  0  6  0  0  0  0  0  0
   -4.2468    0.2283   -1.0514 O   0  0  0  0  0  0  0  0  0  0  0  0
   -2.9933    2.4147   -1.0963 O   0  0  0  0  0  0  0  0  0  0  0  0
   -4.6908    1.9956    0.8349 C   0  0  0  0  0  0  0  0  0  0  0  0
   -5.9238    1.3829    1.0784 C   0  0  0  0  0  0  0  0  0  0  0  0
   -6.7995    1.9493    2.0076 C   0  0  0  0  0  0  0  0  0  0  0  0
   -6.4391    3.1183    2.6778 C   0  0  0  0  0  0  0  0  0  0  0  0
   -7.6288    3.8809    3.9372 Br  0  0  0  0  0  0  0  0  0  0  0  0
   -5.2098    3.7293    2.4315 C   0  0  0  0  0  0  0  0  0  0  0  0
   -4.3309    3.1715    1.5021 C   0  0  0  0  0  0  0  0  0  0  0  0
    3.6687    0.7168   -2.0097 H   0  0  0  0  0  0  0  0  0  0  0  0
    5.6461   -0.1671   -3.0675 H   0  0  0  0  0  0  0  0  0  0  0  0
    4.8462   -1.7257   -3.2796 H   0  0  0  0  0  0  0  0  0  0  0  0
    4.3975   -3.2070   -1.2877 H   0  0  0  0  0  0  0  0  0  0  0  0
    5.2644   -3.9745    0.8934 H   0  0  0  0  0  0  0  0  0  0  0  0
    6.8532   -2.5633    2.1745 H   0  0  0  0  0  0  0  0  0  0  0  0
    7.5716   -0.3687    1.2635 H   0  0  0  0  0  0  0  0  0  0  0  0
    6.7127    0.4168   -0.9161 H   0  0  0  0  0  0  0  0  0  0  0  0
    0.1718   -1.7329   -2.1706 H   0  0  0  0  0  0  0  0  0  0  0  0
   -1.3626    0.7047   -2.1566 H   0  0  0  0  0  0  0  0  0  0  0  0
   -1.8968   -0.9153   -1.6676 H   0  0  0  0  0  0  0  0  0  0  0  0
   -0.3910    1.1225    0.1123 H   0  0  0  0  0  0  0  0  0  0  0  0
   -1.4895   -2.1628    2.0711 H   0  0  0  0  0  0  0  0  0  0  0  0
   -2.0494   -2.2039    0.3840 H   0  0  0  0  0  0  0  0  0  0  0  0
   -3.7659   -0.8533    1.3651 H   0  0  0  0  0  0  0  0  0  0  0  0
   -2.6450   -0.1175    2.5263 H   0  0  0  0  0  0  0  0  0  0  0  0
   -6.2093    0.4715    0.5545 H   0  0  0  0  0  0  0  0  0  0  0  0
   -7.7601    1.4763    2.1979 H   0  0  0  0  0  0  0  0  0  0  0  0
   -4.9319    4.6441    2.9484 H   0  0  0  0  0  0  0  0  0  0  0  0
   -3.3769    3.6539    1.2962 H   0  0  0  0  0  0  0  0  0  0  0  0
  1  2  2  0
  2  3  1  0
  3  4  1  0
  4  5  1  0
  5  6  2  0
  6  7  1  0
  7  8  2  0
  8  9  1  0
  9 10  2  0
  2 11  1  0
 11 12  2  0
 11 13  1  0
 13 14  1  0
 14 15  1  0
 15 16  1  0
 16 17  1  0
 17 18  1  0
 18 19  1  0
 19 20  1  0
 20 21  2  0
 20 22  2  0
 20 23  1  0
 23 24  2  0
 24 25  1  0
 25 26  2  0
 26 27  1  0
 26 28  1  0
 28 29  2  0
 10  5  1  0
 19 15  1  0
 29 23  1  0
  3 30  1  0
  4 31  1  0
  4 32  1  0
  6 33  1  0
  7 34  1  0
  8 35  1  0
  9 36  1  0
 10 37  1  0
 13 38  1  0
 14 39  1  0
 14 40  1  0
 15 41  1  0
 17 42  1  0
 17 43  1  0
 18 44  1  0
 18 45  1  0
 24 46  1  0
 25 47  1  0
 28 48  1  0
 29 49  1  0
M  END
$$$$
