
     RDKit          3D

 69 74  0  0  0  0  0  0  0  0999 V2000
    3.1938   -1.9689   -2.3793 O   0  0  0  0  0  0  0  0  0  0  0  0
    2.2923   -1.4518   -1.3860 C   0  0  0  0  0  0  0  0  0  0  0  0
    2.7249   -1.9630   -0.0033 C   0  0  0  0  0  0  0  0  0  0  0  0
    4.0566   -1.5230    0.3016 O   0  0  0  0  0  0  0  0  0  0  0  0
    4.2817   -0.2470    0.7321 C   0  0  0  0  0  0  0  0  0  0  0  0
    3.2564    0.6075    1.1615 C   0  0  0  0  0  0  0  0  0  0  0  0
    3.5317    1.9090    1.5848 C   0  0  0  0  0  0  0  0  0  0  0  0
    4.8406    2.3775    1.5879 C   0  0  0  0  0  0  0  0  0  0  0  0
    5.8898    1.5539    1.1781 C   0  0  0  0  0  0  0  0  0  0  0  0
    7.1876    2.1139    1.2114 N   0  0  0  0  0  0  0  0  0  0  0  0
    8.1865    1.3818    0.8333 C   0  0  0  0  0  0  0  0  0  0  0  0
    8.0053    0.0342    0.3923 C   0  0  0  0  0  0  0  0  0  0  0  0
    8.9229   -0.8960   -0.0476 C   0  0  0  0  0  0  0  0  0  0  0  0
    8.2046   -2.0722   -0.3490 C   0  0  0  0  0  0  0  0  0  0  0  0
    6.8739   -1.8213   -0.0829 C   0  0  0  0  0  0  0  0  0  0  0  0
    6.7439   -0.5244    0.3629 N   0  0  0  0  0  0  0  0  0  0  0  0
    5.6068    0.2318    0.7552 C   0  0  0  0  0  0  0  0  0  0  0  0
    0.8618   -1.9001   -1.7425 C   0  0  0  0  0  0  0  0  0  0  0  0
   -0.1777   -1.4108   -0.8171 N   0  0  0  0  0  0  0  0  0  0  0  0
   -0.4201    0.0373   -0.9847 C   0  0  0  0  0  0  0  0  0  0  0  0
   -1.5634    0.5459   -0.0758 C   0  0  0  0  0  0  0  0  0  0  0  0
   -2.8461   -0.1575   -0.3248 N   0  0  0  0  0  0  0  0  0  0  0  0
   -3.9089    0.3137    0.6159 C   0  0  0  0  0  0  0  0  0  0  0  0
   -5.2402   -0.4359    0.4633 C   0  0  0  0  0  0  0  0  0  0  0  0
   -5.9081   -0.9152    1.6035 C   0  0  0  0  0  0  0  0  0  0  0  0
   -7.1299   -1.5811    1.4875 C   0  0  0  0  0  0  0  0  0  0  0  0
   -7.7045   -1.7729    0.2331 C   0  0  0  0  0  0  0  0  0  0  0  0
   -7.0595   -1.2994   -0.9072 C   0  0  0  0  0  0  0  0  0  0  0  0
   -5.8375   -0.6345   -0.7936 C   0  0  0  0  0  0  0  0  0  0  0  0
   -4.1674    1.8259    0.5415 C   0  0  0  0  0  0  0  0  0  0  0  0
   -4.2982    2.5721    1.7257 C   0  0  0  0  0  0  0  0  0  0  0  0
   -4.5554    3.9440    1.6798 C   0  0  0  0  0  0  0  0  0  0  0  0
   -4.6900    4.5892    0.4522 C   0  0  0  0  0  0  0  0  0  0  0  0
   -4.5694    3.8645   -0.7315 C   0  0  0  0  0  0  0  0  0  0  0  0
   -4.3137    2.4927   -0.6877 C   0  0  0  0  0  0  0  0  0  0  0  0
   -2.5969   -1.6123   -0.1646 C   0  0  0  0  0  0  0  0  0  0  0  0
   -1.4499   -2.1221   -1.0671 C   0  0  0  0  0  0  0  0  0  0  0  0
    4.0928   -1.7530   -2.0647 H   0  0  0  0  0  0  0  0  0  0  0  0
    2.3782   -0.3628   -1.4460 H   0  0  0  0  0  0  0  0  0  0  0  0
    2.7860   -3.0576   -0.0362 H   0  0  0  0  0  0  0  0  0  0  0  0
    2.0249   -1.7222    0.8016 H   0  0  0  0  0  0  0  0  0  0  0  0
    2.2181    0.2943    1.1884 H   0  0  0  0  0  0  0  0  0  0  0  0
    2.7244    2.5582    1.9149 H   0  0  0  0  0  0  0  0  0  0  0  0
    5.0542    3.3925    1.9146 H   0  0  0  0  0  0  0  0  0  0  0  0
    9.2036    1.8065    0.8518 H   0  0  0  0  0  0  0  0  0  0  0  0
    9.9917   -0.7474   -0.1365 H   0  0  0  0  0  0  0  0  0  0  0  0
    8.6084   -3.0088   -0.7133 H   0  0  0  0  0  0  0  0  0  0  0  0
    6.0306   -2.4872   -0.1758 H   0  0  0  0  0  0  0  0  0  0  0  0
    0.6359   -1.6117   -2.7782 H   0  0  0  0  0  0  0  0  0  0  0  0
    0.8595   -2.9992   -1.7443 H   0  0  0  0  0  0  0  0  0  0  0  0
    0.4821    0.6002   -0.7235 H   0  0  0  0  0  0  0  0  0  0  0  0
   -0.6608    0.2727   -2.0302 H   0  0  0  0  0  0  0  0  0  0  0  0
   -1.6652    1.6190   -0.2693 H   0  0  0  0  0  0  0  0  0  0  0  0
   -1.2604    0.4326    0.9745 H   0  0  0  0  0  0  0  0  0  0  0  0
   -3.5352    0.1026    1.6293 H   0  0  0  0  0  0  0  0  0  0  0  0
   -5.4811   -0.7681    2.5926 H   0  0  0  0  0  0  0  0  0  0  0  0
   -7.6366   -1.9454    2.3775 H   0  0  0  0  0  0  0  0  0  0  0  0
   -8.6571   -2.2875    0.1439 H   0  0  0  0  0  0  0  0  0  0  0  0
   -7.5086   -1.4438   -1.8859 H   0  0  0  0  0  0  0  0  0  0  0  0
   -5.3436   -0.2737   -1.6929 H   0  0  0  0  0  0  0  0  0  0  0  0
   -4.2071    2.0857    2.6942 H   0  0  0  0  0  0  0  0  0  0  0  0
   -4.6574    4.5087    2.6031 H   0  0  0  0  0  0  0  0  0  0  0  0
   -4.8940    5.6561    0.4177 H   0  0  0  0  0  0  0  0  0  0  0  0
   -4.6784    4.3651   -1.6898 H   0  0  0  0  0  0  0  0  0  0  0  0
   -4.2209    1.9398   -1.6198 H   0  0  0  0  0  0  0  0  0  0  0  0
   -2.3583   -1.8479    0.8818 H   0  0  0  0  0  0  0  0  0  0  0  0
   -3.4883   -2.1893   -0.4324 H   0  0  0  0  0  0  0  0  0  0  0  0
   -1.7492   -2.0220   -2.1196 H   0  0  0  0  0  0  0  0  0  0  0  0
   -1.3128   -3.1918   -0.8665 H   0  0  0  0  0  0  0  0  0  0  0  0
  1  2  1  0
  2  3  1  0
  3  4  1  0
  4  5  1  0
  5  6  2  0
  6  7  1  0
  7  8  2  0
  8  9  1  0
  9 10  1  0
 10 11  2  0
 11 12  1  0
 12 13  2  0
 13 14  1  0
 14 15  2  0
 15 16  1  0
 16 17  1  0
  2 18  1  0
 18 19  1  0
 19 20  1  0
 20 21  1  0
 21 22  1  0
 22 23  1  0
 23 24  1  0
 24 25  2  0
 25 26  1  0
 26 27  2  0
 27 28  1  0
 28 29  2  0
 23 30  1  0
 30 31  2  0
 31 32  1  0
 32 33  2  0
 33 34  1  0
 34 35  2  0
 22 36  1  0
 36 37  1  0
 17  5  1  0
 37 19  1  0
 17  9  2  0
 29 24  1  0
 35 30  1  0
 16 12  1  0
  1 38  1  0
  2 39  1  0
  3 40  1  0
  3 41  1  0
  6 42  1  0
  7 43  1  0
  8 44  1  0
 11 45  1  0
 13 46  1  0
 14 47  1  0
 15 48  1  0
 18 49  1  0
 18 50  1  0
 20 51  1  0
 20 52  1  0
 21 53  1  0
 21 54  1  0
 23 55  1  0
 25 56  1  0
 26 57  1  0
 27 58  1  0
 28 59  1  0
 29 60  1  0
 31 61  1  0
 32 62  1  0
 33 63  1  0
 34 64  1  0
 35 65  1  0
 36 66  1  0
 36 67  1  0
 37 68  1  0
 37 69  1  0
M  END
$$$$
