
     RDKit          3D

 33 34  0  0  0  0  0  0  0  0999 V2000
   -5.6991    1.2044   -0.6688 C   0  0  0  0  0  0  0  0  0  0  0  0
   -5.3128   -0.2112   -0.2780 C   0  0  0  0  0  0  0  0  0  0  0  0
   -4.1786   -0.2058    0.5878 O   0  0  0  0  0  0  0  0  0  0  0  0
   -2.9298   -0.2763    0.0389 C   0  0  0  0  0  0  0  0  0  0  0  0
   -1.8985   -0.4394    0.9693 C   0  0  0  0  0  0  0  0  0  0  0  0
   -0.5646   -0.5226    0.5576 C   0  0  0  0  0  0  0  0  0  0  0  0
   -0.2489   -0.4296   -0.8014 C   0  0  0  0  0  0  0  0  0  0  0  0
    1.1526   -0.5116   -1.3012 C   0  0  0  0  0  0  0  0  0  0  0  0
    1.3785   -0.8437   -2.4597 O   0  0  0  0  0  0  0  0  0  0  0  0
    2.1435   -0.1664   -0.4109 N   0  0  0  0  0  0  0  0  0  0  0  0
    3.5147   -0.0649   -0.8529 C   0  0  0  0  0  0  0  0  0  0  0  0
    4.3868    0.0358    0.3413 C   0  0  0  0  0  0  0  0  0  0  0  0
    5.3545   -0.7862    0.8808 C   0  0  0  0  0  0  0  0  0  0  0  0
    5.8283   -0.1354    2.0452 C   0  0  0  0  0  0  0  0  0  0  0  0
    5.1199    1.0389    2.1437 C   0  0  0  0  0  0  0  0  0  0  0  0
    4.2393    1.1517    1.1164 O   0  0  0  0  0  0  0  0  0  0  0  0
   -1.2809   -0.2749   -1.7349 C   0  0  0  0  0  0  0  0  0  0  0  0
   -2.6147   -0.1933   -1.3165 C   0  0  0  0  0  0  0  0  0  0  0  0
   -6.6099    1.2029   -1.2741 H   0  0  0  0  0  0  0  0  0  0  0  0
   -4.9035    1.6945   -1.2378 H   0  0  0  0  0  0  0  0  0  0  0  0
   -5.8713    1.8147    0.2238 H   0  0  0  0  0  0  0  0  0  0  0  0
   -6.1378   -0.6477    0.2967 H   0  0  0  0  0  0  0  0  0  0  0  0
   -5.1761   -0.8633   -1.1476 H   0  0  0  0  0  0  0  0  0  0  0  0
   -2.1395   -0.5128    2.0277 H   0  0  0  0  0  0  0  0  0  0  0  0
    0.2034   -0.6842    1.3081 H   0  0  0  0  0  0  0  0  0  0  0  0
    1.9017    0.3670    0.4136 H   0  0  0  0  0  0  0  0  0  0  0  0
    3.7689   -0.9396   -1.4607 H   0  0  0  0  0  0  0  0  0  0  0  0
    3.6081    0.8288   -1.4785 H   0  0  0  0  0  0  0  0  0  0  0  0
    5.6752   -1.7382    0.4808 H   0  0  0  0  0  0  0  0  0  0  0  0
    6.5916   -0.4792    2.7290 H   0  0  0  0  0  0  0  0  0  0  0  0
    5.1232    1.8585    2.8487 H   0  0  0  0  0  0  0  0  0  0  0  0
   -1.0490   -0.2126   -2.7968 H   0  0  0  0  0  0  0  0  0  0  0  0
   -3.3752   -0.0581   -2.0778 H   0  0  0  0  0  0  0  0  0  0  0  0
  1  2  1  0
  2  3  1  0
  3  4  1  0
  4  5  2  0
  5  6  1  0
  6  7  2  0
  7  8  1  0
  8  9  2  0
  8 10  1  0
 10 11  1  0
 11 12  1  0
 12 13  2  0
 13 14  1  0
 14 15  2  0
 15 16  1  0
  7 17  1  0
 17 18  2  0
 18  4  1  0
 16 12  1  0
  1 19  1  0
  1 20  1  0
  1 21  1  0
  2 22  1  0
  2 23  1  0
  5 24  1  0
  6 25  1  0
 10 26  1  0
 11 27  1  0
 11 28  1  0
 13 29  1  0
 14 30  1  0
 15 31  1  0
 17 32  1  0
 18 33  1  0
M  END
$$$$
