
     RDKit          3D

 52 55  0  0  0  0  0  0  0  0999 V2000
    6.2465   -0.5056   -2.6243 C   0  0  0  0  0  0  0  0  0  0  0  0
    5.5690   -0.3090   -1.3205 C   0  0  0  0  0  0  0  0  0  0  0  0
    4.1954   -0.4464   -1.0257 C   0  0  0  0  0  0  0  0  0  0  0  0
    4.0630   -0.1647    0.3251 C   0  0  0  0  0  0  0  0  0  0  0  0
    2.9014   -0.1461    1.1861 C   0  0  0  0  0  0  0  0  0  0  0  0
    2.9622    0.0108    2.4018 O   0  0  0  0  0  0  0  0  0  0  0  0
    1.6965   -0.3033    0.5400 N   0  0  0  0  0  0  0  0  0  0  0  0
    0.4393   -0.1883    1.2496 C   0  0  0  0  0  0  0  0  0  0  0  0
    0.0729    1.2979    1.4788 C   0  0  0  0  0  0  0  0  0  0  0  0
   -1.4328    1.5334    1.7979 C   0  0  0  0  0  0  0  0  0  0  0  0
   -1.8182    0.8521    3.1269 C   0  0  0  0  0  0  0  0  0  0  0  0
   -1.6759    3.0466    1.9528 C   0  0  0  0  0  0  0  0  0  0  0  0
   -2.3257    1.0002    0.6327 C   0  0  0  0  0  0  0  0  0  0  0  0
   -1.8527   -0.3318    0.1492 C   0  0  0  0  0  0  0  0  0  0  0  0
   -0.6118   -0.8702    0.4426 C   0  0  0  0  0  0  0  0  0  0  0  0
   -0.6508   -2.1624   -0.0907 C   0  0  0  0  0  0  0  0  0  0  0  0
   -1.7979   -2.4181   -0.7130 N   0  0  0  0  0  0  0  0  0  0  0  0
   -2.5344   -1.2721   -0.6143 N   0  0  0  0  0  0  0  0  0  0  0  0
   -3.8031   -1.2133   -1.2702 C   0  0  0  0  0  0  0  0  0  0  0  0
   -4.3478   -2.4009   -1.7996 C   0  0  0  0  0  0  0  0  0  0  0  0
   -5.5851   -2.3997   -2.4521 C   0  0  0  0  0  0  0  0  0  0  0  0
   -6.2904   -1.2102   -2.5930 C   0  0  0  0  0  0  0  0  0  0  0  0
   -5.7479   -0.0366   -2.0868 C   0  0  0  0  0  0  0  0  0  0  0  0
   -6.4179    1.1139   -2.2377 F   0  0  0  0  0  0  0  0  0  0  0  0
   -4.5161   -0.0229   -1.4327 C   0  0  0  0  0  0  0  0  0  0  0  0
    5.3467    0.1021    0.7457 N   0  0  0  0  0  0  0  0  0  0  0  0
    5.7812    0.4449    2.0818 C   0  0  0  0  0  0  0  0  0  0  0  0
    6.2679    0.0300   -0.2359 N   0  0  0  0  0  0  0  0  0  0  0  0
    7.2167    0.0016   -2.6516 H   0  0  0  0  0  0  0  0  0  0  0  0
    5.6358   -0.1058   -3.4405 H   0  0  0  0  0  0  0  0  0  0  0  0
    6.4113   -1.5720   -2.8079 H   0  0  0  0  0  0  0  0  0  0  0  0
    3.4163   -0.7269   -1.7194 H   0  0  0  0  0  0  0  0  0  0  0  0
    1.6728   -0.2447   -0.4670 H   0  0  0  0  0  0  0  0  0  0  0  0
    0.5329   -0.6942    2.2186 H   0  0  0  0  0  0  0  0  0  0  0  0
    0.3297    1.8744    0.5774 H   0  0  0  0  0  0  0  0  0  0  0  0
    0.7014    1.7068    2.2811 H   0  0  0  0  0  0  0  0  0  0  0  0
   -2.8571    1.0762    3.3951 H   0  0  0  0  0  0  0  0  0  0  0  0
   -1.1816    1.2054    3.9461 H   0  0  0  0  0  0  0  0  0  0  0  0
   -1.7238   -0.2372    3.0811 H   0  0  0  0  0  0  0  0  0  0  0  0
   -1.0810    3.4607    2.7746 H   0  0  0  0  0  0  0  0  0  0  0  0
   -1.4033    3.5884    1.0403 H   0  0  0  0  0  0  0  0  0  0  0  0
   -2.7305    3.2579    2.1630 H   0  0  0  0  0  0  0  0  0  0  0  0
   -2.2744    1.7041   -0.2075 H   0  0  0  0  0  0  0  0  0  0  0  0
   -3.3650    0.9459    0.9753 H   0  0  0  0  0  0  0  0  0  0  0  0
    0.1058   -2.9361   -0.0449 H   0  0  0  0  0  0  0  0  0  0  0  0
   -3.8186   -3.3488   -1.7027 H   0  0  0  0  0  0  0  0  0  0  0  0
   -5.9904   -3.3274   -2.8480 H   0  0  0  0  0  0  0  0  0  0  0  0
   -7.2505   -1.1877   -3.0981 H   0  0  0  0  0  0  0  0  0  0  0  0
   -4.1548    0.9411   -1.1073 H   0  0  0  0  0  0  0  0  0  0  0  0
    5.2483    1.3433    2.4020 H   0  0  0  0  0  0  0  0  0  0  0  0
    5.5704   -0.3998    2.7419 H   0  0  0  0  0  0  0  0  0  0  0  0
    6.8563    0.6442    2.0743 H   0  0  0  0  0  0  0  0  0  0  0  0
  1  2  1  0
  2  3  1  0
  3  4  2  0
  4  5  1  0
  5  6  2  0
  5  7  1  0
  7  8  1  0
  8  9  1  0
  9 10  1  0
 10 11  1  0
 10 12  1  0
 10 13  1  0
 13 14  1  0
 14 15  2  0
 15 16  1  0
 16 17  2  0
 17 18  1  0
 18 19  1  0
 19 20  2  0
 20 21  1  0
 21 22  2  0
 22 23  1  0
 23 24  1  0
 23 25  2  0
  4 26  1  0
 26 27  1  0
 26 28  1  0
 28  2  2  0
 15  8  1  0
 25 19  1  0
 18 14  1  0
  1 29  1  0
  1 30  1  0
  1 31  1  0
  3 32  1  0
  7 33  1  0
  8 34  1  0
  9 35  1  0
  9 36  1  0
 11 37  1  0
 11 38  1  0
 11 39  1  0
 12 40  1  0
 12 41  1  0
 12 42  1  0
 13 43  1  0
 13 44  1  0
 16 45  1  0
 20 46  1  0
 21 47  1  0
 22 48  1  0
 25 49  1  0
 27 50  1  0
 27 51  1  0
 27 52  1  0
M  END
$$$$
