
     RDKit          3D

 58 63  0  0  0  0  0  0  0  0999 V2000
    8.2527   -0.6392    0.6282 C   0  0  0  0  0  0  0  0  0  0  0  0
    6.8563   -0.3858    1.0827 C   0  0  0  0  0  0  0  0  0  0  0  0
    6.2854    0.8033    1.4844 C   0  0  0  0  0  0  0  0  0  0  0  0
    4.9195    0.6444    1.8598 C   0  0  0  0  0  0  0  0  0  0  0  0
    4.4804   -0.6584    1.7142 C   0  0  0  0  0  0  0  0  0  0  0  0
    3.1723   -1.2349    1.9924 C   0  0  0  0  0  0  0  0  0  0  0  0
    3.0392   -2.2993    2.5985 O   0  0  0  0  0  0  0  0  0  0  0  0
    2.0390   -0.5259    1.5573 N   0  0  0  0  0  0  0  0  0  0  0  0
    2.0725    0.4645    0.4834 C   0  0  0  0  0  0  0  0  0  0  0  0
    0.7952    0.4303   -0.3526 C   0  0  0  0  0  0  0  0  0  0  0  0
   -0.4498    0.7541    0.5125 C   0  0  0  0  0  0  0  0  0  0  0  0
   -0.3401    0.0614    1.9054 C   0  0  0  0  0  0  0  0  0  0  0  0
    0.7326   -1.0208    1.9699 C   0  0  0  0  0  0  0  0  0  0  0  0
   -0.4016    2.1750    0.8390 O   0  0  0  0  0  0  0  0  0  0  0  0
   -0.8793    3.0625   -0.0798 C   0  0  0  0  0  0  0  0  0  0  0  0
   -0.6058    4.4077    0.1670 C   0  0  0  0  0  0  0  0  0  0  0  0
   -1.0303    5.3863   -0.7357 C   0  0  0  0  0  0  0  0  0  0  0  0
   -1.7296    5.0159   -1.8848 C   0  0  0  0  0  0  0  0  0  0  0  0
   -2.2413    6.2235   -2.9970 Cl  0  0  0  0  0  0  0  0  0  0  0  0
   -2.0174    3.6772   -2.1349 C   0  0  0  0  0  0  0  0  0  0  0  0
   -1.5979    2.7089   -1.2178 C   0  0  0  0  0  0  0  0  0  0  0  0
   -1.9022    1.2892   -1.4375 C   0  0  0  0  0  0  0  0  0  0  0  0
   -2.2099    0.8954   -2.5587 O   0  0  0  0  0  0  0  0  0  0  0  0
   -1.7796    0.3947   -0.2106 C   0  0  0  0  0  0  0  0  0  0  0  0
   -1.9523   -1.0732   -0.5665 C   0  0  0  0  0  0  0  0  0  0  0  0
   -3.4143   -1.2022   -0.3005 C   0  0  0  0  0  0  0  0  0  0  0  0
   -4.1983   -2.3732   -0.7584 C   0  0  0  0  0  0  0  0  0  0  0  0
   -5.5827   -2.3866   -0.5451 C   0  0  0  0  0  0  0  0  0  0  0  0
   -6.3487   -3.4773   -0.9604 C   0  0  0  0  0  0  0  0  0  0  0  0
   -5.7362   -4.5598   -1.5888 C   0  0  0  0  0  0  0  0  0  0  0  0
   -4.3583   -4.5539   -1.8019 C   0  0  0  0  0  0  0  0  0  0  0  0
   -3.5877   -3.4639   -1.3878 C   0  0  0  0  0  0  0  0  0  0  0  0
   -3.9254   -0.2319    0.3893 N   0  0  0  0  0  0  0  0  0  0  0  0
   -2.8963    0.7004    0.6427 O   0  0  0  0  0  0  0  0  0  0  0  0
    5.7419   -1.6810    1.1703 S   0  0  0  0  0  0  0  0  0  0  0  0
    8.7620   -1.3306    1.3076 H   0  0  0  0  0  0  0  0  0  0  0  0
    8.2625   -1.0673   -0.3796 H   0  0  0  0  0  0  0  0  0  0  0  0
    8.8299    0.2911    0.6018 H   0  0  0  0  0  0  0  0  0  0  0  0
    6.8244    1.7428    1.5213 H   0  0  0  0  0  0  0  0  0  0  0  0
    4.2948    1.4473    2.2318 H   0  0  0  0  0  0  0  0  0  0  0  0
    2.2026    1.4497    0.9443 H   0  0  0  0  0  0  0  0  0  0  0  0
    2.9295    0.2774   -0.1714 H   0  0  0  0  0  0  0  0  0  0  0  0
    0.9065    1.1515   -1.1701 H   0  0  0  0  0  0  0  0  0  0  0  0
    0.7001   -0.5619   -0.8101 H   0  0  0  0  0  0  0  0  0  0  0  0
   -0.1077    0.8107    2.6751 H   0  0  0  0  0  0  0  0  0  0  0  0
   -1.2953   -0.3801    2.2109 H   0  0  0  0  0  0  0  0  0  0  0  0
    0.7955   -1.4099    2.9928 H   0  0  0  0  0  0  0  0  0  0  0  0
    0.4817   -1.8676    1.3215 H   0  0  0  0  0  0  0  0  0  0  0  0
   -0.0579    4.6972    1.0607 H   0  0  0  0  0  0  0  0  0  0  0  0
   -0.8117    6.4330   -0.5378 H   0  0  0  0  0  0  0  0  0  0  0  0
   -2.5713    3.3878   -3.0249 H   0  0  0  0  0  0  0  0  0  0  0  0
   -1.4329   -1.7487    0.1170 H   0  0  0  0  0  0  0  0  0  0  0  0
   -1.6827   -1.3193   -1.5957 H   0  0  0  0  0  0  0  0  0  0  0  0
   -6.0744   -1.5476   -0.0564 H   0  0  0  0  0  0  0  0  0  0  0  0
   -7.4231   -3.4799   -0.7934 H   0  0  0  0  0  0  0  0  0  0  0  0
   -6.3337   -5.4087   -1.9127 H   0  0  0  0  0  0  0  0  0  0  0  0
   -3.8834   -5.4006   -2.2921 H   0  0  0  0  0  0  0  0  0  0  0  0
   -2.5174   -3.4939   -1.5658 H   0  0  0  0  0  0  0  0  0  0  0  0
  1  2  1  0
  2  3  2  0
  3  4  1  0
  4  5  2  0
  5  6  1  0
  6  7  2  0
  6  8  1  0
  8  9  1  0
  9 10  1  0
 10 11  1  0
 11 12  1  0
 12 13  1  0
 11 14  1  0
 14 15  1  0
 15 16  2  0
 16 17  1  0
 17 18  2  0
 18 19  1  0
 18 20  1  0
 20 21  2  0
 21 22  1  0
 22 23  2  0
 22 24  1  0
 24 25  1  0
 25 26  1  0
 26 27  1  0
 27 28  2  0
 28 29  1  0
 29 30  2  0
 30 31  1  0
 31 32  2  0
 26 33  2  0
 33 34  1  0
  5 35  1  0
 35  2  1  0
 13  8  1  0
 21 15  1  0
 34 24  1  0
 24 11  1  0
 32 27  1  0
  1 36  1  0
  1 37  1  0
  1 38  1  0
  3 39  1  0
  4 40  1  0
  9 41  1  0
  9 42  1  0
 10 43  1  0
 10 44  1  0
 12 45  1  0
 12 46  1  0
 13 47  1  0
 13 48  1  0
 16 49  1  0
 17 50  1  0
 20 51  1  0
 25 52  1  0
 25 53  1  0
 28 54  1  0
 29 55  1  0
 30 56  1  0
 31 57  1  0
 32 58  1  0
M  END
$$$$
