
     RDKit          3D

 53 57  0  0  0  0  0  0  0  0999 V2000
    6.1206    2.2321    1.7349 C   0  0  0  0  0  0  0  0  0  0  0  0
    5.8283    0.8410    1.6902 O   0  0  0  0  0  0  0  0  0  0  0  0
    4.8068    0.4525    0.8681 C   0  0  0  0  0  0  0  0  0  0  0  0
    4.5716   -0.9230    0.8385 C   0  0  0  0  0  0  0  0  0  0  0  0
    3.5561   -1.4575    0.0415 C   0  0  0  0  0  0  0  0  0  0  0  0
    2.7456   -0.6187   -0.7338 C   0  0  0  0  0  0  0  0  0  0  0  0
    1.6415   -1.1939   -1.5970 C   0  0  0  0  0  0  0  0  0  0  0  0
    0.3063   -0.7194   -1.2082 N   0  0  0  0  0  0  0  0  0  0  0  0
   -0.4268   -1.2654   -0.1770 C   0  0  0  0  0  0  0  0  0  0  0  0
    0.1196   -2.4144    0.5733 C   0  0  0  0  0  0  0  0  0  0  0  0
    0.6983   -2.1965    1.8258 C   0  0  0  0  0  0  0  0  0  0  0  0
    1.1955   -3.2809    2.5476 C   0  0  0  0  0  0  0  0  0  0  0  0
    1.0964   -4.5722    2.0247 C   0  0  0  0  0  0  0  0  0  0  0  0
    0.4923   -4.7862    0.7835 C   0  0  0  0  0  0  0  0  0  0  0  0
   -0.0067   -3.7064    0.0554 C   0  0  0  0  0  0  0  0  0  0  0  0
   -1.5876   -0.8317    0.1834 N   0  0  0  0  0  0  0  0  0  0  0  0
   -2.1663    0.2459   -0.4494 C   0  0  0  0  0  0  0  0  0  0  0  0
   -1.5409    0.8520   -1.4811 C   0  0  0  0  0  0  0  0  0  0  0  0
   -2.1719    2.0289   -2.1283 C   0  0  0  0  0  0  0  0  0  0  0  0
   -1.6103    2.7042   -2.9851 O   0  0  0  0  0  0  0  0  0  0  0  0
   -3.5363    2.4025   -1.7117 C   0  0  0  0  0  0  0  0  0  0  0  0
   -4.1987    3.4388   -2.3915 C   0  0  0  0  0  0  0  0  0  0  0  0
   -5.4851    3.8086   -2.0163 C   0  0  0  0  0  0  0  0  0  0  0  0
   -6.1048    3.1443   -0.9655 C   0  0  0  0  0  0  0  0  0  0  0  0
   -5.4371    2.1144   -0.2899 C   0  0  0  0  0  0  0  0  0  0  0  0
   -4.1334    1.7196   -0.6444 C   0  0  0  0  0  0  0  0  0  0  0  0
   -3.4210    0.6925    0.0130 N   0  0  0  0  0  0  0  0  0  0  0  0
   -4.0768    0.0455    1.1553 C   0  0  0  0  0  0  0  0  0  0  0  0
   -0.2302    0.3273   -1.9373 C   0  0  0  0  0  0  0  0  0  0  0  0
    0.3413    0.7943   -2.9210 O   0  0  0  0  0  0  0  0  0  0  0  0
    2.9965    0.7606   -0.7114 C   0  0  0  0  0  0  0  0  0  0  0  0
    4.0165    1.2929    0.0860 C   0  0  0  0  0  0  0  0  0  0  0  0
    6.4318    2.6024    0.7524 H   0  0  0  0  0  0  0  0  0  0  0  0
    5.2695    2.8021    2.1219 H   0  0  0  0  0  0  0  0  0  0  0  0
    6.9579    2.3755    2.4247 H   0  0  0  0  0  0  0  0  0  0  0  0
    5.1875   -1.5862    1.4411 H   0  0  0  0  0  0  0  0  0  0  0  0
    3.4028   -2.5346    0.0413 H   0  0  0  0  0  0  0  0  0  0  0  0
    1.6621   -2.2874   -1.5570 H   0  0  0  0  0  0  0  0  0  0  0  0
    1.8576   -0.9398   -2.6417 H   0  0  0  0  0  0  0  0  0  0  0  0
    0.7691   -1.1908    2.2325 H   0  0  0  0  0  0  0  0  0  0  0  0
    1.6572   -3.1204    3.5189 H   0  0  0  0  0  0  0  0  0  0  0  0
    1.4816   -5.4163    2.5925 H   0  0  0  0  0  0  0  0  0  0  0  0
    0.4032   -5.7961    0.3906 H   0  0  0  0  0  0  0  0  0  0  0  0
   -0.4945   -3.8732   -0.9011 H   0  0  0  0  0  0  0  0  0  0  0  0
   -3.7088    3.9557   -3.2148 H   0  0  0  0  0  0  0  0  0  0  0  0
   -5.9991    4.6091   -2.5419 H   0  0  0  0  0  0  0  0  0  0  0  0
   -7.1121    3.4242   -0.6656 H   0  0  0  0  0  0  0  0  0  0  0  0
   -5.9752    1.6298    0.5195 H   0  0  0  0  0  0  0  0  0  0  0  0
   -4.9564   -0.5190    0.8256 H   0  0  0  0  0  0  0  0  0  0  0  0
   -3.4259   -0.6589    1.6838 H   0  0  0  0  0  0  0  0  0  0  0  0
   -4.3776    0.7864    1.9054 H   0  0  0  0  0  0  0  0  0  0  0  0
    2.4041    1.4385   -1.3247 H   0  0  0  0  0  0  0  0  0  0  0  0
    4.1658    2.3674    0.0667 H   0  0  0  0  0  0  0  0  0  0  0  0
  1  2  1  0
  2  3  1  0
  3  4  2  0
  4  5  1  0
  5  6  2  0
  6  7  1  0
  7  8  1  0
  8  9  1  0
  9 10  1  0
 10 11  2  0
 11 12  1  0
 12 13  2  0
 13 14  1  0
 14 15  2  0
  9 16  2  0
 16 17  1  0
 17 18  2  0
 18 19  1  0
 19 20  2  0
 19 21  1  0
 21 22  2  0
 22 23  1  0
 23 24  2  0
 24 25  1  0
 25 26  2  0
 26 27  1  0
 27 28  1  0
 18 29  1  0
 29 30  2  0
  6 31  1  0
 31 32  2  0
 32  3  1  0
 29  8  1  0
 15 10  1  0
 27 17  1  0
 26 21  1  0
  1 33  1  0
  1 34  1  0
  1 35  1  0
  4 36  1  0
  5 37  1  0
  7 38  1  0
  7 39  1  0
 11 40  1  0
 12 41  1  0
 13 42  1  0
 14 43  1  0
 15 44  1  0
 22 45  1  0
 23 46  1  0
 24 47  1  0
 25 48  1  0
 28 49  1  0
 28 50  1  0
 28 51  1  0
 31 52  1  0
 32 53  1  0
M  END
$$$$
