
     RDKit          3D

 55 59  0  0  0  0  0  0  0  0999 V2000
    7.0168   -2.0095   -0.3595 C   0  0  0  0  0  0  0  0  0  0  0  0
    5.6197   -1.9741   -0.1043 O   0  0  0  0  0  0  0  0  0  0  0  0
    5.1296   -0.8345    0.4726 C   0  0  0  0  0  0  0  0  0  0  0  0
    5.8424    0.3453    0.6844 C   0  0  0  0  0  0  0  0  0  0  0  0
    5.2262    1.4355    1.3086 C   0  0  0  0  0  0  0  0  0  0  0  0
    3.8903    1.3560    1.7057 C   0  0  0  0  0  0  0  0  0  0  0  0
    3.1548    0.1879    1.4714 C   0  0  0  0  0  0  0  0  0  0  0  0
    1.7552    0.0831    1.8726 C   0  0  0  0  0  0  0  0  0  0  0  0
    1.2425   -0.8662    2.6338 N   0  0  0  0  0  0  0  0  0  0  0  0
   -0.0983   -0.6155    2.8037 N   0  0  0  0  0  0  0  0  0  0  0  0
   -0.3841    0.4663    2.1264 C   0  0  0  0  0  0  0  0  0  0  0  0
   -1.9508    1.1814    1.9933 S   0  0  0  0  0  0  0  0  0  0  0  0
   -2.9684   -0.3271    1.6305 C   0  0  0  0  0  0  0  0  0  0  0  0
   -2.3604   -1.0701    0.4216 C   0  0  0  0  0  0  0  0  0  0  0  0
   -2.1736   -2.2860    0.4746 O   0  0  0  0  0  0  0  0  0  0  0  0
   -2.0331   -0.3383   -0.8108 C   0  0  0  0  0  0  0  0  0  0  0  0
   -2.7483    0.7080   -1.3677 C   0  0  0  0  0  0  0  0  0  0  0  0
   -2.1017    1.1147   -2.5076 N   0  0  0  0  0  0  0  0  0  0  0  0
   -0.9587    0.3752   -2.6958 C   0  0  0  0  0  0  0  0  0  0  0  0
    0.0126    0.4571   -3.7018 C   0  0  0  0  0  0  0  0  0  0  0  0
    1.0834   -0.4390   -3.6415 C   0  0  0  0  0  0  0  0  0  0  0  0
    1.1789   -1.3769   -2.6150 C   0  0  0  0  0  0  0  0  0  0  0  0
    0.1983   -1.4463   -1.6184 C   0  0  0  0  0  0  0  0  0  0  0  0
   -0.8973   -0.5575   -1.6581 C   0  0  0  0  0  0  0  0  0  0  0  0
   -4.4726   -0.0581    1.4813 C   0  0  0  0  0  0  0  0  0  0  0  0
   -5.1125    1.0392    2.0876 C   0  0  0  0  0  0  0  0  0  0  0  0
   -6.4898    1.2430    1.9525 C   0  0  0  0  0  0  0  0  0  0  0  0
   -7.2635    0.3415    1.2299 C   0  0  0  0  0  0  0  0  0  0  0  0
   -6.6635   -0.7737    0.6555 C   0  0  0  0  0  0  0  0  0  0  0  0
   -5.2871   -0.9782    0.7904 C   0  0  0  0  0  0  0  0  0  0  0  0
    0.7355    0.9361    1.4992 N   0  0  0  0  0  0  0  0  0  0  0  0
    0.8374    2.0409    0.5768 C   0  0  0  0  0  0  0  0  0  0  0  0
    3.7886   -0.9057    0.8646 C   0  0  0  0  0  0  0  0  0  0  0  0
    7.5984   -1.7667    0.5373 H   0  0  0  0  0  0  0  0  0  0  0  0
    7.2765   -3.0319   -0.6560 H   0  0  0  0  0  0  0  0  0  0  0  0
    7.2759   -1.3402   -1.1881 H   0  0  0  0  0  0  0  0  0  0  0  0
    6.8816    0.4460    0.3858 H   0  0  0  0  0  0  0  0  0  0  0  0
    5.7933    2.3432    1.4948 H   0  0  0  0  0  0  0  0  0  0  0  0
    3.4378    2.2036    2.2141 H   0  0  0  0  0  0  0  0  0  0  0  0
   -2.8600   -0.9849    2.5027 H   0  0  0  0  0  0  0  0  0  0  0  0
   -3.6692    1.1908   -1.0642 H   0  0  0  0  0  0  0  0  0  0  0  0
   -2.4147    1.8524   -3.1256 H   0  0  0  0  0  0  0  0  0  0  0  0
   -0.0595    1.1828   -4.5064 H   0  0  0  0  0  0  0  0  0  0  0  0
    1.8503   -0.4068   -4.4127 H   0  0  0  0  0  0  0  0  0  0  0  0
    2.0177   -2.0674   -2.5889 H   0  0  0  0  0  0  0  0  0  0  0  0
    0.2800   -2.1846   -0.8221 H   0  0  0  0  0  0  0  0  0  0  0  0
   -4.5584    1.7579    2.6872 H   0  0  0  0  0  0  0  0  0  0  0  0
   -6.9584    2.1038    2.4246 H   0  0  0  0  0  0  0  0  0  0  0  0
   -8.3344    0.4983    1.1299 H   0  0  0  0  0  0  0  0  0  0  0  0
   -7.2665   -1.4950    0.1097 H   0  0  0  0  0  0  0  0  0  0  0  0
   -4.8653   -1.8812    0.3487 H   0  0  0  0  0  0  0  0  0  0  0  0
    1.1035    2.9372    1.1460 H   0  0  0  0  0  0  0  0  0  0  0  0
   -0.1117    2.1964    0.0572 H   0  0  0  0  0  0  0  0  0  0  0  0
    1.6006    1.8214   -0.1755 H   0  0  0  0  0  0  0  0  0  0  0  0
    3.2342   -1.8295    0.6977 H   0  0  0  0  0  0  0  0  0  0  0  0
  1  2  1  0
  2  3  1  0
  3  4  2  0
  4  5  1  0
  5  6  2  0
  6  7  1  0
  7  8  1  0
  8  9  2  0
  9 10  1  0
 10 11  2  0
 11 12  1  0
 12 13  1  0
 13 14  1  0
 14 15  2  0
 14 16  1  0
 16 17  2  0
 17 18  1  0
 18 19  1  0
 19 20  2  0
 20 21  1  0
 21 22  2  0
 22 23  1  0
 23 24  2  0
 13 25  1  0
 25 26  2  0
 26 27  1  0
 27 28  2  0
 28 29  1  0
 29 30  2  0
 11 31  1  0
 31 32  1  0
  7 33  2  0
 33  3  1  0
 31  8  1  0
 24 16  1  0
 30 25  1  0
 24 19  1  0
  1 34  1  0
  1 35  1  0
  1 36  1  0
  4 37  1  0
  5 38  1  0
  6 39  1  0
 13 40  1  0
 17 41  1  0
 18 42  1  0
 20 43  1  0
 21 44  1  0
 22 45  1  0
 23 46  1  0
 26 47  1  0
 27 48  1  0
 28 49  1  0
 29 50  1  0
 30 51  1  0
 32 52  1  0
 32 53  1  0
 32 54  1  0
 33 55  1  0
M  END
$$$$
