
     RDKit          3D

 35 37  0  0  0  0  0  0  0  0999 V2000
    7.2820    1.2470   -1.5258 C   0  0  0  0  0  0  0  0  0  0  0  0
    5.8810    1.1433   -1.2565 O   0  0  0  0  0  0  0  0  0  0  0  0
    5.3445   -0.0925   -1.4153 C   0  0  0  0  0  0  0  0  0  0  0  0
    5.9384   -1.1031   -1.7610 O   0  0  0  0  0  0  0  0  0  0  0  0
    3.8934   -0.0697   -1.0900 C   0  0  0  0  0  0  0  0  0  0  0  0
    3.2386   -1.2923   -0.8912 C   0  0  0  0  0  0  0  0  0  0  0  0
    1.8723   -1.3201   -0.5961 C   0  0  0  0  0  0  0  0  0  0  0  0
    1.1429   -0.1280   -0.4922 C   0  0  0  0  0  0  0  0  0  0  0  0
   -0.2984   -0.2069   -0.2113 C   0  0  0  0  0  0  0  0  0  0  0  0
   -0.9723    0.4240    0.7763 C   0  0  0  0  0  0  0  0  0  0  0  0
   -0.3087    1.2820    1.7078 C   0  0  0  0  0  0  0  0  0  0  0  0
    0.2271    1.9836    2.4612 N   0  0  0  0  0  0  0  0  0  0  0  0
   -2.3865    0.1806    0.8810 C   0  0  0  0  0  0  0  0  0  0  0  0
   -3.0277   -0.8664    0.3899 N   0  0  0  0  0  0  0  0  0  0  0  0
   -4.3844   -0.7998    0.6553 C   0  0  0  0  0  0  0  0  0  0  0  0
   -5.3464   -1.7631    0.2911 C   0  0  0  0  0  0  0  0  0  0  0  0
   -6.6919   -1.5559    0.6082 C   0  0  0  0  0  0  0  0  0  0  0  0
   -7.0874   -0.4006    1.2764 C   0  0  0  0  0  0  0  0  0  0  0  0
   -6.1502    0.5653    1.6547 C   0  0  0  0  0  0  0  0  0  0  0  0
   -4.8006    0.3421    1.3377 C   0  0  0  0  0  0  0  0  0  0  0  0
   -3.4326    1.3261    1.6635 S   0  0  0  0  0  0  0  0  0  0  0  0
    1.7943    1.0923   -0.7153 C   0  0  0  0  0  0  0  0  0  0  0  0
    3.1634    1.1233   -1.0045 C   0  0  0  0  0  0  0  0  0  0  0  0
    7.8217    0.3129   -1.3428 H   0  0  0  0  0  0  0  0  0  0  0  0
    7.4220    1.5744   -2.5587 H   0  0  0  0  0  0  0  0  0  0  0  0
    7.6966    2.0107   -0.8605 H   0  0  0  0  0  0  0  0  0  0  0  0
    3.7898   -2.2293   -0.9635 H   0  0  0  0  0  0  0  0  0  0  0  0
    1.3857   -2.2837   -0.4465 H   0  0  0  0  0  0  0  0  0  0  0  0
   -0.8318   -0.8848   -0.8789 H   0  0  0  0  0  0  0  0  0  0  0  0
   -5.0349   -2.6610   -0.2354 H   0  0  0  0  0  0  0  0  0  0  0  0
   -7.4331   -2.2991    0.3225 H   0  0  0  0  0  0  0  0  0  0  0  0
   -8.1404   -0.2422    1.5090 H   0  0  0  0  0  0  0  0  0  0  0  0
   -6.4609    1.4708    2.1707 H   0  0  0  0  0  0  0  0  0  0  0  0
    1.2507    2.0348   -0.6760 H   0  0  0  0  0  0  0  0  0  0  0  0
    3.6439    2.0853   -1.1712 H   0  0  0  0  0  0  0  0  0  0  0  0
  1  2  1  0
  2  3  1  0
  3  4  2  0
  3  5  1  0
  5  6  2  0
  6  7  1  0
  7  8  2  0
  8  9  1  0
  9 10  2  3
 10 11  1  0
 11 12  3  0
 10 13  1  0
 13 14  2  0
 14 15  1  0
 15 16  2  0
 16 17  1  0
 17 18  2  0
 18 19  1  0
 19 20  2  0
 20 21  1  0
  8 22  1  0
 22 23  2  0
 23  5  1  0
 21 13  1  0
 20 15  1  0
  1 24  1  0
  1 25  1  0
  1 26  1  0
  6 27  1  0
  7 28  1  0
  9 29  1  0
 16 30  1  0
 17 31  1  0
 18 32  1  0
 19 33  1  0
 22 34  1  0
 23 35  1  0
M  END
$$$$
