
     RDKit          3D

 38 39  0  0  0  0  0  0  0  0999 V2000
    4.5140    1.8372   -2.1621 C   0  0  0  0  0  0  0  0  0  0  0  0
    4.1766    0.7033   -1.2689 C   0  0  0  0  0  0  0  0  0  0  0  0
    4.7964    0.3367   -0.0549 C   0  0  0  0  0  0  0  0  0  0  0  0
    4.1147   -0.7772    0.3873 C   0  0  0  0  0  0  0  0  0  0  0  0
    4.2980   -1.5949    1.6109 C   0  0  0  0  0  0  0  0  0  0  0  0
    3.1585   -1.0205   -0.5631 N   0  0  0  0  0  0  0  0  0  0  0  0
    2.1598   -2.0713   -0.5944 C   0  0  0  0  0  0  0  0  0  0  0  0
    0.7825   -1.5340   -0.2767 C   0  0  0  0  0  0  0  0  0  0  0  0
    0.1028   -2.0195    0.6279 O   0  0  0  0  0  0  0  0  0  0  0  0
    0.3708   -0.5136   -1.1390 N   0  0  0  0  0  0  0  0  0  0  0  0
   -0.7701    0.2290   -0.9598 N   0  0  0  0  0  0  0  0  0  0  0  0
   -1.8472   -0.4086   -0.6183 C   0  0  0  0  0  0  0  0  0  0  0  0
   -3.1079    0.3163   -0.3507 C   0  0  0  0  0  0  0  0  0  0  0  0
   -4.2334   -0.4354    0.0038 C   0  0  0  0  0  0  0  0  0  0  0  0
   -5.4439    0.2248    0.2638 C   0  0  0  0  0  0  0  0  0  0  0  0
   -6.6309   -0.5573    0.6331 N   0  0  0  0  0  4  0  0  0  0  0  0
   -6.5230   -1.7915    0.6471 O   0  0  0  0  0  0  0  0  0  0  0  0
   -7.6686    0.0620    0.9055 O   0  0  0  0  0  1  0  0  0  0  0  0
   -5.5350    1.6210    0.1736 C   0  0  0  0  0  0  0  0  0  0  0  0
   -4.4056    2.3615   -0.1792 C   0  0  0  0  0  0  0  0  0  0  0  0
   -3.1996    1.7123   -0.4389 C   0  0  0  0  0  0  0  0  0  0  0  0
   -2.1420    2.5111   -0.7756 O   0  0  0  0  0  0  0  0  0  0  0  0
    3.1676   -0.1214   -1.5737 N   0  0  0  0  0  0  0  0  0  0  0  0
    5.3597    2.4109   -1.7698 H   0  0  0  0  0  0  0  0  0  0  0  0
    3.6604    2.5156   -2.2598 H   0  0  0  0  0  0  0  0  0  0  0  0
    4.7843    1.4736   -3.1586 H   0  0  0  0  0  0  0  0  0  0  0  0
    5.6273    0.8249    0.4362 H   0  0  0  0  0  0  0  0  0  0  0  0
    5.0757   -1.1680    2.2526 H   0  0  0  0  0  0  0  0  0  0  0  0
    4.5986   -2.6151    1.3523 H   0  0  0  0  0  0  0  0  0  0  0  0
    3.3712   -1.6381    2.1919 H   0  0  0  0  0  0  0  0  0  0  0  0
    2.4316   -2.8440    0.1299 H   0  0  0  0  0  0  0  0  0  0  0  0
    2.1649   -2.5185   -1.5941 H   0  0  0  0  0  0  0  0  0  0  0  0
    1.1345   -0.0017   -1.6010 H   0  0  0  0  0  0  0  0  0  0  0  0
   -1.8868   -1.5090   -0.5361 H   0  0  0  0  0  0  0  0  0  0  0  0
   -4.1638   -1.5187    0.0788 H   0  0  0  0  0  0  0  0  0  0  0  0
   -6.4686    2.1437    0.3731 H   0  0  0  0  0  0  0  0  0  0  0  0
   -4.4618    3.4455   -0.2514 H   0  0  0  0  0  0  0  0  0  0  0  0
   -1.3618    1.9289   -0.9158 H   0  0  0  0  0  0  0  0  0  0  0  0
  1  2  1  0
  2  3  1  0
  3  4  2  0
  4  5  1  0
  4  6  1  0
  6  7  1  0
  7  8  1  0
  8  9  2  0
  8 10  1  0
 10 11  1  0
 11 12  2  3
 12 13  1  0
 13 14  2  0
 14 15  1  0
 15 16  1  0
 16 17  2  0
 16 18  1  0
 15 19  2  0
 19 20  1  0
 20 21  2  0
 21 22  1  0
  6 23  1  0
 23  2  2  0
 21 13  1  0
  1 24  1  0
  1 25  1  0
  1 26  1  0
  3 27  1  0
  5 28  1  0
  5 29  1  0
  5 30  1  0
  7 31  1  0
  7 32  1  0
 10 33  1  0
 12 34  1  0
 14 35  1  0
 19 36  1  0
 20 37  1  0
 22 38  1  0
M  CHG  2  16   1  18  -1
M  END
$$$$
