
     RDKit          3D

 40 41  0  0  0  0  0  0  0  0999 V2000
    6.3772   -0.5212   -5.1219 C   0  0  0  0  0  0  0  0  0  0  0  0
    5.0109   -0.8907   -4.5681 C   0  0  0  0  0  0  0  0  0  0  0  0
    4.4993    0.1643   -3.5902 C   0  0  0  0  0  0  0  0  0  0  0  0
    3.1428   -0.1956   -2.9995 C   0  0  0  0  0  0  0  0  0  0  0  0
    2.5577   -1.2323   -3.2889 O   0  0  0  0  0  0  0  0  0  0  0  0
    2.6980    0.7868   -2.1275 N   0  0  0  0  0  0  0  0  0  0  0  0
    1.4948    0.8042   -1.3939 C   0  0  0  0  0  0  0  0  0  0  0  0
    1.2566    1.9220   -0.5857 C   0  0  0  0  0  0  0  0  0  0  0  0
    0.0859    2.0183    0.1743 C   0  0  0  0  0  0  0  0  0  0  0  0
   -0.8625    0.9907    0.1422 C   0  0  0  0  0  0  0  0  0  0  0  0
   -2.0962    1.1409    0.9608 C   0  0  0  0  0  0  0  0  0  0  0  0
   -2.4753    2.2502    1.3295 O   0  0  0  0  0  0  0  0  0  0  0  0
   -2.7605   -0.0227    1.3004 N   0  0  0  0  0  0  0  0  0  0  0  0
   -3.7879    0.0926    2.2561 N   0  0  0  0  0  0  0  0  0  0  0  0
   -3.8616   -0.8660    3.2540 C   0  0  0  0  0  0  0  0  0  0  0  0
   -3.1989   -1.9030    3.1748 O   0  0  0  0  0  0  0  0  0  0  0  0
   -4.7381   -0.5631    4.3766 C   0  0  0  0  0  0  0  0  0  0  0  0
   -4.9757   -1.3655    5.4791 C   0  0  0  0  0  0  0  0  0  0  0  0
   -5.8842   -0.7758    6.4049 C   0  0  0  0  0  0  0  0  0  0  0  0
   -6.3122    0.4621    5.9835 C   0  0  0  0  0  0  0  0  0  0  0  0
   -5.6243    0.9006    4.4812 S   0  0  0  0  0  0  0  0  0  0  0  0
   -0.6347   -0.1236   -0.6717 C   0  0  0  0  0  0  0  0  0  0  0  0
    0.5399   -0.2141   -1.4316 C   0  0  0  0  0  0  0  0  0  0  0  0
    6.3443    0.4436   -5.6391 H   0  0  0  0  0  0  0  0  0  0  0  0
    6.7144   -1.2780   -5.8374 H   0  0  0  0  0  0  0  0  0  0  0  0
    7.1196   -0.4566   -4.3197 H   0  0  0  0  0  0  0  0  0  0  0  0
    5.0753   -1.8651   -4.0688 H   0  0  0  0  0  0  0  0  0  0  0  0
    4.3022   -1.0052   -5.3972 H   0  0  0  0  0  0  0  0  0  0  0  0
    5.2119    0.2831   -2.7646 H   0  0  0  0  0  0  0  0  0  0  0  0
    4.4053    1.1289   -4.1037 H   0  0  0  0  0  0  0  0  0  0  0  0
    3.3027    1.5898   -2.0062 H   0  0  0  0  0  0  0  0  0  0  0  0
    1.9718    2.7394   -0.5356 H   0  0  0  0  0  0  0  0  0  0  0  0
   -0.0829    2.8991    0.7911 H   0  0  0  0  0  0  0  0  0  0  0  0
   -2.2855   -0.9250    1.2881 H   0  0  0  0  0  0  0  0  0  0  0  0
   -4.1238    1.0388    2.4345 H   0  0  0  0  0  0  0  0  0  0  0  0
   -4.5114   -2.3370    5.6094 H   0  0  0  0  0  0  0  0  0  0  0  0
   -6.2049   -1.2357    7.3321 H   0  0  0  0  0  0  0  0  0  0  0  0
   -7.0000    1.1306    6.4839 H   0  0  0  0  0  0  0  0  0  0  0  0
   -1.3622   -0.9264   -0.7541 H   0  0  0  0  0  0  0  0  0  0  0  0
    0.6724   -1.0961   -2.0509 H   0  0  0  0  0  0  0  0  0  0  0  0
  1  2  1  0
  2  3  1  0
  3  4  1  0
  4  5  2  0
  4  6  1  0
  6  7  1  0
  7  8  2  0
  8  9  1  0
  9 10  2  0
 10 11  1  0
 11 12  2  0
 11 13  1  0
 13 14  1  0
 14 15  1  0
 15 16  2  0
 15 17  1  0
 17 18  2  0
 18 19  1  0
 19 20  2  0
 20 21  1  0
 10 22  1  0
 22 23  2  0
 23  7  1  0
 21 17  1  0
  1 24  1  0
  1 25  1  0
  1 26  1  0
  2 27  1  0
  2 28  1  0
  3 29  1  0
  3 30  1  0
  6 31  1  0
  8 32  1  0
  9 33  1  0
 13 34  1  0
 14 35  1  0
 18 36  1  0
 19 37  1  0
 20 38  1  0
 22 39  1  0
 23 40  1  0
M  END
$$$$
