
     RDKit          3D

 33 33  0  0  0  0  0  0  0  0999 V2000
   -3.9041   -1.0052   -0.7066 C   0  0  0  0  0  0  0  0  0  0  0  0
   -3.5845   -0.4199    0.6699 C   0  0  0  0  0  0  0  0  0  0  0  0
   -4.8741    0.0905    1.3205 C   0  0  0  0  0  0  0  0  0  0  0  0
   -2.6391    0.6993    0.6049 N   0  0  0  0  0  0  0  0  0  0  0  0
   -1.3120    0.3939    0.0653 C   0  0  0  0  0  0  0  0  0  0  0  0
   -0.5026   -0.5868    0.9204 C   0  0  0  0  0  0  0  0  0  0  0  0
    0.8995   -0.8084    0.3524 C   0  0  0  0  0  0  0  0  0  0  0  0
    1.6229    0.4181    0.4209 O   0  0  0  0  0  0  0  0  0  0  0  0
    2.8966    0.4465   -0.0795 C   0  0  0  0  0  0  0  0  0  0  0  0
    3.5717   -0.6665   -0.5918 C   0  0  0  0  0  0  0  0  0  0  0  0
    4.8769   -0.5401   -1.0803 C   0  0  0  0  0  0  0  0  0  0  0  0
    5.5134    0.6984   -1.0577 C   0  0  0  0  0  0  0  0  0  0  0  0
    7.1181    0.8438   -1.6600 Cl  0  0  0  0  0  0  0  0  0  0  0  0
    4.8602    1.8164   -0.5506 C   0  0  0  0  0  0  0  0  0  0  0  0
    3.5565    1.6877   -0.0632 C   0  0  0  0  0  0  0  0  0  0  0  0
    2.7114    3.2495    0.6178 Br  0  0  0  0  0  0  0  0  0  0  0  0
   -4.6943   -1.7605   -0.6311 H   0  0  0  0  0  0  0  0  0  0  0  0
   -4.2485   -0.2307   -1.4010 H   0  0  0  0  0  0  0  0  0  0  0  0
   -3.0316   -1.4973   -1.1477 H   0  0  0  0  0  0  0  0  0  0  0  0
   -3.1895   -1.2135    1.3138 H   0  0  0  0  0  0  0  0  0  0  0  0
   -5.3342    0.8903    0.7291 H   0  0  0  0  0  0  0  0  0  0  0  0
   -4.6813    0.4801    2.3265 H   0  0  0  0  0  0  0  0  0  0  0  0
   -5.6056   -0.7193    1.4171 H   0  0  0  0  0  0  0  0  0  0  0  0
   -2.5326    1.1114    1.5324 H   0  0  0  0  0  0  0  0  0  0  0  0
   -1.3876    0.0326   -0.9660 H   0  0  0  0  0  0  0  0  0  0  0  0
   -0.7712    1.3457    0.0015 H   0  0  0  0  0  0  0  0  0  0  0  0
   -1.0079   -1.5570    0.9726 H   0  0  0  0  0  0  0  0  0  0  0  0
   -0.4218   -0.1927    1.9409 H   0  0  0  0  0  0  0  0  0  0  0  0
    0.8240   -1.1531   -0.6860 H   0  0  0  0  0  0  0  0  0  0  0  0
    1.4047   -1.5691    0.9593 H   0  0  0  0  0  0  0  0  0  0  0  0
    3.1142   -1.6501   -0.6245 H   0  0  0  0  0  0  0  0  0  0  0  0
    5.3900   -1.4135   -1.4758 H   0  0  0  0  0  0  0  0  0  0  0  0
    5.3623    2.7798   -0.5352 H   0  0  0  0  0  0  0  0  0  0  0  0
  1  2  1  0
  2  3  1  0
  2  4  1  0
  4  5  1  0
  5  6  1  0
  6  7  1  0
  7  8  1  0
  8  9  1  0
  9 10  2  0
 10 11  1  0
 11 12  2  0
 12 13  1  0
 12 14  1  0
 14 15  2  0
 15 16  1  0
 15  9  1  0
  1 17  1  0
  1 18  1  0
  1 19  1  0
  2 20  1  0
  3 21  1  0
  3 22  1  0
  3 23  1  0
  4 24  1  0
  5 25  1  0
  5 26  1  0
  6 27  1  0
  6 28  1  0
  7 29  1  0
  7 30  1  0
 10 31  1  0
 11 32  1  0
 14 33  1  0
M  END
$$$$
