
     RDKit          3D

 49 53  0  0  0  0  0  0  0  0999 V2000
    6.3635   -0.8626   -0.4992 C   0  0  0  0  0  0  0  0  0  0  0  0
    5.1240   -0.1403   -0.0713 C   0  0  0  0  0  0  0  0  0  0  0  0
    5.1825    1.5499    0.1425 S   0  0  0  0  0  0  0  0  0  0  0  0
    3.5418    1.6253    0.5759 C   0  0  0  0  0  0  0  0  0  0  0  0
    2.9917    2.8155    0.8677 N   0  0  0  0  0  0  0  0  0  0  0  0
    1.7017    2.7213    1.1839 C   0  0  0  0  0  0  0  0  0  0  0  0
    0.9615    1.6073    1.2393 N   0  0  0  0  0  0  0  0  0  0  0  0
    1.5479    0.4303    0.9518 C   0  0  0  0  0  0  0  0  0  0  0  0
    0.5644   -1.0390    1.0225 S   0  0  0  0  0  0  0  0  0  0  0  0
   -0.8368   -0.5674    2.1246 C   0  0  0  0  0  0  0  0  0  0  0  0
   -0.3598   -0.2064    3.5301 C   0  0  0  0  0  0  0  0  0  0  0  0
   -1.7557    0.5131    1.5022 C   0  0  0  0  0  0  0  0  0  0  0  0
   -2.1051    1.5054    2.1485 O   0  0  0  0  0  0  0  0  0  0  0  0
   -2.2010    0.2386    0.1948 N   0  0  0  0  0  0  0  0  0  0  0  0
   -2.0212    1.2018   -0.8672 C   0  0  0  0  0  0  0  0  0  0  0  0
   -1.6759    2.5375   -0.5756 C   0  0  0  0  0  0  0  0  0  0  0  0
   -1.4861    3.4944   -1.5804 C   0  0  0  0  0  0  0  0  0  0  0  0
   -1.6297    3.1389   -2.9133 C   0  0  0  0  0  0  0  0  0  0  0  0
   -1.9428    1.8228   -3.2349 C   0  0  0  0  0  0  0  0  0  0  0  0
   -2.1311    0.8566   -2.2266 C   0  0  0  0  0  0  0  0  0  0  0  0
   -2.3988   -0.8073   -2.7836 S   0  0  0  0  0  0  0  0  0  0  0  0
   -3.1661   -1.4858   -1.3419 C   0  0  0  0  0  0  0  0  0  0  0  0
   -3.9498   -2.6396   -1.5251 C   0  0  0  0  0  0  0  0  0  0  0  0
   -4.5997   -3.2418   -0.4507 C   0  0  0  0  0  0  0  0  0  0  0  0
   -4.4830   -2.6860    0.8159 C   0  0  0  0  0  0  0  0  0  0  0  0
   -3.7013   -1.5424    1.0036 C   0  0  0  0  0  0  0  0  0  0  0  0
   -3.0006   -0.9342   -0.0628 C   0  0  0  0  0  0  0  0  0  0  0  0
    2.9129    0.3848    0.5845 C   0  0  0  0  0  0  0  0  0  0  0  0
    3.8612   -0.6639    0.2072 C   0  0  0  0  0  0  0  0  0  0  0  0
    3.5379   -2.1249    0.1163 C   0  0  0  0  0  0  0  0  0  0  0  0
    6.7256   -1.5022    0.3141 H   0  0  0  0  0  0  0  0  0  0  0  0
    7.1710   -0.1799   -0.7837 H   0  0  0  0  0  0  0  0  0  0  0  0
    6.1527   -1.4953   -1.3701 H   0  0  0  0  0  0  0  0  0  0  0  0
    1.1929    3.6486    1.4265 H   0  0  0  0  0  0  0  0  0  0  0  0
   -1.4209   -1.4846    2.2389 H   0  0  0  0  0  0  0  0  0  0  0  0
    0.2525   -1.0064    3.9618 H   0  0  0  0  0  0  0  0  0  0  0  0
    0.2161    0.7237    3.5575 H   0  0  0  0  0  0  0  0  0  0  0  0
   -1.2216   -0.0607    4.1941 H   0  0  0  0  0  0  0  0  0  0  0  0
   -1.5615    2.8854    0.4483 H   0  0  0  0  0  0  0  0  0  0  0  0
   -1.2333    4.5175   -1.3111 H   0  0  0  0  0  0  0  0  0  0  0  0
   -1.4915    3.8777   -3.6992 H   0  0  0  0  0  0  0  0  0  0  0  0
   -2.0336    1.5476   -4.2851 H   0  0  0  0  0  0  0  0  0  0  0  0
   -4.0630   -3.0752   -2.5180 H   0  0  0  0  0  0  0  0  0  0  0  0
   -5.2064   -4.1302   -0.6085 H   0  0  0  0  0  0  0  0  0  0  0  0
   -5.0087   -3.1301    1.6596 H   0  0  0  0  0  0  0  0  0  0  0  0
   -3.6895   -1.1119    2.0040 H   0  0  0  0  0  0  0  0  0  0  0  0
    4.4150   -2.7233   -0.1492 H   0  0  0  0  0  0  0  0  0  0  0  0
    3.1769   -2.5006    1.0794 H   0  0  0  0  0  0  0  0  0  0  0  0
    2.7806   -2.3022   -0.6533 H   0  0  0  0  0  0  0  0  0  0  0  0
  1  2  1  0
  2  3  1  0
  3  4  1  0
  4  5  2  0
  5  6  1  0
  6  7  2  0
  7  8  1  0
  8  9  1  0
  9 10  1  0
 10 11  1  0
 10 12  1  0
 12 13  2  0
 12 14  1  0
 14 15  1  0
 15 16  2  0
 16 17  1  0
 17 18  2  0
 18 19  1  0
 19 20  2  0
 20 21  1  0
 21 22  1  0
 22 23  2  0
 23 24  1  0
 24 25  2  0
 25 26  1  0
 26 27  2  0
  8 28  2  0
 28 29  1  0
 29 30  1  0
 29  2  2  0
 28  4  1  0
 27 14  1  0
 20 15  1  0
 27 22  1  0
  1 31  1  0
  1 32  1  0
  1 33  1  0
  6 34  1  0
 10 35  1  0
 11 36  1  0
 11 37  1  0
 11 38  1  0
 16 39  1  0
 17 40  1  0
 18 41  1  0
 19 42  1  0
 23 43  1  0
 24 44  1  0
 25 45  1  0
 26 46  1  0
 30 47  1  0
 30 48  1  0
 30 49  1  0
M  END
$$$$
