
     RDKit          3D

 39 40  0  0  0  0  0  0  0  0999 V2000
    6.1600   -2.6775    1.9770 C   0  0  0  0  0  0  0  0  0  0  0  0
    5.0079   -1.7553    1.7025 C   0  0  0  0  0  0  0  0  0  0  0  0
    4.0594   -1.4884    2.6968 C   0  0  0  0  0  0  0  0  0  0  0  0
    2.9699   -0.6528    2.4331 C   0  0  0  0  0  0  0  0  0  0  0  0
    2.8118   -0.0815    1.1646 C   0  0  0  0  0  0  0  0  0  0  0  0
    1.6709    0.8116    0.8288 C   0  0  0  0  0  0  0  0  0  0  0  0
    1.4524    1.2435   -0.2942 O   0  0  0  0  0  0  0  0  0  0  0  0
    0.9222    1.0726    1.9268 O   0  0  0  0  0  0  0  0  0  0  0  0
   -0.1933    1.9389    1.7156 C   0  0  0  0  0  0  0  0  0  0  0  0
   -1.3876    1.2397    1.0621 C   0  0  0  0  0  0  0  0  0  0  0  0
   -2.3351    0.8122    1.7147 O   0  0  0  0  0  0  0  0  0  0  0  0
   -1.3084    1.1486   -0.3116 N   0  0  0  0  0  0  0  0  0  0  0  0
   -2.2620    0.3755   -1.0875 C   0  0  0  0  0  0  0  0  0  0  0  0
   -3.6836    0.9512   -1.0795 C   0  0  0  0  0  0  0  0  0  0  0  0
   -4.5198    0.3501   -2.1066 N   0  0  0  0  0  0  0  0  0  0  0  0
   -4.6021    0.8277   -3.3915 C   0  0  0  0  0  0  0  0  0  0  0  0
   -3.8906    1.9391   -3.7308 O   0  0  0  0  0  0  0  0  0  0  0  0
   -5.3941    0.1151   -4.2007 C   0  0  0  0  0  0  0  0  0  0  0  0
   -6.0855   -1.2436   -3.3672 S   0  0  0  0  0  0  0  0  0  0  0  0
   -5.2331   -0.8138   -1.8689 C   0  0  0  0  0  0  0  0  0  0  0  0
   -5.2929   -1.4770   -0.8481 O   0  0  0  0  0  0  0  0  0  0  0  0
    3.7498   -0.3619    0.1635 C   0  0  0  0  0  0  0  0  0  0  0  0
    4.8382   -1.1966    0.4303 C   0  0  0  0  0  0  0  0  0  0  0  0
    5.8958   -3.7011    1.6950 H   0  0  0  0  0  0  0  0  0  0  0  0
    7.0468   -2.3698    1.4122 H   0  0  0  0  0  0  0  0  0  0  0  0
    6.4299   -2.6626    3.0382 H   0  0  0  0  0  0  0  0  0  0  0  0
    4.1620   -1.9303    3.6859 H   0  0  0  0  0  0  0  0  0  0  0  0
    2.2511   -0.4637    3.2269 H   0  0  0  0  0  0  0  0  0  0  0  0
    0.0965    2.8216    1.1325 H   0  0  0  0  0  0  0  0  0  0  0  0
   -0.5152    2.3074    2.6958 H   0  0  0  0  0  0  0  0  0  0  0  0
   -0.3811    1.2891   -0.7168 H   0  0  0  0  0  0  0  0  0  0  0  0
   -2.2643   -0.6519   -0.7064 H   0  0  0  0  0  0  0  0  0  0  0  0
   -1.8710    0.3462   -2.1106 H   0  0  0  0  0  0  0  0  0  0  0  0
   -3.6667    2.0383   -1.2175 H   0  0  0  0  0  0  0  0  0  0  0  0
   -4.1520    0.7674   -0.1061 H   0  0  0  0  0  0  0  0  0  0  0  0
   -4.0864    2.1570   -4.6580 H   0  0  0  0  0  0  0  0  0  0  0  0
   -5.5923    0.3152   -5.2432 H   0  0  0  0  0  0  0  0  0  0  0  0
    3.6387    0.0667   -0.8308 H   0  0  0  0  0  0  0  0  0  0  0  0
    5.5539   -1.4066   -0.3622 H   0  0  0  0  0  0  0  0  0  0  0  0
  1  2  1  0
  2  3  2  0
  3  4  1  0
  4  5  2  0
  5  6  1  0
  6  7  2  0
  6  8  1  0
  8  9  1  0
  9 10  1  0
 10 11  2  0
 10 12  1  0
 12 13  1  0
 13 14  1  0
 14 15  1  0
 15 16  1  0
 16 17  1  0
 16 18  2  0
 18 19  1  0
 19 20  1  0
 20 21  2  0
  5 22  1  0
 22 23  2  0
 23  2  1  0
 20 15  1  0
  1 24  1  0
  1 25  1  0
  1 26  1  0
  3 27  1  0
  4 28  1  0
  9 29  1  0
  9 30  1  0
 12 31  1  0
 13 32  1  0
 13 33  1  0
 14 34  1  0
 14 35  1  0
 17 36  1  0
 18 37  1  0
 22 38  1  0
 23 39  1  0
M  END
$$$$
