
     RDKit          3D

 67 72  0  0  0  0  0  0  0  0999 V2000
    3.2096    0.8369   -1.9749 O   0  0  0  0  0  0  0  0  0  0  0  0
    2.7714    1.0335   -0.8378 C   0  0  0  0  0  0  0  0  0  0  0  0
    3.7197    1.4256    0.3068 C   0  0  0  0  0  0  0  0  0  0  0  0
    4.2232    0.1831    1.0689 C   0  0  0  0  0  0  0  0  0  0  0  0
    5.2327   -0.6405    0.3040 C   0  0  0  0  0  0  0  0  0  0  0  0
    6.5428   -0.1765    0.1205 C   0  0  0  0  0  0  0  0  0  0  0  0
    7.4716   -0.9426   -0.5855 C   0  0  0  0  0  0  0  0  0  0  0  0
    7.1010   -2.1778   -1.1140 C   0  0  0  0  0  0  0  0  0  0  0  0
    5.8024   -2.6491   -0.9360 C   0  0  0  0  0  0  0  0  0  0  0  0
    4.8730   -1.8850   -0.2297 C   0  0  0  0  0  0  0  0  0  0  0  0
    3.0650    2.3584    1.2231 N   0  0  0  0  0  0  0  0  0  0  0  0
    1.7985    1.9594    1.6437 C   0  0  0  0  0  0  0  0  0  0  0  0
    1.5050    2.3342    2.8971 N   0  0  0  0  0  0  0  0  0  0  0  0
    0.2725    2.0557    3.3104 C   0  0  0  0  0  0  0  0  0  0  0  0
   -0.6850    1.4876    2.5754 N   0  0  0  0  0  0  0  0  0  0  0  0
   -0.3807    1.1292    1.3067 C   0  0  0  0  0  0  0  0  0  0  0  0
   -1.4708    0.7157    0.5145 N   0  0  0  0  0  0  0  0  0  0  0  0
   -2.0881    1.9037   -0.1546 C   0  0  0  0  0  0  0  0  0  0  0  0
   -3.5397    2.1886    0.2997 C   0  0  0  0  0  0  0  0  0  0  0  0
   -4.3905    0.9976    0.1195 N   0  0  0  0  0  0  0  0  0  0  0  0
   -5.7719    1.0870    0.0298 C   0  0  0  0  0  0  0  0  0  0  0  0
   -6.5457   -0.0004   -0.4116 C   0  0  0  0  0  0  0  0  0  0  0  0
   -7.9404    0.0735   -0.5178 C   0  0  0  0  0  0  0  0  0  0  0  0
   -8.6027    1.2492   -0.1877 C   0  0  0  0  0  0  0  0  0  0  0  0
   -7.8674    2.3465    0.2428 C   0  0  0  0  0  0  0  0  0  0  0  0
   -6.4727    2.2629    0.3450 C   0  0  0  0  0  0  0  0  0  0  0  0
   -3.7530   -0.3016    0.4259 C   0  0  0  0  0  0  0  0  0  0  0  0
   -2.4593   -0.1136    1.2511 C   0  0  0  0  0  0  0  0  0  0  0  0
    0.9175    1.2819    0.7847 C   0  0  0  0  0  0  0  0  0  0  0  0
    1.4214    0.8346   -0.4973 N   0  0  0  0  0  0  0  0  0  0  0  0
    0.6423    0.0796   -1.4673 C   0  0  0  0  0  0  0  0  0  0  0  0
    0.9544   -1.4072   -1.4379 C   0  0  0  0  0  0  0  0  0  0  0  0
    0.5642   -2.2090   -0.3560 C   0  0  0  0  0  0  0  0  0  0  0  0
    0.8576   -3.5753   -0.3396 C   0  0  0  0  0  0  0  0  0  0  0  0
    1.5459   -4.1486   -1.4066 C   0  0  0  0  0  0  0  0  0  0  0  0
    1.9160   -5.8282   -1.3813 Cl  0  0  0  0  0  0  0  0  0  0  0  0
    1.9456   -3.3678   -2.4876 C   0  0  0  0  0  0  0  0  0  0  0  0
    1.6524   -2.0021   -2.5015 C   0  0  0  0  0  0  0  0  0  0  0  0
    4.5614    1.9661   -0.1433 H   0  0  0  0  0  0  0  0  0  0  0  0
    4.6959    0.4908    2.0127 H   0  0  0  0  0  0  0  0  0  0  0  0
    3.3812   -0.4581    1.3633 H   0  0  0  0  0  0  0  0  0  0  0  0
    6.8518    0.7834    0.5277 H   0  0  0  0  0  0  0  0  0  0  0  0
    8.4852   -0.5758   -0.7244 H   0  0  0  0  0  0  0  0  0  0  0  0
    7.8245   -2.7727   -1.6632 H   0  0  0  0  0  0  0  0  0  0  0  0
    5.5106   -3.6118   -1.3485 H   0  0  0  0  0  0  0  0  0  0  0  0
    3.8640   -2.2692   -0.1009 H   0  0  0  0  0  0  0  0  0  0  0  0
    3.6021    2.6692    2.0270 H   0  0  0  0  0  0  0  0  0  0  0  0
    0.0168    2.3303    4.3277 H   0  0  0  0  0  0  0  0  0  0  0  0
   -2.1093    1.6925   -1.2305 H   0  0  0  0  0  0  0  0  0  0  0  0
   -1.4875    2.8150   -0.0291 H   0  0  0  0  0  0  0  0  0  0  0  0
   -3.9098    3.0235   -0.3065 H   0  0  0  0  0  0  0  0  0  0  0  0
   -3.5537    2.4990    1.3522 H   0  0  0  0  0  0  0  0  0  0  0  0
   -6.0685   -0.9278   -0.7143 H   0  0  0  0  0  0  0  0  0  0  0  0
   -8.5027   -0.7878   -0.8689 H   0  0  0  0  0  0  0  0  0  0  0  0
   -9.6842    1.3113   -0.2683 H   0  0  0  0  0  0  0  0  0  0  0  0
   -8.3736    3.2724    0.5022 H   0  0  0  0  0  0  0  0  0  0  0  0
   -5.9474    3.1435    0.7021 H   0  0  0  0  0  0  0  0  0  0  0  0
   -4.4239   -0.9442    1.0090 H   0  0  0  0  0  0  0  0  0  0  0  0
   -3.5203   -0.8135   -0.5160 H   0  0  0  0  0  0  0  0  0  0  0  0
   -2.0226   -1.0975    1.4590 H   0  0  0  0  0  0  0  0  0  0  0  0
   -2.7398    0.3340    2.2141 H   0  0  0  0  0  0  0  0  0  0  0  0
    0.8803    0.4723   -2.4655 H   0  0  0  0  0  0  0  0  0  0  0  0
   -0.4292    0.2186   -1.3936 H   0  0  0  0  0  0  0  0  0  0  0  0
    0.0317   -1.7740    0.4845 H   0  0  0  0  0  0  0  0  0  0  0  0
    0.5492   -4.1829    0.5071 H   0  0  0  0  0  0  0  0  0  0  0  0
    2.4911   -3.8083   -3.3178 H   0  0  0  0  0  0  0  0  0  0  0  0
    1.9889   -1.3973   -3.3428 H   0  0  0  0  0  0  0  0  0  0  0  0
  1  2  2  0
  2  3  1  0
  3  4  1  0
  4  5  1  0
  5  6  2  0
  6  7  1  0
  7  8  2  0
  8  9  1  0
  9 10  2  0
  3 11  1  0
 11 12  1  0
 12 13  2  0
 13 14  1  0
 14 15  2  0
 15 16  1  0
 16 17  1  0
 17 18  1  0
 18 19  1  0
 19 20  1  0
 20 21  1  0
 21 22  2  0
 22 23  1  0
 23 24  2  0
 24 25  1  0
 25 26  2  0
 20 27  1  0
 27 28  1  0
 16 29  2  0
 29 30  1  0
 30 31  1  0
 31 32  1  0
 32 33  2  0
 33 34  1  0
 34 35  2  0
 35 36  1  0
 35 37  1  0
 37 38  2  0
 30  2  1  0
 38 32  1  0
 10  5  1  0
 29 12  1  0
 28 17  1  0
 26 21  1  0
  3 39  1  0
  4 40  1  0
  4 41  1  0
  6 42  1  0
  7 43  1  0
  8 44  1  0
  9 45  1  0
 10 46  1  0
 11 47  1  0
 14 48  1  0
 18 49  1  0
 18 50  1  0
 19 51  1  0
 19 52  1  0
 22 53  1  0
 23 54  1  0
 24 55  1  0
 25 56  1  0
 26 57  1  0
 27 58  1  0
 27 59  1  0
 28 60  1  0
 28 61  1  0
 31 62  1  0
 31 63  1  0
 33 64  1  0
 34 65  1  0
 37 66  1  0
 38 67  1  0
M  END
$$$$
