
     RDKit          3D

 51 53  0  0  0  0  0  0  0  0999 V2000
    4.5526   -3.3581    0.7872 N   0  0  0  0  0  0  0  0  0  0  0  0
    3.9765   -2.3620    0.9382 C   0  0  0  0  0  0  0  0  0  0  0  0
    3.3228   -1.1239    1.1627 C   0  0  0  0  0  0  0  0  0  0  0  0
    2.1071   -0.8063    0.6792 C   0  0  0  0  0  0  0  0  0  0  0  0
    1.2630   -1.6333   -0.1183 C   0  0  0  0  0  0  0  0  0  0  0  0
    1.1768   -3.0110   -0.2969 C   0  0  0  0  0  0  0  0  0  0  0  0
    0.1271   -3.2770   -1.2106 C   0  0  0  0  0  0  0  0  0  0  0  0
   -0.3991   -2.0552   -1.5490 C   0  0  0  0  0  0  0  0  0  0  0  0
   -1.5064   -1.6305   -2.4345 C   0  0  0  0  0  0  0  0  0  0  0  0
   -2.6005   -1.1740   -1.6187 N   0  0  0  0  0  0  0  0  0  0  0  0
   -3.8484   -0.9669   -2.1494 C   0  0  0  0  0  0  0  0  0  0  0  0
   -4.2165   -1.2799   -3.2736 O   0  0  0  0  0  0  0  0  0  0  0  0
   -4.8318   -0.2577   -1.1932 C   0  0  0  0  0  0  0  0  0  0  0  0
   -4.4322    0.1114   -0.0991 O   0  0  0  0  0  0  0  0  0  0  0  0
   -6.0876   -0.1350   -1.7504 N   0  0  0  0  0  0  0  0  0  0  0  0
   -7.2306    0.4541   -1.1829 C   0  0  0  0  0  0  0  0  0  0  0  0
   -8.3988    0.4568   -1.9544 C   0  0  0  0  0  0  0  0  0  0  0  0
   -9.5718    1.0247   -1.4535 C   0  0  0  0  0  0  0  0  0  0  0  0
  -10.9993    1.0156   -2.4154 Cl  0  0  0  0  0  0  0  0  0  0  0  0
   -9.5992    1.5958   -0.1865 C   0  0  0  0  0  0  0  0  0  0  0  0
   -8.4376    1.5926    0.5794 C   0  0  0  0  0  0  0  0  0  0  0  0
   -8.4585    2.2974    2.1505 Cl  0  0  0  0  0  0  0  0  0  0  0  0
   -7.2569    1.0263    0.0909 C   0  0  0  0  0  0  0  0  0  0  0  0
    0.2682   -1.0692   -0.8915 O   0  0  0  0  0  0  0  0  0  0  0  0
    4.0140   -0.0649    1.9744 C   0  0  0  0  0  0  0  0  0  0  0  0
    3.4545    0.9909    2.2606 O   0  0  0  0  0  0  0  0  0  0  0  0
    5.3034   -0.3422    2.3711 N   0  0  0  0  0  0  0  0  0  0  0  0
    6.1066    0.6321    3.0815 C   0  0  0  0  0  0  0  0  0  0  0  0
    7.0048    1.3800    2.1415 C   0  0  0  0  0  0  0  0  0  0  0  0
    6.5277    2.4441    1.3704 C   0  0  0  0  0  0  0  0  0  0  0  0
    7.3852    3.1034    0.4953 C   0  0  0  0  0  0  0  0  0  0  0  0
    8.6987    2.6724    0.4167 C   0  0  0  0  0  0  0  0  0  0  0  0
    9.1962    1.6461    1.1396 N   0  0  0  0  0  0  0  0  0  0  0  0
    8.3405    1.0253    1.9823 C   0  0  0  0  0  0  0  0  0  0  0  0
    1.7034    0.1878    0.8688 H   0  0  0  0  0  0  0  0  0  0  0  0
    1.7870   -3.7645    0.1822 H   0  0  0  0  0  0  0  0  0  0  0  0
   -0.2078   -4.2418   -1.5660 H   0  0  0  0  0  0  0  0  0  0  0  0
   -1.8467   -2.4528   -3.0727 H   0  0  0  0  0  0  0  0  0  0  0  0
   -1.1945   -0.8042   -3.0819 H   0  0  0  0  0  0  0  0  0  0  0  0
   -2.4006   -0.7193   -0.7307 H   0  0  0  0  0  0  0  0  0  0  0  0
   -6.1635   -0.5218   -2.6902 H   0  0  0  0  0  0  0  0  0  0  0  0
   -8.4060    0.0169   -2.9488 H   0  0  0  0  0  0  0  0  0  0  0  0
  -10.5129    2.0377    0.2003 H   0  0  0  0  0  0  0  0  0  0  0  0
   -6.3751    1.0446    0.7237 H   0  0  0  0  0  0  0  0  0  0  0  0
    5.7868   -1.1721    2.0499 H   0  0  0  0  0  0  0  0  0  0  0  0
    5.4691    1.3324    3.6331 H   0  0  0  0  0  0  0  0  0  0  0  0
    6.6969    0.0830    3.8236 H   0  0  0  0  0  0  0  0  0  0  0  0
    5.4894    2.7603    1.4502 H   0  0  0  0  0  0  0  0  0  0  0  0
    7.0370    3.9328   -0.1098 H   0  0  0  0  0  0  0  0  0  0  0  0
    9.4070    3.1549   -0.2507 H   0  0  0  0  0  0  0  0  0  0  0  0
    8.7801    0.2044    2.5432 H   0  0  0  0  0  0  0  0  0  0  0  0
  1  2  3  0
  2  3  1  0
  3  4  2  3
  4  5  1  0
  5  6  2  0
  6  7  1  0
  7  8  2  0
  8  9  1  0
  9 10  1  0
 10 11  1  0
 11 12  2  0
 11 13  1  0
 13 14  2  0
 13 15  1  0
 15 16  1  0
 16 17  2  0
 17 18  1  0
 18 19  1  0
 18 20  2  0
 20 21  1  0
 21 22  1  0
 21 23  2  0
  8 24  1  0
  3 25  1  0
 25 26  2  0
 25 27  1  0
 27 28  1  0
 28 29  1  0
 29 30  2  0
 30 31  1  0
 31 32  2  0
 32 33  1  0
 33 34  2  0
 24  5  1  0
 34 29  1  0
 23 16  1  0
  4 35  1  0
  6 36  1  0
  7 37  1  0
  9 38  1  0
  9 39  1  0
 10 40  1  0
 15 41  1  0
 17 42  1  0
 20 43  1  0
 23 44  1  0
 27 45  1  0
 28 46  1  0
 28 47  1  0
 30 48  1  0
 31 49  1  0
 32 50  1  0
 34 51  1  0
M  END
$$$$
