
     RDKit          3D

 59 63  0  0  0  0  0  0  0  0999 V2000
   -3.8583   -3.0451    1.8193 C   0  0  0  0  0  0  0  0  0  0  0  0
   -5.0801   -2.2001    1.4830 C   0  0  0  0  0  0  0  0  0  0  0  0
   -4.7981   -0.7686    1.0032 C   0  0  0  0  0  0  0  0  0  0  0  0
   -4.2207    0.0637    2.0438 N   0  0  0  0  0  0  0  0  0  0  0  0
   -2.8401    0.0939    2.1382 C   0  0  0  0  0  0  0  0  0  0  0  0
   -2.3921    0.3876    3.3684 N   0  0  0  0  0  0  0  0  0  0  0  0
   -1.0719    0.4872    3.4998 C   0  0  0  0  0  0  0  0  0  0  0  0
   -0.1767    0.3195    2.5255 N   0  0  0  0  0  0  0  0  0  0  0  0
   -0.6445    0.0304    1.2884 C   0  0  0  0  0  0  0  0  0  0  0  0
    0.3390   -0.1677    0.2949 N   0  0  0  0  0  0  0  0  0  0  0  0
    1.1908    1.0461    0.1692 C   0  0  0  0  0  0  0  0  0  0  0  0
    2.4323    0.7768   -0.7104 C   0  0  0  0  0  0  0  0  0  0  0  0
    3.2307   -0.3634   -0.2114 N   0  0  0  0  0  0  0  0  0  0  0  0
    4.6106   -0.1860   -0.1144 C   0  0  0  0  0  0  0  0  0  0  0  0
    5.3253    0.4096   -1.1567 C   0  0  0  0  0  0  0  0  0  0  0  0
    6.7076    0.5685   -1.0599 C   0  0  0  0  0  0  0  0  0  0  0  0
    7.3606    0.1201    0.0761 C   0  0  0  0  0  0  0  0  0  0  0  0
    6.5972   -0.4762    1.0605 C   0  0  0  0  0  0  0  0  0  0  0  0
    5.2569   -0.6397    0.9828 N   0  0  0  0  0  0  0  0  0  0  0  0
    2.6134   -1.1362    0.8837 C   0  0  0  0  0  0  0  0  0  0  0  0
    1.1235   -1.4051    0.5776 C   0  0  0  0  0  0  0  0  0  0  0  0
   -2.0173   -0.1176    1.0241 C   0  0  0  0  0  0  0  0  0  0  0  0
   -2.6356   -0.4643   -0.2373 N   0  0  0  0  0  0  0  0  0  0  0  0
   -1.8872   -0.5104   -1.4892 C   0  0  0  0  0  0  0  0  0  0  0  0
   -1.5424    0.8337   -2.1049 C   0  0  0  0  0  0  0  0  0  0  0  0
   -2.2000    2.0247   -1.7602 C   0  0  0  0  0  0  0  0  0  0  0  0
   -1.8480    3.2348   -2.3656 C   0  0  0  0  0  0  0  0  0  0  0  0
   -0.8465    3.2603   -3.3335 C   0  0  0  0  0  0  0  0  0  0  0  0
   -0.3601    4.8986   -4.1412 Br  0  0  0  0  0  0  0  0  0  0  0  0
   -0.2017    2.0860   -3.7121 C   0  0  0  0  0  0  0  0  0  0  0  0
   -0.5527    0.8787   -3.1043 C   0  0  0  0  0  0  0  0  0  0  0  0
   -4.0059   -0.7391   -0.3111 C   0  0  0  0  0  0  0  0  0  0  0  0
   -4.5808   -1.0151   -1.3694 O   0  0  0  0  0  0  0  0  0  0  0  0
   -3.3076   -2.6368    2.6707 H   0  0  0  0  0  0  0  0  0  0  0  0
   -3.1785   -3.1299    0.9668 H   0  0  0  0  0  0  0  0  0  0  0  0
   -4.1732   -4.0579    2.0918 H   0  0  0  0  0  0  0  0  0  0  0  0
   -5.6465   -2.7260    0.7037 H   0  0  0  0  0  0  0  0  0  0  0  0
   -5.7277   -2.1624    2.3682 H   0  0  0  0  0  0  0  0  0  0  0  0
   -5.7679   -0.3116    0.7649 H   0  0  0  0  0  0  0  0  0  0  0  0
   -4.6476    0.0527    2.9634 H   0  0  0  0  0  0  0  0  0  0  0  0
   -0.6891    0.7257    4.4859 H   0  0  0  0  0  0  0  0  0  0  0  0
    1.5423    1.4025    1.1473 H   0  0  0  0  0  0  0  0  0  0  0  0
    0.6076    1.8597   -0.2770 H   0  0  0  0  0  0  0  0  0  0  0  0
    3.0160    1.7051   -0.7483 H   0  0  0  0  0  0  0  0  0  0  0  0
    2.1162    0.5428   -1.7330 H   0  0  0  0  0  0  0  0  0  0  0  0
    4.8172    0.7324   -2.0591 H   0  0  0  0  0  0  0  0  0  0  0  0
    7.2632    1.0299   -1.8708 H   0  0  0  0  0  0  0  0  0  0  0  0
    8.4334    0.2228    0.1884 H   0  0  0  0  0  0  0  0  0  0  0  0
    7.0538   -0.8546    1.9703 H   0  0  0  0  0  0  0  0  0  0  0  0
    3.1134   -2.1069    0.9923 H   0  0  0  0  0  0  0  0  0  0  0  0
    2.7046   -0.5973    1.8356 H   0  0  0  0  0  0  0  0  0  0  0  0
    0.6860   -2.0040    1.3874 H   0  0  0  0  0  0  0  0  0  0  0  0
    1.0646   -2.0262   -0.3255 H   0  0  0  0  0  0  0  0  0  0  0  0
   -1.0041   -1.1406   -1.3618 H   0  0  0  0  0  0  0  0  0  0  0  0
   -2.4764   -1.0430   -2.2470 H   0  0  0  0  0  0  0  0  0  0  0  0
   -2.9915    2.0283   -1.0139 H   0  0  0  0  0  0  0  0  0  0  0  0
   -2.3632    4.1468   -2.0740 H   0  0  0  0  0  0  0  0  0  0  0  0
    0.5716    2.0976   -4.4752 H   0  0  0  0  0  0  0  0  0  0  0  0
   -0.0436   -0.0348   -3.4077 H   0  0  0  0  0  0  0  0  0  0  0  0
  1  2  1  0
  2  3  1  0
  3  4  1  0
  4  5  1  0
  5  6  2  0
  6  7  1  0
  7  8  2  0
  8  9  1  0
  9 10  1  0
 10 11  1  0
 11 12  1  0
 12 13  1  0
 13 14  1  0
 14 15  2  0
 15 16  1  0
 16 17  2  0
 17 18  1  0
 18 19  2  0
 13 20  1  0
 20 21  1  0
  9 22  2  0
 22 23  1  0
 23 24  1  0
 24 25  1  0
 25 26  2  0
 26 27  1  0
 27 28  2  0
 28 29  1  0
 28 30  1  0
 30 31  2  0
 23 32  1  0
 32 33  2  0
 32  3  1  0
 22  5  1  0
 31 25  1  0
 21 10  1  0
 19 14  1  0
  1 34  1  0
  1 35  1  0
  1 36  1  0
  2 37  1  0
  2 38  1  0
  3 39  1  0
  4 40  1  0
  7 41  1  0
 11 42  1  0
 11 43  1  0
 12 44  1  0
 12 45  1  0
 15 46  1  0
 16 47  1  0
 17 48  1  0
 18 49  1  0
 20 50  1  0
 20 51  1  0
 21 52  1  0
 21 53  1  0
 24 54  1  0
 24 55  1  0
 26 56  1  0
 27 57  1  0
 30 58  1  0
 31 59  1  0
M  END
$$$$
