
     RDKit          3D

 43 46  0  0  0  0  0  0  0  0999 V2000
   -7.7869    0.8949    0.5415 C   0  0  0  0  0  0  0  0  0  0  0  0
   -6.7022    0.3547    1.2854 O   0  0  0  0  0  0  0  0  0  0  0  0
   -5.5419    0.1157    0.6026 C   0  0  0  0  0  0  0  0  0  0  0  0
   -4.5053   -0.4078    1.3785 C   0  0  0  0  0  0  0  0  0  0  0  0
   -3.2638   -0.6992    0.8065 C   0  0  0  0  0  0  0  0  0  0  0  0
   -3.0456   -0.4805   -0.5574 C   0  0  0  0  0  0  0  0  0  0  0  0
   -1.7435   -0.7854   -1.1318 C   0  0  0  0  0  0  0  0  0  0  0  0
   -0.5876   -0.3600   -0.4938 N   0  0  0  0  0  0  0  0  0  0  0  0
    0.4645   -0.7284   -1.1834 C   0  0  0  0  0  0  0  0  0  0  0  0
    1.7246   -0.4086   -0.7666 N   0  0  0  0  0  0  0  0  0  0  0  0
    2.9241   -0.7147   -1.3704 C   0  0  0  0  0  0  0  0  0  0  0  0
    3.0824   -1.3428   -2.4107 O   0  0  0  0  0  0  0  0  0  0  0  0
    4.0667   -0.1774   -0.5915 C   0  0  0  0  0  0  0  0  0  0  0  0
    5.3805   -0.3326   -0.9608 N   0  0  0  0  0  0  0  0  0  0  0  0
    6.0584    0.2799   -0.0187 C   0  0  0  0  0  0  0  0  0  0  0  0
    7.4093    0.4323    0.1116 N   0  0  0  0  0  0  0  0  0  0  0  0
    7.8063    1.0916    1.1547 C   0  0  0  0  0  0  0  0  0  0  0  0
    6.9371    1.6880    2.2063 C   0  0  0  0  0  0  0  0  0  0  0  0
    5.6132    1.5161    2.0416 C   0  0  0  0  0  0  0  0  0  0  0  0
    4.5956    2.0482    3.0013 C   0  0  0  0  0  0  0  0  0  0  0  0
    5.1620    0.8060    0.9204 N   0  0  0  0  0  0  0  0  0  0  0  0
    3.8890    0.5129    0.5533 N   0  0  0  0  0  0  0  0  0  0  0  0
    0.1498   -1.6140   -2.5985 S   0  0  0  0  0  0  0  0  0  0  0  0
   -1.5379   -1.5238   -2.2866 C   0  0  0  0  0  0  0  0  0  0  0  0
   -2.4989   -2.1951   -3.2039 C   0  0  0  0  0  0  0  0  0  0  0  0
   -4.0804    0.0595   -1.3306 C   0  0  0  0  0  0  0  0  0  0  0  0
   -5.3238    0.3522   -0.7548 C   0  0  0  0  0  0  0  0  0  0  0  0
   -8.6306    1.0237    1.2263 H   0  0  0  0  0  0  0  0  0  0  0  0
   -8.1031    0.2083   -0.2508 H   0  0  0  0  0  0  0  0  0  0  0  0
   -7.5349    1.8799    0.1348 H   0  0  0  0  0  0  0  0  0  0  0  0
   -4.6632   -0.5873    2.4391 H   0  0  0  0  0  0  0  0  0  0  0  0
   -2.4675   -1.0985    1.4311 H   0  0  0  0  0  0  0  0  0  0  0  0
    1.7678    0.1237    0.0949 H   0  0  0  0  0  0  0  0  0  0  0  0
    8.8887    1.2423    1.3059 H   0  0  0  0  0  0  0  0  0  0  0  0
    7.3959    2.2167    3.0304 H   0  0  0  0  0  0  0  0  0  0  0  0
    5.0648    2.5826    3.8343 H   0  0  0  0  0  0  0  0  0  0  0  0
    4.0011    1.2320    3.4254 H   0  0  0  0  0  0  0  0  0  0  0  0
    3.9197    2.7480    2.4986 H   0  0  0  0  0  0  0  0  0  0  0  0
   -3.3534   -2.5976   -2.6504 H   0  0  0  0  0  0  0  0  0  0  0  0
   -2.0369   -3.0332   -3.7364 H   0  0  0  0  0  0  0  0  0  0  0  0
   -2.8724   -1.4848   -3.9485 H   0  0  0  0  0  0  0  0  0  0  0  0
   -3.9272    0.2754   -2.3851 H   0  0  0  0  0  0  0  0  0  0  0  0
   -6.0946    0.7698   -1.3936 H   0  0  0  0  0  0  0  0  0  0  0  0
  1  2  1  0
  2  3  1  0
  3  4  2  0
  4  5  1  0
  5  6  2  0
  6  7  1  0
  7  8  1  0
  8  9  2  0
  9 10  1  0
 10 11  1  0
 11 12  2  0
 11 13  1  0
 13 14  1  0
 14 15  2  0
 15 16  1  0
 16 17  2  0
 17 18  1  0
 18 19  2  0
 19 20  1  0
 19 21  1  0
 21 22  1  0
  9 23  1  0
 23 24  1  0
 24 25  1  0
  6 26  1  0
 26 27  2  0
 27  3  1  0
 24  7  2  0
 22 13  2  0
 21 15  1  0
  1 28  1  0
  1 29  1  0
  1 30  1  0
  4 31  1  0
  5 32  1  0
 10 33  1  0
 17 34  1  0
 18 35  1  0
 20 36  1  0
 20 37  1  0
 20 38  1  0
 25 39  1  0
 25 40  1  0
 25 41  1  0
 26 42  1  0
 27 43  1  0
M  END
$$$$
