
     RDKit          3D

 58 60  0  0  0  0  0  0  0  0999 V2000
    6.9613    4.1804    3.2522 C   0  0  0  0  0  0  0  0  0  0  0  0
    6.4236    3.5873    2.0164 C   0  0  0  0  0  0  0  0  0  0  0  0
    5.3520    2.7806    1.7259 C   0  0  0  0  0  0  0  0  0  0  0  0
    5.4160    2.5937    0.3278 C   0  0  0  0  0  0  0  0  0  0  0  0
    4.5810    1.8769   -0.5004 N   0  0  0  0  0  0  0  0  0  0  0  0
    3.4683    1.1771   -0.0943 C   0  0  0  0  0  0  0  0  0  0  0  0
    3.0763    1.0592    1.0624 O   0  0  0  0  0  0  0  0  0  0  0  0
    2.7508    0.5301   -1.2612 C   0  0  0  0  0  0  0  0  0  0  0  0
    1.4474   -0.1258   -0.8171 C   0  0  0  0  0  0  0  0  0  0  0  0
    0.6663   -0.6831   -1.9935 C   0  0  0  0  0  0  0  0  0  0  0  0
    1.1705   -0.7265   -3.1164 O   0  0  0  0  0  0  0  0  0  0  0  0
   -0.6135   -1.1542   -1.7320 N   0  0  0  0  0  0  0  0  0  0  0  0
   -1.2393   -1.1282   -0.4057 C   0  0  0  0  0  0  0  0  0  0  0  0
   -2.0012    0.1766   -0.1341 C   0  0  0  0  0  0  0  0  0  0  0  0
   -2.3677    0.9434   -1.0200 O   0  0  0  0  0  0  0  0  0  0  0  0
   -2.2623    0.3929    1.2067 N   0  0  0  0  0  0  0  0  0  0  0  0
   -3.0622    1.5275    1.6484 C   0  0  0  0  0  0  0  0  0  0  0  0
   -2.7918    1.8523    3.1204 C   0  0  0  0  0  0  0  0  0  0  0  0
   -3.9178    1.1954    3.9246 C   0  0  0  0  0  0  0  0  0  0  0  0
   -4.7890    0.4575    2.9156 C   0  0  0  0  0  0  0  0  0  0  0  0
   -4.5541    1.2002    1.6081 C   0  0  0  0  0  0  0  0  0  0  0  0
   -1.4600   -1.5433   -2.8597 C   0  0  0  0  0  0  0  0  0  0  0  0
   -1.6929   -3.0372   -2.9033 C   0  0  0  0  0  0  0  0  0  0  0  0
   -2.9642   -3.5733   -2.6388 C   0  0  0  0  0  0  0  0  0  0  0  0
   -3.1683   -4.9537   -2.6753 C   0  0  0  0  0  0  0  0  0  0  0  0
   -2.1054   -5.7969   -2.9782 C   0  0  0  0  0  0  0  0  0  0  0  0
   -2.3040   -7.1211   -3.0119 F   0  0  0  0  0  0  0  0  0  0  0  0
   -0.8406   -5.2867   -3.2479 C   0  0  0  0  0  0  0  0  0  0  0  0
   -0.6335   -3.9074   -3.2106 C   0  0  0  0  0  0  0  0  0  0  0  0
    6.4638    3.2424   -0.1931 N   0  0  0  0  0  0  0  0  0  0  0  0
    7.0943    3.8655    0.8680 O   0  0  0  0  0  0  0  0  0  0  0  0
    7.0049    5.2708    3.1677 H   0  0  0  0  0  0  0  0  0  0  0  0
    7.9713    3.8086    3.4482 H   0  0  0  0  0  0  0  0  0  0  0  0
    6.3331    3.9318    4.1131 H   0  0  0  0  0  0  0  0  0  0  0  0
    4.6286    2.3904    2.4258 H   0  0  0  0  0  0  0  0  0  0  0  0
    4.8404    1.9123   -1.4773 H   0  0  0  0  0  0  0  0  0  0  0  0
    3.4184   -0.2154   -1.7080 H   0  0  0  0  0  0  0  0  0  0  0  0
    2.5469    1.2995   -2.0151 H   0  0  0  0  0  0  0  0  0  0  0  0
    1.6696   -0.9459   -0.1250 H   0  0  0  0  0  0  0  0  0  0  0  0
    0.8310    0.6170   -0.2993 H   0  0  0  0  0  0  0  0  0  0  0  0
   -1.9441   -1.9612   -0.3191 H   0  0  0  0  0  0  0  0  0  0  0  0
   -0.4788   -1.2643    0.3683 H   0  0  0  0  0  0  0  0  0  0  0  0
   -2.0851   -0.3529    1.8680 H   0  0  0  0  0  0  0  0  0  0  0  0
   -2.8299    2.3827    1.0049 H   0  0  0  0  0  0  0  0  0  0  0  0
   -1.8072    1.5099    3.4548 H   0  0  0  0  0  0  0  0  0  0  0  0
   -2.8290    2.9372    3.2770 H   0  0  0  0  0  0  0  0  0  0  0  0
   -3.5309    0.5166    4.6918 H   0  0  0  0  0  0  0  0  0  0  0  0
   -4.5029    1.9686    4.4367 H   0  0  0  0  0  0  0  0  0  0  0  0
   -4.4585   -0.5851    2.8266 H   0  0  0  0  0  0  0  0  0  0  0  0
   -5.8439    0.4505    3.2063 H   0  0  0  0  0  0  0  0  0  0  0  0
   -4.8475    0.6014    0.7407 H   0  0  0  0  0  0  0  0  0  0  0  0
   -5.1408    2.1269    1.6003 H   0  0  0  0  0  0  0  0  0  0  0  0
   -2.4118   -1.0054   -2.7814 H   0  0  0  0  0  0  0  0  0  0  0  0
   -1.0172   -1.2330   -3.8137 H   0  0  0  0  0  0  0  0  0  0  0  0
   -3.8014   -2.9181   -2.4083 H   0  0  0  0  0  0  0  0  0  0  0  0
   -4.1481   -5.3761   -2.4750 H   0  0  0  0  0  0  0  0  0  0  0  0
   -0.0264   -5.9627   -3.4892 H   0  0  0  0  0  0  0  0  0  0  0  0
    0.3558   -3.5054   -3.4276 H   0  0  0  0  0  0  0  0  0  0  0  0
  1  2  1  0
  2  3  2  0
  3  4  1  0
  4  5  1  0
  5  6  1  0
  6  7  2  0
  6  8  1  0
  8  9  1  0
  9 10  1  0
 10 11  2  0
 10 12  1  0
 12 13  1  0
 13 14  1  0
 14 15  2  0
 14 16  1  0
 16 17  1  0
 17 18  1  0
 18 19  1  0
 19 20  1  0
 20 21  1  0
 12 22  1  0
 22 23  1  0
 23 24  2  0
 24 25  1  0
 25 26  2  0
 26 27  1  0
 26 28  1  0
 28 29  2  0
  4 30  2  0
 30 31  1  0
 31  2  1  0
 21 17  1  0
 29 23  1  0
  1 32  1  0
  1 33  1  0
  1 34  1  0
  3 35  1  0
  5 36  1  0
  8 37  1  0
  8 38  1  0
  9 39  1  0
  9 40  1  0
 13 41  1  0
 13 42  1  0
 16 43  1  0
 17 44  1  0
 18 45  1  0
 18 46  1  0
 19 47  1  0
 19 48  1  0
 20 49  1  0
 20 50  1  0
 21 51  1  0
 21 52  1  0
 22 53  1  0
 22 54  1  0
 24 55  1  0
 25 56  1  0
 28 57  1  0
 29 58  1  0
M  END
$$$$
