
     RDKit          3D

 44 46  0  0  0  0  0  0  0  0999 V2000
    5.2685    2.7714   -1.4456 C   0  0  0  0  0  0  0  0  0  0  0  0
    6.2335    1.8518   -0.9555 O   0  0  0  0  0  0  0  0  0  0  0  0
    5.7929    0.8542   -0.1260 C   0  0  0  0  0  0  0  0  0  0  0  0
    4.4821    0.7214    0.3437 C   0  0  0  0  0  0  0  0  0  0  0  0
    4.1304   -0.3435    1.1879 C   0  0  0  0  0  0  0  0  0  0  0  0
    2.7625   -0.4880    1.6981 C   0  0  0  0  0  0  0  0  0  0  0  0
    1.6711   -0.7412    0.9633 C   0  0  0  0  0  0  0  0  0  0  0  0
    1.5670   -0.9792   -0.7431 S   0  0  0  0  0  0  0  0  0  0  0  0
   -0.1782   -1.2199   -0.7084 C   0  0  0  0  0  0  0  0  0  0  0  0
   -1.0914   -1.5357   -2.0652 S   0  0  0  0  0  0  0  0  0  0  0  0
   -0.6051   -1.1286    0.5986 N   0  0  0  0  0  0  0  0  0  0  0  0
   -2.0747   -1.1678    0.9878 N   0  0  0  0  0  0  0  0  0  0  0  0
   -2.7682    0.3947    1.1019 S   0  0  0  0  0  6  0  0  0  0  0  0
   -1.8979    1.3272    0.4158 O   0  0  0  0  0  0  0  0  0  0  0  0
   -3.1405    0.5764    2.4873 O   0  0  0  0  0  0  0  0  0  0  0  0
   -4.2521    0.1895    0.1560 C   0  0  0  0  0  0  0  0  0  0  0  0
   -5.3864   -0.3515    0.7675 C   0  0  0  0  0  0  0  0  0  0  0  0
   -6.5633   -0.4947    0.0305 C   0  0  0  0  0  0  0  0  0  0  0  0
   -6.6181   -0.0817   -1.3076 C   0  0  0  0  0  0  0  0  0  0  0  0
   -7.8741   -0.2689   -2.1078 C   0  0  0  0  0  0  0  0  0  0  0  0
   -5.4731    0.4611   -1.9064 C   0  0  0  0  0  0  0  0  0  0  0  0
   -4.2935    0.6094   -1.1749 C   0  0  0  0  0  0  0  0  0  0  0  0
    0.3281   -0.8761    1.5872 C   0  0  0  0  0  0  0  0  0  0  0  0
    0.0969   -0.8034    2.7861 O   0  0  0  0  0  0  0  0  0  0  0  0
    5.1045   -1.2671    1.5807 C   0  0  0  0  0  0  0  0  0  0  0  0
    6.4160   -1.1421    1.1222 C   0  0  0  0  0  0  0  0  0  0  0  0
    6.7516   -0.0872    0.2740 C   0  0  0  0  0  0  0  0  0  0  0  0
    8.0386    0.0363   -0.1780 O   0  0  0  0  0  0  0  0  0  0  0  0
    4.8371    3.3610   -0.6302 H   0  0  0  0  0  0  0  0  0  0  0  0
    5.7791    3.4639   -2.1217 H   0  0  0  0  0  0  0  0  0  0  0  0
    4.4890    2.2601   -2.0203 H   0  0  0  0  0  0  0  0  0  0  0  0
    3.7177    1.4410    0.0690 H   0  0  0  0  0  0  0  0  0  0  0  0
    2.6728   -0.3866    2.7795 H   0  0  0  0  0  0  0  0  0  0  0  0
   -2.1936   -1.6022    1.9120 H   0  0  0  0  0  0  0  0  0  0  0  0
   -5.3661   -0.6600    1.8102 H   0  0  0  0  0  0  0  0  0  0  0  0
   -7.4416   -0.9257    0.5072 H   0  0  0  0  0  0  0  0  0  0  0  0
   -8.7596   -0.1929   -1.4681 H   0  0  0  0  0  0  0  0  0  0  0  0
   -7.9643    0.5028   -2.8795 H   0  0  0  0  0  0  0  0  0  0  0  0
   -7.8677   -1.2518   -2.5887 H   0  0  0  0  0  0  0  0  0  0  0  0
   -5.4948    0.7751   -2.9483 H   0  0  0  0  0  0  0  0  0  0  0  0
   -3.4190    1.0451   -1.6529 H   0  0  0  0  0  0  0  0  0  0  0  0
    4.8503   -2.0920    2.2428 H   0  0  0  0  0  0  0  0  0  0  0  0
    7.1583   -1.8700    1.4342 H   0  0  0  0  0  0  0  0  0  0  0  0
    8.5754   -0.6845    0.1848 H   0  0  0  0  0  0  0  0  0  0  0  0
  1  2  1  0
  2  3  1  0
  3  4  2  0
  4  5  1  0
  5  6  1  0
  6  7  2  3
  7  8  1  0
  8  9  1  0
  9 10  2  0
  9 11  1  0
 11 12  1  0
 12 13  1  0
 13 14  2  0
 13 15  2  0
 13 16  1  0
 16 17  2  0
 17 18  1  0
 18 19  2  0
 19 20  1  0
 19 21  1  0
 21 22  2  0
 11 23  1  0
 23 24  2  0
  5 25  2  0
 25 26  1  0
 26 27  2  0
 27 28  1  0
 27  3  1  0
 23  7  1  0
 22 16  1  0
  1 29  1  0
  1 30  1  0
  1 31  1  0
  4 32  1  0
  6 33  1  0
 12 34  1  0
 17 35  1  0
 18 36  1  0
 20 37  1  0
 20 38  1  0
 20 39  1  0
 21 40  1  0
 22 41  1  0
 25 42  1  0
 26 43  1  0
 28 44  1  0
M  END
$$$$
