
     RDKit          3D

 36 37  0  0  0  0  0  0  0  0999 V2000
    4.1522   -0.3900    1.5870 C   0  0  0  0  0  0  0  0  0  0  0  0
    4.5314    0.2000    0.2829 N   0  0  0  0  0  0  0  0  0  0  0  0
    6.0025    0.2905    0.1383 C   0  0  0  0  0  0  0  0  0  0  0  0
    3.7720   -0.5055   -1.0798 S   0  0  0  0  0  6  0  0  0  0  0  0
    3.9092   -1.9418   -0.9561 O   0  0  0  0  0  0  0  0  0  0  0  0
    4.2174    0.1927   -2.2662 O   0  0  0  0  0  0  0  0  0  0  0  0
    2.0630   -0.0818   -0.8408 C   0  0  0  0  0  0  0  0  0  0  0  0
    1.1066   -1.0862   -0.6704 C   0  0  0  0  0  0  0  0  0  0  0  0
   -0.2337   -0.7354   -0.4825 C   0  0  0  0  0  0  0  0  0  0  0  0
   -0.6164    0.6152   -0.4692 C   0  0  0  0  0  0  0  0  0  0  0  0
   -2.0277    1.0423   -0.2658 C   0  0  0  0  0  0  0  0  0  0  0  0
   -2.3738    2.2091   -0.1792 O   0  0  0  0  0  0  0  0  0  0  0  0
   -2.8532   -0.0334   -0.2168 O   0  0  0  0  0  0  0  0  0  0  0  0
   -4.1982    0.2820    0.1097 C   0  0  0  0  0  0  0  0  0  0  0  0
   -5.1102   -0.8556   -0.2866 C   0  0  0  0  0  0  0  0  0  0  0  0
   -6.2967   -0.6225    0.6123 C   0  0  0  0  0  0  0  0  0  0  0  0
   -5.7511   -0.1265    1.8361 O   0  0  0  0  0  0  0  0  0  0  0  0
   -4.4893    0.3564    1.5994 C   0  0  0  0  0  0  0  0  0  0  0  0
   -3.7388    0.7560    2.4745 O   0  0  0  0  0  0  0  0  0  0  0  0
    0.3557    1.6123   -0.6459 C   0  0  0  0  0  0  0  0  0  0  0  0
    1.6954    1.2667   -0.8358 C   0  0  0  0  0  0  0  0  0  0  0  0
    4.5828    0.2060    2.3986 H   0  0  0  0  0  0  0  0  0  0  0  0
    3.0683   -0.3763    1.7256 H   0  0  0  0  0  0  0  0  0  0  0  0
    4.5204   -1.4162    1.6783 H   0  0  0  0  0  0  0  0  0  0  0  0
    6.2658    0.8792   -0.7452 H   0  0  0  0  0  0  0  0  0  0  0  0
    6.4518   -0.7046    0.0658 H   0  0  0  0  0  0  0  0  0  0  0  0
    6.4319    0.8045    1.0045 H   0  0  0  0  0  0  0  0  0  0  0  0
    1.3926   -2.1360   -0.6822 H   0  0  0  0  0  0  0  0  0  0  0  0
   -0.9671   -1.5264   -0.3446 H   0  0  0  0  0  0  0  0  0  0  0  0
   -4.5368    1.2111   -0.3667 H   0  0  0  0  0  0  0  0  0  0  0  0
   -5.3683   -0.8535   -1.3494 H   0  0  0  0  0  0  0  0  0  0  0  0
   -4.6379   -1.8210   -0.0647 H   0  0  0  0  0  0  0  0  0  0  0  0
   -6.8504   -1.5460    0.8041 H   0  0  0  0  0  0  0  0  0  0  0  0
   -6.9851    0.1271    0.2078 H   0  0  0  0  0  0  0  0  0  0  0  0
    0.0714    2.6638   -0.6361 H   0  0  0  0  0  0  0  0  0  0  0  0
    2.4443    2.0438   -0.9764 H   0  0  0  0  0  0  0  0  0  0  0  0
  1  2  1  0
  2  3  1  0
  2  4  1  0
  4  5  2  0
  4  6  2  0
  4  7  1  0
  7  8  2  0
  8  9  1  0
  9 10  2  0
 10 11  1  0
 11 12  2  0
 11 13  1  0
 13 14  1  0
 14 15  1  0
 15 16  1  0
 16 17  1  0
 17 18  1  0
 18 19  2  0
 10 20  1  0
 20 21  2  0
 21  7  1  0
 18 14  1  0
  1 22  1  0
  1 23  1  0
  1 24  1  0
  3 25  1  0
  3 26  1  0
  3 27  1  0
  8 28  1  0
  9 29  1  0
 14 30  1  0
 15 31  1  0
 15 32  1  0
 16 33  1  0
 16 34  1  0
 20 35  1  0
 21 36  1  0
M  END
$$$$
