
     RDKit          3D

 69 74  0  0  0  0  0  0  0  0999 V2000
    7.4453   -1.9325   -0.8254 C   0  0  0  0  0  0  0  0  0  0  0  0
    6.8016   -1.8585    0.4368 O   0  0  0  0  0  0  0  0  0  0  0  0
    5.4460   -1.6466    0.4518 C   0  0  0  0  0  0  0  0  0  0  0  0
    4.6561   -1.4717   -0.6905 C   0  0  0  0  0  0  0  0  0  0  0  0
    3.2750   -1.2411   -0.5803 C   0  0  0  0  0  0  0  0  0  0  0  0
    2.6722   -1.1813    0.6892 C   0  0  0  0  0  0  0  0  0  0  0  0
    3.4638   -1.3710    1.8320 C   0  0  0  0  0  0  0  0  0  0  0  0
    4.8436   -1.5815    1.7212 C   0  0  0  0  0  0  0  0  0  0  0  0
    5.6638   -1.7744    2.8079 O   0  0  0  0  0  0  0  0  0  0  0  0
    5.2916   -1.0781    3.9905 C   0  0  0  0  0  0  0  0  0  0  0  0
    1.1746   -0.9867    0.8416 C   0  0  0  0  0  0  0  0  0  0  0  0
    0.6047   -0.3511   -0.3590 N   0  0  0  0  0  0  0  0  0  0  0  0
   -0.7904   -0.2302   -0.1913 C   0  0  0  0  0  0  0  0  0  0  0  0
   -1.5983   -1.2461   -0.5786 N   0  0  0  0  0  0  0  0  0  0  0  0
   -2.9307   -1.1518   -0.4030 C   0  0  0  0  0  0  0  0  0  0  0  0
   -3.7985   -2.2934   -0.9222 C   0  0  0  0  0  0  0  0  0  0  0  0
   -4.0914   -2.2637   -2.3783 N   0  0  0  0  0  0  0  0  0  0  0  0
   -4.9297   -3.4188   -2.7702 C   0  0  0  0  0  0  0  0  0  0  0  0
   -6.4050   -3.3038   -2.3419 C   0  0  0  0  0  0  0  0  0  0  0  0
   -6.9956   -2.0875   -2.8136 O   0  0  0  0  0  0  0  0  0  0  0  0
   -6.2559   -0.9493   -2.3531 C   0  0  0  0  0  0  0  0  0  0  0  0
   -4.7883   -1.0278   -2.8032 C   0  0  0  0  0  0  0  0  0  0  0  0
   -3.5770   -0.1259    0.1654 N   0  0  0  0  0  0  0  0  0  0  0  0
   -2.7592    0.8739    0.5226 C   0  0  0  0  0  0  0  0  0  0  0  0
   -3.4052    2.2806    1.2318 S   0  0  0  0  0  0  0  0  0  0  0  0
   -1.8727    3.0069    1.3265 C   0  0  0  0  0  0  0  0  0  0  0  0
   -0.8661    2.1905    0.8436 C   0  0  0  0  0  0  0  0  0  0  0  0
   -1.3816    0.9193    0.3786 C   0  0  0  0  0  0  0  0  0  0  0  0
    0.5576    2.6638    0.7947 C   0  0  0  0  0  0  0  0  0  0  0  0
    0.7929    3.8501    1.7440 C   0  0  0  0  0  0  0  0  0  0  0  0
   -0.2897    4.9361    1.5794 C   0  0  0  0  0  0  0  0  0  0  0  0
    0.0220    6.1432    2.4629 C   0  0  0  0  0  0  0  0  0  0  0  0
   -1.6919    4.3797    1.9011 C   0  0  0  0  0  0  0  0  0  0  0  0
    0.9492   -1.1042   -1.5769 C   0  0  0  0  0  0  0  0  0  0  0  0
    2.4575   -0.9757   -1.8243 C   0  0  0  0  0  0  0  0  0  0  0  0
    8.5181   -2.0719   -0.6455 H   0  0  0  0  0  0  0  0  0  0  0  0
    7.0869   -2.7971   -1.3970 H   0  0  0  0  0  0  0  0  0  0  0  0
    7.3209   -1.0018   -1.3933 H   0  0  0  0  0  0  0  0  0  0  0  0
    5.0926   -1.4992   -1.6846 H   0  0  0  0  0  0  0  0  0  0  0  0
    2.9852   -1.3616    2.8065 H   0  0  0  0  0  0  0  0  0  0  0  0
    6.1574   -1.0744    4.6598 H   0  0  0  0  0  0  0  0  0  0  0  0
    4.4768   -1.5979    4.5045 H   0  0  0  0  0  0  0  0  0  0  0  0
    5.0231   -0.0355    3.7812 H   0  0  0  0  0  0  0  0  0  0  0  0
    0.9887   -0.3576    1.7213 H   0  0  0  0  0  0  0  0  0  0  0  0
    0.7228   -1.9726    1.0211 H   0  0  0  0  0  0  0  0  0  0  0  0
   -3.2606   -3.2229   -0.6932 H   0  0  0  0  0  0  0  0  0  0  0  0
   -4.7178   -2.3149   -0.3259 H   0  0  0  0  0  0  0  0  0  0  0  0
   -4.8950   -3.4885   -3.8654 H   0  0  0  0  0  0  0  0  0  0  0  0
   -4.4992   -4.3531   -2.3923 H   0  0  0  0  0  0  0  0  0  0  0  0
   -6.9795   -4.1327   -2.7687 H   0  0  0  0  0  0  0  0  0  0  0  0
   -6.5172   -3.3589   -1.2526 H   0  0  0  0  0  0  0  0  0  0  0  0
   -6.3474   -0.8739   -1.2641 H   0  0  0  0  0  0  0  0  0  0  0  0
   -6.7266   -0.0589   -2.7827 H   0  0  0  0  0  0  0  0  0  0  0  0
   -4.7685   -1.0128   -3.9009 H   0  0  0  0  0  0  0  0  0  0  0  0
   -4.2422   -0.1309   -2.4940 H   0  0  0  0  0  0  0  0  0  0  0  0
    0.7890    2.9710   -0.2347 H   0  0  0  0  0  0  0  0  0  0  0  0
    1.2535    1.8623    1.0604 H   0  0  0  0  0  0  0  0  0  0  0  0
    0.7960    3.4892    2.7818 H   0  0  0  0  0  0  0  0  0  0  0  0
    1.7881    4.2709    1.5498 H   0  0  0  0  0  0  0  0  0  0  0  0
   -0.2821    5.2654    0.5318 H   0  0  0  0  0  0  0  0  0  0  0  0
   -0.7298    6.9347    2.3422 H   0  0  0  0  0  0  0  0  0  0  0  0
    0.0372    5.8591    3.5221 H   0  0  0  0  0  0  0  0  0  0  0  0
    1.0020    6.5680    2.2172 H   0  0  0  0  0  0  0  0  0  0  0  0
   -1.8521    4.3352    2.9895 H   0  0  0  0  0  0  0  0  0  0  0  0
   -2.4431    5.0662    1.4908 H   0  0  0  0  0  0  0  0  0  0  0  0
    0.6829   -2.1660   -1.4718 H   0  0  0  0  0  0  0  0  0  0  0  0
    0.4145   -0.7073   -2.4494 H   0  0  0  0  0  0  0  0  0  0  0  0
    2.7506   -1.6692   -2.6221 H   0  0  0  0  0  0  0  0  0  0  0  0
    2.6845    0.0465   -2.1606 H   0  0  0  0  0  0  0  0  0  0  0  0
  1  2  1  0
  2  3  1  0
  3  4  2  0
  4  5  1  0
  5  6  2  0
  6  7  1  0
  7  8  2  0
  8  9  1  0
  9 10  1  0
  6 11  1  0
 11 12  1  0
 12 13  1  0
 13 14  2  0
 14 15  1  0
 15 16  1  0
 16 17  1  0
 17 18  1  0
 18 19  1  0
 19 20  1  0
 20 21  1  0
 21 22  1  0
 15 23  2  0
 23 24  1  0
 24 25  1  0
 25 26  1  0
 26 27  2  0
 27 28  1  0
 27 29  1  0
 29 30  1  0
 30 31  1  0
 31 32  1  0
 31 33  1  0
 12 34  1  0
 34 35  1  0
  8  3  1  0
 28 13  1  0
 35  5  1  0
 22 17  1  0
 28 24  2  0
 33 26  1  0
  1 36  1  0
  1 37  1  0
  1 38  1  0
  4 39  1  0
  7 40  1  0
 10 41  1  0
 10 42  1  0
 10 43  1  0
 11 44  1  0
 11 45  1  0
 16 46  1  0
 16 47  1  0
 18 48  1  0
 18 49  1  0
 19 50  1  0
 19 51  1  0
 21 52  1  0
 21 53  1  0
 22 54  1  0
 22 55  1  0
 29 56  1  0
 29 57  1  0
 30 58  1  0
 30 59  1  0
 31 60  1  0
 32 61  1  0
 32 62  1  0
 32 63  1  0
 33 64  1  0
 33 65  1  0
 34 66  1  0
 34 67  1  0
 35 68  1  0
 35 69  1  0
M  END
$$$$
