
     RDKit          3D

 35 36  0  0  0  0  0  0  0  0999 V2000
    2.9821    1.8370   -0.8648 C   0  0  0  0  0  0  0  0  0  0  0  0
    2.6468    1.0025    0.2860 N   0  0  0  0  0  0  0  0  0  0  0  0
    1.4109    0.2287    0.0939 C   0  0  0  0  0  0  0  0  0  0  0  0
    0.1589    1.1089    0.0458 C   0  0  0  0  0  0  0  0  0  0  0  0
   -1.1056    0.2563   -0.0207 C   0  0  0  0  0  0  0  0  0  0  0  0
   -2.2325    1.1413   -0.0945 O   0  0  0  0  0  0  0  0  0  0  0  0
   -3.4031    0.4357    0.0024 C   0  0  0  0  0  0  0  0  0  0  0  0
   -3.9470   -0.1172   -1.1589 C   0  0  0  0  0  0  0  0  0  0  0  0
   -5.1584   -0.8069   -1.0949 C   0  0  0  0  0  0  0  0  0  0  0  0
   -5.8245   -0.9259    0.1256 C   0  0  0  0  0  0  0  0  0  0  0  0
   -7.3182   -1.7773    0.1987 Cl  0  0  0  0  0  0  0  0  0  0  0  0
   -5.2968   -0.3574    1.2841 C   0  0  0  0  0  0  0  0  0  0  0  0
   -4.0858    0.3326    1.2201 C   0  0  0  0  0  0  0  0  0  0  0  0
   -3.4590    1.0386    2.6644 Cl  0  0  0  0  0  0  0  0  0  0  0  0
    3.7693    0.1479    0.7039 C   0  0  0  0  0  0  0  0  0  0  0  0
    4.1878   -0.9012   -0.2807 C   0  0  0  0  0  0  0  0  0  0  0  0
    4.8322   -2.1792    0.1930 C   0  0  0  0  0  0  0  0  0  0  0  0
    3.4599   -2.1353   -0.2231 O   0  0  0  0  0  0  0  0  0  0  0  0
    2.2363    2.6251   -1.0088 H   0  0  0  0  0  0  0  0  0  0  0  0
    3.0542    1.2618   -1.7941 H   0  0  0  0  0  0  0  0  0  0  0  0
    3.9355    2.3539   -0.7060 H   0  0  0  0  0  0  0  0  0  0  0  0
    1.2908   -0.4663    0.9353 H   0  0  0  0  0  0  0  0  0  0  0  0
    1.4660   -0.3781   -0.8187 H   0  0  0  0  0  0  0  0  0  0  0  0
    0.1110    1.7576    0.9297 H   0  0  0  0  0  0  0  0  0  0  0  0
    0.1765    1.7770   -0.8230 H   0  0  0  0  0  0  0  0  0  0  0  0
   -1.1726   -0.3793    0.8716 H   0  0  0  0  0  0  0  0  0  0  0  0
   -1.0772   -0.3809   -0.9133 H   0  0  0  0  0  0  0  0  0  0  0  0
   -3.4335   -0.0049   -2.1100 H   0  0  0  0  0  0  0  0  0  0  0  0
   -5.5802   -1.2413   -1.9978 H   0  0  0  0  0  0  0  0  0  0  0  0
   -5.8270   -0.4466    2.2280 H   0  0  0  0  0  0  0  0  0  0  0  0
    4.6376    0.7827    0.9214 H   0  0  0  0  0  0  0  0  0  0  0  0
    3.5141   -0.3165    1.6657 H   0  0  0  0  0  0  0  0  0  0  0  0
    4.4853   -0.5160   -1.2455 H   0  0  0  0  0  0  0  0  0  0  0  0
    5.5359   -2.6743   -0.4644 H   0  0  0  0  0  0  0  0  0  0  0  0
    5.0301   -2.3106    1.2493 H   0  0  0  0  0  0  0  0  0  0  0  0
  1  2  1  0
  2  3  1  0
  3  4  1  0
  4  5  1  0
  5  6  1  0
  6  7  1  0
  7  8  2  0
  8  9  1  0
  9 10  2  0
 10 11  1  0
 10 12  1  0
 12 13  2  0
 13 14  1  0
  2 15  1  0
 15 16  1  0
 16 17  1  0
 17 18  1  0
 13  7  1  0
 18 16  1  0
  1 19  1  0
  1 20  1  0
  1 21  1  0
  3 22  1  0
  3 23  1  0
  4 24  1  0
  4 25  1  0
  5 26  1  0
  5 27  1  0
  8 28  1  0
  9 29  1  0
 12 30  1  0
 15 31  1  0
 15 32  1  0
 16 33  1  0
 17 34  1  0
 17 35  1  0
M  END
$$$$
