
     RDKit          3D

 46 49  0  0  0  0  0  0  0  0999 V2000
   -5.0386    1.4127   -2.4616 C   0  0  0  0  0  0  0  0  0  0  0  0
   -5.2065    0.2201   -1.7052 O   0  0  0  0  0  0  0  0  0  0  0  0
   -4.1551   -0.1757   -0.9272 C   0  0  0  0  0  0  0  0  0  0  0  0
   -4.3416   -1.3877   -0.2680 C   0  0  0  0  0  0  0  0  0  0  0  0
   -3.3466   -1.9112    0.5604 C   0  0  0  0  0  0  0  0  0  0  0  0
   -2.1388   -1.2268    0.7373 C   0  0  0  0  0  0  0  0  0  0  0  0
   -1.1398   -1.6597    1.5733 O   0  0  0  0  0  0  0  0  0  0  0  0
   -1.1849   -3.0138    2.0050 C   0  0  0  0  0  0  0  0  0  0  0  0
   -1.9282    0.0053    0.0785 C   0  0  0  0  0  0  0  0  0  0  0  0
   -0.6786    0.7682    0.2168 C   0  0  0  0  0  0  0  0  0  0  0  0
   -0.7943    2.0986    0.4406 N   0  0  0  0  0  0  0  0  0  0  0  0
    0.3685    2.7906    0.5385 C   0  0  0  0  0  0  0  0  0  0  0  0
    0.2621    4.2530    0.8003 C   0  0  0  0  0  0  0  0  0  0  0  0
   -1.0102    4.7362    0.9479 N   0  0  0  0  0  0  0  0  0  0  0  0
    1.2446    4.9790    0.8861 O   0  0  0  0  0  0  0  0  0  0  0  0
    1.5837    2.1868    0.4065 C   0  0  0  0  0  0  0  0  0  0  0  0
    2.8819    2.6674    0.4558 N   0  0  0  0  0  0  0  0  0  0  0  0
    3.7635    1.5982    0.2469 C   0  0  0  0  0  0  0  0  0  0  0  0
    4.9766    1.7280    0.2428 O   0  0  0  0  0  0  0  0  0  0  0  0
    2.9554    0.4324    0.0682 N   0  0  0  0  0  0  0  0  0  0  0  0
    3.4058   -0.8969   -0.1658 C   0  0  0  0  0  0  0  0  0  0  0  0
    2.5396   -2.0052   -0.1941 C   0  0  0  0  0  0  0  0  0  0  0  0
    3.0117   -3.3044   -0.4268 C   0  0  0  0  0  0  0  0  0  0  0  0
    4.3636   -3.5178   -0.6330 C   0  0  0  0  0  0  0  0  0  0  0  0
    4.8152   -4.7586   -0.8540 F   0  0  0  0  0  0  0  0  0  0  0  0
    5.2507   -2.4558   -0.6083 C   0  0  0  0  0  0  0  0  0  0  0  0
    4.7736   -1.1591   -0.3754 C   0  0  0  0  0  0  0  0  0  0  0  0
    1.5979    0.8341    0.1692 C   0  0  0  0  0  0  0  0  0  0  0  0
    0.4857    0.1061    0.0491 N   0  0  0  0  0  0  0  0  0  0  0  0
   -2.9581    0.5158   -0.7469 C   0  0  0  0  0  0  0  0  0  0  0  0
   -4.9244    2.2814   -1.8055 H   0  0  0  0  0  0  0  0  0  0  0  0
   -5.9448    1.5612   -3.0565 H   0  0  0  0  0  0  0  0  0  0  0  0
   -4.1957    1.3268   -3.1553 H   0  0  0  0  0  0  0  0  0  0  0  0
   -5.2752   -1.9312   -0.3958 H   0  0  0  0  0  0  0  0  0  0  0  0
   -3.5537   -2.8495    1.0650 H   0  0  0  0  0  0  0  0  0  0  0  0
   -0.2428   -3.2318    2.5173 H   0  0  0  0  0  0  0  0  0  0  0  0
   -1.9967   -3.1670    2.7234 H   0  0  0  0  0  0  0  0  0  0  0  0
   -1.2696   -3.7017    1.1571 H   0  0  0  0  0  0  0  0  0  0  0  0
   -1.1443    5.7076    1.1916 H   0  0  0  0  0  0  0  0  0  0  0  0
   -1.8012    4.1017    0.9466 H   0  0  0  0  0  0  0  0  0  0  0  0
    3.1542    3.6303    0.6165 H   0  0  0  0  0  0  0  0  0  0  0  0
    1.4730   -1.9103   -0.0238 H   0  0  0  0  0  0  0  0  0  0  0  0
    2.3254   -4.1449   -0.4437 H   0  0  0  0  0  0  0  0  0  0  0  0
    6.3095   -2.6321   -0.7705 H   0  0  0  0  0  0  0  0  0  0  0  0
    5.5142   -0.3645   -0.3755 H   0  0  0  0  0  0  0  0  0  0  0  0
   -2.7869    1.4646   -1.2479 H   0  0  0  0  0  0  0  0  0  0  0  0
  1  2  1  0
  2  3  1  0
  3  4  2  0
  4  5  1  0
  5  6  2  0
  6  7  1  0
  7  8  1  0
  6  9  1  0
  9 10  1  0
 10 11  2  0
 11 12  1  0
 12 13  1  0
 13 14  1  0
 13 15  2  0
 12 16  2  0
 16 17  1  0
 17 18  1  0
 18 19  2  0
 18 20  1  0
 20 21  1  0
 21 22  2  0
 22 23  1  0
 23 24  2  0
 24 25  1  0
 24 26  1  0
 26 27  2  0
 20 28  1  0
 28 29  2  0
  9 30  2  0
 30  3  1  0
 29 10  1  0
 28 16  1  0
 27 21  1  0
  1 31  1  0
  1 32  1  0
  1 33  1  0
  4 34  1  0
  5 35  1  0
  8 36  1  0
  8 37  1  0
  8 38  1  0
 14 39  1  0
 14 40  1  0
 17 41  1  0
 22 42  1  0
 23 43  1  0
 26 44  1  0
 27 45  1  0
 30 46  1  0
M  END
$$$$
