
     RDKit          3D

 48 50  0  0  0  0  0  0  0  0999 V2000
   -4.2705    2.8396   -0.6744 C   0  0  0  0  0  0  0  0  0  0  0  0
   -3.8318    1.7328    0.1119 O   0  0  0  0  0  0  0  0  0  0  0  0
   -3.1778    0.7701   -0.5949 C   0  0  0  0  0  0  0  0  0  0  0  0
   -2.9602    0.8070   -1.8020 O   0  0  0  0  0  0  0  0  0  0  0  0
   -2.7628   -0.3880    0.3161 C   0  0  0  0  0  0  0  0  0  0  0  0
   -3.7581   -1.5453    0.1711 C   0  0  0  0  0  0  0  0  0  0  0  0
   -5.1250   -1.2409    0.7353 C   0  0  0  0  0  0  0  0  0  0  0  0
   -5.3336   -1.2248    2.1210 C   0  0  0  0  0  0  0  0  0  0  0  0
   -6.5929   -0.9249    2.6423 C   0  0  0  0  0  0  0  0  0  0  0  0
   -7.6537   -0.6387    1.7853 C   0  0  0  0  0  0  0  0  0  0  0  0
   -7.4568   -0.6524    0.4059 C   0  0  0  0  0  0  0  0  0  0  0  0
   -6.1985   -0.9518   -0.1183 C   0  0  0  0  0  0  0  0  0  0  0  0
   -1.4238   -0.8195   -0.0920 N   0  0  0  0  0  0  0  0  0  0  0  0
   -0.2927   -0.2135    0.4159 C   0  0  0  0  0  0  0  0  0  0  0  0
   -0.3167    0.5492    1.3768 O   0  0  0  0  0  0  0  0  0  0  0  0
    0.9405   -0.5430   -0.3011 C   0  0  0  0  0  0  0  0  0  0  0  0
    2.2501   -0.0824   -0.0199 C   0  0  0  0  0  0  0  0  0  0  0  0
    3.0416   -0.6709   -0.9762 C   0  0  0  0  0  0  0  0  0  0  0  0
    4.4877   -0.6519   -1.3038 C   0  0  0  0  0  0  0  0  0  0  0  0
    5.1194    0.2238   -0.3716 O   0  0  0  0  0  0  0  0  0  0  0  0
    6.4700    0.4078   -0.4914 C   0  0  0  0  0  0  0  0  0  0  0  0
    7.3192   -0.1828   -1.4287 C   0  0  0  0  0  0  0  0  0  0  0  0
    6.8545   -1.0375   -2.3513 F   0  0  0  0  0  0  0  0  0  0  0  0
    8.6888    0.0933   -1.4413 C   0  0  0  0  0  0  0  0  0  0  0  0
    9.2351    0.9722   -0.5077 C   0  0  0  0  0  0  0  0  0  0  0  0
    8.4044    1.5709    0.4359 C   0  0  0  0  0  0  0  0  0  0  0  0
    7.0389    1.2856    0.4364 C   0  0  0  0  0  0  0  0  0  0  0  0
    6.2658    1.8786    1.3594 F   0  0  0  0  0  0  0  0  0  0  0  0
    2.2609   -1.4386   -1.7840 O   0  0  0  0  0  0  0  0  0  0  0  0
    0.9442   -1.3626   -1.3686 N   0  0  0  0  0  0  0  0  0  0  0  0
   -4.7587    3.5564   -0.0086 H   0  0  0  0  0  0  0  0  0  0  0  0
   -4.9978    2.5112   -1.4233 H   0  0  0  0  0  0  0  0  0  0  0  0
   -3.4188    3.3348   -1.1513 H   0  0  0  0  0  0  0  0  0  0  0  0
   -2.7107   -0.0313    1.3513 H   0  0  0  0  0  0  0  0  0  0  0  0
   -3.8518   -1.8359   -0.8844 H   0  0  0  0  0  0  0  0  0  0  0  0
   -3.3679   -2.4364    0.6818 H   0  0  0  0  0  0  0  0  0  0  0  0
   -4.5169   -1.4454    2.8054 H   0  0  0  0  0  0  0  0  0  0  0  0
   -6.7462   -0.9141    3.7184 H   0  0  0  0  0  0  0  0  0  0  0  0
   -8.6339   -0.4053    2.1926 H   0  0  0  0  0  0  0  0  0  0  0  0
   -8.2843   -0.4295   -0.2626 H   0  0  0  0  0  0  0  0  0  0  0  0
   -6.0638   -0.9550   -1.1982 H   0  0  0  0  0  0  0  0  0  0  0  0
   -1.3100   -1.2143   -1.0234 H   0  0  0  0  0  0  0  0  0  0  0  0
    2.5625    0.5862    0.7697 H   0  0  0  0  0  0  0  0  0  0  0  0
    4.6158   -0.2786   -2.3263 H   0  0  0  0  0  0  0  0  0  0  0  0
    4.8878   -1.6674   -1.2045 H   0  0  0  0  0  0  0  0  0  0  0  0
    9.3215   -0.3839   -2.1847 H   0  0  0  0  0  0  0  0  0  0  0  0
   10.3005    1.1886   -0.5156 H   0  0  0  0  0  0  0  0  0  0  0  0
    8.8061    2.2588    1.1741 H   0  0  0  0  0  0  0  0  0  0  0  0
  1  2  1  0
  2  3  1  0
  3  4  2  0
  3  5  1  0
  5  6  1  0
  6  7  1  0
  7  8  2  0
  8  9  1  0
  9 10  2  0
 10 11  1  0
 11 12  2  0
  5 13  1  0
 13 14  1  0
 14 15  2  0
 14 16  1  0
 16 17  1  0
 17 18  2  0
 18 19  1  0
 19 20  1  0
 20 21  1  0
 21 22  2  0
 22 23  1  0
 22 24  1  0
 24 25  2  0
 25 26  1  0
 26 27  2  0
 27 28  1  0
 18 29  1  0
 29 30  1  0
 12  7  1  0
 30 16  2  0
 27 21  1  0
  1 31  1  0
  1 32  1  0
  1 33  1  0
  5 34  1  0
  6 35  1  0
  6 36  1  0
  8 37  1  0
  9 38  1  0
 10 39  1  0
 11 40  1  0
 12 41  1  0
 13 42  1  0
 17 43  1  0
 19 44  1  0
 19 45  1  0
 24 46  1  0
 25 47  1  0
 26 48  1  0
M  END
$$$$
