
     RDKit          3D

 63 67  0  0  0  0  0  0  0  0999 V2000
   -5.2163   -2.9357    2.2748 C   0  0  0  0  0  0  0  0  0  0  0  0
   -4.2582   -3.5765    1.4302 O   0  0  0  0  0  0  0  0  0  0  0  0
   -3.3996   -2.7217    0.8183 C   0  0  0  0  0  0  0  0  0  0  0  0
   -3.4107   -1.5054    0.9403 O   0  0  0  0  0  0  0  0  0  0  0  0
   -2.4202   -3.4538   -0.0416 C   0  0  0  0  0  0  0  0  0  0  0  0
   -2.4057   -4.8616   -0.0523 C   0  0  0  0  0  0  0  0  0  0  0  0
   -1.4851   -5.5579   -0.8352 C   0  0  0  0  0  0  0  0  0  0  0  0
   -0.5613   -4.8574   -1.6008 C   0  0  0  0  0  0  0  0  0  0  0  0
   -0.5655   -3.4603   -1.6010 C   0  0  0  0  0  0  0  0  0  0  0  0
   -1.5053   -2.7395   -0.8507 C   0  0  0  0  0  0  0  0  0  0  0  0
   -1.4840   -1.3187   -0.8240 N   0  0  0  0  0  0  0  0  0  0  0  0
   -1.0735   -0.4045   -1.7840 C   0  0  0  0  0  0  0  0  0  0  0  0
   -1.1315   -0.7211   -3.4389 S   0  0  0  0  0  0  0  0  0  0  0  0
   -0.6511    0.8238   -1.2249 N   0  0  0  0  0  0  0  0  0  0  0  0
   -0.3393    2.0124   -2.0425 C   0  0  0  0  0  0  0  0  0  0  0  0
   -1.3736    3.1053   -1.8727 C   0  0  0  0  0  0  0  0  0  0  0  0
   -2.7030    2.9044   -2.3145 C   0  0  0  0  0  0  0  0  0  0  0  0
   -3.6754    3.8972   -2.1561 C   0  0  0  0  0  0  0  0  0  0  0  0
   -3.2944    5.0757   -1.5544 C   0  0  0  0  0  0  0  0  0  0  0  0
   -2.0053    5.2850   -1.1265 C   0  0  0  0  0  0  0  0  0  0  0  0
   -1.0234    4.3271   -1.2732 C   0  0  0  0  0  0  0  0  0  0  0  0
   -1.8379    6.5127   -0.5653 O   0  0  0  0  0  0  0  0  0  0  0  0
   -3.1791    7.0354   -0.6533 C   0  0  0  0  0  0  0  0  0  0  0  0
   -4.1011    6.1437   -1.3152 O   0  0  0  0  0  0  0  0  0  0  0  0
   -0.3506    0.9767    0.2174 C   0  0  0  0  0  0  0  0  0  0  0  0
    1.0410    0.5149    0.5749 C   0  0  0  0  0  0  0  0  0  0  0  0
    1.9340   -0.0856   -0.2345 C   0  0  0  0  0  0  0  0  0  0  0  0
    3.2553   -0.4808    0.2507 C   0  0  0  0  0  0  0  0  0  0  0  0
    4.1825   -1.1065   -0.5822 C   0  0  0  0  0  0  0  0  0  0  0  0
    5.4372   -1.4615   -0.0803 C   0  0  0  0  0  0  0  0  0  0  0  0
    5.7784   -1.1993    1.2508 C   0  0  0  0  0  0  0  0  0  0  0  0
    7.0398   -1.5943    1.6012 O   0  0  0  0  0  0  0  0  0  0  0  0
    7.4388   -1.3674    2.9478 C   0  0  0  0  0  0  0  0  0  0  0  0
    4.8505   -0.5776    2.0875 C   0  0  0  0  0  0  0  0  0  0  0  0
    3.5973   -0.2226    1.5817 C   0  0  0  0  0  0  0  0  0  0  0  0
    2.6623    0.4043    2.4121 N   0  0  0  0  0  0  0  0  0  0  0  0
    1.4137    0.7857    2.0003 C   0  0  0  0  0  0  0  0  0  0  0  0
    0.6356    1.3349    2.7749 O   0  0  0  0  0  0  0  0  0  0  0  0
   -5.8592   -2.2713    1.6883 H   0  0  0  0  0  0  0  0  0  0  0  0
   -4.7133   -2.3819    3.0727 H   0  0  0  0  0  0  0  0  0  0  0  0
   -5.8398   -3.7103    2.7292 H   0  0  0  0  0  0  0  0  0  0  0  0
   -3.1070   -5.4337    0.5509 H   0  0  0  0  0  0  0  0  0  0  0  0
   -1.4821   -6.6453   -0.8371 H   0  0  0  0  0  0  0  0  0  0  0  0
    0.1737   -5.3948   -2.1954 H   0  0  0  0  0  0  0  0  0  0  0  0
    0.2011   -2.9509   -2.1778 H   0  0  0  0  0  0  0  0  0  0  0  0
   -2.1312   -0.9134   -0.1444 H   0  0  0  0  0  0  0  0  0  0  0  0
   -0.2610    1.7830   -3.1081 H   0  0  0  0  0  0  0  0  0  0  0  0
    0.6544    2.3703   -1.7458 H   0  0  0  0  0  0  0  0  0  0  0  0
   -2.9828    1.9624   -2.7851 H   0  0  0  0  0  0  0  0  0  0  0  0
   -4.6950    3.7435   -2.4916 H   0  0  0  0  0  0  0  0  0  0  0  0
   -0.0162    4.5235   -0.9208 H   0  0  0  0  0  0  0  0  0  0  0  0
   -3.5477    7.2281    0.3620 H   0  0  0  0  0  0  0  0  0  0  0  0
   -3.1497    7.9835   -1.2037 H   0  0  0  0  0  0  0  0  0  0  0  0
   -0.4699    2.0326    0.4839 H   0  0  0  0  0  0  0  0  0  0  0  0
   -1.0790    0.4281    0.8201 H   0  0  0  0  0  0  0  0  0  0  0  0
    1.7061   -0.3009   -1.2715 H   0  0  0  0  0  0  0  0  0  0  0  0
    3.9458   -1.3220   -1.6211 H   0  0  0  0  0  0  0  0  0  0  0  0
    6.1594   -1.9465   -0.7336 H   0  0  0  0  0  0  0  0  0  0  0  0
    8.4640   -1.7339    3.0590 H   0  0  0  0  0  0  0  0  0  0  0  0
    7.4406   -0.2979    3.1852 H   0  0  0  0  0  0  0  0  0  0  0  0
    6.8067   -1.9271    3.6455 H   0  0  0  0  0  0  0  0  0  0  0  0
    5.0820   -0.3602    3.1236 H   0  0  0  0  0  0  0  0  0  0  0  0
    2.8851    0.6049    3.3769 H   0  0  0  0  0  0  0  0  0  0  0  0
  1  2  1  0
  2  3  1  0
  3  4  2  0
  3  5  1  0
  5  6  2  0
  6  7  1  0
  7  8  2  0
  8  9  1  0
  9 10  2  0
 10 11  1  0
 11 12  1  0
 12 13  2  0
 12 14  1  0
 14 15  1  0
 15 16  1  0
 16 17  2  0
 17 18  1  0
 18 19  2  0
 19 20  1  0
 20 21  2  0
 20 22  1  0
 22 23  1  0
 23 24  1  0
 14 25  1  0
 25 26  1  0
 26 27  2  0
 27 28  1  0
 28 29  2  0
 29 30  1  0
 30 31  2  0
 31 32  1  0
 32 33  1  0
 31 34  1  0
 34 35  2  0
 35 36  1  0
 36 37  1  0
 37 38  2  0
 10  5  1  0
 21 16  1  0
 37 26  1  0
 24 19  1  0
 35 28  1  0
  1 39  1  0
  1 40  1  0
  1 41  1  0
  6 42  1  0
  7 43  1  0
  8 44  1  0
  9 45  1  0
 11 46  1  0
 15 47  1  0
 15 48  1  0
 17 49  1  0
 18 50  1  0
 21 51  1  0
 23 52  1  0
 23 53  1  0
 25 54  1  0
 25 55  1  0
 27 56  1  0
 29 57  1  0
 30 58  1  0
 33 59  1  0
 33 60  1  0
 33 61  1  0
 34 62  1  0
 36 63  1  0
M  END
$$$$
