
     RDKit          3D

 54 57  0  0  0  0  0  0  0  0999 V2000
    0.7018   -1.0163   -1.7404 O   0  0  0  0  0  0  0  0  0  0  0  0
   -0.0007   -1.3614   -0.7942 C   0  0  0  0  0  0  0  0  0  0  0  0
   -1.2798   -2.1778   -1.0244 C   0  0  0  0  0  0  0  0  0  0  0  0
   -2.4918   -1.4692   -0.7600 O   0  0  0  0  0  0  0  0  0  0  0  0
   -2.8543   -1.3942    0.5419 C   0  0  0  0  0  0  0  0  0  0  0  0
   -2.2040   -1.8389    1.4772 O   0  0  0  0  0  0  0  0  0  0  0  0
   -4.1490   -0.6808    0.6988 C   0  0  0  0  0  0  0  0  0  0  0  0
   -4.6885   -0.5650    1.9890 C   0  0  0  0  0  0  0  0  0  0  0  0
   -5.9042    0.0937    2.1888 C   0  0  0  0  0  0  0  0  0  0  0  0
   -6.5848    0.6365    1.1018 C   0  0  0  0  0  0  0  0  0  0  0  0
   -6.0374    0.5481   -0.1821 C   0  0  0  0  0  0  0  0  0  0  0  0
   -4.8310   -0.1207   -0.3892 C   0  0  0  0  0  0  0  0  0  0  0  0
   -6.6363    1.0904   -1.2911 O   0  0  0  0  0  0  0  0  0  0  0  0
   -7.6533    2.0320   -0.9280 C   0  0  0  0  0  0  0  0  0  0  0  0
   -8.5376    1.4670    0.1712 C   0  0  0  0  0  0  0  0  0  0  0  0
   -7.7812    1.2501    1.3684 O   0  0  0  0  0  0  0  0  0  0  0  0
    0.2536   -1.1188    0.5442 N   0  0  0  0  0  0  0  0  0  0  0  0
    1.3178   -0.3889    1.1066 C   0  0  0  0  0  0  0  0  0  0  0  0
    1.3711   -0.3220    2.5068 C   0  0  0  0  0  0  0  0  0  0  0  0
    2.3955    0.3733    3.1563 C   0  0  0  0  0  0  0  0  0  0  0  0
    3.3800    1.0145    2.4109 C   0  0  0  0  0  0  0  0  0  0  0  0
    3.3224    0.9567    1.0173 C   0  0  0  0  0  0  0  0  0  0  0  0
    4.5722    1.7604    0.0481 S   0  0  0  0  0  6  0  0  0  0  0  0
    5.6778    2.0989    0.9208 O   0  0  0  0  0  0  0  0  0  0  0  0
    3.9102    2.7693   -0.7496 O   0  0  0  0  0  0  0  0  0  0  0  0
    5.1139    0.5199   -0.9883 N   0  0  0  0  0  0  0  0  0  0  0  0
    5.8146   -0.6171   -0.3114 C   0  0  0  0  0  0  0  0  0  0  0  0
    6.1261   -1.7098   -1.3409 C   0  0  0  0  0  0  0  0  0  0  0  0
    6.9389   -1.2002   -2.4090 O   0  0  0  0  0  0  0  0  0  0  0  0
    6.2585   -0.1298   -3.0834 C   0  0  0  0  0  0  0  0  0  0  0  0
    5.9503    1.0247   -2.1233 C   0  0  0  0  0  0  0  0  0  0  0  0
    2.2984    0.2620    0.3603 C   0  0  0  0  0  0  0  0  0  0  0  0
   -1.2315   -3.1113   -0.4499 H   0  0  0  0  0  0  0  0  0  0  0  0
   -1.3038   -2.4684   -2.0806 H   0  0  0  0  0  0  0  0  0  0  0  0
   -4.1681   -0.9904    2.8451 H   0  0  0  0  0  0  0  0  0  0  0  0
   -6.3236    0.1748    3.1881 H   0  0  0  0  0  0  0  0  0  0  0  0
   -4.4323   -0.1830   -1.3982 H   0  0  0  0  0  0  0  0  0  0  0  0
   -8.2476    2.2398   -1.8234 H   0  0  0  0  0  0  0  0  0  0  0  0
   -7.1689    2.9653   -0.6148 H   0  0  0  0  0  0  0  0  0  0  0  0
   -8.9936    0.5155   -0.1294 H   0  0  0  0  0  0  0  0  0  0  0  0
   -9.3414    2.1704    0.4097 H   0  0  0  0  0  0  0  0  0  0  0  0
   -0.4285   -1.4987    1.2033 H   0  0  0  0  0  0  0  0  0  0  0  0
    0.6124   -0.8141    3.1124 H   0  0  0  0  0  0  0  0  0  0  0  0
    2.4208    0.4143    4.2427 H   0  0  0  0  0  0  0  0  0  0  0  0
    4.1758    1.5579    2.9156 H   0  0  0  0  0  0  0  0  0  0  0  0
    5.1852   -1.0419    0.4752 H   0  0  0  0  0  0  0  0  0  0  0  0
    6.7491   -0.2555    0.1323 H   0  0  0  0  0  0  0  0  0  0  0  0
    5.2057   -2.1324   -1.7615 H   0  0  0  0  0  0  0  0  0  0  0  0
    6.6814   -2.5237   -0.8631 H   0  0  0  0  0  0  0  0  0  0  0  0
    6.9098    0.2202   -3.8908 H   0  0  0  0  0  0  0  0  0  0  0  0
    5.3408   -0.5222   -3.5384 H   0  0  0  0  0  0  0  0  0  0  0  0
    5.4143    1.8059   -2.6708 H   0  0  0  0  0  0  0  0  0  0  0  0
    6.8843    1.4371   -1.7250 H   0  0  0  0  0  0  0  0  0  0  0  0
    2.2906    0.2538   -0.7254 H   0  0  0  0  0  0  0  0  0  0  0  0
  1  2  2  0
  2  3  1  0
  3  4  1  0
  4  5  1  0
  5  6  2  0
  5  7  1  0
  7  8  2  0
  8  9  1  0
  9 10  2  0
 10 11  1  0
 11 12  2  0
 11 13  1  0
 13 14  1  0
 14 15  1  0
 15 16  1  0
  2 17  1  0
 17 18  1  0
 18 19  2  0
 19 20  1  0
 20 21  2  0
 21 22  1  0
 22 23  1  0
 23 24  2  0
 23 25  2  0
 23 26  1  0
 26 27  1  0
 27 28  1  0
 28 29  1  0
 29 30  1  0
 30 31  1  0
 22 32  2  0
 12  7  1  0
 32 18  1  0
 16 10  1  0
 31 26  1  0
  3 33  1  0
  3 34  1  0
  8 35  1  0
  9 36  1  0
 12 37  1  0
 14 38  1  0
 14 39  1  0
 15 40  1  0
 15 41  1  0
 17 42  1  0
 19 43  1  0
 20 44  1  0
 21 45  1  0
 27 46  1  0
 27 47  1  0
 28 48  1  0
 28 49  1  0
 30 50  1  0
 30 51  1  0
 31 52  1  0
 31 53  1  0
 32 54  1  0
M  END
$$$$
