
     RDKit          3D

 61 64  0  0  0  0  0  0  0  0999 V2000
   -7.4922    0.4392   -4.2214 C   0  0  0  0  0  0  0  0  0  0  0  0
   -8.1341   -0.2217   -3.1373 O   0  0  0  0  0  0  0  0  0  0  0  0
   -7.4055   -0.3804   -1.9915 C   0  0  0  0  0  0  0  0  0  0  0  0
   -8.0521   -1.0957   -0.9803 C   0  0  0  0  0  0  0  0  0  0  0  0
   -7.4266   -1.3512    0.2440 C   0  0  0  0  0  0  0  0  0  0  0  0
   -8.1763   -2.0784    1.1265 O   0  0  0  0  0  0  0  0  0  0  0  0
   -7.5723   -2.4193    2.3689 C   0  0  0  0  0  0  0  0  0  0  0  0
   -6.1372   -0.8706    0.4661 C   0  0  0  0  0  0  0  0  0  0  0  0
   -5.4881   -0.1319   -0.5354 C   0  0  0  0  0  0  0  0  0  0  0  0
   -4.1079    0.3974   -0.3432 C   0  0  0  0  0  0  0  0  0  0  0  0
   -3.3817    0.5253   -1.3243 O   0  0  0  0  0  0  0  0  0  0  0  0
   -3.7869    0.7420    0.9671 N   0  0  0  0  0  0  0  0  0  0  0  0
   -2.6250    1.3639    1.3501 N   0  0  0  0  0  0  0  0  0  0  0  0
   -1.5295    1.0146    0.7509 C   0  0  0  0  0  0  0  0  0  0  0  0
   -0.2377    1.6655    1.0506 C   0  0  0  0  0  0  0  0  0  0  0  0
   -0.1392    2.6666    2.0158 C   0  0  0  0  0  0  0  0  0  0  0  0
    1.0977    3.2640    2.2780 C   0  0  0  0  0  0  0  0  0  0  0  0
    2.2434    2.8696    1.5757 C   0  0  0  0  0  0  0  0  0  0  0  0
    3.4896    3.4048    1.7666 O   0  0  0  0  0  0  0  0  0  0  0  0
    3.6696    4.2598    2.8889 C   0  0  0  0  0  0  0  0  0  0  0  0
    2.1427    1.8724    0.5871 C   0  0  0  0  0  0  0  0  0  0  0  0
    3.3436    1.4049   -0.2044 C   0  0  0  0  0  0  0  0  0  0  0  0
    3.7633    0.1479    0.3289 O   0  0  0  0  0  0  0  0  0  0  0  0
    4.8720   -0.4246   -0.2310 C   0  0  0  0  0  0  0  0  0  0  0  0
    5.5387    0.0203   -1.3707 C   0  0  0  0  0  0  0  0  0  0  0  0
    6.6630   -0.6677   -1.8400 C   0  0  0  0  0  0  0  0  0  0  0  0
    7.1386   -1.8096   -1.1776 C   0  0  0  0  0  0  0  0  0  0  0  0
    8.2676   -2.5083   -1.6357 C   0  0  0  0  0  0  0  0  0  0  0  0
    8.7273   -3.6405   -0.9610 C   0  0  0  0  0  0  0  0  0  0  0  0
    8.0645   -4.0885    0.1780 C   0  0  0  0  0  0  0  0  0  0  0  0
    6.9396   -3.4063    0.6440 C   0  0  0  0  0  0  0  0  0  0  0  0
    6.4647   -2.2652   -0.0232 C   0  0  0  0  0  0  0  0  0  0  0  0
    5.3352   -1.5650    0.4318 C   0  0  0  0  0  0  0  0  0  0  0  0
    0.8959    1.2663    0.3408 C   0  0  0  0  0  0  0  0  0  0  0  0
   -6.1184    0.1003   -1.7666 C   0  0  0  0  0  0  0  0  0  0  0  0
   -7.2605    1.4778   -3.9662 H   0  0  0  0  0  0  0  0  0  0  0  0
   -6.5932   -0.1009   -4.5381 H   0  0  0  0  0  0  0  0  0  0  0  0
   -8.1886    0.4500   -5.0652 H   0  0  0  0  0  0  0  0  0  0  0  0
   -9.0584   -1.4719   -1.1545 H   0  0  0  0  0  0  0  0  0  0  0  0
   -8.2924   -3.0133    2.9395 H   0  0  0  0  0  0  0  0  0  0  0  0
   -7.3418   -1.5220    2.9532 H   0  0  0  0  0  0  0  0  0  0  0  0
   -6.6786   -3.0340    2.2176 H   0  0  0  0  0  0  0  0  0  0  0  0
   -5.6183   -1.0839    1.3940 H   0  0  0  0  0  0  0  0  0  0  0  0
   -4.5569    0.9271    1.6027 H   0  0  0  0  0  0  0  0  0  0  0  0
   -1.4931    0.2013    0.0063 H   0  0  0  0  0  0  0  0  0  0  0  0
   -1.0190    2.9879    2.5683 H   0  0  0  0  0  0  0  0  0  0  0  0
    1.1300    4.0414    3.0345 H   0  0  0  0  0  0  0  0  0  0  0  0
    3.3870    3.7593    3.8215 H   0  0  0  0  0  0  0  0  0  0  0  0
    4.7338    4.5057    2.9533 H   0  0  0  0  0  0  0  0  0  0  0  0
    3.1191    5.1975    2.7589 H   0  0  0  0  0  0  0  0  0  0  0  0
    4.1582    2.1376   -0.1593 H   0  0  0  0  0  0  0  0  0  0  0  0
    3.0416    1.2921   -1.2548 H   0  0  0  0  0  0  0  0  0  0  0  0
    5.2137    0.8954   -1.9228 H   0  0  0  0  0  0  0  0  0  0  0  0
    7.1672   -0.3021   -2.7323 H   0  0  0  0  0  0  0  0  0  0  0  0
    8.7987   -2.1732   -2.5238 H   0  0  0  0  0  0  0  0  0  0  0  0
    9.6026   -4.1717   -1.3255 H   0  0  0  0  0  0  0  0  0  0  0  0
    8.4217   -4.9690    0.7052 H   0  0  0  0  0  0  0  0  0  0  0  0
    6.4341   -3.7706    1.5357 H   0  0  0  0  0  0  0  0  0  0  0  0
    4.8054   -1.9034    1.3198 H   0  0  0  0  0  0  0  0  0  0  0  0
    0.8222    0.4822   -0.4106 H   0  0  0  0  0  0  0  0  0  0  0  0
   -5.5810    0.6608   -2.5258 H   0  0  0  0  0  0  0  0  0  0  0  0
  1  2  1  0
  2  3  1  0
  3  4  2  0
  4  5  1  0
  5  6  1  0
  6  7  1  0
  5  8  2  0
  8  9  1  0
  9 10  1  0
 10 11  2  0
 10 12  1  0
 12 13  1  0
 13 14  2  3
 14 15  1  0
 15 16  2  0
 16 17  1  0
 17 18  2  0
 18 19  1  0
 19 20  1  0
 18 21  1  0
 21 22  1  0
 22 23  1  0
 23 24  1  0
 24 25  2  0
 25 26  1  0
 26 27  2  0
 27 28  1  0
 28 29  2  0
 29 30  1  0
 30 31  2  0
 31 32  1  0
 32 33  2  0
 21 34  2  0
  9 35  2  0
 35  3  1  0
 34 15  1  0
 33 24  1  0
 32 27  1  0
  1 36  1  0
  1 37  1  0
  1 38  1  0
  4 39  1  0
  7 40  1  0
  7 41  1  0
  7 42  1  0
  8 43  1  0
 12 44  1  0
 14 45  1  0
 16 46  1  0
 17 47  1  0
 20 48  1  0
 20 49  1  0
 20 50  1  0
 22 51  1  0
 22 52  1  0
 25 53  1  0
 26 54  1  0
 28 55  1  0
 29 56  1  0
 30 57  1  0
 31 58  1  0
 33 59  1  0
 34 60  1  0
 35 61  1  0
M  END
$$$$
