
     RDKit          3D

 33 34  0  0  0  0  0  0  0  0999 V2000
   -4.8688    1.7673   -1.4458 C   0  0  0  0  0  0  0  0  0  0  0  0
   -4.9527    0.9448   -0.1716 C   0  0  0  0  0  0  0  0  0  0  0  0
   -4.4210   -0.3631   -0.3777 O   0  0  0  0  0  0  0  0  0  0  0  0
   -3.0971   -0.5847   -0.1250 C   0  0  0  0  0  0  0  0  0  0  0  0
   -2.7195   -1.9298   -0.1608 C   0  0  0  0  0  0  0  0  0  0  0  0
   -1.3945   -2.3072    0.0718 C   0  0  0  0  0  0  0  0  0  0  0  0
   -0.4246   -1.3339    0.3294 C   0  0  0  0  0  0  0  0  0  0  0  0
    0.9777   -1.7739    0.5702 C   0  0  0  0  0  0  0  0  0  0  0  0
    1.2122   -2.9060    0.9776 O   0  0  0  0  0  0  0  0  0  0  0  0
    1.9635   -0.8588    0.2770 N   0  0  0  0  0  0  0  0  0  0  0  0
    3.3516   -1.2559    0.3157 C   0  0  0  0  0  0  0  0  0  0  0  0
    4.1941   -0.0429    0.1895 C   0  0  0  0  0  0  0  0  0  0  0  0
    5.1302    0.5512    1.0107 C   0  0  0  0  0  0  0  0  0  0  0  0
    5.5930    1.6997    0.3243 C   0  0  0  0  0  0  0  0  0  0  0  0
    4.9084    1.7371   -0.8675 C   0  0  0  0  0  0  0  0  0  0  0  0
    4.0529    0.6866   -0.9580 O   0  0  0  0  0  0  0  0  0  0  0  0
   -0.7996    0.0145    0.3726 C   0  0  0  0  0  0  0  0  0  0  0  0
   -2.1311    0.3859    0.1418 C   0  0  0  0  0  0  0  0  0  0  0  0
   -5.3713    1.2485   -2.2688 H   0  0  0  0  0  0  0  0  0  0  0  0
   -5.3394    2.7450   -1.3061 H   0  0  0  0  0  0  0  0  0  0  0  0
   -3.8313    1.9207   -1.7562 H   0  0  0  0  0  0  0  0  0  0  0  0
   -4.4995    1.4539    0.6865 H   0  0  0  0  0  0  0  0  0  0  0  0
   -6.0103    0.8115    0.0839 H   0  0  0  0  0  0  0  0  0  0  0  0
   -3.4658   -2.6938   -0.3672 H   0  0  0  0  0  0  0  0  0  0  0  0
   -1.1226   -3.3606    0.0471 H   0  0  0  0  0  0  0  0  0  0  0  0
    1.7426   -0.0803   -0.3300 H   0  0  0  0  0  0  0  0  0  0  0  0
    3.5519   -1.7854    1.2533 H   0  0  0  0  0  0  0  0  0  0  0  0
    3.5361   -1.9443   -0.5157 H   0  0  0  0  0  0  0  0  0  0  0  0
    5.4378    0.1983    1.9860 H   0  0  0  0  0  0  0  0  0  0  0  0
    6.3335    2.4136    0.6568 H   0  0  0  0  0  0  0  0  0  0  0  0
    4.9140    2.4100   -1.7138 H   0  0  0  0  0  0  0  0  0  0  0  0
   -0.0750    0.7899    0.6057 H   0  0  0  0  0  0  0  0  0  0  0  0
   -2.3754    1.4423    0.1760 H   0  0  0  0  0  0  0  0  0  0  0  0
  1  2  1  0
  2  3  1  0
  3  4  1  0
  4  5  2  0
  5  6  1  0
  6  7  2  0
  7  8  1  0
  8  9  2  0
  8 10  1  0
 10 11  1  0
 11 12  1  0
 12 13  2  0
 13 14  1  0
 14 15  2  0
 15 16  1  0
  7 17  1  0
 17 18  2  0
 18  4  1  0
 16 12  1  0
  1 19  1  0
  1 20  1  0
  1 21  1  0
  2 22  1  0
  2 23  1  0
  5 24  1  0
  6 25  1  0
 10 26  1  0
 11 27  1  0
 11 28  1  0
 13 29  1  0
 14 30  1  0
 15 31  1  0
 17 32  1  0
 18 33  1  0
M  END
$$$$
