
     RDKit          3D

 38 39  0  0  0  0  0  0  0  0999 V2000
    0.7826   -3.6451   -0.3741 C   0  0  0  0  0  0  0  0  0  0  0  0
    0.2802   -2.4166    0.3575 C   0  0  0  0  0  0  0  0  0  0  0  0
    1.1684   -1.2060    0.4110 C   0  0  0  0  0  0  0  0  0  0  0  0
    2.3966   -1.1528   -0.1272 C   0  0  0  0  0  0  0  0  0  0  0  0
    3.2553    0.0406   -0.0764 C   0  0  0  0  0  0  0  0  0  0  0  0
    4.0846    0.3239   -1.1700 C   0  0  0  0  0  0  0  0  0  0  0  0
    4.9376    1.4304   -1.1499 C   0  0  0  0  0  0  0  0  0  0  0  0
    4.9784    2.2592   -0.0310 C   0  0  0  0  0  0  0  0  0  0  0  0
    4.1704    1.9799    1.0690 C   0  0  0  0  0  0  0  0  0  0  0  0
    3.3170    0.8734    1.0490 C   0  0  0  0  0  0  0  0  0  0  0  0
   -0.8976   -2.5232    0.9011 N   0  0  0  0  0  0  0  0  0  0  0  0
   -1.3984   -1.4185    1.5433 N   0  0  0  0  0  0  0  0  0  0  0  0
   -2.2175   -0.5446    0.7843 C   0  0  0  0  0  0  0  0  0  0  0  0
   -1.9310   -0.2828   -0.5040 N   0  0  0  0  0  0  0  0  0  0  0  0
   -2.7377    0.5685   -1.1646 C   0  0  0  0  0  0  0  0  0  0  0  0
   -2.4135    0.8466   -2.6008 C   0  0  0  0  0  0  0  0  0  0  0  0
   -3.8229    1.1707   -0.5643 C   0  0  0  0  0  0  0  0  0  0  0  0
   -4.0430    0.8572    0.7608 C   0  0  0  0  0  0  0  0  0  0  0  0
   -5.1972    1.4656    1.4988 C   0  0  0  0  0  0  0  0  0  0  0  0
   -3.2496    0.0083    1.4447 N   0  0  0  0  0  0  0  0  0  0  0  0
    1.6849   -4.0250    0.1136 H   0  0  0  0  0  0  0  0  0  0  0  0
    0.0253   -4.4352   -0.3599 H   0  0  0  0  0  0  0  0  0  0  0  0
    0.9981   -3.3965   -1.4171 H   0  0  0  0  0  0  0  0  0  0  0  0
    0.7449   -0.3434    0.9129 H   0  0  0  0  0  0  0  0  0  0  0  0
    2.8216   -2.0001   -0.6564 H   0  0  0  0  0  0  0  0  0  0  0  0
    4.0673   -0.3101   -2.0537 H   0  0  0  0  0  0  0  0  0  0  0  0
    5.5704    1.6432   -2.0076 H   0  0  0  0  0  0  0  0  0  0  0  0
    5.6421    3.1196   -0.0143 H   0  0  0  0  0  0  0  0  0  0  0  0
    4.2060    2.6200    1.9467 H   0  0  0  0  0  0  0  0  0  0  0  0
    2.7093    0.6671    1.9270 H   0  0  0  0  0  0  0  0  0  0  0  0
   -2.0056   -1.6367    2.3337 H   0  0  0  0  0  0  0  0  0  0  0  0
   -3.2431    0.5348   -3.2430 H   0  0  0  0  0  0  0  0  0  0  0  0
   -2.2272    1.9152   -2.7469 H   0  0  0  0  0  0  0  0  0  0  0  0
   -1.5174    0.2995   -2.9116 H   0  0  0  0  0  0  0  0  0  0  0  0
   -4.4666    1.8534   -1.1039 H   0  0  0  0  0  0  0  0  0  0  0  0
   -5.1027    2.5558    1.5155 H   0  0  0  0  0  0  0  0  0  0  0  0
   -5.2288    1.1105    2.5342 H   0  0  0  0  0  0  0  0  0  0  0  0
   -6.1411    1.1929    1.0164 H   0  0  0  0  0  0  0  0  0  0  0  0
  1  2  1  0
  2  3  1  0
  3  4  2  3
  4  5  1  0
  5  6  2  0
  6  7  1  0
  7  8  2  0
  8  9  1  0
  9 10  2  0
  2 11  2  3
 11 12  1  0
 12 13  1  0
 13 14  2  0
 14 15  1  0
 15 16  1  0
 15 17  2  0
 17 18  1  0
 18 19  1  0
 18 20  2  0
 10  5  1  0
 20 13  1  0
  1 21  1  0
  1 22  1  0
  1 23  1  0
  3 24  1  0
  4 25  1  0
  6 26  1  0
  7 27  1  0
  8 28  1  0
  9 29  1  0
 10 30  1  0
 12 31  1  0
 16 32  1  0
 16 33  1  0
 16 34  1  0
 17 35  1  0
 19 36  1  0
 19 37  1  0
 19 38  1  0
M  END
$$$$
