
     RDKit          3D

 58 60  0  0  0  0  0  0  0  0999 V2000
    9.3479   -2.9938    1.2684 C   0  0  0  0  0  0  0  0  0  0  0  0
    7.9850   -2.4873    0.8804 C   0  0  0  0  0  0  0  0  0  0  0  0
    7.0262   -3.3609    0.3492 C   0  0  0  0  0  0  0  0  0  0  0  0
    5.7683   -2.8875   -0.0376 C   0  0  0  0  0  0  0  0  0  0  0  0
    5.4524   -1.5289    0.0984 C   0  0  0  0  0  0  0  0  0  0  0  0
    4.1018   -1.0093   -0.3151 C   0  0  0  0  0  0  0  0  0  0  0  0
    4.1191   -0.4411   -1.7354 C   0  0  0  0  0  0  0  0  0  0  0  0
    2.8090    0.0215   -2.1631 N   0  0  0  0  0  0  0  0  0  0  0  0
    2.2579    1.1717   -1.6529 C   0  0  0  0  0  0  0  0  0  0  0  0
    2.7672    1.8196   -0.7391 O   0  0  0  0  0  0  0  0  0  0  0  0
    0.9136    1.5409   -2.2305 C   0  0  0  0  0  0  0  0  0  0  0  0
   -0.1978    0.9491   -1.3789 C   0  0  0  0  0  0  0  0  0  0  0  0
   -0.2512    1.5878   -0.0589 N   0  0  0  0  0  0  0  0  0  0  0  0
   -1.3605    2.8079    0.2334 S   0  0  0  0  0  6  0  0  0  0  0  0
   -1.5510    3.5399   -1.0009 O   0  0  0  0  0  0  0  0  0  0  0  0
   -0.9656    3.4514    1.4662 O   0  0  0  0  0  0  0  0  0  0  0  0
   -2.8405    1.8904    0.5857 C   0  0  0  0  0  0  0  0  0  0  0  0
   -2.8199    0.8958    1.5642 C   0  0  0  0  0  0  0  0  0  0  0  0
   -3.9840    0.1735    1.8348 C   0  0  0  0  0  0  0  0  0  0  0  0
   -5.1807    0.4392    1.1474 C   0  0  0  0  0  0  0  0  0  0  0  0
   -5.1752    1.4412    0.1754 C   0  0  0  0  0  0  0  0  0  0  0  0
   -4.0125    2.1696   -0.1148 C   0  0  0  0  0  0  0  0  0  0  0  0
   -6.4137    1.7307   -0.5626 C   0  0  0  0  0  0  0  0  0  0  0  0
   -6.3950    2.5595   -1.4666 O   0  0  0  0  0  0  0  0  0  0  0  0
   -7.5440    1.0128   -0.1977 N   0  0  0  0  0  0  0  0  0  0  0  0
   -8.7607    1.3260   -0.9230 C   0  0  0  0  0  0  0  0  0  0  0  0
   -7.5743   -0.0068    0.7447 C   0  0  0  0  0  0  0  0  0  0  0  0
   -8.6031   -0.6462    0.9761 O   0  0  0  0  0  0  0  0  0  0  0  0
   -6.3779   -0.2810    1.4093 N   0  0  0  0  0  0  0  0  0  0  0  0
   -6.3758   -1.3479    2.4044 C   0  0  0  0  0  0  0  0  0  0  0  0
    6.4191   -0.6500    0.6055 C   0  0  0  0  0  0  0  0  0  0  0  0
    7.6747   -1.1262    0.9895 C   0  0  0  0  0  0  0  0  0  0  0  0
    9.2961   -4.0311    1.6146 H   0  0  0  0  0  0  0  0  0  0  0  0
   10.0219   -2.9361    0.4101 H   0  0  0  0  0  0  0  0  0  0  0  0
    9.7674   -2.3996    2.0862 H   0  0  0  0  0  0  0  0  0  0  0  0
    7.2504   -4.4205    0.2377 H   0  0  0  0  0  0  0  0  0  0  0  0
    5.0400   -3.5914   -0.4462 H   0  0  0  0  0  0  0  0  0  0  0  0
    3.3554   -1.8137   -0.2490 H   0  0  0  0  0  0  0  0  0  0  0  0
    3.7742   -0.2535    0.4113 H   0  0  0  0  0  0  0  0  0  0  0  0
    4.4382   -1.2085   -2.4517 H   0  0  0  0  0  0  0  0  0  0  0  0
    4.8200    0.3985   -1.8187 H   0  0  0  0  0  0  0  0  0  0  0  0
    2.4423   -0.3519   -3.0312 H   0  0  0  0  0  0  0  0  0  0  0  0
    0.8382    1.1689   -3.2585 H   0  0  0  0  0  0  0  0  0  0  0  0
    0.8464    2.6329   -2.2823 H   0  0  0  0  0  0  0  0  0  0  0  0
   -0.0416   -0.1254   -1.2263 H   0  0  0  0  0  0  0  0  0  0  0  0
   -1.1566    1.0564   -1.8939 H   0  0  0  0  0  0  0  0  0  0  0  0
    0.6230    1.7033    0.4661 H   0  0  0  0  0  0  0  0  0  0  0  0
   -1.9065    0.6760    2.1126 H   0  0  0  0  0  0  0  0  0  0  0  0
   -3.9252   -0.5942    2.6014 H   0  0  0  0  0  0  0  0  0  0  0  0
   -4.0329    2.9477   -0.8752 H   0  0  0  0  0  0  0  0  0  0  0  0
   -8.9764    2.3906   -0.7990 H   0  0  0  0  0  0  0  0  0  0  0  0
   -9.6248    0.7514   -0.5790 H   0  0  0  0  0  0  0  0  0  0  0  0
   -8.5984    1.1246   -1.9880 H   0  0  0  0  0  0  0  0  0  0  0  0
   -6.0949   -0.9358    3.3795 H   0  0  0  0  0  0  0  0  0  0  0  0
   -7.3578   -1.8203    2.5142 H   0  0  0  0  0  0  0  0  0  0  0  0
   -5.6661   -2.1215    2.1020 H   0  0  0  0  0  0  0  0  0  0  0  0
    6.2008    0.4128    0.7042 H   0  0  0  0  0  0  0  0  0  0  0  0
    8.4084   -0.4211    1.3755 H   0  0  0  0  0  0  0  0  0  0  0  0
  1  2  1  0
  2  3  2  0
  3  4  1  0
  4  5  2  0
  5  6  1  0
  6  7  1  0
  7  8  1  0
  8  9  1  0
  9 10  2  0
  9 11  1  0
 11 12  1  0
 12 13  1  0
 13 14  1  0
 14 15  2  0
 14 16  2  0
 14 17  1  0
 17 18  2  0
 18 19  1  0
 19 20  2  0
 20 21  1  0
 21 22  2  0
 21 23  1  0
 23 24  2  0
 23 25  1  0
 25 26  1  0
 25 27  1  0
 27 28  2  0
 27 29  1  0
 29 30  1  0
  5 31  1  0
 31 32  2  0
 32  2  1  0
 22 17  1  0
 29 20  1  0
  1 33  1  0
  1 34  1  0
  1 35  1  0
  3 36  1  0
  4 37  1  0
  6 38  1  0
  6 39  1  0
  7 40  1  0
  7 41  1  0
  8 42  1  0
 11 43  1  0
 11 44  1  0
 12 45  1  0
 12 46  1  0
 13 47  1  0
 18 48  1  0
 19 49  1  0
 22 50  1  0
 26 51  1  0
 26 52  1  0
 26 53  1  0
 30 54  1  0
 30 55  1  0
 30 56  1  0
 31 57  1  0
 32 58  1  0
M  END
$$$$
