
     RDKit          3D

 38 39  0  0  0  0  0  0  0  0999 V2000
   -4.9619    1.8767    3.1702 C   0  0  0  0  0  0  0  0  0  0  0  0
   -3.7460    1.7698    2.6180 C   0  0  0  0  0  0  0  0  0  0  0  0
   -3.4928    1.6152    1.1452 C   0  0  0  0  0  0  0  0  0  0  0  0
   -2.7390    0.3459    0.8247 C   0  0  0  0  0  0  0  0  0  0  0  0
   -3.4128   -0.8768    0.7408 C   0  0  0  0  0  0  0  0  0  0  0  0
   -2.7103   -2.0500    0.4743 C   0  0  0  0  0  0  0  0  0  0  0  0
   -1.3266   -2.0040    0.2879 C   0  0  0  0  0  0  0  0  0  0  0  0
   -0.6511   -3.1771    0.0670 O   0  0  0  0  0  0  0  0  0  0  0  0
   -0.6072   -0.7985    0.3568 C   0  0  0  0  0  0  0  0  0  0  0  0
    0.8570   -0.7000    0.1297 C   0  0  0  0  0  0  0  0  0  0  0  0
    1.3471    0.2383   -0.8048 C   0  0  0  0  0  0  0  0  0  0  0  0
    2.7234    0.4319   -1.0214 C   0  0  0  0  0  0  0  0  0  0  0  0
    3.2079    1.4354   -2.0406 C   0  0  0  0  0  0  0  0  0  0  0  0
    3.5204    0.7976   -3.3647 C   0  0  0  0  0  0  0  0  0  0  0  0
    4.7184    0.8433   -3.9625 C   0  0  0  0  0  0  0  0  0  0  0  0
    3.6375   -0.3380   -0.2957 C   0  0  0  0  0  0  0  0  0  0  0  0
    3.1838   -1.2794    0.6245 C   0  0  0  0  0  0  0  0  0  0  0  0
    1.8149   -1.4636    0.8210 C   0  0  0  0  0  0  0  0  0  0  0  0
    1.4753   -2.4370    1.7230 O   0  0  0  0  0  0  0  0  0  0  0  0
   -1.3458    0.3695    0.6396 C   0  0  0  0  0  0  0  0  0  0  0  0
   -5.0739    1.9874    4.2446 H   0  0  0  0  0  0  0  0  0  0  0  0
   -5.8669    1.8551    2.5713 H   0  0  0  0  0  0  0  0  0  0  0  0
   -2.8702    1.7996    3.2639 H   0  0  0  0  0  0  0  0  0  0  0  0
   -2.9223    2.4837    0.7928 H   0  0  0  0  0  0  0  0  0  0  0  0
   -4.4315    1.6258    0.5766 H   0  0  0  0  0  0  0  0  0  0  0  0
   -4.4884   -0.9201    0.8993 H   0  0  0  0  0  0  0  0  0  0  0  0
   -3.2525   -2.9899    0.4339 H   0  0  0  0  0  0  0  0  0  0  0  0
   -1.2929   -3.8552   -0.2071 H   0  0  0  0  0  0  0  0  0  0  0  0
    0.6389    0.8316   -1.3821 H   0  0  0  0  0  0  0  0  0  0  0  0
    2.4417    2.2059   -2.1930 H   0  0  0  0  0  0  0  0  0  0  0  0
    4.0819    1.9622   -1.6365 H   0  0  0  0  0  0  0  0  0  0  0  0
    2.7062    0.2693   -3.8569 H   0  0  0  0  0  0  0  0  0  0  0  0
    4.8781    0.3586   -4.9208 H   0  0  0  0  0  0  0  0  0  0  0  0
    5.5629    1.3560   -3.5127 H   0  0  0  0  0  0  0  0  0  0  0  0
    4.7068   -0.2159   -0.4509 H   0  0  0  0  0  0  0  0  0  0  0  0
    3.8942   -1.8835    1.1819 H   0  0  0  0  0  0  0  0  0  0  0  0
    0.6157   -2.7900    1.4218 H   0  0  0  0  0  0  0  0  0  0  0  0
   -0.8203    1.3201    0.7293 H   0  0  0  0  0  0  0  0  0  0  0  0
  1  2  2  0
  2  3  1  0
  3  4  1  0
  4  5  2  0
  5  6  1  0
  6  7  2  0
  7  8  1  0
  7  9  1  0
  9 10  1  0
 10 11  2  0
 11 12  1  0
 12 13  1  0
 13 14  1  0
 14 15  2  0
 12 16  2  0
 16 17  1  0
 17 18  2  0
 18 19  1  0
  9 20  2  0
 20  4  1  0
 18 10  1  0
  1 21  1  0
  1 22  1  0
  2 23  1  0
  3 24  1  0
  3 25  1  0
  5 26  1  0
  6 27  1  0
  8 28  1  0
 11 29  1  0
 13 30  1  0
 13 31  1  0
 14 32  1  0
 15 33  1  0
 15 34  1  0
 16 35  1  0
 17 36  1  0
 19 37  1  0
 20 38  1  0
M  END
$$$$
