
     RDKit          3D

 23 24  0  0  0  0  0  0  0  0999 V2000
    0.1686    2.1598   -0.7842 O   0  0  0  0  0  0  0  0  0  0  0  0
    1.2238    1.6043   -0.5527 C   0  0  0  0  0  0  0  0  0  0  0  0
    2.4315    2.2350   -0.4632 O   0  0  0  0  0  0  0  0  0  0  0  0
    3.4305    1.3070   -0.0410 C   0  0  0  0  0  0  0  0  0  0  0  0
    2.9324   -0.0544   -0.4497 C   0  0  0  0  0  0  0  0  0  0  0  0
    1.4645    0.1516   -0.3537 C   0  0  0  0  0  0  0  0  0  0  0  0
    0.5688   -0.8190   -0.1171 C   0  0  0  0  0  0  0  0  0  0  0  0
   -0.8846   -0.6776    0.0211 C   0  0  0  0  0  0  0  0  0  0  0  0
   -1.4572    0.1845    0.9629 C   0  0  0  0  0  0  0  0  0  0  0  0
   -2.8454    0.2594    1.1017 C   0  0  0  0  0  0  0  0  0  0  0  0
   -3.6711   -0.5363    0.3100 C   0  0  0  0  0  0  0  0  0  0  0  0
   -3.1102   -1.4088   -0.6203 C   0  0  0  0  0  0  0  0  0  0  0  0
   -1.7223   -1.4830   -0.7606 C   0  0  0  0  0  0  0  0  0  0  0  0
    4.3824    1.5505   -0.5226 H   0  0  0  0  0  0  0  0  0  0  0  0
    3.5565    1.3984    1.0441 H   0  0  0  0  0  0  0  0  0  0  0  0
    3.3235   -0.8452    0.1960 H   0  0  0  0  0  0  0  0  0  0  0  0
    3.2061   -0.2704   -1.4886 H   0  0  0  0  0  0  0  0  0  0  0  0
    0.9198   -1.8449   -0.0195 H   0  0  0  0  0  0  0  0  0  0  0  0
   -0.8320    0.8144    1.5904 H   0  0  0  0  0  0  0  0  0  0  0  0
   -3.2800    0.9446    1.8247 H   0  0  0  0  0  0  0  0  0  0  0  0
   -4.7508   -0.4728    0.4157 H   0  0  0  0  0  0  0  0  0  0  0  0
   -3.7526   -2.0290   -1.2396 H   0  0  0  0  0  0  0  0  0  0  0  0
   -1.3023   -2.1681   -1.4931 H   0  0  0  0  0  0  0  0  0  0  0  0
  1  2  2  0
  2  3  1  0
  3  4  1  0
  4  5  1  0
  5  6  1  0
  6  7  2  3
  7  8  1  0
  8  9  2  0
  9 10  1  0
 10 11  2  0
 11 12  1  0
 12 13  2  0
  6  2  1  0
 13  8  1  0
  4 14  1  0
  4 15  1  0
  5 16  1  0
  5 17  1  0
  7 18  1  0
  9 19  1  0
 10 20  1  0
 11 21  1  0
 12 22  1  0
 13 23  1  0
M  END
$$$$
