
     RDKit          3D

 34 35  0  0  0  0  0  0  0  0999 V2000
    4.8049   -0.7101    1.0955 C   0  0  0  0  0  0  0  0  0  0  0  0
    3.8200   -1.3931    0.1652 C   0  0  0  0  0  0  0  0  0  0  0  0
    2.4951   -0.8974    0.4014 O   0  0  0  0  0  0  0  0  0  0  0  0
    2.1584    0.2062   -0.2948 C   0  0  0  0  0  0  0  0  0  0  0  0
    2.8396    0.8621   -1.0593 O   0  0  0  0  0  0  0  0  0  0  0  0
    0.7359    0.5998    0.0678 C   0  0  0  0  0  0  0  0  0  0  0  0
   -0.2122   -0.0666   -0.5020 N   0  0  0  0  0  0  0  0  0  0  0  0
   -1.5227    0.2504   -0.2087 N   0  0  0  0  0  0  0  0  0  0  0  0
   -2.4795   -0.5727   -0.9136 C   0  0  0  0  0  0  0  0  0  0  0  0
   -2.0304   -1.5733   -1.8010 C   0  0  0  0  0  0  0  0  0  0  0  0
   -2.9206   -2.3935   -2.5045 C   0  0  0  0  0  0  0  0  0  0  0  0
   -4.2899   -2.2346   -2.3388 C   0  0  0  0  0  0  0  0  0  0  0  0
   -4.7629   -1.2574   -1.4714 C   0  0  0  0  0  0  0  0  0  0  0  0
   -3.8683   -0.4374   -0.7684 C   0  0  0  0  0  0  0  0  0  0  0  0
   -1.8623    1.2736    0.6884 C   0  0  0  0  0  0  0  0  0  0  0  0
   -2.9993    1.6183    1.0056 O   0  0  0  0  0  0  0  0  0  0  0  0
   -0.7176    2.0059    1.3134 C   0  0  0  0  0  0  0  0  0  0  0  0
   -1.0470    3.0471    2.2286 C   0  0  0  0  0  0  0  0  0  0  0  0
   -1.2406    3.9049    2.9863 N   0  0  0  0  0  0  0  0  0  0  0  0
    0.5609    1.7041    1.0337 C   0  0  0  0  0  0  0  0  0  0  0  0
    1.7826    2.3648    1.6017 C   0  0  0  0  0  0  0  0  0  0  0  0
    4.8405    0.3676    0.9067 H   0  0  0  0  0  0  0  0  0  0  0  0
    5.8100   -1.1209    0.9658 H   0  0  0  0  0  0  0  0  0  0  0  0
    4.5013   -0.8404    2.1395 H   0  0  0  0  0  0  0  0  0  0  0  0
    3.8022   -2.4683    0.3712 H   0  0  0  0  0  0  0  0  0  0  0  0
    4.1102   -1.2697   -0.8847 H   0  0  0  0  0  0  0  0  0  0  0  0
   -0.9679   -1.7358   -1.9656 H   0  0  0  0  0  0  0  0  0  0  0  0
   -2.5373   -3.1534   -3.1804 H   0  0  0  0  0  0  0  0  0  0  0  0
   -4.9857   -2.8678   -2.8823 H   0  0  0  0  0  0  0  0  0  0  0  0
   -5.8336   -1.1243   -1.3347 H   0  0  0  0  0  0  0  0  0  0  0  0
   -4.3146    0.3008   -0.1116 H   0  0  0  0  0  0  0  0  0  0  0  0
    2.4223    1.6271    2.0977 H   0  0  0  0  0  0  0  0  0  0  0  0
    1.5501    3.1321    2.3454 H   0  0  0  0  0  0  0  0  0  0  0  0
    2.3585    2.8517    0.8080 H   0  0  0  0  0  0  0  0  0  0  0  0
  1  2  1  0
  2  3  1  0
  3  4  1  0
  4  5  2  0
  4  6  1  0
  6  7  2  0
  7  8  1  0
  8  9  1  0
  9 10  2  0
 10 11  1  0
 11 12  2  0
 12 13  1  0
 13 14  2  0
  8 15  1  0
 15 16  2  0
 15 17  1  0
 17 18  1  0
 18 19  3  0
 17 20  2  0
 20 21  1  0
 20  6  1  0
 14  9  1  0
  1 22  1  0
  1 23  1  0
  1 24  1  0
  2 25  1  0
  2 26  1  0
 10 27  1  0
 11 28  1  0
 12 29  1  0
 13 30  1  0
 14 31  1  0
 21 32  1  0
 21 33  1  0
 21 34  1  0
M  END
$$$$
