
     RDKit          3D

 61 66  0  0  0  0  0  0  0  0999 V2000
    8.3203    3.9043   -0.0647 F   0  0  0  0  0  0  0  0  0  0  0  0
    8.0316    2.7876   -0.7908 C   0  0  0  0  0  0  0  0  0  0  0  0
    9.2042    2.1011   -0.8936 F   0  0  0  0  0  0  0  0  0  0  0  0
    7.7430    3.2250   -2.0477 F   0  0  0  0  0  0  0  0  0  0  0  0
    6.9138    1.9671   -0.1976 C   0  0  0  0  0  0  0  0  0  0  0  0
    5.9149    2.5732    0.5786 C   0  0  0  0  0  0  0  0  0  0  0  0
    4.8680    1.8149    1.1098 C   0  0  0  0  0  0  0  0  0  0  0  0
    4.7906    0.4373    0.8644 C   0  0  0  0  0  0  0  0  0  0  0  0
    3.6671   -0.3880    1.4595 C   0  0  0  0  0  0  0  0  0  0  0  0
    2.9770   -1.2350    0.4747 N   0  0  0  0  0  0  0  0  0  0  0  0
    2.1762   -0.4594   -0.4972 C   0  0  0  0  0  0  0  0  0  0  0  0
    0.6855   -0.2798   -0.1341 C   0  0  0  0  0  0  0  0  0  0  0  0
    0.0112   -1.5662    0.0979 N   0  0  0  0  0  0  0  0  0  0  0  0
   -1.2717   -1.8155   -0.3830 C   0  0  0  0  0  0  0  0  0  0  0  0
   -1.5314   -3.0154   -0.8433 N   0  0  0  0  0  0  0  0  0  0  0  0
   -2.7921   -3.3271   -1.3847 C   0  0  0  0  0  0  0  0  0  0  0  0
   -3.0011   -4.6163   -1.8786 C   0  0  0  0  0  0  0  0  0  0  0  0
   -4.2292   -4.9753   -2.4404 C   0  0  0  0  0  0  0  0  0  0  0  0
   -5.2641   -4.0427   -2.5136 C   0  0  0  0  0  0  0  0  0  0  0  0
   -5.0775   -2.7492   -2.0250 C   0  0  0  0  0  0  0  0  0  0  0  0
   -3.8426   -2.4047   -1.4664 C   0  0  0  0  0  0  0  0  0  0  0  0
   -3.5724   -1.1314   -0.9393 N   0  0  0  0  0  0  0  0  0  0  0  0
   -4.3978   -0.0357   -0.8494 C   0  0  0  0  0  0  0  0  0  0  0  0
   -3.7242    0.9698   -0.1829 C   0  0  0  0  0  0  0  0  0  0  0  0
   -4.2913    2.2781    0.1116 C   0  0  0  0  0  0  0  0  0  0  0  0
   -3.4738    3.4162    0.0991 C   0  0  0  0  0  0  0  0  0  0  0  0
   -4.0052    4.6773    0.3828 C   0  0  0  0  0  0  0  0  0  0  0  0
   -5.3584    4.8125    0.6852 C   0  0  0  0  0  0  0  0  0  0  0  0
   -6.1809    3.6885    0.7052 C   0  0  0  0  0  0  0  0  0  0  0  0
   -5.6504    2.4272    0.4206 C   0  0  0  0  0  0  0  0  0  0  0  0
   -2.4326    0.4560    0.1155 C   0  0  0  0  0  0  0  0  0  0  0  0
   -2.3441   -0.8283   -0.3929 C   0  0  0  0  0  0  0  0  0  0  0  0
    0.9143   -2.7033    0.3542 C   0  0  0  0  0  0  0  0  0  0  0  0
    2.1400   -2.2421    1.1670 C   0  0  0  0  0  0  0  0  0  0  0  0
    5.7897   -0.1683    0.0892 C   0  0  0  0  0  0  0  0  0  0  0  0
    6.8362    0.5887   -0.4422 C   0  0  0  0  0  0  0  0  0  0  0  0
    5.9505    3.6436    0.7772 H   0  0  0  0  0  0  0  0  0  0  0  0
    4.1116    2.3095    1.7156 H   0  0  0  0  0  0  0  0  0  0  0  0
    4.1280   -1.0180    2.2328 H   0  0  0  0  0  0  0  0  0  0  0  0
    2.9470    0.2622    1.9738 H   0  0  0  0  0  0  0  0  0  0  0  0
    2.2284   -0.9985   -1.4530 H   0  0  0  0  0  0  0  0  0  0  0  0
    2.6186    0.5226   -0.7000 H   0  0  0  0  0  0  0  0  0  0  0  0
    0.2087    0.2642   -0.9576 H   0  0  0  0  0  0  0  0  0  0  0  0
    0.6034    0.3329    0.7708 H   0  0  0  0  0  0  0  0  0  0  0  0
   -2.1955   -5.3437   -1.8256 H   0  0  0  0  0  0  0  0  0  0  0  0
   -4.3747   -5.9829   -2.8214 H   0  0  0  0  0  0  0  0  0  0  0  0
   -6.2181   -4.3259   -2.9523 H   0  0  0  0  0  0  0  0  0  0  0  0
   -5.8980   -2.0430   -2.0915 H   0  0  0  0  0  0  0  0  0  0  0  0
   -5.3979   -0.0527   -1.2570 H   0  0  0  0  0  0  0  0  0  0  0  0
   -2.4177    3.3359   -0.1452 H   0  0  0  0  0  0  0  0  0  0  0  0
   -3.3624    5.5532    0.3644 H   0  0  0  0  0  0  0  0  0  0  0  0
   -5.7718    5.7933    0.9056 H   0  0  0  0  0  0  0  0  0  0  0  0
   -7.2360    3.7908    0.9454 H   0  0  0  0  0  0  0  0  0  0  0  0
   -6.3087    1.5631    0.4569 H   0  0  0  0  0  0  0  0  0  0  0  0
   -1.6563    0.9753    0.6586 H   0  0  0  0  0  0  0  0  0  0  0  0
    0.3879   -3.4715    0.9335 H   0  0  0  0  0  0  0  0  0  0  0  0
    1.2335   -3.1550   -0.5934 H   0  0  0  0  0  0  0  0  0  0  0  0
    2.7660   -3.1107    1.4020 H   0  0  0  0  0  0  0  0  0  0  0  0
    1.7699   -1.8419    2.1215 H   0  0  0  0  0  0  0  0  0  0  0  0
    5.7468   -1.2379   -0.1104 H   0  0  0  0  0  0  0  0  0  0  0  0
    7.5939    0.0946   -1.0487 H   0  0  0  0  0  0  0  0  0  0  0  0
  1  2  1  0
  2  3  1  0
  2  4  1  0
  2  5  1  0
  5  6  2  0
  6  7  1  0
  7  8  2  0
  8  9  1  0
  9 10  1  0
 10 11  1  0
 11 12  1  0
 12 13  1  0
 13 14  1  0
 14 15  2  0
 15 16  1  0
 16 17  2  0
 17 18  1  0
 18 19  2  0
 19 20  1  0
 20 21  2  0
 21 22  1  0
 22 23  1  0
 23 24  2  0
 24 25  1  0
 25 26  2  0
 26 27  1  0
 27 28  2  0
 28 29  1  0
 29 30  2  0
 24 31  1  0
 31 32  2  0
 13 33  1  0
 33 34  1  0
  8 35  1  0
 35 36  2  0
 36  5  1  0
 34 10  1  0
 32 14  1  0
 21 16  1  0
 32 22  1  0
 30 25  1  0
  6 37  1  0
  7 38  1  0
  9 39  1  0
  9 40  1  0
 11 41  1  0
 11 42  1  0
 12 43  1  0
 12 44  1  0
 17 45  1  0
 18 46  1  0
 19 47  1  0
 20 48  1  0
 23 49  1  0
 26 50  1  0
 27 51  1  0
 28 52  1  0
 29 53  1  0
 30 54  1  0
 31 55  1  0
 33 56  1  0
 33 57  1  0
 34 58  1  0
 34 59  1  0
 35 60  1  0
 36 61  1  0
M  END
$$$$
