
     RDKit          3D

 37 38  0  0  0  0  0  0  0  0999 V2000
   -7.6586   -0.6641    0.6044 C   0  0  0  0  0  0  0  0  0  0  0  0
   -6.1585   -0.8216    0.6357 C   0  0  0  0  0  0  0  0  0  0  0  0
   -5.6425   -1.7984    1.1661 O   0  0  0  0  0  0  0  0  0  0  0  0
   -5.5099    0.2175   -0.0075 N   0  0  0  0  0  0  0  0  0  0  0  0
   -4.1205    0.3917   -0.1717 C   0  0  0  0  0  0  0  0  0  0  0  0
   -3.6983    1.5266   -0.8759 C   0  0  0  0  0  0  0  0  0  0  0  0
   -2.3368    1.7746   -1.0826 C   0  0  0  0  0  0  0  0  0  0  0  0
   -1.3746    0.8887   -0.5860 C   0  0  0  0  0  0  0  0  0  0  0  0
    0.0600    1.1959   -0.8315 C   0  0  0  0  0  0  0  0  0  0  0  0
    0.4492    2.1783   -1.4439 O   0  0  0  0  0  0  0  0  0  0  0  0
    0.8541    0.2457   -0.2873 O   0  0  0  0  0  0  0  0  0  0  0  0
    2.2499    0.4744   -0.4836 C   0  0  0  0  0  0  0  0  0  0  0  0
    3.0651   -0.6391    0.1610 C   0  0  0  0  0  0  0  0  0  0  0  0
    2.5475   -1.5826    0.7575 O   0  0  0  0  0  0  0  0  0  0  0  0
    4.5568   -0.5757    0.0602 C   0  0  0  0  0  0  0  0  0  0  0  0
    5.2234    0.4664   -0.6018 C   0  0  0  0  0  0  0  0  0  0  0  0
    6.6206    0.4749   -0.6652 C   0  0  0  0  0  0  0  0  0  0  0  0
    7.3463   -0.5513   -0.0708 C   0  0  0  0  0  0  0  0  0  0  0  0
    8.6835   -0.5363   -0.1357 F   0  0  0  0  0  0  0  0  0  0  0  0
    6.7032   -1.5905    0.5885 C   0  0  0  0  0  0  0  0  0  0  0  0
    5.3082   -1.6035    0.6545 C   0  0  0  0  0  0  0  0  0  0  0  0
   -1.7924   -0.2456    0.1185 C   0  0  0  0  0  0  0  0  0  0  0  0
   -3.1575   -0.4899    0.3230 C   0  0  0  0  0  0  0  0  0  0  0  0
   -8.0430   -1.0460   -0.3450 H   0  0  0  0  0  0  0  0  0  0  0  0
   -7.9445    0.3851    0.7223 H   0  0  0  0  0  0  0  0  0  0  0  0
   -8.1004   -1.2300    1.4296 H   0  0  0  0  0  0  0  0  0  0  0  0
   -6.0972    0.9336   -0.4159 H   0  0  0  0  0  0  0  0  0  0  0  0
   -4.4189    2.2358   -1.2754 H   0  0  0  0  0  0  0  0  0  0  0  0
   -2.0325    2.6629   -1.6331 H   0  0  0  0  0  0  0  0  0  0  0  0
    2.4623    0.4823   -1.5585 H   0  0  0  0  0  0  0  0  0  0  0  0
    2.5257    1.4240   -0.0117 H   0  0  0  0  0  0  0  0  0  0  0  0
    4.6881    1.2837   -1.0769 H   0  0  0  0  0  0  0  0  0  0  0  0
    7.1484    1.2759   -1.1747 H   0  0  0  0  0  0  0  0  0  0  0  0
    7.2871   -2.3829    1.0465 H   0  0  0  0  0  0  0  0  0  0  0  0
    4.8089   -2.4211    1.1730 H   0  0  0  0  0  0  0  0  0  0  0  0
   -1.0711   -0.9558    0.5190 H   0  0  0  0  0  0  0  0  0  0  0  0
   -3.4311   -1.3834    0.8767 H   0  0  0  0  0  0  0  0  0  0  0  0
  1  2  1  0
  2  3  2  0
  2  4  1  0
  4  5  1  0
  5  6  2  0
  6  7  1  0
  7  8  2  0
  8  9  1  0
  9 10  2  0
  9 11  1  0
 11 12  1  0
 12 13  1  0
 13 14  2  0
 13 15  1  0
 15 16  2  0
 16 17  1  0
 17 18  2  0
 18 19  1  0
 18 20  1  0
 20 21  2  0
  8 22  1  0
 22 23  2  0
 23  5  1  0
 21 15  1  0
  1 24  1  0
  1 25  1  0
  1 26  1  0
  4 27  1  0
  6 28  1  0
  7 29  1  0
 12 30  1  0
 12 31  1  0
 16 32  1  0
 17 33  1  0
 20 34  1  0
 21 35  1  0
 22 36  1  0
 23 37  1  0
M  END
$$$$
