
     RDKit          3D

 69 73  0  0  0  0  0  0  0  0999 V2000
    4.6350   -2.8507    3.1389 C   0  0  0  0  0  0  0  0  0  0  0  0
    4.3883   -3.5284    1.9140 O   0  0  0  0  0  0  0  0  0  0  0  0
    4.1304   -2.7524    0.8169 C   0  0  0  0  0  0  0  0  0  0  0  0
    3.9034   -3.4636   -0.3647 C   0  0  0  0  0  0  0  0  0  0  0  0
    3.6248   -2.8040   -1.5652 C   0  0  0  0  0  0  0  0  0  0  0  0
    3.4269   -3.6280   -2.6408 O   0  0  0  0  0  0  0  0  0  0  0  0
    3.1940   -3.0028   -3.8968 C   0  0  0  0  0  0  0  0  0  0  0  0
    3.5696   -1.4106   -1.5801 C   0  0  0  0  0  0  0  0  0  0  0  0
    3.7962   -0.6815   -0.4023 C   0  0  0  0  0  0  0  0  0  0  0  0
    3.7133    0.7836   -0.4176 C   0  0  0  0  0  0  0  0  0  0  0  0
    5.1568    1.6819   -0.2410 S   0  0  0  0  0  0  0  0  0  0  0  0
    4.3376    3.1872   -0.3520 C   0  0  0  0  0  0  0  0  0  0  0  0
    4.9139    4.4695   -0.2730 C   0  0  0  0  0  0  0  0  0  0  0  0
    4.0928    5.5980   -0.3765 C   0  0  0  0  0  0  0  0  0  0  0  0
    2.7240    5.4614   -0.5575 C   0  0  0  0  0  0  0  0  0  0  0  0
    1.8223    6.4836   -0.6718 O   0  0  0  0  0  0  0  0  0  0  0  0
    2.3260    7.8068   -0.5299 C   0  0  0  0  0  0  0  0  0  0  0  0
    2.1642    4.1800   -0.6381 C   0  0  0  0  0  0  0  0  0  0  0  0
    2.9660    3.0129   -0.5363 C   0  0  0  0  0  0  0  0  0  0  0  0
    2.6124    1.6107   -0.5765 C   0  0  0  0  0  0  0  0  0  0  0  0
    1.2672    1.0691   -0.7379 C   0  0  0  0  0  0  0  0  0  0  0  0
    0.5995    1.1937   -1.9591 C   0  0  0  0  0  0  0  0  0  0  0  0
   -0.6869    0.6685   -2.1091 C   0  0  0  0  0  0  0  0  0  0  0  0
   -1.3225    0.0259   -1.0447 C   0  0  0  0  0  0  0  0  0  0  0  0
   -2.5807   -0.4369   -1.3206 O   0  0  0  0  0  0  0  0  0  0  0  0
   -3.3607   -0.8733   -0.1993 C   0  0  0  0  0  0  0  0  0  0  0  0
   -4.7828   -1.1892   -0.6960 C   0  0  0  0  0  0  0  0  0  0  0  0
   -5.7517   -1.6502    0.3080 N   0  0  0  0  0  0  0  0  0  0  0  0
   -5.5390   -3.0417    0.7272 C   0  0  0  0  0  0  0  0  0  0  0  0
   -6.1012   -3.3624    2.1192 C   0  0  0  0  0  0  0  0  0  0  0  0
   -7.3982   -2.6065    2.3745 C   0  0  0  0  0  0  0  0  0  0  0  0
   -7.1995   -1.0960    2.2174 C   0  0  0  0  0  0  0  0  0  0  0  0
   -5.9394   -0.7283    1.4234 C   0  0  0  0  0  0  0  0  0  0  0  0
   -0.6540   -0.1004    0.1745 C   0  0  0  0  0  0  0  0  0  0  0  0
    0.6343    0.4219    0.3283 C   0  0  0  0  0  0  0  0  0  0  0  0
    4.0755   -1.3598    0.7946 C   0  0  0  0  0  0  0  0  0  0  0  0
    5.5148   -2.2023    3.0630 H   0  0  0  0  0  0  0  0  0  0  0  0
    4.8442   -3.6074    3.9011 H   0  0  0  0  0  0  0  0  0  0  0  0
    3.7522   -2.2880    3.4642 H   0  0  0  0  0  0  0  0  0  0  0  0
    3.9445   -4.5510   -0.3487 H   0  0  0  0  0  0  0  0  0  0  0  0
    2.2680   -2.4193   -3.8827 H   0  0  0  0  0  0  0  0  0  0  0  0
    3.0759   -3.7907   -4.6472 H   0  0  0  0  0  0  0  0  0  0  0  0
    4.0487   -2.3858   -4.1937 H   0  0  0  0  0  0  0  0  0  0  0  0
    3.3520   -0.8648   -2.4926 H   0  0  0  0  0  0  0  0  0  0  0  0
    5.9846    4.5838   -0.1283 H   0  0  0  0  0  0  0  0  0  0  0  0
    4.5678    6.5717   -0.3089 H   0  0  0  0  0  0  0  0  0  0  0  0
    1.4870    8.4982   -0.6458 H   0  0  0  0  0  0  0  0  0  0  0  0
    2.7526    7.9607    0.4656 H   0  0  0  0  0  0  0  0  0  0  0  0
    3.0593    8.0375   -1.3092 H   0  0  0  0  0  0  0  0  0  0  0  0
    1.0897    4.0803   -0.7746 H   0  0  0  0  0  0  0  0  0  0  0  0
    1.0704    1.6954   -2.7998 H   0  0  0  0  0  0  0  0  0  0  0  0
   -1.1993    0.7686   -3.0641 H   0  0  0  0  0  0  0  0  0  0  0  0
   -2.9083   -1.7720    0.2352 H   0  0  0  0  0  0  0  0  0  0  0  0
   -3.4016   -0.0728    0.5501 H   0  0  0  0  0  0  0  0  0  0  0  0
   -5.1845   -0.2894   -1.1804 H   0  0  0  0  0  0  0  0  0  0  0  0
   -4.7242   -1.9225   -1.5122 H   0  0  0  0  0  0  0  0  0  0  0  0
   -6.0319   -3.6850   -0.0095 H   0  0  0  0  0  0  0  0  0  0  0  0
   -4.4805   -3.3183    0.7239 H   0  0  0  0  0  0  0  0  0  0  0  0
   -6.2682   -4.4422    2.2116 H   0  0  0  0  0  0  0  0  0  0  0  0
   -5.3658   -3.0860    2.8881 H   0  0  0  0  0  0  0  0  0  0  0  0
   -8.1609   -2.9479    1.6622 H   0  0  0  0  0  0  0  0  0  0  0  0
   -7.7841   -2.8320    3.3761 H   0  0  0  0  0  0  0  0  0  0  0  0
   -8.0866   -0.6670    1.7375 H   0  0  0  0  0  0  0  0  0  0  0  0
   -7.1290   -0.6383    3.2102 H   0  0  0  0  0  0  0  0  0  0  0  0
   -5.0682   -0.7389    2.0899 H   0  0  0  0  0  0  0  0  0  0  0  0
   -6.0542    0.3023    1.0631 H   0  0  0  0  0  0  0  0  0  0  0  0
   -1.1003   -0.6048    1.0232 H   0  0  0  0  0  0  0  0  0  0  0  0
    1.1404    0.3168    1.2868 H   0  0  0  0  0  0  0  0  0  0  0  0
    4.2377   -0.7770    1.6959 H   0  0  0  0  0  0  0  0  0  0  0  0
  1  2  1  0
  2  3  1  0
  3  4  2  0
  4  5  1  0
  5  6  1  0
  6  7  1  0
  5  8  2  0
  8  9  1  0
  9 10  1  0
 10 11  1  0
 11 12  1  0
 12 13  2  0
 13 14  1  0
 14 15  2  0
 15 16  1  0
 16 17  1  0
 15 18  1  0
 18 19  2  0
 19 20  1  0
 20 21  1  0
 21 22  2  0
 22 23  1  0
 23 24  2  0
 24 25  1  0
 25 26  1  0
 26 27  1  0
 27 28  1  0
 28 29  1  0
 29 30  1  0
 30 31  1  0
 31 32  1  0
 32 33  1  0
 24 34  1  0
 34 35  2  0
  9 36  2  0
 36  3  1  0
 20 10  2  0
 35 21  1  0
 19 12  1  0
 33 28  1  0
  1 37  1  0
  1 38  1  0
  1 39  1  0
  4 40  1  0
  7 41  1  0
  7 42  1  0
  7 43  1  0
  8 44  1  0
 13 45  1  0
 14 46  1  0
 17 47  1  0
 17 48  1  0
 17 49  1  0
 18 50  1  0
 22 51  1  0
 23 52  1  0
 26 53  1  0
 26 54  1  0
 27 55  1  0
 27 56  1  0
 29 57  1  0
 29 58  1  0
 30 59  1  0
 30 60  1  0
 31 61  1  0
 31 62  1  0
 32 63  1  0
 32 64  1  0
 33 65  1  0
 33 66  1  0
 34 67  1  0
 35 68  1  0
 36 69  1  0
M  END
$$$$
