
     RDKit          3D

 50 53  0  0  0  0  0  0  0  0999 V2000
   -4.1237    2.2328    4.0192 C   0  0  0  0  0  0  0  0  0  0  0  0
   -3.1070    1.2217    3.5119 C   0  0  0  0  0  0  0  0  0  0  0  0
   -1.7550    1.8593    3.2196 C   0  0  0  0  0  0  0  0  0  0  0  0
   -1.4916    2.9881    3.6375 O   0  0  0  0  0  0  0  0  0  0  0  0
   -0.8349    1.1063    2.4878 N   0  0  0  0  0  0  0  0  0  0  0  0
   -0.9468   -0.3503    2.3299 C   0  0  0  0  0  0  0  0  0  0  0  0
   -1.2204   -0.8228    0.9193 C   0  0  0  0  0  0  0  0  0  0  0  0
   -2.0736   -0.1269    0.0528 C   0  0  0  0  0  0  0  0  0  0  0  0
   -2.3044   -0.5876   -1.2461 C   0  0  0  0  0  0  0  0  0  0  0  0
   -1.6904   -1.7566   -1.7053 C   0  0  0  0  0  0  0  0  0  0  0  0
   -1.9552   -2.2597   -3.0927 C   0  0  0  0  0  0  0  0  0  0  0  0
   -0.8699   -2.4773   -0.8329 C   0  0  0  0  0  0  0  0  0  0  0  0
   -0.6395   -2.0169    0.4661 C   0  0  0  0  0  0  0  0  0  0  0  0
    0.4588    1.7481    2.2033 C   0  0  0  0  0  0  0  0  0  0  0  0
    1.0239    1.3821    0.8628 C   0  0  0  0  0  0  0  0  0  0  0  0
    2.0296    0.5022    0.7006 C   0  0  0  0  0  0  0  0  0  0  0  0
    2.5135    0.1468   -0.6332 C   0  0  0  0  0  0  0  0  0  0  0  0
    3.5213   -0.8078   -0.8082 C   0  0  0  0  0  0  0  0  0  0  0  0
    3.9051   -1.1009   -2.1005 C   0  0  0  0  0  0  0  0  0  0  0  0
    3.3304   -0.4866   -3.1901 C   0  0  0  0  0  0  0  0  0  0  0  0
    2.3376    0.4595   -3.0547 C   0  0  0  0  0  0  0  0  0  0  0  0
    1.9305    0.7723   -1.7566 C   0  0  0  0  0  0  0  0  0  0  0  0
    0.9281    1.7260   -1.5563 N   0  0  0  0  0  0  0  0  0  0  0  0
    0.4443    2.0817   -0.3252 C   0  0  0  0  0  0  0  0  0  0  0  0
   -0.4252    2.9413   -0.2196 O   0  0  0  0  0  0  0  0  0  0  0  0
    3.8544   -0.9234   -4.3667 O   0  0  0  0  0  0  0  0  0  0  0  0
    4.8264   -1.8799   -3.8952 C   0  0  0  0  0  0  0  0  0  0  0  0
    4.8610   -2.0003   -2.4575 O   0  0  0  0  0  0  0  0  0  0  0  0
   -4.2722    3.0382    3.2924 H   0  0  0  0  0  0  0  0  0  0  0  0
   -5.0884    1.7468    4.1949 H   0  0  0  0  0  0  0  0  0  0  0  0
   -3.7947    2.6853    4.9605 H   0  0  0  0  0  0  0  0  0  0  0  0
   -2.9704    0.4516    4.2783 H   0  0  0  0  0  0  0  0  0  0  0  0
   -3.5001    0.7586    2.6025 H   0  0  0  0  0  0  0  0  0  0  0  0
   -0.0089   -0.7818    2.7021 H   0  0  0  0  0  0  0  0  0  0  0  0
   -1.7329   -0.7574    2.9710 H   0  0  0  0  0  0  0  0  0  0  0  0
   -2.5447    0.8026    0.3666 H   0  0  0  0  0  0  0  0  0  0  0  0
   -2.9609   -0.0168   -1.8993 H   0  0  0  0  0  0  0  0  0  0  0  0
   -2.1353   -1.4278   -3.7817 H   0  0  0  0  0  0  0  0  0  0  0  0
   -2.8311   -2.9157   -3.0925 H   0  0  0  0  0  0  0  0  0  0  0  0
   -1.0946   -2.8175   -3.4767 H   0  0  0  0  0  0  0  0  0  0  0  0
   -0.3994   -3.4015   -1.1608 H   0  0  0  0  0  0  0  0  0  0  0  0
    0.0103   -2.5958    1.1184 H   0  0  0  0  0  0  0  0  0  0  0  0
    0.3819    2.8389    2.2769 H   0  0  0  0  0  0  0  0  0  0  0  0
    1.1387    1.4415    3.0087 H   0  0  0  0  0  0  0  0  0  0  0  0
    2.4783    0.0018    1.5521 H   0  0  0  0  0  0  0  0  0  0  0  0
    3.9899   -1.3107    0.0298 H   0  0  0  0  0  0  0  0  0  0  0  0
    1.8994    0.9293   -3.9265 H   0  0  0  0  0  0  0  0  0  0  0  0
    0.4996    2.1935   -2.3431 H   0  0  0  0  0  0  0  0  0  0  0  0
    4.5892   -2.8607   -4.3232 H   0  0  0  0  0  0  0  0  0  0  0  0
    5.8187   -1.5736   -4.2455 H   0  0  0  0  0  0  0  0  0  0  0  0
  1  2  1  0
  2  3  1  0
  3  4  2  0
  3  5  1  0
  5  6  1  0
  6  7  1  0
  7  8  2  0
  8  9  1  0
  9 10  2  0
 10 11  1  0
 10 12  1  0
 12 13  2  0
  5 14  1  0
 14 15  1  0
 15 16  2  0
 16 17  1  0
 17 18  2  0
 18 19  1  0
 19 20  2  0
 20 21  1  0
 21 22  2  0
 22 23  1  0
 23 24  1  0
 24 25  2  0
 20 26  1  0
 26 27  1  0
 27 28  1  0
 13  7  1  0
 24 15  1  0
 22 17  1  0
 28 19  1  0
  1 29  1  0
  1 30  1  0
  1 31  1  0
  2 32  1  0
  2 33  1  0
  6 34  1  0
  6 35  1  0
  8 36  1  0
  9 37  1  0
 11 38  1  0
 11 39  1  0
 11 40  1  0
 12 41  1  0
 13 42  1  0
 14 43  1  0
 14 44  1  0
 16 45  1  0
 18 46  1  0
 21 47  1  0
 23 48  1  0
 27 49  1  0
 27 50  1  0
M  END
$$$$
