
     RDKit          3D

 33 33  0  0  0  0  0  0  0  0999 V2000
   -4.2243   -1.2546    1.3851 C   0  0  0  0  0  0  0  0  0  0  0  0
   -3.5242   -0.8618    0.0830 C   0  0  0  0  0  0  0  0  0  0  0  0
   -4.5066   -0.1288   -0.8328 C   0  0  0  0  0  0  0  0  0  0  0  0
   -2.3763    0.0248    0.3069 N   0  0  0  0  0  0  0  0  0  0  0  0
   -1.2255   -0.6545    0.8956 C   0  0  0  0  0  0  0  0  0  0  0  0
   -0.0263    0.2875    0.9992 C   0  0  0  0  0  0  0  0  0  0  0  0
    0.4508    0.7995   -0.3591 C   0  0  0  0  0  0  0  0  0  0  0  0
    1.6281    1.5949   -0.1980 O   0  0  0  0  0  0  0  0  0  0  0  0
    2.8591    1.0132   -0.3320 C   0  0  0  0  0  0  0  0  0  0  0  0
    3.0872   -0.3662   -0.3725 C   0  0  0  0  0  0  0  0  0  0  0  0
    4.3875   -0.8677   -0.5000 C   0  0  0  0  0  0  0  0  0  0  0  0
    5.4674    0.0073   -0.5819 C   0  0  0  0  0  0  0  0  0  0  0  0
    7.0624   -0.6179   -0.7374 Cl  0  0  0  0  0  0  0  0  0  0  0  0
    5.2640    1.3818   -0.5342 C   0  0  0  0  0  0  0  0  0  0  0  0
    3.9639    1.8798   -0.4066 C   0  0  0  0  0  0  0  0  0  0  0  0
    3.7488    3.7688   -0.3436 Br  0  0  0  0  0  0  0  0  0  0  0  0
   -3.5739   -1.8579    2.0260 H   0  0  0  0  0  0  0  0  0  0  0  0
   -5.1183   -1.8524    1.1761 H   0  0  0  0  0  0  0  0  0  0  0  0
   -4.5387   -0.3723    1.9538 H   0  0  0  0  0  0  0  0  0  0  0  0
   -3.1974   -1.7688   -0.4404 H   0  0  0  0  0  0  0  0  0  0  0  0
   -5.3672   -0.7657   -1.0650 H   0  0  0  0  0  0  0  0  0  0  0  0
   -4.8839    0.7896   -0.3688 H   0  0  0  0  0  0  0  0  0  0  0  0
   -4.0309    0.1419   -1.7823 H   0  0  0  0  0  0  0  0  0  0  0  0
   -2.6563    0.8106    0.8955 H   0  0  0  0  0  0  0  0  0  0  0  0
   -1.4646   -1.0160    1.9014 H   0  0  0  0  0  0  0  0  0  0  0  0
   -0.9439   -1.5219    0.2869 H   0  0  0  0  0  0  0  0  0  0  0  0
    0.7913   -0.2365    1.5082 H   0  0  0  0  0  0  0  0  0  0  0  0
   -0.2661    1.1431    1.6440 H   0  0  0  0  0  0  0  0  0  0  0  0
   -0.3080    1.4682   -0.7815 H   0  0  0  0  0  0  0  0  0  0  0  0
    0.5856   -0.0012   -1.0951 H   0  0  0  0  0  0  0  0  0  0  0  0
    2.2774   -1.0841   -0.2958 H   0  0  0  0  0  0  0  0  0  0  0  0
    4.5483   -1.9426   -0.5309 H   0  0  0  0  0  0  0  0  0  0  0  0
    6.1107    2.0597   -0.5950 H   0  0  0  0  0  0  0  0  0  0  0  0
  1  2  1  0
  2  3  1  0
  2  4  1  0
  4  5  1  0
  5  6  1  0
  6  7  1  0
  7  8  1  0
  8  9  1  0
  9 10  2  0
 10 11  1  0
 11 12  2  0
 12 13  1  0
 12 14  1  0
 14 15  2  0
 15 16  1  0
 15  9  1  0
  1 17  1  0
  1 18  1  0
  1 19  1  0
  2 20  1  0
  3 21  1  0
  3 22  1  0
  3 23  1  0
  4 24  1  0
  5 25  1  0
  5 26  1  0
  6 27  1  0
  6 28  1  0
  7 29  1  0
  7 30  1  0
 10 31  1  0
 11 32  1  0
 14 33  1  0
M  END
$$$$
