
     RDKit          3D

 61 64  0  0  0  0  0  0  0  0999 V2000
    7.0109    3.3548   -1.5585 C   0  0  0  0  0  0  0  0  0  0  0  0
    5.8981    2.7146   -2.1919 O   0  0  0  0  0  0  0  0  0  0  0  0
    5.1914    1.9829   -1.2706 C   0  0  0  0  0  0  0  0  0  0  0  0
    4.0590    2.5690   -0.7085 C   0  0  0  0  0  0  0  0  0  0  0  0
    3.2852    1.8435    0.1970 C   0  0  0  0  0  0  0  0  0  0  0  0
    3.6267    0.5262    0.5288 C   0  0  0  0  0  0  0  0  0  0  0  0
    2.7850   -0.1340    1.4465 N   0  0  0  0  0  0  0  0  0  0  0  0
    2.8038   -1.4688    1.8167 C   0  0  0  0  0  0  0  0  0  0  0  0
    3.5739   -2.3283    1.3927 O   0  0  0  0  0  0  0  0  0  0  0  0
    1.7431   -1.8185    2.8537 C   0  0  0  0  0  0  0  0  0  0  0  0
    0.1625   -2.2381    2.0602 S   0  0  0  0  0  0  0  0  0  0  0  0
   -0.4360   -0.6643    1.6374 C   0  0  0  0  0  0  0  0  0  0  0  0
    0.1242    0.4594    2.0252 N   0  0  0  0  0  0  0  0  0  0  0  0
   -0.4966    1.4866    1.3738 N   0  0  0  0  0  0  0  0  0  0  0  0
   -1.4655    0.9803    0.6304 C   0  0  0  0  0  0  0  0  0  0  0  0
   -2.5264    1.7884   -0.0489 C   0  0  0  0  0  0  0  0  0  0  0  0
   -3.8345    1.7507    0.6914 C   0  0  0  0  0  0  0  0  0  0  0  0
   -4.0747    1.9455    2.0450 C   0  0  0  0  0  0  0  0  0  0  0  0
   -5.4626    1.8084    2.2678 C   0  0  0  0  0  0  0  0  0  0  0  0
   -6.0463    1.5450    1.0493 C   0  0  0  0  0  0  0  0  0  0  0  0
   -5.0598    1.5331    0.0951 N   0  0  0  0  0  0  0  0  0  0  0  0
   -5.3128    1.3532   -1.3192 C   0  0  0  0  0  0  0  0  0  0  0  0
   -1.4420   -0.4074    0.7218 N   0  0  0  0  0  0  0  0  0  0  0  0
   -2.2654   -1.3285    0.0300 C   0  0  0  0  0  0  0  0  0  0  0  0
   -2.4211   -1.2179   -1.3558 C   0  0  0  0  0  0  0  0  0  0  0  0
   -3.2411   -2.1212   -2.0380 C   0  0  0  0  0  0  0  0  0  0  0  0
   -3.9116   -3.1363   -1.3456 C   0  0  0  0  0  0  0  0  0  0  0  0
   -4.8260   -4.0744   -2.0787 C   0  0  0  0  0  0  0  0  0  0  0  0
   -3.7559   -3.2331    0.0424 C   0  0  0  0  0  0  0  0  0  0  0  0
   -2.9236   -2.3442    0.7284 C   0  0  0  0  0  0  0  0  0  0  0  0
    4.7603   -0.0555   -0.0506 C   0  0  0  0  0  0  0  0  0  0  0  0
    5.5469    0.6620   -0.9624 C   0  0  0  0  0  0  0  0  0  0  0  0
    6.6634    0.1739   -1.5911 O   0  0  0  0  0  0  0  0  0  0  0  0
    6.9901   -1.1923   -1.3694 C   0  0  0  0  0  0  0  0  0  0  0  0
    6.6661    4.1201   -0.8539 H   0  0  0  0  0  0  0  0  0  0  0  0
    7.6633    2.6415   -1.0481 H   0  0  0  0  0  0  0  0  0  0  0  0
    7.5977    3.8516   -2.3348 H   0  0  0  0  0  0  0  0  0  0  0  0
    3.7792    3.5830   -0.9789 H   0  0  0  0  0  0  0  0  0  0  0  0
    2.4041    2.3147    0.6286 H   0  0  0  0  0  0  0  0  0  0  0  0
    1.9887    0.4127    1.7800 H   0  0  0  0  0  0  0  0  0  0  0  0
    2.0942   -2.6948    3.4084 H   0  0  0  0  0  0  0  0  0  0  0  0
    1.6318   -1.0100    3.5851 H   0  0  0  0  0  0  0  0  0  0  0  0
   -2.6360    1.4820   -1.0904 H   0  0  0  0  0  0  0  0  0  0  0  0
   -2.1959    2.8353   -0.0840 H   0  0  0  0  0  0  0  0  0  0  0  0
   -3.3182    2.1579    2.7938 H   0  0  0  0  0  0  0  0  0  0  0  0
   -5.9817    1.8951    3.2136 H   0  0  0  0  0  0  0  0  0  0  0  0
   -7.0846    1.3804    0.7874 H   0  0  0  0  0  0  0  0  0  0  0  0
   -6.3844    1.4429   -1.5099 H   0  0  0  0  0  0  0  0  0  0  0  0
   -4.9690    0.3584   -1.6076 H   0  0  0  0  0  0  0  0  0  0  0  0
   -4.7805    2.1292   -1.8741 H   0  0  0  0  0  0  0  0  0  0  0  0
   -1.8809   -0.4697   -1.9298 H   0  0  0  0  0  0  0  0  0  0  0  0
   -3.3477   -2.0357   -3.1180 H   0  0  0  0  0  0  0  0  0  0  0  0
   -5.8177   -3.6231   -2.1849 H   0  0  0  0  0  0  0  0  0  0  0  0
   -4.9271   -5.0247   -1.5440 H   0  0  0  0  0  0  0  0  0  0  0  0
   -4.4319   -4.3030   -3.0747 H   0  0  0  0  0  0  0  0  0  0  0  0
   -4.2843   -4.0034    0.6020 H   0  0  0  0  0  0  0  0  0  0  0  0
   -2.8407   -2.4382    1.8081 H   0  0  0  0  0  0  0  0  0  0  0  0
    5.0317   -1.0696    0.2123 H   0  0  0  0  0  0  0  0  0  0  0  0
    7.2368   -1.3710   -0.3199 H   0  0  0  0  0  0  0  0  0  0  0  0
    7.8791   -1.4278   -1.9662 H   0  0  0  0  0  0  0  0  0  0  0  0
    6.1852   -1.8488   -1.7079 H   0  0  0  0  0  0  0  0  0  0  0  0
  1  2  1  0
  2  3  1  0
  3  4  2  0
  4  5  1  0
  5  6  2  0
  6  7  1  0
  7  8  1  0
  8  9  2  0
  8 10  1  0
 10 11  1  0
 11 12  1  0
 12 13  2  0
 13 14  1  0
 14 15  2  0
 15 16  1  0
 16 17  1  0
 17 18  2  0
 18 19  1  0
 19 20  2  0
 20 21  1  0
 21 22  1  0
 15 23  1  0
 23 24  1  0
 24 25  2  0
 25 26  1  0
 26 27  2  0
 27 28  1  0
 27 29  1  0
 29 30  2  0
  6 31  1  0
 31 32  2  0
 32 33  1  0
 33 34  1  0
 32  3  1  0
 23 12  1  0
 30 24  1  0
 21 17  1  0
  1 35  1  0
  1 36  1  0
  1 37  1  0
  4 38  1  0
  5 39  1  0
  7 40  1  0
 10 41  1  0
 10 42  1  0
 16 43  1  0
 16 44  1  0
 18 45  1  0
 19 46  1  0
 20 47  1  0
 22 48  1  0
 22 49  1  0
 22 50  1  0
 25 51  1  0
 26 52  1  0
 28 53  1  0
 28 54  1  0
 28 55  1  0
 29 56  1  0
 30 57  1  0
 31 58  1  0
 34 59  1  0
 34 60  1  0
 34 61  1  0
M  END
$$$$
