
     RDKit          3D

 42 44  0  0  0  0  0  0  0  0999 V2000
   -4.8198    1.4396    0.5664 C   0  0  0  0  0  0  0  0  0  0  0  0
   -3.6064    1.1922   -0.2820 C   0  0  0  0  0  0  0  0  0  0  0  0
   -3.2298    2.1155   -1.2593 C   0  0  0  0  0  0  0  0  0  0  0  0
   -2.0961    1.9146   -2.0546 C   0  0  0  0  0  0  0  0  0  0  0  0
   -1.3259    0.7610   -1.8359 C   0  0  0  0  0  0  0  0  0  0  0  0
   -1.6663   -0.1733   -0.8570 C   0  0  0  0  0  0  0  0  0  0  0  0
   -2.8178    0.0508   -0.0697 C   0  0  0  0  0  0  0  0  0  0  0  0
   -0.6782   -1.1966   -0.8990 C   0  0  0  0  0  0  0  0  0  0  0  0
   -0.6311   -2.3542   -0.0662 C   0  0  0  0  0  0  0  0  0  0  0  0
    0.1695   -2.5393    0.9980 C   0  0  0  0  0  0  0  0  0  0  0  0
    1.1313   -1.5595    1.5109 C   0  0  0  0  0  0  0  0  0  0  0  0
    2.4772   -1.8990    1.6105 C   0  0  0  0  0  0  0  0  0  0  0  0
    3.3863   -0.9595    2.0828 C   0  0  0  0  0  0  0  0  0  0  0  0
    2.9756    0.2760    2.4474 N   0  0  0  0  0  4  0  0  0  0  0  0
    3.9547    1.2553    2.9461 C   0  0  0  0  0  0  0  0  0  0  0  0
    1.6697    0.6174    2.3789 C   0  0  0  0  0  0  0  0  0  0  0  0
    0.7263   -0.2904    1.9194 C   0  0  0  0  0  0  0  0  0  0  0  0
    0.2208   -0.9023   -1.9086 C   0  0  0  0  0  0  0  0  0  0  0  0
    1.4008   -1.6659   -2.4044 C   0  0  0  0  0  0  0  0  0  0  0  0
   -0.1851    0.2956   -2.4656 N   0  0  0  0  0  0  0  0  0  0  0  0
    0.4525    0.9679   -3.5804 C   0  0  0  0  0  0  0  0  0  0  0  0
   -5.5800    1.9966    0.0087 H   0  0  0  0  0  0  0  0  0  0  0  0
   -4.5425    2.0125    1.4566 H   0  0  0  0  0  0  0  0  0  0  0  0
   -5.2759    0.4950    0.8810 H   0  0  0  0  0  0  0  0  0  0  0  0
   -3.8329    3.0070   -1.4257 H   0  0  0  0  0  0  0  0  0  0  0  0
   -1.8387    2.6356   -2.8241 H   0  0  0  0  0  0  0  0  0  0  0  0
   -3.0975   -0.6730    0.6912 H   0  0  0  0  0  0  0  0  0  0  0  0
   -1.3198   -3.1544   -0.3342 H   0  0  0  0  0  0  0  0  0  0  0  0
    0.1211   -3.4865    1.5318 H   0  0  0  0  0  0  0  0  0  0  0  0
    2.8252   -2.8847    1.3084 H   0  0  0  0  0  0  0  0  0  0  0  0
    4.4450   -1.1863    2.1705 H   0  0  0  0  0  0  0  0  0  0  0  0
    3.6375    2.2587    2.6503 H   0  0  0  0  0  0  0  0  0  0  0  0
    3.9869    1.1609    4.0343 H   0  0  0  0  0  0  0  0  0  0  0  0
    4.9332    1.0424    2.5083 H   0  0  0  0  0  0  0  0  0  0  0  0
    1.3890    1.6182    2.6945 H   0  0  0  0  0  0  0  0  0  0  0  0
   -0.3203    0.0037    1.8698 H   0  0  0  0  0  0  0  0  0  0  0  0
    2.3271   -1.1374   -2.1570 H   0  0  0  0  0  0  0  0  0  0  0  0
    1.4546   -2.6626   -1.9561 H   0  0  0  0  0  0  0  0  0  0  0  0
    1.3505   -1.7995   -3.4899 H   0  0  0  0  0  0  0  0  0  0  0  0
    0.4078    2.0483   -3.4227 H   0  0  0  0  0  0  0  0  0  0  0  0
    1.5013    0.6712   -3.6443 H   0  0  0  0  0  0  0  0  0  0  0  0
   -0.0797    0.6882   -4.4927 H   0  0  0  0  0  0  0  0  0  0  0  0
  1  2  1  0
  2  3  2  0
  3  4  1  0
  4  5  2  0
  5  6  1  0
  6  7  2  0
  6  8  1  0
  8  9  1  0
  9 10  2  3
 10 11  1  0
 11 12  2  0
 12 13  1  0
 13 14  2  0
 14 15  1  0
 14 16  1  0
 16 17  2  0
  8 18  2  0
 18 19  1  0
 18 20  1  0
 20 21  1  0
  7  2  1  0
 17 11  1  0
 20  5  1  0
  1 22  1  0
  1 23  1  0
  1 24  1  0
  3 25  1  0
  4 26  1  0
  7 27  1  0
  9 28  1  0
 10 29  1  0
 12 30  1  0
 13 31  1  0
 15 32  1  0
 15 33  1  0
 15 34  1  0
 16 35  1  0
 17 36  1  0
 19 37  1  0
 19 38  1  0
 19 39  1  0
 21 40  1  0
 21 41  1  0
 21 42  1  0
M  CHG  1  14   1
M  END
$$$$
