
     RDKit          3D

 53 54  0  0  0  0  0  0  0  0999 V2000
   -4.1587   -1.8024   -2.1951 C   0  0  0  0  0  0  0  0  0  0  0  0
   -3.4212   -1.1524   -1.0358 C   0  0  0  0  0  0  0  0  0  0  0  0
   -4.1667    0.0404   -0.5764 N   0  0  0  0  0  0  0  0  0  0  0  0
   -5.2789   -0.2338    0.3667 C   0  0  0  0  0  0  0  0  0  0  0  0
   -6.5940    0.2044   -0.2552 C   0  0  0  0  0  0  0  0  0  0  0  0
   -3.3069    1.4905   -0.3847 S   0  0  0  0  0  6  0  0  0  0  0  0
   -4.2374    2.5311    0.0102 O   0  0  0  0  0  0  0  0  0  0  0  0
   -2.4333    1.6646   -1.5283 O   0  0  0  0  0  0  0  0  0  0  0  0
   -2.2581    1.1664    1.0229 C   0  0  0  0  0  0  0  0  0  0  0  0
   -2.6670    1.5579    2.3019 C   0  0  0  0  0  0  0  0  0  0  0  0
   -1.8107    1.3707    3.3879 C   0  0  0  0  0  0  0  0  0  0  0  0
   -0.5428    0.8126    3.1938 C   0  0  0  0  0  0  0  0  0  0  0  0
   -0.1250    0.4398    1.9078 C   0  0  0  0  0  0  0  0  0  0  0  0
    1.2142   -0.1476    1.6492 C   0  0  0  0  0  0  0  0  0  0  0  0
    1.5014   -0.7401    0.6207 O   0  0  0  0  0  0  0  0  0  0  0  0
    2.0622    0.1290    2.6709 O   0  0  0  0  0  0  0  0  0  0  0  0
    3.3431   -0.4936    2.5731 C   0  0  0  0  0  0  0  0  0  0  0  0
    4.2482   -0.0665    1.4115 C   0  0  0  0  0  0  0  0  0  0  0  0
    5.2168   -0.7367    1.0723 O   0  0  0  0  0  0  0  0  0  0  0  0
    3.8977    1.1236    0.8132 N   0  0  0  0  0  0  0  0  0  0  0  0
    4.5654    1.6271   -0.3744 C   0  0  0  0  0  0  0  0  0  0  0  0
    4.0525    0.9852   -1.6784 C   0  0  0  0  0  0  0  0  0  0  0  0
    4.5624   -0.3515   -1.9159 N   0  0  0  0  0  0  0  0  0  0  0  0
    3.8132   -1.5021   -1.9806 C   0  0  0  0  0  0  0  0  0  0  0  0
    2.4719   -1.4996   -1.7421 O   0  0  0  0  0  0  0  0  0  0  0  0
    4.4989   -2.5968   -2.3232 C   0  0  0  0  0  0  0  0  0  0  0  0
    6.1792   -2.2443   -2.5772 S   0  0  0  0  0  0  0  0  0  0  0  0
    5.9076   -0.5273   -2.2295 C   0  0  0  0  0  0  0  0  0  0  0  0
    6.7754    0.3306   -2.3082 O   0  0  0  0  0  0  0  0  0  0  0  0
   -0.9862    0.6195    0.8180 C   0  0  0  0  0  0  0  0  0  0  0  0
   -3.6051   -2.6680   -2.5648 H   0  0  0  0  0  0  0  0  0  0  0  0
   -5.1509   -2.1395   -1.8947 H   0  0  0  0  0  0  0  0  0  0  0  0
   -4.2818   -1.1009   -3.0235 H   0  0  0  0  0  0  0  0  0  0  0  0
   -2.4150   -0.8884   -1.3766 H   0  0  0  0  0  0  0  0  0  0  0  0
   -3.2986   -1.8625   -0.2107 H   0  0  0  0  0  0  0  0  0  0  0  0
   -5.1230    0.2817    1.3203 H   0  0  0  0  0  0  0  0  0  0  0  0
   -5.3346   -1.3025    0.6036 H   0  0  0  0  0  0  0  0  0  0  0  0
   -7.4242    0.0015    0.4287 H   0  0  0  0  0  0  0  0  0  0  0  0
   -6.7874   -0.3286   -1.1942 H   0  0  0  0  0  0  0  0  0  0  0  0
   -6.5787    1.2753   -0.4802 H   0  0  0  0  0  0  0  0  0  0  0  0
   -3.6402    2.0223    2.4561 H   0  0  0  0  0  0  0  0  0  0  0  0
   -2.1250    1.6735    4.3842 H   0  0  0  0  0  0  0  0  0  0  0  0
    0.1094    0.6788    4.0559 H   0  0  0  0  0  0  0  0  0  0  0  0
    3.8843   -0.2735    3.4967 H   0  0  0  0  0  0  0  0  0  0  0  0
    3.2016   -1.5769    2.5192 H   0  0  0  0  0  0  0  0  0  0  0  0
    3.1526    1.6665    1.2172 H   0  0  0  0  0  0  0  0  0  0  0  0
    5.6442    1.4925   -0.2531 H   0  0  0  0  0  0  0  0  0  0  0  0
    4.3618    2.7020   -0.4028 H   0  0  0  0  0  0  0  0  0  0  0  0
    2.9565    0.9864   -1.7011 H   0  0  0  0  0  0  0  0  0  0  0  0
    4.3955    1.6073   -2.5171 H   0  0  0  0  0  0  0  0  0  0  0  0
    2.3198   -1.0143   -0.9002 H   0  0  0  0  0  0  0  0  0  0  0  0
    4.0761   -3.5854   -2.4332 H   0  0  0  0  0  0  0  0  0  0  0  0
   -0.6606    0.3542   -0.1882 H   0  0  0  0  0  0  0  0  0  0  0  0
  1  2  1  0
  2  3  1  0
  3  4  1  0
  4  5  1  0
  3  6  1  0
  6  7  2  0
  6  8  2  0
  6  9  1  0
  9 10  2  0
 10 11  1  0
 11 12  2  0
 12 13  1  0
 13 14  1  0
 14 15  2  0
 14 16  1  0
 16 17  1  0
 17 18  1  0
 18 19  2  0
 18 20  1  0
 20 21  1  0
 21 22  1  0
 22 23  1  0
 23 24  1  0
 24 25  1  0
 24 26  2  0
 26 27  1  0
 27 28  1  0
 28 29  2  0
 13 30  2  0
 30  9  1  0
 28 23  1  0
  1 31  1  0
  1 32  1  0
  1 33  1  0
  2 34  1  0
  2 35  1  0
  4 36  1  0
  4 37  1  0
  5 38  1  0
  5 39  1  0
  5 40  1  0
 10 41  1  0
 11 42  1  0
 12 43  1  0
 17 44  1  0
 17 45  1  0
 20 46  1  0
 21 47  1  0
 21 48  1  0
 22 49  1  0
 22 50  1  0
 25 51  1  0
 26 52  1  0
 30 53  1  0
M  END
$$$$
