
     RDKit          3D

 37 39  0  0  0  0  0  0  0  0999 V2000
    6.8338    1.1448   -1.5018 C   0  0  0  0  0  0  0  0  0  0  0  0
    5.6406    0.3860   -0.9429 C   0  0  0  0  0  0  0  0  0  0  0  0
    5.3633    0.7714    0.5102 C   0  0  0  0  0  0  0  0  0  0  0  0
    4.2062    0.0068    1.0643 C   0  0  0  0  0  0  0  0  0  0  0  0
    4.2877   -1.1915    1.6053 N   0  0  0  0  0  0  0  0  0  0  0  0
    3.0566   -1.6494    2.0295 N   0  0  0  0  0  0  0  0  0  0  0  0
    2.0964   -0.7828    1.7950 C   0  0  0  0  0  0  0  0  0  0  0  0
    0.7925   -1.0413    2.1367 N   0  0  0  0  0  0  0  0  0  0  0  0
   -0.2951   -0.2103    1.9490 C   0  0  0  0  0  0  0  0  0  0  0  0
   -0.2781    0.9061    1.4439 O   0  0  0  0  0  0  0  0  0  0  0  0
   -1.5935   -0.8650    2.4520 C   0  0  0  0  0  0  0  0  0  0  0  0
   -2.7758   -0.0948    2.3279 O   0  0  0  0  0  0  0  0  0  0  0  0
   -3.4568   -0.1481    1.1425 C   0  0  0  0  0  0  0  0  0  0  0  0
   -2.9460   -0.6266   -0.0787 C   0  0  0  0  0  0  0  0  0  0  0  0
   -3.7395   -0.6278   -1.2335 C   0  0  0  0  0  0  0  0  0  0  0  0
   -5.0240   -0.1415   -1.1336 C   0  0  0  0  0  0  0  0  0  0  0  0
   -5.5222    0.3374    0.0533 C   0  0  0  0  0  0  0  0  0  0  0  0
   -4.7635    0.3510    1.2040 C   0  0  0  0  0  0  0  0  0  0  0  0
   -6.8047    0.7748   -0.0613 O   0  0  0  0  0  0  0  0  0  0  0  0
   -7.0511    0.5276   -1.4610 C   0  0  0  0  0  0  0  0  0  0  0  0
   -5.9280   -0.0658   -2.1458 O   0  0  0  0  0  0  0  0  0  0  0  0
    2.6147    0.6515    1.0396 S   0  0  0  0  0  0  0  0  0  0  0  0
    7.0148    0.8540   -2.5413 H   0  0  0  0  0  0  0  0  0  0  0  0
    7.7399    0.9301   -0.9263 H   0  0  0  0  0  0  0  0  0  0  0  0
    6.6581    2.2251   -1.4770 H   0  0  0  0  0  0  0  0  0  0  0  0
    5.8330   -0.6915   -1.0166 H   0  0  0  0  0  0  0  0  0  0  0  0
    4.7606    0.5934   -1.5639 H   0  0  0  0  0  0  0  0  0  0  0  0
    5.1833    1.8508    0.5857 H   0  0  0  0  0  0  0  0  0  0  0  0
    6.2485    0.5595    1.1229 H   0  0  0  0  0  0  0  0  0  0  0  0
    0.6734   -1.9418    2.5808 H   0  0  0  0  0  0  0  0  0  0  0  0
   -1.4555   -1.0341    3.5272 H   0  0  0  0  0  0  0  0  0  0  0  0
   -1.7130   -1.8576    1.9990 H   0  0  0  0  0  0  0  0  0  0  0  0
   -1.9257   -0.9829   -0.1710 H   0  0  0  0  0  0  0  0  0  0  0  0
   -3.3529   -0.9887   -2.1800 H   0  0  0  0  0  0  0  0  0  0  0  0
   -5.1705    0.7377    2.1315 H   0  0  0  0  0  0  0  0  0  0  0  0
   -7.2960    1.4788   -1.9477 H   0  0  0  0  0  0  0  0  0  0  0  0
   -7.9116   -0.1454   -1.5516 H   0  0  0  0  0  0  0  0  0  0  0  0
  1  2  1  0
  2  3  1  0
  3  4  1  0
  4  5  2  0
  5  6  1  0
  6  7  2  0
  7  8  1  0
  8  9  1  0
  9 10  2  0
  9 11  1  0
 11 12  1  0
 12 13  1  0
 13 14  2  0
 14 15  1  0
 15 16  2  0
 16 17  1  0
 17 18  2  0
 17 19  1  0
 19 20  1  0
 20 21  1  0
  7 22  1  0
 22  4  1  0
 18 13  1  0
 21 16  1  0
  1 23  1  0
  1 24  1  0
  1 25  1  0
  2 26  1  0
  2 27  1  0
  3 28  1  0
  3 29  1  0
  8 30  1  0
 11 31  1  0
 11 32  1  0
 14 33  1  0
 15 34  1  0
 18 35  1  0
 20 36  1  0
 20 37  1  0
M  END
$$$$
