
     RDKit          3D

 60 63  0  0  0  0  0  0  0  0999 V2000
    8.5559    1.5411    0.8324 C   0  0  0  0  0  0  0  0  0  0  0  0
    7.4212    2.0886    0.1731 O   0  0  0  0  0  0  0  0  0  0  0  0
    6.4689    1.2032   -0.2513 C   0  0  0  0  0  0  0  0  0  0  0  0
    5.3905    1.7836   -0.9229 C   0  0  0  0  0  0  0  0  0  0  0  0
    4.3442    0.9963   -1.4096 C   0  0  0  0  0  0  0  0  0  0  0  0
    4.3661   -0.3920   -1.2345 C   0  0  0  0  0  0  0  0  0  0  0  0
    3.2298   -1.2512   -1.7241 C   0  0  0  0  0  0  0  0  0  0  0  0
    2.2864   -1.4915   -0.6608 N   0  0  0  0  0  0  0  0  0  0  0  0
    2.2750   -2.6576    0.0740 C   0  0  0  0  0  0  0  0  0  0  0  0
    3.0188   -3.6063   -0.1695 O   0  0  0  0  0  0  0  0  0  0  0  0
    1.3858   -2.6173    1.3302 C   0  0  0  0  0  0  0  0  0  0  0  0
    2.2502   -2.2877    2.5456 C   0  0  0  0  0  0  0  0  0  0  0  0
    0.2716   -1.6658    1.1540 N   0  0  0  0  0  0  0  0  0  0  0  0
    0.5344   -0.3112    1.4289 N   0  0  0  0  0  0  0  0  0  0  0  0
   -0.3858    0.6013    1.2787 C   0  0  0  0  0  0  0  0  0  0  0  0
   -0.0370    2.0245    1.6094 C   0  0  0  0  0  0  0  0  0  0  0  0
   -1.6877    0.2192    0.7941 C   0  0  0  0  0  0  0  0  0  0  0  0
   -2.8780    0.8971    0.5887 C   0  0  0  0  0  0  0  0  0  0  0  0
   -3.2576    2.2864    0.9545 C   0  0  0  0  0  0  0  0  0  0  0  0
   -3.7387   -0.0350   -0.0064 N   0  0  0  0  0  0  0  0  0  0  0  0
   -5.0190    0.1360   -0.6199 C   0  0  0  0  0  0  0  0  0  0  0  0
   -5.4861    1.3814   -1.0520 C   0  0  0  0  0  0  0  0  0  0  0  0
   -6.7461    1.4964   -1.6531 C   0  0  0  0  0  0  0  0  0  0  0  0
   -7.5580    0.3727   -1.8358 C   0  0  0  0  0  0  0  0  0  0  0  0
   -8.8908    0.4981   -2.5119 C   0  0  0  0  0  0  0  0  0  0  0  0
   -7.0768   -0.8781   -1.4424 C   0  0  0  0  0  0  0  0  0  0  0  0
   -5.8194   -0.9969   -0.8428 C   0  0  0  0  0  0  0  0  0  0  0  0
   -3.2010   -1.2844    0.0365 N   0  0  0  0  0  0  0  0  0  0  0  0
   -1.9479   -1.1131    0.4599 C   0  0  0  0  0  0  0  0  0  0  0  0
   -0.9379   -2.1530    0.6099 C   0  0  0  0  0  0  0  0  0  0  0  0
   -1.1199   -3.3279    0.3013 O   0  0  0  0  0  0  0  0  0  0  0  0
    5.4449   -0.9697   -0.5518 C   0  0  0  0  0  0  0  0  0  0  0  0
    6.4914   -0.1785   -0.0661 C   0  0  0  0  0  0  0  0  0  0  0  0
    9.2219    2.3690    1.0942 H   0  0  0  0  0  0  0  0  0  0  0  0
    9.1084    0.8653    0.1713 H   0  0  0  0  0  0  0  0  0  0  0  0
    8.2681    1.0387    1.7620 H   0  0  0  0  0  0  0  0  0  0  0  0
    5.3669    2.8607   -1.0686 H   0  0  0  0  0  0  0  0  0  0  0  0
    3.5166    1.4755   -1.9261 H   0  0  0  0  0  0  0  0  0  0  0  0
    2.6894   -0.7458   -2.5315 H   0  0  0  0  0  0  0  0  0  0  0  0
    3.6112   -2.1948   -2.1289 H   0  0  0  0  0  0  0  0  0  0  0  0
    1.8248   -0.6951   -0.2311 H   0  0  0  0  0  0  0  0  0  0  0  0
    0.9665   -3.6223    1.4563 H   0  0  0  0  0  0  0  0  0  0  0  0
    3.0143   -3.0583    2.6956 H   0  0  0  0  0  0  0  0  0  0  0  0
    1.6406   -2.2298    3.4536 H   0  0  0  0  0  0  0  0  0  0  0  0
    2.7752   -1.3331    2.4265 H   0  0  0  0  0  0  0  0  0  0  0  0
    1.0444    2.1292    1.7401 H   0  0  0  0  0  0  0  0  0  0  0  0
   -0.3555    2.6907    0.8035 H   0  0  0  0  0  0  0  0  0  0  0  0
   -0.5273    2.3127    2.5429 H   0  0  0  0  0  0  0  0  0  0  0  0
   -2.7059    2.6236    1.8363 H   0  0  0  0  0  0  0  0  0  0  0  0
   -4.3146    2.3641    1.2256 H   0  0  0  0  0  0  0  0  0  0  0  0
   -3.0355    2.9777    0.1363 H   0  0  0  0  0  0  0  0  0  0  0  0
   -4.8874    2.2815   -0.9895 H   0  0  0  0  0  0  0  0  0  0  0  0
   -7.0852    2.4734   -1.9915 H   0  0  0  0  0  0  0  0  0  0  0  0
   -9.3627    1.4555   -2.2667 H   0  0  0  0  0  0  0  0  0  0  0  0
   -9.5730   -0.2931   -2.1840 H   0  0  0  0  0  0  0  0  0  0  0  0
   -8.7677    0.4308   -3.5971 H   0  0  0  0  0  0  0  0  0  0  0  0
   -7.6737   -1.7738   -1.6003 H   0  0  0  0  0  0  0  0  0  0  0  0
   -5.4810   -1.9889   -0.5461 H   0  0  0  0  0  0  0  0  0  0  0  0
    5.4708   -2.0469   -0.3901 H   0  0  0  0  0  0  0  0  0  0  0  0
    7.3034   -0.6754    0.4536 H   0  0  0  0  0  0  0  0  0  0  0  0
  1  2  1  0
  2  3  1  0
  3  4  2  0
  4  5  1  0
  5  6  2  0
  6  7  1  0
  7  8  1  0
  8  9  1  0
  9 10  2  0
  9 11  1  0
 11 12  1  0
 11 13  1  0
 13 14  1  0
 14 15  2  0
 15 16  1  0
 15 17  1  0
 17 18  2  0
 18 19  1  0
 18 20  1  0
 20 21  1  0
 21 22  2  0
 22 23  1  0
 23 24  2  0
 24 25  1  0
 24 26  1  0
 26 27  2  0
 20 28  1  0
 28 29  2  0
 29 30  1  0
 30 31  2  0
  6 32  1  0
 32 33  2  0
 33  3  1  0
 30 13  1  0
 29 17  1  0
 27 21  1  0
  1 34  1  0
  1 35  1  0
  1 36  1  0
  4 37  1  0
  5 38  1  0
  7 39  1  0
  7 40  1  0
  8 41  1  0
 11 42  1  0
 12 43  1  0
 12 44  1  0
 12 45  1  0
 16 46  1  0
 16 47  1  0
 16 48  1  0
 19 49  1  0
 19 50  1  0
 19 51  1  0
 22 52  1  0
 23 53  1  0
 25 54  1  0
 25 55  1  0
 25 56  1  0
 26 57  1  0
 27 58  1  0
 32 59  1  0
 33 60  1  0
M  END
$$$$
