
     RDKit          3D

 57 61  0  0  0  0  0  0  0  0999 V2000
    0.8035   -0.6126    3.2325 O   0  0  0  0  0  0  0  0  0  0  0  0
   -0.1688   -0.4003    2.5182 C   0  0  0  0  0  0  0  0  0  0  0  0
   -0.1200    0.4676    1.4328 N   0  0  0  0  0  0  0  0  0  0  0  0
   -1.1898    0.7320    0.5892 C   0  0  0  0  0  0  0  0  0  0  0  0
   -0.9380    1.6671   -0.5891 C   0  0  0  0  0  0  0  0  0  0  0  0
   -0.2935    3.0005   -0.1912 C   0  0  0  0  0  0  0  0  0  0  0  0
    0.9122    3.3442   -1.0597 C   0  0  0  0  0  0  0  0  0  0  0  0
    1.8820    2.2235   -0.9975 N   0  0  0  0  0  0  0  0  0  0  0  0
    3.4339    2.6299   -1.6080 S   0  0  0  0  0  6  0  0  0  0  0  0
    3.3910    2.3861   -3.0337 O   0  0  0  0  0  0  0  0  0  0  0  0
    3.8468    3.9117   -1.0934 O   0  0  0  0  0  0  0  0  0  0  0  0
    4.4762    1.3920   -0.8539 C   0  0  0  0  0  0  0  0  0  0  0  0
    5.2754    0.6183   -1.7114 C   0  0  0  0  0  0  0  0  0  0  0  0
    6.0802   -0.3920   -1.1997 C   0  0  0  0  0  0  0  0  0  0  0  0
    6.0874   -0.6437    0.1680 C   0  0  0  0  0  0  0  0  0  0  0  0
    5.3000    0.1267    1.0255 C   0  0  0  0  0  0  0  0  0  0  0  0
    4.4868    1.1676    0.5387 C   0  0  0  0  0  0  0  0  0  0  0  0
    3.6383    1.9291    1.5301 C   0  0  0  0  0  0  0  0  0  0  0  0
    4.0956    1.8071    2.8113 F   0  0  0  0  0  0  0  0  0  0  0  0
    3.5504    3.2649    1.3212 F   0  0  0  0  0  0  0  0  0  0  0  0
    2.3534    1.4655    1.5658 F   0  0  0  0  0  0  0  0  0  0  0  0
    1.3464    0.9135   -1.4680 C   0  0  0  0  0  0  0  0  0  0  0  0
   -0.1620    0.9348   -1.6869 C   0  0  0  0  0  0  0  0  0  0  0  0
   -2.3686    0.1861    0.7165 N   0  0  0  0  0  0  0  0  0  0  0  0
   -2.4449   -0.6694    1.7644 C   0  0  0  0  0  0  0  0  0  0  0  0
   -1.4652   -1.0021    2.6664 C   0  0  0  0  0  0  0  0  0  0  0  0
   -1.9365   -1.8932    3.5801 N   0  0  0  0  0  0  0  0  0  0  0  0
   -3.2097   -2.1440    3.2691 N   0  0  0  0  0  0  0  0  0  0  0  0
   -3.5107   -1.4282    2.1568 N   0  0  0  0  0  0  0  0  0  0  0  0
   -4.8310   -1.4861    1.5667 C   0  0  0  0  0  0  0  0  0  0  0  0
   -4.8826   -2.4733    0.4271 C   0  0  0  0  0  0  0  0  0  0  0  0
   -4.6309   -2.0578   -0.8900 C   0  0  0  0  0  0  0  0  0  0  0  0
   -4.6596   -2.9775   -1.9408 C   0  0  0  0  0  0  0  0  0  0  0  0
   -4.9385   -4.3180   -1.6865 C   0  0  0  0  0  0  0  0  0  0  0  0
   -5.1828   -4.7442   -0.3818 C   0  0  0  0  0  0  0  0  0  0  0  0
   -5.1529   -3.8268    0.6712 C   0  0  0  0  0  0  0  0  0  0  0  0
    0.7731    0.9370    1.3185 H   0  0  0  0  0  0  0  0  0  0  0  0
   -1.9310    1.8959   -1.0004 H   0  0  0  0  0  0  0  0  0  0  0  0
   -1.0363    3.8023   -0.2924 H   0  0  0  0  0  0  0  0  0  0  0  0
    0.0025    3.0069    0.8642 H   0  0  0  0  0  0  0  0  0  0  0  0
    0.6150    3.5370   -2.0967 H   0  0  0  0  0  0  0  0  0  0  0  0
    1.3613    4.2611   -0.6628 H   0  0  0  0  0  0  0  0  0  0  0  0
    5.2769    0.7990   -2.7877 H   0  0  0  0  0  0  0  0  0  0  0  0
    6.6976   -0.9881   -1.8674 H   0  0  0  0  0  0  0  0  0  0  0  0
    6.7049   -1.4424    0.5701 H   0  0  0  0  0  0  0  0  0  0  0  0
    5.3215   -0.0968    2.0933 H   0  0  0  0  0  0  0  0  0  0  0  0
    1.8203    0.5945   -2.4010 H   0  0  0  0  0  0  0  0  0  0  0  0
    1.6015    0.1619   -0.7165 H   0  0  0  0  0  0  0  0  0  0  0  0
   -0.5260   -0.0928   -1.8012 H   0  0  0  0  0  0  0  0  0  0  0  0
   -0.3646    1.4332   -2.6430 H   0  0  0  0  0  0  0  0  0  0  0  0
   -5.5468   -1.7595    2.3520 H   0  0  0  0  0  0  0  0  0  0  0  0
   -5.0966   -0.4783    1.2278 H   0  0  0  0  0  0  0  0  0  0  0  0
   -4.3986   -1.0183   -1.1041 H   0  0  0  0  0  0  0  0  0  0  0  0
   -4.4617   -2.6476   -2.9576 H   0  0  0  0  0  0  0  0  0  0  0  0
   -4.9590   -5.0338   -2.5040 H   0  0  0  0  0  0  0  0  0  0  0  0
   -5.3950   -5.7899   -0.1823 H   0  0  0  0  0  0  0  0  0  0  0  0
   -5.3325   -4.1803    1.6854 H   0  0  0  0  0  0  0  0  0  0  0  0
  1  2  2  0
  2  3  1  0
  3  4  1  0
  4  5  1  0
  5  6  1  0
  6  7  1  0
  7  8  1  0
  8  9  1  0
  9 10  2  0
  9 11  2  0
  9 12  1  0
 12 13  2  0
 13 14  1  0
 14 15  2  0
 15 16  1  0
 16 17  2  0
 17 18  1  0
 18 19  1  0
 18 20  1  0
 18 21  1  0
  8 22  1  0
 22 23  1  0
  4 24  2  0
 24 25  1  0
 25 26  2  0
 26 27  1  0
 27 28  2  0
 28 29  1  0
 29 30  1  0
 30 31  1  0
 31 32  2  0
 32 33  1  0
 33 34  2  0
 34 35  1  0
 35 36  2  0
 26  2  1  0
 36 31  1  0
 23  5  1  0
 29 25  1  0
 17 12  1  0
  3 37  1  0
  5 38  1  0
  6 39  1  0
  6 40  1  0
  7 41  1  0
  7 42  1  0
 13 43  1  0
 14 44  1  0
 15 45  1  0
 16 46  1  0
 22 47  1  0
 22 48  1  0
 23 49  1  0
 23 50  1  0
 30 51  1  0
 30 52  1  0
 32 53  1  0
 33 54  1  0
 34 55  1  0
 35 56  1  0
 36 57  1  0
M  END
$$$$
