
     RDKit          3D

 60 63  0  0  0  0  0  0  0  0999 V2000
    4.2584    1.8385   -3.7773 C   0  0  0  0  0  0  0  0  0  0  0  0
    3.9105    2.3757   -2.3997 C   0  0  0  0  0  0  0  0  0  0  0  0
    3.6658    1.2867   -1.5042 O   0  0  0  0  0  0  0  0  0  0  0  0
    4.5967    1.0713   -0.5219 C   0  0  0  0  0  0  0  0  0  0  0  0
    5.9717    1.2409   -0.7209 C   0  0  0  0  0  0  0  0  0  0  0  0
    6.8754    0.9783    0.3128 C   0  0  0  0  0  0  0  0  0  0  0  0
    6.4164    0.5305    1.5494 C   0  0  0  0  0  0  0  0  0  0  0  0
    5.0514    0.3351    1.7532 C   0  0  0  0  0  0  0  0  0  0  0  0
    4.1430    0.5961    0.7188 C   0  0  0  0  0  0  0  0  0  0  0  0
    2.6984    0.3780    0.9480 C   0  0  0  0  0  0  0  0  0  0  0  0
    2.2405   -0.0310    2.0887 N   0  0  0  0  0  0  0  0  0  0  0  0
    0.8850   -0.1951    2.1435 N   0  0  0  0  0  0  0  0  0  0  0  0
    0.2607   -0.5308    3.3348 C   0  0  0  0  0  0  0  0  0  0  0  0
    0.8525   -0.6792    4.4022 O   0  0  0  0  0  0  0  0  0  0  0  0
   -1.1975   -0.6695    3.2505 C   0  0  0  0  0  0  0  0  0  0  0  0
   -1.9737   -0.4467    4.3557 N   0  0  0  0  0  0  0  0  0  0  0  0
   -3.2366   -0.6300    4.0274 N   0  0  0  0  0  0  0  0  0  0  0  0
   -3.3116   -1.0311    2.7291 N   0  0  0  0  0  0  0  0  0  0  0  0
   -4.5695   -1.3706    2.1632 C   0  0  0  0  0  0  0  0  0  0  0  0
   -4.6747   -1.8585    0.9280 N   0  0  0  0  0  0  0  0  0  0  0  0
   -6.0391   -2.0800    0.7602 O   0  0  0  0  0  0  0  0  0  0  0  0
   -6.7506   -1.7282    1.8999 N   0  0  0  0  0  0  0  0  0  0  0  0
   -5.8414   -1.2845    2.7662 C   0  0  0  0  0  0  0  0  0  0  0  0
   -6.1277   -0.8301    4.0011 N   0  0  0  0  0  0  0  0  0  0  0  0
   -2.0213   -1.0401    2.1867 C   0  0  0  0  0  0  0  0  0  0  0  0
   -1.6715   -1.4415    0.7932 C   0  0  0  0  0  0  0  0  0  0  0  0
   -0.9877   -0.3483    0.0722 N   0  0  0  0  0  0  0  0  0  0  0  0
   -1.8748    0.7858   -0.2557 C   0  0  0  0  0  0  0  0  0  0  0  0
   -2.8904    0.5115   -1.3682 C   0  0  0  0  0  0  0  0  0  0  0  0
   -2.2095   -0.0153   -2.6350 C   0  0  0  0  0  0  0  0  0  0  0  0
   -3.2420   -0.3993   -3.6916 C   0  0  0  0  0  0  0  0  0  0  0  0
   -1.3057   -1.2032   -2.2918 C   0  0  0  0  0  0  0  0  0  0  0  0
   -0.3390   -0.8501   -1.1593 C   0  0  0  0  0  0  0  0  0  0  0  0
    4.3969    2.6578   -4.4894 H   0  0  0  0  0  0  0  0  0  0  0  0
    3.4619    1.1836   -4.1465 H   0  0  0  0  0  0  0  0  0  0  0  0
    5.1734    1.2384   -3.7494 H   0  0  0  0  0  0  0  0  0  0  0  0
    2.9745    2.9427   -2.4682 H   0  0  0  0  0  0  0  0  0  0  0  0
    4.6686    3.0782   -2.0335 H   0  0  0  0  0  0  0  0  0  0  0  0
    6.3697    1.5612   -1.6789 H   0  0  0  0  0  0  0  0  0  0  0  0
    7.9421    1.1162    0.1499 H   0  0  0  0  0  0  0  0  0  0  0  0
    7.1190    0.3256    2.3532 H   0  0  0  0  0  0  0  0  0  0  0  0
    4.6998   -0.0227    2.7192 H   0  0  0  0  0  0  0  0  0  0  0  0
    2.0201    0.5866    0.1041 H   0  0  0  0  0  0  0  0  0  0  0  0
    0.3230   -0.0287    1.3066 H   0  0  0  0  0  0  0  0  0  0  0  0
   -5.3894   -0.7009    4.6936 H   0  0  0  0  0  0  0  0  0  0  0  0
   -7.0404   -1.0259    4.3986 H   0  0  0  0  0  0  0  0  0  0  0  0
   -2.5026   -1.8321    0.2122 H   0  0  0  0  0  0  0  0  0  0  0  0
   -0.9749   -2.2863    0.8926 H   0  0  0  0  0  0  0  0  0  0  0  0
   -1.2389    1.6268   -0.5636 H   0  0  0  0  0  0  0  0  0  0  0  0
   -2.3986    1.1417    0.6392 H   0  0  0  0  0  0  0  0  0  0  0  0
   -3.4281    1.4396   -1.5983 H   0  0  0  0  0  0  0  0  0  0  0  0
   -3.6435   -0.2036   -1.0212 H   0  0  0  0  0  0  0  0  0  0  0  0
   -1.5839    0.7865   -3.0491 H   0  0  0  0  0  0  0  0  0  0  0  0
   -3.8670    0.4609   -3.9540 H   0  0  0  0  0  0  0  0  0  0  0  0
   -2.7502   -0.7485   -4.6057 H   0  0  0  0  0  0  0  0  0  0  0  0
   -3.9000   -1.1990   -3.3345 H   0  0  0  0  0  0  0  0  0  0  0  0
   -1.9106   -2.0746   -2.0131 H   0  0  0  0  0  0  0  0  0  0  0  0
   -0.7283   -1.4955   -3.1777 H   0  0  0  0  0  0  0  0  0  0  0  0
    0.2929   -1.7163   -0.9266 H   0  0  0  0  0  0  0  0  0  0  0  0
    0.3524   -0.0769   -1.5185 H   0  0  0  0  0  0  0  0  0  0  0  0
  1  2  1  0
  2  3  1  0
  3  4  1  0
  4  5  2  0
  5  6  1  0
  6  7  2  0
  7  8  1  0
  8  9  2  0
  9 10  1  0
 10 11  2  3
 11 12  1  0
 12 13  1  0
 13 14  2  0
 13 15  1  0
 15 16  1  0
 16 17  2  0
 17 18  1  0
 18 19  1  0
 19 20  2  0
 20 21  1  0
 21 22  1  0
 22 23  2  0
 23 24  1  0
 18 25  1  0
 25 26  1  0
 26 27  1  0
 27 28  1  0
 28 29  1  0
 29 30  1  0
 30 31  1  0
 30 32  1  0
 32 33  1  0
  9  4  1  0
 25 15  2  0
 33 27  1  0
 23 19  1  0
  1 34  1  0
  1 35  1  0
  1 36  1  0
  2 37  1  0
  2 38  1  0
  5 39  1  0
  6 40  1  0
  7 41  1  0
  8 42  1  0
 10 43  1  0
 12 44  1  0
 24 45  1  0
 24 46  1  0
 26 47  1  0
 26 48  1  0
 28 49  1  0
 28 50  1  0
 29 51  1  0
 29 52  1  0
 30 53  1  0
 31 54  1  0
 31 55  1  0
 31 56  1  0
 32 57  1  0
 32 58  1  0
 33 59  1  0
 33 60  1  0
M  END
$$$$
