
     RDKit          3D

 63 66  0  0  0  0  0  0  0  0999 V2000
    2.1503    1.3377   -3.5977 C   0  0  0  0  0  0  0  0  0  0  0  0
    2.5716    0.6447   -2.3329 C   0  0  0  0  0  0  0  0  0  0  0  0
    1.8278   -0.3255   -1.8773 N   0  0  0  0  0  0  0  0  0  0  0  0
    2.1533   -0.9995   -0.6994 N   0  0  0  0  0  0  0  0  0  0  0  0
    1.2235   -2.0551   -0.2957 C   0  0  0  0  0  0  0  0  0  0  0  0
    0.3275   -1.6514    0.8718 C   0  0  0  0  0  0  0  0  0  0  0  0
   -0.8245   -0.7589    0.4633 C   0  0  0  0  0  0  0  0  0  0  0  0
   -1.1705   -0.5693   -0.6971 O   0  0  0  0  0  0  0  0  0  0  0  0
   -1.4792   -0.2119    1.5514 N   0  0  0  0  0  0  0  0  0  0  0  0
   -2.6783    0.5780    1.3964 C   0  0  0  0  0  0  0  0  0  0  0  0
   -3.9147   -0.2769    1.4873 C   0  0  0  0  0  0  0  0  0  0  0  0
   -4.4021   -0.9371    0.3509 C   0  0  0  0  0  0  0  0  0  0  0  0
   -5.5467   -1.7392    0.4216 C   0  0  0  0  0  0  0  0  0  0  0  0
   -6.2196   -1.8942    1.6322 C   0  0  0  0  0  0  0  0  0  0  0  0
   -7.3539   -2.6255    1.8463 O   0  0  0  0  0  0  0  0  0  0  0  0
   -7.9008   -3.3988    0.7745 C   0  0  0  0  0  0  0  0  0  0  0  0
   -8.8249   -2.5351   -0.0800 C   0  0  0  0  0  0  0  0  0  0  0  0
   -8.7001   -4.5268    1.4199 C   0  0  0  0  0  0  0  0  0  0  0  0
   -5.7286   -1.2469    2.7699 C   0  0  0  0  0  0  0  0  0  0  0  0
   -4.5834   -0.4494    2.7040 C   0  0  0  0  0  0  0  0  0  0  0  0
    3.2810   -0.7273    0.1045 C   0  0  0  0  0  0  0  0  0  0  0  0
    3.5321   -1.3343    1.1445 O   0  0  0  0  0  0  0  0  0  0  0  0
    4.1043    0.3522   -0.4270 C   0  0  0  0  0  0  0  0  0  0  0  0
    5.2446    0.8120    0.0942 N   0  0  0  0  0  0  0  0  0  0  0  0
    5.5964    1.8613   -0.6987 N   0  0  0  0  0  0  0  0  0  0  0  0
    6.6615    2.7128   -0.2700 C   0  0  0  0  0  0  0  0  0  0  0  0
    7.5316    2.2582    0.7356 C   0  0  0  0  0  0  0  0  0  0  0  0
    8.5800    3.0626    1.1891 C   0  0  0  0  0  0  0  0  0  0  0  0
    8.7630    4.3346    0.6551 C   0  0  0  0  0  0  0  0  0  0  0  0
    7.8920    4.8058   -0.3241 C   0  0  0  0  0  0  0  0  0  0  0  0
    6.8385    4.0049   -0.7798 C   0  0  0  0  0  0  0  0  0  0  0  0
    4.7918    1.9149   -1.8437 C   0  0  0  0  0  0  0  0  0  0  0  0
    5.0800    2.7386   -3.0454 C   0  0  0  0  0  0  0  0  0  0  0  0
    3.7657    1.0143   -1.6121 C   0  0  0  0  0  0  0  0  0  0  0  0
    1.1173    1.0758   -3.8518 H   0  0  0  0  0  0  0  0  0  0  0  0
    2.7998    1.0240   -4.4172 H   0  0  0  0  0  0  0  0  0  0  0  0
    2.2121    2.4212   -3.4738 H   0  0  0  0  0  0  0  0  0  0  0  0
    1.8287   -2.9165    0.0129 H   0  0  0  0  0  0  0  0  0  0  0  0
    0.6379   -2.3709   -1.1687 H   0  0  0  0  0  0  0  0  0  0  0  0
    0.9052   -1.1496    1.6576 H   0  0  0  0  0  0  0  0  0  0  0  0
   -0.1170   -2.5574    1.3071 H   0  0  0  0  0  0  0  0  0  0  0  0
   -1.2716   -0.5679    2.4729 H   0  0  0  0  0  0  0  0  0  0  0  0
   -2.6579    1.1204    0.4456 H   0  0  0  0  0  0  0  0  0  0  0  0
   -2.6765    1.3275    2.1932 H   0  0  0  0  0  0  0  0  0  0  0  0
   -3.8865   -0.8271   -0.6030 H   0  0  0  0  0  0  0  0  0  0  0  0
   -5.8823   -2.2152   -0.4929 H   0  0  0  0  0  0  0  0  0  0  0  0
   -7.1151   -3.8615    0.1679 H   0  0  0  0  0  0  0  0  0  0  0  0
   -9.2833   -3.1238   -0.8831 H   0  0  0  0  0  0  0  0  0  0  0  0
   -9.6221   -2.0938    0.5298 H   0  0  0  0  0  0  0  0  0  0  0  0
   -8.2830   -1.6998   -0.5350 H   0  0  0  0  0  0  0  0  0  0  0  0
   -9.4952   -4.1284    2.0610 H   0  0  0  0  0  0  0  0  0  0  0  0
   -9.1515   -5.1780    0.6672 H   0  0  0  0  0  0  0  0  0  0  0  0
   -8.0520   -5.1325    2.0622 H   0  0  0  0  0  0  0  0  0  0  0  0
   -6.2464   -1.3640    3.7194 H   0  0  0  0  0  0  0  0  0  0  0  0
   -4.2267    0.0374    3.6078 H   0  0  0  0  0  0  0  0  0  0  0  0
    7.4129    1.2668    1.1713 H   0  0  0  0  0  0  0  0  0  0  0  0
    9.2485    2.6942    1.9632 H   0  0  0  0  0  0  0  0  0  0  0  0
    9.5775    4.9612    1.0118 H   0  0  0  0  0  0  0  0  0  0  0  0
    8.0207    5.8092   -0.7238 H   0  0  0  0  0  0  0  0  0  0  0  0
    6.1560    4.4441   -1.4967 H   0  0  0  0  0  0  0  0  0  0  0  0
    4.5593    3.6985   -2.9884 H   0  0  0  0  0  0  0  0  0  0  0  0
    6.1540    2.9081   -3.1817 H   0  0  0  0  0  0  0  0  0  0  0  0
    4.7479    2.2286   -3.9553 H   0  0  0  0  0  0  0  0  0  0  0  0
  1  2  1  0
  2  3  2  0
  3  4  1  0
  4  5  1  0
  5  6  1  0
  6  7  1  0
  7  8  2  0
  7  9  1  0
  9 10  1  0
 10 11  1  0
 11 12  2  0
 12 13  1  0
 13 14  2  0
 14 15  1  0
 15 16  1  0
 16 17  1  0
 16 18  1  0
 14 19  1  0
 19 20  2  0
  4 21  1  0
 21 22  2  0
 21 23  1  0
 23 24  2  0
 24 25  1  0
 25 26  1  0
 26 27  2  0
 27 28  1  0
 28 29  2  0
 29 30  1  0
 30 31  2  0
 25 32  1  0
 32 33  1  0
 32 34  2  0
 34  2  1  0
 20 11  1  0
 34 23  1  0
 31 26  1  0
  1 35  1  0
  1 36  1  0
  1 37  1  0
  5 38  1  0
  5 39  1  0
  6 40  1  0
  6 41  1  0
  9 42  1  0
 10 43  1  0
 10 44  1  0
 12 45  1  0
 13 46  1  0
 16 47  1  0
 17 48  1  0
 17 49  1  0
 17 50  1  0
 18 51  1  0
 18 52  1  0
 18 53  1  0
 19 54  1  0
 20 55  1  0
 27 56  1  0
 28 57  1  0
 29 58  1  0
 30 59  1  0
 31 60  1  0
 33 61  1  0
 33 62  1  0
 33 63  1  0
M  END
$$$$
