
     RDKit          3D

 32 33  0  0  0  0  0  0  0  0999 V2000
    4.1188   -1.9307   -0.8342 C   0  0  0  0  0  0  0  0  0  0  0  0
    4.3604   -0.4594   -0.5438 C   0  0  0  0  0  0  0  0  0  0  0  0
    3.1688    0.1941    0.6628 S   0  0  0  0  0  0  0  0  0  0  0  0
    1.6957    0.2816   -0.2502 C   0  0  0  0  0  0  0  0  0  0  0  0
    1.4527    0.5058   -1.5841 C   0  0  0  0  0  0  0  0  0  0  0  0
    0.1099    0.5090   -1.8439 N   0  0  0  0  0  0  0  0  0  0  0  0
   -0.4878    0.2843   -0.6879 C   0  0  0  0  0  0  0  0  0  0  0  0
   -1.9363    0.2206   -0.5076 C   0  0  0  0  0  0  0  0  0  0  0  0
   -2.5729   -0.9913   -0.2117 C   0  0  0  0  0  0  0  0  0  0  0  0
   -3.9581   -1.0364   -0.0402 C   0  0  0  0  0  0  0  0  0  0  0  0
   -4.7156    0.1267   -0.1738 C   0  0  0  0  0  0  0  0  0  0  0  0
   -4.0917    1.3336   -0.4876 C   0  0  0  0  0  0  0  0  0  0  0  0
   -2.7070    1.3793   -0.6595 C   0  0  0  0  0  0  0  0  0  0  0  0
    0.4506    0.1664    0.3266 N   0  0  0  0  0  0  0  0  0  0  0  0
    0.1505   -0.0018    1.7386 C   0  0  0  0  0  0  0  0  0  0  0  0
   -0.0045    1.3259    2.4612 C   0  0  0  0  0  0  0  0  0  0  0  0
    4.8825   -2.3019   -1.5258 H   0  0  0  0  0  0  0  0  0  0  0  0
    3.1436   -2.1017   -1.3008 H   0  0  0  0  0  0  0  0  0  0  0  0
    4.1784   -2.5343    0.0778 H   0  0  0  0  0  0  0  0  0  0  0  0
    5.3606   -0.3397   -0.1143 H   0  0  0  0  0  0  0  0  0  0  0  0
    4.3365    0.1297   -1.4655 H   0  0  0  0  0  0  0  0  0  0  0  0
    2.1680    0.6744   -2.3774 H   0  0  0  0  0  0  0  0  0  0  0  0
   -1.9939   -1.9077   -0.1262 H   0  0  0  0  0  0  0  0  0  0  0  0
   -4.4470   -1.9802    0.1870 H   0  0  0  0  0  0  0  0  0  0  0  0
   -5.7946    0.0905   -0.0466 H   0  0  0  0  0  0  0  0  0  0  0  0
   -4.6828    2.2377   -0.6079 H   0  0  0  0  0  0  0  0  0  0  0  0
   -2.2269    2.3204   -0.9198 H   0  0  0  0  0  0  0  0  0  0  0  0
   -0.7644   -0.5929    1.8345 H   0  0  0  0  0  0  0  0  0  0  0  0
    0.9434   -0.6013    2.1963 H   0  0  0  0  0  0  0  0  0  0  0  0
    0.9101    1.9241    2.3975 H   0  0  0  0  0  0  0  0  0  0  0  0
   -0.2273    1.1570    3.5193 H   0  0  0  0  0  0  0  0  0  0  0  0
   -0.8197    1.9182    2.0329 H   0  0  0  0  0  0  0  0  0  0  0  0
  1  2  1  0
  2  3  1  0
  3  4  1  0
  4  5  2  0
  5  6  1  0
  6  7  2  0
  7  8  1  0
  8  9  2  0
  9 10  1  0
 10 11  2  0
 11 12  1  0
 12 13  2  0
  7 14  1  0
 14 15  1  0
 15 16  1  0
 14  4  1  0
 13  8  1  0
  1 17  1  0
  1 18  1  0
  1 19  1  0
  2 20  1  0
  2 21  1  0
  5 22  1  0
  9 23  1  0
 10 24  1  0
 11 25  1  0
 12 26  1  0
 13 27  1  0
 15 28  1  0
 15 29  1  0
 16 30  1  0
 16 31  1  0
 16 32  1  0
M  END
$$$$
