
     RDKit          3D

 52 55  0  0  0  0  0  0  0  0999 V2000
   -5.3186    3.8476    0.2134 C   0  0  0  0  0  0  0  0  0  0  0  0
   -5.3009    2.7057    1.2200 C   0  0  0  0  0  0  0  0  0  0  0  0
   -5.8416    1.4027    0.6315 C   0  0  0  0  0  0  0  0  0  0  0  0
   -5.1018    0.9870   -0.5155 O   0  0  0  0  0  0  0  0  0  0  0  0
   -3.9666    0.2474   -0.3406 C   0  0  0  0  0  0  0  0  0  0  0  0
   -3.3310   -0.1221   -1.5288 C   0  0  0  0  0  0  0  0  0  0  0  0
   -2.1558   -0.8777   -1.5083 C   0  0  0  0  0  0  0  0  0  0  0  0
   -1.6045   -1.2803   -0.2891 C   0  0  0  0  0  0  0  0  0  0  0  0
   -0.3776   -2.0649   -0.2583 C   0  0  0  0  0  0  0  0  0  0  0  0
    0.9398   -1.6544   -0.1029 C   0  0  0  0  0  0  0  0  0  0  0  0
    1.4629   -0.3031    0.0874 C   0  0  0  0  0  0  0  0  0  0  0  0
    0.7434    0.6878    0.1577 O   0  0  0  0  0  0  0  0  0  0  0  0
    2.8489   -0.2909    0.1810 N   0  0  0  0  0  0  0  0  0  0  0  0
    3.5267    0.8772    0.3646 N   0  0  0  0  0  0  0  0  0  0  0  0
    4.8148    0.7675    0.4360 C   0  0  0  0  0  0  0  0  0  0  0  0
    5.6852    1.9434    0.6329 C   0  0  0  0  0  0  0  0  0  0  0  0
    5.1411    3.2257    0.7504 C   0  0  0  0  0  0  0  0  0  0  0  0
    5.9843    4.3220    0.9358 C   0  0  0  0  0  0  0  0  0  0  0  0
    7.3656    4.1368    1.0035 C   0  0  0  0  0  0  0  0  0  0  0  0
    7.9079    2.8562    0.8862 C   0  0  0  0  0  0  0  0  0  0  0  0
    7.0691    1.7556    0.7006 C   0  0  0  0  0  0  0  0  0  0  0  0
    1.7658   -2.7485   -0.1569 N   0  0  0  0  0  0  0  0  0  0  0  0
    1.0203   -3.8237   -0.3308 N   0  0  0  0  0  0  0  0  0  0  0  0
   -0.2963   -3.4549   -0.3802 N   0  0  0  0  0  0  0  0  0  0  0  0
   -1.3254   -4.4182   -0.5399 C   0  0  0  0  0  0  0  0  0  0  0  0
   -2.6073   -4.0601   -0.6125 N   0  0  0  0  0  0  0  0  0  0  0  0
   -3.2899   -5.2629   -0.7781 O   0  0  0  0  0  0  0  0  0  0  0  0
   -2.4120   -6.3415   -0.8043 N   0  0  0  0  0  0  0  0  0  0  0  0
   -1.1977   -5.8163   -0.6474 C   0  0  0  0  0  0  0  0  0  0  0  0
   -0.0612   -6.5372   -0.6035 N   0  0  0  0  0  0  0  0  0  0  0  0
   -2.2328   -0.9030    0.9020 C   0  0  0  0  0  0  0  0  0  0  0  0
   -3.4094   -0.1439    0.8758 C   0  0  0  0  0  0  0  0  0  0  0  0
   -4.9616    4.7696    0.6832 H   0  0  0  0  0  0  0  0  0  0  0  0
   -4.6706    3.6340   -0.6424 H   0  0  0  0  0  0  0  0  0  0  0  0
   -6.3325    4.0270   -0.1580 H   0  0  0  0  0  0  0  0  0  0  0  0
   -5.9048    2.9835    2.0911 H   0  0  0  0  0  0  0  0  0  0  0  0
   -4.2709    2.5699    1.5660 H   0  0  0  0  0  0  0  0  0  0  0  0
   -6.8700    1.5715    0.2900 H   0  0  0  0  0  0  0  0  0  0  0  0
   -5.9116    0.6103    1.3852 H   0  0  0  0  0  0  0  0  0  0  0  0
   -3.7539    0.1868   -2.4817 H   0  0  0  0  0  0  0  0  0  0  0  0
   -1.6821   -1.1415   -2.4500 H   0  0  0  0  0  0  0  0  0  0  0  0
    3.3523   -1.1703    0.1132 H   0  0  0  0  0  0  0  0  0  0  0  0
    5.3187   -0.2124    0.3523 H   0  0  0  0  0  0  0  0  0  0  0  0
    4.0646    3.3767    0.6981 H   0  0  0  0  0  0  0  0  0  0  0  0
    5.5623    5.3198    1.0272 H   0  0  0  0  0  0  0  0  0  0  0  0
    8.0200    4.9932    1.1479 H   0  0  0  0  0  0  0  0  0  0  0  0
    8.9850    2.7177    0.9395 H   0  0  0  0  0  0  0  0  0  0  0  0
    7.5048    0.7645    0.6107 H   0  0  0  0  0  0  0  0  0  0  0  0
    0.8525   -6.0932   -0.6722 H   0  0  0  0  0  0  0  0  0  0  0  0
   -0.0832   -7.5104   -0.8898 H   0  0  0  0  0  0  0  0  0  0  0  0
   -1.8112   -1.1864    1.8634 H   0  0  0  0  0  0  0  0  0  0  0  0
   -3.8529    0.1307    1.8261 H   0  0  0  0  0  0  0  0  0  0  0  0
  1  2  1  0
  2  3  1  0
  3  4  1  0
  4  5  1  0
  5  6  2  0
  6  7  1  0
  7  8  2  0
  8  9  1  0
  9 10  2  0
 10 11  1  0
 11 12  2  0
 11 13  1  0
 13 14  1  0
 14 15  2  3
 15 16  1  0
 16 17  2  0
 17 18  1  0
 18 19  2  0
 19 20  1  0
 20 21  2  0
 10 22  1  0
 22 23  2  0
 23 24  1  0
 24 25  1  0
 25 26  2  0
 26 27  1  0
 27 28  1  0
 28 29  2  0
 29 30  1  0
  8 31  1  0
 31 32  2  0
 32  5  1  0
 24  9  1  0
 29 25  1  0
 21 16  1  0
  1 33  1  0
  1 34  1  0
  1 35  1  0
  2 36  1  0
  2 37  1  0
  3 38  1  0
  3 39  1  0
  6 40  1  0
  7 41  1  0
 13 42  1  0
 15 43  1  0
 17 44  1  0
 18 45  1  0
 19 46  1  0
 20 47  1  0
 21 48  1  0
 30 49  1  0
 30 50  1  0
 31 51  1  0
 32 52  1  0
M  END
$$$$
