
     RDKit          3D

 53 55  0  0  0  0  0  0  0  0999 V2000
    8.4186   -2.3635    0.8535 C   0  0  0  0  0  0  0  0  0  0  0  0
    8.2520   -0.9817    1.1446 O   0  0  0  0  0  0  0  0  0  0  0  0
    7.0726   -0.4053    0.7613 C   0  0  0  0  0  0  0  0  0  0  0  0
    6.0111   -1.0531    0.1239 C   0  0  0  0  0  0  0  0  0  0  0  0
    4.8534   -0.3425   -0.2104 C   0  0  0  0  0  0  0  0  0  0  0  0
    4.7610    1.0168    0.1005 C   0  0  0  0  0  0  0  0  0  0  0  0
    3.2873    1.9052   -0.3317 S   0  0  0  0  0  6  0  0  0  0  0  0
    3.5191    3.3170   -0.1135 O   0  0  0  0  0  0  0  0  0  0  0  0
    2.8352    1.4104   -1.6133 O   0  0  0  0  0  0  0  0  0  0  0  0
    2.1935    1.3752    0.8412 N   0  0  0  0  0  0  0  0  0  0  0  0
    2.4866    1.7115    2.2420 C   0  0  0  0  0  0  0  0  0  0  0  0
    1.1277    1.5698    2.8837 C   0  0  0  0  0  0  0  0  0  0  0  0
    0.2160    2.0709    1.9037 O   0  0  0  0  0  0  0  0  0  0  0  0
    0.8051    1.8271    0.6039 C   0  0  0  0  0  0  0  0  0  0  0  0
   -0.0164    0.7380   -0.1107 C   0  0  0  0  0  0  0  0  0  0  0  0
   -1.4192    1.0966   -0.2355 N   0  0  0  0  0  0  0  0  0  0  0  0
   -2.2727    0.4089   -1.0643 C   0  0  0  0  0  0  0  0  0  0  0  0
   -1.9569   -0.4366   -1.8897 O   0  0  0  0  0  0  0  0  0  0  0  0
   -3.7611    0.7738   -0.8636 C   0  0  0  0  0  0  0  0  0  0  0  0
   -4.0942    1.4902    0.0693 O   0  0  0  0  0  0  0  0  0  0  0  0
   -4.5914    0.2107   -1.8025 N   0  0  0  0  0  0  0  0  0  0  0  0
   -6.0278    0.3579   -1.7712 C   0  0  0  0  0  0  0  0  0  0  0  0
   -6.7735   -0.8854   -1.3346 C   0  0  0  0  0  0  0  0  0  0  0  0
   -6.1096   -2.0009   -0.7906 C   0  0  0  0  0  0  0  0  0  0  0  0
   -6.8179   -3.1333   -0.3777 C   0  0  0  0  0  0  0  0  0  0  0  0
   -8.2046   -3.1710   -0.4893 C   0  0  0  0  0  0  0  0  0  0  0  0
   -8.8849   -2.0751   -1.0144 C   0  0  0  0  0  0  0  0  0  0  0  0
   -8.1781   -0.9413   -1.4308 C   0  0  0  0  0  0  0  0  0  0  0  0
   -9.0996    0.3792   -2.0631 Cl  0  0  0  0  0  0  0  0  0  0  0  0
    5.8201    1.6779    0.7235 C   0  0  0  0  0  0  0  0  0  0  0  0
    6.9700    0.9594    1.0558 C   0  0  0  0  0  0  0  0  0  0  0  0
    7.6686   -2.9713    1.3717 H   0  0  0  0  0  0  0  0  0  0  0  0
    9.4038   -2.6650    1.2220 H   0  0  0  0  0  0  0  0  0  0  0  0
    8.3968   -2.5448   -0.2268 H   0  0  0  0  0  0  0  0  0  0  0  0
    6.0543   -2.1075   -0.1309 H   0  0  0  0  0  0  0  0  0  0  0  0
    4.0336   -0.8509   -0.7136 H   0  0  0  0  0  0  0  0  0  0  0  0
    2.8349    2.7456    2.3320 H   0  0  0  0  0  0  0  0  0  0  0  0
    3.2167    1.0337    2.6897 H   0  0  0  0  0  0  0  0  0  0  0  0
    1.0332    2.1379    3.8125 H   0  0  0  0  0  0  0  0  0  0  0  0
    0.8800    0.5211    3.0796 H   0  0  0  0  0  0  0  0  0  0  0  0
    0.7561    2.7746    0.0576 H   0  0  0  0  0  0  0  0  0  0  0  0
    0.3842    0.5255   -1.1072 H   0  0  0  0  0  0  0  0  0  0  0  0
    0.0118   -0.1974    0.4613 H   0  0  0  0  0  0  0  0  0  0  0  0
   -1.8590    1.6162    0.5245 H   0  0  0  0  0  0  0  0  0  0  0  0
   -4.1589   -0.3906   -2.4984 H   0  0  0  0  0  0  0  0  0  0  0  0
   -6.2940    1.1890   -1.1077 H   0  0  0  0  0  0  0  0  0  0  0  0
   -6.3148    0.6157   -2.7969 H   0  0  0  0  0  0  0  0  0  0  0  0
   -5.0276   -2.0055   -0.6727 H   0  0  0  0  0  0  0  0  0  0  0  0
   -6.2829   -3.9833    0.0389 H   0  0  0  0  0  0  0  0  0  0  0  0
   -8.7553   -4.0494   -0.1624 H   0  0  0  0  0  0  0  0  0  0  0  0
   -9.9684   -2.1079   -1.0949 H   0  0  0  0  0  0  0  0  0  0  0  0
    5.7653    2.7407    0.9504 H   0  0  0  0  0  0  0  0  0  0  0  0
    7.8002    1.4672    1.5433 H   0  0  0  0  0  0  0  0  0  0  0  0
  1  2  1  0
  2  3  1  0
  3  4  2  0
  4  5  1  0
  5  6  2  0
  6  7  1  0
  7  8  2  0
  7  9  2  0
  7 10  1  0
 10 11  1  0
 11 12  1  0
 12 13  1  0
 13 14  1  0
 14 15  1  0
 15 16  1  0
 16 17  1  0
 17 18  2  0
 17 19  1  0
 19 20  2  0
 19 21  1  0
 21 22  1  0
 22 23  1  0
 23 24  2  0
 24 25  1  0
 25 26  2  0
 26 27  1  0
 27 28  2  0
 28 29  1  0
  6 30  1  0
 30 31  2  0
 31  3  1  0
 14 10  1  0
 28 23  1  0
  1 32  1  0
  1 33  1  0
  1 34  1  0
  4 35  1  0
  5 36  1  0
 11 37  1  0
 11 38  1  0
 12 39  1  0
 12 40  1  0
 14 41  1  0
 15 42  1  0
 15 43  1  0
 16 44  1  0
 21 45  1  0
 22 46  1  0
 22 47  1  0
 24 48  1  0
 25 49  1  0
 26 50  1  0
 27 51  1  0
 30 52  1  0
 31 53  1  0
M  END
$$$$
