
     RDKit          3D

 58 60  0  0  0  0  0  0  0  0999 V2000
    8.9349    3.8389   -1.6125 C   0  0  0  0  0  0  0  0  0  0  0  0
    7.7303    3.6717   -0.7827 C   0  0  0  0  0  0  0  0  0  0  0  0
    6.7407    2.7233   -0.7060 C   0  0  0  0  0  0  0  0  0  0  0  0
    5.8806    3.1885    0.3125 C   0  0  0  0  0  0  0  0  0  0  0  0
    4.7207    2.6325    0.8031 N   0  0  0  0  0  0  0  0  0  0  0  0
    4.1550    1.4562    0.3670 C   0  0  0  0  0  0  0  0  0  0  0  0
    4.6048    0.7237   -0.5084 O   0  0  0  0  0  0  0  0  0  0  0  0
    2.8772    1.1363    1.1152 C   0  0  0  0  0  0  0  0  0  0  0  0
    2.2051   -0.1214    0.5726 C   0  0  0  0  0  0  0  0  0  0  0  0
    0.9194   -0.4271    1.3156 C   0  0  0  0  0  0  0  0  0  0  0  0
    0.5889    0.2346    2.3019 O   0  0  0  0  0  0  0  0  0  0  0  0
    0.1484   -1.4834    0.8506 N   0  0  0  0  0  0  0  0  0  0  0  0
   -1.1407   -1.7053    1.5090 C   0  0  0  0  0  0  0  0  0  0  0  0
   -2.2557   -0.8032    0.9510 C   0  0  0  0  0  0  0  0  0  0  0  0
   -2.0591    0.1638    0.2188 O   0  0  0  0  0  0  0  0  0  0  0  0
   -3.5211   -1.1816    1.3716 N   0  0  0  0  0  0  0  0  0  0  0  0
   -4.6800   -0.3862    1.0305 C   0  0  0  0  0  0  0  0  0  0  0  0
   -5.9873   -1.1438    1.2244 C   0  0  0  0  0  0  0  0  0  0  0  0
   -7.0317   -0.0373    1.2305 C   0  0  0  0  0  0  0  0  0  0  0  0
   -6.3416    1.1732    1.8585 C   0  0  0  0  0  0  0  0  0  0  0  0
   -4.8555    0.8280    1.9400 C   0  0  0  0  0  0  0  0  0  0  0  0
    0.5511   -2.4220   -0.1993 C   0  0  0  0  0  0  0  0  0  0  0  0
   -0.4491   -2.5709   -1.3217 C   0  0  0  0  0  0  0  0  0  0  0  0
   -0.7666   -1.4776   -2.1433 C   0  0  0  0  0  0  0  0  0  0  0  0
   -1.6880   -1.6160   -3.1824 C   0  0  0  0  0  0  0  0  0  0  0  0
   -2.2849   -2.8489   -3.4089 C   0  0  0  0  0  0  0  0  0  0  0  0
   -3.1686   -2.9834   -4.4062 F   0  0  0  0  0  0  0  0  0  0  0  0
   -1.9784   -3.9472   -2.6153 C   0  0  0  0  0  0  0  0  0  0  0  0
   -1.0604   -3.8102   -1.5728 C   0  0  0  0  0  0  0  0  0  0  0  0
    6.3253    4.3425    0.8228 N   0  0  0  0  0  0  0  0  0  0  0  0
    7.4863    4.6435    0.1350 O   0  0  0  0  0  0  0  0  0  0  0  0
    9.8259    3.9341   -0.9831 H   0  0  0  0  0  0  0  0  0  0  0  0
    8.8515    4.7377   -2.2322 H   0  0  0  0  0  0  0  0  0  0  0  0
    9.0775    2.9796   -2.2759 H   0  0  0  0  0  0  0  0  0  0  0  0
    6.6536    1.8312   -1.3061 H   0  0  0  0  0  0  0  0  0  0  0  0
    4.2837    3.1730    1.5373 H   0  0  0  0  0  0  0  0  0  0  0  0
    2.1974    1.9929    1.0275 H   0  0  0  0  0  0  0  0  0  0  0  0
    3.1243    1.0066    2.1760 H   0  0  0  0  0  0  0  0  0  0  0  0
    1.9756    0.0215   -0.4898 H   0  0  0  0  0  0  0  0  0  0  0  0
    2.8833   -0.9755    0.6802 H   0  0  0  0  0  0  0  0  0  0  0  0
   -1.0505   -1.4933    2.5805 H   0  0  0  0  0  0  0  0  0  0  0  0
   -1.4273   -2.7572    1.4017 H   0  0  0  0  0  0  0  0  0  0  0  0
   -3.5906   -1.8083    2.1626 H   0  0  0  0  0  0  0  0  0  0  0  0
   -4.5915   -0.0557   -0.0127 H   0  0  0  0  0  0  0  0  0  0  0  0
   -5.9964   -1.6754    2.1844 H   0  0  0  0  0  0  0  0  0  0  0  0
   -6.1654   -1.8802    0.4348 H   0  0  0  0  0  0  0  0  0  0  0  0
   -7.3289    0.2016    0.2022 H   0  0  0  0  0  0  0  0  0  0  0  0
   -7.9344   -0.3277    1.7766 H   0  0  0  0  0  0  0  0  0  0  0  0
   -6.7411    1.3855    2.8558 H   0  0  0  0  0  0  0  0  0  0  0  0
   -6.5058    2.0652    1.2439 H   0  0  0  0  0  0  0  0  0  0  0  0
   -4.2207    1.6681    1.6392 H   0  0  0  0  0  0  0  0  0  0  0  0
   -4.5930    0.5789    2.9764 H   0  0  0  0  0  0  0  0  0  0  0  0
    0.7055   -3.3872    0.2997 H   0  0  0  0  0  0  0  0  0  0  0  0
    1.5169   -2.1580   -0.6375 H   0  0  0  0  0  0  0  0  0  0  0  0
   -0.3197   -0.5023   -1.9583 H   0  0  0  0  0  0  0  0  0  0  0  0
   -1.9473   -0.7670   -3.8065 H   0  0  0  0  0  0  0  0  0  0  0  0
   -2.4553   -4.9012   -2.8144 H   0  0  0  0  0  0  0  0  0  0  0  0
   -0.8273   -4.6777   -0.9593 H   0  0  0  0  0  0  0  0  0  0  0  0
  1  2  1  0
  2  3  2  0
  3  4  1  0
  4  5  1  0
  5  6  1  0
  6  7  2  0
  6  8  1  0
  8  9  1  0
  9 10  1  0
 10 11  2  0
 10 12  1  0
 12 13  1  0
 13 14  1  0
 14 15  2  0
 14 16  1  0
 16 17  1  0
 17 18  1  0
 18 19  1  0
 19 20  1  0
 20 21  1  0
 12 22  1  0
 22 23  1  0
 23 24  2  0
 24 25  1  0
 25 26  2  0
 26 27  1  0
 26 28  1  0
 28 29  2  0
  4 30  2  0
 30 31  1  0
 31  2  1  0
 21 17  1  0
 29 23  1  0
  1 32  1  0
  1 33  1  0
  1 34  1  0
  3 35  1  0
  5 36  1  0
  8 37  1  0
  8 38  1  0
  9 39  1  0
  9 40  1  0
 13 41  1  0
 13 42  1  0
 16 43  1  0
 17 44  1  0
 18 45  1  0
 18 46  1  0
 19 47  1  0
 19 48  1  0
 20 49  1  0
 20 50  1  0
 21 51  1  0
 21 52  1  0
 22 53  1  0
 22 54  1  0
 24 55  1  0
 25 56  1  0
 28 57  1  0
 29 58  1  0
M  END
$$$$
