
     RDKit          3D

102104  0  0  0  0  0  0  0  0999 V2000
    5.4893    1.7466    4.3667 C   0  0  0  0  0  0  0  0  0  0  0  0
    5.6864    0.8653    3.1425 C   0  0  0  0  0  0  0  0  0  0  0  0
    4.9912    1.4505    1.9118 C   0  0  0  0  0  0  0  0  0  0  0  0
    5.1802    0.5526    0.6908 C   0  0  0  0  0  0  0  0  0  0  0  0
    4.7099    1.1658   -0.6327 C   0  0  0  0  0  0  0  0  0  0  0  0
    3.1880    1.2831   -0.8749 C   0  0  0  0  0  0  0  0  0  0  0  0
    2.5625    2.4301   -0.0740 C   0  0  0  0  0  0  0  0  0  0  0  0
    1.3713    3.0591   -0.7654 C   0  0  0  0  0  0  0  0  0  0  0  0
    1.2264    4.2749   -0.8334 O   0  0  0  0  0  0  0  0  0  0  0  0
    0.4340    2.1707   -1.2185 N   0  0  0  0  0  0  0  0  0  0  0  0
   -0.7847    2.6010   -1.8969 C   0  0  0  0  0  0  0  0  0  0  0  0
   -0.5292    2.8439   -3.3890 C   0  0  0  0  0  0  0  0  0  0  0  0
   -1.7839    3.2485   -4.1905 C   0  0  0  0  0  0  0  0  0  0  0  0
   -1.4159    3.4395   -5.6640 C   0  0  0  0  0  0  0  0  0  0  0  0
   -2.4442    4.5186   -3.6518 C   0  0  0  0  0  0  0  0  0  0  0  0
   -1.7624    1.4455   -1.6681 C   0  0  0  0  0  0  0  0  0  0  0  0
   -1.6710    0.3651   -2.2498 O   0  0  0  0  0  0  0  0  0  0  0  0
   -2.6257    1.6219   -0.6150 N   0  0  0  0  0  0  0  0  0  0  0  0
   -3.7194    0.6822   -0.3430 C   0  0  0  0  0  0  0  0  0  0  0  0
   -4.9107    1.3859    0.3345 C   0  0  0  0  0  0  0  0  0  0  0  0
   -5.4031    2.5920   -0.4388 C   0  0  0  0  0  0  0  0  0  0  0  0
   -5.9633    2.4419   -1.7159 C   0  0  0  0  0  0  0  0  0  0  0  0
   -6.3742    3.5598   -2.4438 C   0  0  0  0  0  0  0  0  0  0  0  0
   -6.2372    4.8357   -1.9006 C   0  0  0  0  0  0  0  0  0  0  0  0
   -5.6951    4.9959   -0.6260 C   0  0  0  0  0  0  0  0  0  0  0  0
   -5.2809    3.8801    0.1028 C   0  0  0  0  0  0  0  0  0  0  0  0
   -3.2579   -0.5294    0.5080 C   0  0  0  0  0  0  0  0  0  0  0  0
   -3.9963   -1.0774    1.3235 O   0  0  0  0  0  0  0  0  0  0  0  0
   -2.0147   -1.0398    0.1675 N   0  0  0  0  0  0  0  0  0  0  0  0
   -1.6234   -2.3932    0.5741 C   0  0  0  0  0  0  0  0  0  0  0  0
   -1.3527   -2.5094    2.0863 C   0  0  0  0  0  0  0  0  0  0  0  0
   -1.0880   -3.9524    2.5684 C   0  0  0  0  0  0  0  0  0  0  0  0
   -2.2965   -4.8689    2.3663 C   0  0  0  0  0  0  0  0  0  0  0  0
   -0.6901   -3.9427    4.0476 C   0  0  0  0  0  0  0  0  0  0  0  0
   -0.3789   -2.7815   -0.2554 C   0  0  0  0  0  0  0  0  0  0  0  0
   -0.3877   -3.7385   -1.0254 O   0  0  0  0  0  0  0  0  0  0  0  0
    0.7333   -1.9797   -0.0743 N   0  0  0  0  0  0  0  0  0  0  0  0
    2.0127   -2.2813   -0.7313 C   0  0  0  0  0  0  0  0  0  0  0  0
    3.0331   -2.8938    0.2503 C   0  0  0  0  0  0  0  0  0  0  0  0
    2.6722   -4.2144    0.8876 C   0  0  0  0  0  0  0  0  0  0  0  0
    2.8317   -4.3854    2.2720 C   0  0  0  0  0  0  0  0  0  0  0  0
    2.5372   -5.6070    2.8803 C   0  0  0  0  0  0  0  0  0  0  0  0
    2.0846   -6.6757    2.1113 C   0  0  0  0  0  0  0  0  0  0  0  0
    1.9376   -6.5245    0.7336 C   0  0  0  0  0  0  0  0  0  0  0  0
    2.2377   -5.3044    0.1240 C   0  0  0  0  0  0  0  0  0  0  0  0
    2.6747   -1.0254   -1.3155 C   0  0  0  0  0  0  0  0  0  0  0  0
    3.3944   -1.0309   -2.3064 O   0  0  0  0  0  0  0  0  0  0  0  0
    2.4784    0.0674   -0.5134 O   0  0  0  0  0  0  0  0  0  0  0  0
    5.9142    2.7427    4.2059 H   0  0  0  0  0  0  0  0  0  0  0  0
    4.4264    1.8600    4.6030 H   0  0  0  0  0  0  0  0  0  0  0  0
    5.9862    1.3020    5.2350 H   0  0  0  0  0  0  0  0  0  0  0  0
    5.2891   -0.1346    3.3508 H   0  0  0  0  0  0  0  0  0  0  0  0
    6.7597    0.7547    2.9482 H   0  0  0  0  0  0  0  0  0  0  0  0
    5.3930    2.4496    1.7057 H   0  0  0  0  0  0  0  0  0  0  0  0
    3.9274    1.5607    2.1365 H   0  0  0  0  0  0  0  0  0  0  0  0
    4.6932   -0.4118    0.8601 H   0  0  0  0  0  0  0  0  0  0  0  0
    6.2516    0.3367    0.5846 H   0  0  0  0  0  0  0  0  0  0  0  0
    5.1825    2.1458   -0.7754 H   0  0  0  0  0  0  0  0  0  0  0  0
    5.1243    0.5294   -1.4252 H   0  0  0  0  0  0  0  0  0  0  0  0
    3.0281    1.4718   -1.9453 H   0  0  0  0  0  0  0  0  0  0  0  0
    3.2915    3.2343    0.0708 H   0  0  0  0  0  0  0  0  0  0  0  0
    2.2108    2.0925    0.9058 H   0  0  0  0  0  0  0  0  0  0  0  0
    0.6575    1.1823   -1.2493 H   0  0  0  0  0  0  0  0  0  0  0  0
   -1.1447    3.5145   -1.4117 H   0  0  0  0  0  0  0  0  0  0  0  0
   -0.1020    1.9365   -3.8379 H   0  0  0  0  0  0  0  0  0  0  0  0
    0.2385    3.6210   -3.4985 H   0  0  0  0  0  0  0  0  0  0  0  0
   -2.5189    2.4358   -4.1385 H   0  0  0  0  0  0  0  0  0  0  0  0
   -0.9859    2.5230   -6.0795 H   0  0  0  0  0  0  0  0  0  0  0  0
   -0.6848    4.2440   -5.7894 H   0  0  0  0  0  0  0  0  0  0  0  0
   -2.3014    3.6901   -6.2576 H   0  0  0  0  0  0  0  0  0  0  0  0
   -3.2768    4.8266   -4.2941 H   0  0  0  0  0  0  0  0  0  0  0  0
   -1.7302    5.3470   -3.6015 H   0  0  0  0  0  0  0  0  0  0  0  0
   -2.8548    4.3600   -2.6502 H   0  0  0  0  0  0  0  0  0  0  0  0
   -2.6555    2.5263   -0.1583 H   0  0  0  0  0  0  0  0  0  0  0  0
   -4.0432    0.2652   -1.3059 H   0  0  0  0  0  0  0  0  0  0  0  0
   -5.7484    0.6883    0.4559 H   0  0  0  0  0  0  0  0  0  0  0  0
   -4.6238    1.6914    1.3493 H   0  0  0  0  0  0  0  0  0  0  0  0
   -6.0857    1.4539   -2.1562 H   0  0  0  0  0  0  0  0  0  0  0  0
   -6.8044    3.4346   -3.4346 H   0  0  0  0  0  0  0  0  0  0  0  0
   -6.5601    5.7064   -2.4662 H   0  0  0  0  0  0  0  0  0  0  0  0
   -5.5963    5.9909   -0.1992 H   0  0  0  0  0  0  0  0  0  0  0  0
   -4.8620    4.0245    1.0968 H   0  0  0  0  0  0  0  0  0  0  0  0
   -1.7206   -0.7699   -0.7727 H   0  0  0  0  0  0  0  0  0  0  0  0
   -2.4469   -3.0508    0.2753 H   0  0  0  0  0  0  0  0  0  0  0  0
   -0.4946   -1.8779    2.3554 H   0  0  0  0  0  0  0  0  0  0  0  0
   -2.2006   -2.1065    2.6542 H   0  0  0  0  0  0  0  0  0  0  0  0
   -0.2504   -4.3703    2.0018 H   0  0  0  0  0  0  0  0  0  0  0  0
   -2.5042   -5.0236    1.3038 H   0  0  0  0  0  0  0  0  0  0  0  0
   -3.1960   -4.4531    2.8329 H   0  0  0  0  0  0  0  0  0  0  0  0
   -2.1128   -5.8567    2.8055 H   0  0  0  0  0  0  0  0  0  0  0  0
   -1.4974   -3.5482    4.6744 H   0  0  0  0  0  0  0  0  0  0  0  0
   -0.4574   -4.9548    4.3942 H   0  0  0  0  0  0  0  0  0  0  0  0
    0.1993   -3.3238    4.2094 H   0  0  0  0  0  0  0  0  0  0  0  0
    0.6783   -1.1958    0.5646 H   0  0  0  0  0  0  0  0  0  0  0  0
    1.8244   -2.9559   -1.5742 H   0  0  0  0  0  0  0  0  0  0  0  0
    3.2123   -2.1656    1.0526 H   0  0  0  0  0  0  0  0  0  0  0  0
    4.0013   -3.0232   -0.2518 H   0  0  0  0  0  0  0  0  0  0  0  0
    3.1874   -3.5655    2.8920 H   0  0  0  0  0  0  0  0  0  0  0  0
    2.6585   -5.7232    3.9542 H   0  0  0  0  0  0  0  0  0  0  0  0
    1.8478   -7.6257    2.5822 H   0  0  0  0  0  0  0  0  0  0  0  0
    1.5852   -7.3570    0.1296 H   0  0  0  0  0  0  0  0  0  0  0  0
    2.1116   -5.2171   -0.9536 H   0  0  0  0  0  0  0  0  0  0  0  0
  1  2  1  0
  2  3  1  0
  3  4  1  0
  4  5  1  0
  5  6  1  0
  6  7  1  0
  7  8  1  0
  8  9  2  0
  8 10  1  0
 10 11  1  0
 11 12  1  0
 12 13  1  0
 13 14  1  0
 13 15  1  0
 11 16  1  0
 16 17  2  0
 16 18  1  0
 18 19  1  0
 19 20  1  0
 20 21  1  0
 21 22  2  0
 22 23  1  0
 23 24  2  0
 24 25  1  0
 25 26  2  0
 19 27  1  0
 27 28  2  0
 27 29  1  0
 29 30  1  0
 30 31  1  0
 31 32  1  0
 32 33  1  0
 32 34  1  0
 30 35  1  0
 35 36  2  0
 35 37  1  0
 37 38  1  0
 38 39  1  0
 39 40  1  0
 40 41  2  0
 41 42  1  0
 42 43  2  0
 43 44  1  0
 44 45  2  0
 38 46  1  0
 46 47  2  0
 46 48  1  0
 48  6  1  0
 26 21  1  0
 45 40  1  0
  1 49  1  0
  1 50  1  0
  1 51  1  0
  2 52  1  0
  2 53  1  0
  3 54  1  0
  3 55  1  0
  4 56  1  0
  4 57  1  0
  5 58  1  0
  5 59  1  0
  6 60  1  0
  7 61  1  0
  7 62  1  0
 10 63  1  0
 11 64  1  0
 12 65  1  0
 12 66  1  0
 13 67  1  0
 14 68  1  0
 14 69  1  0
 14 70  1  0
 15 71  1  0
 15 72  1  0
 15 73  1  0
 18 74  1  0
 19 75  1  0
 20 76  1  0
 20 77  1  0
 22 78  1  0
 23 79  1  0
 24 80  1  0
 25 81  1  0
 26 82  1  0
 29 83  1  0
 30 84  1  0
 31 85  1  0
 31 86  1  0
 32 87  1  0
 33 88  1  0
 33 89  1  0
 33 90  1  0
 34 91  1  0
 34 92  1  0
 34 93  1  0
 37 94  1  0
 38 95  1  0
 39 96  1  0
 39 97  1  0
 41 98  1  0
 42 99  1  0
 43100  1  0
 44101  1  0
 45102  1  0
M  END
$$$$
