
     RDKit          3D

 40 41  0  0  0  0  0  0  0  0999 V2000
   -5.4761    2.4643   -2.3696 C   0  0  0  0  0  0  0  0  0  0  0  0
   -5.5455    2.7072   -0.9697 O   0  0  0  0  0  0  0  0  0  0  0  0
   -4.4577    2.3492   -0.2233 C   0  0  0  0  0  0  0  0  0  0  0  0
   -4.5797    2.6046    1.1449 C   0  0  0  0  0  0  0  0  0  0  0  0
   -3.5420    2.2875    2.0256 C   0  0  0  0  0  0  0  0  0  0  0  0
   -2.3647    1.7054    1.5430 C   0  0  0  0  0  0  0  0  0  0  0  0
   -1.2875    1.3849    2.5182 C   0  0  0  0  0  0  0  0  0  0  0  0
   -1.3183    1.7090    3.6937 O   0  0  0  0  0  0  0  0  0  0  0  0
   -0.2964    0.6801    1.9197 O   0  0  0  0  0  0  0  0  0  0  0  0
    0.7864    0.3522    2.7993 C   0  0  0  0  0  0  0  0  0  0  0  0
    1.8202   -0.5022    2.0705 C   0  0  0  0  0  0  0  0  0  0  0  0
    2.9941   -0.5645    2.4224 O   0  0  0  0  0  0  0  0  0  0  0  0
    1.3114   -1.2219    1.0107 N   0  0  0  0  0  0  0  0  0  0  0  0
    2.1499   -2.0342    0.1506 C   0  0  0  0  0  0  0  0  0  0  0  0
    2.9959   -1.1977   -0.8160 C   0  0  0  0  0  0  0  0  0  0  0  0
    3.5782   -2.0064   -1.8714 N   0  0  0  0  0  0  0  0  0  0  0  0
    4.7900   -2.6412   -1.7653 C   0  0  0  0  0  0  0  0  0  0  0  0
    5.5190   -2.4804   -0.6276 O   0  0  0  0  0  0  0  0  0  0  0  0
    5.1251   -3.3802   -2.8291 C   0  0  0  0  0  0  0  0  0  0  0  0
    3.8869   -3.3254   -4.0484 S   0  0  0  0  0  0  0  0  0  0  0  0
    2.8808   -2.2690   -3.0391 C   0  0  0  0  0  0  0  0  0  0  0  0
    1.7674   -1.8829   -3.3553 O   0  0  0  0  0  0  0  0  0  0  0  0
   -2.2390    1.4531    0.1702 C   0  0  0  0  0  0  0  0  0  0  0  0
   -3.2827    1.7734   -0.7079 C   0  0  0  0  0  0  0  0  0  0  0  0
   -4.6675    3.0415   -2.8301 H   0  0  0  0  0  0  0  0  0  0  0  0
   -6.4185    2.7982   -2.8143 H   0  0  0  0  0  0  0  0  0  0  0  0
   -5.3692    1.3952   -2.5800 H   0  0  0  0  0  0  0  0  0  0  0  0
   -5.4919    3.0562    1.5291 H   0  0  0  0  0  0  0  0  0  0  0  0
   -3.6602    2.4973    3.0872 H   0  0  0  0  0  0  0  0  0  0  0  0
    0.4222   -0.2225    3.6579 H   0  0  0  0  0  0  0  0  0  0  0  0
    1.2789    1.2746    3.1261 H   0  0  0  0  0  0  0  0  0  0  0  0
    0.3686   -0.9981    0.7108 H   0  0  0  0  0  0  0  0  0  0  0  0
    2.7988   -2.6576    0.7764 H   0  0  0  0  0  0  0  0  0  0  0  0
    1.4777   -2.7018   -0.3995 H   0  0  0  0  0  0  0  0  0  0  0  0
    3.7843   -0.6517   -0.2850 H   0  0  0  0  0  0  0  0  0  0  0  0
    2.3574   -0.4385   -1.2858 H   0  0  0  0  0  0  0  0  0  0  0  0
    6.3498   -2.9772   -0.7145 H   0  0  0  0  0  0  0  0  0  0  0  0
    6.0299   -3.9571   -2.9484 H   0  0  0  0  0  0  0  0  0  0  0  0
   -1.3328    1.0141   -0.2394 H   0  0  0  0  0  0  0  0  0  0  0  0
   -3.1431    1.5626   -1.7632 H   0  0  0  0  0  0  0  0  0  0  0  0
  1  2  1  0
  2  3  1  0
  3  4  2  0
  4  5  1  0
  5  6  2  0
  6  7  1  0
  7  8  2  0
  7  9  1  0
  9 10  1  0
 10 11  1  0
 11 12  2  0
 11 13  1  0
 13 14  1  0
 14 15  1  0
 15 16  1  0
 16 17  1  0
 17 18  1  0
 17 19  2  0
 19 20  1  0
 20 21  1  0
 21 22  2  0
  6 23  1  0
 23 24  2  0
 24  3  1  0
 21 16  1  0
  1 25  1  0
  1 26  1  0
  1 27  1  0
  4 28  1  0
  5 29  1  0
 10 30  1  0
 10 31  1  0
 13 32  1  0
 14 33  1  0
 14 34  1  0
 15 35  1  0
 15 36  1  0
 18 37  1  0
 19 38  1  0
 23 39  1  0
 24 40  1  0
M  END
$$$$
