
     RDKit          3D

 57 61  0  0  0  0  0  0  0  0999 V2000
   -6.6976   -0.2154   -2.2181 C   0  0  0  0  0  0  0  0  0  0  0  0
   -5.9248    0.1091   -0.9721 C   0  0  0  0  0  0  0  0  0  0  0  0
   -4.9959    1.1562   -0.9665 C   0  0  0  0  0  0  0  0  0  0  0  0
   -4.2491    1.4372    0.1818 C   0  0  0  0  0  0  0  0  0  0  0  0
   -4.4153    0.6723    1.3447 C   0  0  0  0  0  0  0  0  0  0  0  0
   -3.5989    0.9659    2.5803 C   0  0  0  0  0  0  0  0  0  0  0  0
   -2.4949    0.0386    2.7179 N   0  0  0  0  0  0  0  0  0  0  0  0
   -2.5796   -1.0242    3.5573 N   0  0  0  0  0  0  0  0  0  0  0  0
   -1.4325   -1.6978    3.4767 N   0  0  0  0  0  0  0  0  0  0  0  0
   -0.6341   -1.0310    2.6000 C   0  0  0  0  0  0  0  0  0  0  0  0
    0.6927   -1.3171    2.1310 C   0  0  0  0  0  0  0  0  0  0  0  0
    1.3824   -2.2728    2.4665 O   0  0  0  0  0  0  0  0  0  0  0  0
    1.1407   -0.3687    1.2183 N   0  0  0  0  0  0  0  0  0  0  0  0
    0.3979    0.7300    0.8011 C   0  0  0  0  0  0  0  0  0  0  0  0
    1.0529    1.6721   -0.2048 C   0  0  0  0  0  0  0  0  0  0  0  0
    2.2193    2.4500    0.4219 C   0  0  0  0  0  0  0  0  0  0  0  0
    3.5775    1.7965    0.1939 C   0  0  0  0  0  0  0  0  0  0  0  0
    3.8240    1.5126   -1.2336 N   0  0  0  0  0  0  0  0  0  0  0  0
    5.1317    0.4904   -1.6118 S   0  0  0  0  0  6  0  0  0  0  0  0
    6.1889    0.7505   -0.6570 O   0  0  0  0  0  0  0  0  0  0  0  0
    5.3637    0.5533   -3.0392 O   0  0  0  0  0  0  0  0  0  0  0  0
    4.4599   -1.1186   -1.2440 C   0  0  0  0  0  0  0  0  0  0  0  0
    4.6189   -1.6604    0.0368 C   0  0  0  0  0  0  0  0  0  0  0  0
    4.0353   -2.8900    0.3374 C   0  0  0  0  0  0  0  0  0  0  0  0
    3.3222   -3.5824   -0.6432 C   0  0  0  0  0  0  0  0  0  0  0  0
    3.2046   -3.0612   -1.9327 C   0  0  0  0  0  0  0  0  0  0  0  0
    3.7808   -1.8296   -2.2405 C   0  0  0  0  0  0  0  0  0  0  0  0
    2.6671    1.5559   -2.1502 C   0  0  0  0  0  0  0  0  0  0  0  0
    1.4361    0.9449   -1.4981 C   0  0  0  0  0  0  0  0  0  0  0  0
   -0.8032    1.0028    1.2327 N   0  0  0  0  0  0  0  0  0  0  0  0
   -1.2696    0.0858    2.1157 C   0  0  0  0  0  0  0  0  0  0  0  0
   -5.3320   -0.3892    1.3308 C   0  0  0  0  0  0  0  0  0  0  0  0
   -6.0771   -0.6691    0.1811 C   0  0  0  0  0  0  0  0  0  0  0  0
   -7.6572   -0.6857   -1.9738 H   0  0  0  0  0  0  0  0  0  0  0  0
   -6.9169    0.6933   -2.7897 H   0  0  0  0  0  0  0  0  0  0  0  0
   -6.1205   -0.8997   -2.8481 H   0  0  0  0  0  0  0  0  0  0  0  0
   -4.8464    1.7602   -1.8598 H   0  0  0  0  0  0  0  0  0  0  0  0
   -3.5305    2.2544    0.1582 H   0  0  0  0  0  0  0  0  0  0  0  0
   -3.1816    1.9806    2.5554 H   0  0  0  0  0  0  0  0  0  0  0  0
   -4.2243    0.8978    3.4791 H   0  0  0  0  0  0  0  0  0  0  0  0
    2.0443   -0.5810    0.8246 H   0  0  0  0  0  0  0  0  0  0  0  0
    0.2870    2.4178   -0.4614 H   0  0  0  0  0  0  0  0  0  0  0  0
    2.2435    3.4546   -0.0248 H   0  0  0  0  0  0  0  0  0  0  0  0
    2.0589    2.5970    1.4985 H   0  0  0  0  0  0  0  0  0  0  0  0
    4.3582    2.4774    0.5505 H   0  0  0  0  0  0  0  0  0  0  0  0
    3.6437    0.8842    0.7887 H   0  0  0  0  0  0  0  0  0  0  0  0
    5.1877   -1.1349    0.8018 H   0  0  0  0  0  0  0  0  0  0  0  0
    4.1318   -3.3122    1.3367 H   0  0  0  0  0  0  0  0  0  0  0  0
    2.8613   -4.5372   -0.4001 H   0  0  0  0  0  0  0  0  0  0  0  0
    2.6662   -3.6184   -2.6967 H   0  0  0  0  0  0  0  0  0  0  0  0
    3.6873   -1.4294   -3.2477 H   0  0  0  0  0  0  0  0  0  0  0  0
    2.4792    2.6022   -2.4239 H   0  0  0  0  0  0  0  0  0  0  0  0
    2.8781    1.0310   -3.0889 H   0  0  0  0  0  0  0  0  0  0  0  0
    0.5918    0.9912   -2.1974 H   0  0  0  0  0  0  0  0  0  0  0  0
    1.6073   -0.1211   -1.3228 H   0  0  0  0  0  0  0  0  0  0  0  0
   -5.4654   -1.0146    2.2137 H   0  0  0  0  0  0  0  0  0  0  0  0
   -6.7757   -1.5041    0.1921 H   0  0  0  0  0  0  0  0  0  0  0  0
  1  2  1  0
  2  3  2  0
  3  4  1  0
  4  5  2  0
  5  6  1  0
  6  7  1  0
  7  8  1  0
  8  9  2  0
  9 10  1  0
 10 11  1  0
 11 12  2  0
 11 13  1  0
 13 14  1  0
 14 15  1  0
 15 16  1  0
 16 17  1  0
 17 18  1  0
 18 19  1  0
 19 20  2  0
 19 21  2  0
 19 22  1  0
 22 23  2  0
 23 24  1  0
 24 25  2  0
 25 26  1  0
 26 27  2  0
 18 28  1  0
 28 29  1  0
 14 30  2  0
 30 31  1  0
  5 32  1  0
 32 33  2  0
 33  2  1  0
 31  7  1  0
 31 10  2  0
 29 15  1  0
 27 22  1  0
  1 34  1  0
  1 35  1  0
  1 36  1  0
  3 37  1  0
  4 38  1  0
  6 39  1  0
  6 40  1  0
 13 41  1  0
 15 42  1  0
 16 43  1  0
 16 44  1  0
 17 45  1  0
 17 46  1  0
 23 47  1  0
 24 48  1  0
 25 49  1  0
 26 50  1  0
 27 51  1  0
 28 52  1  0
 28 53  1  0
 29 54  1  0
 29 55  1  0
 32 56  1  0
 33 57  1  0
M  END
$$$$
