
     RDKit          3D

 42 44  0  0  0  0  0  0  0  0999 V2000
    6.5491   -1.8488   -1.1974 C   0  0  0  0  0  0  0  0  0  0  0  0
    5.7643   -0.6679   -1.3802 O   0  0  0  0  0  0  0  0  0  0  0  0
    4.4519   -0.8097   -1.0278 C   0  0  0  0  0  0  0  0  0  0  0  0
    3.9502   -1.8503   -0.6250 O   0  0  0  0  0  0  0  0  0  0  0  0
    3.7225    0.4860   -1.2777 C   0  0  0  0  0  0  0  0  0  0  0  0
    2.5458    0.6330   -0.4331 N   0  0  0  0  0  0  0  0  0  0  0  0
    1.2696    0.3001   -0.8167 C   0  0  0  0  0  0  0  0  0  0  0  0
    0.4193    0.5894    0.2284 C   0  0  0  0  0  0  0  0  0  0  0  0
   -0.9934    0.3628    0.2584 C   0  0  0  0  0  0  0  0  0  0  0  0
   -1.7364   -0.1346   -0.7453 C   0  0  0  0  0  0  0  0  0  0  0  0
   -3.1815   -0.3627   -0.6465 C   0  0  0  0  0  0  0  0  0  0  0  0
   -4.0035   -0.0090   -1.7142 C   0  0  0  0  0  0  0  0  0  0  0  0
   -5.3712   -0.2477   -1.6394 C   0  0  0  0  0  0  0  0  0  0  0  0
   -5.9102   -0.8272   -0.5435 N   0  0  0  0  0  4  0  0  0  0  0  0
   -7.3596   -1.0826   -0.4900 C   0  0  0  0  0  0  0  0  0  0  0  0
   -5.1289   -1.2012    0.4942 C   0  0  0  0  0  0  0  0  0  0  0  0
   -3.7572   -0.9791    0.4636 C   0  0  0  0  0  0  0  0  0  0  0  0
    1.2116    1.1433    1.2838 C   0  0  0  0  0  0  0  0  0  0  0  0
    0.9279    1.6313    2.5793 C   0  0  0  0  0  0  0  0  0  0  0  0
    1.9643    2.1125    3.3860 C   0  0  0  0  0  0  0  0  0  0  0  0
    3.2755    2.1124    2.9248 C   0  0  0  0  0  0  0  0  0  0  0  0
    3.5879    1.6354    1.6493 C   0  0  0  0  0  0  0  0  0  0  0  0
    2.5403    1.1579    0.8435 C   0  0  0  0  0  0  0  0  0  0  0  0
    6.5426   -2.1547   -0.1465 H   0  0  0  0  0  0  0  0  0  0  0  0
    7.5786   -1.6187   -1.4849 H   0  0  0  0  0  0  0  0  0  0  0  0
    6.1809   -2.6548   -1.8397 H   0  0  0  0  0  0  0  0  0  0  0  0
    3.4026    0.5215   -2.3240 H   0  0  0  0  0  0  0  0  0  0  0  0
    4.3772    1.3413   -1.0824 H   0  0  0  0  0  0  0  0  0  0  0  0
    1.0888   -0.1336   -1.7911 H   0  0  0  0  0  0  0  0  0  0  0  0
   -1.4858    0.6276    1.1914 H   0  0  0  0  0  0  0  0  0  0  0  0
   -1.2791   -0.3836   -1.7000 H   0  0  0  0  0  0  0  0  0  0  0  0
   -3.5874    0.4603   -2.6041 H   0  0  0  0  0  0  0  0  0  0  0  0
   -6.0409    0.0183   -2.4524 H   0  0  0  0  0  0  0  0  0  0  0  0
   -7.6993   -0.9882    0.5448 H   0  0  0  0  0  0  0  0  0  0  0  0
   -7.8788   -0.3467   -1.1092 H   0  0  0  0  0  0  0  0  0  0  0  0
   -7.5275   -2.0950   -0.8656 H   0  0  0  0  0  0  0  0  0  0  0  0
   -5.6095   -1.6833    1.3410 H   0  0  0  0  0  0  0  0  0  0  0  0
   -3.1440   -1.3026    1.3031 H   0  0  0  0  0  0  0  0  0  0  0  0
   -0.0891    1.6376    2.9581 H   0  0  0  0  0  0  0  0  0  0  0  0
    1.7429    2.4872    4.3824 H   0  0  0  0  0  0  0  0  0  0  0  0
    4.0712    2.4863    3.5658 H   0  0  0  0  0  0  0  0  0  0  0  0
    4.6183    1.6378    1.3076 H   0  0  0  0  0  0  0  0  0  0  0  0
  1  2  1  0
  2  3  1  0
  3  4  2  0
  3  5  1  0
  5  6  1  0
  6  7  1  0
  7  8  2  0
  8  9  1  0
  9 10  2  3
 10 11  1  0
 11 12  2  0
 12 13  1  0
 13 14  2  0
 14 15  1  0
 14 16  1  0
 16 17  2  0
  8 18  1  0
 18 19  2  0
 19 20  1  0
 20 21  2  0
 21 22  1  0
 22 23  2  0
 23  6  1  0
 17 11  1  0
 23 18  1  0
  1 24  1  0
  1 25  1  0
  1 26  1  0
  5 27  1  0
  5 28  1  0
  7 29  1  0
  9 30  1  0
 10 31  1  0
 12 32  1  0
 13 33  1  0
 15 34  1  0
 15 35  1  0
 15 36  1  0
 16 37  1  0
 17 38  1  0
 19 39  1  0
 20 40  1  0
 21 41  1  0
 22 42  1  0
M  CHG  1  14   1
M  END
$$$$
