
     RDKit          3D

 56 61  0  0  0  0  0  0  0  0999 V2000
    0.5792    1.9234   -2.8259 O   0  0  0  0  0  0  0  0  0  0  0  0
    0.5026    2.6365   -1.8350 C   0  0  0  0  0  0  0  0  0  0  0  0
    0.0809    3.9707   -1.8509 N   0  0  0  0  0  0  0  0  0  0  0  0
    0.0942    4.5227   -0.5760 C   0  0  0  0  0  0  0  0  0  0  0  0
   -0.2580    5.8106   -0.2259 C   0  0  0  0  0  0  0  0  0  0  0  0
   -0.1628    6.1589    1.1240 C   0  0  0  0  0  0  0  0  0  0  0  0
    0.2720    5.2226    2.0814 C   0  0  0  0  0  0  0  0  0  0  0  0
    0.6228    3.9226    1.7043 C   0  0  0  0  0  0  0  0  0  0  0  0
    0.5309    3.5809    0.3613 C   0  0  0  0  0  0  0  0  0  0  0  0
    0.8479    2.2977   -0.3567 C   0  0  0  0  0  0  0  0  0  0  0  0
    2.2812    1.8459   -0.1962 N   0  0  0  0  0  0  0  0  0  0  0  0
    2.2844    0.3610    0.0848 C   0  0  2  0  0  0  0  0  0  0  0  0
    2.7362   -0.4053   -1.1727 C   0  0  0  0  0  0  0  0  0  0  0  0
    2.9803   -1.8750   -0.9095 C   0  0  0  0  0  0  0  0  0  0  0  0
    4.1058   -2.2927   -0.1828 C   0  0  0  0  0  0  0  0  0  0  0  0
    4.3144   -3.6463    0.0796 C   0  0  0  0  0  0  0  0  0  0  0  0
    3.4033   -4.5935   -0.3836 C   0  0  0  0  0  0  0  0  0  0  0  0
    2.2850   -4.1886   -1.1123 C   0  0  0  0  0  0  0  0  0  0  0  0
    2.0737   -2.8359   -1.3759 C   0  0  0  0  0  0  0  0  0  0  0  0
    0.8823    0.0992    0.4848 C   0  0  0  0  0  0  0  0  0  0  0  0
    0.0640    1.1992    0.2171 C   0  0  0  0  0  0  0  0  0  0  0  0
   -1.2286    0.8729    0.5243 C   0  0  0  0  0  0  0  0  0  0  0  0
   -2.3393    1.5766    0.3448 O   0  0  0  0  0  0  0  0  0  0  0  0
   -1.1862   -0.3948    1.0915 N   0  0  0  0  0  0  0  0  0  0  0  0
   -2.3080   -1.0883    1.7240 C   0  0  0  0  0  0  0  0  0  0  0  0
   -3.1725   -1.8120    0.7152 C   0  0  0  0  0  0  0  0  0  0  0  0
   -2.7016   -2.9733    0.0866 C   0  0  0  0  0  0  0  0  0  0  0  0
   -3.4909   -3.6461   -0.8529 C   0  0  0  0  0  0  0  0  0  0  0  0
   -4.7506   -3.1627   -1.1855 C   0  0  0  0  0  0  0  0  0  0  0  0
   -5.2401   -2.0151   -0.5606 C   0  0  0  0  0  0  0  0  0  0  0  0
   -4.4634   -1.3474    0.3924 C   0  0  0  0  0  0  0  0  0  0  0  0
    0.1146   -0.8804    1.0562 C   0  0  0  0  0  0  0  0  0  0  0  0
    0.4151   -2.0873    1.5174 O   0  0  0  0  0  0  0  0  0  0  0  0
   -0.2089    4.4379   -2.6957 H   0  0  0  0  0  0  0  0  0  0  0  0
   -0.5969    6.5299   -0.9634 H   0  0  0  0  0  0  0  0  0  0  0  0
   -0.4319    7.1636    1.4429 H   0  0  0  0  0  0  0  0  0  0  0  0
    0.3289    5.5128    3.1289 H   0  0  0  0  0  0  0  0  0  0  0  0
    0.9457    3.1989    2.4480 H   0  0  0  0  0  0  0  0  0  0  0  0
    2.6161    2.2940    0.6541 H   0  0  0  0  0  0  0  0  0  0  0  0
    2.9666    0.1732    0.9235 H   0  0  0  0  0  0  0  0  0  0  0  0
    3.6722    0.0226   -1.5545 H   0  0  0  0  0  0  0  0  0  0  0  0
    2.0053   -0.2944   -1.9832 H   0  0  0  0  0  0  0  0  0  0  0  0
    4.8301   -1.5651    0.1760 H   0  0  0  0  0  0  0  0  0  0  0  0
    5.1910   -3.9651    0.6392 H   0  0  0  0  0  0  0  0  0  0  0  0
    3.5693   -5.6484   -0.1841 H   0  0  0  0  0  0  0  0  0  0  0  0
    1.5778   -4.9270   -1.4800 H   0  0  0  0  0  0  0  0  0  0  0  0
    1.1923   -2.5328   -1.9412 H   0  0  0  0  0  0  0  0  0  0  0  0
   -3.0743    0.9486    0.2479 H   0  0  0  0  0  0  0  0  0  0  0  0
   -1.9136   -1.7925    2.4661 H   0  0  0  0  0  0  0  0  0  0  0  0
   -2.8827   -0.3341    2.2792 H   0  0  0  0  0  0  0  0  0  0  0  0
   -1.7115   -3.3623    0.3306 H   0  0  0  0  0  0  0  0  0  0  0  0
   -3.1162   -4.5473   -1.3240 H   0  0  0  0  0  0  0  0  0  0  0  0
   -5.3589   -3.6845   -1.9225 H   0  0  0  0  0  0  0  0  0  0  0  0
   -6.2289   -1.6439   -0.8164 H   0  0  0  0  0  0  0  0  0  0  0  0
   -4.8776   -0.4682    0.8827 H   0  0  0  0  0  0  0  0  0  0  0  0
    1.3376   -2.2729    1.2585 H   0  0  0  0  0  0  0  0  0  0  0  0
  1  2  2  0
  2  3  1  0
  3  4  1  0
  4  5  2  0
  5  6  1  0
  6  7  2  0
  7  8  1  0
  8  9  2  0
  9 10  1  0
 10 11  1  0
 11 12  1  0
 12 13  1  0
 13 14  1  0
 14 15  2  0
 15 16  1  0
 16 17  2  0
 17 18  1  0
 18 19  2  0
 12 20  1  0
 20 21  1  0
 21 22  2  0
 22 23  1  0
 22 24  1  0
 24 25  1  0
 25 26  1  0
 26 27  2  0
 27 28  1  0
 28 29  2  0
 29 30  1  0
 30 31  2  0
 24 32  1  0
 32 33  1  0
 10  2  1  0
 19 14  1  0
 32 20  2  0
  9  4  1  0
 21 10  1  0
 31 26  1  0
  3 34  1  0
  5 35  1  0
  6 36  1  0
  7 37  1  0
  8 38  1  0
 11 39  1  0
 12 40  1  1
 13 41  1  0
 13 42  1  0
 15 43  1  0
 16 44  1  0
 17 45  1  0
 18 46  1  0
 19 47  1  0
 23 48  1  0
 25 49  1  0
 25 50  1  0
 27 51  1  0
 28 52  1  0
 29 53  1  0
 30 54  1  0
 31 55  1  0
 33 56  1  0
M  END
$$$$
