
     RDKit          3D

 53 55  0  0  0  0  0  0  0  0999 V2000
   -7.1987   -1.5851   -3.2744 C   0  0  0  0  0  0  0  0  0  0  0  0
   -5.9342   -1.0332   -2.9306 O   0  0  0  0  0  0  0  0  0  0  0  0
   -5.5897   -1.0446   -1.6059 C   0  0  0  0  0  0  0  0  0  0  0  0
   -4.3348   -0.4931   -1.3236 C   0  0  0  0  0  0  0  0  0  0  0  0
   -3.8547   -0.4386   -0.0142 C   0  0  0  0  0  0  0  0  0  0  0  0
   -2.6004    0.1037    0.3464 N   0  0  0  0  0  0  0  0  0  0  0  0
   -1.6384    0.6421   -0.4943 C   0  0  0  0  0  0  0  0  0  0  0  0
   -1.6969    0.7251   -1.7156 O   0  0  0  0  0  0  0  0  0  0  0  0
   -0.4240    1.1209    0.2832 C   0  0  0  0  0  0  0  0  0  0  0  0
    0.5914    1.8396   -0.5981 C   0  0  0  0  0  0  0  0  0  0  0  0
    1.2271    0.8856   -1.5193 N   0  0  0  0  0  0  0  0  0  0  0  0
    2.7104    1.2998   -2.1934 S   0  0  0  0  0  6  0  0  0  0  0  0
    2.8044    2.7418   -2.2397 O   0  0  0  0  0  0  0  0  0  0  0  0
    2.8818    0.4789   -3.3704 O   0  0  0  0  0  0  0  0  0  0  0  0
    3.8362    0.6928   -0.9602 C   0  0  0  0  0  0  0  0  0  0  0  0
    4.0191   -0.6877   -0.8274 C   0  0  0  0  0  0  0  0  0  0  0  0
    4.9002   -1.1761    0.1383 C   0  0  0  0  0  0  0  0  0  0  0  0
    5.6048   -0.2824    0.9462 C   0  0  0  0  0  0  0  0  0  0  0  0
    5.4279    1.1011    0.8120 C   0  0  0  0  0  0  0  0  0  0  0  0
    4.5338    1.5913   -0.1468 C   0  0  0  0  0  0  0  0  0  0  0  0
    6.1220    2.0262    1.7727 C   0  0  0  0  0  0  0  0  0  0  0  0
    7.4548    1.4531    2.2249 C   0  0  0  0  0  0  0  0  0  0  0  0
    7.3358    0.0073    2.6482 C   0  0  0  0  0  0  0  0  0  0  0  0
    8.0329   -0.4785    3.5359 O   0  0  0  0  0  0  0  0  0  0  0  0
    6.4800   -0.7739    1.9180 N   0  0  0  0  0  0  0  0  0  0  0  0
   -4.6515   -0.9455    1.0234 C   0  0  0  0  0  0  0  0  0  0  0  0
   -5.9054   -1.4982    0.7525 C   0  0  0  0  0  0  0  0  0  0  0  0
   -6.7696   -2.0226    1.6757 O   0  0  0  0  0  0  0  0  0  0  0  0
   -6.3564   -2.0094    3.0359 C   0  0  0  0  0  0  0  0  0  0  0  0
   -6.3691   -1.5451   -0.5647 C   0  0  0  0  0  0  0  0  0  0  0  0
   -8.0145   -1.0249   -2.8058 H   0  0  0  0  0  0  0  0  0  0  0  0
   -7.3168   -1.4999   -4.3590 H   0  0  0  0  0  0  0  0  0  0  0  0
   -7.2486   -2.6482   -3.0167 H   0  0  0  0  0  0  0  0  0  0  0  0
   -3.7562   -0.1113   -2.1590 H   0  0  0  0  0  0  0  0  0  0  0  0
   -2.3793    0.0832    1.3339 H   0  0  0  0  0  0  0  0  0  0  0  0
   -0.7698    1.8121    1.0610 H   0  0  0  0  0  0  0  0  0  0  0  0
    0.0387    0.2544    0.7705 H   0  0  0  0  0  0  0  0  0  0  0  0
    1.3488    2.2910    0.0516 H   0  0  0  0  0  0  0  0  0  0  0  0
    0.1087    2.6340   -1.1775 H   0  0  0  0  0  0  0  0  0  0  0  0
    0.5992    0.4678   -2.2163 H   0  0  0  0  0  0  0  0  0  0  0  0
    3.4787   -1.3795   -1.4704 H   0  0  0  0  0  0  0  0  0  0  0  0
    5.0374   -2.2493    0.2399 H   0  0  0  0  0  0  0  0  0  0  0  0
    4.3786    2.6631   -0.2532 H   0  0  0  0  0  0  0  0  0  0  0  0
    6.2906    3.0052    1.3095 H   0  0  0  0  0  0  0  0  0  0  0  0
    5.4649    2.1750    2.6385 H   0  0  0  0  0  0  0  0  0  0  0  0
    7.8427    2.0400    3.0644 H   0  0  0  0  0  0  0  0  0  0  0  0
    8.1898    1.4969    1.4120 H   0  0  0  0  0  0  0  0  0  0  0  0
    6.5148   -1.7655    2.1181 H   0  0  0  0  0  0  0  0  0  0  0  0
   -4.2805   -0.9032    2.0411 H   0  0  0  0  0  0  0  0  0  0  0  0
   -6.2125   -0.9848    3.3944 H   0  0  0  0  0  0  0  0  0  0  0  0
   -5.4520   -2.6098    3.1793 H   0  0  0  0  0  0  0  0  0  0  0  0
   -7.1545   -2.4618    3.6324 H   0  0  0  0  0  0  0  0  0  0  0  0
   -7.3467   -1.9800   -0.7444 H   0  0  0  0  0  0  0  0  0  0  0  0
  1  2  1  0
  2  3  1  0
  3  4  2  0
  4  5  1  0
  5  6  1  0
  6  7  1  0
  7  8  2  0
  7  9  1  0
  9 10  1  0
 10 11  1  0
 11 12  1  0
 12 13  2  0
 12 14  2  0
 12 15  1  0
 15 16  2  0
 16 17  1  0
 17 18  2  0
 18 19  1  0
 19 20  2  0
 19 21  1  0
 21 22  1  0
 22 23  1  0
 23 24  2  0
 23 25  1  0
  5 26  2  0
 26 27  1  0
 27 28  1  0
 28 29  1  0
 27 30  2  0
 30  3  1  0
 20 15  1  0
 25 18  1  0
  1 31  1  0
  1 32  1  0
  1 33  1  0
  4 34  1  0
  6 35  1  0
  9 36  1  0
  9 37  1  0
 10 38  1  0
 10 39  1  0
 11 40  1  0
 16 41  1  0
 17 42  1  0
 20 43  1  0
 21 44  1  0
 21 45  1  0
 22 46  1  0
 22 47  1  0
 25 48  1  0
 26 49  1  0
 29 50  1  0
 29 51  1  0
 29 52  1  0
 30 53  1  0
M  END
$$$$
