
     RDKit          3D

 54 58  0  0  0  0  0  0  0  0999 V2000
    6.0381    2.0421    1.8381 F   0  0  0  0  0  0  0  0  0  0  0  0
    5.8687    0.7069    1.6247 C   0  0  0  0  0  0  0  0  0  0  0  0
    4.8632    0.3196    2.4595 F   0  0  0  0  0  0  0  0  0  0  0  0
    6.9948    0.1127    2.1148 F   0  0  0  0  0  0  0  0  0  0  0  0
    5.5932    0.3812    0.1729 C   0  0  0  0  0  0  0  0  0  0  0  0
    6.5729   -0.3125   -0.5655 C   0  0  0  0  0  0  0  0  0  0  0  0
    6.3736   -0.6290   -1.9088 C   0  0  0  0  0  0  0  0  0  0  0  0
    5.1926   -0.2564   -2.5387 C   0  0  0  0  0  0  0  0  0  0  0  0
    4.2131    0.4353   -1.8278 C   0  0  0  0  0  0  0  0  0  0  0  0
    4.3955    0.7677   -0.4733 C   0  0  0  0  0  0  0  0  0  0  0  0
    3.2848    1.5178    0.2397 C   0  0  0  0  0  0  0  0  0  0  0  0
    2.1763    0.6043    0.8022 C   0  0  0  0  0  0  0  0  0  0  0  0
    1.3176   -0.0240   -0.2212 N   0  0  0  0  0  0  0  0  0  0  0  0
    0.5201   -1.1164    0.3875 C   0  0  0  0  0  0  0  0  0  0  0  0
   -0.4270   -1.7956   -0.6275 C   0  0  0  0  0  0  0  0  0  0  0  0
   -1.3417   -0.8066   -1.2317 N   0  0  0  0  0  0  0  0  0  0  0  0
   -2.5265   -0.5046   -0.5614 C   0  0  0  0  0  0  0  0  0  0  0  0
   -2.7396    0.7217   -0.1548 N   0  0  0  0  0  0  0  0  0  0  0  0
   -3.9110    1.0497    0.5559 C   0  0  0  0  0  0  0  0  0  0  0  0
   -4.0800    2.3685    0.9822 C   0  0  0  0  0  0  0  0  0  0  0  0
   -5.2179    2.7460    1.7004 C   0  0  0  0  0  0  0  0  0  0  0  0
   -6.2017    1.8029    2.0003 C   0  0  0  0  0  0  0  0  0  0  0  0
   -6.0543    0.4793    1.5839 C   0  0  0  0  0  0  0  0  0  0  0  0
   -4.9102    0.1167    0.8670 C   0  0  0  0  0  0  0  0  0  0  0  0
   -4.6871   -1.1883    0.3998 N   0  0  0  0  0  0  0  0  0  0  0  0
   -5.4763   -2.3081    0.5159 C   0  0  0  0  0  0  0  0  0  0  0  0
   -4.8642   -3.3385   -0.1649 C   0  0  0  0  0  0  0  0  0  0  0  0
   -3.6578   -2.8292   -0.6987 C   0  0  0  0  0  0  0  0  0  0  0  0
   -3.5492   -1.5068   -0.3065 C   0  0  0  0  0  0  0  0  0  0  0  0
   -0.5782    0.2961   -1.8506 C   0  0  0  0  0  0  0  0  0  0  0  0
    0.3904    0.9558   -0.8418 C   0  0  0  0  0  0  0  0  0  0  0  0
    7.5063   -0.6137   -0.0907 H   0  0  0  0  0  0  0  0  0  0  0  0
    7.1392   -1.1675   -2.4616 H   0  0  0  0  0  0  0  0  0  0  0  0
    5.0296   -0.5054   -3.5840 H   0  0  0  0  0  0  0  0  0  0  0  0
    3.2909    0.7105   -2.3365 H   0  0  0  0  0  0  0  0  0  0  0  0
    3.7069    2.1001    1.0666 H   0  0  0  0  0  0  0  0  0  0  0  0
    2.8702    2.2759   -0.4354 H   0  0  0  0  0  0  0  0  0  0  0  0
    2.6618   -0.1830    1.3931 H   0  0  0  0  0  0  0  0  0  0  0  0
    1.5609    1.1831    1.5034 H   0  0  0  0  0  0  0  0  0  0  0  0
    1.1979   -1.8842    0.7798 H   0  0  0  0  0  0  0  0  0  0  0  0
   -0.0685   -0.7328    1.2318 H   0  0  0  0  0  0  0  0  0  0  0  0
    0.1606   -2.2685   -1.4243 H   0  0  0  0  0  0  0  0  0  0  0  0
   -0.9715   -2.5988   -0.1219 H   0  0  0  0  0  0  0  0  0  0  0  0
   -3.3154    3.1052    0.7514 H   0  0  0  0  0  0  0  0  0  0  0  0
   -5.3346    3.7769    2.0247 H   0  0  0  0  0  0  0  0  0  0  0  0
   -7.0858    2.1017    2.5585 H   0  0  0  0  0  0  0  0  0  0  0  0
   -6.8335   -0.2355    1.8261 H   0  0  0  0  0  0  0  0  0  0  0  0
   -6.4145   -2.2914    1.0510 H   0  0  0  0  0  0  0  0  0  0  0  0
   -5.2519   -4.3433   -0.2740 H   0  0  0  0  0  0  0  0  0  0  0  0
   -2.9429   -3.3672   -1.3073 H   0  0  0  0  0  0  0  0  0  0  0  0
   -0.0028   -0.1097   -2.6927 H   0  0  0  0  0  0  0  0  0  0  0  0
   -1.2533    1.0477   -2.2769 H   0  0  0  0  0  0  0  0  0  0  0  0
   -0.1828    1.4772   -0.0653 H   0  0  0  0  0  0  0  0  0  0  0  0
    0.9612    1.7142   -1.3876 H   0  0  0  0  0  0  0  0  0  0  0  0
  1  2  1  0
  2  3  1  0
  2  4  1  0
  2  5  1  0
  5  6  2  0
  6  7  1  0
  7  8  2  0
  8  9  1  0
  9 10  2  0
 10 11  1  0
 11 12  1  0
 12 13  1  0
 13 14  1  0
 14 15  1  0
 15 16  1  0
 16 17  1  0
 17 18  2  0
 18 19  1  0
 19 20  2  0
 20 21  1  0
 21 22  2  0
 22 23  1  0
 23 24  2  0
 24 25  1  0
 25 26  1  0
 26 27  2  0
 27 28  1  0
 28 29  2  0
 16 30  1  0
 30 31  1  0
 10  5  1  0
 31 13  1  0
 29 17  1  0
 24 19  1  0
 29 25  1  0
  6 32  1  0
  7 33  1  0
  8 34  1  0
  9 35  1  0
 11 36  1  0
 11 37  1  0
 12 38  1  0
 12 39  1  0
 14 40  1  0
 14 41  1  0
 15 42  1  0
 15 43  1  0
 20 44  1  0
 21 45  1  0
 22 46  1  0
 23 47  1  0
 26 48  1  0
 27 49  1  0
 28 50  1  0
 30 51  1  0
 30 52  1  0
 31 53  1  0
 31 54  1  0
M  END
$$$$
