
     RDKit          3D

 27 27  0  0  0  0  0  0  0  0999 V2000
   -1.1084   -0.0656   -1.6240 C   0  0  0  0  0  0  0  0  0  0  0  0
   -1.5216    0.0962   -0.1592 C   0  0  0  0  0  0  0  0  0  0  0  0
   -1.8413   -1.2823    0.4373 C   0  0  0  0  0  0  0  0  0  0  0  0
   -2.7878    0.9698   -0.0951 C   0  0  0  0  0  0  0  0  0  0  0  0
   -0.2287    0.9322    0.8125 S   0  0  0  0  0  6  0  0  0  0  0  0
   -0.6148    0.9246    2.2115 O   0  0  0  0  0  0  0  0  0  0  0  0
    0.1876    2.1620    0.1731 O   0  0  0  0  0  0  0  0  0  0  0  0
    1.1863   -0.0835    0.7878 C   0  0  0  0  0  0  0  0  0  0  0  0
    1.3956   -1.1237    1.7526 C   0  0  0  0  0  0  0  0  0  0  0  0
    2.6056   -1.7553    1.5840 C   0  0  0  0  0  0  0  0  0  0  0  0
    3.4953   -1.0904    0.2885 S   0  0  0  0  0  0  0  0  0  0  0  0
    2.2648    0.0565   -0.0682 C   0  0  0  0  0  0  0  0  0  0  0  0
    2.4490    0.9569   -1.1778 C   0  0  0  0  0  0  0  0  0  0  0  0
    1.6699    1.1821   -2.0908 O   0  0  0  0  0  0  0  0  0  0  0  0
    3.6532    1.5682   -1.1426 O   0  0  0  0  0  0  0  0  0  0  0  0
   -1.9066   -0.5390   -2.2074 H   0  0  0  0  0  0  0  0  0  0  0  0
   -0.8980    0.9033   -2.0878 H   0  0  0  0  0  0  0  0  0  0  0  0
   -0.2187   -0.6946   -1.7249 H   0  0  0  0  0  0  0  0  0  0  0  0
   -2.6837   -1.7505   -0.0849 H   0  0  0  0  0  0  0  0  0  0  0  0
   -2.1083   -1.2113    1.4972 H   0  0  0  0  0  0  0  0  0  0  0  0
   -0.9906   -1.9656    0.3537 H   0  0  0  0  0  0  0  0  0  0  0  0
   -2.6021    1.9685   -0.5062 H   0  0  0  0  0  0  0  0  0  0  0  0
   -3.1296    1.1001    0.9379 H   0  0  0  0  0  0  0  0  0  0  0  0
   -3.6097    0.5215   -0.6643 H   0  0  0  0  0  0  0  0  0  0  0  0
    0.6989   -1.3802    2.5437 H   0  0  0  0  0  0  0  0  0  0  0  0
    3.0182   -2.5661    2.1701 H   0  0  0  0  0  0  0  0  0  0  0  0
    3.6256    2.1663   -1.9169 H   0  0  0  0  0  0  0  0  0  0  0  0
  1  2  1  0
  2  3  1  0
  2  4  1  0
  2  5  1  0
  5  6  2  0
  5  7  2  0
  5  8  1  0
  8  9  1  0
  9 10  2  0
 10 11  1  0
 11 12  1  0
 12 13  1  0
 13 14  2  0
 13 15  1  0
 12  8  2  0
  1 16  1  0
  1 17  1  0
  1 18  1  0
  3 19  1  0
  3 20  1  0
  3 21  1  0
  4 22  1  0
  4 23  1  0
  4 24  1  0
  9 25  1  0
 10 26  1  0
 15 27  1  0
M  END
$$$$
