
     RDKit          3D

 68 71  0  0  0  0  0  0  0  0999 V2000
   -3.5876   -4.1026   -4.4783 C   0  0  0  0  0  0  0  0  0  0  0  0
   -3.2903   -3.4016   -3.1860 C   0  0  0  0  0  0  0  0  0  0  0  0
   -2.7700   -4.1033   -2.0958 C   0  0  0  0  0  0  0  0  0  0  0  0
   -2.4638   -3.4370   -0.9067 C   0  0  0  0  0  0  0  0  0  0  0  0
   -2.6648   -2.0507   -0.7786 C   0  0  0  0  0  0  0  0  0  0  0  0
   -2.2962   -1.3695    0.5419 C   0  0  0  0  0  0  0  0  0  0  0  0
   -3.0666   -0.0531    0.8441 C   0  0  0  0  0  0  0  0  0  0  0  0
   -4.1991   -0.0671    1.3302 O   0  0  0  0  0  0  0  0  0  0  0  0
   -2.4590    1.1245    0.4512 N   0  0  0  0  0  0  0  0  0  0  0  0
   -3.1510    2.3918    0.5159 C   0  0  0  0  0  0  0  0  0  0  0  0
   -3.3863    2.8859    1.9447 C   0  0  0  0  0  0  0  0  0  0  0  0
   -3.4674    4.4093    1.8429 C   0  0  0  0  0  0  0  0  0  0  0  0
   -3.0199    4.7705    0.4283 C   0  0  0  0  0  0  0  0  0  0  0  0
   -2.3319    3.5220   -0.0981 C   0  0  0  0  0  0  0  0  0  0  0  0
   -0.8186   -1.3023    0.7561 N   0  0  0  0  0  0  0  0  0  0  0  0
   -0.0201   -0.5730   -0.1231 C   0  0  0  0  0  0  0  0  0  0  0  0
   -0.5086    0.0617   -1.0653 O   0  0  0  0  0  0  0  0  0  0  0  0
    1.4746   -0.4733    0.1462 C   0  0  0  0  0  0  0  0  0  0  0  0
    2.0853    0.7232   -0.5814 C   0  0  0  0  0  0  0  0  0  0  0  0
    3.5896    0.7858   -0.4083 C   0  0  0  0  0  0  0  0  0  0  0  0
    4.2219   -0.0888    0.1738 O   0  0  0  0  0  0  0  0  0  0  0  0
    4.1222    1.9130   -0.9915 N   0  0  0  0  0  0  0  0  0  0  0  0
    5.4613    2.2248   -1.0457 C   0  0  0  0  0  0  0  0  0  0  0  0
    6.5738    1.5076   -0.5526 C   0  0  0  0  0  0  0  0  0  0  0  0
    7.6592    2.2693   -0.9042 C   0  0  0  0  0  0  0  0  0  0  0  0
    9.1145    2.1325   -0.7265 C   0  0  0  0  0  0  0  0  0  0  0  0
    7.2291    3.3823   -1.5546 O   0  0  0  0  0  0  0  0  0  0  0  0
    5.8496    3.3560   -1.6454 N   0  0  0  0  0  0  0  0  0  0  0  0
   -0.3115   -2.0763    1.8422 C   0  0  0  0  0  0  0  0  0  0  0  0
    0.7003   -3.0230    1.6487 C   0  0  0  0  0  0  0  0  0  0  0  0
    1.1690   -3.7896    2.7185 C   0  0  0  0  0  0  0  0  0  0  0  0
    0.6220   -3.6264    3.9885 C   0  0  0  0  0  0  0  0  0  0  0  0
   -0.3986   -2.7000    4.1898 C   0  0  0  0  0  0  0  0  0  0  0  0
   -0.8673   -1.9322    3.1215 C   0  0  0  0  0  0  0  0  0  0  0  0
   -3.1737   -1.3528   -1.8826 C   0  0  0  0  0  0  0  0  0  0  0  0
   -3.4785   -2.0206   -3.0734 C   0  0  0  0  0  0  0  0  0  0  0  0
   -3.7605   -5.1721   -4.3169 H   0  0  0  0  0  0  0  0  0  0  0  0
   -4.4918   -3.6936   -4.9411 H   0  0  0  0  0  0  0  0  0  0  0  0
   -2.7476   -3.9840   -5.1702 H   0  0  0  0  0  0  0  0  0  0  0  0
   -2.5986   -5.1750   -2.1630 H   0  0  0  0  0  0  0  0  0  0  0  0
   -2.0637   -4.0120   -0.0735 H   0  0  0  0  0  0  0  0  0  0  0  0
   -2.7012   -2.0513    1.3058 H   0  0  0  0  0  0  0  0  0  0  0  0
   -1.7711    1.0134   -0.2951 H   0  0  0  0  0  0  0  0  0  0  0  0
   -4.1100    2.2911   -0.0088 H   0  0  0  0  0  0  0  0  0  0  0  0
   -2.5498    2.6054    2.5983 H   0  0  0  0  0  0  0  0  0  0  0  0
   -4.2949    2.4613    2.3841 H   0  0  0  0  0  0  0  0  0  0  0  0
   -4.4855    4.7685    2.0275 H   0  0  0  0  0  0  0  0  0  0  0  0
   -2.8158    4.8738    2.5914 H   0  0  0  0  0  0  0  0  0  0  0  0
   -3.8969    5.0018   -0.1879 H   0  0  0  0  0  0  0  0  0  0  0  0
   -2.3619    5.6442    0.4125 H   0  0  0  0  0  0  0  0  0  0  0  0
   -2.3197    3.4830   -1.1919 H   0  0  0  0  0  0  0  0  0  0  0  0
   -1.2912    3.4865    0.2490 H   0  0  0  0  0  0  0  0  0  0  0  0
    1.6615   -0.3674    1.2201 H   0  0  0  0  0  0  0  0  0  0  0  0
    1.9514   -1.3884   -0.2175 H   0  0  0  0  0  0  0  0  0  0  0  0
    1.6451    1.6524   -0.2008 H   0  0  0  0  0  0  0  0  0  0  0  0
    1.8773    0.6651   -1.6567 H   0  0  0  0  0  0  0  0  0  0  0  0
    3.5265    2.5868   -1.4539 H   0  0  0  0  0  0  0  0  0  0  0  0
    6.5888    0.5673   -0.0235 H   0  0  0  0  0  0  0  0  0  0  0  0
    9.6232    2.1494   -1.6955 H   0  0  0  0  0  0  0  0  0  0  0  0
    9.3625    1.1898   -0.2286 H   0  0  0  0  0  0  0  0  0  0  0  0
    9.5046    2.9530   -0.1162 H   0  0  0  0  0  0  0  0  0  0  0  0
    1.1093   -3.2147    0.6605 H   0  0  0  0  0  0  0  0  0  0  0  0
    1.9557   -4.5222    2.5561 H   0  0  0  0  0  0  0  0  0  0  0  0
    0.9873   -4.2254    4.8190 H   0  0  0  0  0  0  0  0  0  0  0  0
   -0.8298   -2.5724    5.1795 H   0  0  0  0  0  0  0  0  0  0  0  0
   -1.6521   -1.2033    3.3117 H   0  0  0  0  0  0  0  0  0  0  0  0
   -3.3307   -0.2779   -1.8442 H   0  0  0  0  0  0  0  0  0  0  0  0
   -3.8618   -1.4501   -3.9166 H   0  0  0  0  0  0  0  0  0  0  0  0
  1  2  1  0
  2  3  2  0
  3  4  1  0
  4  5  2  0
  5  6  1  0
  6  7  1  0
  7  8  2  0
  7  9  1  0
  9 10  1  0
 10 11  1  0
 11 12  1  0
 12 13  1  0
 13 14  1  0
  6 15  1  0
 15 16  1  0
 16 17  2  0
 16 18  1  0
 18 19  1  0
 19 20  1  0
 20 21  2  0
 20 22  1  0
 22 23  1  0
 23 24  1  0
 24 25  2  0
 25 26  1  0
 25 27  1  0
 27 28  1  0
 15 29  1  0
 29 30  2  0
 30 31  1  0
 31 32  2  0
 32 33  1  0
 33 34  2  0
  5 35  1  0
 35 36  2  0
 36  2  1  0
 14 10  1  0
 28 23  2  0
 34 29  1  0
  1 37  1  0
  1 38  1  0
  1 39  1  0
  3 40  1  0
  4 41  1  0
  6 42  1  0
  9 43  1  0
 10 44  1  0
 11 45  1  0
 11 46  1  0
 12 47  1  0
 12 48  1  0
 13 49  1  0
 13 50  1  0
 14 51  1  0
 14 52  1  0
 18 53  1  0
 18 54  1  0
 19 55  1  0
 19 56  1  0
 22 57  1  0
 24 58  1  0
 26 59  1  0
 26 60  1  0
 26 61  1  0
 30 62  1  0
 31 63  1  0
 32 64  1  0
 33 65  1  0
 34 66  1  0
 35 67  1  0
 36 68  1  0
M  END
$$$$
