
     RDKit          3D

 51 53  0  0  0  0  0  0  0  0999 V2000
    0.7946   -2.4551    2.1908 N   0  0  0  0  0  0  0  0  0  0  0  0
    1.4182   -1.5227    1.8895 C   0  0  0  0  0  0  0  0  0  0  0  0
    2.2176   -0.4093    1.5093 C   0  0  0  0  0  0  0  0  0  0  0  0
    2.1384    0.2599    0.3436 C   0  0  0  0  0  0  0  0  0  0  0  0
    1.2611   -0.0834   -0.7237 C   0  0  0  0  0  0  0  0  0  0  0  0
    1.0325    0.6107   -1.9082 C   0  0  0  0  0  0  0  0  0  0  0  0
    0.0719   -0.1073   -2.6601 C   0  0  0  0  0  0  0  0  0  0  0  0
   -0.2423   -1.2160   -1.9099 C   0  0  0  0  0  0  0  0  0  0  0  0
   -1.1761   -2.3508   -2.1045 C   0  0  0  0  0  0  0  0  0  0  0  0
   -2.4076   -2.0568   -1.4184 N   0  0  0  0  0  0  0  0  0  0  0  0
   -3.4411   -1.3851   -2.0216 C   0  0  0  0  0  0  0  0  0  0  0  0
   -3.5121   -1.0726   -3.2034 O   0  0  0  0  0  0  0  0  0  0  0  0
   -4.5911   -1.0034   -1.0636 C   0  0  0  0  0  0  0  0  0  0  0  0
   -4.5022   -1.2985    0.1186 O   0  0  0  0  0  0  0  0  0  0  0  0
   -5.6077   -0.3446   -1.7230 N   0  0  0  0  0  0  0  0  0  0  0  0
   -6.8032    0.1616   -1.1833 C   0  0  0  0  0  0  0  0  0  0  0  0
   -7.6851    0.7973   -2.0658 C   0  0  0  0  0  0  0  0  0  0  0  0
   -8.8900    1.3256   -1.5976 C   0  0  0  0  0  0  0  0  0  0  0  0
   -9.9628    2.1016   -2.6985 Cl  0  0  0  0  0  0  0  0  0  0  0  0
   -9.2320    1.2314   -0.2536 C   0  0  0  0  0  0  0  0  0  0  0  0
   -8.3541    0.6016    0.6228 C   0  0  0  0  0  0  0  0  0  0  0  0
   -8.7655    0.4836    2.2913 Cl  0  0  0  0  0  0  0  0  0  0  0  0
   -7.1455    0.0665    0.1675 C   0  0  0  0  0  0  0  0  0  0  0  0
    0.4726   -1.2086   -0.7534 O   0  0  0  0  0  0  0  0  0  0  0  0
    3.1784    0.1035    2.5219 C   0  0  0  0  0  0  0  0  0  0  0  0
    2.8359    0.3325    3.6752 O   0  0  0  0  0  0  0  0  0  0  0  0
    4.4697    0.2597    2.0686 N   0  0  0  0  0  0  0  0  0  0  0  0
    5.5221    0.6268    2.9901 C   0  0  0  0  0  0  0  0  0  0  0  0
    6.8074    0.8709    2.2615 C   0  0  0  0  0  0  0  0  0  0  0  0
    7.7485   -0.1464    2.0733 C   0  0  0  0  0  0  0  0  0  0  0  0
    8.9174    0.1169    1.3636 C   0  0  0  0  0  0  0  0  0  0  0  0
    9.1024    1.3914    0.8538 C   0  0  0  0  0  0  0  0  0  0  0  0
    8.2108    2.3951    1.0029 N   0  0  0  0  0  0  0  0  0  0  0  0
    7.0885    2.1143    1.7040 C   0  0  0  0  0  0  0  0  0  0  0  0
    2.7601    1.1388    0.1867 H   0  0  0  0  0  0  0  0  0  0  0  0
    1.5020    1.5437   -2.1921 H   0  0  0  0  0  0  0  0  0  0  0  0
   -0.3490    0.1533   -3.6228 H   0  0  0  0  0  0  0  0  0  0  0  0
   -0.7659   -3.2712   -1.6766 H   0  0  0  0  0  0  0  0  0  0  0  0
   -1.3700   -2.5164   -3.1695 H   0  0  0  0  0  0  0  0  0  0  0  0
   -2.4351   -2.1311   -0.4036 H   0  0  0  0  0  0  0  0  0  0  0  0
   -5.4405   -0.2187   -2.7208 H   0  0  0  0  0  0  0  0  0  0  0  0
   -7.4433    0.8847   -3.1226 H   0  0  0  0  0  0  0  0  0  0  0  0
  -10.1701    1.6442    0.1079 H   0  0  0  0  0  0  0  0  0  0  0  0
   -6.4915   -0.4193    0.8859 H   0  0  0  0  0  0  0  0  0  0  0  0
    4.7398   -0.1343    1.1749 H   0  0  0  0  0  0  0  0  0  0  0  0
    5.6368   -0.1827    3.7200 H   0  0  0  0  0  0  0  0  0  0  0  0
    5.2152    1.5181    3.5502 H   0  0  0  0  0  0  0  0  0  0  0  0
    7.5803   -1.1407    2.4810 H   0  0  0  0  0  0  0  0  0  0  0  0
    9.6673   -0.6530    1.2126 H   0  0  0  0  0  0  0  0  0  0  0  0
    9.9984    1.6469    0.2943 H   0  0  0  0  0  0  0  0  0  0  0  0
    6.3958    2.9474    1.8027 H   0  0  0  0  0  0  0  0  0  0  0  0
  1  2  3  0
  2  3  1  0
  3  4  2  3
  4  5  1  0
  5  6  2  0
  6  7  1  0
  7  8  2  0
  8  9  1  0
  9 10  1  0
 10 11  1  0
 11 12  2  0
 11 13  1  0
 13 14  2  0
 13 15  1  0
 15 16  1  0
 16 17  2  0
 17 18  1  0
 18 19  1  0
 18 20  2  0
 20 21  1  0
 21 22  1  0
 21 23  2  0
  8 24  1  0
  3 25  1  0
 25 26  2  0
 25 27  1  0
 27 28  1  0
 28 29  1  0
 29 30  2  0
 30 31  1  0
 31 32  2  0
 32 33  1  0
 33 34  2  0
 24  5  1  0
 34 29  1  0
 23 16  1  0
  4 35  1  0
  6 36  1  0
  7 37  1  0
  9 38  1  0
  9 39  1  0
 10 40  1  0
 15 41  1  0
 17 42  1  0
 20 43  1  0
 23 44  1  0
 27 45  1  0
 28 46  1  0
 28 47  1  0
 30 48  1  0
 31 49  1  0
 32 50  1  0
 34 51  1  0
M  END
$$$$
