
     RDKit          3D

 42 41  0  0  0  0  0  0  0  0999 V2000
   -5.1587   -1.7066    1.4609 C   0  0  0  0  0  0  0  0  0  0  0  0
   -3.8057   -1.2978    0.9396 C   0  0  0  0  0  0  0  0  0  0  0  0
   -2.6962   -2.2547    1.2800 C   0  0  0  0  0  0  0  0  0  0  0  0
   -3.6544   -0.1547    0.2426 C   0  0  0  0  0  0  0  0  0  0  0  0
   -2.3901    0.3813   -0.3739 C   0  0  0  0  0  0  0  0  0  0  0  0
   -1.7916    1.5115    0.4694 C   0  0  0  0  0  0  0  0  0  0  0  0
   -0.4971    2.0332   -0.1181 C   0  0  0  0  0  0  0  0  0  0  0  0
   -0.6575    3.1387   -1.1297 C   0  0  0  0  0  0  0  0  0  0  0  0
    0.7291    1.5775    0.2084 C   0  0  0  0  0  0  0  0  0  0  0  0
    1.0761    0.4733    1.1743 C   0  0  0  0  0  0  0  0  0  0  0  0
    1.6827   -0.7593    0.4841 C   0  0  0  0  0  0  0  0  0  0  0  0
    3.0348   -0.5266   -0.1738 C   0  0  0  0  0  0  0  0  0  0  0  0
    4.1733   -0.2721    0.7766 C   0  0  0  0  0  0  0  0  0  0  0  0
    3.1499   -0.5916   -1.5165 C   0  0  0  0  0  0  0  0  0  0  0  0
    4.3659   -0.4100   -2.3624 C   0  0  0  0  0  0  0  0  0  0  0  0
    4.4804   -1.5531   -3.1964 O   0  0  0  0  0  0  0  0  0  0  0  0
   -5.9426   -0.9918    1.1892 H   0  0  0  0  0  0  0  0  0  0  0  0
   -5.4425   -2.6820    1.0521 H   0  0  0  0  0  0  0  0  0  0  0  0
   -5.1388   -1.7789    2.5532 H   0  0  0  0  0  0  0  0  0  0  0  0
   -2.8479   -3.2067    0.7611 H   0  0  0  0  0  0  0  0  0  0  0  0
   -2.6846   -2.4480    2.3582 H   0  0  0  0  0  0  0  0  0  0  0  0
   -1.7041   -1.8812    1.0163 H   0  0  0  0  0  0  0  0  0  0  0  0
   -4.5308    0.4710    0.0729 H   0  0  0  0  0  0  0  0  0  0  0  0
   -1.6531   -0.4136   -0.5278 H   0  0  0  0  0  0  0  0  0  0  0  0
   -2.6353    0.7519   -1.3774 H   0  0  0  0  0  0  0  0  0  0  0  0
   -2.5098    2.3385    0.5511 H   0  0  0  0  0  0  0  0  0  0  0  0
   -1.6389    1.1718    1.5002 H   0  0  0  0  0  0  0  0  0  0  0  0
   -1.1471    4.0042   -0.6713 H   0  0  0  0  0  0  0  0  0  0  0  0
    0.3036    3.4765   -1.5318 H   0  0  0  0  0  0  0  0  0  0  0  0
   -1.2673    2.7993   -1.9730 H   0  0  0  0  0  0  0  0  0  0  0  0
    1.5945    2.0335   -0.2727 H   0  0  0  0  0  0  0  0  0  0  0  0
    1.7703    0.8733    1.9226 H   0  0  0  0  0  0  0  0  0  0  0  0
    0.1963    0.1416    1.7337 H   0  0  0  0  0  0  0  0  0  0  0  0
    1.7994   -1.5565    1.2300 H   0  0  0  0  0  0  0  0  0  0  0  0
    0.9604   -1.1470   -0.2467 H   0  0  0  0  0  0  0  0  0  0  0  0
    4.0494    0.6969    1.2700 H   0  0  0  0  0  0  0  0  0  0  0  0
    5.1517   -0.2691    0.2923 H   0  0  0  0  0  0  0  0  0  0  0  0
    4.2030   -1.0506    1.5463 H   0  0  0  0  0  0  0  0  0  0  0  0
    2.2521   -0.7964   -2.0998 H   0  0  0  0  0  0  0  0  0  0  0  0
    4.2451    0.4726   -2.9982 H   0  0  0  0  0  0  0  0  0  0  0  0
    5.2896   -0.3061   -1.7914 H   0  0  0  0  0  0  0  0  0  0  0  0
    5.2865   -1.4323   -3.7245 H   0  0  0  0  0  0  0  0  0  0  0  0
  1  2  1  0
  2  3  1  0
  2  4  2  3
  4  5  1  0
  5  6  1  0
  6  7  1  0
  7  8  1  0
  7  9  2  3
  9 10  1  0
 10 11  1  0
 11 12  1  0
 12 13  1  0
 12 14  2  3
 14 15  1  0
 15 16  1  0
  1 17  1  0
  1 18  1  0
  1 19  1  0
  3 20  1  0
  3 21  1  0
  3 22  1  0
  4 23  1  0
  5 24  1  0
  5 25  1  0
  6 26  1  0
  6 27  1  0
  8 28  1  0
  8 29  1  0
  8 30  1  0
  9 31  1  0
 10 32  1  0
 10 33  1  0
 11 34  1  0
 11 35  1  0
 13 36  1  0
 13 37  1  0
 13 38  1  0
 14 39  1  0
 15 40  1  0
 15 41  1  0
 16 42  1  0
M  END
$$$$
