
     RDKit          3D

 42 44  0  0  0  0  0  0  0  0999 V2000
   -2.8917    0.2349   -2.9938 C   0  0  0  0  0  0  0  0  0  0  0  0
   -3.8299   -0.3636   -1.9654 C   0  0  0  0  0  0  0  0  0  0  0  0
   -4.6803   -1.1719   -2.3502 O   0  0  0  0  0  0  0  0  0  0  0  0
   -3.7041    0.0967   -0.6360 N   0  0  0  0  0  0  0  0  0  0  0  0
   -2.4753    0.4661   -0.0763 C   0  0  0  0  0  0  0  0  0  0  0  0
   -1.2614    0.0181   -0.4334 C   0  0  0  0  0  0  0  0  0  0  0  0
   -0.0435    0.4565    0.2161 C   0  0  0  0  0  0  0  0  0  0  0  0
    1.1693   -0.0072   -0.1239 C   0  0  0  0  0  0  0  0  0  0  0  0
    2.3867    0.4348    0.5282 C   0  0  0  0  0  0  0  0  0  0  0  0
    3.6351    0.0283    0.2550 C   0  0  0  0  0  0  0  0  0  0  0  0
    4.1366   -1.1271   -0.9426 S   0  0  0  0  0  0  0  0  0  0  0  0
    5.8396   -0.9343   -0.4933 C   0  0  0  0  0  0  0  0  0  0  0  0
    6.9188   -1.5934   -1.0646 C   0  0  0  0  0  0  0  0  0  0  0  0
    8.2060   -1.3217   -0.5871 C   0  0  0  0  0  0  0  0  0  0  0  0
    8.4044   -0.3991    0.4514 C   0  0  0  0  0  0  0  0  0  0  0  0
    7.3174    0.2620    1.0239 C   0  0  0  0  0  0  0  0  0  0  0  0
    6.0484   -0.0215    0.5360 C   0  0  0  0  0  0  0  0  0  0  0  0
    4.7985    0.5773    1.0177 C   0  0  0  0  0  0  0  0  0  0  0  0
    4.7430    1.4029    1.9134 O   0  0  0  0  0  0  0  0  0  0  0  0
   -4.9093    0.1749    0.1763 C   0  0  0  0  0  0  0  0  0  0  0  0
   -4.8405    0.1513    1.5821 C   0  0  0  0  0  0  0  0  0  0  0  0
   -5.9931    0.2477    2.3706 C   0  0  0  0  0  0  0  0  0  0  0  0
   -7.2410    0.3710    1.7705 C   0  0  0  0  0  0  0  0  0  0  0  0
   -7.3364    0.3935    0.3835 C   0  0  0  0  0  0  0  0  0  0  0  0
   -6.1831    0.2959   -0.4039 C   0  0  0  0  0  0  0  0  0  0  0  0
   -2.4716    1.1896   -2.6689 H   0  0  0  0  0  0  0  0  0  0  0  0
   -2.0972   -0.4747   -3.2350 H   0  0  0  0  0  0  0  0  0  0  0  0
   -3.4652    0.4370   -3.9047 H   0  0  0  0  0  0  0  0  0  0  0  0
   -2.5495    1.1543    0.7636 H   0  0  0  0  0  0  0  0  0  0  0  0
   -1.1495   -0.7345   -1.2084 H   0  0  0  0  0  0  0  0  0  0  0  0
   -0.1405    1.1948    1.0106 H   0  0  0  0  0  0  0  0  0  0  0  0
    1.2603   -0.7454   -0.9180 H   0  0  0  0  0  0  0  0  0  0  0  0
    2.2583    1.1736    1.3206 H   0  0  0  0  0  0  0  0  0  0  0  0
    6.7743   -2.3092   -1.8688 H   0  0  0  0  0  0  0  0  0  0  0  0
    9.0624   -1.8308   -1.0251 H   0  0  0  0  0  0  0  0  0  0  0  0
    9.4115   -0.1989    0.8115 H   0  0  0  0  0  0  0  0  0  0  0  0
    7.4563    0.9785    1.8285 H   0  0  0  0  0  0  0  0  0  0  0  0
   -3.8941    0.0159    2.0982 H   0  0  0  0  0  0  0  0  0  0  0  0
   -5.9126    0.2147    3.4542 H   0  0  0  0  0  0  0  0  0  0  0  0
   -8.1375    0.4419    2.3806 H   0  0  0  0  0  0  0  0  0  0  0  0
   -8.3085    0.4855   -0.0945 H   0  0  0  0  0  0  0  0  0  0  0  0
   -6.3112    0.3356   -1.4826 H   0  0  0  0  0  0  0  0  0  0  0  0
  1  2  1  0
  2  3  2  0
  2  4  1  0
  4  5  1  0
  5  6  2  3
  6  7  1  0
  7  8  2  3
  8  9  1  0
  9 10  2  3
 10 11  1  0
 11 12  1  0
 12 13  2  0
 13 14  1  0
 14 15  2  0
 15 16  1  0
 16 17  2  0
 17 18  1  0
 18 19  2  0
  4 20  1  0
 20 21  2  0
 21 22  1  0
 22 23  2  0
 23 24  1  0
 24 25  2  0
 18 10  1  0
 25 20  1  0
 17 12  1  0
  1 26  1  0
  1 27  1  0
  1 28  1  0
  5 29  1  0
  6 30  1  0
  7 31  1  0
  8 32  1  0
  9 33  1  0
 13 34  1  0
 14 35  1  0
 15 36  1  0
 16 37  1  0
 21 38  1  0
 22 39  1  0
 23 40  1  0
 24 41  1  0
 25 42  1  0
M  END
$$$$
