
     RDKit          3D

 53 52  0  0  0  0  0  0  0  0999 V2000
   -2.2498   -0.2926    1.1788 C   0  0  0  0  0  0  0  0  0  0  0  0
   -3.0442    0.8992    1.7130 C   0  0  0  0  0  0  0  0  0  0  0  0
   -4.5300    0.7439    1.3696 C   0  0  0  0  0  0  0  0  0  0  0  0
   -2.4709    2.2612    1.2702 C   0  0  0  0  0  0  0  0  0  0  0  0
   -2.5492    2.5942   -0.2189 C   0  0  0  0  0  0  0  0  0  0  0  0
   -1.5843    1.8634   -1.0157 N   0  0  0  0  0  0  0  0  0  0  0  0
   -1.7660    1.7318   -2.3786 C   0  0  0  0  0  0  0  0  0  0  0  0
   -2.7719    2.1168   -2.9643 O   0  0  0  0  0  0  0  0  0  0  0  0
   -0.5834    1.1239   -3.1029 C   0  0  0  0  0  0  0  0  0  0  0  0
   -1.0126    0.0898   -4.1336 C   0  0  0  0  0  0  0  0  0  0  0  0
   -1.5309   -1.5136   -3.4120 S   0  0  0  0  0  0  0  0  0  0  0  0
    0.0689   -2.1123   -2.7641 C   0  0  0  0  0  0  0  0  0  0  0  0
    0.0804   -2.0299   -1.2451 C   0  0  0  0  0  0  0  0  0  0  0  0
    1.4433   -2.3729   -0.6850 C   0  0  0  0  0  0  0  0  0  0  0  0
    2.4090   -2.6681   -1.3784 O   0  0  0  0  0  0  0  0  0  0  0  0
    1.4872   -2.2821    0.6908 N   0  0  0  0  0  0  0  0  0  0  0  0
    2.6951   -2.5478    1.4411 C   0  0  0  0  0  0  0  0  0  0  0  0
    3.7363   -1.4289    1.3520 C   0  0  0  0  0  0  0  0  0  0  0  0
    3.4123   -0.1633    2.1706 C   0  0  0  0  0  0  0  0  0  0  0  0
    4.6342    0.7640    2.1748 C   0  0  0  0  0  0  0  0  0  0  0  0
    2.1973    0.6031    1.6425 C   0  0  0  0  0  0  0  0  0  0  0  0
   -2.4016   -0.4353    0.1051 H   0  0  0  0  0  0  0  0  0  0  0  0
   -2.5676   -1.2146    1.6753 H   0  0  0  0  0  0  0  0  0  0  0  0
   -1.1770   -0.1652    1.3673 H   0  0  0  0  0  0  0  0  0  0  0  0
   -2.9606    0.8751    2.8092 H   0  0  0  0  0  0  0  0  0  0  0  0
   -5.1069    1.6051    1.7311 H   0  0  0  0  0  0  0  0  0  0  0  0
   -4.6935    0.6462    0.2892 H   0  0  0  0  0  0  0  0  0  0  0  0
   -4.9397   -0.1534    1.8478 H   0  0  0  0  0  0  0  0  0  0  0  0
   -1.4296    2.3369    1.6093 H   0  0  0  0  0  0  0  0  0  0  0  0
   -3.0257    3.0403    1.8103 H   0  0  0  0  0  0  0  0  0  0  0  0
   -3.5585    2.4439   -0.6194 H   0  0  0  0  0  0  0  0  0  0  0  0
   -2.3090    3.6526   -0.3634 H   0  0  0  0  0  0  0  0  0  0  0  0
   -0.6367    1.8143   -0.6667 H   0  0  0  0  0  0  0  0  0  0  0  0
   -0.0884    1.9538   -3.6211 H   0  0  0  0  0  0  0  0  0  0  0  0
    0.1514    0.7209   -2.4007 H   0  0  0  0  0  0  0  0  0  0  0  0
   -1.8522    0.4619   -4.7286 H   0  0  0  0  0  0  0  0  0  0  0  0
   -0.1929   -0.1080   -4.8322 H   0  0  0  0  0  0  0  0  0  0  0  0
    0.8953   -1.5497   -3.2107 H   0  0  0  0  0  0  0  0  0  0  0  0
    0.1875   -3.1554   -3.0778 H   0  0  0  0  0  0  0  0  0  0  0  0
   -0.1638   -1.0179   -0.9061 H   0  0  0  0  0  0  0  0  0  0  0  0
   -0.6512   -2.7254   -0.8185 H   0  0  0  0  0  0  0  0  0  0  0  0
    0.6213   -2.1627    1.2015 H   0  0  0  0  0  0  0  0  0  0  0  0
    3.1267   -3.4770    1.0524 H   0  0  0  0  0  0  0  0  0  0  0  0
    2.4060   -2.7252    2.4822 H   0  0  0  0  0  0  0  0  0  0  0  0
    3.9170   -1.1568    0.3046 H   0  0  0  0  0  0  0  0  0  0  0  0
    4.6797   -1.8449    1.7320 H   0  0  0  0  0  0  0  0  0  0  0  0
    3.2125   -0.4564    3.2091 H   0  0  0  0  0  0  0  0  0  0  0  0
    4.8787    1.1032    1.1620 H   0  0  0  0  0  0  0  0  0  0  0  0
    4.4483    1.6488    2.7945 H   0  0  0  0  0  0  0  0  0  0  0  0
    5.5127    0.2521    2.5837 H   0  0  0  0  0  0  0  0  0  0  0  0
    1.2698    0.0616    1.8494 H   0  0  0  0  0  0  0  0  0  0  0  0
    2.2684    0.7707    0.5613 H   0  0  0  0  0  0  0  0  0  0  0  0
    2.1089    1.5805    2.1310 H   0  0  0  0  0  0  0  0  0  0  0  0
  1  2  1  0
  2  3  1  0
  2  4  1  0
  4  5  1  0
  5  6  1  0
  6  7  1  0
  7  8  2  0
  7  9  1  0
  9 10  1  0
 10 11  1  0
 11 12  1  0
 12 13  1  0
 13 14  1  0
 14 15  2  0
 14 16  1  0
 16 17  1  0
 17 18  1  0
 18 19  1  0
 19 20  1  0
 19 21  1  0
  1 22  1  0
  1 23  1  0
  1 24  1  0
  2 25  1  0
  3 26  1  0
  3 27  1  0
  3 28  1  0
  4 29  1  0
  4 30  1  0
  5 31  1  0
  5 32  1  0
  6 33  1  0
  9 34  1  0
  9 35  1  0
 10 36  1  0
 10 37  1  0
 12 38  1  0
 12 39  1  0
 13 40  1  0
 13 41  1  0
 16 42  1  0
 17 43  1  0
 17 44  1  0
 18 45  1  0
 18 46  1  0
 19 47  1  0
 20 48  1  0
 20 49  1  0
 20 50  1  0
 21 51  1  0
 21 52  1  0
 21 53  1  0
M  END
$$$$
