
     RDKit          3D

 43 45  0  0  0  0  0  0  0  0999 V2000
   -7.9537    1.0251    0.2965 C   0  0  0  0  0  0  0  0  0  0  0  0
   -6.5458    0.8558   -0.0190 N   0  0  0  0  0  0  0  0  0  0  0  0
   -6.1362    1.2840   -1.3497 C   0  0  0  0  0  0  0  0  0  0  0  0
   -5.6660    0.6268    1.0387 C   0  0  0  0  0  0  0  0  0  0  0  0
   -6.0056    0.6292    2.2196 O   0  0  0  0  0  0  0  0  0  0  0  0
   -4.2468    0.3356    0.7389 C   0  0  0  0  0  0  0  0  0  0  0  0
   -3.9006   -0.7295   -0.0955 C   0  0  0  0  0  0  0  0  0  0  0  0
   -2.5522   -1.0062   -0.3404 C   0  0  0  0  0  0  0  0  0  0  0  0
   -1.5408   -0.2315    0.2491 C   0  0  0  0  0  0  0  0  0  0  0  0
   -0.2084   -0.5839   -0.0552 N   0  0  0  0  0  0  0  0  0  0  0  0
    0.9569    0.0575    0.3476 C   0  0  0  0  0  0  0  0  0  0  0  0
    0.9811    1.0847    1.0189 O   0  0  0  0  0  0  0  0  0  0  0  0
    2.1794   -0.5911   -0.1132 C   0  0  0  0  0  0  0  0  0  0  0  0
    2.4478   -1.7676   -0.7919 C   0  0  0  0  0  0  0  0  0  0  0  0
    3.8564   -1.8445   -0.9450 C   0  0  0  0  0  0  0  0  0  0  0  0
    4.3841   -0.7158   -0.3526 C   0  0  0  0  0  0  0  0  0  0  0  0
    5.7347   -0.1909   -0.1618 C   0  0  0  0  0  0  0  0  0  0  0  0
    5.9550    1.0202    0.5153 C   0  0  0  0  0  0  0  0  0  0  0  0
    7.2489    1.5205    0.6967 C   0  0  0  0  0  0  0  0  0  0  0  0
    8.3389    0.8121    0.2011 C   0  0  0  0  0  0  0  0  0  0  0  0
    9.9314    1.4231    0.4216 Cl  0  0  0  0  0  0  0  0  0  0  0  0
    8.1456   -0.3905   -0.4730 C   0  0  0  0  0  0  0  0  0  0  0  0
    6.8498   -0.8884   -0.6529 C   0  0  0  0  0  0  0  0  0  0  0  0
    3.3665    0.0407    0.1510 O   0  0  0  0  0  0  0  0  0  0  0  0
   -1.9025    0.8156    1.1014 C   0  0  0  0  0  0  0  0  0  0  0  0
   -3.2509    1.0942    1.3545 C   0  0  0  0  0  0  0  0  0  0  0  0
   -8.5568    0.6077   -0.5151 H   0  0  0  0  0  0  0  0  0  0  0  0
   -8.2178    0.5162    1.2279 H   0  0  0  0  0  0  0  0  0  0  0  0
   -8.1647    2.0934    0.4019 H   0  0  0  0  0  0  0  0  0  0  0  0
   -6.4957    2.3050   -1.5132 H   0  0  0  0  0  0  0  0  0  0  0  0
   -6.5936    0.6175   -2.0864 H   0  0  0  0  0  0  0  0  0  0  0  0
   -5.0541    1.2863   -1.4843 H   0  0  0  0  0  0  0  0  0  0  0  0
   -4.6739   -1.3479   -0.5439 H   0  0  0  0  0  0  0  0  0  0  0  0
   -2.3073   -1.8390   -0.9947 H   0  0  0  0  0  0  0  0  0  0  0  0
   -0.0985   -1.3845   -0.6589 H   0  0  0  0  0  0  0  0  0  0  0  0
    1.7312   -2.4988   -1.1361 H   0  0  0  0  0  0  0  0  0  0  0  0
    4.4147   -2.6343   -1.4275 H   0  0  0  0  0  0  0  0  0  0  0  0
    5.1154    1.5899    0.9118 H   0  0  0  0  0  0  0  0  0  0  0  0
    7.3923    2.4595    1.2245 H   0  0  0  0  0  0  0  0  0  0  0  0
    8.9952   -0.9461   -0.8608 H   0  0  0  0  0  0  0  0  0  0  0  0
    6.7277   -1.8296   -1.1828 H   0  0  0  0  0  0  0  0  0  0  0  0
   -1.1622    1.4322    1.6021 H   0  0  0  0  0  0  0  0  0  0  0  0
   -3.5190    1.8995    2.0350 H   0  0  0  0  0  0  0  0  0  0  0  0
  1  2  1  0
  2  3  1  0
  2  4  1  0
  4  5  2  0
  4  6  1  0
  6  7  2  0
  7  8  1  0
  8  9  2  0
  9 10  1  0
 10 11  1  0
 11 12  2  0
 11 13  1  0
 13 14  2  0
 14 15  1  0
 15 16  2  0
 16 17  1  0
 17 18  2  0
 18 19  1  0
 19 20  2  0
 20 21  1  0
 20 22  1  0
 22 23  2  0
 16 24  1  0
  9 25  1  0
 25 26  2  0
 26  6  1  0
 24 13  1  0
 23 17  1  0
  1 27  1  0
  1 28  1  0
  1 29  1  0
  3 30  1  0
  3 31  1  0
  3 32  1  0
  7 33  1  0
  8 34  1  0
 10 35  1  0
 14 36  1  0
 15 37  1  0
 18 38  1  0
 19 39  1  0
 22 40  1  0
 23 41  1  0
 25 42  1  0
 26 43  1  0
M  END
$$$$
