
     RDKit          3D

 61 67  0  0  0  0  0  0  0  0999 V2000
    3.7406   -1.3710    2.0382 O   0  0  0  0  0  0  0  0  0  0  0  0
    3.1962   -0.6695    1.1892 C   0  0  0  0  0  0  0  0  0  0  0  0
    4.0032    0.4058    0.5707 C   0  0  0  0  0  0  0  0  0  0  0  0
    3.5436    1.7410    0.5904 C   0  0  0  0  0  0  0  0  0  0  0  0
    4.3195    2.7602    0.0311 C   0  0  0  0  0  0  0  0  0  0  0  0
    5.5368    2.4099   -0.5151 C   0  0  0  0  0  0  0  0  0  0  0  0
    5.9910    1.1100   -0.5127 C   0  0  0  0  0  0  0  0  0  0  0  0
    5.2529    0.0814    0.0304 C   0  0  0  0  0  0  0  0  0  0  0  0
    7.2154    0.9888   -1.0920 O   0  0  0  0  0  0  0  0  0  0  0  0
    7.4859    2.3601   -1.4497 C   0  0  0  0  0  0  0  0  0  0  0  0
    6.4192    3.2658   -1.0965 O   0  0  0  0  0  0  0  0  0  0  0  0
    1.8547   -0.8129    0.8088 N   0  0  0  0  0  0  0  0  0  0  0  0
    1.4060   -0.5050   -0.5495 C   0  0  0  0  0  0  0  0  0  0  0  0
   -0.0859   -0.1852   -0.5829 C   0  0  0  0  0  0  0  0  0  0  0  0
   -0.9424   -1.3061    0.0583 C   0  0  0  0  0  0  0  0  0  0  0  0
   -0.3911   -1.5851    1.4802 C   0  0  0  0  0  0  0  0  0  0  0  0
    1.1079   -1.8746    1.4726 C   0  0  0  0  0  0  0  0  0  0  0  0
   -0.6956   -2.4737   -0.7706 O   0  0  0  0  0  0  0  0  0  0  0  0
   -1.5737   -3.5127   -0.6713 C   0  0  0  0  0  0  0  0  0  0  0  0
   -1.1625   -4.7184   -1.2422 C   0  0  0  0  0  0  0  0  0  0  0  0
   -1.9868   -5.8425   -1.1686 C   0  0  0  0  0  0  0  0  0  0  0  0
   -3.2182   -5.7517   -0.5272 C   0  0  0  0  0  0  0  0  0  0  0  0
   -4.0035   -6.8337   -0.4552 F   0  0  0  0  0  0  0  0  0  0  0  0
   -3.6463   -4.5566    0.0354 C   0  0  0  0  0  0  0  0  0  0  0  0
   -2.8191   -3.4341   -0.0518 C   0  0  0  0  0  0  0  0  0  0  0  0
   -3.2479   -2.1447    0.5123 C   0  0  0  0  0  0  0  0  0  0  0  0
   -4.1838   -2.1122    1.3061 O   0  0  0  0  0  0  0  0  0  0  0  0
   -2.4541   -0.9287    0.0617 C   0  0  0  0  0  0  0  0  0  0  0  0
   -2.8427    0.3262    0.8316 C   0  0  0  0  0  0  0  0  0  0  0  0
   -3.1005    1.2519   -0.3058 C   0  0  0  0  0  0  0  0  0  0  0  0
   -3.3116    2.7043   -0.1007 C   0  0  0  0  0  0  0  0  0  0  0  0
   -3.4084    3.5403   -1.2202 C   0  0  0  0  0  0  0  0  0  0  0  0
   -3.5986    4.9138   -1.0582 C   0  0  0  0  0  0  0  0  0  0  0  0
   -3.6953    5.4577    0.2212 C   0  0  0  0  0  0  0  0  0  0  0  0
   -3.6049    4.6300    1.3396 C   0  0  0  0  0  0  0  0  0  0  0  0
   -3.4141    3.2547    1.1821 C   0  0  0  0  0  0  0  0  0  0  0  0
   -3.1188    0.6926   -1.4719 N   0  0  0  0  0  0  0  0  0  0  0  0
   -2.9007   -0.6894   -1.2904 O   0  0  0  0  0  0  0  0  0  0  0  0
    2.5876    1.9811    1.0494 H   0  0  0  0  0  0  0  0  0  0  0  0
    3.9842    3.7913    0.0330 H   0  0  0  0  0  0  0  0  0  0  0  0
    5.6278   -0.9360    0.0421 H   0  0  0  0  0  0  0  0  0  0  0  0
    8.4020    2.6815   -0.9407 H   0  0  0  0  0  0  0  0  0  0  0  0
    7.6473    2.4145   -2.5324 H   0  0  0  0  0  0  0  0  0  0  0  0
    1.6387   -1.3751   -1.1758 H   0  0  0  0  0  0  0  0  0  0  0  0
    1.9605    0.3332   -0.9764 H   0  0  0  0  0  0  0  0  0  0  0  0
   -0.2456    0.7643   -0.0588 H   0  0  0  0  0  0  0  0  0  0  0  0
   -0.3696   -0.0396   -1.6319 H   0  0  0  0  0  0  0  0  0  0  0  0
   -0.8952   -2.4430    1.9390 H   0  0  0  0  0  0  0  0  0  0  0  0
   -0.5696   -0.7233    2.1327 H   0  0  0  0  0  0  0  0  0  0  0  0
    1.4524   -1.9822    2.5076 H   0  0  0  0  0  0  0  0  0  0  0  0
    1.3302   -2.8178    0.9590 H   0  0  0  0  0  0  0  0  0  0  0  0
   -0.1973   -4.7857   -1.7387 H   0  0  0  0  0  0  0  0  0  0  0  0
   -1.6767   -6.7872   -1.6052 H   0  0  0  0  0  0  0  0  0  0  0  0
   -4.6156   -4.5073    0.5229 H   0  0  0  0  0  0  0  0  0  0  0  0
   -2.0546    0.7086    1.4824 H   0  0  0  0  0  0  0  0  0  0  0  0
   -3.7638    0.2292    1.4134 H   0  0  0  0  0  0  0  0  0  0  0  0
   -3.3384    3.1288   -2.2254 H   0  0  0  0  0  0  0  0  0  0  0  0
   -3.6747    5.5572   -1.9315 H   0  0  0  0  0  0  0  0  0  0  0  0
   -3.8469    6.5272    0.3464 H   0  0  0  0  0  0  0  0  0  0  0  0
   -3.6887    5.0569    2.3364 H   0  0  0  0  0  0  0  0  0  0  0  0
   -3.3603    2.6368    2.0734 H   0  0  0  0  0  0  0  0  0  0  0  0
  1  2  2  0
  2  3  1  0
  3  4  2  0
  4  5  1  0
  5  6  2  0
  6  7  1  0
  7  8  2  0
  7  9  1  0
  9 10  1  0
 10 11  1  0
  2 12  1  0
 12 13  1  0
 13 14  1  0
 14 15  1  0
 15 16  1  0
 16 17  1  0
 15 18  1  0
 18 19  1  0
 19 20  2  0
 20 21  1  0
 21 22  2  0
 22 23  1  0
 22 24  1  0
 24 25  2  0
 25 26  1  0
 26 27  2  0
 26 28  1  0
 28 29  1  0
 29 30  1  0
 30 31  1  0
 31 32  2  0
 32 33  1  0
 33 34  2  0
 34 35  1  0
 35 36  2  0
 30 37  2  0
 37 38  1  0
  8  3  1  0
 17 12  1  0
 25 19  1  0
 38 28  1  0
 11  6  1  0
 28 15  1  0
 36 31  1  0
  4 39  1  0
  5 40  1  0
  8 41  1  0
 10 42  1  0
 10 43  1  0
 13 44  1  0
 13 45  1  0
 14 46  1  0
 14 47  1  0
 16 48  1  0
 16 49  1  0
 17 50  1  0
 17 51  1  0
 20 52  1  0
 21 53  1  0
 24 54  1  0
 29 55  1  0
 29 56  1  0
 32 57  1  0
 33 58  1  0
 34 59  1  0
 35 60  1  0
 36 61  1  0
M  END
$$$$
