
     RDKit          3D

 59 64  0  0  0  0  0  0  0  0999 V2000
   -5.2198   -2.2023    1.4517 C   0  0  0  0  0  0  0  0  0  0  0  0
   -5.4868   -0.8039    1.5863 O   0  0  0  0  0  0  0  0  0  0  0  0
   -5.7799   -0.2654    0.3502 C   0  0  0  0  0  0  0  0  0  0  0  0
   -7.1383   -0.0469    0.0849 C   0  0  0  0  0  0  0  0  0  0  0  0
   -7.5347    0.4487   -1.1527 C   0  0  0  0  0  0  0  0  0  0  0  0
   -6.5716    0.7271   -2.1159 C   0  0  0  0  0  0  0  0  0  0  0  0
   -5.2113    0.5299   -1.8350 C   0  0  0  0  0  0  0  0  0  0  0  0
   -4.7685    0.0546   -0.5874 C   0  0  0  0  0  0  0  0  0  0  0  0
   -3.4115   -0.1003   -0.3012 N   0  0  0  0  0  0  0  0  0  0  0  0
   -2.9256    0.4226    1.0011 C   0  0  0  0  0  0  0  0  0  0  0  0
   -1.5652    1.1452    0.8620 C   0  0  0  0  0  0  0  0  0  0  0  0
   -0.5309    0.2613    0.2707 N   0  0  0  0  0  0  0  0  0  0  0  0
    0.7172    0.7876    0.0677 C   0  0  0  0  0  0  0  0  0  0  0  0
    1.0663    2.0202   -0.4573 C   0  0  0  0  0  0  0  0  0  0  0  0
    2.4681    2.0440   -0.6172 C   0  0  0  0  0  0  0  0  0  0  0  0
    2.9606    0.8305   -0.1711 C   0  0  0  0  0  0  0  0  0  0  0  0
    4.3045    0.2924   -0.1158 C   0  0  0  0  0  0  0  0  0  0  0  0
    5.4343    1.0153   -0.7498 C   0  0  0  0  0  0  0  0  0  0  0  0
    5.3712    1.4147   -2.0898 C   0  0  0  0  0  0  0  0  0  0  0  0
    6.4560    2.0757   -2.6673 C   0  0  0  0  0  0  0  0  0  0  0  0
    7.6012    2.3303   -1.9103 C   0  0  0  0  0  0  0  0  0  0  0  0
    7.6708    1.9170   -0.5778 C   0  0  0  0  0  0  0  0  0  0  0  0
    6.5906    1.2522    0.0024 C   0  0  0  0  0  0  0  0  0  0  0  0
    4.5535   -0.8283    0.4964 N   0  0  0  0  0  0  0  0  0  0  0  0
    3.4910   -1.5286    1.1020 C   0  0  0  0  0  0  0  0  0  0  0  0
    3.8059   -2.7067    1.7892 C   0  0  0  0  0  0  0  0  0  0  0  0
    2.8111   -3.4431    2.4337 C   0  0  0  0  0  0  0  0  0  0  0  0
    1.4871   -2.9990    2.4021 C   0  0  0  0  0  0  0  0  0  0  0  0
    1.1521   -1.8256    1.7191 C   0  0  0  0  0  0  0  0  0  0  0  0
    2.1484   -1.1017    1.0557 C   0  0  0  0  0  0  0  0  0  0  0  0
    1.9009    0.1044    0.3510 N   0  0  0  0  0  0  0  0  0  0  0  0
   -1.0401   -0.6325   -0.8088 C   0  0  0  0  0  0  0  0  0  0  0  0
   -2.4026   -0.1673   -1.3710 C   0  0  0  0  0  0  0  0  0  0  0  0
   -6.0809   -2.7300    1.0305 H   0  0  0  0  0  0  0  0  0  0  0  0
   -5.0298   -2.6054    2.4513 H   0  0  0  0  0  0  0  0  0  0  0  0
   -4.3297   -2.3946    0.8440 H   0  0  0  0  0  0  0  0  0  0  0  0
   -7.8809   -0.2810    0.8424 H   0  0  0  0  0  0  0  0  0  0  0  0
   -8.5883    0.6118   -1.3668 H   0  0  0  0  0  0  0  0  0  0  0  0
   -6.8725    1.1117   -3.0884 H   0  0  0  0  0  0  0  0  0  0  0  0
   -4.5001    0.7920   -2.6134 H   0  0  0  0  0  0  0  0  0  0  0  0
   -2.8128   -0.4193    1.6962 H   0  0  0  0  0  0  0  0  0  0  0  0
   -3.6345    1.1368    1.4388 H   0  0  0  0  0  0  0  0  0  0  0  0
   -1.2337    1.4734    1.8558 H   0  0  0  0  0  0  0  0  0  0  0  0
   -1.7018    2.0416    0.2427 H   0  0  0  0  0  0  0  0  0  0  0  0
    0.3757    2.8010   -0.7516 H   0  0  0  0  0  0  0  0  0  0  0  0
    3.0490    2.8592   -1.0296 H   0  0  0  0  0  0  0  0  0  0  0  0
    4.4934    1.1966   -2.6923 H   0  0  0  0  0  0  0  0  0  0  0  0
    6.4135    2.3843   -3.7102 H   0  0  0  0  0  0  0  0  0  0  0  0
    8.4462    2.8424   -2.3629 H   0  0  0  0  0  0  0  0  0  0  0  0
    8.5679    2.1071    0.0078 H   0  0  0  0  0  0  0  0  0  0  0  0
    6.6475    0.9206    1.0374 H   0  0  0  0  0  0  0  0  0  0  0  0
    4.8421   -3.0474    1.8204 H   0  0  0  0  0  0  0  0  0  0  0  0
    3.0726   -4.3556    2.9660 H   0  0  0  0  0  0  0  0  0  0  0  0
    0.7131   -3.5630    2.9157 H   0  0  0  0  0  0  0  0  0  0  0  0
    0.1168   -1.4947    1.7444 H   0  0  0  0  0  0  0  0  0  0  0  0
   -1.1534   -1.6385   -0.3875 H   0  0  0  0  0  0  0  0  0  0  0  0
   -0.3206   -0.7089   -1.6345 H   0  0  0  0  0  0  0  0  0  0  0  0
   -2.2839    0.8168   -1.8394 H   0  0  0  0  0  0  0  0  0  0  0  0
   -2.7192   -0.8786   -2.1412 H   0  0  0  0  0  0  0  0  0  0  0  0
  1  2  1  0
  2  3  1  0
  3  4  2  0
  4  5  1  0
  5  6  2  0
  6  7  1  0
  7  8  2  0
  8  9  1  0
  9 10  1  0
 10 11  1  0
 11 12  1  0
 12 13  1  0
 13 14  2  0
 14 15  1  0
 15 16  2  0
 16 17  1  0
 17 18  1  0
 18 19  2  0
 19 20  1  0
 20 21  2  0
 21 22  1  0
 22 23  2  0
 17 24  2  0
 24 25  1  0
 25 26  2  0
 26 27  1  0
 27 28  2  0
 28 29  1  0
 29 30  2  0
 30 31  1  0
 12 32  1  0
 32 33  1  0
  8  3  1  0
 33  9  1  0
 31 13  1  0
 31 16  1  0
 23 18  1  0
 30 25  1  0
  1 34  1  0
  1 35  1  0
  1 36  1  0
  4 37  1  0
  5 38  1  0
  6 39  1  0
  7 40  1  0
 10 41  1  0
 10 42  1  0
 11 43  1  0
 11 44  1  0
 14 45  1  0
 15 46  1  0
 19 47  1  0
 20 48  1  0
 21 49  1  0
 22 50  1  0
 23 51  1  0
 26 52  1  0
 27 53  1  0
 28 54  1  0
 29 55  1  0
 32 56  1  0
 32 57  1  0
 33 58  1  0
 33 59  1  0
M  END
$$$$
