
     RDKit          3D

 45 47  0  0  0  0  0  0  0  0999 V2000
    9.2198    1.1552    1.4190 C   0  0  0  0  0  0  0  0  0  0  0  0
    8.5511    0.6963    0.1330 C   0  0  0  0  0  0  0  0  0  0  0  0
    7.0833    0.3364    0.3623 C   0  0  0  0  0  0  0  0  0  0  0  0
    6.4152   -0.1248   -0.9343 C   0  0  0  0  0  0  0  0  0  0  0  0
    4.9873   -0.4992   -0.7067 C   0  0  0  0  0  0  0  0  0  0  0  0
    4.5799   -1.6856   -0.3065 N   0  0  0  0  0  0  0  0  0  0  0  0
    3.2040   -1.7477   -0.1772 N   0  0  0  0  0  0  0  0  0  0  0  0
    2.6349   -0.6101   -0.4855 C   0  0  0  0  0  0  0  0  0  0  0  0
    1.3170   -0.2432   -0.4941 N   0  0  0  0  0  0  0  0  0  0  0  0
    0.3092   -1.1220   -0.1398 C   0  0  0  0  0  0  0  0  0  0  0  0
    0.4602   -2.2866    0.2107 O   0  0  0  0  0  0  0  0  0  0  0  0
   -1.0716   -0.4594   -0.2354 C   0  0  0  0  0  0  0  0  0  0  0  0
   -2.1101   -1.3557    0.1271 O   0  0  0  0  0  0  0  0  0  0  0  0
   -3.3912   -0.8852    0.0833 C   0  0  0  0  0  0  0  0  0  0  0  0
   -4.3664   -1.8155    0.4513 C   0  0  0  0  0  0  0  0  0  0  0  0
   -5.7255   -1.4753    0.4544 C   0  0  0  0  0  0  0  0  0  0  0  0
   -6.1366   -0.1907    0.0873 C   0  0  0  0  0  0  0  0  0  0  0  0
   -7.5404    0.2414    0.0654 C   0  0  0  0  0  0  0  0  0  0  0  0
   -8.6303   -0.7147    0.4507 C   0  0  0  0  0  0  0  0  0  0  0  0
   -7.8129    1.5013   -0.3052 C   0  0  0  0  0  0  0  0  0  0  0  0
   -6.7806    2.4752   -0.6913 C   0  0  0  0  0  0  0  0  0  0  0  0
   -7.0854    3.6152   -1.0220 O   0  0  0  0  0  0  0  0  0  0  0  0
   -5.4673    2.0400   -0.6612 O   0  0  0  0  0  0  0  0  0  0  0  0
   -5.1453    0.7226   -0.2767 C   0  0  0  0  0  0  0  0  0  0  0  0
   -3.7850    0.3969   -0.2844 C   0  0  0  0  0  0  0  0  0  0  0  0
    3.7122    0.6292   -0.9573 S   0  0  0  0  0  0  0  0  0  0  0  0
    9.1901    0.3680    2.1791 H   0  0  0  0  0  0  0  0  0  0  0  0
    8.7238    2.0431    1.8239 H   0  0  0  0  0  0  0  0  0  0  0  0
   10.2683    1.4074    1.2319 H   0  0  0  0  0  0  0  0  0  0  0  0
    9.0903   -0.1724   -0.2624 H   0  0  0  0  0  0  0  0  0  0  0  0
    8.6264    1.4937   -0.6156 H   0  0  0  0  0  0  0  0  0  0  0  0
    7.0130   -0.4557    1.1189 H   0  0  0  0  0  0  0  0  0  0  0  0
    6.5513    1.2066    0.7674 H   0  0  0  0  0  0  0  0  0  0  0  0
    6.9469   -0.9979   -1.3325 H   0  0  0  0  0  0  0  0  0  0  0  0
    6.4899    0.6605   -1.6963 H   0  0  0  0  0  0  0  0  0  0  0  0
    1.1142    0.7044   -0.7727 H   0  0  0  0  0  0  0  0  0  0  0  0
   -1.0670    0.4028    0.4429 H   0  0  0  0  0  0  0  0  0  0  0  0
   -1.2047   -0.1320   -1.2740 H   0  0  0  0  0  0  0  0  0  0  0  0
   -4.0643   -2.8209    0.7403 H   0  0  0  0  0  0  0  0  0  0  0  0
   -6.4416   -2.2376    0.7494 H   0  0  0  0  0  0  0  0  0  0  0  0
   -8.6370   -1.5854   -0.2138 H   0  0  0  0  0  0  0  0  0  0  0  0
   -8.5008   -1.0569    1.4830 H   0  0  0  0  0  0  0  0  0  0  0  0
   -9.6208   -0.2505    0.3855 H   0  0  0  0  0  0  0  0  0  0  0  0
   -8.8274    1.8821   -0.3424 H   0  0  0  0  0  0  0  0  0  0  0  0
   -3.0760    1.1611   -0.5794 H   0  0  0  0  0  0  0  0  0  0  0  0
  1  2  1  0
  2  3  1  0
  3  4  1  0
  4  5  1  0
  5  6  2  0
  6  7  1  0
  7  8  2  0
  8  9  1  0
  9 10  1  0
 10 11  2  0
 10 12  1  0
 12 13  1  0
 13 14  1  0
 14 15  2  0
 15 16  1  0
 16 17  2  0
 17 18  1  0
 18 19  1  0
 18 20  2  0
 20 21  1  0
 21 22  2  0
 21 23  1  0
 23 24  1  0
 24 25  2  0
  8 26  1  0
 26  5  1  0
 25 14  1  0
 24 17  1  0
  1 27  1  0
  1 28  1  0
  1 29  1  0
  2 30  1  0
  2 31  1  0
  3 32  1  0
  3 33  1  0
  4 34  1  0
  4 35  1  0
  9 36  1  0
 12 37  1  0
 12 38  1  0
 15 39  1  0
 16 40  1  0
 19 41  1  0
 19 42  1  0
 19 43  1  0
 20 44  1  0
 25 45  1  0
M  END
$$$$
