
     RDKit          3D

 67 72  0  0  0  0  0  0  0  0999 V2000
    2.7094    0.4855   -2.9089 O   0  0  0  0  0  0  0  0  0  0  0  0
    2.3063    0.3332   -1.7523 C   0  0  0  0  0  0  0  0  0  0  0  0
    3.2808    0.3223   -0.5587 C   0  0  0  0  0  0  0  0  0  0  0  0
    4.5804    1.0628   -0.9244 C   0  0  0  0  0  0  0  0  0  0  0  0
    5.6571    0.9334    0.1316 C   0  0  0  0  0  0  0  0  0  0  0  0
    6.4075   -0.2455    0.2409 C   0  0  0  0  0  0  0  0  0  0  0  0
    7.3864   -0.3704    1.2278 C   0  0  0  0  0  0  0  0  0  0  0  0
    7.6245    0.6799    2.1126 C   0  0  0  0  0  0  0  0  0  0  0  0
    6.8845    1.8564    2.0117 C   0  0  0  0  0  0  0  0  0  0  0  0
    5.9045    1.9836    1.0263 C   0  0  0  0  0  0  0  0  0  0  0  0
    2.6689    0.9223    0.6227 N   0  0  0  0  0  0  0  0  0  0  0  0
    1.4311    0.3535    0.9306 C   0  0  0  0  0  0  0  0  0  0  0  0
    1.1925    0.2398    2.2441 N   0  0  0  0  0  0  0  0  0  0  0  0
   -0.0165   -0.2038    2.5745 C   0  0  0  0  0  0  0  0  0  0  0  0
   -1.0104   -0.4643    1.7220 N   0  0  0  0  0  0  0  0  0  0  0  0
   -0.7731   -0.2928    0.4034 C   0  0  0  0  0  0  0  0  0  0  0  0
   -1.8982   -0.3443   -0.4384 N   0  0  0  0  0  0  0  0  0  0  0  0
   -2.3555    1.0221   -0.8268 C   0  0  0  0  0  0  0  0  0  0  0  0
   -3.2211    1.7034    0.2569 C   0  0  0  0  0  0  0  0  0  0  0  0
   -4.3842    0.8535    0.5887 N   0  0  0  0  0  0  0  0  0  0  0  0
   -5.4091    1.4187    1.3669 C   0  0  0  0  0  0  0  0  0  0  0  0
   -5.2592    2.5931    2.1190 C   0  0  0  0  0  0  0  0  0  0  0  0
   -6.3169    3.1173    2.8727 C   0  0  0  0  0  0  0  0  0  0  0  0
   -7.5536    2.4802    2.8825 C   0  0  0  0  0  0  0  0  0  0  0  0
   -7.7336    1.3219    2.1357 C   0  0  0  0  0  0  0  0  0  0  0  0
   -6.6726    0.8027    1.3869 C   0  0  0  0  0  0  0  0  0  0  0  0
   -3.9669   -0.4915    1.0650 C   0  0  0  0  0  0  0  0  0  0  0  0
   -3.0273   -1.1828    0.0457 C   0  0  0  0  0  0  0  0  0  0  0  0
    0.5129    0.0185   -0.0756 C   0  0  0  0  0  0  0  0  0  0  0  0
    0.9646    0.0309   -1.4522 N   0  0  0  0  0  0  0  0  0  0  0  0
    0.1777   -0.4902   -2.5647 C   0  0  0  0  0  0  0  0  0  0  0  0
    0.4741   -1.9538   -2.8478 C   0  0  0  0  0  0  0  0  0  0  0  0
   -0.1285   -2.9721   -2.0954 C   0  0  0  0  0  0  0  0  0  0  0  0
    0.1622   -4.3148   -2.3508 C   0  0  0  0  0  0  0  0  0  0  0  0
    1.0601   -4.6495   -3.3615 C   0  0  0  0  0  0  0  0  0  0  0  0
    1.4184   -6.3030   -3.6741 Cl  0  0  0  0  0  0  0  0  0  0  0  0
    1.6708   -3.6531   -4.1181 C   0  0  0  0  0  0  0  0  0  0  0  0
    1.3794   -2.3111   -3.8610 C   0  0  0  0  0  0  0  0  0  0  0  0
    3.5125   -0.7327   -0.3540 H   0  0  0  0  0  0  0  0  0  0  0  0
    4.3690    2.1250   -1.1078 H   0  0  0  0  0  0  0  0  0  0  0  0
    4.9896    0.6789   -1.8683 H   0  0  0  0  0  0  0  0  0  0  0  0
    6.2384   -1.0736   -0.4441 H   0  0  0  0  0  0  0  0  0  0  0  0
    7.9657   -1.2869    1.3052 H   0  0  0  0  0  0  0  0  0  0  0  0
    8.3884    0.5819    2.8795 H   0  0  0  0  0  0  0  0  0  0  0  0
    7.0708    2.6765    2.7005 H   0  0  0  0  0  0  0  0  0  0  0  0
    5.3327    2.9074    0.9622 H   0  0  0  0  0  0  0  0  0  0  0  0
    3.2396    0.9018    1.4657 H   0  0  0  0  0  0  0  0  0  0  0  0
   -0.2220   -0.3441    3.6298 H   0  0  0  0  0  0  0  0  0  0  0  0
   -2.9549    0.9183   -1.7407 H   0  0  0  0  0  0  0  0  0  0  0  0
   -1.5112    1.6726   -1.0856 H   0  0  0  0  0  0  0  0  0  0  0  0
   -2.6147    1.8937    1.1511 H   0  0  0  0  0  0  0  0  0  0  0  0
   -3.5587    2.6674   -0.1428 H   0  0  0  0  0  0  0  0  0  0  0  0
   -4.3109    3.1200    2.1524 H   0  0  0  0  0  0  0  0  0  0  0  0
   -6.1689    4.0250    3.4519 H   0  0  0  0  0  0  0  0  0  0  0  0
   -8.3748    2.8886    3.4648 H   0  0  0  0  0  0  0  0  0  0  0  0
   -8.6986    0.8228    2.1248 H   0  0  0  0  0  0  0  0  0  0  0  0
   -6.8476   -0.0873    0.7871 H   0  0  0  0  0  0  0  0  0  0  0  0
   -3.4822   -0.3971    2.0435 H   0  0  0  0  0  0  0  0  0  0  0  0
   -4.8327   -1.1501    1.2027 H   0  0  0  0  0  0  0  0  0  0  0  0
   -2.6610   -2.1338    0.4523 H   0  0  0  0  0  0  0  0  0  0  0  0
   -3.6235   -1.4458   -0.8379 H   0  0  0  0  0  0  0  0  0  0  0  0
    0.4232    0.0929   -3.4630 H   0  0  0  0  0  0  0  0  0  0  0  0
   -0.8926   -0.3436   -2.4632 H   0  0  0  0  0  0  0  0  0  0  0  0
   -0.8320   -2.7286   -1.3042 H   0  0  0  0  0  0  0  0  0  0  0  0
   -0.3143   -5.0913   -1.7583 H   0  0  0  0  0  0  0  0  0  0  0  0
    2.3739   -3.9097   -4.9064 H   0  0  0  0  0  0  0  0  0  0  0  0
    1.8701   -1.5405   -4.4547 H   0  0  0  0  0  0  0  0  0  0  0  0
  1  2  2  0
  2  3  1  0
  3  4  1  0
  4  5  1  0
  5  6  2  0
  6  7  1  0
  7  8  2  0
  8  9  1  0
  9 10  2  0
  3 11  1  0
 11 12  1  0
 12 13  2  0
 13 14  1  0
 14 15  2  0
 15 16  1  0
 16 17  1  0
 17 18  1  0
 18 19  1  0
 19 20  1  0
 20 21  1  0
 21 22  2  0
 22 23  1  0
 23 24  2  0
 24 25  1  0
 25 26  2  0
 20 27  1  0
 27 28  1  0
 16 29  2  0
 29 30  1  0
 30 31  1  0
 31 32  1  0
 32 33  2  0
 33 34  1  0
 34 35  2  0
 35 36  1  0
 35 37  1  0
 37 38  2  0
 30  2  1  0
 38 32  1  0
 10  5  1  0
 29 12  1  0
 28 17  1  0
 26 21  1  0
  3 39  1  0
  4 40  1  0
  4 41  1  0
  6 42  1  0
  7 43  1  0
  8 44  1  0
  9 45  1  0
 10 46  1  0
 11 47  1  0
 14 48  1  0
 18 49  1  0
 18 50  1  0
 19 51  1  0
 19 52  1  0
 22 53  1  0
 23 54  1  0
 24 55  1  0
 25 56  1  0
 26 57  1  0
 27 58  1  0
 27 59  1  0
 28 60  1  0
 28 61  1  0
 31 62  1  0
 31 63  1  0
 33 64  1  0
 34 65  1  0
 37 66  1  0
 38 67  1  0
M  END
$$$$
