
     RDKit          3D

 38 40  0  0  0  0  0  0  0  0999 V2000
   -0.0427    3.3561    0.6496 S   0  0  0  0  0  0  0  0  0  0  0  0
    0.0978    1.7143    0.3078 C   0  0  0  0  0  0  0  0  0  0  0  0
    1.3142    1.0621    0.2796 N   0  0  0  0  0  0  0  0  0  0  0  0
    2.6122    1.6603    0.5560 C   0  0  0  0  0  0  0  0  0  0  0  0
    3.7114    0.6592    0.3132 C   0  0  0  0  0  0  0  0  0  0  0  0
    4.3003   -0.0307    1.3819 C   0  0  0  0  0  0  0  0  0  0  0  0
    5.3001   -0.9762    1.1473 C   0  0  0  0  0  0  0  0  0  0  0  0
    5.7151   -1.2456   -0.1558 C   0  0  0  0  0  0  0  0  0  0  0  0
    5.1297   -0.5725   -1.2266 C   0  0  0  0  0  0  0  0  0  0  0  0
    4.1301    0.3731   -0.9943 C   0  0  0  0  0  0  0  0  0  0  0  0
   -0.9914    0.8802    0.0023 N   0  0  0  0  0  0  0  0  0  0  0  0
   -0.8255   -0.4536   -0.6022 C   0  0  0  0  0  0  0  0  0  0  0  0
   -1.9859   -0.8720   -1.5038 C   0  0  0  0  0  0  0  0  0  0  0  0
   -3.2729   -0.8002   -0.7359 C   0  0  0  0  0  0  0  0  0  0  0  0
   -4.2999   -1.7292   -0.9340 C   0  0  0  0  0  0  0  0  0  0  0  0
   -5.4867   -1.6220   -0.2102 C   0  0  0  0  0  0  0  0  0  0  0  0
   -5.6566   -0.5819    0.7016 C   0  0  0  0  0  0  0  0  0  0  0  0
   -4.6409    0.3563    0.8892 C   0  0  0  0  0  0  0  0  0  0  0  0
   -3.4384    0.2518    0.1769 C   0  0  0  0  0  0  0  0  0  0  0  0
   -2.3684    1.3079    0.3258 C   0  0  0  0  0  0  0  0  0  0  0  0
    1.2737    0.0739    0.4791 H   0  0  0  0  0  0  0  0  0  0  0  0
    2.6227    2.0019    1.5976 H   0  0  0  0  0  0  0  0  0  0  0  0
    2.7563    2.5385   -0.0835 H   0  0  0  0  0  0  0  0  0  0  0  0
    3.9850    0.1656    2.4044 H   0  0  0  0  0  0  0  0  0  0  0  0
    5.7560   -1.5030    1.9818 H   0  0  0  0  0  0  0  0  0  0  0  0
    6.4946   -1.9810   -0.3370 H   0  0  0  0  0  0  0  0  0  0  0  0
    5.4511   -0.7842   -2.2431 H   0  0  0  0  0  0  0  0  0  0  0  0
    3.6745    0.8881   -1.8379 H   0  0  0  0  0  0  0  0  0  0  0  0
    0.0954   -0.4830   -1.1945 H   0  0  0  0  0  0  0  0  0  0  0  0
   -0.7123   -1.1624    0.2281 H   0  0  0  0  0  0  0  0  0  0  0  0
   -1.8085   -1.8904   -1.8679 H   0  0  0  0  0  0  0  0  0  0  0  0
   -2.0549   -0.2082   -2.3738 H   0  0  0  0  0  0  0  0  0  0  0  0
   -4.1817   -2.5395   -1.6491 H   0  0  0  0  0  0  0  0  0  0  0  0
   -6.2825   -2.3467   -0.3613 H   0  0  0  0  0  0  0  0  0  0  0  0
   -6.5852   -0.4954    1.2599 H   0  0  0  0  0  0  0  0  0  0  0  0
   -4.7952    1.1741    1.5898 H   0  0  0  0  0  0  0  0  0  0  0  0
   -2.6226    2.1432   -0.3380 H   0  0  0  0  0  0  0  0  0  0  0  0
   -2.3680    1.6712    1.3605 H   0  0  0  0  0  0  0  0  0  0  0  0
  1  2  2  0
  2  3  1  0
  3  4  1  0
  4  5  1  0
  5  6  2  0
  6  7  1  0
  7  8  2  0
  8  9  1  0
  9 10  2  0
  2 11  1  0
 11 12  1  0
 12 13  1  0
 13 14  1  0
 14 15  2  0
 15 16  1  0
 16 17  2  0
 17 18  1  0
 18 19  2  0
 19 20  1  0
 10  5  1  0
 20 11  1  0
 19 14  1  0
  3 21  1  0
  4 22  1  0
  4 23  1  0
  6 24  1  0
  7 25  1  0
  8 26  1  0
  9 27  1  0
 10 28  1  0
 12 29  1  0
 12 30  1  0
 13 31  1  0
 13 32  1  0
 15 33  1  0
 16 34  1  0
 17 35  1  0
 18 36  1  0
 20 37  1  0
 20 38  1  0
M  END
$$$$
