
     RDKit          3D

 59 61  0  0  0  0  0  0  0  0999 V2000
   -7.8322    3.1267   -2.6792 C   0  0  0  0  0  0  0  0  0  0  0  0
   -6.8865    2.3801   -1.7558 C   0  0  0  0  0  0  0  0  0  0  0  0
   -5.6986    2.0905   -2.4864 O   0  0  0  0  0  0  0  0  0  0  0  0
   -4.6926    1.4097   -1.8471 C   0  0  0  0  0  0  0  0  0  0  0  0
   -4.7520    0.9768   -0.5170 C   0  0  0  0  0  0  0  0  0  0  0  0
   -3.6730    0.2862    0.0365 C   0  0  0  0  0  0  0  0  0  0  0  0
   -3.7287   -0.1470    1.3592 N   0  0  0  0  0  0  0  0  0  0  0  0
   -2.7354   -0.8564    1.9791 C   0  0  0  0  0  0  0  0  0  0  0  0
   -3.0153   -1.2655    3.5815 S   0  0  0  0  0  0  0  0  0  0  0  0
   -1.6066   -1.1566    1.2191 N   0  0  0  0  0  0  0  0  0  0  0  0
   -0.4775   -1.9255    1.7736 C   0  0  0  0  0  0  0  0  0  0  0  0
    0.5797   -1.0153    2.3946 C   0  0  0  0  0  0  0  0  0  0  0  0
    1.7460   -1.8202    2.9216 C   0  0  0  0  0  0  0  0  0  0  0  0
    1.8166   -3.0409    2.8407 O   0  0  0  0  0  0  0  0  0  0  0  0
    2.7166   -1.0368    3.5048 N   0  0  0  0  0  0  0  0  0  0  0  0
    3.9780   -1.5865    3.9497 C   0  0  0  0  0  0  0  0  0  0  0  0
    5.0812   -1.2078    2.9959 C   0  0  0  0  0  0  0  0  0  0  0  0
    5.1889   -1.8443    1.7518 C   0  0  0  0  0  0  0  0  0  0  0  0
    6.1879   -1.4779    0.8434 C   0  0  0  0  0  0  0  0  0  0  0  0
    7.0929   -0.4681    1.1674 C   0  0  0  0  0  0  0  0  0  0  0  0
    8.1092   -0.0120    0.3741 O   0  0  0  0  0  0  0  0  0  0  0  0
    8.2082   -0.5765   -0.9269 C   0  0  0  0  0  0  0  0  0  0  0  0
    6.9915    0.1653    2.4076 C   0  0  0  0  0  0  0  0  0  0  0  0
    5.9928   -0.1954    3.3155 C   0  0  0  0  0  0  0  0  0  0  0  0
   -1.4253   -0.7027   -0.0968 C   0  0  0  0  0  0  0  0  0  0  0  0
   -0.3906   -0.8610   -0.7413 O   0  0  0  0  0  0  0  0  0  0  0  0
   -2.5424    0.0284   -0.7213 C   0  0  0  0  0  0  0  0  0  0  0  0
   -2.4678    0.4577   -2.0502 C   0  0  0  0  0  0  0  0  0  0  0  0
   -3.5370    1.1544   -2.6182 C   0  0  0  0  0  0  0  0  0  0  0  0
   -3.5728    1.5949   -3.9161 O   0  0  0  0  0  0  0  0  0  0  0  0
   -2.3558    1.6877   -4.6539 C   0  0  0  0  0  0  0  0  0  0  0  0
   -2.1566    0.4451   -5.5037 C   0  0  0  0  0  0  0  0  0  0  0  0
   -8.7565    3.3913   -2.1587 H   0  0  0  0  0  0  0  0  0  0  0  0
   -7.3626    4.0413   -3.0555 H   0  0  0  0  0  0  0  0  0  0  0  0
   -8.0813    2.5142   -3.5523 H   0  0  0  0  0  0  0  0  0  0  0  0
   -7.3668    1.4520   -1.4260 H   0  0  0  0  0  0  0  0  0  0  0  0
   -6.6558    3.0137   -0.8917 H   0  0  0  0  0  0  0  0  0  0  0  0
   -5.6261    1.1648    0.0957 H   0  0  0  0  0  0  0  0  0  0  0  0
   -4.5520    0.0497    1.9184 H   0  0  0  0  0  0  0  0  0  0  0  0
   -0.0276   -2.5215    0.9689 H   0  0  0  0  0  0  0  0  0  0  0  0
   -0.8395   -2.6518    2.5089 H   0  0  0  0  0  0  0  0  0  0  0  0
    0.9578   -0.3058    1.6491 H   0  0  0  0  0  0  0  0  0  0  0  0
    0.1526   -0.4360    3.2209 H   0  0  0  0  0  0  0  0  0  0  0  0
    2.6636   -0.0327    3.3996 H   0  0  0  0  0  0  0  0  0  0  0  0
    3.9237   -2.6760    4.0501 H   0  0  0  0  0  0  0  0  0  0  0  0
    4.1730   -1.1753    4.9460 H   0  0  0  0  0  0  0  0  0  0  0  0
    4.4855   -2.6313    1.4822 H   0  0  0  0  0  0  0  0  0  0  0  0
    6.2276   -2.0016   -0.1055 H   0  0  0  0  0  0  0  0  0  0  0  0
    9.0451   -0.0915   -1.4384 H   0  0  0  0  0  0  0  0  0  0  0  0
    8.4257   -1.6485   -0.8776 H   0  0  0  0  0  0  0  0  0  0  0  0
    7.3030   -0.3829   -1.5121 H   0  0  0  0  0  0  0  0  0  0  0  0
    7.6961    0.9519    2.6667 H   0  0  0  0  0  0  0  0  0  0  0  0
    5.9356    0.3212    4.2696 H   0  0  0  0  0  0  0  0  0  0  0  0
   -1.5752    0.2210   -2.6198 H   0  0  0  0  0  0  0  0  0  0  0  0
   -2.4634    2.5500   -5.3215 H   0  0  0  0  0  0  0  0  0  0  0  0
   -1.4880    1.9040   -4.0210 H   0  0  0  0  0  0  0  0  0  0  0  0
   -3.0268    0.2740   -6.1444 H   0  0  0  0  0  0  0  0  0  0  0  0
   -2.0407   -0.4487   -4.8849 H   0  0  0  0  0  0  0  0  0  0  0  0
   -1.2695    0.5475   -6.1356 H   0  0  0  0  0  0  0  0  0  0  0  0
  1  2  1  0
  2  3  1  0
  3  4  1  0
  4  5  2  0
  5  6  1  0
  6  7  1  0
  7  8  1  0
  8  9  2  0
  8 10  1  0
 10 11  1  0
 11 12  1  0
 12 13  1  0
 13 14  2  0
 13 15  1  0
 15 16  1  0
 16 17  1  0
 17 18  2  0
 18 19  1  0
 19 20  2  0
 20 21  1  0
 21 22  1  0
 20 23  1  0
 23 24  2  0
 10 25  1  0
 25 26  2  0
 25 27  1  0
 27 28  1  0
 28 29  2  0
 29 30  1  0
 30 31  1  0
 31 32  1  0
 29  4  1  0
 27  6  2  0
 24 17  1  0
  1 33  1  0
  1 34  1  0
  1 35  1  0
  2 36  1  0
  2 37  1  0
  5 38  1  0
  7 39  1  0
 11 40  1  0
 11 41  1  0
 12 42  1  0
 12 43  1  0
 15 44  1  0
 16 45  1  0
 16 46  1  0
 18 47  1  0
 19 48  1  0
 22 49  1  0
 22 50  1  0
 22 51  1  0
 23 52  1  0
 24 53  1  0
 28 54  1  0
 31 55  1  0
 31 56  1  0
 32 57  1  0
 32 58  1  0
 32 59  1  0
M  END
$$$$
