
     RDKit          3D

 58 59  0  0  0  0  0  0  0  0999 V2000
    8.7935   -0.5978   -1.2661 C   0  0  0  0  0  0  0  0  0  0  0  0
    8.7547   -2.1130   -1.1493 C   0  0  0  0  0  0  0  0  0  0  0  0
    7.4095   -2.7446   -1.5241 C   0  0  0  0  0  0  0  0  0  0  0  0
    6.2586   -2.3805   -0.5853 C   0  0  0  0  0  0  0  0  0  0  0  0
    5.8187   -1.0547   -0.8729 O   0  0  0  0  0  0  0  0  0  0  0  0
    4.7936   -0.5554   -0.1197 C   0  0  0  0  0  0  0  0  0  0  0  0
    4.4350    0.7597   -0.4251 C   0  0  0  0  0  0  0  0  0  0  0  0
    3.4003    1.3952    0.2657 C   0  0  0  0  0  0  0  0  0  0  0  0
    2.7042    0.7126    1.2677 C   0  0  0  0  0  0  0  0  0  0  0  0
    1.6043    1.4230    1.9782 C   0  0  0  0  0  0  0  0  0  0  0  0
    1.5783    2.6474    2.0172 O   0  0  0  0  0  0  0  0  0  0  0  0
    0.6193    0.6306    2.5318 N   0  0  0  0  0  0  0  0  0  0  0  0
   -0.5887    1.2444    3.0682 C   0  0  0  0  0  0  0  0  0  0  0  0
   -1.6980    1.4480    2.0385 C   0  0  0  0  0  0  0  0  0  0  0  0
   -2.7701    1.9877    2.2896 O   0  0  0  0  0  0  0  0  0  0  0  0
   -1.3807    0.9051    0.8274 O   0  0  0  0  0  0  0  0  0  0  0  0
   -2.4334    0.9801   -0.1396 C   0  0  0  0  0  0  0  0  0  0  0  0
   -3.5541   -0.0113    0.1784 C   0  0  0  0  0  0  0  0  0  0  0  0
   -3.3424   -1.0171    0.8681 O   0  0  0  0  0  0  0  0  0  0  0  0
   -4.9319    0.2804   -0.3376 C   0  0  0  0  0  0  0  0  0  0  0  0
   -6.0212   -0.1064    0.3640 C   0  0  0  0  0  0  0  0  0  0  0  0
   -5.9163   -0.7944    1.5697 N   0  0  0  0  0  0  0  0  0  0  0  0
   -7.2887    0.1957   -0.1286 N   0  0  0  0  0  0  0  0  0  0  0  0
   -8.4688   -0.1892    0.6449 C   0  0  0  0  0  0  0  0  0  0  0  0
   -7.5134    0.8952   -1.3123 C   0  0  0  0  0  0  0  0  0  0  0  0
   -8.6447    1.1029   -1.7548 O   0  0  0  0  0  0  0  0  0  0  0  0
   -6.3852    1.3380   -1.9796 N   0  0  0  0  0  0  0  0  0  0  0  0
   -6.5801    2.0546   -3.2271 C   0  0  0  0  0  0  0  0  0  0  0  0
   -5.1052    0.9856   -1.6238 C   0  0  0  0  0  0  0  0  0  0  0  0
   -4.1237    1.2069   -2.3326 O   0  0  0  0  0  0  0  0  0  0  0  0
    3.0711   -0.6005    1.5867 C   0  0  0  0  0  0  0  0  0  0  0  0
    4.1104   -1.2325    0.8911 C   0  0  0  0  0  0  0  0  0  0  0  0
    8.4458   -0.2677   -2.2499 H   0  0  0  0  0  0  0  0  0  0  0  0
    8.1786   -0.1202   -0.4978 H   0  0  0  0  0  0  0  0  0  0  0  0
    9.8190   -0.2386   -1.1317 H   0  0  0  0  0  0  0  0  0  0  0  0
    9.5223   -2.5286   -1.8134 H   0  0  0  0  0  0  0  0  0  0  0  0
    9.0310   -2.4056   -0.1295 H   0  0  0  0  0  0  0  0  0  0  0  0
    7.1542   -2.4632   -2.5528 H   0  0  0  0  0  0  0  0  0  0  0  0
    7.5376   -3.8336   -1.5039 H   0  0  0  0  0  0  0  0  0  0  0  0
    5.4339   -3.0802   -0.7671 H   0  0  0  0  0  0  0  0  0  0  0  0
    6.5886   -2.4633    0.4570 H   0  0  0  0  0  0  0  0  0  0  0  0
    4.9687    1.2966   -1.2058 H   0  0  0  0  0  0  0  0  0  0  0  0
    3.1389    2.4216    0.0168 H   0  0  0  0  0  0  0  0  0  0  0  0
    0.5207   -0.3108    2.1746 H   0  0  0  0  0  0  0  0  0  0  0  0
   -0.9677    0.5658    3.8378 H   0  0  0  0  0  0  0  0  0  0  0  0
   -0.3449    2.2138    3.5127 H   0  0  0  0  0  0  0  0  0  0  0  0
   -1.9937    0.7028   -1.1022 H   0  0  0  0  0  0  0  0  0  0  0  0
   -2.8093    2.0069   -0.2039 H   0  0  0  0  0  0  0  0  0  0  0  0
   -4.9668   -1.1557    1.7310 H   0  0  0  0  0  0  0  0  0  0  0  0
   -6.5789   -1.5607    1.6379 H   0  0  0  0  0  0  0  0  0  0  0  0
   -8.5553   -1.2806    0.6431 H   0  0  0  0  0  0  0  0  0  0  0  0
   -9.3932    0.2237    0.2315 H   0  0  0  0  0  0  0  0  0  0  0  0
   -8.3734    0.1801    1.6713 H   0  0  0  0  0  0  0  0  0  0  0  0
   -7.4474    2.7187   -3.1591 H   0  0  0  0  0  0  0  0  0  0  0  0
   -6.7570    1.3221   -4.0210 H   0  0  0  0  0  0  0  0  0  0  0  0
   -5.7003    2.6519   -3.4838 H   0  0  0  0  0  0  0  0  0  0  0  0
    2.5783   -1.1405    2.3900 H   0  0  0  0  0  0  0  0  0  0  0  0
    4.3650   -2.2501    1.1687 H   0  0  0  0  0  0  0  0  0  0  0  0
  1  2  1  0
  2  3  1  0
  3  4  1  0
  4  5  1  0
  5  6  1  0
  6  7  2  0
  7  8  1  0
  8  9  2  0
  9 10  1  0
 10 11  2  0
 10 12  1  0
 12 13  1  0
 13 14  1  0
 14 15  2  0
 14 16  1  0
 16 17  1  0
 17 18  1  0
 18 19  2  0
 18 20  1  0
 20 21  2  0
 21 22  1  0
 21 23  1  0
 23 24  1  0
 23 25  1  0
 25 26  2  0
 25 27  1  0
 27 28  1  0
 27 29  1  0
 29 30  2  0
  9 31  1  0
 31 32  2  0
 32  6  1  0
 29 20  1  0
  1 33  1  0
  1 34  1  0
  1 35  1  0
  2 36  1  0
  2 37  1  0
  3 38  1  0
  3 39  1  0
  4 40  1  0
  4 41  1  0
  7 42  1  0
  8 43  1  0
 12 44  1  0
 13 45  1  0
 13 46  1  0
 17 47  1  0
 17 48  1  0
 22 49  1  0
 22 50  1  0
 24 51  1  0
 24 52  1  0
 24 53  1  0
 28 54  1  0
 28 55  1  0
 28 56  1  0
 31 57  1  0
 32 58  1  0
M  END
$$$$
