
     RDKit          3D

 34 34  0  0  0  0  0  0  0  0999 V2000
    3.2227    1.8077    0.5399 C   0  0  0  0  0  0  0  0  0  0  0  0
    4.5135    1.1477    0.0825 C   0  0  0  0  0  0  0  0  0  0  0  0
    4.3804   -0.3416   -0.2533 C   0  0  0  0  0  0  0  0  0  0  0  0
    3.5233   -0.6373   -1.4838 C   0  0  0  0  0  0  0  0  0  0  0  0
    2.1299   -0.4125   -1.2277 O   0  0  0  0  0  0  0  0  0  0  0  0
    1.4619   -1.4361   -0.6414 C   0  0  0  0  0  0  0  0  0  0  0  0
    1.9353   -2.5157   -0.3239 O   0  0  0  0  0  0  0  0  0  0  0  0
    0.0371   -1.0701   -0.4158 C   0  0  0  0  0  0  0  0  0  0  0  0
   -0.7999   -2.0106    0.1948 C   0  0  0  0  0  0  0  0  0  0  0  0
   -2.1464   -1.7115    0.4300 C   0  0  0  0  0  0  0  0  0  0  0  0
   -2.6790   -0.4702    0.0596 C   0  0  0  0  0  0  0  0  0  0  0  0
   -4.0443   -0.2488    0.3330 N   0  0  0  0  0  0  0  0  0  0  0  0
   -4.7865    0.8844    0.0520 C   0  0  0  0  0  0  0  0  0  0  0  0
   -6.2233    0.7488    0.4915 C   0  0  0  0  0  0  0  0  0  0  0  0
   -4.3962    1.9023   -0.5080 O   0  0  0  0  0  0  0  0  0  0  0  0
   -1.8415    0.4664   -0.5490 C   0  0  0  0  0  0  0  0  0  0  0  0
   -0.4921    0.1707   -0.7865 C   0  0  0  0  0  0  0  0  0  0  0  0
    3.4311    2.8136    0.9189 H   0  0  0  0  0  0  0  0  0  0  0  0
    2.5126    1.9130   -0.2847 H   0  0  0  0  0  0  0  0  0  0  0  0
    2.7474    1.2355    1.3427 H   0  0  0  0  0  0  0  0  0  0  0  0
    5.2531    1.2491    0.8863 H   0  0  0  0  0  0  0  0  0  0  0  0
    4.9138    1.6907   -0.7816 H   0  0  0  0  0  0  0  0  0  0  0  0
    3.9851   -0.8703    0.6215 H   0  0  0  0  0  0  0  0  0  0  0  0
    5.3882   -0.7322   -0.4394 H   0  0  0  0  0  0  0  0  0  0  0  0
    3.6841   -1.6667   -1.8266 H   0  0  0  0  0  0  0  0  0  0  0  0
    3.8114    0.0166   -2.3141 H   0  0  0  0  0  0  0  0  0  0  0  0
   -0.4078   -2.9819    0.4915 H   0  0  0  0  0  0  0  0  0  0  0  0
   -2.7671   -2.4662    0.9065 H   0  0  0  0  0  0  0  0  0  0  0  0
   -4.5357   -1.0130    0.7793 H   0  0  0  0  0  0  0  0  0  0  0  0
   -6.6530    1.7437    0.6401 H   0  0  0  0  0  0  0  0  0  0  0  0
   -6.7895    0.2201   -0.2797 H   0  0  0  0  0  0  0  0  0  0  0  0
   -6.2935    0.2051    1.4380 H   0  0  0  0  0  0  0  0  0  0  0  0
   -2.2042    1.4435   -0.8540 H   0  0  0  0  0  0  0  0  0  0  0  0
    0.1288    0.9258   -1.2629 H   0  0  0  0  0  0  0  0  0  0  0  0
  1  2  1  0
  2  3  1  0
  3  4  1  0
  4  5  1  0
  5  6  1  0
  6  7  2  0
  6  8  1  0
  8  9  2  0
  9 10  1  0
 10 11  2  0
 11 12  1  0
 12 13  1  0
 13 14  1  0
 13 15  2  0
 11 16  1  0
 16 17  2  0
 17  8  1  0
  1 18  1  0
  1 19  1  0
  1 20  1  0
  2 21  1  0
  2 22  1  0
  3 23  1  0
  3 24  1  0
  4 25  1  0
  4 26  1  0
  9 27  1  0
 10 28  1  0
 12 29  1  0
 14 30  1  0
 14 31  1  0
 14 32  1  0
 16 33  1  0
 17 34  1  0
M  END
$$$$
