
     RDKit          3D

 60 65  0  0  0  0  0  0  0  0999 V2000
    2.8986    0.0282   -3.6628 C   0  0  0  0  0  0  0  0  0  0  0  0
    4.0004   -0.6579   -2.9488 C   0  0  0  0  0  0  0  0  0  0  0  0
    4.8078   -1.4843   -3.6276 N   0  0  0  0  0  0  0  0  0  0  0  0
    5.7734   -1.8924   -2.7278 O   0  0  0  0  0  0  0  0  0  0  0  0
    5.5388   -1.3189   -1.5189 C   0  0  0  0  0  0  0  0  0  0  0  0
    6.5004   -1.6312   -0.4443 C   0  0  0  0  0  0  0  0  0  0  0  0
    4.3928   -0.5561   -1.5870 C   0  0  0  0  0  0  0  0  0  0  0  0
    3.8327    0.2139   -0.4994 C   0  0  0  0  0  0  0  0  0  0  0  0
    4.5286    1.0132    0.1222 O   0  0  0  0  0  0  0  0  0  0  0  0
    2.4873    0.0124   -0.1887 N   0  0  0  0  0  0  0  0  0  0  0  0
    1.7001   -1.1447   -0.6199 C   0  0  0  0  0  0  0  0  0  0  0  0
    0.7202   -1.5773    0.4672 C   0  0  0  0  0  0  0  0  0  0  0  0
   -0.2848   -0.4517    0.8670 C   0  0  0  0  0  0  0  0  0  0  0  0
    0.3574    0.9396    0.5976 C   0  0  0  0  0  0  0  0  0  0  0  0
    1.8696    0.9057    0.7840 C   0  0  0  0  0  0  0  0  0  0  0  0
   -0.4646   -0.4847    2.3086 O   0  0  0  0  0  0  0  0  0  0  0  0
   -1.2433   -1.4927    2.8005 C   0  0  0  0  0  0  0  0  0  0  0  0
   -1.1122   -1.7592    4.1646 C   0  0  0  0  0  0  0  0  0  0  0  0
   -1.8623   -2.7805    4.7501 C   0  0  0  0  0  0  0  0  0  0  0  0
   -2.7384   -3.5258    3.9675 C   0  0  0  0  0  0  0  0  0  0  0  0
   -3.4549   -4.5047    4.5332 F   0  0  0  0  0  0  0  0  0  0  0  0
   -2.8888   -3.2633    2.6121 C   0  0  0  0  0  0  0  0  0  0  0  0
   -2.1424   -2.2326    2.0345 C   0  0  0  0  0  0  0  0  0  0  0  0
   -2.3168   -1.8922    0.6118 C   0  0  0  0  0  0  0  0  0  0  0  0
   -2.9966   -2.6190   -0.1052 O   0  0  0  0  0  0  0  0  0  0  0  0
   -1.6590   -0.5944    0.1533 C   0  0  0  0  0  0  0  0  0  0  0  0
   -2.6531    0.5365    0.3877 C   0  0  0  0  0  0  0  0  0  0  0  0
   -2.5882    1.2001   -0.9446 C   0  0  0  0  0  0  0  0  0  0  0  0
   -3.2323    2.5097   -1.2042 C   0  0  0  0  0  0  0  0  0  0  0  0
   -3.9627    3.1771   -0.2124 C   0  0  0  0  0  0  0  0  0  0  0  0
   -4.5488    4.4160   -0.4906 C   0  0  0  0  0  0  0  0  0  0  0  0
   -4.4084    4.9848   -1.7556 C   0  0  0  0  0  0  0  0  0  0  0  0
   -5.1284    6.5083   -2.0896 Cl  0  0  0  0  0  0  0  0  0  0  0  0
   -3.6892    4.3246   -2.7499 C   0  0  0  0  0  0  0  0  0  0  0  0
   -3.1019    3.0881   -2.4751 C   0  0  0  0  0  0  0  0  0  0  0  0
   -1.9299    0.5480   -1.8482 N   0  0  0  0  0  0  0  0  0  0  0  0
   -1.4726   -0.6551   -1.2655 O   0  0  0  0  0  0  0  0  0  0  0  0
    3.2756    0.5237   -4.5638 H   0  0  0  0  0  0  0  0  0  0  0  0
    2.4282    0.7954   -3.0397 H   0  0  0  0  0  0  0  0  0  0  0  0
    2.1301   -0.6917   -3.9615 H   0  0  0  0  0  0  0  0  0  0  0  0
    6.0207   -2.2426    0.3268 H   0  0  0  0  0  0  0  0  0  0  0  0
    7.3631   -2.1840   -0.8293 H   0  0  0  0  0  0  0  0  0  0  0  0
    6.8712   -0.7124    0.0230 H   0  0  0  0  0  0  0  0  0  0  0  0
    2.3613   -1.9828   -0.8616 H   0  0  0  0  0  0  0  0  0  0  0  0
    1.1646   -0.8618   -1.5307 H   0  0  0  0  0  0  0  0  0  0  0  0
    1.2959   -1.8848    1.3500 H   0  0  0  0  0  0  0  0  0  0  0  0
    0.1977   -2.4778    0.1288 H   0  0  0  0  0  0  0  0  0  0  0  0
    0.1627    1.2748   -0.4266 H   0  0  0  0  0  0  0  0  0  0  0  0
   -0.0606    1.6941    1.2754 H   0  0  0  0  0  0  0  0  0  0  0  0
    2.1405    0.5551    1.7867 H   0  0  0  0  0  0  0  0  0  0  0  0
    2.2816    1.9142    0.6657 H   0  0  0  0  0  0  0  0  0  0  0  0
   -0.4216   -1.1790    4.7717 H   0  0  0  0  0  0  0  0  0  0  0  0
   -1.7685   -3.0011    5.8091 H   0  0  0  0  0  0  0  0  0  0  0  0
   -3.5888   -3.8517    2.0253 H   0  0  0  0  0  0  0  0  0  0  0  0
   -3.6782    0.1857    0.5533 H   0  0  0  0  0  0  0  0  0  0  0  0
   -2.3672    1.2068    1.2012 H   0  0  0  0  0  0  0  0  0  0  0  0
   -4.0948    2.7579    0.7798 H   0  0  0  0  0  0  0  0  0  0  0  0
   -5.1143    4.9323    0.2826 H   0  0  0  0  0  0  0  0  0  0  0  0
   -3.5841    4.7625   -3.7381 H   0  0  0  0  0  0  0  0  0  0  0  0
   -2.5435    2.5795   -3.2611 H   0  0  0  0  0  0  0  0  0  0  0  0
  1  2  1  0
  2  3  2  0
  3  4  1  0
  4  5  1  0
  5  6  1  0
  5  7  2  0
  7  8  1  0
  8  9  2  0
  8 10  1  0
 10 11  1  0
 11 12  1  0
 12 13  1  0
 13 14  1  0
 14 15  1  0
 13 16  1  0
 16 17  1  0
 17 18  2  0
 18 19  1  0
 19 20  2  0
 20 21  1  0
 20 22  1  0
 22 23  2  0
 23 24  1  0
 24 25  2  0
 24 26  1  0
 26 27  1  0
 27 28  1  0
 28 29  1  0
 29 30  2  0
 30 31  1  0
 31 32  2  0
 32 33  1  0
 32 34  1  0
 34 35  2  0
 28 36  2  0
 36 37  1  0
  7  2  1  0
 15 10  1  0
 23 17  1  0
 37 26  1  0
 26 13  1  0
 35 29  1  0
  1 38  1  0
  1 39  1  0
  1 40  1  0
  6 41  1  0
  6 42  1  0
  6 43  1  0
 11 44  1  0
 11 45  1  0
 12 46  1  0
 12 47  1  0
 14 48  1  0
 14 49  1  0
 15 50  1  0
 15 51  1  0
 18 52  1  0
 19 53  1  0
 22 54  1  0
 27 55  1  0
 27 56  1  0
 30 57  1  0
 31 58  1  0
 34 59  1  0
 35 60  1  0
M  END
$$$$
