
     RDKit          3D

 54 58  0  0  0  0  0  0  0  0999 V2000
    4.3728   -1.0642    2.3615 F   0  0  0  0  0  0  0  0  0  0  0  0
    5.4371   -0.3804    1.8531 C   0  0  0  0  0  0  0  0  0  0  0  0
    6.5271   -0.8473    2.5274 F   0  0  0  0  0  0  0  0  0  0  0  0
    5.2829    0.9105    2.2635 F   0  0  0  0  0  0  0  0  0  0  0  0
    5.5490   -0.5130    0.3486 C   0  0  0  0  0  0  0  0  0  0  0  0
    6.6286   -1.2440   -0.1870 C   0  0  0  0  0  0  0  0  0  0  0  0
    6.7812   -1.3947   -1.5630 C   0  0  0  0  0  0  0  0  0  0  0  0
    5.8583   -0.8166   -2.4245 C   0  0  0  0  0  0  0  0  0  0  0  0
    4.7800   -0.0919   -1.9137 C   0  0  0  0  0  0  0  0  0  0  0  0
    4.5934    0.0617   -0.5289 C   0  0  0  0  0  0  0  0  0  0  0  0
    3.4352    0.8809    0.0206 C   0  0  0  0  0  0  0  0  0  0  0  0
    2.1818    1.0864   -0.8622 C   0  0  0  0  0  0  0  0  0  0  0  0
    1.5459   -0.1462   -1.3616 N   0  0  0  0  0  0  0  0  0  0  0  0
    1.0200   -1.0234   -0.2919 C   0  0  0  0  0  0  0  0  0  0  0  0
   -0.2407   -0.4959    0.4265 C   0  0  0  0  0  0  0  0  0  0  0  0
   -1.3115   -0.1874   -0.5432 N   0  0  0  0  0  0  0  0  0  0  0  0
   -2.5905    0.0323   -0.0338 C   0  0  0  0  0  0  0  0  0  0  0  0
   -3.1342    1.2167   -0.1631 N   0  0  0  0  0  0  0  0  0  0  0  0
   -4.4123    1.4793    0.3694 C   0  0  0  0  0  0  0  0  0  0  0  0
   -4.9424    2.7622    0.2186 C   0  0  0  0  0  0  0  0  0  0  0  0
   -6.2013    3.0797    0.7358 C   0  0  0  0  0  0  0  0  0  0  0  0
   -6.9450    2.1120    1.4124 C   0  0  0  0  0  0  0  0  0  0  0  0
   -6.4358    0.8232    1.5748 C   0  0  0  0  0  0  0  0  0  0  0  0
   -5.1748    0.5206    1.0525 C   0  0  0  0  0  0  0  0  0  0  0  0
   -4.5928   -0.7527    1.1601 N   0  0  0  0  0  0  0  0  0  0  0  0
   -5.0872   -1.8973    1.7397 C   0  0  0  0  0  0  0  0  0  0  0  0
   -4.1764   -2.9115    1.5349 C   0  0  0  0  0  0  0  0  0  0  0  0
   -3.0887   -2.3595    0.8193 C   0  0  0  0  0  0  0  0  0  0  0  0
   -3.3504   -1.0145    0.6286 C   0  0  0  0  0  0  0  0  0  0  0  0
   -0.8477    0.7121   -1.6201 C   0  0  0  0  0  0  0  0  0  0  0  0
    0.4318    0.1638   -2.2898 C   0  0  0  0  0  0  0  0  0  0  0  0
    7.3639   -1.7012    0.4743 H   0  0  0  0  0  0  0  0  0  0  0  0
    7.6191   -1.9610   -1.9615 H   0  0  0  0  0  0  0  0  0  0  0  0
    5.9721   -0.9297   -3.4998 H   0  0  0  0  0  0  0  0  0  0  0  0
    4.0794    0.3410   -2.6239 H   0  0  0  0  0  0  0  0  0  0  0  0
    3.1000    0.4489    0.9693 H   0  0  0  0  0  0  0  0  0  0  0  0
    3.8354    1.8752    0.2602 H   0  0  0  0  0  0  0  0  0  0  0  0
    2.4788    1.7014   -1.7217 H   0  0  0  0  0  0  0  0  0  0  0  0
    1.4692    1.6953   -0.2929 H   0  0  0  0  0  0  0  0  0  0  0  0
    0.7725   -1.9900   -0.7519 H   0  0  0  0  0  0  0  0  0  0  0  0
    1.7965   -1.2535    0.4449 H   0  0  0  0  0  0  0  0  0  0  0  0
   -0.5660   -1.2558    1.1435 H   0  0  0  0  0  0  0  0  0  0  0  0
   -0.0020    0.4044    1.0057 H   0  0  0  0  0  0  0  0  0  0  0  0
   -4.3652    3.5185   -0.3064 H   0  0  0  0  0  0  0  0  0  0  0  0
   -6.5995    4.0832    0.6096 H   0  0  0  0  0  0  0  0  0  0  0  0
   -7.9243    2.3638    1.8123 H   0  0  0  0  0  0  0  0  0  0  0  0
   -7.0332    0.0869    2.1018 H   0  0  0  0  0  0  0  0  0  0  0  0
   -6.0467   -1.9164    2.2357 H   0  0  0  0  0  0  0  0  0  0  0  0
   -4.2904   -3.9387    1.8567 H   0  0  0  0  0  0  0  0  0  0  0  0
   -2.2079   -2.8859    0.4758 H   0  0  0  0  0  0  0  0  0  0  0  0
   -0.6660    1.7168   -1.2198 H   0  0  0  0  0  0  0  0  0  0  0  0
   -1.6249    0.7962   -2.3896 H   0  0  0  0  0  0  0  0  0  0  0  0
    0.1757   -0.7626   -2.8213 H   0  0  0  0  0  0  0  0  0  0  0  0
    0.7701    0.8620   -3.0652 H   0  0  0  0  0  0  0  0  0  0  0  0
  1  2  1  0
  2  3  1  0
  2  4  1  0
  2  5  1  0
  5  6  2  0
  6  7  1  0
  7  8  2  0
  8  9  1  0
  9 10  2  0
 10 11  1  0
 11 12  1  0
 12 13  1  0
 13 14  1  0
 14 15  1  0
 15 16  1  0
 16 17  1  0
 17 18  2  0
 18 19  1  0
 19 20  2  0
 20 21  1  0
 21 22  2  0
 22 23  1  0
 23 24  2  0
 24 25  1  0
 25 26  1  0
 26 27  2  0
 27 28  1  0
 28 29  2  0
 16 30  1  0
 30 31  1  0
 10  5  1  0
 31 13  1  0
 29 17  1  0
 24 19  1  0
 29 25  1  0
  6 32  1  0
  7 33  1  0
  8 34  1  0
  9 35  1  0
 11 36  1  0
 11 37  1  0
 12 38  1  0
 12 39  1  0
 14 40  1  0
 14 41  1  0
 15 42  1  0
 15 43  1  0
 20 44  1  0
 21 45  1  0
 22 46  1  0
 23 47  1  0
 26 48  1  0
 27 49  1  0
 28 50  1  0
 30 51  1  0
 30 52  1  0
 31 53  1  0
 31 54  1  0
M  END
$$$$
