
     RDKit          3D

 61 66  0  0  0  0  0  0  0  0999 V2000
    8.8165   -1.7587    1.6403 F   0  0  0  0  0  0  0  0  0  0  0  0
    7.8940   -0.9244    1.1413 C   0  0  0  0  0  0  0  0  0  0  0  0
    7.9456    0.4258    1.4681 C   0  0  0  0  0  0  0  0  0  0  0  0
    6.9884    1.2979    0.9457 C   0  0  0  0  0  0  0  0  0  0  0  0
    5.9796    0.8176    0.0938 C   0  0  0  0  0  0  0  0  0  0  0  0
    4.9439    1.7618   -0.4716 C   0  0  0  0  0  0  0  0  0  0  0  0
    3.5962    1.7378    0.2836 C   0  0  0  0  0  0  0  0  0  0  0  0
    2.7974    0.5076    0.1042 N   0  0  0  0  0  0  0  0  0  0  0  0
    1.6661    0.4942    1.0641 C   0  0  0  0  0  0  0  0  0  0  0  0
    0.7686   -0.7549    0.9258 C   0  0  0  0  0  0  0  0  0  0  0  0
    0.2564   -0.9103   -0.4591 N   0  0  0  0  0  0  0  0  0  0  0  0
   -0.9569   -0.3385   -0.7486 C   0  0  0  0  0  0  0  0  0  0  0  0
   -1.2511    0.7214   -1.5920 C   0  0  0  0  0  0  0  0  0  0  0  0
   -2.6154    1.0448   -1.4378 C   0  0  0  0  0  0  0  0  0  0  0  0
   -3.1490    0.1630   -0.5131 C   0  0  0  0  0  0  0  0  0  0  0  0
   -4.4732    0.0417    0.0614 C   0  0  0  0  0  0  0  0  0  0  0  0
   -5.4949    1.1007   -0.1478 C   0  0  0  0  0  0  0  0  0  0  0  0
   -6.8011    0.7199   -0.4838 C   0  0  0  0  0  0  0  0  0  0  0  0
   -7.7831    1.6942   -0.6741 C   0  0  0  0  0  0  0  0  0  0  0  0
   -7.4632    3.0461   -0.5193 C   0  0  0  0  0  0  0  0  0  0  0  0
   -6.1676    3.4271   -0.1624 C   0  0  0  0  0  0  0  0  0  0  0  0
   -5.1830    2.4547    0.0301 C   0  0  0  0  0  0  0  0  0  0  0  0
   -4.8001   -0.9990    0.7707 N   0  0  0  0  0  0  0  0  0  0  0  0
   -3.8464   -2.0157    0.9758 C   0  0  0  0  0  0  0  0  0  0  0  0
   -4.2532   -3.1489    1.6846 C   0  0  0  0  0  0  0  0  0  0  0  0
   -3.3755   -4.2144    1.8941 C   0  0  0  0  0  0  0  0  0  0  0  0
   -2.0813   -4.1584    1.3831 C   0  0  0  0  0  0  0  0  0  0  0  0
   -1.6553   -3.0329    0.6759 C   0  0  0  0  0  0  0  0  0  0  0  0
   -2.5264   -1.9527    0.4966 C   0  0  0  0  0  0  0  0  0  0  0  0
   -2.1749   -0.7765   -0.2140 N   0  0  0  0  0  0  0  0  0  0  0  0
    1.3479   -0.8517   -1.4522 C   0  0  0  0  0  0  0  0  0  0  0  0
    2.2513    0.3878   -1.2669 C   0  0  0  0  0  0  0  0  0  0  0  0
    5.9445   -0.5503   -0.2197 C   0  0  0  0  0  0  0  0  0  0  0  0
    6.9014   -1.4210    0.3036 C   0  0  0  0  0  0  0  0  0  0  0  0
    8.7297    0.7916    2.1255 H   0  0  0  0  0  0  0  0  0  0  0  0
    7.0366    2.3532    1.2080 H   0  0  0  0  0  0  0  0  0  0  0  0
    4.8165    1.5626   -1.5439 H   0  0  0  0  0  0  0  0  0  0  0  0
    5.3404    2.7891   -0.4204 H   0  0  0  0  0  0  0  0  0  0  0  0
    3.0049    2.6123   -0.0205 H   0  0  0  0  0  0  0  0  0  0  0  0
    3.8142    1.8681    1.3519 H   0  0  0  0  0  0  0  0  0  0  0  0
    1.0511    1.3938    0.9367 H   0  0  0  0  0  0  0  0  0  0  0  0
    2.0613    0.5092    2.0864 H   0  0  0  0  0  0  0  0  0  0  0  0
   -0.0481   -0.6899    1.6554 H   0  0  0  0  0  0  0  0  0  0  0  0
    1.3498   -1.6504    1.1813 H   0  0  0  0  0  0  0  0  0  0  0  0
   -0.5438    1.2597   -2.2092 H   0  0  0  0  0  0  0  0  0  0  0  0
   -3.1407    1.8508   -1.9352 H   0  0  0  0  0  0  0  0  0  0  0  0
   -7.0546   -0.3331   -0.5981 H   0  0  0  0  0  0  0  0  0  0  0  0
   -8.7973    1.3975   -0.9401 H   0  0  0  0  0  0  0  0  0  0  0  0
   -8.2305    3.8034   -0.6673 H   0  0  0  0  0  0  0  0  0  0  0  0
   -5.9254    4.4805   -0.0264 H   0  0  0  0  0  0  0  0  0  0  0  0
   -4.1852    2.7602    0.3377 H   0  0  0  0  0  0  0  0  0  0  0  0
   -5.2696   -3.1980    2.0696 H   0  0  0  0  0  0  0  0  0  0  0  0
   -3.7081   -5.0896    2.4440 H   0  0  0  0  0  0  0  0  0  0  0  0
   -1.4027   -4.9978    1.5261 H   0  0  0  0  0  0  0  0  0  0  0  0
   -0.6556   -3.0406    0.2541 H   0  0  0  0  0  0  0  0  0  0  0  0
    0.9531   -0.8803   -2.4757 H   0  0  0  0  0  0  0  0  0  0  0  0
    1.9592   -1.7558   -1.3365 H   0  0  0  0  0  0  0  0  0  0  0  0
    1.6873    1.2904   -1.5249 H   0  0  0  0  0  0  0  0  0  0  0  0
    3.0686    0.3001   -1.9872 H   0  0  0  0  0  0  0  0  0  0  0  0
    5.1636   -0.9434   -0.8674 H   0  0  0  0  0  0  0  0  0  0  0  0
    6.8790   -2.4792    0.0651 H   0  0  0  0  0  0  0  0  0  0  0  0
  1  2  1  0
  2  3  2  0
  3  4  1  0
  4  5  2  0
  5  6  1  0
  6  7  1  0
  7  8  1  0
  8  9  1  0
  9 10  1  0
 10 11  1  0
 11 12  1  0
 12 13  2  0
 13 14  1  0
 14 15  2  0
 15 16  1  0
 16 17  1  0
 17 18  2  0
 18 19  1  0
 19 20  2  0
 20 21  1  0
 21 22  2  0
 16 23  2  0
 23 24  1  0
 24 25  2  0
 25 26  1  0
 26 27  2  0
 27 28  1  0
 28 29  2  0
 29 30  1  0
 11 31  1  0
 31 32  1  0
  5 33  1  0
 33 34  2  0
 34  2  1  0
 32  8  1  0
 30 12  1  0
 30 15  1  0
 22 17  1  0
 29 24  1  0
  3 35  1  0
  4 36  1  0
  6 37  1  0
  6 38  1  0
  7 39  1  0
  7 40  1  0
  9 41  1  0
  9 42  1  0
 10 43  1  0
 10 44  1  0
 13 45  1  0
 14 46  1  0
 18 47  1  0
 19 48  1  0
 20 49  1  0
 21 50  1  0
 22 51  1  0
 25 52  1  0
 26 53  1  0
 27 54  1  0
 28 55  1  0
 31 56  1  0
 31 57  1  0
 32 58  1  0
 32 59  1  0
 33 60  1  0
 34 61  1  0
M  END
$$$$
