
     RDKit          3D

 32 32  0  0  0  0  0  0  0  0999 V2000
   -4.3841   -1.2606    1.5238 C   0  0  0  0  0  0  0  0  0  0  0  0
   -3.9703   -1.3073    0.3969 C   0  0  0  0  0  0  0  0  0  0  0  0
   -3.4640   -1.3747   -0.9848 C   0  0  0  0  0  0  0  0  0  0  0  0
   -2.9625   -0.0968   -1.5154 N   0  0  0  0  0  0  0  0  0  0  0  0
   -4.0457    0.8722   -1.6896 C   0  0  0  0  0  0  0  0  0  0  0  0
   -1.8531    0.4920   -0.7511 C   0  0  0  0  0  0  0  0  0  0  0  0
   -0.6062   -0.3951   -0.6936 C   0  0  0  0  0  0  0  0  0  0  0  0
    0.5556    0.3333   -0.0208 C   0  0  0  0  0  0  0  0  0  0  0  0
    1.6696   -0.5581    0.0148 O   0  0  0  0  0  0  0  0  0  0  0  0
    2.8321   -0.1157    0.5883 C   0  0  0  0  0  0  0  0  0  0  0  0
    3.0135    1.1614    1.1303 C   0  0  0  0  0  0  0  0  0  0  0  0
    4.2418    1.5219    1.6953 C   0  0  0  0  0  0  0  0  0  0  0  0
    5.2934    0.6088    1.7208 C   0  0  0  0  0  0  0  0  0  0  0  0
    6.7993    1.0616    2.4178 Cl  0  0  0  0  0  0  0  0  0  0  0  0
    5.1328   -0.6649    1.1870 C   0  0  0  0  0  0  0  0  0  0  0  0
    3.9059   -1.0235    0.6232 C   0  0  0  0  0  0  0  0  0  0  0  0
    3.7547   -2.6200   -0.0275 Cl  0  0  0  0  0  0  0  0  0  0  0  0
   -4.7516   -1.2212    2.5232 H   0  0  0  0  0  0  0  0  0  0  0  0
   -2.6793   -2.1367   -1.0518 H   0  0  0  0  0  0  0  0  0  0  0  0
   -4.2615   -1.7451   -1.6418 H   0  0  0  0  0  0  0  0  0  0  0  0
   -4.8492    0.4520   -2.3049 H   0  0  0  0  0  0  0  0  0  0  0  0
   -4.4744    1.2016   -0.7366 H   0  0  0  0  0  0  0  0  0  0  0  0
   -3.6825    1.7588   -2.2217 H   0  0  0  0  0  0  0  0  0  0  0  0
   -2.1678    0.7563    0.2665 H   0  0  0  0  0  0  0  0  0  0  0  0
   -1.5629    1.4327   -1.2378 H   0  0  0  0  0  0  0  0  0  0  0  0
   -0.3051   -0.7003   -1.7039 H   0  0  0  0  0  0  0  0  0  0  0  0
   -0.8029   -1.3208   -0.1403 H   0  0  0  0  0  0  0  0  0  0  0  0
    0.8108    1.2285   -0.6004 H   0  0  0  0  0  0  0  0  0  0  0  0
    0.2681    0.6146    0.9993 H   0  0  0  0  0  0  0  0  0  0  0  0
    2.2211    1.9029    1.1299 H   0  0  0  0  0  0  0  0  0  0  0  0
    4.3698    2.5178    2.1130 H   0  0  0  0  0  0  0  0  0  0  0  0
    5.9543   -1.3754    1.2079 H   0  0  0  0  0  0  0  0  0  0  0  0
  1  2  3  0
  2  3  1  0
  3  4  1  0
  4  5  1  0
  4  6  1  0
  6  7  1  0
  7  8  1  0
  8  9  1  0
  9 10  1  0
 10 11  2  0
 11 12  1  0
 12 13  2  0
 13 14  1  0
 13 15  1  0
 15 16  2  0
 16 17  1  0
 16 10  1  0
  1 18  1  0
  3 19  1  0
  3 20  1  0
  5 21  1  0
  5 22  1  0
  5 23  1  0
  6 24  1  0
  6 25  1  0
  7 26  1  0
  7 27  1  0
  8 28  1  0
  8 29  1  0
 11 30  1  0
 12 31  1  0
 15 32  1  0
M  END
$$$$
