
     RDKit          3D

 57 60  0  0  0  0  0  0  0  0999 V2000
   -7.0868   -0.5373    4.4033 C   0  0  0  0  0  0  0  0  0  0  0  0
   -6.1749    0.4388    3.9144 O   0  0  0  0  0  0  0  0  0  0  0  0
   -5.4058    0.0832    2.8397 C   0  0  0  0  0  0  0  0  0  0  0  0
   -5.4626   -1.1326    2.1600 C   0  0  0  0  0  0  0  0  0  0  0  0
   -4.6202   -1.3727    1.0678 C   0  0  0  0  0  0  0  0  0  0  0  0
   -3.7141   -0.3987    0.6501 C   0  0  0  0  0  0  0  0  0  0  0  0
   -2.8259   -0.5595   -0.4364 N   0  0  0  0  0  0  0  0  0  0  0  0
   -2.6501   -1.6583   -1.2512 C   0  0  0  0  0  0  0  0  0  0  0  0
   -3.2963   -2.7038   -1.1904 O   0  0  0  0  0  0  0  0  0  0  0  0
   -1.6191   -1.4793   -2.3534 C   0  0  0  0  0  0  0  0  0  0  0  0
   -0.4057   -0.7951   -1.9249 N   0  0  0  0  0  0  0  0  0  0  0  0
    0.6217   -1.4070   -1.2574 C   0  0  0  0  0  0  0  0  0  0  0  0
    1.5758   -0.4493   -0.9820 C   0  0  0  0  0  0  0  0  0  0  0  0
    3.0817   -0.7218   -0.1673 S   0  0  0  0  0  6  0  0  0  0  0  0
    3.2145    0.4160    0.7209 O   0  0  0  0  0  0  0  0  0  0  0  0
    2.9775   -2.0846    0.3180 O   0  0  0  0  0  0  0  0  0  0  0  0
    4.2668   -0.6267   -1.5047 C   0  0  0  0  0  0  0  0  0  0  0  0
    5.6497   -0.8655   -0.9589 C   0  0  0  0  0  0  0  0  0  0  0  0
    6.4231    0.2039   -0.4846 C   0  0  0  0  0  0  0  0  0  0  0  0
    7.7020   -0.0203    0.0270 C   0  0  0  0  0  0  0  0  0  0  0  0
    8.2195   -1.3131    0.0724 C   0  0  0  0  0  0  0  0  0  0  0  0
    7.4575   -2.3840   -0.3897 C   0  0  0  0  0  0  0  0  0  0  0  0
    6.1783   -2.1632   -0.9018 C   0  0  0  0  0  0  0  0  0  0  0  0
    1.1211    0.7919   -1.5122 C   0  0  0  0  0  0  0  0  0  0  0  0
    1.6327    2.1079   -1.5398 C   0  0  0  0  0  0  0  0  0  0  0  0
    0.9099    3.1239   -2.1719 C   0  0  0  0  0  0  0  0  0  0  0  0
   -0.3123    2.8507   -2.7739 C   0  0  0  0  0  0  0  0  0  0  0  0
   -0.8484    1.5606   -2.7577 C   0  0  0  0  0  0  0  0  0  0  0  0
   -0.1173    0.5432   -2.1206 C   0  0  0  0  0  0  0  0  0  0  0  0
   -3.6511    0.8306    1.3377 C   0  0  0  0  0  0  0  0  0  0  0  0
   -2.7315    1.7299    0.8475 O   0  0  0  0  0  0  0  0  0  0  0  0
   -2.4797    2.8868    1.6358 C   0  0  0  0  0  0  0  0  0  0  0  0
   -4.4994    1.0634    2.4231 C   0  0  0  0  0  0  0  0  0  0  0  0
   -6.5599   -1.4337    4.7464 H   0  0  0  0  0  0  0  0  0  0  0  0
   -7.8410   -0.7848    3.6492 H   0  0  0  0  0  0  0  0  0  0  0  0
   -7.6069   -0.1067    5.2645 H   0  0  0  0  0  0  0  0  0  0  0  0
   -6.1501   -1.9206    2.4493 H   0  0  0  0  0  0  0  0  0  0  0  0
   -4.6965   -2.3330    0.5681 H   0  0  0  0  0  0  0  0  0  0  0  0
   -2.2275    0.2536   -0.5698 H   0  0  0  0  0  0  0  0  0  0  0  0
   -2.0682   -0.9325   -3.1868 H   0  0  0  0  0  0  0  0  0  0  0  0
   -1.3119   -2.4653   -2.7207 H   0  0  0  0  0  0  0  0  0  0  0  0
    0.5928   -2.4629   -1.0123 H   0  0  0  0  0  0  0  0  0  0  0  0
    4.1984    0.3628   -1.9663 H   0  0  0  0  0  0  0  0  0  0  0  0
    4.0044   -1.3828   -2.2517 H   0  0  0  0  0  0  0  0  0  0  0  0
    6.0324    1.2198   -0.4975 H   0  0  0  0  0  0  0  0  0  0  0  0
    8.2922    0.8138    0.3982 H   0  0  0  0  0  0  0  0  0  0  0  0
    9.2132   -1.4873    0.4766 H   0  0  0  0  0  0  0  0  0  0  0  0
    7.8567   -3.3941   -0.3435 H   0  0  0  0  0  0  0  0  0  0  0  0
    5.5940   -3.0157   -1.2436 H   0  0  0  0  0  0  0  0  0  0  0  0
    2.5770    2.3484   -1.0569 H   0  0  0  0  0  0  0  0  0  0  0  0
    1.3056    4.1368   -2.1846 H   0  0  0  0  0  0  0  0  0  0  0  0
   -0.8642    3.6538   -3.2581 H   0  0  0  0  0  0  0  0  0  0  0  0
   -1.8104    1.3713   -3.2244 H   0  0  0  0  0  0  0  0  0  0  0  0
   -2.1605    2.6164    2.6481 H   0  0  0  0  0  0  0  0  0  0  0  0
   -1.6609    3.4392    1.1644 H   0  0  0  0  0  0  0  0  0  0  0  0
   -3.3551    3.5436    1.6575 H   0  0  0  0  0  0  0  0  0  0  0  0
   -4.4842    2.0018    2.9668 H   0  0  0  0  0  0  0  0  0  0  0  0
  1  2  1  0
  2  3  1  0
  3  4  2  0
  4  5  1  0
  5  6  2  0
  6  7  1  0
  7  8  1  0
  8  9  2  0
  8 10  1  0
 10 11  1  0
 11 12  1  0
 12 13  2  0
 13 14  1  0
 14 15  2  0
 14 16  2  0
 14 17  1  0
 17 18  1  0
 18 19  2  0
 19 20  1  0
 20 21  2  0
 21 22  1  0
 22 23  2  0
 13 24  1  0
 24 25  2  0
 25 26  1  0
 26 27  2  0
 27 28  1  0
 28 29  2  0
  6 30  1  0
 30 31  1  0
 31 32  1  0
 30 33  2  0
 33  3  1  0
 29 11  1  0
 23 18  1  0
 29 24  1  0
  1 34  1  0
  1 35  1  0
  1 36  1  0
  4 37  1  0
  5 38  1  0
  7 39  1  0
 10 40  1  0
 10 41  1  0
 12 42  1  0
 17 43  1  0
 17 44  1  0
 19 45  1  0
 20 46  1  0
 21 47  1  0
 22 48  1  0
 23 49  1  0
 25 50  1  0
 26 51  1  0
 27 52  1  0
 28 53  1  0
 32 54  1  0
 32 55  1  0
 32 56  1  0
 33 57  1  0
M  END
$$$$
