
     RDKit          3D

 53 56  0  0  0  0  0  0  0  0999 V2000
    7.7146    1.0489    2.2587 C   0  0  0  0  0  0  0  0  0  0  0  0
    7.1599    1.6276    1.0835 O   0  0  0  0  0  0  0  0  0  0  0  0
    6.0541    1.0166    0.5601 C   0  0  0  0  0  0  0  0  0  0  0  0
    5.5377    1.6219   -0.5857 C   0  0  0  0  0  0  0  0  0  0  0  0
    4.4100    1.0965   -1.2233 C   0  0  0  0  0  0  0  0  0  0  0  0
    3.7754   -0.0438   -0.7192 C   0  0  0  0  0  0  0  0  0  0  0  0
    2.6538   -0.5211   -1.4242 N   0  0  0  0  0  0  0  0  0  0  0  0
    1.7535   -1.4884   -1.0234 C   0  0  0  0  0  0  0  0  0  0  0  0
    1.7671   -2.0878    0.0508 O   0  0  0  0  0  0  0  0  0  0  0  0
    0.7086   -1.8504   -2.0715 C   0  0  0  0  0  0  0  0  0  0  0  0
    0.0172   -0.4380   -2.9802 S   0  0  0  0  0  0  0  0  0  0  0  0
   -0.3570    0.6600   -1.6897 C   0  0  0  0  0  0  0  0  0  0  0  0
    0.3426    1.7474   -1.4724 N   0  0  0  0  0  0  0  0  0  0  0  0
   -0.0866    2.2876   -0.2933 N   0  0  0  0  0  0  0  0  0  0  0  0
   -1.0598    1.5319    0.1856 C   0  0  0  0  0  0  0  0  0  0  0  0
   -1.8792    1.8778    1.3876 C   0  0  0  0  0  0  0  0  0  0  0  0
   -3.2555    2.3740    1.0352 C   0  0  0  0  0  0  0  0  0  0  0  0
   -4.4535    1.6848    1.0489 C   0  0  0  0  0  0  0  0  0  0  0  0
   -5.5522    2.4944    0.6428 C   0  0  0  0  0  0  0  0  0  0  0  0
   -5.1630    3.7833    0.3547 C   0  0  0  0  0  0  0  0  0  0  0  0
   -3.4821    4.0063    0.5556 S   0  0  0  0  0  0  0  0  0  0  0  0
   -1.2657    0.4552   -0.6678 N   0  0  0  0  0  0  0  0  0  0  0  0
   -2.1908   -0.6065   -0.5235 C   0  0  0  0  0  0  0  0  0  0  0  0
   -3.0152   -0.9610   -1.5979 C   0  0  0  0  0  0  0  0  0  0  0  0
   -3.9200   -2.0151   -1.4577 C   0  0  0  0  0  0  0  0  0  0  0  0
   -3.9943   -2.7366   -0.2594 C   0  0  0  0  0  0  0  0  0  0  0  0
   -4.9857   -3.8547   -0.1123 C   0  0  0  0  0  0  0  0  0  0  0  0
   -3.1672   -2.3714    0.8105 C   0  0  0  0  0  0  0  0  0  0  0  0
   -2.2643   -1.3126    0.6819 C   0  0  0  0  0  0  0  0  0  0  0  0
    4.2923   -0.6483    0.4268 C   0  0  0  0  0  0  0  0  0  0  0  0
    5.4266   -0.1221    1.0639 C   0  0  0  0  0  0  0  0  0  0  0  0
    7.0001    1.0772    3.0889 H   0  0  0  0  0  0  0  0  0  0  0  0
    8.0630    0.0276    2.0683 H   0  0  0  0  0  0  0  0  0  0  0  0
    8.5853    1.6470    2.5471 H   0  0  0  0  0  0  0  0  0  0  0  0
    6.0122    2.5160   -0.9828 H   0  0  0  0  0  0  0  0  0  0  0  0
    4.0308    1.6027   -2.1072 H   0  0  0  0  0  0  0  0  0  0  0  0
    2.3892    0.0171   -2.2453 H   0  0  0  0  0  0  0  0  0  0  0  0
   -0.1069   -2.3906   -1.5807 H   0  0  0  0  0  0  0  0  0  0  0  0
    1.1737   -2.5345   -2.7887 H   0  0  0  0  0  0  0  0  0  0  0  0
   -1.9527    1.0291    2.0743 H   0  0  0  0  0  0  0  0  0  0  0  0
   -1.3507    2.6548    1.9575 H   0  0  0  0  0  0  0  0  0  0  0  0
   -4.5435    0.6388    1.3220 H   0  0  0  0  0  0  0  0  0  0  0  0
   -6.5783    2.1519    0.5665 H   0  0  0  0  0  0  0  0  0  0  0  0
   -5.7830    4.6067    0.0300 H   0  0  0  0  0  0  0  0  0  0  0  0
   -2.9990   -0.4086   -2.5361 H   0  0  0  0  0  0  0  0  0  0  0  0
   -4.5707   -2.2704   -2.2926 H   0  0  0  0  0  0  0  0  0  0  0  0
   -5.9584   -3.4545    0.1900 H   0  0  0  0  0  0  0  0  0  0  0  0
   -5.1023   -4.3966   -1.0574 H   0  0  0  0  0  0  0  0  0  0  0  0
   -4.6532   -4.5791    0.6383 H   0  0  0  0  0  0  0  0  0  0  0  0
   -3.2099   -2.9222    1.7488 H   0  0  0  0  0  0  0  0  0  0  0  0
   -1.5963   -1.0967    1.5129 H   0  0  0  0  0  0  0  0  0  0  0  0
    3.8418   -1.5410    0.8508 H   0  0  0  0  0  0  0  0  0  0  0  0
    5.7875   -0.6311    1.9511 H   0  0  0  0  0  0  0  0  0  0  0  0
  1  2  1  0
  2  3  1  0
  3  4  2  0
  4  5  1  0
  5  6  2  0
  6  7  1  0
  7  8  1  0
  8  9  2  0
  8 10  1  0
 10 11  1  0
 11 12  1  0
 12 13  2  0
 13 14  1  0
 14 15  2  0
 15 16  1  0
 16 17  1  0
 17 18  2  0
 18 19  1  0
 19 20  2  0
 20 21  1  0
 15 22  1  0
 22 23  1  0
 23 24  2  0
 24 25  1  0
 25 26  2  0
 26 27  1  0
 26 28  1  0
 28 29  2  0
  6 30  1  0
 30 31  2  0
 31  3  1  0
 22 12  1  0
 29 23  1  0
 21 17  1  0
  1 32  1  0
  1 33  1  0
  1 34  1  0
  4 35  1  0
  5 36  1  0
  7 37  1  0
 10 38  1  0
 10 39  1  0
 16 40  1  0
 16 41  1  0
 18 42  1  0
 19 43  1  0
 20 44  1  0
 24 45  1  0
 25 46  1  0
 27 47  1  0
 27 48  1  0
 27 49  1  0
 28 50  1  0
 29 51  1  0
 30 52  1  0
 31 53  1  0
M  END
$$$$
