
     RDKit          3D

 48 50  0  0  0  0  0  0  0  0999 V2000
    4.3794   -3.4997    2.0266 C   0  0  0  0  0  0  0  0  0  0  0  0
    4.0919   -3.0947    0.6843 O   0  0  0  0  0  0  0  0  0  0  0  0
    2.9082   -2.4204    0.5419 C   0  0  0  0  0  0  0  0  0  0  0  0
    1.7271   -2.8354    1.1568 C   0  0  0  0  0  0  0  0  0  0  0  0
    0.5435   -2.1229    0.9593 C   0  0  0  0  0  0  0  0  0  0  0  0
    0.5318   -1.0182    0.1121 C   0  0  0  0  0  0  0  0  0  0  0  0
   -0.7105   -0.2639   -0.1367 C   0  0  0  0  0  0  0  0  0  0  0  0
   -1.7703   -0.4225    0.6022 N   0  0  0  0  0  0  0  0  0  0  0  0
   -2.8786    0.2772    0.1876 N   0  0  0  0  0  0  0  0  0  0  0  0
   -3.3996    0.1437   -1.1089 C   0  0  0  0  0  0  0  0  0  0  0  0
   -2.7681   -0.2643   -2.0717 O   0  0  0  0  0  0  0  0  0  0  0  0
   -4.8450    0.5493   -1.2162 C   0  0  0  0  0  0  0  0  0  0  0  0
   -5.2659    1.3410   -0.1688 N   0  0  0  0  0  0  0  0  0  0  0  0
   -6.5235    1.8340   -0.2448 C   0  0  0  0  0  0  0  0  0  0  0  0
   -6.9083    2.8672    1.0986 Cl  0  0  0  0  0  0  0  0  0  0  0  0
   -7.4098    1.5632   -1.2809 C   0  0  0  0  0  0  0  0  0  0  0  0
   -8.9941    2.2601   -1.3412 Cl  0  0  0  0  0  0  0  0  0  0  0  0
   -7.0072    0.6574   -2.2816 C   0  0  0  0  0  0  0  0  0  0  0  0
   -7.8389    0.4008   -3.4130 N   0  0  0  0  0  0  0  0  0  0  0  0
   -5.6791    0.1683   -2.2653 C   0  0  0  0  0  0  0  0  0  0  0  0
   -5.1945   -0.9230   -3.5229 Cl  0  0  0  0  0  0  0  0  0  0  0  0
    1.7014   -0.6135   -0.5292 C   0  0  0  0  0  0  0  0  0  0  0  0
    2.9068   -1.3002   -0.3056 C   0  0  0  0  0  0  0  0  0  0  0  0
    4.1951   -0.7674   -0.9080 C   0  0  0  0  0  0  0  0  0  0  0  0
    5.0796   -0.2039    0.0827 O   0  0  0  0  0  0  0  0  0  0  0  0
    4.5886    0.9404    0.6575 C   0  0  0  0  0  0  0  0  0  0  0  0
    4.4689    2.1267   -0.0732 C   0  0  0  0  0  0  0  0  0  0  0  0
    3.9958    3.2785    0.5601 C   0  0  0  0  0  0  0  0  0  0  0  0
    3.6494    3.2293    1.9109 C   0  0  0  0  0  0  0  0  0  0  0  0
    3.1993    4.3451    2.5090 F   0  0  0  0  0  0  0  0  0  0  0  0
    3.7873    2.0573    2.6522 C   0  0  0  0  0  0  0  0  0  0  0  0
    4.2752    0.9231    2.0195 C   0  0  0  0  0  0  0  0  0  0  0  0
    4.4429   -0.1996    2.7379 F   0  0  0  0  0  0  0  0  0  0  0  0
    4.1808   -2.6907    2.7480 H   0  0  0  0  0  0  0  0  0  0  0  0
    3.8185   -4.4068    2.2923 H   0  0  0  0  0  0  0  0  0  0  0  0
    5.4444   -3.7480    2.0842 H   0  0  0  0  0  0  0  0  0  0  0  0
    1.7091   -3.7121    1.7892 H   0  0  0  0  0  0  0  0  0  0  0  0
   -0.3664   -2.4430    1.4567 H   0  0  0  0  0  0  0  0  0  0  0  0
   -0.6798    0.4658   -0.9727 H   0  0  0  0  0  0  0  0  0  0  0  0
   -3.5623    0.4565    0.9350 H   0  0  0  0  0  0  0  0  0  0  0  0
   -7.6197   -0.4839   -3.8865 H   0  0  0  0  0  0  0  0  0  0  0  0
   -8.8360    0.5194   -3.2292 H   0  0  0  0  0  0  0  0  0  0  0  0
    1.6880    0.2503   -1.1901 H   0  0  0  0  0  0  0  0  0  0  0  0
    4.0027   -0.0410   -1.7049 H   0  0  0  0  0  0  0  0  0  0  0  0
    4.7319   -1.5937   -1.3945 H   0  0  0  0  0  0  0  0  0  0  0  0
    4.7618    2.1632   -1.1153 H   0  0  0  0  0  0  0  0  0  0  0  0
    3.9157    4.2186    0.0078 H   0  0  0  0  0  0  0  0  0  0  0  0
    3.5326    2.0324    3.7082 H   0  0  0  0  0  0  0  0  0  0  0  0
  1  2  1  0
  2  3  1  0
  3  4  2  0
  4  5  1  0
  5  6  2  0
  6  7  1  0
  7  8  2  3
  8  9  1  0
  9 10  1  0
 10 11  2  0
 10 12  1  0
 12 13  2  0
 13 14  1  0
 14 15  1  0
 14 16  2  0
 16 17  1  0
 16 18  1  0
 18 19  1  0
 18 20  2  0
 20 21  1  0
  6 22  1  0
 22 23  2  0
 23 24  1  0
 24 25  1  0
 25 26  1  0
 26 27  2  0
 27 28  1  0
 28 29  2  0
 29 30  1  0
 29 31  1  0
 31 32  2  0
 32 33  1  0
 23  3  1  0
 32 26  1  0
 20 12  1  0
  1 34  1  0
  1 35  1  0
  1 36  1  0
  4 37  1  0
  5 38  1  0
  7 39  1  0
  9 40  1  0
 19 41  1  0
 19 42  1  0
 22 43  1  0
 24 44  1  0
 24 45  1  0
 27 46  1  0
 28 47  1  0
 31 48  1  0
M  END
$$$$
