
     RDKit          3D

 46 49  0  0  0  0  0  0  0  0999 V2000
    2.5885    2.8027   -2.4465 O   0  0  0  0  0  0  0  0  0  0  0  0
    2.4106    1.5972   -2.2990 C   0  0  0  0  0  0  0  0  0  0  0  0
    1.0112    1.0071   -2.2583 C   0  0  0  0  0  0  0  0  0  0  0  0
    0.5373    0.7205   -0.5261 S   0  0  0  0  0  0  0  0  0  0  0  0
   -0.9974   -0.0388   -0.7578 C   0  0  0  0  0  0  0  0  0  0  0  0
   -1.4438   -0.5170   -1.8932 N   0  0  0  0  0  0  0  0  0  0  0  0
   -2.6760   -1.0667   -1.6575 N   0  0  0  0  0  0  0  0  0  0  0  0
   -2.9648   -0.9122   -0.3780 C   0  0  0  0  0  0  0  0  0  0  0  0
   -4.2050   -1.4162    0.2888 C   0  0  0  0  0  0  0  0  0  0  0  0
   -5.1262   -0.3379    0.7891 C   0  0  0  0  0  0  0  0  0  0  0  0
   -5.5509   -0.1176    2.0867 C   0  0  0  0  0  0  0  0  0  0  0  0
   -6.4324    0.9964    2.1892 C   0  0  0  0  0  0  0  0  0  0  0  0
   -6.6658    1.5820    0.9658 C   0  0  0  0  0  0  0  0  0  0  0  0
   -5.8316    0.7875   -0.2964 S   0  0  0  0  0  0  0  0  0  0  0  0
   -1.9148   -0.2572    0.2348 N   0  0  0  0  0  0  0  0  0  0  0  0
   -1.8200    0.1391    1.6256 C   0  0  0  0  0  0  0  0  0  0  0  0
   -1.4241   -1.0094    2.4764 C   0  0  0  0  0  0  0  0  0  0  0  0
   -0.2412   -1.6962    2.6611 C   0  0  0  0  0  0  0  0  0  0  0  0
   -0.5087   -2.7008    3.6220 C   0  0  0  0  0  0  0  0  0  0  0  0
   -1.8319   -2.5603    3.9666 C   0  0  0  0  0  0  0  0  0  0  0  0
   -2.3957   -1.5352    3.2781 O   0  0  0  0  0  0  0  0  0  0  0  0
    3.4003    0.6393   -2.1488 N   0  0  0  0  0  0  0  0  0  0  0  0
    4.8028    0.8231   -2.1464 C   0  0  0  0  0  0  0  0  0  0  0  0
    5.4153    2.0589   -2.3719 C   0  0  0  0  0  0  0  0  0  0  0  0
    6.8106    2.1734   -2.3592 C   0  0  0  0  0  0  0  0  0  0  0  0
    7.6022    1.0527   -2.1219 C   0  0  0  0  0  0  0  0  0  0  0  0
    9.3153    1.2033   -2.1080 Cl  0  0  0  0  0  0  0  0  0  0  0  0
    7.0157   -0.1875   -1.8963 C   0  0  0  0  0  0  0  0  0  0  0  0
    5.6236   -0.2981   -1.9096 C   0  0  0  0  0  0  0  0  0  0  0  0
    4.9305   -1.8599   -1.6199 Cl  0  0  0  0  0  0  0  0  0  0  0  0
    0.3171    1.7088   -2.7321 H   0  0  0  0  0  0  0  0  0  0  0  0
    0.9979    0.0721   -2.8287 H   0  0  0  0  0  0  0  0  0  0  0  0
   -3.9261   -2.0819    1.1136 H   0  0  0  0  0  0  0  0  0  0  0  0
   -4.7584   -2.0447   -0.4215 H   0  0  0  0  0  0  0  0  0  0  0  0
   -5.2398   -0.7272    2.9275 H   0  0  0  0  0  0  0  0  0  0  0  0
   -6.8781    1.3472    3.1121 H   0  0  0  0  0  0  0  0  0  0  0  0
   -7.2936    2.4351    0.7478 H   0  0  0  0  0  0  0  0  0  0  0  0
   -2.7825    0.5554    1.9303 H   0  0  0  0  0  0  0  0  0  0  0  0
   -1.0967    0.9535    1.7251 H   0  0  0  0  0  0  0  0  0  0  0  0
    0.6987   -1.4999    2.1627 H   0  0  0  0  0  0  0  0  0  0  0  0
    0.1784   -3.4363    4.0171 H   0  0  0  0  0  0  0  0  0  0  0  0
   -2.4867   -3.0825    4.6507 H   0  0  0  0  0  0  0  0  0  0  0  0
    3.0944   -0.3139   -1.9711 H   0  0  0  0  0  0  0  0  0  0  0  0
    4.8384    2.9583   -2.5648 H   0  0  0  0  0  0  0  0  0  0  0  0
    7.2679    3.1441   -2.5371 H   0  0  0  0  0  0  0  0  0  0  0  0
    7.6355   -1.0602   -1.7117 H   0  0  0  0  0  0  0  0  0  0  0  0
  1  2  2  0
  2  3  1  0
  3  4  1  0
  4  5  1  0
  5  6  2  0
  6  7  1  0
  7  8  2  0
  8  9  1  0
  9 10  1  0
 10 11  2  0
 11 12  1  0
 12 13  2  0
 13 14  1  0
  8 15  1  0
 15 16  1  0
 16 17  1  0
 17 18  2  0
 18 19  1  0
 19 20  2  0
 20 21  1  0
  2 22  1  0
 22 23  1  0
 23 24  2  0
 24 25  1  0
 25 26  2  0
 26 27  1  0
 26 28  1  0
 28 29  2  0
 29 30  1  0
 15  5  1  0
 21 17  1  0
 29 23  1  0
 14 10  1  0
  3 31  1  0
  3 32  1  0
  9 33  1  0
  9 34  1  0
 11 35  1  0
 12 36  1  0
 13 37  1  0
 16 38  1  0
 16 39  1  0
 18 40  1  0
 19 41  1  0
 20 42  1  0
 22 43  1  0
 24 44  1  0
 25 45  1  0
 28 46  1  0
M  END
$$$$
