
     RDKit          3D

 39 41  0  0  0  0  0  0  0  0999 V2000
    5.4375   -0.2932    0.4804 C   0  0  0  0  0  0  0  0  0  0  0  0
    4.5067    0.8671    0.7849 C   0  0  0  0  0  0  0  0  0  0  0  0
    3.7879    1.3218   -0.3954 N   0  0  0  0  0  0  0  0  0  0  0  0
    4.3651    2.2767   -1.1616 N   0  0  0  0  0  0  0  0  0  0  0  0
    3.4803    2.4831   -2.1358 C   0  0  0  0  0  0  0  0  0  0  0  0
    2.3383    1.6919   -1.9735 C   0  0  0  0  0  0  0  0  0  0  0  0
    0.9165    1.6861   -3.1932 Br  0  0  0  0  0  0  0  0  0  0  0  0
    2.5286    0.9499   -0.8244 C   0  0  0  0  0  0  0  0  0  0  0  0
    1.7027   -0.0440   -0.1649 C   0  0  0  0  0  0  0  0  0  0  0  0
    2.2103   -0.9555    0.4766 O   0  0  0  0  0  0  0  0  0  0  0  0
    0.3472    0.1922   -0.2979 N   0  0  0  0  0  0  0  0  0  0  0  0
   -0.7063   -0.5815    0.1714 C   0  0  0  0  0  0  0  0  0  0  0  0
   -0.4152   -2.1379    0.8440 S   0  0  0  0  0  0  0  0  0  0  0  0
   -2.0423   -2.3822    1.0836 C   0  0  0  0  0  0  0  0  0  0  0  0
   -2.8217   -1.3395    0.6755 C   0  0  0  0  0  0  0  0  0  0  0  0
   -2.0673   -0.2542    0.1411 C   0  0  0  0  0  0  0  0  0  0  0  0
   -2.6545    0.9966   -0.3398 C   0  0  0  0  0  0  0  0  0  0  0  0
   -3.8605    1.2150   -0.3339 O   0  0  0  0  0  0  0  0  0  0  0  0
   -1.7245    1.8987   -0.7807 O   0  0  0  0  0  0  0  0  0  0  0  0
   -2.2858    3.1372   -1.2223 C   0  0  0  0  0  0  0  0  0  0  0  0
   -4.2596   -1.6258    0.9194 C   0  0  0  0  0  0  0  0  0  0  0  0
   -4.2478   -3.1579    1.2186 C   0  0  0  0  0  0  0  0  0  0  0  0
   -2.7961   -3.5190    1.6584 C   0  0  0  0  0  0  0  0  0  0  0  0
    4.8910   -1.1537    0.0813 H   0  0  0  0  0  0  0  0  0  0  0  0
    6.1917   -0.0081   -0.2608 H   0  0  0  0  0  0  0  0  0  0  0  0
    5.9587   -0.6099    1.3896 H   0  0  0  0  0  0  0  0  0  0  0  0
    5.0813    1.7208    1.1647 H   0  0  0  0  0  0  0  0  0  0  0  0
    3.7795    0.6082    1.5598 H   0  0  0  0  0  0  0  0  0  0  0  0
    3.7148    3.1954   -2.9161 H   0  0  0  0  0  0  0  0  0  0  0  0
    0.0716    1.0592   -0.7483 H   0  0  0  0  0  0  0  0  0  0  0  0
   -1.4681    3.7721   -1.5752 H   0  0  0  0  0  0  0  0  0  0  0  0
   -2.7871    3.6470   -0.3933 H   0  0  0  0  0  0  0  0  0  0  0  0
   -2.9792    2.9723   -2.0543 H   0  0  0  0  0  0  0  0  0  0  0  0
   -4.6169   -1.0686    1.7908 H   0  0  0  0  0  0  0  0  0  0  0  0
   -4.8916   -1.3996    0.0568 H   0  0  0  0  0  0  0  0  0  0  0  0
   -4.4858   -3.7023    0.2953 H   0  0  0  0  0  0  0  0  0  0  0  0
   -4.9930   -3.4419    1.9682 H   0  0  0  0  0  0  0  0  0  0  0  0
   -2.4898   -4.4904    1.2604 H   0  0  0  0  0  0  0  0  0  0  0  0
   -2.7166   -3.5260    2.7506 H   0  0  0  0  0  0  0  0  0  0  0  0
  1  2  1  0
  2  3  1  0
  3  4  1  0
  4  5  2  0
  5  6  1  0
  6  7  1  0
  6  8  2  0
  8  9  1  0
  9 10  2  0
  9 11  1  0
 11 12  1  0
 12 13  1  0
 13 14  1  0
 14 15  2  0
 15 16  1  0
 16 17  1  0
 17 18  2  0
 17 19  1  0
 19 20  1  0
 15 21  1  0
 21 22  1  0
 22 23  1  0
  8  3  1  0
 16 12  2  0
 23 14  1  0
  1 24  1  0
  1 25  1  0
  1 26  1  0
  2 27  1  0
  2 28  1  0
  5 29  1  0
 11 30  1  0
 20 31  1  0
 20 32  1  0
 20 33  1  0
 21 34  1  0
 21 35  1  0
 22 36  1  0
 22 37  1  0
 23 38  1  0
 23 39  1  0
M  END
$$$$
