
     RDKit          3D

 32 33  0  0  0  0  0  0  0  0999 V2000
   -4.0416    0.6210   -1.5660 C   0  0  0  0  0  0  0  0  0  0  0  0
   -3.3841   -0.6411   -1.0284 C   0  0  0  0  0  0  0  0  0  0  0  0
   -3.3926   -0.7172    0.4997 C   0  0  0  0  0  0  0  0  0  0  0  0
   -2.4151    0.2364    1.2014 C   0  0  0  0  0  0  0  0  0  0  0  0
   -1.0091   -0.1286    1.0079 N   0  0  0  0  0  0  0  0  0  0  0  0
   -0.4914   -1.2356    1.6062 C   0  0  0  0  0  0  0  0  0  0  0  0
   -1.0306   -2.0361    2.3427 O   0  0  0  0  0  0  0  0  0  0  0  0
    0.9711   -1.2976    1.1857 C   0  0  0  0  0  0  0  0  0  0  0  0
    1.7123   -2.1936    1.5407 O   0  0  0  0  0  0  0  0  0  0  0  0
    1.1862   -0.1748    0.4261 N   0  0  0  0  0  0  0  0  0  0  0  0
    2.4769    0.1456   -0.0968 C   0  0  0  0  0  0  0  0  0  0  0  0
    2.9281    1.4674   -0.2215 C   0  0  0  0  0  0  0  0  0  0  0  0
    4.2009    1.7577   -0.7280 C   0  0  0  0  0  0  0  0  0  0  0  0
    5.0540    0.7289   -1.1100 C   0  0  0  0  0  0  0  0  0  0  0  0
    4.6384   -0.5903   -0.9760 C   0  0  0  0  0  0  0  0  0  0  0  0
    3.3662   -0.8775   -0.4691 C   0  0  0  0  0  0  0  0  0  0  0  0
   -0.0191    0.5291    0.2879 C   0  0  0  0  0  0  0  0  0  0  0  0
   -0.3140    1.8936   -0.6441 S   0  0  0  0  0  0  0  0  0  0  0  0
   -3.5238    1.5243   -1.2351 H   0  0  0  0  0  0  0  0  0  0  0  0
   -4.0338    0.6115   -2.6606 H   0  0  0  0  0  0  0  0  0  0  0  0
   -5.0840    0.6870   -1.2379 H   0  0  0  0  0  0  0  0  0  0  0  0
   -3.9378   -1.5034   -1.4196 H   0  0  0  0  0  0  0  0  0  0  0  0
   -2.3631   -0.7268   -1.4147 H   0  0  0  0  0  0  0  0  0  0  0  0
   -4.4067   -0.5081    0.8621 H   0  0  0  0  0  0  0  0  0  0  0  0
   -3.1698   -1.7502    0.7917 H   0  0  0  0  0  0  0  0  0  0  0  0
   -2.6072    0.1795    2.2804 H   0  0  0  0  0  0  0  0  0  0  0  0
   -2.5968    1.2718    0.9046 H   0  0  0  0  0  0  0  0  0  0  0  0
    2.3320    2.3094    0.1165 H   0  0  0  0  0  0  0  0  0  0  0  0
    4.5268    2.7919   -0.8109 H   0  0  0  0  0  0  0  0  0  0  0  0
    6.0428    0.9541   -1.5012 H   0  0  0  0  0  0  0  0  0  0  0  0
    5.3013   -1.4024   -1.2648 H   0  0  0  0  0  0  0  0  0  0  0  0
    3.0835   -1.9259   -0.3994 H   0  0  0  0  0  0  0  0  0  0  0  0
  1  2  1  0
  2  3  1  0
  3  4  1  0
  4  5  1  0
  5  6  1  0
  6  7  2  0
  6  8  1  0
  8  9  2  0
  8 10  1  0
 10 11  1  0
 11 12  2  0
 12 13  1  0
 13 14  2  0
 14 15  1  0
 15 16  2  0
 10 17  1  0
 17 18  2  0
 17  5  1  0
 16 11  1  0
  1 19  1  0
  1 20  1  0
  1 21  1  0
  2 22  1  0
  2 23  1  0
  3 24  1  0
  3 25  1  0
  4 26  1  0
  4 27  1  0
 12 28  1  0
 13 29  1  0
 14 30  1  0
 15 31  1  0
 16 32  1  0
M  END
$$$$
