
     RDKit          3D

 61 67  0  0  0  0  0  0  0  0999 V2000
    3.3074    1.5382   -2.0425 O   0  0  0  0  0  0  0  0  0  0  0  0
    3.2098    0.6726   -1.1758 C   0  0  0  0  0  0  0  0  0  0  0  0
    4.4273    0.3163   -0.4130 C   0  0  0  0  0  0  0  0  0  0  0  0
    4.8586   -1.0258   -0.3379 C   0  0  0  0  0  0  0  0  0  0  0  0
    6.0206   -1.3532    0.3666 C   0  0  0  0  0  0  0  0  0  0  0  0
    6.7202   -0.3232    0.9601 C   0  0  0  0  0  0  0  0  0  0  0  0
    6.3083    0.9873    0.8665 C   0  0  0  0  0  0  0  0  0  0  0  0
    5.1690    1.3451    0.1796 C   0  0  0  0  0  0  0  0  0  0  0  0
    7.1457    1.8404    1.5146 O   0  0  0  0  0  0  0  0  0  0  0  0
    8.1383    0.9212    2.0165 C   0  0  0  0  0  0  0  0  0  0  0  0
    7.8671   -0.4555    1.6785 O   0  0  0  0  0  0  0  0  0  0  0  0
    2.0122    0.0162   -0.8878 N   0  0  0  0  0  0  0  0  0  0  0  0
    1.7609   -0.7274    0.3489 C   0  0  0  0  0  0  0  0  0  0  0  0
    0.3274   -0.5273    0.8315 C   0  0  0  0  0  0  0  0  0  0  0  0
   -0.6973   -1.0432   -0.2149 C   0  0  0  0  0  0  0  0  0  0  0  0
   -0.1936   -0.7858   -1.6624 C   0  0  0  0  0  0  0  0  0  0  0  0
    0.8691    0.3023   -1.7440 C   0  0  0  0  0  0  0  0  0  0  0  0
   -0.6740   -2.4852   -0.0005 O   0  0  0  0  0  0  0  0  0  0  0  0
   -1.7344   -3.2150   -0.4466 C   0  0  0  0  0  0  0  0  0  0  0  0
   -1.5558   -4.5997   -0.4744 C   0  0  0  0  0  0  0  0  0  0  0  0
   -2.5802   -5.4277   -0.9367 C   0  0  0  0  0  0  0  0  0  0  0  0
   -3.7779   -4.8648   -1.3651 C   0  0  0  0  0  0  0  0  0  0  0  0
   -4.7564   -5.6617   -1.8123 F   0  0  0  0  0  0  0  0  0  0  0  0
   -3.9746   -3.4909   -1.3323 C   0  0  0  0  0  0  0  0  0  0  0  0
   -2.9466   -2.6713   -0.8585 C   0  0  0  0  0  0  0  0  0  0  0  0
   -3.1276   -1.2166   -0.7871 C   0  0  0  0  0  0  0  0  0  0  0  0
   -4.0528   -0.6886   -1.3990 O   0  0  0  0  0  0  0  0  0  0  0  0
   -2.1107   -0.4533    0.0560 C   0  0  0  0  0  0  0  0  0  0  0  0
   -2.2461    1.0477   -0.1618 C   0  0  0  0  0  0  0  0  0  0  0  0
   -3.1514    1.3622    0.9812 C   0  0  0  0  0  0  0  0  0  0  0  0
   -3.8545    2.6617    1.0971 C   0  0  0  0  0  0  0  0  0  0  0  0
   -4.7550    2.8522    2.1545 C   0  0  0  0  0  0  0  0  0  0  0  0
   -5.4321    4.0667    2.2957 C   0  0  0  0  0  0  0  0  0  0  0  0
   -5.2087    5.0927    1.3807 C   0  0  0  0  0  0  0  0  0  0  0  0
   -6.0393    6.5889    1.5524 Cl  0  0  0  0  0  0  0  0  0  0  0  0
   -4.3138    4.9144    0.3266 C   0  0  0  0  0  0  0  0  0  0  0  0
   -3.6348    3.6994    0.1831 C   0  0  0  0  0  0  0  0  0  0  0  0
   -3.2422    0.4281    1.8738 N   0  0  0  0  0  0  0  0  0  0  0  0
   -2.4590   -0.6610    1.4352 O   0  0  0  0  0  0  0  0  0  0  0  0
    4.2975   -1.8091   -0.8419 H   0  0  0  0  0  0  0  0  0  0  0  0
    6.3689   -2.3777    0.4368 H   0  0  0  0  0  0  0  0  0  0  0  0
    4.8630    2.3824    0.0994 H   0  0  0  0  0  0  0  0  0  0  0  0
    8.1798    1.0121    3.1080 H   0  0  0  0  0  0  0  0  0  0  0  0
    9.1147    1.1984    1.6026 H   0  0  0  0  0  0  0  0  0  0  0  0
    2.4517   -0.4003    1.1321 H   0  0  0  0  0  0  0  0  0  0  0  0
    1.9563   -1.7858    0.1435 H   0  0  0  0  0  0  0  0  0  0  0  0
    0.1857    0.5373    1.0446 H   0  0  0  0  0  0  0  0  0  0  0  0
    0.2025   -1.0626    1.7814 H   0  0  0  0  0  0  0  0  0  0  0  0
    0.2341   -1.7099   -2.0750 H   0  0  0  0  0  0  0  0  0  0  0  0
   -1.0222   -0.5201   -2.3287 H   0  0  0  0  0  0  0  0  0  0  0  0
    1.2108    0.4060   -2.7805 H   0  0  0  0  0  0  0  0  0  0  0  0
    0.4640    1.2746   -1.4433 H   0  0  0  0  0  0  0  0  0  0  0  0
   -0.6166   -5.0350   -0.1418 H   0  0  0  0  0  0  0  0  0  0  0  0
   -2.4520   -6.5056   -0.9665 H   0  0  0  0  0  0  0  0  0  0  0  0
   -4.9220   -3.0744   -1.6621 H   0  0  0  0  0  0  0  0  0  0  0  0
   -1.3185    1.6033   -0.0094 H   0  0  0  0  0  0  0  0  0  0  0  0
   -2.6711    1.3231   -1.1297 H   0  0  0  0  0  0  0  0  0  0  0  0
   -4.9382    2.0560    2.8742 H   0  0  0  0  0  0  0  0  0  0  0  0
   -6.1294    4.2017    3.1185 H   0  0  0  0  0  0  0  0  0  0  0  0
   -4.1405    5.7167   -0.3865 H   0  0  0  0  0  0  0  0  0  0  0  0
   -2.9419    3.5924   -0.6461 H   0  0  0  0  0  0  0  0  0  0  0  0
  1  2  2  0
  2  3  1  0
  3  4  2  0
  4  5  1  0
  5  6  2  0
  6  7  1  0
  7  8  2  0
  7  9  1  0
  9 10  1  0
 10 11  1  0
  2 12  1  0
 12 13  1  0
 13 14  1  0
 14 15  1  0
 15 16  1  0
 16 17  1  0
 15 18  1  0
 18 19  1  0
 19 20  2  0
 20 21  1  0
 21 22  2  0
 22 23  1  0
 22 24  1  0
 24 25  2  0
 25 26  1  0
 26 27  2  0
 26 28  1  0
 28 29  1  0
 29 30  1  0
 30 31  1  0
 31 32  2  0
 32 33  1  0
 33 34  2  0
 34 35  1  0
 34 36  1  0
 36 37  2  0
 30 38  2  0
 38 39  1  0
  8  3  1  0
 17 12  1  0
 25 19  1  0
 39 28  1  0
 11  6  1  0
 28 15  1  0
 37 31  1  0
  4 40  1  0
  5 41  1  0
  8 42  1  0
 10 43  1  0
 10 44  1  0
 13 45  1  0
 13 46  1  0
 14 47  1  0
 14 48  1  0
 16 49  1  0
 16 50  1  0
 17 51  1  0
 17 52  1  0
 20 53  1  0
 21 54  1  0
 24 55  1  0
 29 56  1  0
 29 57  1  0
 32 58  1  0
 33 59  1  0
 36 60  1  0
 37 61  1  0
M  END
$$$$
