
     RDKit          3D

 43 45  0  0  0  0  0  0  0  0999 V2000
   -1.1211    2.3150    2.3609 C   0  0  0  0  0  0  0  0  0  0  0  0
   -1.8699    2.6175    1.0969 C   0  0  0  0  0  0  0  0  0  0  0  0
   -1.8041    3.6817    0.4955 O   0  0  0  0  0  0  0  0  0  0  0  0
   -2.6404    1.5102    0.7623 O   0  0  0  0  0  0  0  0  0  0  0  0
   -3.2803    1.6344   -0.4770 C   0  0  0  0  0  0  0  0  0  0  0  0
   -4.6457    1.9269   -0.4640 C   0  0  0  0  0  0  0  0  0  0  0  0
   -5.3326    2.0400   -1.6706 C   0  0  0  0  0  0  0  0  0  0  0  0
   -4.6567    1.8528   -2.8769 C   0  0  0  0  0  0  0  0  0  0  0  0
   -3.2925    1.5425   -2.8813 C   0  0  0  0  0  0  0  0  0  0  0  0
   -2.5869    1.4104   -1.6787 C   0  0  0  0  0  0  0  0  0  0  0  0
   -1.1535    1.0907   -1.7400 C   0  0  0  0  0  0  0  0  0  0  0  0
   -0.6071    0.0762   -1.0508 C   0  0  0  0  0  0  0  0  0  0  0  0
    0.8203   -0.2512   -1.0186 C   0  0  0  0  0  0  0  0  0  0  0  0
    1.6665   -0.0693   -2.1020 C   0  0  0  0  0  0  0  0  0  0  0  0
    3.0034   -0.4312   -1.9699 C   0  0  0  0  0  0  0  0  0  0  0  0
    3.4636   -0.9764   -0.7663 C   0  0  0  0  0  0  0  0  0  0  0  0
    4.8128   -1.3440   -0.5946 C   0  0  0  0  0  0  0  0  0  0  0  0
    5.2581   -1.8786    0.6146 C   0  0  0  0  0  0  0  0  0  0  0  0
    4.3589   -2.0581    1.6574 C   0  0  0  0  0  0  0  0  0  0  0  0
    3.0192   -1.7086    1.4661 C   0  0  0  0  0  0  0  0  0  0  0  0
    2.1435   -1.8802    2.5484 O   0  0  0  0  0  0  0  0  0  0  0  0
    1.3634   -3.0192    2.4027 C   0  0  0  0  0  0  0  0  0  0  0  0
    0.3010   -3.0127    3.4612 C   0  0  0  0  0  0  0  0  0  0  0  0
    1.5179   -3.9223    1.5905 O   0  0  0  0  0  0  0  0  0  0  0  0
    2.5348   -1.1488    0.2792 C   0  0  0  0  0  0  0  0  0  0  0  0
    1.2370   -0.7872    0.1509 N   0  0  0  0  0  0  0  0  0  0  0  0
   -1.8263    2.1584    3.1808 H   0  0  0  0  0  0  0  0  0  0  0  0
   -0.4748    3.1615    2.6100 H   0  0  0  0  0  0  0  0  0  0  0  0
   -0.4931    1.4318    2.2181 H   0  0  0  0  0  0  0  0  0  0  0  0
   -5.1666    2.0753    0.4769 H   0  0  0  0  0  0  0  0  0  0  0  0
   -6.3932    2.2779   -1.6727 H   0  0  0  0  0  0  0  0  0  0  0  0
   -5.1926    1.9469   -3.8183 H   0  0  0  0  0  0  0  0  0  0  0  0
   -2.7886    1.3954   -3.8339 H   0  0  0  0  0  0  0  0  0  0  0  0
   -0.5578    1.7492   -2.3659 H   0  0  0  0  0  0  0  0  0  0  0  0
   -1.2204   -0.5566   -0.4135 H   0  0  0  0  0  0  0  0  0  0  0  0
    1.3061    0.3370   -3.0403 H   0  0  0  0  0  0  0  0  0  0  0  0
    3.6782   -0.2889   -2.8102 H   0  0  0  0  0  0  0  0  0  0  0  0
    5.5259   -1.2115   -1.4058 H   0  0  0  0  0  0  0  0  0  0  0  0
    6.3019   -2.1558    0.7382 H   0  0  0  0  0  0  0  0  0  0  0  0
    4.6886   -2.4744    2.6042 H   0  0  0  0  0  0  0  0  0  0  0  0
   -0.2773   -2.0869    3.4010 H   0  0  0  0  0  0  0  0  0  0  0  0
   -0.3796   -3.8528    3.2960 H   0  0  0  0  0  0  0  0  0  0  0  0
    0.7601   -3.1169    4.4472 H   0  0  0  0  0  0  0  0  0  0  0  0
  1  2  1  0
  2  3  2  0
  2  4  1  0
  4  5  1  0
  5  6  2  0
  6  7  1  0
  7  8  2  0
  8  9  1  0
  9 10  2  0
 10 11  1  0
 11 12  2  0
 12 13  1  0
 13 14  2  0
 14 15  1  0
 15 16  2  0
 16 17  1  0
 17 18  2  0
 18 19  1  0
 19 20  2  0
 20 21  1  0
 21 22  1  0
 22 23  1  0
 22 24  2  0
 20 25  1  0
 25 26  2  0
 10  5  1  0
 26 13  1  0
 25 16  1  0
  1 27  1  0
  1 28  1  0
  1 29  1  0
  6 30  1  0
  7 31  1  0
  8 32  1  0
  9 33  1  0
 11 34  1  0
 12 35  1  0
 14 36  1  0
 15 37  1  0
 17 38  1  0
 18 39  1  0
 19 40  1  0
 23 41  1  0
 23 42  1  0
 23 43  1  0
M  END
$$$$
