
     RDKit          3D

 51 54  0  0  0  0  0  0  0  0999 V2000
    5.6436   -0.1100   -3.3064 C   0  0  0  0  0  0  0  0  0  0  0  0
    5.5667    0.9938   -2.2623 C   0  0  0  0  0  0  0  0  0  0  0  0
    4.2815    0.9409   -1.4769 C   0  0  0  0  0  0  0  0  0  0  0  0
    4.2002    0.2204   -0.2832 C   0  0  0  0  0  0  0  0  0  0  0  0
    3.0017    0.1736    0.4405 C   0  0  0  0  0  0  0  0  0  0  0  0
    1.8466    0.8385   -0.0058 C   0  0  0  0  0  0  0  0  0  0  0  0
    0.6100    0.8013    0.7538 N   0  0  0  0  0  0  0  0  0  0  0  0
   -0.2176    1.9302    0.7375 C   0  0  0  0  0  0  0  0  0  0  0  0
    0.0451    3.0124    0.2113 O   0  0  0  0  0  0  0  0  0  0  0  0
   -1.4982    1.8437    1.4558 C   0  0  0  0  0  0  0  0  0  0  0  0
   -2.4060    2.9152    1.3732 C   0  0  0  0  0  0  0  0  0  0  0  0
   -3.6156    2.8662    2.0588 C   0  0  0  0  0  0  0  0  0  0  0  0
   -3.9171    1.7493    2.8267 C   0  0  0  0  0  0  0  0  0  0  0  0
   -3.0101    0.6864    2.9093 C   0  0  0  0  0  0  0  0  0  0  0  0
   -1.7840    0.7204    2.2228 C   0  0  0  0  0  0  0  0  0  0  0  0
   -0.8469   -0.3428    2.2683 N   0  0  0  0  0  0  0  0  0  0  0  0
   -1.1567   -1.5746    3.0123 C   0  0  0  0  0  0  0  0  0  0  0  0
   -2.0641   -2.4665    2.1650 C   0  0  0  0  0  0  0  0  0  0  0  0
   -3.2558   -2.6209    2.4227 O   0  0  0  0  0  0  0  0  0  0  0  0
   -1.4376   -3.0168    1.0630 N   0  0  0  0  0  0  0  0  0  0  0  0
   -2.2120   -3.4344   -0.0814 C   0  0  0  0  0  0  0  0  0  0  0  0
   -2.5796   -2.2159   -0.8494 C   0  0  0  0  0  0  0  0  0  0  0  0
   -3.7226   -1.4418   -0.8943 C   0  0  0  0  0  0  0  0  0  0  0  0
   -3.4472   -0.3711   -1.7781 C   0  0  0  0  0  0  0  0  0  0  0  0
   -2.1552   -0.5571   -2.2137 C   0  0  0  0  0  0  0  0  0  0  0  0
   -1.6179   -1.6725   -1.6517 O   0  0  0  0  0  0  0  0  0  0  0  0
    0.2878   -0.3656    1.4565 C   0  0  0  0  0  0  0  0  0  0  0  0
    0.9163   -1.4271    1.3543 O   0  0  0  0  0  0  0  0  0  0  0  0
    1.9433    1.5474   -1.2143 C   0  0  0  0  0  0  0  0  0  0  0  0
    3.1394    1.5976   -1.9405 C   0  0  0  0  0  0  0  0  0  0  0  0
    4.8027   -0.0527   -4.0065 H   0  0  0  0  0  0  0  0  0  0  0  0
    5.6297   -1.1019   -2.8407 H   0  0  0  0  0  0  0  0  0  0  0  0
    6.5719   -0.0226   -3.8849 H   0  0  0  0  0  0  0  0  0  0  0  0
    5.6538    1.9721   -2.7517 H   0  0  0  0  0  0  0  0  0  0  0  0
    6.4224    0.9198   -1.5795 H   0  0  0  0  0  0  0  0  0  0  0  0
    5.0706   -0.3062    0.1020 H   0  0  0  0  0  0  0  0  0  0  0  0
    3.0092   -0.3728    1.3803 H   0  0  0  0  0  0  0  0  0  0  0  0
   -2.1686    3.7932    0.7739 H   0  0  0  0  0  0  0  0  0  0  0  0
   -4.3168    3.6945    1.9912 H   0  0  0  0  0  0  0  0  0  0  0  0
   -4.8629    1.6948    3.3627 H   0  0  0  0  0  0  0  0  0  0  0  0
   -3.3160   -0.1647    3.5121 H   0  0  0  0  0  0  0  0  0  0  0  0
   -0.2405   -2.1291    3.2456 H   0  0  0  0  0  0  0  0  0  0  0  0
   -1.6220   -1.3490    3.9760 H   0  0  0  0  0  0  0  0  0  0  0  0
   -0.4793   -2.7252    0.8773 H   0  0  0  0  0  0  0  0  0  0  0  0
   -1.5911   -4.1060   -0.6824 H   0  0  0  0  0  0  0  0  0  0  0  0
   -3.1058   -3.9762    0.2491 H   0  0  0  0  0  0  0  0  0  0  0  0
   -4.6305   -1.6289   -0.3391 H   0  0  0  0  0  0  0  0  0  0  0  0
   -4.1062    0.4379   -2.0578 H   0  0  0  0  0  0  0  0  0  0  0  0
   -1.5073   -0.0157   -2.8911 H   0  0  0  0  0  0  0  0  0  0  0  0
    1.0828    2.0598   -1.6364 H   0  0  0  0  0  0  0  0  0  0  0  0
    3.1662    2.1585   -2.8721 H   0  0  0  0  0  0  0  0  0  0  0  0
  1  2  1  0
  2  3  1  0
  3  4  2  0
  4  5  1  0
  5  6  2  0
  6  7  1  0
  7  8  1  0
  8  9  2  0
  8 10  1  0
 10 11  2  0
 11 12  1  0
 12 13  2  0
 13 14  1  0
 14 15  2  0
 15 16  1  0
 16 17  1  0
 17 18  1  0
 18 19  2  0
 18 20  1  0
 20 21  1  0
 21 22  1  0
 22 23  2  0
 23 24  1  0
 24 25  2  0
 25 26  1  0
 16 27  1  0
 27 28  2  0
  6 29  1  0
 29 30  2  0
 30  3  1  0
 27  7  1  0
 15 10  1  0
 26 22  1  0
  1 31  1  0
  1 32  1  0
  1 33  1  0
  2 34  1  0
  2 35  1  0
  4 36  1  0
  5 37  1  0
 11 38  1  0
 12 39  1  0
 13 40  1  0
 14 41  1  0
 17 42  1  0
 17 43  1  0
 20 44  1  0
 21 45  1  0
 21 46  1  0
 23 47  1  0
 24 48  1  0
 25 49  1  0
 29 50  1  0
 30 51  1  0
M  END
$$$$
