
     RDKit          3D

 62 65  0  0  0  0  0  0  0  0999 V2000
   -2.5770   -2.2361    1.7331 C   0  0  0  0  0  0  0  0  0  0  0  0
   -2.2589   -1.8208    0.3012 C   0  0  0  0  0  0  0  0  0  0  0  0
   -2.7565   -0.4759   -0.0131 N   0  0  0  0  0  0  0  0  0  0  0  0
   -2.2742    0.7251    0.5465 C   0  0  0  0  0  0  0  0  0  0  0  0
   -1.0075    1.1434    0.7426 C   0  0  0  0  0  0  0  0  0  0  0  0
    0.2043    0.5012    0.2833 C   0  0  0  0  0  0  0  0  0  0  0  0
    1.4220    0.9406    0.6307 C   0  0  0  0  0  0  0  0  0  0  0  0
    2.6515    0.3438    0.0683 C   0  0  0  0  0  0  0  0  0  0  0  0
    3.0186   -0.9040    0.1166 N   0  0  0  0  0  4  0  0  0  0  0  0
    2.3764   -2.0601    0.7741 C   0  0  0  0  0  0  0  0  0  0  0  0
    1.7159   -2.9600   -0.2554 C   0  0  0  0  0  0  0  0  0  0  0  0
    4.3344   -1.0519   -0.5358 C   0  0  0  0  0  0  0  0  0  0  0  0
    5.1094   -2.1884   -0.6861 C   0  0  0  0  0  0  0  0  0  0  0  0
    6.3300   -2.0553   -1.3533 C   0  0  0  0  0  0  0  0  0  0  0  0
    6.7457   -0.8073   -1.8457 C   0  0  0  0  0  0  0  0  0  0  0  0
    5.9521    0.3294   -1.6768 C   0  0  0  0  0  0  0  0  0  0  0  0
    4.7439    0.1888   -1.0135 C   0  0  0  0  0  0  0  0  0  0  0  0
    3.7011    1.2155   -0.6697 C   0  0  0  0  0  0  0  0  0  0  0  0
    3.0918    1.8348   -1.9306 C   0  0  0  0  0  0  0  0  0  0  0  0
    4.2739    2.2928    0.2558 C   0  0  0  0  0  0  0  0  0  0  0  0
   -3.4895    1.6578    0.8744 C   0  0  0  0  0  0  0  0  0  0  0  0
   -3.3947    3.0168    0.1642 C   0  0  0  0  0  0  0  0  0  0  0  0
   -3.6541    1.8393    2.3899 C   0  0  0  0  0  0  0  0  0  0  0  0
   -4.6432    0.8514    0.3129 C   0  0  0  0  0  0  0  0  0  0  0  0
   -5.9941    1.1735    0.2655 C   0  0  0  0  0  0  0  0  0  0  0  0
   -6.8771    0.2477   -0.2882 C   0  0  0  0  0  0  0  0  0  0  0  0
   -6.4046   -0.9752   -0.7822 C   0  0  0  0  0  0  0  0  0  0  0  0
   -5.0425   -1.2910   -0.7261 C   0  0  0  0  0  0  0  0  0  0  0  0
   -4.1609   -0.3752   -0.1703 C   0  0  0  0  0  0  0  0  0  0  0  0
   -2.1697   -3.2322    1.9336 H   0  0  0  0  0  0  0  0  0  0  0  0
   -2.1372   -1.5408    2.4555 H   0  0  0  0  0  0  0  0  0  0  0  0
   -3.6558   -2.2717    1.9145 H   0  0  0  0  0  0  0  0  0  0  0  0
   -2.6530   -2.5648   -0.4002 H   0  0  0  0  0  0  0  0  0  0  0  0
   -1.1763   -1.8674    0.1688 H   0  0  0  0  0  0  0  0  0  0  0  0
   -0.8686    2.1108    1.2253 H   0  0  0  0  0  0  0  0  0  0  0  0
    0.0791   -0.3025   -0.4343 H   0  0  0  0  0  0  0  0  0  0  0  0
    1.5478    1.8103    1.2707 H   0  0  0  0  0  0  0  0  0  0  0  0
    1.6328   -1.6882    1.4859 H   0  0  0  0  0  0  0  0  0  0  0  0
    3.1338   -2.5993    1.3531 H   0  0  0  0  0  0  0  0  0  0  0  0
    2.4478   -3.4237   -0.9240 H   0  0  0  0  0  0  0  0  0  0  0  0
    1.0046   -2.4126   -0.8813 H   0  0  0  0  0  0  0  0  0  0  0  0
    1.1720   -3.7661    0.2477 H   0  0  0  0  0  0  0  0  0  0  0  0
    4.8139   -3.1629   -0.3136 H   0  0  0  0  0  0  0  0  0  0  0  0
    6.9715   -2.9247   -1.4967 H   0  0  0  0  0  0  0  0  0  0  0  0
    7.7016   -0.7264   -2.3636 H   0  0  0  0  0  0  0  0  0  0  0  0
    6.2876    1.2907   -2.0585 H   0  0  0  0  0  0  0  0  0  0  0  0
    3.8464    2.3657   -2.5219 H   0  0  0  0  0  0  0  0  0  0  0  0
    2.6430    1.0706   -2.5765 H   0  0  0  0  0  0  0  0  0  0  0  0
    2.3015    2.5512   -1.6796 H   0  0  0  0  0  0  0  0  0  0  0  0
    3.5141    3.0354    0.5229 H   0  0  0  0  0  0  0  0  0  0  0  0
    4.6490    1.8603    1.1911 H   0  0  0  0  0  0  0  0  0  0  0  0
    5.1047    2.8284   -0.2176 H   0  0  0  0  0  0  0  0  0  0  0  0
   -4.3052    3.6094    0.3114 H   0  0  0  0  0  0  0  0  0  0  0  0
   -2.5582    3.6139    0.5432 H   0  0  0  0  0  0  0  0  0  0  0  0
   -3.2555    2.8968   -0.9171 H   0  0  0  0  0  0  0  0  0  0  0  0
   -2.8061    2.3824    2.8217 H   0  0  0  0  0  0  0  0  0  0  0  0
   -4.5618    2.4063    2.6275 H   0  0  0  0  0  0  0  0  0  0  0  0
   -3.7285    0.8749    2.9070 H   0  0  0  0  0  0  0  0  0  0  0  0
   -6.3629    2.1191    0.6497 H   0  0  0  0  0  0  0  0  0  0  0  0
   -7.9393    0.4758   -0.3400 H   0  0  0  0  0  0  0  0  0  0  0  0
   -7.1052   -1.6835   -1.2190 H   0  0  0  0  0  0  0  0  0  0  0  0
   -4.7043   -2.2358   -1.1345 H   0  0  0  0  0  0  0  0  0  0  0  0
  1  2  1  0
  2  3  1  0
  3  4  1  0
  4  5  2  3
  5  6  1  0
  6  7  2  3
  7  8  1  0
  8  9  2  0
  9 10  1  0
 10 11  1  0
  9 12  1  0
 12 13  2  0
 13 14  1  0
 14 15  2  0
 15 16  1  0
 16 17  2  0
 17 18  1  0
 18 19  1  0
 18 20  1  0
  4 21  1  0
 21 22  1  0
 21 23  1  0
 21 24  1  0
 24 25  2  0
 25 26  1  0
 26 27  2  0
 27 28  1  0
 28 29  2  0
 29  3  1  0
 18  8  1  0
 29 24  1  0
 17 12  1  0
  1 30  1  0
  1 31  1  0
  1 32  1  0
  2 33  1  0
  2 34  1  0
  5 35  1  0
  6 36  1  0
  7 37  1  0
 10 38  1  0
 10 39  1  0
 11 40  1  0
 11 41  1  0
 11 42  1  0
 13 43  1  0
 14 44  1  0
 15 45  1  0
 16 46  1  0
 19 47  1  0
 19 48  1  0
 19 49  1  0
 20 50  1  0
 20 51  1  0
 20 52  1  0
 22 53  1  0
 22 54  1  0
 22 55  1  0
 23 56  1  0
 23 57  1  0
 23 58  1  0
 25 59  1  0
 26 60  1  0
 27 61  1  0
 28 62  1  0
M  CHG  1   9   1
M  END
$$$$
