
     RDKit          3D

 64 67  0  0  0  0  0  0  0  0999 V2000
    7.4906   -5.2322   -2.4275 C   0  0  0  0  0  0  0  0  0  0  0  0
    7.1075   -4.0697   -1.7009 O   0  0  0  0  0  0  0  0  0  0  0  0
    6.0026   -3.3975   -2.1429 C   0  0  0  0  0  0  0  0  0  0  0  0
    5.1587   -3.7930   -3.1787 C   0  0  0  0  0  0  0  0  0  0  0  0
    4.0628   -2.9948   -3.5360 C   0  0  0  0  0  0  0  0  0  0  0  0
    3.7970   -1.7924   -2.8670 C   0  0  0  0  0  0  0  0  0  0  0  0
    2.7002   -1.0332   -3.3219 N   0  0  0  0  0  0  0  0  0  0  0  0
    2.2425    0.1759   -2.8233 C   0  0  0  0  0  0  0  0  0  0  0  0
    2.6399    0.7378   -1.8042 O   0  0  0  0  0  0  0  0  0  0  0  0
    1.1179    0.7855   -3.6794 C   0  0  0  0  0  0  0  0  0  0  0  0
   -0.0958    0.9728   -2.8927 N   0  0  0  0  0  0  0  0  0  0  0  0
   -0.1937    2.2075   -2.1173 C   0  0  0  0  0  0  0  0  0  0  0  0
   -0.8907   -0.1490   -2.7129 C   0  0  0  0  0  0  0  0  0  0  0  0
   -0.7643   -1.1785   -3.3728 O   0  0  0  0  0  0  0  0  0  0  0  0
   -1.9351   -0.0867   -1.6688 C   0  0  0  0  0  0  0  0  0  0  0  0
   -1.5566   -0.0275   -0.3837 C   0  0  0  0  0  0  0  0  0  0  0  0
   -2.4383    0.1229    0.7236 C   0  0  0  0  0  0  0  0  0  0  0  0
   -3.5969   -0.5826    0.9465 C   0  0  0  0  0  0  0  0  0  0  0  0
   -4.1351   -0.1022    2.1217 N   0  0  0  0  0  0  0  0  0  0  0  0
   -5.3191   -0.5314    2.7880 C   0  0  0  0  0  0  0  0  0  0  0  0
   -5.6845    0.0812    3.9973 C   0  0  0  0  0  0  0  0  0  0  0  0
   -6.8382   -0.3210    4.6730 C   0  0  0  0  0  0  0  0  0  0  0  0
   -7.6351   -1.3331    4.1468 C   0  0  0  0  0  0  0  0  0  0  0  0
   -7.2815   -1.9448    2.9462 C   0  0  0  0  0  0  0  0  0  0  0  0
   -6.1252   -1.5510    2.2651 C   0  0  0  0  0  0  0  0  0  0  0  0
   -3.3882    0.9096    2.6312 N   0  0  0  0  0  0  0  0  0  0  0  0
   -2.3424    1.0406    1.8050 C   0  0  0  0  0  0  0  0  0  0  0  0
   -1.3390    2.0781    2.0330 C   0  0  0  0  0  0  0  0  0  0  0  0
   -1.7429    3.4093    2.1993 C   0  0  0  0  0  0  0  0  0  0  0  0
   -0.7953    4.4221    2.3692 C   0  0  0  0  0  0  0  0  0  0  0  0
    0.5718    4.1197    2.3753 C   0  0  0  0  0  0  0  0  0  0  0  0
    1.5832    5.2095    2.5796 C   0  0  0  0  0  0  0  0  0  0  0  0
    0.9746    2.7857    2.2392 C   0  0  0  0  0  0  0  0  0  0  0  0
    0.0260    1.7710    2.0703 C   0  0  0  0  0  0  0  0  0  0  0  0
    4.6359   -1.4091   -1.8200 C   0  0  0  0  0  0  0  0  0  0  0  0
    5.7262   -2.2107   -1.4588 C   0  0  0  0  0  0  0  0  0  0  0  0
    8.4433   -5.5794   -2.0215 H   0  0  0  0  0  0  0  0  0  0  0  0
    6.7583   -6.0326   -2.2925 H   0  0  0  0  0  0  0  0  0  0  0  0
    7.6470   -5.0128   -3.4879 H   0  0  0  0  0  0  0  0  0  0  0  0
    5.3186   -4.7175   -3.7253 H   0  0  0  0  0  0  0  0  0  0  0  0
    3.4221   -3.3338   -4.3451 H   0  0  0  0  0  0  0  0  0  0  0  0
    2.1556   -1.4481   -4.0718 H   0  0  0  0  0  0  0  0  0  0  0  0
    0.9007    0.1488   -4.5442 H   0  0  0  0  0  0  0  0  0  0  0  0
    1.4596    1.7511   -4.0679 H   0  0  0  0  0  0  0  0  0  0  0  0
    0.4354    2.1242   -1.2249 H   0  0  0  0  0  0  0  0  0  0  0  0
   -1.2258    2.3997   -1.8169 H   0  0  0  0  0  0  0  0  0  0  0  0
    0.1487    3.0502   -2.7301 H   0  0  0  0  0  0  0  0  0  0  0  0
   -2.9631   -0.1060   -2.0025 H   0  0  0  0  0  0  0  0  0  0  0  0
   -0.4882   -0.0067   -0.1634 H   0  0  0  0  0  0  0  0  0  0  0  0
   -4.0618   -1.3796    0.3861 H   0  0  0  0  0  0  0  0  0  0  0  0
   -5.0754    0.8760    4.4271 H   0  0  0  0  0  0  0  0  0  0  0  0
   -7.1104    0.1554    5.6101 H   0  0  0  0  0  0  0  0  0  0  0  0
   -8.5333   -1.6442    4.6732 H   0  0  0  0  0  0  0  0  0  0  0  0
   -7.9114   -2.7314    2.5406 H   0  0  0  0  0  0  0  0  0  0  0  0
   -5.8895   -2.0543    1.3350 H   0  0  0  0  0  0  0  0  0  0  0  0
   -2.8016    3.6641    2.1935 H   0  0  0  0  0  0  0  0  0  0  0  0
   -1.1348    5.4477    2.4977 H   0  0  0  0  0  0  0  0  0  0  0  0
    1.6058    5.5071    3.6323 H   0  0  0  0  0  0  0  0  0  0  0  0
    1.3353    6.0805    1.9644 H   0  0  0  0  0  0  0  0  0  0  0  0
    2.5869    4.8804    2.2900 H   0  0  0  0  0  0  0  0  0  0  0  0
    2.0312    2.5271    2.2654 H   0  0  0  0  0  0  0  0  0  0  0  0
    0.3643    0.7405    1.9792 H   0  0  0  0  0  0  0  0  0  0  0  0
    4.4749   -0.4930   -1.2578 H   0  0  0  0  0  0  0  0  0  0  0  0
    6.3684   -1.9025   -0.6343 H   0  0  0  0  0  0  0  0  0  0  0  0
  1  2  1  0
  2  3  1  0
  3  4  2  0
  4  5  1  0
  5  6  2  0
  6  7  1  0
  7  8  1  0
  8  9  2  0
  8 10  1  0
 10 11  1  0
 11 12  1  0
 11 13  1  0
 13 14  2  0
 13 15  1  0
 15 16  2  3
 16 17  1  0
 17 18  2  0
 18 19  1  0
 19 20  1  0
 20 21  2  0
 21 22  1  0
 22 23  2  0
 23 24  1  0
 24 25  2  0
 19 26  1  0
 26 27  2  0
 27 28  1  0
 28 29  2  0
 29 30  1  0
 30 31  2  0
 31 32  1  0
 31 33  1  0
 33 34  2  0
  6 35  1  0
 35 36  2  0
 36  3  1  0
 27 17  1  0
 34 28  1  0
 25 20  1  0
  1 37  1  0
  1 38  1  0
  1 39  1  0
  4 40  1  0
  5 41  1  0
  7 42  1  0
 10 43  1  0
 10 44  1  0
 12 45  1  0
 12 46  1  0
 12 47  1  0
 15 48  1  0
 16 49  1  0
 18 50  1  0
 21 51  1  0
 22 52  1  0
 23 53  1  0
 24 54  1  0
 25 55  1  0
 29 56  1  0
 30 57  1  0
 32 58  1  0
 32 59  1  0
 32 60  1  0
 33 61  1  0
 34 62  1  0
 35 63  1  0
 36 64  1  0
M  END
$$$$
