
     RDKit          3D

 54 57  0  0  0  0  0  0  0  0999 V2000
   -5.0640    4.6721    2.0021 C   0  0  0  0  0  0  0  0  0  0  0  0
   -4.0476    4.5164    1.0207 O   0  0  0  0  0  0  0  0  0  0  0  0
   -3.1344    3.5198    1.2251 C   0  0  0  0  0  0  0  0  0  0  0  0
   -3.0926    2.6553    2.3187 C   0  0  0  0  0  0  0  0  0  0  0  0
   -2.1047    1.6659    2.3989 C   0  0  0  0  0  0  0  0  0  0  0  0
   -1.1516    1.5367    1.3816 C   0  0  0  0  0  0  0  0  0  0  0  0
   -0.1635    0.5209    1.4566 N   0  0  0  0  0  0  0  0  0  0  0  0
   -0.3510   -0.8225    1.7742 C   0  0  0  0  0  0  0  0  0  0  0  0
   -1.6619   -1.5256    1.9197 C   0  0  0  0  0  0  0  0  0  0  0  0
   -2.4394   -1.5898    0.6373 C   0  0  0  0  0  0  0  0  0  0  0  0
   -3.6423   -0.9817    0.3177 C   0  0  0  0  0  0  0  0  0  0  0  0
   -3.9739   -1.3392   -1.0093 C   0  0  0  0  0  0  0  0  0  0  0  0
   -2.9735   -2.1618   -1.4723 C   0  0  0  0  0  0  0  0  0  0  0  0
   -2.0439   -2.3109   -0.4723 N   0  0  0  0  0  0  0  0  0  0  0  0
   -0.8342   -3.0962   -0.6088 C   0  0  0  0  0  0  0  0  0  0  0  0
    0.8189   -1.4405    1.7818 N   0  0  0  0  0  0  0  0  0  0  0  0
    1.7792   -0.5458    1.4263 N   0  0  0  0  0  0  0  0  0  0  0  0
    1.2000    0.6157    1.2264 C   0  0  0  0  0  0  0  0  0  0  0  0
    2.0758    2.0739    0.8879 S   0  0  0  0  0  0  0  0  0  0  0  0
    3.7926    1.4822    0.9677 C   0  0  0  0  0  0  0  0  0  0  0  0
    4.2418    0.9122   -0.3703 C   0  0  0  0  0  0  0  0  0  0  0  0
    4.9619    1.5750   -1.1171 O   0  0  0  0  0  0  0  0  0  0  0  0
    3.7901   -0.3719   -0.6129 N   0  0  0  0  0  0  0  0  0  0  0  0
    4.0762   -1.1907   -1.7325 C   0  0  0  0  0  0  0  0  0  0  0  0
    4.9856   -0.8588   -2.7397 C   0  0  0  0  0  0  0  0  0  0  0  0
    5.2219   -1.7407   -3.8012 C   0  0  0  0  0  0  0  0  0  0  0  0
    4.5511   -2.9618   -3.8694 C   0  0  0  0  0  0  0  0  0  0  0  0
    3.6401   -3.3033   -2.8711 C   0  0  0  0  0  0  0  0  0  0  0  0
    3.4127   -2.4219   -1.8189 C   0  0  0  0  0  0  0  0  0  0  0  0
    2.5291   -2.7708   -0.8691 F   0  0  0  0  0  0  0  0  0  0  0  0
   -1.1844    2.4100    0.2918 C   0  0  0  0  0  0  0  0  0  0  0  0
   -2.1753    3.3925    0.2190 C   0  0  0  0  0  0  0  0  0  0  0  0
   -5.6953    5.5160    1.7006 H   0  0  0  0  0  0  0  0  0  0  0  0
   -5.6984    3.7830    2.0516 H   0  0  0  0  0  0  0  0  0  0  0  0
   -4.6377    4.9103    2.9830 H   0  0  0  0  0  0  0  0  0  0  0  0
   -3.8107    2.7266    3.1285 H   0  0  0  0  0  0  0  0  0  0  0  0
   -2.0785    1.0395    3.2869 H   0  0  0  0  0  0  0  0  0  0  0  0
   -2.2651   -1.0680    2.7086 H   0  0  0  0  0  0  0  0  0  0  0  0
   -1.4769   -2.5501    2.2684 H   0  0  0  0  0  0  0  0  0  0  0  0
   -4.2212   -0.3409    0.9713 H   0  0  0  0  0  0  0  0  0  0  0  0
   -4.8477   -1.0306   -1.5665 H   0  0  0  0  0  0  0  0  0  0  0  0
   -2.8465   -2.6439   -2.4329 H   0  0  0  0  0  0  0  0  0  0  0  0
   -0.6501   -3.6422    0.3191 H   0  0  0  0  0  0  0  0  0  0  0  0
   -0.9631   -3.8121   -1.4245 H   0  0  0  0  0  0  0  0  0  0  0  0
   -0.0141   -2.4151   -0.8379 H   0  0  0  0  0  0  0  0  0  0  0  0
    3.9500    0.7536    1.7670 H   0  0  0  0  0  0  0  0  0  0  0  0
    4.4346    2.3401    1.1978 H   0  0  0  0  0  0  0  0  0  0  0  0
    3.1319   -0.7725    0.0583 H   0  0  0  0  0  0  0  0  0  0  0  0
    5.5426    0.0720   -2.7218 H   0  0  0  0  0  0  0  0  0  0  0  0
    5.9415   -1.4709   -4.5729 H   0  0  0  0  0  0  0  0  0  0  0  0
    4.7480   -3.6455   -4.6943 H   0  0  0  0  0  0  0  0  0  0  0  0
    3.1087   -4.2488   -2.9043 H   0  0  0  0  0  0  0  0  0  0  0  0
   -0.4851    2.3240   -0.5343 H   0  0  0  0  0  0  0  0  0  0  0  0
   -2.2057    4.0612   -0.6401 H   0  0  0  0  0  0  0  0  0  0  0  0
  1  2  1  0
  2  3  1  0
  3  4  2  0
  4  5  1  0
  5  6  2  0
  6  7  1  0
  7  8  1  0
  8  9  1  0
  9 10  1  0
 10 11  2  0
 11 12  1  0
 12 13  2  0
 13 14  1  0
 14 15  1  0
  8 16  2  0
 16 17  1  0
 17 18  2  0
 18 19  1  0
 19 20  1  0
 20 21  1  0
 21 22  2  0
 21 23  1  0
 23 24  1  0
 24 25  2  0
 25 26  1  0
 26 27  2  0
 27 28  1  0
 28 29  2  0
 29 30  1  0
  6 31  1  0
 31 32  2  0
 32  3  1  0
 18  7  1  0
 29 24  1  0
 14 10  1  0
  1 33  1  0
  1 34  1  0
  1 35  1  0
  4 36  1  0
  5 37  1  0
  9 38  1  0
  9 39  1  0
 11 40  1  0
 12 41  1  0
 13 42  1  0
 15 43  1  0
 15 44  1  0
 15 45  1  0
 20 46  1  0
 20 47  1  0
 23 48  1  0
 25 49  1  0
 26 50  1  0
 27 51  1  0
 28 52  1  0
 31 53  1  0
 32 54  1  0
M  END
$$$$
