
     RDKit          3D

 54 58  0  0  0  0  0  0  0  0999 V2000
    2.3029   -1.9021   -0.6265 O   0  0  0  0  0  0  0  0  0  0  0  0
    2.2192   -1.2701    0.4244 C   0  0  0  0  0  0  0  0  0  0  0  0
    1.3883   -1.7770    1.5864 C   0  0  0  0  0  0  0  0  0  0  0  0
    0.0203   -0.6686    2.0471 S   0  0  0  0  0  0  0  0  0  0  0  0
   -0.4477   -0.0730    0.4630 C   0  0  0  0  0  0  0  0  0  0  0  0
    0.1038    1.0616    0.1505 N   0  0  0  0  0  0  0  0  0  0  0  0
   -0.2445    1.5532   -1.1095 C   0  0  0  0  0  0  0  0  0  0  0  0
   -1.1220    0.9023   -1.9223 C   0  0  0  0  0  0  0  0  0  0  0  0
   -1.3631    1.7136   -3.3846 S   0  0  0  0  0  0  0  0  0  0  0  0
   -0.2728    2.9795   -2.9363 C   0  0  0  0  0  0  0  0  0  0  0  0
    0.0735    4.1102   -3.7015 C   0  0  0  0  0  0  0  0  0  0  0  0
    0.9762    5.0334   -3.1684 C   0  0  0  0  0  0  0  0  0  0  0  0
    1.5255    4.8413   -1.9059 C   0  0  0  0  0  0  0  0  0  0  0  0
    1.1780    3.7186   -1.1490 C   0  0  0  0  0  0  0  0  0  0  0  0
    0.2680    2.7635   -1.6605 C   0  0  0  0  0  0  0  0  0  0  0  0
   -1.7610   -0.3271   -1.5545 C   0  0  0  0  0  0  0  0  0  0  0  0
   -2.6063   -0.8986   -2.2395 O   0  0  0  0  0  0  0  0  0  0  0  0
   -1.3433   -0.8122   -0.3058 N   0  0  0  0  0  0  0  0  0  0  0  0
   -1.9855   -2.0549    0.1398 C   0  0  0  0  0  0  0  0  0  0  0  0
   -3.3256   -1.7874    0.8355 C   0  0  0  0  0  0  0  0  0  0  0  0
   -3.9326   -3.0614    1.3650 C   0  0  0  0  0  0  0  0  0  0  0  0
   -4.6228   -3.9257    0.5047 C   0  0  0  0  0  0  0  0  0  0  0  0
   -5.1656   -5.1204    0.9843 C   0  0  0  0  0  0  0  0  0  0  0  0
   -5.0210   -5.4611    2.3269 C   0  0  0  0  0  0  0  0  0  0  0  0
   -4.3293   -4.6099    3.1909 C   0  0  0  0  0  0  0  0  0  0  0  0
   -3.7844   -3.4155    2.7130 C   0  0  0  0  0  0  0  0  0  0  0  0
    2.8786   -0.0803    0.6534 N   0  0  0  0  0  0  0  0  0  0  0  0
    3.5836    0.5442   -0.4458 C   0  0  0  0  0  0  0  0  0  0  0  0
    4.3630    1.7191    0.0225 C   0  0  0  0  0  0  0  0  0  0  0  0
    4.4804    2.4142    1.2148 C   0  0  0  0  0  0  0  0  0  0  0  0
    5.4342    3.4433    0.9963 C   0  0  0  0  0  0  0  0  0  0  0  0
    5.8367    3.3130   -0.3112 C   0  0  0  0  0  0  0  0  0  0  0  0
    5.1875    2.2753   -0.9103 O   0  0  0  0  0  0  0  0  0  0  0  0
    2.0466   -1.9202    2.4533 H   0  0  0  0  0  0  0  0  0  0  0  0
    0.9786   -2.7575    1.3173 H   0  0  0  0  0  0  0  0  0  0  0  0
   -0.3539    4.2648   -4.6901 H   0  0  0  0  0  0  0  0  0  0  0  0
    1.2519    5.9113   -3.7497 H   0  0  0  0  0  0  0  0  0  0  0  0
    2.2273    5.5661   -1.5017 H   0  0  0  0  0  0  0  0  0  0  0  0
    1.6103    3.5763   -0.1618 H   0  0  0  0  0  0  0  0  0  0  0  0
   -1.3213   -2.6159    0.7982 H   0  0  0  0  0  0  0  0  0  0  0  0
   -2.1447   -2.7030   -0.7308 H   0  0  0  0  0  0  0  0  0  0  0  0
   -3.1968   -1.0701    1.6537 H   0  0  0  0  0  0  0  0  0  0  0  0
   -4.0283   -1.3154    0.1414 H   0  0  0  0  0  0  0  0  0  0  0  0
   -4.7413   -3.6743   -0.5466 H   0  0  0  0  0  0  0  0  0  0  0  0
   -5.6972   -5.7859    0.3108 H   0  0  0  0  0  0  0  0  0  0  0  0
   -5.4444   -6.3904    2.7009 H   0  0  0  0  0  0  0  0  0  0  0  0
   -4.2137   -4.8785    4.2389 H   0  0  0  0  0  0  0  0  0  0  0  0
   -3.2421   -2.7654    3.4031 H   0  0  0  0  0  0  0  0  0  0  0  0
    2.3934    0.5529    1.2826 H   0  0  0  0  0  0  0  0  0  0  0  0
    2.8438    0.8454   -1.2015 H   0  0  0  0  0  0  0  0  0  0  0  0
    4.2481   -0.1977   -0.9140 H   0  0  0  0  0  0  0  0  0  0  0  0
    3.9555    2.1974    2.1363 H   0  0  0  0  0  0  0  0  0  0  0  0
    5.7929    4.1765    1.7071 H   0  0  0  0  0  0  0  0  0  0  0  0
    6.5431    3.8425   -0.9341 H   0  0  0  0  0  0  0  0  0  0  0  0
  1  2  2  0
  2  3  1  0
  3  4  1  0
  4  5  1  0
  5  6  2  0
  6  7  1  0
  7  8  2  0
  8  9  1  0
  9 10  1  0
 10 11  2  0
 11 12  1  0
 12 13  2  0
 13 14  1  0
 14 15  2  0
  8 16  1  0
 16 17  2  0
 16 18  1  0
 18 19  1  0
 19 20  1  0
 20 21  1  0
 21 22  2  0
 22 23  1  0
 23 24  2  0
 24 25  1  0
 25 26  2  0
  2 27  1  0
 27 28  1  0
 28 29  1  0
 29 30  2  0
 30 31  1  0
 31 32  2  0
 32 33  1  0
 18  5  1  0
 26 21  1  0
 33 29  1  0
 15  7  1  0
 15 10  1  0
  3 34  1  0
  3 35  1  0
 11 36  1  0
 12 37  1  0
 13 38  1  0
 14 39  1  0
 19 40  1  0
 19 41  1  0
 20 42  1  0
 20 43  1  0
 22 44  1  0
 23 45  1  0
 24 46  1  0
 25 47  1  0
 26 48  1  0
 27 49  1  0
 28 50  1  0
 28 51  1  0
 30 52  1  0
 31 53  1  0
 32 54  1  0
M  END
$$$$
