
     RDKit          3D

 51 53  0  0  0  0  0  0  0  0999 V2000
   -9.6563   -0.7411   -1.0402 C   0  0  0  0  0  0  0  0  0  0  0  0
   -8.2438   -0.3563   -0.7153 C   0  0  0  0  0  0  0  0  0  0  0  0
   -7.9521    0.9062   -0.1902 C   0  0  0  0  0  0  0  0  0  0  0  0
   -6.6310    1.2788    0.0848 C   0  0  0  0  0  0  0  0  0  0  0  0
   -5.5804    0.3987   -0.1709 C   0  0  0  0  0  0  0  0  0  0  0  0
   -4.2282    0.6946    0.0773 N   0  0  0  0  0  0  0  0  0  0  0  0
   -3.6860    1.8532    0.6017 C   0  0  0  0  0  0  0  0  0  0  0  0
   -4.2988    2.8588    0.9513 O   0  0  0  0  0  0  0  0  0  0  0  0
   -2.1597    1.7942    0.7272 C   0  0  0  0  0  0  0  0  0  0  0  0
   -1.6450    0.5385    0.2866 O   0  0  0  0  0  0  0  0  0  0  0  0
   -0.2879    0.3760    0.3358 C   0  0  0  0  0  0  0  0  0  0  0  0
    0.1699   -0.8556   -0.1422 C   0  0  0  0  0  0  0  0  0  0  0  0
    1.5345   -1.1547   -0.1504 C   0  0  0  0  0  0  0  0  0  0  0  0
    2.4511   -0.2175    0.3269 C   0  0  0  0  0  0  0  0  0  0  0  0
    3.8685   -0.4697    0.3437 N   0  0  0  0  0  0  0  0  0  0  0  0
    4.2772   -1.6000    1.2116 C   0  0  0  0  0  0  0  0  0  0  0  0
    4.5664   -0.4700   -1.2282 S   0  0  0  0  0  6  0  0  0  0  0  0
    4.3789   -1.7872   -1.8047 O   0  0  0  0  0  0  0  0  0  0  0  0
    4.1582    0.7254   -1.9359 O   0  0  0  0  0  0  0  0  0  0  0  0
    6.3000   -0.2758   -0.8667 C   0  0  0  0  0  0  0  0  0  0  0  0
    7.1934   -1.3232   -1.1198 C   0  0  0  0  0  0  0  0  0  0  0  0
    8.5485   -1.1467   -0.8372 C   0  0  0  0  0  0  0  0  0  0  0  0
    8.9914    0.0665   -0.3165 C   0  0  0  0  0  0  0  0  0  0  0  0
   10.2930    0.2302   -0.0476 F   0  0  0  0  0  0  0  0  0  0  0  0
    8.1061    1.1135   -0.0735 C   0  0  0  0  0  0  0  0  0  0  0  0
    6.7496    0.9469   -0.3520 C   0  0  0  0  0  0  0  0  0  0  0  0
    2.0012    1.0134    0.8024 C   0  0  0  0  0  0  0  0  0  0  0  0
    0.6341    1.3113    0.8086 C   0  0  0  0  0  0  0  0  0  0  0  0
   -5.8709   -0.8600   -0.7099 C   0  0  0  0  0  0  0  0  0  0  0  0
   -7.1902   -1.2334   -0.9847 C   0  0  0  0  0  0  0  0  0  0  0  0
  -10.3674   -0.1962   -0.4104 H   0  0  0  0  0  0  0  0  0  0  0  0
   -9.8729   -0.5181   -2.0895 H   0  0  0  0  0  0  0  0  0  0  0  0
   -9.8177   -1.8094   -0.8630 H   0  0  0  0  0  0  0  0  0  0  0  0
   -8.7511    1.6160    0.0127 H   0  0  0  0  0  0  0  0  0  0  0  0
   -6.4591    2.2680    0.4967 H   0  0  0  0  0  0  0  0  0  0  0  0
   -3.5485   -0.0261   -0.1500 H   0  0  0  0  0  0  0  0  0  0  0  0
   -1.9219    1.9460    1.7867 H   0  0  0  0  0  0  0  0  0  0  0  0
   -1.7569    2.6056    0.1098 H   0  0  0  0  0  0  0  0  0  0  0  0
   -0.5389   -1.5887   -0.5193 H   0  0  0  0  0  0  0  0  0  0  0  0
    1.8676   -2.1125   -0.5404 H   0  0  0  0  0  0  0  0  0  0  0  0
    3.7403   -1.5576    2.1656 H   0  0  0  0  0  0  0  0  0  0  0  0
    5.3421   -1.5320    1.4477 H   0  0  0  0  0  0  0  0  0  0  0  0
    4.0681   -2.5668    0.7449 H   0  0  0  0  0  0  0  0  0  0  0  0
    6.8480   -2.2665   -1.5372 H   0  0  0  0  0  0  0  0  0  0  0  0
    9.2634   -1.9422   -1.0249 H   0  0  0  0  0  0  0  0  0  0  0  0
    8.4810    2.0516    0.3243 H   0  0  0  0  0  0  0  0  0  0  0  0
    6.0520    1.7629   -0.1753 H   0  0  0  0  0  0  0  0  0  0  0  0
    2.7136    1.7504    1.1630 H   0  0  0  0  0  0  0  0  0  0  0  0
    0.3308    2.2829    1.1848 H   0  0  0  0  0  0  0  0  0  0  0  0
   -5.0760   -1.5683   -0.9271 H   0  0  0  0  0  0  0  0  0  0  0  0
   -7.3881   -2.2138   -1.4110 H   0  0  0  0  0  0  0  0  0  0  0  0
  1  2  1  0
  2  3  2  0
  3  4  1  0
  4  5  2  0
  5  6  1  0
  6  7  1  0
  7  8  2  0
  7  9  1  0
  9 10  1  0
 10 11  1  0
 11 12  2  0
 12 13  1  0
 13 14  2  0
 14 15  1  0
 15 16  1  0
 15 17  1  0
 17 18  2  0
 17 19  2  0
 17 20  1  0
 20 21  2  0
 21 22  1  0
 22 23  2  0
 23 24  1  0
 23 25  1  0
 25 26  2  0
 14 27  1  0
 27 28  2  0
  5 29  1  0
 29 30  2  0
 30  2  1  0
 28 11  1  0
 26 20  1  0
  1 31  1  0
  1 32  1  0
  1 33  1  0
  3 34  1  0
  4 35  1  0
  6 36  1  0
  9 37  1  0
  9 38  1  0
 12 39  1  0
 13 40  1  0
 16 41  1  0
 16 42  1  0
 16 43  1  0
 21 44  1  0
 22 45  1  0
 25 46  1  0
 26 47  1  0
 27 48  1  0
 28 49  1  0
 29 50  1  0
 30 51  1  0
M  END
$$$$
