
     RDKit          3D

 24 24  0  0  0  0  0  0  0  0999 V2000
   -4.7483   -0.5439   -0.5158 C   0  0  0  0  0  0  0  0  0  0  0  0
   -3.3773   -0.8696   -0.1682 N   0  0  0  0  0  0  0  0  0  0  0  0
   -2.3628    0.0606    0.0510 C   0  0  0  0  0  0  0  0  0  0  0  0
   -2.6074    1.7141    0.0549 S   0  0  0  0  0  0  0  0  0  0  0  0
   -1.1838   -0.6226    0.3231 N   0  0  0  0  0  0  0  0  0  0  0  0
    0.1604   -0.1909    0.3533 C   0  0  0  0  0  0  0  0  0  0  0  0
    1.0702   -0.9932    1.0538 C   0  0  0  0  0  0  0  0  0  0  0  0
    2.4265   -0.6568    1.1152 C   0  0  0  0  0  0  0  0  0  0  0  0
    2.9002    0.4879    0.4699 C   0  0  0  0  0  0  0  0  0  0  0  0
    4.3579    0.8373    0.5055 C   0  0  0  0  0  0  0  0  0  0  0  0
    2.0010    1.2668   -0.2639 C   0  0  0  0  0  0  0  0  0  0  0  0
    0.6434    0.9281   -0.3233 C   0  0  0  0  0  0  0  0  0  0  0  0
   -5.3283   -1.4701   -0.5190 H   0  0  0  0  0  0  0  0  0  0  0  0
   -4.7696   -0.0939   -1.5119 H   0  0  0  0  0  0  0  0  0  0  0  0
   -5.1706    0.1470    0.2182 H   0  0  0  0  0  0  0  0  0  0  0  0
   -3.0540   -1.7666   -0.5046 H   0  0  0  0  0  0  0  0  0  0  0  0
   -1.3454   -1.5285    0.7429 H   0  0  0  0  0  0  0  0  0  0  0  0
    0.7366   -1.8865    1.5752 H   0  0  0  0  0  0  0  0  0  0  0  0
    3.1084   -1.2949    1.6726 H   0  0  0  0  0  0  0  0  0  0  0  0
    4.8782    0.3588   -0.3299 H   0  0  0  0  0  0  0  0  0  0  0  0
    4.8159    0.5070    1.4438 H   0  0  0  0  0  0  0  0  0  0  0  0
    4.5014    1.9209    0.4384 H   0  0  0  0  0  0  0  0  0  0  0  0
    2.3484    2.1447   -0.8047 H   0  0  0  0  0  0  0  0  0  0  0  0
   -0.0010    1.5445   -0.9398 H   0  0  0  0  0  0  0  0  0  0  0  0
  1  2  1  0
  2  3  1  0
  3  4  2  0
  3  5  1  0
  5  6  1  0
  6  7  2  0
  7  8  1  0
  8  9  2  0
  9 10  1  0
  9 11  1  0
 11 12  2  0
 12  6  1  0
  1 13  1  0
  1 14  1  0
  1 15  1  0
  2 16  1  0
  5 17  1  0
  7 18  1  0
  8 19  1  0
 10 20  1  0
 10 21  1  0
 10 22  1  0
 11 23  1  0
 12 24  1  0
M  END
$$$$
