
     RDKit          3D

 42 44  0  0  0  0  0  0  0  0999 V2000
   -4.6666    1.3780    0.6822 C   0  0  0  0  0  0  0  0  0  0  0  0
   -3.7546    1.0608   -0.4665 C   0  0  0  0  0  0  0  0  0  0  0  0
   -4.2025    1.2048   -1.7797 C   0  0  0  0  0  0  0  0  0  0  0  0
   -3.3875    0.8718   -2.8659 C   0  0  0  0  0  0  0  0  0  0  0  0
   -2.0975    0.3790   -2.6079 C   0  0  0  0  0  0  0  0  0  0  0  0
   -1.6104    0.2314   -1.3076 C   0  0  0  0  0  0  0  0  0  0  0  0
   -2.4649    0.5590   -0.2286 C   0  0  0  0  0  0  0  0  0  0  0  0
   -0.2750   -0.2660   -1.4159 C   0  0  0  0  0  0  0  0  0  0  0  0
    0.6404   -0.5711   -0.3602 C   0  0  0  0  0  0  0  0  0  0  0  0
    0.8421    0.2013    0.7208 C   0  0  0  0  0  0  0  0  0  0  0  0
    1.7846   -0.1111    1.8001 C   0  0  0  0  0  0  0  0  0  0  0  0
    1.4453    0.2206    3.1108 C   0  0  0  0  0  0  0  0  0  0  0  0
    2.3370   -0.0443    4.1441 C   0  0  0  0  0  0  0  0  0  0  0  0
    3.5354   -0.6146    3.8893 N   0  0  0  0  0  4  0  0  0  0  0  0
    4.4684   -0.8760    4.9984 C   0  0  0  0  0  0  0  0  0  0  0  0
    3.8979   -0.9217    2.6240 C   0  0  0  0  0  0  0  0  0  0  0  0
    3.0363   -0.6761    1.5606 C   0  0  0  0  0  0  0  0  0  0  0  0
    0.0189   -0.4320   -2.7597 C   0  0  0  0  0  0  0  0  0  0  0  0
    1.2643   -0.9041   -3.4315 C   0  0  0  0  0  0  0  0  0  0  0  0
   -1.1039   -0.0499   -3.4679 N   0  0  0  0  0  0  0  0  0  0  0  0
   -1.2409   -0.0810   -4.9108 C   0  0  0  0  0  0  0  0  0  0  0  0
   -4.0942    1.7076    1.5557 H   0  0  0  0  0  0  0  0  0  0  0  0
   -5.2479    0.4915    0.9540 H   0  0  0  0  0  0  0  0  0  0  0  0
   -5.3559    2.1882    0.4221 H   0  0  0  0  0  0  0  0  0  0  0  0
   -5.2071    1.5761   -1.9756 H   0  0  0  0  0  0  0  0  0  0  0  0
   -3.7603    0.9887   -3.8787 H   0  0  0  0  0  0  0  0  0  0  0  0
   -2.1234    0.4157    0.7914 H   0  0  0  0  0  0  0  0  0  0  0  0
    1.2057   -1.4916   -0.4829 H   0  0  0  0  0  0  0  0  0  0  0  0
    0.2793    1.1274    0.8296 H   0  0  0  0  0  0  0  0  0  0  0  0
    0.4840    0.6792    3.3371 H   0  0  0  0  0  0  0  0  0  0  0  0
    2.1017    0.1992    5.1764 H   0  0  0  0  0  0  0  0  0  0  0  0
    5.0824   -1.7462    4.7525 H   0  0  0  0  0  0  0  0  0  0  0  0
    3.8964   -1.0825    5.9066 H   0  0  0  0  0  0  0  0  0  0  0  0
    5.0878    0.0158    5.1219 H   0  0  0  0  0  0  0  0  0  0  0  0
    4.8814   -1.3573    2.4713 H   0  0  0  0  0  0  0  0  0  0  0  0
    3.3574   -0.9166    0.5490 H   0  0  0  0  0  0  0  0  0  0  0  0
    1.1159   -1.9061   -3.8465 H   0  0  0  0  0  0  0  0  0  0  0  0
    2.1068   -0.9503   -2.7348 H   0  0  0  0  0  0  0  0  0  0  0  0
    1.5523   -0.2264   -4.2417 H   0  0  0  0  0  0  0  0  0  0  0  0
   -0.9734    0.9059   -5.2963 H   0  0  0  0  0  0  0  0  0  0  0  0
   -0.5842   -0.8464   -5.3298 H   0  0  0  0  0  0  0  0  0  0  0  0
   -2.2717   -0.3311   -5.1730 H   0  0  0  0  0  0  0  0  0  0  0  0
  1  2  1  0
  2  3  2  0
  3  4  1  0
  4  5  2  0
  5  6  1  0
  6  7  2  0
  6  8  1  0
  8  9  1  0
  9 10  2  3
 10 11  1  0
 11 12  2  0
 12 13  1  0
 13 14  2  0
 14 15  1  0
 14 16  1  0
 16 17  2  0
  8 18  2  0
 18 19  1  0
 18 20  1  0
 20 21  1  0
  7  2  1  0
 17 11  1  0
 20  5  1  0
  1 22  1  0
  1 23  1  0
  1 24  1  0
  3 25  1  0
  4 26  1  0
  7 27  1  0
  9 28  1  0
 10 29  1  0
 12 30  1  0
 13 31  1  0
 15 32  1  0
 15 33  1  0
 15 34  1  0
 16 35  1  0
 17 36  1  0
 19 37  1  0
 19 38  1  0
 19 39  1  0
 21 40  1  0
 21 41  1  0
 21 42  1  0
M  CHG  1  14   1
M  END
$$$$
