
     RDKit          3D

 48 51  0  0  0  0  0  0  0  0999 V2000
    2.7952   -0.8668   -3.0689 C   0  0  0  0  0  0  0  0  0  0  0  0
    3.1608    0.3870   -2.2887 C   0  0  0  0  0  0  0  0  0  0  0  0
    2.8433    0.2280   -0.8724 N   0  0  0  0  0  0  0  0  0  0  0  0
    1.6418    0.5368   -0.2286 C   0  0  0  0  0  0  0  0  0  0  0  0
    0.5238    1.0125   -0.8111 C   0  0  0  0  0  0  0  0  0  0  0  0
   -0.7291    1.3430   -0.1107 C   0  0  0  0  0  0  0  0  0  0  0  0
   -0.8328    2.6436    0.3636 C   0  0  0  0  0  0  0  0  0  0  0  0
   -1.9720    3.0415    1.0176 C   0  0  0  0  0  0  0  0  0  0  0  0
   -3.0019    2.1342    1.2027 C   0  0  0  0  0  0  0  0  0  0  0  0
   -4.1284    2.6124    1.8782 C   0  0  0  0  0  0  0  0  0  0  0  0
   -5.2078    1.7865    2.1202 C   0  0  0  0  0  0  0  0  0  0  0  0
   -5.1612    0.4714    1.6904 C   0  0  0  0  0  0  0  0  0  0  0  0
   -4.0425   -0.0620    0.9977 C   0  0  0  0  0  0  0  0  0  0  0  0
   -4.2093   -1.5267    0.6752 C   0  0  0  0  0  0  0  0  0  0  0  0
   -2.9122    0.7730    0.7259 C   0  0  0  0  0  0  0  0  0  0  0  0
   -1.7418    0.4271    0.0507 N   0  0  0  0  0  4  0  0  0  0  0  0
   -1.5268   -0.9199   -0.5499 C   0  0  0  0  0  0  0  0  0  0  0  0
   -2.0579   -0.9375   -1.9726 C   0  0  0  0  0  0  0  0  0  0  0  0
    1.6557    0.1947    1.5264 S   0  0  0  0  0  0  0  0  0  0  0  0
    3.3249   -0.4200    1.3519 C   0  0  0  0  0  0  0  0  0  0  0  0
    4.1061   -0.9388    2.3753 C   0  0  0  0  0  0  0  0  0  0  0  0
    5.3880   -1.3881    2.0660 C   0  0  0  0  0  0  0  0  0  0  0  0
    5.8629   -1.3144    0.7511 C   0  0  0  0  0  0  0  0  0  0  0  0
    5.0649   -0.7880   -0.2734 C   0  0  0  0  0  0  0  0  0  0  0  0
    3.7841   -0.3308    0.0184 C   0  0  0  0  0  0  0  0  0  0  0  0
    3.0201   -0.7307   -4.1312 H   0  0  0  0  0  0  0  0  0  0  0  0
    1.7283   -1.0947   -2.9738 H   0  0  0  0  0  0  0  0  0  0  0  0
    3.3553   -1.7370   -2.7119 H   0  0  0  0  0  0  0  0  0  0  0  0
    4.2173    0.6344   -2.4416 H   0  0  0  0  0  0  0  0  0  0  0  0
    2.6121    1.2401   -2.7050 H   0  0  0  0  0  0  0  0  0  0  0  0
    0.5032    1.2137   -1.8776 H   0  0  0  0  0  0  0  0  0  0  0  0
   -0.0186    3.3549    0.2292 H   0  0  0  0  0  0  0  0  0  0  0  0
   -2.0383    4.0657    1.3850 H   0  0  0  0  0  0  0  0  0  0  0  0
   -4.1831    3.6426    2.2320 H   0  0  0  0  0  0  0  0  0  0  0  0
   -6.0817    2.1620    2.6497 H   0  0  0  0  0  0  0  0  0  0  0  0
   -6.0277   -0.1552    1.9125 H   0  0  0  0  0  0  0  0  0  0  0  0
   -4.0829   -1.7254   -0.3891 H   0  0  0  0  0  0  0  0  0  0  0  0
   -5.2196   -1.8854    0.9079 H   0  0  0  0  0  0  0  0  0  0  0  0
   -3.5320   -2.1312    1.2854 H   0  0  0  0  0  0  0  0  0  0  0  0
   -0.4643   -1.1718   -0.5502 H   0  0  0  0  0  0  0  0  0  0  0  0
   -1.9481   -1.6849    0.0907 H   0  0  0  0  0  0  0  0  0  0  0  0
   -1.4693   -0.2801   -2.6202 H   0  0  0  0  0  0  0  0  0  0  0  0
   -3.0953   -0.5963   -2.0295 H   0  0  0  0  0  0  0  0  0  0  0  0
   -2.0019   -1.9496   -2.3846 H   0  0  0  0  0  0  0  0  0  0  0  0
    3.7350   -0.9952    3.3936 H   0  0  0  0  0  0  0  0  0  0  0  0
    6.0240   -1.7979    2.8479 H   0  0  0  0  0  0  0  0  0  0  0  0
    6.8664   -1.6699    0.5233 H   0  0  0  0  0  0  0  0  0  0  0  0
    5.4732   -0.7536   -1.2774 H   0  0  0  0  0  0  0  0  0  0  0  0
  1  2  1  0
  2  3  1  0
  3  4  1  0
  4  5  2  3
  5  6  1  0
  6  7  2  0
  7  8  1  0
  8  9  2  0
  9 10  1  0
 10 11  2  0
 11 12  1  0
 12 13  2  0
 13 14  1  0
 13 15  1  0
 15 16  2  0
 16 17  1  0
 17 18  1  0
  4 19  1  0
 19 20  1  0
 20 21  2  0
 21 22  1  0
 22 23  2  0
 23 24  1  0
 24 25  2  0
 25  3  1  0
 16  6  1  0
 25 20  1  0
 15  9  1  0
  1 26  1  0
  1 27  1  0
  1 28  1  0
  2 29  1  0
  2 30  1  0
  5 31  1  0
  7 32  1  0
  8 33  1  0
 10 34  1  0
 11 35  1  0
 12 36  1  0
 14 37  1  0
 14 38  1  0
 14 39  1  0
 17 40  1  0
 17 41  1  0
 18 42  1  0
 18 43  1  0
 18 44  1  0
 21 45  1  0
 22 46  1  0
 23 47  1  0
 24 48  1  0
M  CHG  1  16   1
M  END
$$$$
