
     RDKit          3D

 60 65  0  0  0  0  0  0  0  0999 V2000
    4.9581   -2.5506   -4.1348 C   0  0  0  0  0  0  0  0  0  0  0  0
    5.0503   -1.8987   -2.8077 C   0  0  0  0  0  0  0  0  0  0  0  0
    6.1642   -1.2495   -2.4476 N   0  0  0  0  0  0  0  0  0  0  0  0
    5.9418   -0.8119   -1.1562 O   0  0  0  0  0  0  0  0  0  0  0  0
    4.6995   -1.1908   -0.7533 C   0  0  0  0  0  0  0  0  0  0  0  0
    4.3472   -0.8539    0.6387 C   0  0  0  0  0  0  0  0  0  0  0  0
    4.0645   -1.8447   -1.7883 C   0  0  0  0  0  0  0  0  0  0  0  0
    2.7467   -2.4379   -1.7911 C   0  0  0  0  0  0  0  0  0  0  0  0
    2.5999   -3.6139   -2.1167 O   0  0  0  0  0  0  0  0  0  0  0  0
    1.6615   -1.6396   -1.4140 N   0  0  0  0  0  0  0  0  0  0  0  0
    0.3698   -2.3040   -1.3044 C   0  0  0  0  0  0  0  0  0  0  0  0
   -0.7467   -1.3734   -0.8283 C   0  0  0  0  0  0  0  0  0  0  0  0
   -0.2446   -0.3851    0.2490 C   0  0  0  0  0  0  0  0  0  0  0  0
    0.9303    0.4629   -0.3288 C   0  0  0  0  0  0  0  0  0  0  0  0
    1.6300   -0.1873   -1.5246 C   0  0  0  0  0  0  0  0  0  0  0  0
    0.3839   -1.1505    1.3144 O   0  0  0  0  0  0  0  0  0  0  0  0
   -0.4149   -1.6797    2.2818 C   0  0  0  0  0  0  0  0  0  0  0  0
    0.1811   -2.6274    3.1161 C   0  0  0  0  0  0  0  0  0  0  0  0
   -0.5657   -3.2389    4.1245 C   0  0  0  0  0  0  0  0  0  0  0  0
   -1.9032   -2.8957    4.2931 C   0  0  0  0  0  0  0  0  0  0  0  0
   -2.6178   -3.4877    5.2581 F   0  0  0  0  0  0  0  0  0  0  0  0
   -2.5069   -1.9478    3.4778 C   0  0  0  0  0  0  0  0  0  0  0  0
   -1.7483   -1.3346    2.4773 C   0  0  0  0  0  0  0  0  0  0  0  0
   -2.3477   -0.3173    1.6050 C   0  0  0  0  0  0  0  0  0  0  0  0
   -3.5697   -0.2028    1.5546 O   0  0  0  0  0  0  0  0  0  0  0  0
   -1.3738    0.5310    0.7952 C   0  0  0  0  0  0  0  0  0  0  0  0
   -2.1105    1.3431   -0.2627 C   0  0  0  0  0  0  0  0  0  0  0  0
   -2.2454    2.6261    0.4850 C   0  0  0  0  0  0  0  0  0  0  0  0
   -3.1335    3.7196    0.0232 C   0  0  0  0  0  0  0  0  0  0  0  0
   -3.8513    3.6265   -1.1752 C   0  0  0  0  0  0  0  0  0  0  0  0
   -4.6762    4.6813   -1.5812 C   0  0  0  0  0  0  0  0  0  0  0  0
   -4.7828    5.8264   -0.7932 C   0  0  0  0  0  0  0  0  0  0  0  0
   -5.7966    7.1200   -1.2992 Cl  0  0  0  0  0  0  0  0  0  0  0  0
   -4.0719    5.9282    0.3999 C   0  0  0  0  0  0  0  0  0  0  0  0
   -3.2475    4.8758    0.8077 C   0  0  0  0  0  0  0  0  0  0  0  0
   -1.5018    2.7204    1.5408 N   0  0  0  0  0  0  0  0  0  0  0  0
   -0.8052    1.5023    1.6885 O   0  0  0  0  0  0  0  0  0  0  0  0
    4.0243   -2.2750   -4.6355 H   0  0  0  0  0  0  0  0  0  0  0  0
    4.9832   -3.6394   -4.0253 H   0  0  0  0  0  0  0  0  0  0  0  0
    5.7868   -2.2556   -4.7867 H   0  0  0  0  0  0  0  0  0  0  0  0
    4.1551    0.2188    0.7338 H   0  0  0  0  0  0  0  0  0  0  0  0
    3.4555   -1.3953    0.9679 H   0  0  0  0  0  0  0  0  0  0  0  0
    5.1654   -1.1164    1.3168 H   0  0  0  0  0  0  0  0  0  0  0  0
    0.4845   -3.1487   -0.6140 H   0  0  0  0  0  0  0  0  0  0  0  0
    0.1076   -2.7230   -2.2835 H   0  0  0  0  0  0  0  0  0  0  0  0
   -1.1393   -0.8173   -1.6886 H   0  0  0  0  0  0  0  0  0  0  0  0
   -1.5701   -1.9946   -0.4580 H   0  0  0  0  0  0  0  0  0  0  0  0
    1.6746    0.6308    0.4603 H   0  0  0  0  0  0  0  0  0  0  0  0
    0.6055    1.4589   -0.6477 H   0  0  0  0  0  0  0  0  0  0  0  0
    1.0807    0.0435   -2.4467 H   0  0  0  0  0  0  0  0  0  0  0  0
    2.6226    0.2476   -1.6590 H   0  0  0  0  0  0  0  0  0  0  0  0
    1.2257   -2.8965    2.9770 H   0  0  0  0  0  0  0  0  0  0  0  0
   -0.1144   -3.9804    4.7770 H   0  0  0  0  0  0  0  0  0  0  0  0
   -3.5504   -1.6900    3.6334 H   0  0  0  0  0  0  0  0  0  0  0  0
   -3.0738    0.9219   -0.5591 H   0  0  0  0  0  0  0  0  0  0  0  0
   -1.5164    1.5343   -1.1608 H   0  0  0  0  0  0  0  0  0  0  0  0
   -3.7893    2.7487   -1.8111 H   0  0  0  0  0  0  0  0  0  0  0  0
   -5.2334    4.6036   -2.5117 H   0  0  0  0  0  0  0  0  0  0  0  0
   -4.1531    6.8188    1.0178 H   0  0  0  0  0  0  0  0  0  0  0  0
   -2.6979    4.9653    1.7434 H   0  0  0  0  0  0  0  0  0  0  0  0
  1  2  1  0
  2  3  2  0
  3  4  1  0
  4  5  1  0
  5  6  1  0
  5  7  2  0
  7  8  1  0
  8  9  2  0
  8 10  1  0
 10 11  1  0
 11 12  1  0
 12 13  1  0
 13 14  1  0
 14 15  1  0
 13 16  1  0
 16 17  1  0
 17 18  2  0
 18 19  1  0
 19 20  2  0
 20 21  1  0
 20 22  1  0
 22 23  2  0
 23 24  1  0
 24 25  2  0
 24 26  1  0
 26 27  1  0
 27 28  1  0
 28 29  1  0
 29 30  2  0
 30 31  1  0
 31 32  2  0
 32 33  1  0
 32 34  1  0
 34 35  2  0
 28 36  2  0
 36 37  1  0
  7  2  1  0
 15 10  1  0
 23 17  1  0
 37 26  1  0
 26 13  1  0
 35 29  1  0
  1 38  1  0
  1 39  1  0
  1 40  1  0
  6 41  1  0
  6 42  1  0
  6 43  1  0
 11 44  1  0
 11 45  1  0
 12 46  1  0
 12 47  1  0
 14 48  1  0
 14 49  1  0
 15 50  1  0
 15 51  1  0
 18 52  1  0
 19 53  1  0
 22 54  1  0
 27 55  1  0
 27 56  1  0
 30 57  1  0
 31 58  1  0
 34 59  1  0
 35 60  1  0
M  END
$$$$
