
     RDKit          3D

 57 61  0  0  0  0  0  0  0  0999 V2000
    1.5360    0.6992    4.6085 O   0  0  0  0  0  0  0  0  0  0  0  0
    1.8648    0.7199    3.4279 C   0  0  0  0  0  0  0  0  0  0  0  0
    0.9734    0.3973    2.4116 N   0  0  0  0  0  0  0  0  0  0  0  0
    1.2874    0.4191    1.0575 C   0  0  0  0  0  0  0  0  0  0  0  0
    0.1724    0.0432    0.0942 C   0  0  0  0  0  0  0  0  0  0  0  0
   -0.9993    1.0267    0.1885 C   0  0  0  0  0  0  0  0  0  0  0  0
   -2.1232    0.6167   -0.7581 C   0  0  0  0  0  0  0  0  0  0  0  0
   -2.5619   -0.7686   -0.4112 N   0  0  0  0  0  0  0  0  0  0  0  0
   -4.0189   -1.2578   -1.1967 S   0  0  0  0  0  6  0  0  0  0  0  0
   -3.8662   -0.8620   -2.5776 O   0  0  0  0  0  0  0  0  0  0  0  0
   -4.3064   -2.6196   -0.8085 O   0  0  0  0  0  0  0  0  0  0  0  0
   -5.2659   -0.2396   -0.4289 C   0  0  0  0  0  0  0  0  0  0  0  0
   -5.1246    0.0317    0.9431 C   0  0  0  0  0  0  0  0  0  0  0  0
   -6.0396    0.8561    1.5939 C   0  0  0  0  0  0  0  0  0  0  0  0
   -7.0996    1.4084    0.8829 C   0  0  0  0  0  0  0  0  0  0  0  0
   -7.2559    1.1220   -0.4751 C   0  0  0  0  0  0  0  0  0  0  0  0
   -6.3521    0.2801   -1.1547 C   0  0  0  0  0  0  0  0  0  0  0  0
   -6.6027   -0.0333   -2.6111 C   0  0  0  0  0  0  0  0  0  0  0  0
   -5.8199    0.6949   -3.4489 F   0  0  0  0  0  0  0  0  0  0  0  0
   -6.4348   -1.3446   -2.9206 F   0  0  0  0  0  0  0  0  0  0  0  0
   -7.8855    0.2535   -2.9871 F   0  0  0  0  0  0  0  0  0  0  0  0
   -1.4533   -1.7469   -0.6173 C   0  0  0  0  0  0  0  0  0  0  0  0
   -0.3021   -1.3958    0.3215 C   0  0  0  0  0  0  0  0  0  0  0  0
    2.4599    0.7418    0.5835 N   0  0  0  0  0  0  0  0  0  0  0  0
    3.3537    1.0488    1.5564 C   0  0  0  0  0  0  0  0  0  0  0  0
    3.1615    1.0693    2.9169 C   0  0  0  0  0  0  0  0  0  0  0  0
    4.3012    1.4439    3.5578 N   0  0  0  0  0  0  0  0  0  0  0  0
    5.2277    1.6597    2.6237 N   0  0  0  0  0  0  0  0  0  0  0  0
    4.6652    1.4027    1.4166 N   0  0  0  0  0  0  0  0  0  0  0  0
    5.4237    1.5650    0.1945 C   0  0  0  0  0  0  0  0  0  0  0  0
    6.0199    0.2574   -0.2630 C   0  0  0  0  0  0  0  0  0  0  0  0
    5.3542   -0.5405   -1.2085 C   0  0  0  0  0  0  0  0  0  0  0  0
    5.9003   -1.7579   -1.6242 C   0  0  0  0  0  0  0  0  0  0  0  0
    7.1141   -2.1923   -1.0958 C   0  0  0  0  0  0  0  0  0  0  0  0
    7.7697   -1.4094   -0.1534 C   0  0  0  0  0  0  0  0  0  0  0  0
    8.9343   -1.8301    0.3569 F   0  0  0  0  0  0  0  0  0  0  0  0
    7.2361   -0.1958    0.2688 C   0  0  0  0  0  0  0  0  0  0  0  0
    0.0522    0.1400    2.7338 H   0  0  0  0  0  0  0  0  0  0  0  0
    0.5874    0.1064   -0.9219 H   0  0  0  0  0  0  0  0  0  0  0  0
   -1.3888    1.0667    1.2135 H   0  0  0  0  0  0  0  0  0  0  0  0
   -0.6584    2.0396   -0.0569 H   0  0  0  0  0  0  0  0  0  0  0  0
   -2.9507    1.3229   -0.6428 H   0  0  0  0  0  0  0  0  0  0  0  0
   -1.7782    0.6591   -1.7977 H   0  0  0  0  0  0  0  0  0  0  0  0
   -4.3050   -0.4030    1.5122 H   0  0  0  0  0  0  0  0  0  0  0  0
   -5.9288    1.0647    2.6557 H   0  0  0  0  0  0  0  0  0  0  0  0
   -7.8166    2.0525    1.3880 H   0  0  0  0  0  0  0  0  0  0  0  0
   -8.1068    1.5527   -1.0045 H   0  0  0  0  0  0  0  0  0  0  0  0
   -1.7916   -2.7602   -0.3777 H   0  0  0  0  0  0  0  0  0  0  0  0
   -1.1206   -1.7298   -1.6615 H   0  0  0  0  0  0  0  0  0  0  0  0
    0.5295   -2.0933    0.1652 H   0  0  0  0  0  0  0  0  0  0  0  0
   -0.6333   -1.5324    1.3586 H   0  0  0  0  0  0  0  0  0  0  0  0
    4.7553    1.9832   -0.5670 H   0  0  0  0  0  0  0  0  0  0  0  0
    6.2090    2.3092    0.3725 H   0  0  0  0  0  0  0  0  0  0  0  0
    4.3994   -0.2203   -1.6234 H   0  0  0  0  0  0  0  0  0  0  0  0
    5.3776   -2.3675   -2.3571 H   0  0  0  0  0  0  0  0  0  0  0  0
    7.5510   -3.1356   -1.4074 H   0  0  0  0  0  0  0  0  0  0  0  0
    7.7736    0.3819    1.0167 H   0  0  0  0  0  0  0  0  0  0  0  0
  1  2  2  0
  2  3  1  0
  3  4  1  0
  4  5  1  0
  5  6  1  0
  6  7  1  0
  7  8  1  0
  8  9  1  0
  9 10  2  0
  9 11  2  0
  9 12  1  0
 12 13  2  0
 13 14  1  0
 14 15  2  0
 15 16  1  0
 16 17  2  0
 17 18  1  0
 18 19  1  0
 18 20  1  0
 18 21  1  0
  8 22  1  0
 22 23  1  0
  4 24  2  0
 24 25  1  0
 25 26  2  0
 26 27  1  0
 27 28  2  0
 28 29  1  0
 29 30  1  0
 30 31  1  0
 31 32  2  0
 32 33  1  0
 33 34  2  0
 34 35  1  0
 35 36  1  0
 35 37  2  0
 26  2  1  0
 37 31  1  0
 23  5  1  0
 29 25  1  0
 17 12  1  0
  3 38  1  0
  5 39  1  0
  6 40  1  0
  6 41  1  0
  7 42  1  0
  7 43  1  0
 13 44  1  0
 14 45  1  0
 15 46  1  0
 16 47  1  0
 22 48  1  0
 22 49  1  0
 23 50  1  0
 23 51  1  0
 30 52  1  0
 30 53  1  0
 32 54  1  0
 33 55  1  0
 34 56  1  0
 37 57  1  0
M  END
$$$$
