
     RDKit          3D

 58 60  0  0  0  0  0  0  0  0999 V2000
   -0.0556   -0.5343    2.4581 C   0  0  0  0  0  0  0  0  0  0  0  0
   -1.4715   -0.6127    1.9495 C   0  0  0  0  0  0  0  0  0  0  0  0
   -2.5230   -0.5269    2.8807 C   0  0  0  0  0  0  0  0  0  0  0  0
   -3.8531   -0.5894    2.4670 C   0  0  0  0  0  0  0  0  0  0  0  0
   -4.1387   -0.7469    1.1122 C   0  0  0  0  0  0  0  0  0  0  0  0
   -5.8286   -0.8862    0.5675 S   0  0  0  0  0  6  0  0  0  0  0  0
   -6.6499   -1.0523    1.7496 O   0  0  0  0  0  0  0  0  0  0  0  0
   -5.8603   -1.8599   -0.5030 O   0  0  0  0  0  0  0  0  0  0  0  0
   -6.1718    0.6389   -0.0791 N   0  0  0  0  0  0  0  0  0  0  0  0
   -6.3047    1.7704    0.8796 C   0  0  0  0  0  0  0  0  0  0  0  0
   -6.4396    3.0897    0.1136 C   0  0  0  0  0  0  0  0  0  0  0  0
   -5.2816    3.3956   -0.6769 O   0  0  0  0  0  0  0  0  0  0  0  0
   -4.6243    2.2331   -1.2069 C   0  0  0  0  0  0  0  0  0  0  0  0
   -5.5519    1.0241   -1.3799 C   0  0  0  0  0  0  0  0  0  0  0  0
   -3.1063   -0.8634    0.1775 C   0  0  0  0  0  0  0  0  0  0  0  0
   -1.7706   -0.7645    0.5787 C   0  0  0  0  0  0  0  0  0  0  0  0
   -0.7130   -0.8386   -0.3511 N   0  0  0  0  0  0  0  0  0  0  0  0
   -0.7890   -0.7194   -1.7300 C   0  0  0  0  0  0  0  0  0  0  0  0
   -1.7913   -0.4197   -2.3756 O   0  0  0  0  0  0  0  0  0  0  0  0
    0.5609   -0.9369   -2.4216 C   0  0  0  0  0  0  0  0  0  0  0  0
    1.4773   -1.6013   -1.5460 O   0  0  0  0  0  0  0  0  0  0  0  0
    2.7361   -1.7236   -2.0492 C   0  0  0  0  0  0  0  0  0  0  0  0
    3.0922   -1.3350   -3.1538 O   0  0  0  0  0  0  0  0  0  0  0  0
    3.6357   -2.4543   -1.0613 C   0  0  0  0  0  0  0  0  0  0  0  0
    4.9623   -1.8605   -1.0481 N   0  0  0  0  0  0  0  0  0  0  0  0
    5.2178   -0.7727   -0.2338 C   0  0  0  0  0  0  0  0  0  0  0  0
    4.3815   -0.3248    0.5467 O   0  0  0  0  0  0  0  0  0  0  0  0
    6.5580   -0.1296   -0.3753 C   0  0  0  0  0  0  0  0  0  0  0  0
    6.7134    1.1954    0.0599 C   0  0  0  0  0  0  0  0  0  0  0  0
    7.9525    1.8330   -0.0533 C   0  0  0  0  0  0  0  0  0  0  0  0
    9.0435    1.1481   -0.5945 C   0  0  0  0  0  0  0  0  0  0  0  0
    8.9001   -0.1760   -1.0148 C   0  0  0  0  0  0  0  0  0  0  0  0
    7.6622   -0.8179   -0.9024 C   0  0  0  0  0  0  0  0  0  0  0  0
   -0.0242   -0.3619    3.5386 H   0  0  0  0  0  0  0  0  0  0  0  0
    0.4772    0.2953    1.9801 H   0  0  0  0  0  0  0  0  0  0  0  0
    0.4692   -1.4744    2.2569 H   0  0  0  0  0  0  0  0  0  0  0  0
   -2.3090   -0.4115    3.9424 H   0  0  0  0  0  0  0  0  0  0  0  0
   -4.6512   -0.5286    3.2040 H   0  0  0  0  0  0  0  0  0  0  0  0
   -5.4212    1.8184    1.5243 H   0  0  0  0  0  0  0  0  0  0  0  0
   -7.1963    1.6167    1.4981 H   0  0  0  0  0  0  0  0  0  0  0  0
   -6.5898    3.9184    0.8112 H   0  0  0  0  0  0  0  0  0  0  0  0
   -7.3078    3.0650   -0.5546 H   0  0  0  0  0  0  0  0  0  0  0  0
   -4.1867    2.5150   -2.1704 H   0  0  0  0  0  0  0  0  0  0  0  0
   -3.7962    1.9910   -0.5329 H   0  0  0  0  0  0  0  0  0  0  0  0
   -6.3717    1.2747   -2.0654 H   0  0  0  0  0  0  0  0  0  0  0  0
   -5.0039    0.1935   -1.8347 H   0  0  0  0  0  0  0  0  0  0  0  0
   -3.3631   -1.0596   -0.8590 H   0  0  0  0  0  0  0  0  0  0  0  0
    0.2289   -0.9168    0.0171 H   0  0  0  0  0  0  0  0  0  0  0  0
    0.9523    0.0480   -2.7077 H   0  0  0  0  0  0  0  0  0  0  0  0
    0.3914   -1.5630   -3.3057 H   0  0  0  0  0  0  0  0  0  0  0  0
    3.2054   -2.4172   -0.0555 H   0  0  0  0  0  0  0  0  0  0  0  0
    3.7292   -3.4987   -1.3762 H   0  0  0  0  0  0  0  0  0  0  0  0
    5.5107   -1.9585   -1.8943 H   0  0  0  0  0  0  0  0  0  0  0  0
    5.8691    1.7355    0.4876 H   0  0  0  0  0  0  0  0  0  0  0  0
    8.0672    2.8625    0.2830 H   0  0  0  0  0  0  0  0  0  0  0  0
   10.0084    1.6454   -0.6806 H   0  0  0  0  0  0  0  0  0  0  0  0
    9.7560   -0.7116   -1.4239 H   0  0  0  0  0  0  0  0  0  0  0  0
    7.5874   -1.8590   -1.2074 H   0  0  0  0  0  0  0  0  0  0  0  0
  1  2  1  0
  2  3  2  0
  3  4  1  0
  4  5  2  0
  5  6  1  0
  6  7  2  0
  6  8  2  0
  6  9  1  0
  9 10  1  0
 10 11  1  0
 11 12  1  0
 12 13  1  0
 13 14  1  0
  5 15  1  0
 15 16  2  0
 16 17  1  0
 17 18  1  0
 18 19  2  0
 18 20  1  0
 20 21  1  0
 21 22  1  0
 22 23  2  0
 22 24  1  0
 24 25  1  0
 25 26  1  0
 26 27  2  0
 26 28  1  0
 28 29  2  0
 29 30  1  0
 30 31  2  0
 31 32  1  0
 32 33  2  0
 16  2  1  0
 33 28  1  0
 14  9  1  0
  1 34  1  0
  1 35  1  0
  1 36  1  0
  3 37  1  0
  4 38  1  0
 10 39  1  0
 10 40  1  0
 11 41  1  0
 11 42  1  0
 13 43  1  0
 13 44  1  0
 14 45  1  0
 14 46  1  0
 15 47  1  0
 17 48  1  0
 20 49  1  0
 20 50  1  0
 24 51  1  0
 24 52  1  0
 25 53  1  0
 29 54  1  0
 30 55  1  0
 31 56  1  0
 32 57  1  0
 33 58  1  0
M  END
$$$$
