
     RDKit          3D

 35 36  0  0  0  0  0  0  0  0999 V2000
    4.4243   -2.3618   -0.5192 C   0  0  0  0  0  0  0  0  0  0  0  0
    4.0938   -0.9725   -0.0629 C   0  0  0  0  0  0  0  0  0  0  0  0
    5.1104   -0.0959    0.2946 C   0  0  0  0  0  0  0  0  0  0  0  0
    4.7657    1.1832    0.7124 C   0  0  0  0  0  0  0  0  0  0  0  0
    3.4229    1.5496    0.7614 C   0  0  0  0  0  0  0  0  0  0  0  0
    2.4650    0.6194    0.3888 C   0  0  0  0  0  0  0  0  0  0  0  0
    1.0954    0.8648    0.3948 N   0  0  0  0  0  0  0  0  0  0  0  0
    0.4183    2.0067    0.7469 C   0  0  0  0  0  0  0  0  0  0  0  0
    0.9202    3.0589    1.1355 O   0  0  0  0  0  0  0  0  0  0  0  0
   -1.1016    1.8716    0.6140 C   0  0  0  0  0  0  0  0  0  0  0  0
   -1.4652    0.5753    0.1493 O   0  0  0  0  0  0  0  0  0  0  0  0
   -2.7991    0.3123   -0.0169 C   0  0  0  0  0  0  0  0  0  0  0  0
   -3.8318    1.2209    0.2354 C   0  0  0  0  0  0  0  0  0  0  0  0
   -5.1635    0.8504    0.0324 C   0  0  0  0  0  0  0  0  0  0  0  0
   -5.4727   -0.4275   -0.4231 C   0  0  0  0  0  0  0  0  0  0  0  0
   -4.4505   -1.3398   -0.6773 C   0  0  0  0  0  0  0  0  0  0  0  0
   -3.1089   -0.9808   -0.4776 C   0  0  0  0  0  0  0  0  0  0  0  0
   -2.0207   -1.9807   -0.7581 C   0  0  0  0  0  0  0  0  0  0  0  0
    2.7841   -0.6285   -0.0198 N   0  0  0  0  0  0  0  0  0  0  0  0
    5.0509   -2.3263   -1.4158 H   0  0  0  0  0  0  0  0  0  0  0  0
    3.5139   -2.9194   -0.7615 H   0  0  0  0  0  0  0  0  0  0  0  0
    4.9553   -2.9028    0.2702 H   0  0  0  0  0  0  0  0  0  0  0  0
    6.1514   -0.3985    0.2504 H   0  0  0  0  0  0  0  0  0  0  0  0
    5.5347    1.8947    0.9995 H   0  0  0  0  0  0  0  0  0  0  0  0
    3.1622    2.5486    1.0882 H   0  0  0  0  0  0  0  0  0  0  0  0
    0.5430    0.0701    0.0915 H   0  0  0  0  0  0  0  0  0  0  0  0
   -1.5265    2.0497    1.6086 H   0  0  0  0  0  0  0  0  0  0  0  0
   -1.4291    2.6352   -0.1008 H   0  0  0  0  0  0  0  0  0  0  0  0
   -3.6392    2.2275    0.5912 H   0  0  0  0  0  0  0  0  0  0  0  0
   -5.9608    1.5624    0.2308 H   0  0  0  0  0  0  0  0  0  0  0  0
   -6.5092   -0.7144   -0.5805 H   0  0  0  0  0  0  0  0  0  0  0  0
   -4.7064   -2.3354   -1.0330 H   0  0  0  0  0  0  0  0  0  0  0  0
   -1.4459   -2.1804    0.1521 H   0  0  0  0  0  0  0  0  0  0  0  0
   -1.3499   -1.6025   -1.5363 H   0  0  0  0  0  0  0  0  0  0  0  0
   -2.4306   -2.9342   -1.1077 H   0  0  0  0  0  0  0  0  0  0  0  0
  1  2  1  0
  2  3  2  0
  3  4  1  0
  4  5  2  0
  5  6  1  0
  6  7  1  0
  7  8  1  0
  8  9  2  0
  8 10  1  0
 10 11  1  0
 11 12  1  0
 12 13  2  0
 13 14  1  0
 14 15  2  0
 15 16  1  0
 16 17  2  0
 17 18  1  0
  6 19  2  0
 19  2  1  0
 17 12  1  0
  1 20  1  0
  1 21  1  0
  1 22  1  0
  3 23  1  0
  4 24  1  0
  5 25  1  0
  7 26  1  0
 10 27  1  0
 10 28  1  0
 13 29  1  0
 14 30  1  0
 15 31  1  0
 16 32  1  0
 18 33  1  0
 18 34  1  0
 18 35  1  0
M  END
$$$$
