
     RDKit          3D

 40 42  0  0  0  0  0  0  0  0999 V2000
   -2.5172    4.0241    3.9935 C   0  0  0  0  0  0  0  0  0  0  0  0
   -1.7567    3.3760    2.9807 O   0  0  0  0  0  0  0  0  0  0  0  0
   -1.9845    2.0381    2.7962 C   0  0  0  0  0  0  0  0  0  0  0  0
   -2.8858    1.2556    3.5124 C   0  0  0  0  0  0  0  0  0  0  0  0
   -3.0363   -0.1097    3.2363 C   0  0  0  0  0  0  0  0  0  0  0  0
   -2.2537   -0.6733    2.2170 C   0  0  0  0  0  0  0  0  0  0  0  0
   -1.3392    0.0839    1.4797 C   0  0  0  0  0  0  0  0  0  0  0  0
   -1.2117    1.4578    1.7819 C   0  0  0  0  0  0  0  0  0  0  0  0
   -0.7211   -0.7964    0.5360 C   0  0  0  0  0  0  0  0  0  0  0  0
    0.2833   -0.4398   -0.4186 C   0  0  0  0  0  0  0  0  0  0  0  0
    0.8276   -1.2543   -1.3389 C   0  0  0  0  0  0  0  0  0  0  0  0
    1.8537   -0.8222   -2.2938 C   0  0  0  0  0  0  0  0  0  0  0  0
    1.7666   -1.2357   -3.6215 C   0  0  0  0  0  0  0  0  0  0  0  0
    2.7438   -0.8458   -4.5305 C   0  0  0  0  0  0  0  0  0  0  0  0
    3.7880   -0.0842   -4.1347 N   0  0  0  0  0  4  0  0  0  0  0  0
    4.8045    0.3274   -5.1176 C   0  0  0  0  0  0  0  0  0  0  0  0
    3.8990    0.3206   -2.8499 C   0  0  0  0  0  0  0  0  0  0  0  0
    2.9439   -0.0437   -1.9077 C   0  0  0  0  0  0  0  0  0  0  0  0
   -1.2675   -2.0483    0.7219 C   0  0  0  0  0  0  0  0  0  0  0  0
   -2.1888   -1.9631    1.7347 N   0  0  0  0  0  0  0  0  0  0  0  0
   -2.9779   -3.0711    2.2271 C   0  0  0  0  0  0  0  0  0  0  0  0
   -2.2214    5.0775    4.0104 H   0  0  0  0  0  0  0  0  0  0  0  0
   -2.3010    3.6018    4.9803 H   0  0  0  0  0  0  0  0  0  0  0  0
   -3.5884    3.9828    3.7701 H   0  0  0  0  0  0  0  0  0  0  0  0
   -3.4985    1.6756    4.3041 H   0  0  0  0  0  0  0  0  0  0  0  0
   -3.7438   -0.7067    3.8037 H   0  0  0  0  0  0  0  0  0  0  0  0
   -0.5135    2.0789    1.2297 H   0  0  0  0  0  0  0  0  0  0  0  0
    0.6086    0.5977   -0.3815 H   0  0  0  0  0  0  0  0  0  0  0  0
    0.4996   -2.2875   -1.4243 H   0  0  0  0  0  0  0  0  0  0  0  0
    0.9330   -1.8495   -3.9588 H   0  0  0  0  0  0  0  0  0  0  0  0
    2.6977   -1.1372   -5.5761 H   0  0  0  0  0  0  0  0  0  0  0  0
    4.4826    1.2823   -5.5405 H   0  0  0  0  0  0  0  0  0  0  0  0
    4.8822   -0.4367   -5.8953 H   0  0  0  0  0  0  0  0  0  0  0  0
    5.7691    0.4292   -4.6138 H   0  0  0  0  0  0  0  0  0  0  0  0
    4.7559    0.9335   -2.5845 H   0  0  0  0  0  0  0  0  0  0  0  0
    3.0627    0.2782   -0.8745 H   0  0  0  0  0  0  0  0  0  0  0  0
   -1.0838   -2.9930    0.2282 H   0  0  0  0  0  0  0  0  0  0  0  0
   -2.7486   -3.2150    3.2860 H   0  0  0  0  0  0  0  0  0  0  0  0
   -2.7274   -3.9764    1.6682 H   0  0  0  0  0  0  0  0  0  0  0  0
   -4.0351   -2.8313    2.0875 H   0  0  0  0  0  0  0  0  0  0  0  0
  1  2  1  0
  2  3  1  0
  3  4  2  0
  4  5  1  0
  5  6  2  0
  6  7  1  0
  7  8  2  0
  7  9  1  0
  9 10  1  0
 10 11  2  3
 11 12  1  0
 12 13  2  0
 13 14  1  0
 14 15  2  0
 15 16  1  0
 15 17  1  0
 17 18  2  0
  9 19  2  0
 19 20  1  0
 20 21  1  0
  8  3  1  0
 18 12  1  0
 20  6  1  0
  1 22  1  0
  1 23  1  0
  1 24  1  0
  4 25  1  0
  5 26  1  0
  8 27  1  0
 10 28  1  0
 11 29  1  0
 13 30  1  0
 14 31  1  0
 16 32  1  0
 16 33  1  0
 16 34  1  0
 17 35  1  0
 18 36  1  0
 19 37  1  0
 21 38  1  0
 21 39  1  0
 21 40  1  0
M  CHG  1  15   1
M  END
$$$$
