
     RDKit          3D

 56 61  0  0  0  0  0  0  0  0999 V2000
   -0.4423    2.2241    3.3975 O   0  0  0  0  0  0  0  0  0  0  0  0
   -0.1903    2.7468    2.3207 C   0  0  0  0  0  0  0  0  0  0  0  0
   -0.4610    4.0735    1.9880 N   0  0  0  0  0  0  0  0  0  0  0  0
    0.0434    4.3875    0.7325 C   0  0  0  0  0  0  0  0  0  0  0  0
   -0.0203    5.6140    0.1035 C   0  0  0  0  0  0  0  0  0  0  0  0
    0.5746    5.7221   -1.1552 C   0  0  0  0  0  0  0  0  0  0  0  0
    1.2103    4.6160   -1.7464 C   0  0  0  0  0  0  0  0  0  0  0  0
    1.2589    3.3812   -1.0911 C   0  0  0  0  0  0  0  0  0  0  0  0
    0.6666    3.2732    0.1581 C   0  0  0  0  0  0  0  0  0  0  0  0
    0.5469    2.1137    1.1067 C   0  0  0  0  0  0  0  0  0  0  0  0
    1.8548    1.4856    1.5249 N   0  0  0  0  0  0  0  0  0  0  0  0
    1.9472    0.0911    0.9389 C   0  0  2  0  0  0  0  0  0  0  0  0
    3.1226    0.0313   -0.0511 C   0  0  0  0  0  0  0  0  0  0  0  0
    3.4263   -1.3675   -0.5454 C   0  0  0  0  0  0  0  0  0  0  0  0
    3.1488   -1.7259   -1.8736 C   0  0  0  0  0  0  0  0  0  0  0  0
    3.3930   -3.0263   -2.3207 C   0  0  0  0  0  0  0  0  0  0  0  0
    3.9234   -3.9770   -1.4484 C   0  0  0  0  0  0  0  0  0  0  0  0
    4.2161   -3.6280   -0.1297 C   0  0  0  0  0  0  0  0  0  0  0  0
    3.9707   -2.3287    0.3205 C   0  0  0  0  0  0  0  0  0  0  0  0
    0.6058   -0.1226    0.3484 C   0  0  0  0  0  0  0  0  0  0  0  0
   -0.1848    1.0229    0.4551 C   0  0  0  0  0  0  0  0  0  0  0  0
   -1.4343    0.7562   -0.0364 C   0  0  0  0  0  0  0  0  0  0  0  0
   -2.4949    1.5533   -0.0914 O   0  0  0  0  0  0  0  0  0  0  0  0
   -1.4023   -0.5609   -0.4815 N   0  0  0  0  0  0  0  0  0  0  0  0
   -2.4732   -1.2626   -1.1878 C   0  0  0  0  0  0  0  0  0  0  0  0
   -3.4624   -1.9047   -0.2421 C   0  0  0  0  0  0  0  0  0  0  0  0
   -4.7477   -1.3509   -0.0321 C   0  0  0  0  0  0  0  0  0  0  0  0
   -5.6455   -1.9530    0.8560 C   0  0  0  0  0  0  0  0  0  0  0  0
   -5.2775   -3.1196    1.5339 C   0  0  0  0  0  0  0  0  0  0  0  0
   -4.0105   -3.6869    1.3248 C   0  0  0  0  0  0  0  0  0  0  0  0
   -3.1086   -3.0831    0.4446 C   0  0  0  0  0  0  0  0  0  0  0  0
   -0.1460   -1.1068   -0.2391 C   0  0  0  0  0  0  0  0  0  0  0  0
    0.1267   -2.3655   -0.5605 O   0  0  0  0  0  0  0  0  0  0  0  0
   -0.9331    4.7088    2.6116 H   0  0  0  0  0  0  0  0  0  0  0  0
   -0.5097    6.4648    0.5628 H   0  0  0  0  0  0  0  0  0  0  0  0
    0.5489    6.6708   -1.6859 H   0  0  0  0  0  0  0  0  0  0  0  0
    1.6684    4.7223   -2.7274 H   0  0  0  0  0  0  0  0  0  0  0  0
    1.7437    2.5309   -1.5566 H   0  0  0  0  0  0  0  0  0  0  0  0
    1.7513    1.3475    2.5341 H   0  0  0  0  0  0  0  0  0  0  0  0
    2.1033   -0.6131    1.7659 H   0  0  0  0  0  0  0  0  0  0  0  0
    2.9422    0.6897   -0.9106 H   0  0  0  0  0  0  0  0  0  0  0  0
    4.0330    0.4143    0.4319 H   0  0  0  0  0  0  0  0  0  0  0  0
    2.7239   -0.9987   -2.5649 H   0  0  0  0  0  0  0  0  0  0  0  0
    3.1660   -3.2973   -3.3504 H   0  0  0  0  0  0  0  0  0  0  0  0
    4.1141   -4.9893   -1.7996 H   0  0  0  0  0  0  0  0  0  0  0  0
    4.6390   -4.3677    0.5478 H   0  0  0  0  0  0  0  0  0  0  0  0
    4.2101   -2.0708    1.3517 H   0  0  0  0  0  0  0  0  0  0  0  0
   -3.2924    1.0265   -0.3047 H   0  0  0  0  0  0  0  0  0  0  0  0
   -2.0260   -2.0182   -1.8450 H   0  0  0  0  0  0  0  0  0  0  0  0
   -2.9649   -0.5363   -1.8482 H   0  0  0  0  0  0  0  0  0  0  0  0
   -5.0724   -0.4509   -0.5585 H   0  0  0  0  0  0  0  0  0  0  0  0
   -6.6349   -1.5115    1.0223 H   0  0  0  0  0  0  0  0  0  0  0  0
   -5.9773   -3.5852    2.2256 H   0  0  0  0  0  0  0  0  0  0  0  0
   -3.7195   -4.5974    1.8500 H   0  0  0  0  0  0  0  0  0  0  0  0
   -2.1197   -3.5368    0.2964 H   0  0  0  0  0  0  0  0  0  0  0  0
    1.0715   -2.5246   -0.3698 H   0  0  0  0  0  0  0  0  0  0  0  0
  1  2  2  0
  2  3  1  0
  3  4  1  0
  4  5  2  0
  5  6  1  0
  6  7  2  0
  7  8  1  0
  8  9  2  0
  9 10  1  0
 10 11  1  0
 11 12  1  0
 12 13  1  0
 13 14  1  0
 14 15  2  0
 15 16  1  0
 16 17  2  0
 17 18  1  0
 18 19  2  0
 12 20  1  0
 20 21  1  0
 21 22  2  0
 22 23  1  0
 22 24  1  0
 24 25  1  0
 25 26  1  0
 26 27  2  0
 27 28  1  0
 28 29  2  0
 29 30  1  0
 30 31  2  0
 24 32  1  0
 32 33  1  0
 10  2  1  0
 19 14  1  0
 32 20  2  0
  9  4  1  0
 21 10  1  0
 31 26  1  0
  3 34  1  0
  5 35  1  0
  6 36  1  0
  7 37  1  0
  8 38  1  0
 11 39  1  0
 12 40  1  1
 13 41  1  0
 13 42  1  0
 15 43  1  0
 16 44  1  0
 17 45  1  0
 18 46  1  0
 19 47  1  0
 23 48  1  0
 25 49  1  0
 25 50  1  0
 27 51  1  0
 28 52  1  0
 29 53  1  0
 30 54  1  0
 31 55  1  0
 33 56  1  0
M  END
$$$$
