
     RDKit          3D

 39 41  0  0  0  0  0  0  0  0999 V2000
   -3.7472    1.4491   -1.9122 C   0  0  0  0  0  0  0  0  0  0  0  0
   -3.9952    0.4709   -0.7718 C   0  0  0  0  0  0  0  0  0  0  0  0
   -2.7953    0.2626    0.0344 N   0  0  0  0  0  0  0  0  0  0  0  0
   -2.5779    1.1388    1.0871 C   0  0  0  0  0  0  0  0  0  0  0  0
   -3.3289    2.0698    1.3706 O   0  0  0  0  0  0  0  0  0  0  0  0
   -1.3668    0.9217    1.8905 C   0  0  0  0  0  0  0  0  0  0  0  0
   -1.1267    1.7458    3.0025 C   0  0  0  0  0  0  0  0  0  0  0  0
    0.0112    1.5568    3.7792 C   0  0  0  0  0  0  0  0  0  0  0  0
    0.9047    0.5467    3.4447 C   0  0  0  0  0  0  0  0  0  0  0  0
    0.6611   -0.2713    2.3346 C   0  0  0  0  0  0  0  0  0  0  0  0
   -0.4807   -0.0946    1.5363 C   0  0  0  0  0  0  0  0  0  0  0  0
   -0.7573   -0.8992    0.3942 N   0  0  0  0  0  0  0  0  0  0  0  0
    0.1789   -1.9449   -0.0336 C   0  0  0  0  0  0  0  0  0  0  0  0
    1.4014   -1.4153   -0.7623 C   0  0  0  0  0  0  0  0  0  0  0  0
    2.6857   -1.8450   -0.3886 C   0  0  0  0  0  0  0  0  0  0  0  0
    3.8190   -1.3800   -1.0617 C   0  0  0  0  0  0  0  0  0  0  0  0
    3.6701   -0.4865   -2.1292 C   0  0  0  0  0  0  0  0  0  0  0  0
    4.8579    0.0048   -2.8382 N   0  0  0  0  0  4  0  0  0  0  0  0
    5.9661   -0.3902   -2.4476 O   0  0  0  0  0  0  0  0  0  0  0  0
    4.6844    0.7866   -3.7839 O   0  0  0  0  0  1  0  0  0  0  0  0
    2.3978   -0.0643   -2.5293 C   0  0  0  0  0  0  0  0  0  0  0  0
    1.2711   -0.5349   -1.8494 C   0  0  0  0  0  0  0  0  0  0  0  0
   -1.9029   -0.7183   -0.3771 C   0  0  0  0  0  0  0  0  0  0  0  0
   -2.1108   -1.3904   -1.3909 O   0  0  0  0  0  0  0  0  0  0  0  0
   -4.6604    1.5873   -2.4990 H   0  0  0  0  0  0  0  0  0  0  0  0
   -3.4334    2.4268   -1.5323 H   0  0  0  0  0  0  0  0  0  0  0  0
   -2.9618    1.0846   -2.5822 H   0  0  0  0  0  0  0  0  0  0  0  0
   -4.3361   -0.4874   -1.1801 H   0  0  0  0  0  0  0  0  0  0  0  0
   -4.8034    0.8508   -0.1363 H   0  0  0  0  0  0  0  0  0  0  0  0
   -1.8285    2.5363    3.2628 H   0  0  0  0  0  0  0  0  0  0  0  0
    0.1984    2.1946    4.6396 H   0  0  0  0  0  0  0  0  0  0  0  0
    1.7978    0.3923    4.0465 H   0  0  0  0  0  0  0  0  0  0  0  0
    1.3966   -1.0403    2.1265 H   0  0  0  0  0  0  0  0  0  0  0  0
    0.4612   -2.5404    0.8430 H   0  0  0  0  0  0  0  0  0  0  0  0
   -0.3167   -2.6577   -0.7041 H   0  0  0  0  0  0  0  0  0  0  0  0
    2.8153   -2.5487    0.4321 H   0  0  0  0  0  0  0  0  0  0  0  0
    4.8019   -1.7250   -0.7469 H   0  0  0  0  0  0  0  0  0  0  0  0
    2.2638    0.6205   -3.3644 H   0  0  0  0  0  0  0  0  0  0  0  0
    0.2856   -0.2126   -2.1828 H   0  0  0  0  0  0  0  0  0  0  0  0
  1  2  1  0
  2  3  1  0
  3  4  1  0
  4  5  2  0
  4  6  1  0
  6  7  2  0
  7  8  1  0
  8  9  2  0
  9 10  1  0
 10 11  2  0
 11 12  1  0
 12 13  1  0
 13 14  1  0
 14 15  2  0
 15 16  1  0
 16 17  2  0
 17 18  1  0
 18 19  2  0
 18 20  1  0
 17 21  1  0
 21 22  2  0
 12 23  1  0
 23 24  2  0
 23  3  1  0
 11  6  1  0
 22 14  1  0
  1 25  1  0
  1 26  1  0
  1 27  1  0
  2 28  1  0
  2 29  1  0
  7 30  1  0
  8 31  1  0
  9 32  1  0
 10 33  1  0
 13 34  1  0
 13 35  1  0
 15 36  1  0
 16 37  1  0
 21 38  1  0
 22 39  1  0
M  CHG  2  18   1  20  -1
M  END
$$$$
