
     RDKit          3D

 53 58  0  0  0  0  0  0  0  0999 V2000
   -0.9081    1.9162   -0.8603 O   0  0  0  0  0  0  0  0  0  0  0  0
   -1.4397    0.8020   -0.8309 C   0  0  0  0  0  0  0  0  0  0  0  0
   -0.6505   -0.3866   -1.4217 C   0  0  0  0  0  0  0  0  0  0  0  0
    0.7732   -0.2930   -1.0435 N   0  0  0  0  0  4  0  0  0  0  0  0
    1.4127   -0.9905   -0.0202 C   0  0  0  0  0  0  0  0  0  0  0  0
    2.7319   -0.5592    0.0639 C   0  0  0  0  0  0  0  0  0  0  0  0
    3.8110   -1.0510    1.0978 C   0  0  0  0  0  0  0  0  0  0  0  0
    3.4946   -2.0598    2.0151 C   0  0  0  0  0  0  0  0  0  0  0  0
    4.4516   -2.4978    2.9379 C   0  0  0  0  0  0  0  0  0  0  0  0
    5.7286   -1.9327    2.9552 C   0  0  0  0  0  0  0  0  0  0  0  0
    6.8567   -2.5218    4.1190 Cl  0  0  0  0  0  0  0  0  0  0  0  0
    6.0445   -0.9225    2.0435 C   0  0  0  0  0  0  0  0  0  0  0  0
    7.5967   -0.1658    1.9989 Cl  0  0  0  0  0  0  0  0  0  0  0  0
    5.0864   -0.4832    1.1188 C   0  0  0  0  0  0  0  0  0  0  0  0
    2.8257    0.3767   -0.9508 N   0  0  0  0  0  0  0  0  0  0  0  0
    1.6552    0.5577   -1.5594 C   0  0  0  0  0  0  0  0  0  0  0  0
    1.7023    1.5885   -2.6233 C   0  0  0  0  0  0  0  0  0  0  0  0
    3.2196    1.7748   -2.8171 C   0  0  0  0  0  0  0  0  0  0  0  0
    3.8562    1.2483   -1.5019 C   0  0  0  0  0  0  0  0  0  0  0  0
   -2.6445    0.4742   -0.1861 N   0  0  0  0  0  0  0  0  0  0  0  0
   -3.4774   -0.6099   -0.6405 C   0  0  0  0  0  0  0  0  0  0  0  0
   -3.5823   -0.8682   -2.0226 C   0  0  0  0  0  0  0  0  0  0  0  0
   -4.3703   -1.9147   -2.5077 C   0  0  0  0  0  0  0  0  0  0  0  0
   -5.0792   -2.7152   -1.6216 C   0  0  0  0  0  0  0  0  0  0  0  0
   -5.0188   -2.4535   -0.2546 C   0  0  0  0  0  0  0  0  0  0  0  0
   -4.2374   -1.3977    0.2370 C   0  0  0  0  0  0  0  0  0  0  0  0
   -4.2091   -1.1260    1.9861 S   0  0  0  0  0  0  0  0  0  0  0  0
   -3.8727    0.6210    1.9749 C   0  0  0  0  0  0  0  0  0  0  0  0
   -4.3168    1.3630    3.0811 C   0  0  0  0  0  0  0  0  0  0  0  0
   -4.0399    2.7221    3.1782 C   0  0  0  0  0  0  0  0  0  0  0  0
   -3.3108    3.3431    2.1744 C   0  0  0  0  0  0  0  0  0  0  0  0
   -2.8567    2.6057    1.0751 C   0  0  0  0  0  0  0  0  0  0  0  0
   -3.1278    1.2319    0.9457 C   0  0  0  0  0  0  0  0  0  0  0  0
   -1.0154   -1.3514   -1.0616 H   0  0  0  0  0  0  0  0  0  0  0  0
   -0.7143   -0.3554   -2.5132 H   0  0  0  0  0  0  0  0  0  0  0  0
    0.8329   -1.7045    0.5395 H   0  0  0  0  0  0  0  0  0  0  0  0
    2.5158   -2.5316    2.0423 H   0  0  0  0  0  0  0  0  0  0  0  0
    4.1950   -3.2844    3.6461 H   0  0  0  0  0  0  0  0  0  0  0  0
    5.3636    0.3112    0.4377 H   0  0  0  0  0  0  0  0  0  0  0  0
    1.2273    2.4855   -2.2230 H   0  0  0  0  0  0  0  0  0  0  0  0
    1.1920    1.2117   -3.5101 H   0  0  0  0  0  0  0  0  0  0  0  0
    3.5534    1.1438   -3.6497 H   0  0  0  0  0  0  0  0  0  0  0  0
    3.4995    2.8073   -3.0425 H   0  0  0  0  0  0  0  0  0  0  0  0
    4.0406    2.0645   -0.7975 H   0  0  0  0  0  0  0  0  0  0  0  0
    4.7733    0.6916   -1.7069 H   0  0  0  0  0  0  0  0  0  0  0  0
   -3.1089   -0.2211   -2.7570 H   0  0  0  0  0  0  0  0  0  0  0  0
   -4.4534   -2.0904   -3.5787 H   0  0  0  0  0  0  0  0  0  0  0  0
   -5.7027   -3.5262   -1.9934 H   0  0  0  0  0  0  0  0  0  0  0  0
   -5.6003   -3.0741    0.4259 H   0  0  0  0  0  0  0  0  0  0  0  0
   -4.8816    0.8838    3.8788 H   0  0  0  0  0  0  0  0  0  0  0  0
   -4.3937    3.2931    4.0334 H   0  0  0  0  0  0  0  0  0  0  0  0
   -3.1002    4.4086    2.2365 H   0  0  0  0  0  0  0  0  0  0  0  0
   -2.3281    3.1617    0.3066 H   0  0  0  0  0  0  0  0  0  0  0  0
  1  2  2  0
  2  3  1  0
  3  4  1  0
  4  5  1  0
  5  6  2  0
  6  7  1  0
  7  8  2  0
  8  9  1  0
  9 10  2  0
 10 11  1  0
 10 12  1  0
 12 13  1  0
 12 14  2  0
  6 15  1  0
 15 16  1  0
 16 17  1  0
 17 18  1  0
 18 19  1  0
  2 20  1  0
 20 21  1  0
 21 22  2  0
 22 23  1  0
 23 24  2  0
 24 25  1  0
 25 26  2  0
 26 27  1  0
 27 28  1  0
 28 29  2  0
 29 30  1  0
 30 31  2  0
 31 32  1  0
 32 33  2  0
 16  4  2  0
 33 20  1  0
 14  7  1  0
 19 15  1  0
 26 21  1  0
 33 28  1  0
  3 34  1  0
  3 35  1  0
  5 36  1  0
  8 37  1  0
  9 38  1  0
 14 39  1  0
 17 40  1  0
 17 41  1  0
 18 42  1  0
 18 43  1  0
 19 44  1  0
 19 45  1  0
 22 46  1  0
 23 47  1  0
 24 48  1  0
 25 49  1  0
 29 50  1  0
 30 51  1  0
 31 52  1  0
 32 53  1  0
M  CHG  1   4   1
M  END
$$$$
