
     RDKit          3D

 53 54  0  0  0  0  0  0  0  0999 V2000
   -4.1412    0.0626   -2.7837 C   0  0  0  0  0  0  0  0  0  0  0  0
   -3.5973    0.3191   -1.3872 C   0  0  0  0  0  0  0  0  0  0  0  0
   -4.7103    0.4690   -0.4173 N   0  0  0  0  0  0  0  0  0  0  0  0
   -5.4068   -0.7935   -0.0661 C   0  0  0  0  0  0  0  0  0  0  0  0
   -6.8455   -0.7273   -0.5493 C   0  0  0  0  0  0  0  0  0  0  0  0
   -4.4974    1.6037    0.8377 S   0  0  0  0  0  6  0  0  0  0  0  0
   -3.9382    2.8150    0.2770 O   0  0  0  0  0  0  0  0  0  0  0  0
   -5.7137    1.6392    1.6231 O   0  0  0  0  0  0  0  0  0  0  0  0
   -3.2320    0.8582    1.8489 C   0  0  0  0  0  0  0  0  0  0  0  0
   -3.5877    0.1583    3.0060 C   0  0  0  0  0  0  0  0  0  0  0  0
   -2.5927   -0.4089    3.8014 C   0  0  0  0  0  0  0  0  0  0  0  0
   -1.2478   -0.2669    3.4483 C   0  0  0  0  0  0  0  0  0  0  0  0
   -0.8884    0.4583    2.3025 C   0  0  0  0  0  0  0  0  0  0  0  0
    0.5271    0.6291    1.8795 C   0  0  0  0  0  0  0  0  0  0  0  0
    0.8531    1.1298    0.8145 O   0  0  0  0  0  0  0  0  0  0  0  0
    1.3724    0.1657    2.8323 O   0  0  0  0  0  0  0  0  0  0  0  0
    2.7444    0.1827    2.4414 C   0  0  0  0  0  0  0  0  0  0  0  0
    3.0827   -0.9016    1.4128 C   0  0  0  0  0  0  0  0  0  0  0  0
    2.3679   -1.8796    1.2055 O   0  0  0  0  0  0  0  0  0  0  0  0
    4.2783   -0.6944    0.7579 N   0  0  0  0  0  0  0  0  0  0  0  0
    4.6824   -1.5520   -0.3435 C   0  0  0  0  0  0  0  0  0  0  0  0
    6.0608   -1.1906   -0.9074 C   0  0  0  0  0  0  0  0  0  0  0  0
    6.0526    0.0601   -1.6538 N   0  0  0  0  0  0  0  0  0  0  0  0
    5.9817    0.1302   -3.0235 C   0  0  0  0  0  0  0  0  0  0  0  0
    5.9405   -1.0250   -3.7442 O   0  0  0  0  0  0  0  0  0  0  0  0
    5.9508    1.3741   -3.5162 C   0  0  0  0  0  0  0  0  0  0  0  0
    6.0009    2.5570   -2.2440 S   0  0  0  0  0  0  0  0  0  0  0  0
    6.0285    1.2869   -1.0108 C   0  0  0  0  0  0  0  0  0  0  0  0
    5.9913    1.4965    0.1926 O   0  0  0  0  0  0  0  0  0  0  0  0
   -1.8873    1.0317    1.5061 C   0  0  0  0  0  0  0  0  0  0  0  0
   -4.8325    0.8559   -3.0868 H   0  0  0  0  0  0  0  0  0  0  0  0
   -3.3214    0.0269   -3.5081 H   0  0  0  0  0  0  0  0  0  0  0  0
   -4.6768   -0.8900   -2.8392 H   0  0  0  0  0  0  0  0  0  0  0  0
   -2.9959    1.2321   -1.4317 H   0  0  0  0  0  0  0  0  0  0  0  0
   -2.9345   -0.4972   -1.0799 H   0  0  0  0  0  0  0  0  0  0  0  0
   -5.3923   -0.9712    1.0130 H   0  0  0  0  0  0  0  0  0  0  0  0
   -4.9045   -1.6554   -0.5191 H   0  0  0  0  0  0  0  0  0  0  0  0
   -6.8942   -0.5854   -1.6336 H   0  0  0  0  0  0  0  0  0  0  0  0
   -7.3715   -1.6548   -0.3033 H   0  0  0  0  0  0  0  0  0  0  0  0
   -7.3832    0.1034   -0.0812 H   0  0  0  0  0  0  0  0  0  0  0  0
   -4.6318    0.0526    3.2944 H   0  0  0  0  0  0  0  0  0  0  0  0
   -2.8624   -0.9620    4.6986 H   0  0  0  0  0  0  0  0  0  0  0  0
   -0.4888   -0.7283    4.0765 H   0  0  0  0  0  0  0  0  0  0  0  0
    3.0269    1.1752    2.0705 H   0  0  0  0  0  0  0  0  0  0  0  0
    3.3411   -0.0175    3.3377 H   0  0  0  0  0  0  0  0  0  0  0  0
    4.7268    0.2176    0.8489 H   0  0  0  0  0  0  0  0  0  0  0  0
    4.6957   -2.5811    0.0329 H   0  0  0  0  0  0  0  0  0  0  0  0
    3.9119   -1.4901   -1.1207 H   0  0  0  0  0  0  0  0  0  0  0  0
    6.7765   -1.0830   -0.0829 H   0  0  0  0  0  0  0  0  0  0  0  0
    6.4261   -1.9996   -1.5490 H   0  0  0  0  0  0  0  0  0  0  0  0
    5.8773   -0.7956   -4.6875 H   0  0  0  0  0  0  0  0  0  0  0  0
    5.8932    1.6492   -4.5590 H   0  0  0  0  0  0  0  0  0  0  0  0
   -1.6147    1.6108    0.6252 H   0  0  0  0  0  0  0  0  0  0  0  0
  1  2  1  0
  2  3  1  0
  3  4  1  0
  4  5  1  0
  3  6  1  0
  6  7  2  0
  6  8  2  0
  6  9  1  0
  9 10  2  0
 10 11  1  0
 11 12  2  0
 12 13  1  0
 13 14  1  0
 14 15  2  0
 14 16  1  0
 16 17  1  0
 17 18  1  0
 18 19  2  0
 18 20  1  0
 20 21  1  0
 21 22  1  0
 22 23  1  0
 23 24  1  0
 24 25  1  0
 24 26  2  0
 26 27  1  0
 27 28  1  0
 28 29  2  0
 13 30  2  0
 30  9  1  0
 28 23  1  0
  1 31  1  0
  1 32  1  0
  1 33  1  0
  2 34  1  0
  2 35  1  0
  4 36  1  0
  4 37  1  0
  5 38  1  0
  5 39  1  0
  5 40  1  0
 10 41  1  0
 11 42  1  0
 12 43  1  0
 17 44  1  0
 17 45  1  0
 20 46  1  0
 21 47  1  0
 21 48  1  0
 22 49  1  0
 22 50  1  0
 25 51  1  0
 26 52  1  0
 30 53  1  0
M  END
$$$$
