
     RDKit          3D

 61 65  0  0  0  0  0  0  0  0999 V2000
   -8.9256    1.7179    2.1603 C   0  0  0  0  0  0  0  0  0  0  0  0
   -8.0856    2.3875    1.2305 O   0  0  0  0  0  0  0  0  0  0  0  0
   -6.8415    1.8571    1.0068 C   0  0  0  0  0  0  0  0  0  0  0  0
   -6.2785    0.8100    1.7402 C   0  0  0  0  0  0  0  0  0  0  0  0
   -4.9977    0.3361    1.4281 C   0  0  0  0  0  0  0  0  0  0  0  0
   -4.2583    0.8924    0.3743 C   0  0  0  0  0  0  0  0  0  0  0  0
   -2.9479    0.3729   -0.0081 C   0  0  0  0  0  0  0  0  0  0  0  0
   -2.2001    0.6808   -1.0518 N   0  0  0  0  0  0  0  0  0  0  0  0
   -1.1084   -0.1601   -0.9547 C   0  0  0  0  0  0  0  0  0  0  0  0
   -0.0658   -0.1633   -2.0118 C   0  0  0  0  0  0  0  0  0  0  0  0
    1.1663    0.4642   -1.5631 N   0  0  0  0  0  0  0  0  0  0  0  0
    2.3859   -0.1331   -1.3497 C   0  0  0  0  0  0  0  0  0  0  0  0
    2.6468   -1.8407   -1.4861 S   0  0  0  0  0  0  0  0  0  0  0  0
    4.4056   -1.9059   -1.9390 C   0  0  0  0  0  0  0  0  0  0  0  0
    5.2972   -2.2764   -0.7794 C   0  0  0  0  0  0  0  0  0  0  0  0
    5.9018   -1.2820    0.0016 C   0  0  0  0  0  0  0  0  0  0  0  0
    6.7450   -1.6233    1.0646 C   0  0  0  0  0  0  0  0  0  0  0  0
    7.0027   -2.9662    1.3630 C   0  0  0  0  0  0  0  0  0  0  0  0
    7.9024   -3.3216    2.5090 C   0  0  0  0  0  0  0  0  0  0  0  0
    6.3785   -3.9624    0.6025 C   0  0  0  0  0  0  0  0  0  0  0  0
    5.5326   -3.6208   -0.4580 C   0  0  0  0  0  0  0  0  0  0  0  0
    3.3166    0.7430   -1.0506 N   0  0  0  0  0  0  0  0  0  0  0  0
    2.6899    1.9628   -1.0742 C   0  0  0  0  0  0  0  0  0  0  0  0
    3.2175    3.2328   -0.8449 C   0  0  0  0  0  0  0  0  0  0  0  0
    2.3239    4.2846   -0.9665 C   0  0  0  0  0  0  0  0  0  0  0  0
    1.0125    4.1549   -1.2776 N   0  0  0  0  0  0  0  0  0  0  0  0
    0.4980    2.9197   -1.4908 C   0  0  0  0  0  0  0  0  0  0  0  0
    1.3439    1.8231   -1.3945 C   0  0  0  0  0  0  0  0  0  0  0  0
   -1.2357   -0.9407    0.1766 C   0  0  0  0  0  0  0  0  0  0  0  0
   -0.4373   -2.0066    0.8089 C   0  0  0  0  0  0  0  0  0  0  0  0
   -2.4091   -0.6016    0.7900 O   0  0  0  0  0  0  0  0  0  0  0  0
   -4.8214    1.9531   -0.3499 C   0  0  0  0  0  0  0  0  0  0  0  0
   -6.0931    2.4432   -0.0277 C   0  0  0  0  0  0  0  0  0  0  0  0
   -6.6864    3.4466   -0.7544 O   0  0  0  0  0  0  0  0  0  0  0  0
   -5.8443    4.5755   -0.9664 C   0  0  0  0  0  0  0  0  0  0  0  0
   -8.5204    1.7846    3.1754 H   0  0  0  0  0  0  0  0  0  0  0  0
   -9.0909    0.6762    1.8676 H   0  0  0  0  0  0  0  0  0  0  0  0
   -9.8973    2.2208    2.1571 H   0  0  0  0  0  0  0  0  0  0  0  0
   -6.8090    0.3356    2.5606 H   0  0  0  0  0  0  0  0  0  0  0  0
   -4.5908   -0.4895    2.0108 H   0  0  0  0  0  0  0  0  0  0  0  0
    0.1302   -1.1828   -2.3528 H   0  0  0  0  0  0  0  0  0  0  0  0
   -0.4070    0.3985   -2.8905 H   0  0  0  0  0  0  0  0  0  0  0  0
    4.5116   -2.6668   -2.7217 H   0  0  0  0  0  0  0  0  0  0  0  0
    4.7409   -0.9697   -2.4036 H   0  0  0  0  0  0  0  0  0  0  0  0
    5.7174   -0.2312   -0.2134 H   0  0  0  0  0  0  0  0  0  0  0  0
    7.2004   -0.8325    1.6577 H   0  0  0  0  0  0  0  0  0  0  0  0
    8.8072   -2.7043    2.4875 H   0  0  0  0  0  0  0  0  0  0  0  0
    7.3844   -3.1626    3.4609 H   0  0  0  0  0  0  0  0  0  0  0  0
    8.2212   -4.3695    2.4559 H   0  0  0  0  0  0  0  0  0  0  0  0
    6.5470   -5.0137    0.8271 H   0  0  0  0  0  0  0  0  0  0  0  0
    5.0594   -4.4154   -1.0347 H   0  0  0  0  0  0  0  0  0  0  0  0
    4.2590    3.3834   -0.5979 H   0  0  0  0  0  0  0  0  0  0  0  0
    2.6550    5.3081   -0.8115 H   0  0  0  0  0  0  0  0  0  0  0  0
   -0.5575    2.8576   -1.7313 H   0  0  0  0  0  0  0  0  0  0  0  0
   -0.0925   -2.7263    0.0599 H   0  0  0  0  0  0  0  0  0  0  0  0
    0.4349   -1.5827    1.3174 H   0  0  0  0  0  0  0  0  0  0  0  0
   -1.0300   -2.5559    1.5487 H   0  0  0  0  0  0  0  0  0  0  0  0
   -4.2701    2.3746   -1.1871 H   0  0  0  0  0  0  0  0  0  0  0  0
   -5.2707    4.8342   -0.0694 H   0  0  0  0  0  0  0  0  0  0  0  0
   -6.4847    5.4279   -1.2133 H   0  0  0  0  0  0  0  0  0  0  0  0
   -5.1778    4.4020   -1.8167 H   0  0  0  0  0  0  0  0  0  0  0  0
  1  2  1  0
  2  3  1  0
  3  4  2  0
  4  5  1  0
  5  6  2  0
  6  7  1  0
  7  8  2  0
  8  9  1  0
  9 10  1  0
 10 11  1  0
 11 12  1  0
 12 13  1  0
 13 14  1  0
 14 15  1  0
 15 16  2  0
 16 17  1  0
 17 18  2  0
 18 19  1  0
 18 20  1  0
 20 21  2  0
 12 22  2  0
 22 23  1  0
 23 24  2  0
 24 25  1  0
 25 26  2  0
 26 27  1  0
 27 28  2  0
  9 29  2  0
 29 30  1  0
 29 31  1  0
  6 32  1  0
 32 33  2  0
 33 34  1  0
 34 35  1  0
 33  3  1  0
 31  7  1  0
 28 11  1  0
 21 15  1  0
 28 23  1  0
  1 36  1  0
  1 37  1  0
  1 38  1  0
  4 39  1  0
  5 40  1  0
 10 41  1  0
 10 42  1  0
 14 43  1  0
 14 44  1  0
 16 45  1  0
 17 46  1  0
 19 47  1  0
 19 48  1  0
 19 49  1  0
 20 50  1  0
 21 51  1  0
 24 52  1  0
 25 53  1  0
 27 54  1  0
 30 55  1  0
 30 56  1  0
 30 57  1  0
 32 58  1  0
 35 59  1  0
 35 60  1  0
 35 61  1  0
M  END
$$$$
