
     RDKit          3D

 39 40  0  0  0  0  0  0  0  0999 V2000
   -1.6398    1.2703    2.1513 C   0  0  0  0  0  0  0  0  0  0  0  0
   -2.7430    1.0596    1.1305 C   0  0  0  0  0  0  0  0  0  0  0  0
   -2.1679    0.4602   -0.0313 O   0  0  0  0  0  0  0  0  0  0  0  0
   -3.0098    0.2037   -1.0826 C   0  0  0  0  0  0  0  0  0  0  0  0
   -4.3805    0.4687   -1.1047 C   0  0  0  0  0  0  0  0  0  0  0  0
   -5.1375    0.1774   -2.2458 C   0  0  0  0  0  0  0  0  0  0  0  0
   -4.5322   -0.3740   -3.3747 C   0  0  0  0  0  0  0  0  0  0  0  0
   -3.1668   -0.6439   -3.3654 C   0  0  0  0  0  0  0  0  0  0  0  0
   -2.4199   -0.3725   -2.2190 C   0  0  0  0  0  0  0  0  0  0  0  0
   -1.0722   -0.6245   -2.2619 O   0  0  0  0  0  0  0  0  0  0  0  0
   -0.7625   -1.8559   -1.6045 C   0  0  0  0  0  0  0  0  0  0  0  0
    0.4856   -1.7165   -0.7305 C   0  0  0  0  0  0  0  0  0  0  0  0
    1.1713   -2.6998   -0.4629 O   0  0  0  0  0  0  0  0  0  0  0  0
    0.6792   -0.4290   -0.2873 N   0  0  0  0  0  0  0  0  0  0  0  0
    1.6935    0.0392    0.5040 C   0  0  0  0  0  0  0  0  0  0  0  0
    1.7736    1.2968    0.8780 N   0  0  0  0  0  0  0  0  0  0  0  0
    2.8792    1.5384    1.6693 N   0  0  0  0  0  0  0  0  0  0  0  0
    3.6034    0.4516    1.8511 C   0  0  0  0  0  0  0  0  0  0  0  0
    4.8530    0.3715    2.6665 C   0  0  0  0  0  0  0  0  0  0  0  0
    5.9351    0.9821    1.9538 O   0  0  0  0  0  0  0  0  0  0  0  0
    6.6020    0.0862    1.0751 C   0  0  0  0  0  0  0  0  0  0  0  0
    2.9521   -0.9467    1.0908 S   0  0  0  0  0  0  0  0  0  0  0  0
   -0.8703    1.9395    1.7525 H   0  0  0  0  0  0  0  0  0  0  0  0
   -1.1491    0.3214    2.3930 H   0  0  0  0  0  0  0  0  0  0  0  0
   -2.0404    1.7053    3.0724 H   0  0  0  0  0  0  0  0  0  0  0  0
   -3.1867    2.0305    0.8801 H   0  0  0  0  0  0  0  0  0  0  0  0
   -3.5026    0.3960    1.5598 H   0  0  0  0  0  0  0  0  0  0  0  0
   -4.8966    0.9050   -0.2553 H   0  0  0  0  0  0  0  0  0  0  0  0
   -6.2038    0.3926   -2.2545 H   0  0  0  0  0  0  0  0  0  0  0  0
   -5.1231   -0.5856   -4.2623 H   0  0  0  0  0  0  0  0  0  0  0  0
   -2.6864   -1.0610   -4.2455 H   0  0  0  0  0  0  0  0  0  0  0  0
   -1.5741   -2.2383   -0.9707 H   0  0  0  0  0  0  0  0  0  0  0  0
   -0.5461   -2.5987   -2.3808 H   0  0  0  0  0  0  0  0  0  0  0  0
   -0.0058    0.2704   -0.5623 H   0  0  0  0  0  0  0  0  0  0  0  0
    4.7057    0.9506    3.5849 H   0  0  0  0  0  0  0  0  0  0  0  0
    5.1089   -0.6510    2.9658 H   0  0  0  0  0  0  0  0  0  0  0  0
    5.9277   -0.2784    0.2955 H   0  0  0  0  0  0  0  0  0  0  0  0
    7.0249   -0.7543    1.6341 H   0  0  0  0  0  0  0  0  0  0  0  0
    7.4219    0.6269    0.5934 H   0  0  0  0  0  0  0  0  0  0  0  0
  1  2  1  0
  2  3  1  0
  3  4  1  0
  4  5  2  0
  5  6  1  0
  6  7  2  0
  7  8  1  0
  8  9  2  0
  9 10  1  0
 10 11  1  0
 11 12  1  0
 12 13  2  0
 12 14  1  0
 14 15  1  0
 15 16  2  0
 16 17  1  0
 17 18  2  0
 18 19  1  0
 19 20  1  0
 20 21  1  0
 18 22  1  0
  9  4  1  0
 22 15  1  0
  1 23  1  0
  1 24  1  0
  1 25  1  0
  2 26  1  0
  2 27  1  0
  5 28  1  0
  6 29  1  0
  7 30  1  0
  8 31  1  0
 11 32  1  0
 11 33  1  0
 14 34  1  0
 19 35  1  0
 19 36  1  0
 21 37  1  0
 21 38  1  0
 21 39  1  0
M  END
$$$$
