
     RDKit          3D

 54 57  0  0  0  0  0  0  0  0999 V2000
   -5.7238   -0.0571   -2.8002 C   0  0  0  0  0  0  0  0  0  0  0  0
   -5.6236    1.0706   -1.9412 O   0  0  0  0  0  0  0  0  0  0  0  0
   -4.4960    1.1724   -1.1678 C   0  0  0  0  0  0  0  0  0  0  0  0
   -3.3603    0.3690   -1.3022 C   0  0  0  0  0  0  0  0  0  0  0  0
   -2.2323    0.5317   -0.4705 C   0  0  0  0  0  0  0  0  0  0  0  0
   -1.0474   -0.3380   -0.6452 C   0  0  0  0  0  0  0  0  0  0  0  0
    0.2443    0.0728   -0.3691 C   0  0  0  0  0  0  0  0  0  0  0  0
    1.2876   -0.8354   -0.5570 C   0  0  0  0  0  0  0  0  0  0  0  0
    2.6389   -0.3615   -0.1794 C   0  0  0  0  0  0  0  0  0  0  0  0
    3.0589    0.6558   -0.7129 O   0  0  0  0  0  0  0  0  0  0  0  0
    3.2438   -1.1194    0.8047 N   0  0  0  0  0  0  0  0  0  0  0  0
    4.5217   -0.9267    1.3678 C   0  0  0  0  0  0  0  0  0  0  0  0
    5.4078    0.0746    0.9659 C   0  0  0  0  0  0  0  0  0  0  0  0
    6.6616    0.1948    1.5737 C   0  0  0  0  0  0  0  0  0  0  0  0
    7.0306   -0.6854    2.5820 C   0  0  0  0  0  0  0  0  0  0  0  0
    8.2615   -0.5292    3.1448 O   0  0  0  0  0  0  0  0  0  0  0  0
    6.1648   -1.6899    2.9955 C   0  0  0  0  0  0  0  0  0  0  0  0
    4.9117   -1.8087    2.3862 C   0  0  0  0  0  0  0  0  0  0  0  0
    1.0520   -2.1288   -1.0688 C   0  0  0  0  0  0  0  0  0  0  0  0
    2.0557   -3.0880   -1.3640 C   0  0  0  0  0  0  0  0  0  0  0  0
    1.7227   -4.3470   -1.8589 C   0  0  0  0  0  0  0  0  0  0  0  0
    0.3896   -4.6639   -2.0741 C   0  0  0  0  0  0  0  0  0  0  0  0
   -0.5990   -3.7148   -1.8047 C   0  0  0  0  0  0  0  0  0  0  0  0
   -0.2935   -2.4517   -1.3154 C   0  0  0  0  0  0  0  0  0  0  0  0
   -1.3026   -1.5900   -1.1016 N   0  0  0  0  0  0  0  0  0  0  0  0
   -2.2854    1.5307    0.5232 C   0  0  0  0  0  0  0  0  0  0  0  0
   -3.4079    2.3522    0.6753 C   0  0  0  0  0  0  0  0  0  0  0  0
   -3.5323    3.3451    1.6130 O   0  0  0  0  0  0  0  0  0  0  0  0
   -2.4979    3.4770    2.5772 C   0  0  0  0  0  0  0  0  0  0  0  0
   -4.4991    2.1771   -0.1896 C   0  0  0  0  0  0  0  0  0  0  0  0
   -5.6248    2.9536   -0.0203 O   0  0  0  0  0  0  0  0  0  0  0  0
   -5.5348    4.1176   -0.8399 C   0  0  0  0  0  0  0  0  0  0  0  0
   -4.9834   -0.0033   -3.6049 H   0  0  0  0  0  0  0  0  0  0  0  0
   -6.7161   -0.0386   -3.2612 H   0  0  0  0  0  0  0  0  0  0  0  0
   -5.6348   -0.9945   -2.2408 H   0  0  0  0  0  0  0  0  0  0  0  0
   -3.3198   -0.4041   -2.0652 H   0  0  0  0  0  0  0  0  0  0  0  0
    0.4608    1.0784   -0.0224 H   0  0  0  0  0  0  0  0  0  0  0  0
    2.7047   -1.8885    1.1849 H   0  0  0  0  0  0  0  0  0  0  0  0
    5.1574    0.7797    0.1795 H   0  0  0  0  0  0  0  0  0  0  0  0
    7.3457    0.9769    1.2559 H   0  0  0  0  0  0  0  0  0  0  0  0
    8.3795   -1.2039    3.8330 H   0  0  0  0  0  0  0  0  0  0  0  0
    6.4424   -2.3839    3.7822 H   0  0  0  0  0  0  0  0  0  0  0  0
    4.2459   -2.5998    2.7214 H   0  0  0  0  0  0  0  0  0  0  0  0
    3.1107   -2.8535   -1.2318 H   0  0  0  0  0  0  0  0  0  0  0  0
    2.5018   -5.0712   -2.0844 H   0  0  0  0  0  0  0  0  0  0  0  0
    0.1128   -5.6407   -2.4629 H   0  0  0  0  0  0  0  0  0  0  0  0
   -1.6413   -3.9671   -1.9893 H   0  0  0  0  0  0  0  0  0  0  0  0
   -1.4379    1.6477    1.1902 H   0  0  0  0  0  0  0  0  0  0  0  0
   -2.7863    4.2729    3.2706 H   0  0  0  0  0  0  0  0  0  0  0  0
   -2.3775    2.5570    3.1586 H   0  0  0  0  0  0  0  0  0  0  0  0
   -1.5558    3.7736    2.1047 H   0  0  0  0  0  0  0  0  0  0  0  0
   -6.4412    4.7093   -0.6808 H   0  0  0  0  0  0  0  0  0  0  0  0
   -5.4849    3.8568   -1.9026 H   0  0  0  0  0  0  0  0  0  0  0  0
   -4.6750    4.7366   -0.5613 H   0  0  0  0  0  0  0  0  0  0  0  0
  1  2  1  0
  2  3  1  0
  3  4  2  0
  4  5  1  0
  5  6  1  0
  6  7  2  0
  7  8  1  0
  8  9  1  0
  9 10  2  0
  9 11  1  0
 11 12  1  0
 12 13  2  0
 13 14  1  0
 14 15  2  0
 15 16  1  0
 15 17  1  0
 17 18  2  0
  8 19  2  0
 19 20  1  0
 20 21  2  0
 21 22  1  0
 22 23  2  0
 23 24  1  0
 24 25  2  0
  5 26  2  0
 26 27  1  0
 27 28  1  0
 28 29  1  0
 27 30  2  0
 30 31  1  0
 31 32  1  0
 30  3  1  0
 25  6  1  0
 18 12  1  0
 24 19  1  0
  1 33  1  0
  1 34  1  0
  1 35  1  0
  4 36  1  0
  7 37  1  0
 11 38  1  0
 13 39  1  0
 14 40  1  0
 16 41  1  0
 17 42  1  0
 18 43  1  0
 20 44  1  0
 21 45  1  0
 22 46  1  0
 23 47  1  0
 26 48  1  0
 29 49  1  0
 29 50  1  0
 29 51  1  0
 32 52  1  0
 32 53  1  0
 32 54  1  0
M  END
$$$$
