
     RDKit          3D

 82 86  0  0  0  0  0  0  0  0999 V2000
    0.1575    5.8367    1.0429 C   0  0  0  0  0  0  0  0  0  0  0  0
    0.1282    4.7034    0.0483 C   0  0  0  0  0  0  0  0  0  0  0  0
    1.2802    4.1310   -0.3585 C   0  0  0  0  0  0  0  0  0  0  0  0
    1.4289    2.9882   -1.3310 C   0  0  0  0  0  0  0  0  0  0  0  0
    1.4906    1.6529   -0.5782 C   0  0  0  0  0  0  0  0  0  0  0  0
    0.9815    0.5000   -1.4355 C   0  0  0  0  0  0  0  0  0  0  0  0
    0.7987   -0.7033   -0.5118 C   0  0  0  0  0  0  0  0  0  0  0  0
    1.8349   -0.7157    0.6230 C   0  0  0  0  0  0  0  0  0  0  0  0
    3.1193    0.0221    0.2010 C   0  0  0  0  0  0  0  0  0  0  0  0
    4.1482    0.0789    1.3413 C   0  0  0  0  0  0  0  0  0  0  0  0
    4.8321   -1.2606    1.5886 C   0  0  0  0  0  0  0  0  0  0  0  0
    5.3918   -1.8526    0.2870 C   0  0  0  0  0  0  0  0  0  0  0  0
    6.6372   -1.0785   -0.1647 C   0  0  0  0  0  0  0  0  0  0  0  0
    4.2738   -1.8760   -0.7719 C   0  0  0  0  0  0  0  0  0  0  0  0
    4.7410   -2.3673   -2.1385 C   0  0  0  0  0  0  0  0  0  0  0  0
    3.7070   -0.5761   -0.9600 O   0  0  0  0  0  0  0  0  0  0  0  0
    2.8239    1.3995   -0.1170 O   0  0  0  0  0  0  0  0  0  0  0  0
   -0.5233   -0.5587    0.0631 O   0  0  0  0  0  0  0  0  0  0  0  0
   -1.1343   -1.6962    0.4953 C   0  0  0  0  0  0  0  0  0  0  0  0
   -0.6032   -2.7991    0.4815 O   0  0  0  0  0  0  0  0  0  0  0  0
   -2.5372   -1.3619    1.0226 C   0  0  0  0  0  0  0  0  0  0  0  0
   -2.9306   -2.4807    1.9632 C   0  0  0  0  0  0  0  0  0  0  0  0
   -3.8013   -3.4522    1.6405 C   0  0  0  0  0  0  0  0  0  0  0  0
   -4.1486   -4.5476    2.6103 C   0  0  0  0  0  0  0  0  0  0  0  0
   -4.5095   -3.4900    0.3088 C   0  0  0  0  0  0  0  0  0  0  0  0
   -4.3032   -4.7716   -0.2882 O   0  0  0  0  0  0  0  0  0  0  0  0
   -4.1299   -2.3889   -0.6990 C   0  0  0  0  0  0  0  0  0  0  0  0
   -3.0706   -2.7780   -1.6027 O   0  0  0  0  0  0  0  0  0  0  0  0
   -2.6624   -1.5501   -2.2448 C   0  0  0  0  0  0  0  0  0  0  0  0
   -3.1234   -0.4322   -1.3373 C   0  0  0  0  0  0  0  0  0  0  0  0
   -3.2184    0.8387   -1.7701 C   0  0  0  0  0  0  0  0  0  0  0  0
   -3.8597    1.9345   -1.0868 C   0  0  0  0  0  0  0  0  0  0  0  0
   -3.2936    2.8468   -0.2834 C   0  0  0  0  0  0  0  0  0  0  0  0
   -1.8398    2.9790    0.1173 C   0  0  0  0  0  0  0  0  0  0  0  0
   -1.7447    2.8743    1.6412 C   0  0  0  0  0  0  0  0  0  0  0  0
   -1.2594    4.3080   -0.4337 C   0  0  0  0  0  0  0  0  0  0  0  0
   -3.6178   -1.0932   -0.0696 C   0  0  0  0  0  0  0  0  0  0  0  0
   -4.7302   -0.3807    0.4791 O   0  0  0  0  0  0  0  0  0  0  0  0
   -0.4066    5.5718    1.9416 H   0  0  0  0  0  0  0  0  0  0  0  0
    1.1761    6.0879    1.3554 H   0  0  0  0  0  0  0  0  0  0  0  0
   -0.2835    6.7374    0.6063 H   0  0  0  0  0  0  0  0  0  0  0  0
    2.2253    4.4824    0.0563 H   0  0  0  0  0  0  0  0  0  0  0  0
    2.3397    3.1440   -1.9210 H   0  0  0  0  0  0  0  0  0  0  0  0
    0.5886    2.9970   -2.0344 H   0  0  0  0  0  0  0  0  0  0  0  0
    0.8639    1.7329    0.3176 H   0  0  0  0  0  0  0  0  0  0  0  0
    0.0328    0.7551   -1.9218 H   0  0  0  0  0  0  0  0  0  0  0  0
    1.7058    0.2673   -2.2236 H   0  0  0  0  0  0  0  0  0  0  0  0
    0.8471   -1.6182   -1.1156 H   0  0  0  0  0  0  0  0  0  0  0  0
    2.0219   -1.7544    0.9130 H   0  0  0  0  0  0  0  0  0  0  0  0
    1.4125   -0.2333    1.5158 H   0  0  0  0  0  0  0  0  0  0  0  0
    4.9151    0.8261    1.0976 H   0  0  0  0  0  0  0  0  0  0  0  0
    3.6772    0.4397    2.2648 H   0  0  0  0  0  0  0  0  0  0  0  0
    5.6278   -1.1395    2.3322 H   0  0  0  0  0  0  0  0  0  0  0  0
    4.1106   -1.9637    2.0236 H   0  0  0  0  0  0  0  0  0  0  0  0
    5.7062   -2.8847    0.4898 H   0  0  0  0  0  0  0  0  0  0  0  0
    6.3930   -0.0725   -0.5204 H   0  0  0  0  0  0  0  0  0  0  0  0
    7.3541   -0.9839    0.6577 H   0  0  0  0  0  0  0  0  0  0  0  0
    7.1482   -1.6051   -0.9771 H   0  0  0  0  0  0  0  0  0  0  0  0
    3.4861   -2.5636   -0.4433 H   0  0  0  0  0  0  0  0  0  0  0  0
    5.2260   -3.3461   -2.0684 H   0  0  0  0  0  0  0  0  0  0  0  0
    3.8855   -2.4531   -2.8168 H   0  0  0  0  0  0  0  0  0  0  0  0
    5.4291   -1.6571   -2.6087 H   0  0  0  0  0  0  0  0  0  0  0  0
   -2.4361   -0.4661    1.6495 H   0  0  0  0  0  0  0  0  0  0  0  0
   -2.4356   -2.4952    2.9322 H   0  0  0  0  0  0  0  0  0  0  0  0
   -3.6547   -4.4088    3.5777 H   0  0  0  0  0  0  0  0  0  0  0  0
   -5.2284   -4.5677    2.7913 H   0  0  0  0  0  0  0  0  0  0  0  0
   -3.8404   -5.5218    2.2192 H   0  0  0  0  0  0  0  0  0  0  0  0
   -5.5830   -3.3988    0.5204 H   0  0  0  0  0  0  0  0  0  0  0  0
   -3.5100   -4.6638   -0.8517 H   0  0  0  0  0  0  0  0  0  0  0  0
   -5.0208   -2.2111   -1.3209 H   0  0  0  0  0  0  0  0  0  0  0  0
   -1.5772   -1.5683   -2.3692 H   0  0  0  0  0  0  0  0  0  0  0  0
   -3.1441   -1.5000   -3.2276 H   0  0  0  0  0  0  0  0  0  0  0  0
   -2.8874    1.0794   -2.7807 H   0  0  0  0  0  0  0  0  0  0  0  0
   -4.9286    2.0217   -1.2914 H   0  0  0  0  0  0  0  0  0  0  0  0
   -3.9547    3.6145    0.1225 H   0  0  0  0  0  0  0  0  0  0  0  0
   -1.2761    2.1495   -0.3123 H   0  0  0  0  0  0  0  0  0  0  0  0
   -2.2277    3.7268    2.1327 H   0  0  0  0  0  0  0  0  0  0  0  0
   -0.7012    2.8386    1.9715 H   0  0  0  0  0  0  0  0  0  0  0  0
   -2.2300    1.9614    2.0046 H   0  0  0  0  0  0  0  0  0  0  0  0
   -1.9514    5.1277   -0.1965 H   0  0  0  0  0  0  0  0  0  0  0  0
   -1.2532    4.2664   -1.5309 H   0  0  0  0  0  0  0  0  0  0  0  0
   -4.3761    0.3658    0.9951 H   0  0  0  0  0  0  0  0  0  0  0  0
  1  2  1  0
  2  3  2  3
  3  4  1  0
  4  5  1  0
  5  6  1  0
  6  7  1  0
  7  8  1  0
  8  9  1  0
  9 10  1  0
 10 11  1  0
 11 12  1  0
 12 13  1  0
 12 14  1  0
 14 15  1  0
 14 16  1  0
  9 17  1  0
  7 18  1  0
 18 19  1  0
 19 20  2  0
 19 21  1  0
 21 22  1  0
 22 23  2  0
 23 24  1  0
 23 25  1  0
 25 26  1  0
 25 27  1  0
 27 28  1  0
 28 29  1  0
 29 30  1  0
 30 31  2  3
 31 32  1  0
 32 33  2  3
 33 34  1  0
 34 35  1  0
 34 36  1  0
 30 37  1  0
 37 38  1  0
 36  2  1  0
 17  5  1  0
 37 21  1  0
 16  9  1  0
 37 27  1  0
  1 39  1  0
  1 40  1  0
  1 41  1  0
  3 42  1  0
  4 43  1  0
  4 44  1  0
  5 45  1  0
  6 46  1  0
  6 47  1  0
  7 48  1  0
  8 49  1  0
  8 50  1  0
 10 51  1  0
 10 52  1  0
 11 53  1  0
 11 54  1  0
 12 55  1  0
 13 56  1  0
 13 57  1  0
 13 58  1  0
 14 59  1  0
 15 60  1  0
 15 61  1  0
 15 62  1  0
 21 63  1  0
 22 64  1  0
 24 65  1  0
 24 66  1  0
 24 67  1  0
 25 68  1  0
 26 69  1  0
 27 70  1  0
 29 71  1  0
 29 72  1  0
 31 73  1  0
 32 74  1  0
 33 75  1  0
 34 76  1  0
 35 77  1  0
 35 78  1  0
 35 79  1  0
 36 80  1  0
 36 81  1  0
 38 82  1  0
M  END
$$$$
