
     RDKit          3D

 42 44  0  0  0  0  0  0  0  0999 V2000
    4.6870   -2.1617   -3.0230 C   0  0  0  0  0  0  0  0  0  0  0  0
    3.4321   -1.9356   -2.3924 O   0  0  0  0  0  0  0  0  0  0  0  0
    3.4345   -1.1491   -1.2731 C   0  0  0  0  0  0  0  0  0  0  0  0
    4.5531   -0.5438   -0.6986 C   0  0  0  0  0  0  0  0  0  0  0  0
    4.4318    0.2286    0.4625 C   0  0  0  0  0  0  0  0  0  0  0  0
    5.6096    0.7528    0.9228 O   0  0  0  0  0  0  0  0  0  0  0  0
    5.5525    1.4927    2.1373 C   0  0  0  0  0  0  0  0  0  0  0  0
    3.1772    0.4057    1.0429 C   0  0  0  0  0  0  0  0  0  0  0  0
    2.0438   -0.1826    0.4631 C   0  0  0  0  0  0  0  0  0  0  0  0
    0.7226    0.0324    1.1252 C   0  0  0  0  0  0  0  0  0  0  0  0
    0.7197    0.2091    2.3380 O   0  0  0  0  0  0  0  0  0  0  0  0
   -0.3589    0.0501    0.2674 N   0  0  0  0  0  0  0  0  0  0  0  0
   -1.7018    0.1747    0.5992 C   0  0  0  0  0  0  0  0  0  0  0  0
   -2.2181    0.2083    2.2315 S   0  0  0  0  0  0  0  0  0  0  0  0
   -3.8103    0.3165    1.7572 C   0  0  0  0  0  0  0  0  0  0  0  0
   -3.9931    0.3346    0.4020 C   0  0  0  0  0  0  0  0  0  0  0  0
   -2.7600    0.2648   -0.3140 C   0  0  0  0  0  0  0  0  0  0  0  0
   -2.5328    0.2599   -1.7575 C   0  0  0  0  0  0  0  0  0  0  0  0
   -3.5907    0.5975   -2.5504 N   0  0  0  0  0  0  0  0  0  0  0  0
   -1.4417    0.0059   -2.2633 O   0  0  0  0  0  0  0  0  0  0  0  0
   -5.4439    0.4024    0.0796 C   0  0  0  0  0  0  0  0  0  0  0  0
   -6.1149    0.0673    1.4476 C   0  0  0  0  0  0  0  0  0  0  0  0
   -5.0598    0.3767    2.5493 C   0  0  0  0  0  0  0  0  0  0  0  0
    2.1799   -0.9697   -0.6867 C   0  0  0  0  0  0  0  0  0  0  0  0
    5.1206   -1.2241   -3.3861 H   0  0  0  0  0  0  0  0  0  0  0  0
    5.3773   -2.6844   -2.3526 H   0  0  0  0  0  0  0  0  0  0  0  0
    4.5137   -2.8060   -3.8903 H   0  0  0  0  0  0  0  0  0  0  0  0
    5.5442   -0.6603   -1.1257 H   0  0  0  0  0  0  0  0  0  0  0  0
    5.1935    0.8700    2.9635 H   0  0  0  0  0  0  0  0  0  0  0  0
    4.9385    2.3918    2.0217 H   0  0  0  0  0  0  0  0  0  0  0  0
    6.5700    1.8138    2.3804 H   0  0  0  0  0  0  0  0  0  0  0  0
    3.0465    0.9977    1.9441 H   0  0  0  0  0  0  0  0  0  0  0  0
   -0.1854    0.0135   -0.7361 H   0  0  0  0  0  0  0  0  0  0  0  0
   -3.3850    0.7231   -3.5323 H   0  0  0  0  0  0  0  0  0  0  0  0
   -4.3972    1.0717   -2.1767 H   0  0  0  0  0  0  0  0  0  0  0  0
   -5.7180    1.4137   -0.2389 H   0  0  0  0  0  0  0  0  0  0  0  0
   -5.7435   -0.3167   -0.6877 H   0  0  0  0  0  0  0  0  0  0  0  0
   -7.0493    0.6165    1.5987 H   0  0  0  0  0  0  0  0  0  0  0  0
   -6.3546   -1.0041    1.4734 H   0  0  0  0  0  0  0  0  0  0  0  0
   -5.1004   -0.3603    3.3559 H   0  0  0  0  0  0  0  0  0  0  0  0
   -5.2133    1.3805    2.9584 H   0  0  0  0  0  0  0  0  0  0  0  0
    1.3246   -1.4737   -1.1298 H   0  0  0  0  0  0  0  0  0  0  0  0
  1  2  1  0
  2  3  1  0
  3  4  2  0
  4  5  1  0
  5  6  1  0
  6  7  1  0
  5  8  2  0
  8  9  1  0
  9 10  1  0
 10 11  2  0
 10 12  1  0
 12 13  1  0
 13 14  1  0
 14 15  1  0
 15 16  2  0
 16 17  1  0
 17 18  1  0
 18 19  1  0
 18 20  2  0
 16 21  1  0
 21 22  1  0
 22 23  1  0
  9 24  2  0
 24  3  1  0
 17 13  2  0
 23 15  1  0
  1 25  1  0
  1 26  1  0
  1 27  1  0
  4 28  1  0
  7 29  1  0
  7 30  1  0
  7 31  1  0
  8 32  1  0
 12 33  1  0
 19 34  1  0
 19 35  1  0
 21 36  1  0
 21 37  1  0
 22 38  1  0
 22 39  1  0
 23 40  1  0
 23 41  1  0
 24 42  1  0
M  END
$$$$
