
     RDKit          3D

 71 77  0  0  0  0  0  0  0  0999 V2000
    5.9920   -0.6011   -2.8942 C   0  0  0  0  0  0  0  0  0  0  0  0
    6.1486    0.1618   -1.7055 O   0  0  0  0  0  0  0  0  0  0  0  0
    5.0320    0.0442   -0.8206 C   0  0  0  0  0  0  0  0  0  0  0  0
    3.7080    0.7160   -1.3238 C   0  0  0  0  0  0  0  0  0  0  0  0
    3.7294    1.5736   -2.2135 O   0  0  0  0  0  0  0  0  0  0  0  0
    2.5037    0.2919   -0.7644 N   0  0  0  0  0  0  0  0  0  0  0  0
    2.3918   -0.6783    0.3274 C   0  0  0  0  0  0  0  0  0  0  0  0
    0.9444   -0.8935    0.8128 C   0  0  0  0  0  0  0  0  0  0  0  0
    0.0642   -1.2347   -0.3034 N   0  0  0  0  0  0  0  0  0  0  0  0
    0.1346   -0.1878   -1.4069 C   0  0  2  0  0  0  0  0  0  0  0  0
    1.2404    0.8782   -1.2342 C   0  0  0  0  0  0  0  0  0  0  0  0
   -1.2394    0.3625   -1.4148 C   0  0  0  0  0  0  0  0  0  0  0  0
   -2.1035   -0.3755   -0.6089 C   0  0  0  0  0  0  0  0  0  0  0  0
   -3.3507    0.1964   -0.6661 C   0  0  0  0  0  0  0  0  0  0  0  0
   -4.4934   -0.1784   -0.0967 O   0  0  0  0  0  0  0  0  0  0  0  0
   -3.2653    1.2966   -1.5433 N   0  0  0  0  0  0  0  0  0  0  0  0
   -4.3512    2.1258   -1.9691 C   0  0  0  0  0  0  0  0  0  0  0  0
   -5.4306    2.3846   -1.1147 C   0  0  0  0  0  0  0  0  0  0  0  0
   -6.4816    3.2044   -1.5353 C   0  0  0  0  0  0  0  0  0  0  0  0
   -6.4683    3.7610   -2.8123 C   0  0  0  0  0  0  0  0  0  0  0  0
   -5.4076    3.4951   -3.6752 C   0  0  0  0  0  0  0  0  0  0  0  0
   -4.3528    2.6781   -3.2592 C   0  0  0  0  0  0  0  0  0  0  0  0
   -1.9177    1.4290   -1.9353 C   0  0  0  0  0  0  0  0  0  0  0  0
   -1.4178    2.4515   -2.6263 O   0  0  0  0  0  0  0  0  0  0  0  0
   -1.3782   -1.4976    0.0220 C   0  0  1  0  0  0  0  0  0  0  0  0
   -1.7807   -2.8887   -0.5621 C   0  0  0  0  0  0  0  0  0  0  0  0
   -1.6831   -3.3007   -1.7084 O   0  0  0  0  0  0  0  0  0  0  0  0
   -2.2985   -3.6361    0.4957 N   0  0  0  0  0  0  0  0  0  0  0  0
   -2.3354   -2.9087    1.6807 C   0  0  0  0  0  0  0  0  0  0  0  0
   -1.8281   -1.6181    1.4592 C   0  0  0  0  0  0  0  0  0  0  0  0
   -1.8469   -0.6791    2.4809 C   0  0  0  0  0  0  0  0  0  0  0  0
   -2.3508   -1.0627    3.7244 C   0  0  0  0  0  0  0  0  0  0  0  0
   -2.8335   -2.3680    3.9373 C   0  0  0  0  0  0  0  0  0  0  0  0
   -3.4587   -2.7335    5.5085 Cl  0  0  0  0  0  0  0  0  0  0  0  0
   -2.8299   -3.3298    2.9103 C   0  0  0  0  0  0  0  0  0  0  0  0
   -3.3692   -4.7124    3.1253 C   0  0  0  0  0  0  0  0  0  0  0  0
    5.4936    0.6405    0.5026 C   0  0  0  0  0  0  0  0  0  0  0  0
    5.8506   -0.1960    1.5738 C   0  0  0  0  0  0  0  0  0  0  0  0
    6.2655    0.3474    2.7913 C   0  0  0  0  0  0  0  0  0  0  0  0
    6.3438    1.7308    2.9475 C   0  0  0  0  0  0  0  0  0  0  0  0
    6.0185    2.5721    1.8848 C   0  0  0  0  0  0  0  0  0  0  0  0
    5.6013    2.0314    0.6679 C   0  0  0  0  0  0  0  0  0  0  0  0
    5.1523   -0.2368   -3.4893 H   0  0  0  0  0  0  0  0  0  0  0  0
    5.8560   -1.6602   -2.6570 H   0  0  0  0  0  0  0  0  0  0  0  0
    6.9020   -0.4962   -3.4907 H   0  0  0  0  0  0  0  0  0  0  0  0
    4.8345   -1.0251   -0.6799 H   0  0  0  0  0  0  0  0  0  0  0  0
    2.8053   -1.6279   -0.0292 H   0  0  0  0  0  0  0  0  0  0  0  0
    2.9996   -0.3338    1.1672 H   0  0  0  0  0  0  0  0  0  0  0  0
    0.6088    0.0198    1.3174 H   0  0  0  0  0  0  0  0  0  0  0  0
    0.9574   -1.7035    1.5506 H   0  0  0  0  0  0  0  0  0  0  0  0
    0.3139   -0.7366   -2.3399 H   0  0  0  0  0  0  0  0  0  0  0  0
    1.3837    1.4161   -2.1776 H   0  0  0  0  0  0  0  0  0  0  0  0
    0.9515    1.6284   -0.4867 H   0  0  0  0  0  0  0  0  0  0  0  0
   -4.3326   -0.9914    0.4138 H   0  0  0  0  0  0  0  0  0  0  0  0
   -5.4652    1.9853   -0.1048 H   0  0  0  0  0  0  0  0  0  0  0  0
   -7.3123    3.4065   -0.8635 H   0  0  0  0  0  0  0  0  0  0  0  0
   -7.2907    4.3928   -3.1383 H   0  0  0  0  0  0  0  0  0  0  0  0
   -5.4092    3.9116   -4.6797 H   0  0  0  0  0  0  0  0  0  0  0  0
   -3.5712    2.4426   -3.9788 H   0  0  0  0  0  0  0  0  0  0  0  0
   -2.0316    3.2064   -2.5674 H   0  0  0  0  0  0  0  0  0  0  0  0
   -2.6227   -4.5822    0.3589 H   0  0  0  0  0  0  0  0  0  0  0  0
   -1.5000    0.3382    2.3214 H   0  0  0  0  0  0  0  0  0  0  0  0
   -2.3789   -0.3355    4.5344 H   0  0  0  0  0  0  0  0  0  0  0  0
   -3.1357   -5.3836    2.2951 H   0  0  0  0  0  0  0  0  0  0  0  0
   -4.4579   -4.6818    3.2349 H   0  0  0  0  0  0  0  0  0  0  0  0
   -2.9262   -5.1648    4.0188 H   0  0  0  0  0  0  0  0  0  0  0  0
    5.8115   -1.2775    1.4660 H   0  0  0  0  0  0  0  0  0  0  0  0
    6.5334   -0.3090    3.6159 H   0  0  0  0  0  0  0  0  0  0  0  0
    6.6720    2.1544    3.8928 H   0  0  0  0  0  0  0  0  0  0  0  0
    6.0945    3.6514    1.9980 H   0  0  0  0  0  0  0  0  0  0  0  0
    5.3686    2.7007   -0.1605 H   0  0  0  0  0  0  0  0  0  0  0  0
  1  2  1  0
  2  3  1  0
  3  4  1  0
  4  5  2  0
  4  6  1  0
  6  7  1  0
  7  8  1  0
  8  9  1  0
  9 10  1  0
 10 11  1  0
 10 12  1  0
 12 13  1  0
 13 14  2  0
 14 15  1  0
 14 16  1  0
 16 17  1  0
 17 18  2  0
 18 19  1  0
 19 20  2  0
 20 21  1  0
 21 22  2  0
 16 23  1  0
 23 24  1  0
 13 25  1  0
 25 26  1  0
 26 27  2  0
 26 28  1  0
 28 29  1  0
 29 30  2  0
 30 31  1  0
 31 32  2  0
 32 33  1  0
 33 34  1  0
 33 35  2  0
 35 36  1  0
  3 37  1  0
 37 38  2  0
 38 39  1  0
 39 40  2  0
 40 41  1  0
 41 42  2  0
 11  6  1  0
 23 12  2  0
 30 25  1  0
 42 37  1  0
 25  9  1  1
 35 29  1  0
 22 17  1  0
  1 43  1  0
  1 44  1  0
  1 45  1  0
  3 46  1  0
  7 47  1  0
  7 48  1  0
  8 49  1  0
  8 50  1  0
 10 51  1  6
 11 52  1  0
 11 53  1  0
 15 54  1  0
 18 55  1  0
 19 56  1  0
 20 57  1  0
 21 58  1  0
 22 59  1  0
 24 60  1  0
 28 61  1  0
 31 62  1  0
 32 63  1  0
 36 64  1  0
 36 65  1  0
 36 66  1  0
 38 67  1  0
 39 68  1  0
 40 69  1  0
 41 70  1  0
 42 71  1  0
M  END
$$$$
