
     RDKit          3D

 35 37  0  0  0  0  0  0  0  0999 V2000
    7.3364    0.0248   -0.3893 C   0  0  0  0  0  0  0  0  0  0  0  0
    6.1360    0.5208   -0.9684 O   0  0  0  0  0  0  0  0  0  0  0  0
    4.9618    0.1310   -0.3872 C   0  0  0  0  0  0  0  0  0  0  0  0
    4.8309   -0.7076    0.7186 C   0  0  0  0  0  0  0  0  0  0  0  0
    3.5592   -1.0268    1.2132 C   0  0  0  0  0  0  0  0  0  0  0  0
    2.3993   -0.5153    0.6129 C   0  0  0  0  0  0  0  0  0  0  0  0
    1.0912   -0.8652    1.1497 C   0  0  0  0  0  0  0  0  0  0  0  0
    0.7673   -1.6263    2.1776 N   0  0  0  0  0  0  0  0  0  0  0  0
   -0.6123   -1.6205    2.2467 N   0  0  0  0  0  0  0  0  0  0  0  0
   -1.0278   -0.8570    1.2600 C   0  0  0  0  0  0  0  0  0  0  0  0
   -2.3282   -0.5786    0.9528 N   0  0  0  0  0  0  0  0  0  0  0  0
   -2.6903    0.2732   -0.0619 C   0  0  0  0  0  0  0  0  0  0  0  0
   -1.9347    0.9142   -0.7824 O   0  0  0  0  0  0  0  0  0  0  0  0
   -4.1606    0.4377   -0.2530 C   0  0  0  0  0  0  0  0  0  0  0  0
   -5.0636   -0.6113   -0.0198 C   0  0  0  0  0  0  0  0  0  0  0  0
   -6.4322   -0.4075   -0.2168 C   0  0  0  0  0  0  0  0  0  0  0  0
   -6.8898    0.8323   -0.6515 C   0  0  0  0  0  0  0  0  0  0  0  0
   -8.2021    1.0205   -0.8391 F   0  0  0  0  0  0  0  0  0  0  0  0
   -6.0054    1.8748   -0.9020 C   0  0  0  0  0  0  0  0  0  0  0  0
   -4.6370    1.6770   -0.7079 C   0  0  0  0  0  0  0  0  0  0  0  0
   -0.0067   -0.3464    0.5183 O   0  0  0  0  0  0  0  0  0  0  0  0
    2.5422    0.3268   -0.4977 C   0  0  0  0  0  0  0  0  0  0  0  0
    3.8123    0.6447   -0.9904 C   0  0  0  0  0  0  0  0  0  0  0  0
    7.4472    0.3681    0.6446 H   0  0  0  0  0  0  0  0  0  0  0  0
    8.1760    0.4263   -0.9650 H   0  0  0  0  0  0  0  0  0  0  0  0
    7.3825   -1.0675   -0.4510 H   0  0  0  0  0  0  0  0  0  0  0  0
    5.6936   -1.1315    1.2218 H   0  0  0  0  0  0  0  0  0  0  0  0
    3.4810   -1.6839    2.0785 H   0  0  0  0  0  0  0  0  0  0  0  0
   -3.0055   -0.9886    1.5767 H   0  0  0  0  0  0  0  0  0  0  0  0
   -4.7228   -1.5976    0.2827 H   0  0  0  0  0  0  0  0  0  0  0  0
   -7.1446   -1.2093   -0.0458 H   0  0  0  0  0  0  0  0  0  0  0  0
   -6.3836    2.8310   -1.2505 H   0  0  0  0  0  0  0  0  0  0  0  0
   -3.9420    2.4902   -0.9113 H   0  0  0  0  0  0  0  0  0  0  0  0
    1.6683    0.7471   -0.9937 H   0  0  0  0  0  0  0  0  0  0  0  0
    3.9040    1.3002   -1.8536 H   0  0  0  0  0  0  0  0  0  0  0  0
  1  2  1  0
  2  3  1  0
  3  4  2  0
  4  5  1  0
  5  6  2  0
  6  7  1  0
  7  8  2  0
  8  9  1  0
  9 10  2  0
 10 11  1  0
 11 12  1  0
 12 13  2  0
 12 14  1  0
 14 15  2  0
 15 16  1  0
 16 17  2  0
 17 18  1  0
 17 19  1  0
 19 20  2  0
 10 21  1  0
  6 22  1  0
 22 23  2  0
 23  3  1  0
 21  7  1  0
 20 14  1  0
  1 24  1  0
  1 25  1  0
  1 26  1  0
  4 27  1  0
  5 28  1  0
 11 29  1  0
 15 30  1  0
 16 31  1  0
 19 32  1  0
 20 33  1  0
 22 34  1  0
 23 35  1  0
M  END
$$$$
