
     RDKit          3D

 29 30  0  0  0  0  0  0  0  0999 V2000
    2.4068    2.0990   -0.3122 C   0  0  0  0  0  0  0  0  0  0  0  0
    1.4662    2.9610    0.1007 C   0  0  0  0  0  0  0  0  0  0  0  0
   -0.0050    2.7136    0.3258 C   0  0  0  0  0  0  0  0  0  0  0  0
   -0.3747    1.3084    0.1608 N   0  0  0  0  0  0  0  0  0  0  0  0
   -0.2564    0.3587    1.1626 C   0  0  0  0  0  0  0  0  0  0  0  0
    0.3542    0.8535    2.7331 S   0  0  0  0  0  0  0  0  0  0  0  0
    1.3043   -0.6350    3.1703 C   0  0  0  0  0  0  0  0  0  0  0  0
    2.4107   -0.9156    2.2444 C   0  0  0  0  0  0  0  0  0  0  0  0
    3.2899   -1.1366    1.5184 N   0  0  0  0  0  0  0  0  0  0  0  0
   -0.5799   -0.8862    1.0346 N   0  0  0  0  0  0  0  0  0  0  0  0
   -1.0649   -1.3257   -0.1998 C   0  0  0  0  0  0  0  0  0  0  0  0
   -1.3934   -2.6747   -0.3552 C   0  0  0  0  0  0  0  0  0  0  0  0
   -1.8806   -3.1529   -1.5748 C   0  0  0  0  0  0  0  0  0  0  0  0
   -2.0436   -2.2821   -2.6514 C   0  0  0  0  0  0  0  0  0  0  0  0
   -1.7190   -0.9339   -2.5072 C   0  0  0  0  0  0  0  0  0  0  0  0
   -1.2310   -0.4665   -1.2807 C   0  0  0  0  0  0  0  0  0  0  0  0
   -0.8779    0.9502   -1.0897 C   0  0  0  0  0  0  0  0  0  0  0  0
   -1.0505    1.7330   -2.0214 O   0  0  0  0  0  0  0  0  0  0  0  0
    3.4372    2.4225   -0.4327 H   0  0  0  0  0  0  0  0  0  0  0  0
    2.1973    1.0611   -0.5500 H   0  0  0  0  0  0  0  0  0  0  0  0
    1.7797    3.9849    0.3003 H   0  0  0  0  0  0  0  0  0  0  0  0
   -0.2818    3.0584    1.3268 H   0  0  0  0  0  0  0  0  0  0  0  0
   -0.5696    3.3408   -0.3737 H   0  0  0  0  0  0  0  0  0  0  0  0
    1.7116   -0.4706    4.1736 H   0  0  0  0  0  0  0  0  0  0  0  0
    0.6332   -1.4965    3.2473 H   0  0  0  0  0  0  0  0  0  0  0  0
   -1.2670   -3.3584    0.4804 H   0  0  0  0  0  0  0  0  0  0  0  0
   -2.1309   -4.2056   -1.6832 H   0  0  0  0  0  0  0  0  0  0  0  0
   -2.4213   -2.6527   -3.6014 H   0  0  0  0  0  0  0  0  0  0  0  0
   -1.8436   -0.2522   -3.3456 H   0  0  0  0  0  0  0  0  0  0  0  0
  1  2  2  0
  2  3  1  0
  3  4  1  0
  4  5  1  0
  5  6  1  0
  6  7  1  0
  7  8  1  0
  8  9  3  0
  5 10  2  0
 10 11  1  0
 11 12  2  0
 12 13  1  0
 13 14  2  0
 14 15  1  0
 15 16  2  0
 16 17  1  0
 17 18  2  0
 17  4  1  0
 16 11  1  0
  1 19  1  0
  1 20  1  0
  2 21  1  0
  3 22  1  0
  3 23  1  0
  7 24  1  0
  7 25  1  0
 12 26  1  0
 13 27  1  0
 14 28  1  0
 15 29  1  0
M  END
$$$$
