
     RDKit          3D

 43 45  0  0  0  0  0  0  0  0999 V2000
    6.6552   -1.1001   -2.1579 C   0  0  0  0  0  0  0  0  0  0  0  0
    5.2907   -1.2106   -2.5406 O   0  0  0  0  0  0  0  0  0  0  0  0
    4.3516   -0.7853   -1.6415 C   0  0  0  0  0  0  0  0  0  0  0  0
    3.0345   -0.8914   -2.0873 C   0  0  0  0  0  0  0  0  0  0  0  0
    1.9687   -0.4951   -1.2751 C   0  0  0  0  0  0  0  0  0  0  0  0
    2.2015    0.0280   -0.0019 C   0  0  0  0  0  0  0  0  0  0  0  0
    1.1693    0.4170    0.8860 N   0  0  0  0  0  0  0  0  0  0  0  0
   -0.1271    0.7629    0.6034 C   0  0  0  0  0  0  0  0  0  0  0  0
   -0.6479    0.8282   -0.5821 N   0  0  0  0  0  0  0  0  0  0  0  0
   -1.9663    1.2225   -0.6144 C   0  0  0  0  0  0  0  0  0  0  0  0
   -2.5600    1.4396   -1.6658 O   0  0  0  0  0  0  0  0  0  0  0  0
   -2.7514    1.4337    0.6775 C   0  0  0  0  0  0  0  0  0  0  0  0
   -4.2244    1.7223    0.5725 C   0  0  0  0  0  0  0  0  0  0  0  0
   -5.0435    0.4588    0.4840 C   0  0  0  0  0  0  0  0  0  0  0  0
   -5.3872   -0.2465    1.6458 C   0  0  0  0  0  0  0  0  0  0  0  0
   -6.1255   -1.4279    1.5635 C   0  0  0  0  0  0  0  0  0  0  0  0
   -6.5215   -1.9183    0.3208 C   0  0  0  0  0  0  0  0  0  0  0  0
   -6.1776   -1.2295   -0.8408 C   0  0  0  0  0  0  0  0  0  0  0  0
   -5.4401   -0.0474   -0.7610 C   0  0  0  0  0  0  0  0  0  0  0  0
   -2.1615    1.3400    1.8368 N   0  0  0  0  0  0  0  0  0  0  0  0
   -0.8281    1.0537    1.7603 N   0  0  0  0  0  0  0  0  0  0  0  0
    3.5391    0.1176    0.4555 C   0  0  0  0  0  0  0  0  0  0  0  0
    3.6730    0.6240    1.7321 O   0  0  0  0  0  0  0  0  0  0  0  0
    4.9944    0.7485    2.2446 C   0  0  0  0  0  0  0  0  0  0  0  0
    4.6037   -0.2822   -0.3643 C   0  0  0  0  0  0  0  0  0  0  0  0
    6.9307   -0.0565   -1.9735 H   0  0  0  0  0  0  0  0  0  0  0  0
    6.8720   -1.7268   -1.2866 H   0  0  0  0  0  0  0  0  0  0  0  0
    7.2665   -1.4637   -2.9896 H   0  0  0  0  0  0  0  0  0  0  0  0
    2.8295   -1.2903   -3.0783 H   0  0  0  0  0  0  0  0  0  0  0  0
    0.9602   -0.6145   -1.6598 H   0  0  0  0  0  0  0  0  0  0  0  0
    1.5764    0.8204    1.7241 H   0  0  0  0  0  0  0  0  0  0  0  0
   -4.4220    2.3751   -0.2849 H   0  0  0  0  0  0  0  0  0  0  0  0
   -4.5349    2.2930    1.4570 H   0  0  0  0  0  0  0  0  0  0  0  0
   -5.0778    0.1195    2.6229 H   0  0  0  0  0  0  0  0  0  0  0  0
   -6.3889   -1.9676    2.4693 H   0  0  0  0  0  0  0  0  0  0  0  0
   -7.0946   -2.8394    0.2565 H   0  0  0  0  0  0  0  0  0  0  0  0
   -6.4798   -1.6142   -1.8114 H   0  0  0  0  0  0  0  0  0  0  0  0
   -5.1722    0.4726   -1.6796 H   0  0  0  0  0  0  0  0  0  0  0  0
   -0.3985    0.7563    2.6329 H   0  0  0  0  0  0  0  0  0  0  0  0
    4.9221    1.1619    3.2552 H   0  0  0  0  0  0  0  0  0  0  0  0
    5.4822   -0.2289    2.3198 H   0  0  0  0  0  0  0  0  0  0  0  0
    5.5873    1.4448    1.6425 H   0  0  0  0  0  0  0  0  0  0  0  0
    5.6222   -0.2046   -0.0097 H   0  0  0  0  0  0  0  0  0  0  0  0
  1  2  1  0
  2  3  1  0
  3  4  2  0
  4  5  1  0
  5  6  2  0
  6  7  1  0
  7  8  1  0
  8  9  2  0
  9 10  1  0
 10 11  2  0
 10 12  1  0
 12 13  1  0
 13 14  1  0
 14 15  2  0
 15 16  1  0
 16 17  2  0
 17 18  1  0
 18 19  2  0
 12 20  2  0
 20 21  1  0
  6 22  1  0
 22 23  1  0
 23 24  1  0
 22 25  2  0
 25  3  1  0
 21  8  1  0
 19 14  1  0
  1 26  1  0
  1 27  1  0
  1 28  1  0
  4 29  1  0
  5 30  1  0
  7 31  1  0
 13 32  1  0
 13 33  1  0
 15 34  1  0
 16 35  1  0
 17 36  1  0
 18 37  1  0
 19 38  1  0
 21 39  1  0
 24 40  1  0
 24 41  1  0
 24 42  1  0
 25 43  1  0
M  END
$$$$
