
     RDKit          3D

 59 64  0  0  0  0  0  0  0  0999 V2000
   -5.3134    2.6585    2.3104 C   0  0  0  0  0  0  0  0  0  0  0  0
   -5.7540    1.4619    1.5487 C   0  0  0  0  0  0  0  0  0  0  0  0
   -6.8750    0.8008    1.7548 N   0  0  0  0  0  0  0  0  0  0  0  0
   -6.8832   -0.2207    0.8395 C   0  0  0  0  0  0  0  0  0  0  0  0
   -7.8432   -1.2214    0.6289 C   0  0  0  0  0  0  0  0  0  0  0  0
   -7.6225   -2.1667   -0.3807 C   0  0  0  0  0  0  0  0  0  0  0  0
   -6.4686   -2.1165   -1.1647 C   0  0  0  0  0  0  0  0  0  0  0  0
   -5.4992   -1.1257   -0.9681 C   0  0  0  0  0  0  0  0  0  0  0  0
   -5.7403   -0.1900    0.0467 C   0  0  0  0  0  0  0  0  0  0  0  0
   -5.0324    0.8905    0.5226 N   0  0  0  0  0  0  0  0  0  0  0  0
   -3.7426    1.3344    0.0250 C   0  0  0  0  0  0  0  0  0  0  0  0
   -2.5918    0.5779    0.6789 C   0  0  0  0  0  0  0  0  0  0  0  0
   -1.2672    1.0918    0.2471 C   0  0  0  0  0  0  0  0  0  0  0  0
   -1.0409    1.5738   -1.0201 N   0  0  0  0  0  0  0  0  0  0  0  0
    0.2346    1.8963   -0.9846 C   0  0  0  0  0  0  0  0  0  0  0  0
    1.1137    2.4785   -1.9751 C   0  0  0  0  0  0  0  0  0  0  0  0
    0.6875    2.7984   -3.2653 C   0  0  0  0  0  0  0  0  0  0  0  0
    1.5904    3.3638   -4.1656 C   0  0  0  0  0  0  0  0  0  0  0  0
    2.9094    3.6073   -3.7761 C   0  0  0  0  0  0  0  0  0  0  0  0
    3.3339    3.2860   -2.4836 C   0  0  0  0  0  0  0  0  0  0  0  0
    2.4455    2.7193   -1.5695 C   0  0  0  0  0  0  0  0  0  0  0  0
    2.9148    2.4029   -0.2667 N   0  0  0  0  0  0  0  0  0  0  0  0
    2.0898    1.8582    0.5900 C   0  0  0  0  0  0  0  0  0  0  0  0
    2.6987    1.4533    2.1901 S   0  0  0  0  0  0  0  0  0  0  0  0
    4.1694    0.5162    1.6910 C   0  0  0  0  0  0  0  0  0  0  0  0
    3.8321   -0.7046    0.8421 C   0  0  0  0  0  0  0  0  0  0  0  0
    2.8161   -0.8199    0.1608 O   0  0  0  0  0  0  0  0  0  0  0  0
    4.8006   -1.6843    0.8856 N   0  0  0  0  0  0  0  0  0  0  0  0
    4.7091   -2.8441    0.0287 C   0  0  0  0  0  0  0  0  0  0  0  0
    5.7471   -3.8210    0.4338 C   0  0  0  0  0  0  0  0  0  0  0  0
    5.7062   -5.1537    0.7858 C   0  0  0  0  0  0  0  0  0  0  0  0
    7.0409   -5.5338    1.0687 C   0  0  0  0  0  0  0  0  0  0  0  0
    7.8102   -4.4110    0.8749 C   0  0  0  0  0  0  0  0  0  0  0  0
    7.0346   -3.3642    0.4926 O   0  0  0  0  0  0  0  0  0  0  0  0
    0.7521    1.6113    0.2510 N   0  0  0  0  0  0  0  0  0  0  0  0
   -0.2100    1.1192    1.0691 N   0  0  0  0  0  0  0  0  0  0  0  0
   -5.3007    3.5424    1.6656 H   0  0  0  0  0  0  0  0  0  0  0  0
   -5.9989    2.8571    3.1406 H   0  0  0  0  0  0  0  0  0  0  0  0
   -4.3134    2.5103    2.7289 H   0  0  0  0  0  0  0  0  0  0  0  0
   -8.7359   -1.2522    1.2433 H   0  0  0  0  0  0  0  0  0  0  0  0
   -8.3600   -2.9467   -0.5532 H   0  0  0  0  0  0  0  0  0  0  0  0
   -6.3190   -2.8620   -1.9439 H   0  0  0  0  0  0  0  0  0  0  0  0
   -4.6047   -1.0938   -1.5810 H   0  0  0  0  0  0  0  0  0  0  0  0
   -3.7445    1.1978   -1.0636 H   0  0  0  0  0  0  0  0  0  0  0  0
   -3.6616    2.4130    0.2022 H   0  0  0  0  0  0  0  0  0  0  0  0
   -2.6751    0.6484    1.7706 H   0  0  0  0  0  0  0  0  0  0  0  0
   -2.6526   -0.4885    0.4313 H   0  0  0  0  0  0  0  0  0  0  0  0
   -0.3395    2.6082   -3.5691 H   0  0  0  0  0  0  0  0  0  0  0  0
    1.2667    3.6149   -5.1731 H   0  0  0  0  0  0  0  0  0  0  0  0
    3.6107    4.0477   -4.4811 H   0  0  0  0  0  0  0  0  0  0  0  0
    4.3620    3.4771   -2.1872 H   0  0  0  0  0  0  0  0  0  0  0  0
    4.6744    0.1883    2.6056 H   0  0  0  0  0  0  0  0  0  0  0  0
    4.8611    1.1548    1.1328 H   0  0  0  0  0  0  0  0  0  0  0  0
    5.7206   -1.4624    1.2458 H   0  0  0  0  0  0  0  0  0  0  0  0
    4.8658   -2.5205   -1.0058 H   0  0  0  0  0  0  0  0  0  0  0  0
    3.7050   -3.2729    0.1076 H   0  0  0  0  0  0  0  0  0  0  0  0
    4.8205   -5.7734    0.8350 H   0  0  0  0  0  0  0  0  0  0  0  0
    7.3986   -6.5061    1.3770 H   0  0  0  0  0  0  0  0  0  0  0  0
    8.8683   -4.2037    0.9627 H   0  0  0  0  0  0  0  0  0  0  0  0
  1  2  1  0
  2  3  2  0
  3  4  1  0
  4  5  2  0
  5  6  1  0
  6  7  2  0
  7  8  1  0
  8  9  2  0
  9 10  1  0
 10 11  1  0
 11 12  1  0
 12 13  1  0
 13 14  1  0
 14 15  2  0
 15 16  1  0
 16 17  2  0
 17 18  1  0
 18 19  2  0
 19 20  1  0
 20 21  2  0
 21 22  1  0
 22 23  2  0
 23 24  1  0
 24 25  1  0
 25 26  1  0
 26 27  2  0
 26 28  1  0
 28 29  1  0
 29 30  1  0
 30 31  2  0
 31 32  1  0
 32 33  2  0
 33 34  1  0
 23 35  1  0
 35 36  1  0
 10  2  1  0
 36 13  2  0
  9  4  1  0
 35 15  1  0
 21 16  1  0
 34 30  1  0
  1 37  1  0
  1 38  1  0
  1 39  1  0
  5 40  1  0
  6 41  1  0
  7 42  1  0
  8 43  1  0
 11 44  1  0
 11 45  1  0
 12 46  1  0
 12 47  1  0
 17 48  1  0
 18 49  1  0
 19 50  1  0
 20 51  1  0
 25 52  1  0
 25 53  1  0
 28 54  1  0
 29 55  1  0
 29 56  1  0
 31 57  1  0
 32 58  1  0
 33 59  1  0
M  END
$$$$
