
     RDKit          3D

 58 59  0  0  0  0  0  0  0  0999 V2000
    9.3650   -0.2788   -2.8534 C   0  0  0  0  0  0  0  0  0  0  0  0
    8.2524   -0.1837   -1.8211 C   0  0  0  0  0  0  0  0  0  0  0  0
    8.4280   -1.2246   -0.7128 C   0  0  0  0  0  0  0  0  0  0  0  0
    7.3391   -1.1223    0.3550 C   0  0  0  0  0  0  0  0  0  0  0  0
    6.0771   -1.4164   -0.2434 O   0  0  0  0  0  0  0  0  0  0  0  0
    4.9753   -1.3621    0.5636 C   0  0  0  0  0  0  0  0  0  0  0  0
    4.9685   -1.0686    1.9269 C   0  0  0  0  0  0  0  0  0  0  0  0
    3.7607   -1.0481    2.6343 C   0  0  0  0  0  0  0  0  0  0  0  0
    2.5496   -1.3122    1.9831 C   0  0  0  0  0  0  0  0  0  0  0  0
    1.2938   -1.2771    2.7833 C   0  0  0  0  0  0  0  0  0  0  0  0
    1.3246   -1.4445    3.9971 O   0  0  0  0  0  0  0  0  0  0  0  0
    0.1309   -1.0166    2.0951 N   0  0  0  0  0  0  0  0  0  0  0  0
   -1.1259   -0.8466    2.8083 C   0  0  0  0  0  0  0  0  0  0  0  0
   -2.3371   -0.7045    1.8946 C   0  0  0  0  0  0  0  0  0  0  0  0
   -3.4880   -0.5655    2.2940 O   0  0  0  0  0  0  0  0  0  0  0  0
   -1.9827   -0.7340    0.5743 O   0  0  0  0  0  0  0  0  0  0  0  0
   -3.0806   -0.5240   -0.3234 C   0  0  0  0  0  0  0  0  0  0  0  0
   -3.5878    0.9204   -0.2724 C   0  0  0  0  0  0  0  0  0  0  0  0
   -2.8602    1.8234    0.1577 O   0  0  0  0  0  0  0  0  0  0  0  0
   -5.0047    1.2002   -0.6899 C   0  0  0  0  0  0  0  0  0  0  0  0
   -5.6629    2.2866   -0.2240 C   0  0  0  0  0  0  0  0  0  0  0  0
   -5.0567    3.2396    0.5869 N   0  0  0  0  0  0  0  0  0  0  0  0
   -6.9965    2.4780   -0.5765 N   0  0  0  0  0  0  0  0  0  0  0  0
   -7.6681    3.7130   -0.1704 C   0  0  0  0  0  0  0  0  0  0  0  0
   -7.7417    1.5645   -1.3166 C   0  0  0  0  0  0  0  0  0  0  0  0
   -8.9227    1.7550   -1.6130 O   0  0  0  0  0  0  0  0  0  0  0  0
   -7.0711    0.4241   -1.7206 N   0  0  0  0  0  0  0  0  0  0  0  0
   -7.7988   -0.5253   -2.5429 C   0  0  0  0  0  0  0  0  0  0  0  0
   -5.7109    0.2701   -1.5980 C   0  0  0  0  0  0  0  0  0  0  0  0
   -5.0737   -0.5871   -2.2095 O   0  0  0  0  0  0  0  0  0  0  0  0
    2.5579   -1.6224    0.6193 C   0  0  0  0  0  0  0  0  0  0  0  0
    3.7675   -1.6418   -0.0821 C   0  0  0  0  0  0  0  0  0  0  0  0
    9.3763   -1.2651   -3.3281 H   0  0  0  0  0  0  0  0  0  0  0  0
   10.3432   -0.1074   -2.3930 H   0  0  0  0  0  0  0  0  0  0  0  0
    9.2214    0.4732   -3.6356 H   0  0  0  0  0  0  0  0  0  0  0  0
    8.2497    0.8231   -1.3877 H   0  0  0  0  0  0  0  0  0  0  0  0
    7.2883   -0.3235   -2.3230 H   0  0  0  0  0  0  0  0  0  0  0  0
    8.4033   -2.2261   -1.1596 H   0  0  0  0  0  0  0  0  0  0  0  0
    9.4075   -1.0963   -0.2377 H   0  0  0  0  0  0  0  0  0  0  0  0
    7.5548   -1.8525    1.1441 H   0  0  0  0  0  0  0  0  0  0  0  0
    7.3355   -0.1103    0.7777 H   0  0  0  0  0  0  0  0  0  0  0  0
    5.8812   -0.8551    2.4734 H   0  0  0  0  0  0  0  0  0  0  0  0
    3.7680   -0.8224    3.6994 H   0  0  0  0  0  0  0  0  0  0  0  0
    0.1723   -0.6574    1.1489 H   0  0  0  0  0  0  0  0  0  0  0  0
   -1.0413    0.0606    3.4148 H   0  0  0  0  0  0  0  0  0  0  0  0
   -1.2741   -1.7150    3.4574 H   0  0  0  0  0  0  0  0  0  0  0  0
   -3.8759   -1.2404   -0.0920 H   0  0  0  0  0  0  0  0  0  0  0  0
   -2.7035   -0.7190   -1.3318 H   0  0  0  0  0  0  0  0  0  0  0  0
   -5.5802    3.4056    1.4421 H   0  0  0  0  0  0  0  0  0  0  0  0
   -4.0806    3.0082    0.8129 H   0  0  0  0  0  0  0  0  0  0  0  0
   -8.6595    3.8155   -0.6201 H   0  0  0  0  0  0  0  0  0  0  0  0
   -7.0719    4.5766   -0.4834 H   0  0  0  0  0  0  0  0  0  0  0  0
   -7.7885    3.7125    0.9176 H   0  0  0  0  0  0  0  0  0  0  0  0
   -7.3169   -1.5074   -2.5312 H   0  0  0  0  0  0  0  0  0  0  0  0
   -7.8186   -0.1494   -3.5710 H   0  0  0  0  0  0  0  0  0  0  0  0
   -8.8274   -0.6343   -2.1856 H   0  0  0  0  0  0  0  0  0  0  0  0
    1.6450   -1.8770    0.0898 H   0  0  0  0  0  0  0  0  0  0  0  0
    3.7716   -1.8857   -1.1423 H   0  0  0  0  0  0  0  0  0  0  0  0
  1  2  1  0
  2  3  1  0
  3  4  1  0
  4  5  1  0
  5  6  1  0
  6  7  2  0
  7  8  1  0
  8  9  2  0
  9 10  1  0
 10 11  2  0
 10 12  1  0
 12 13  1  0
 13 14  1  0
 14 15  2  0
 14 16  1  0
 16 17  1  0
 17 18  1  0
 18 19  2  0
 18 20  1  0
 20 21  2  0
 21 22  1  0
 21 23  1  0
 23 24  1  0
 23 25  1  0
 25 26  2  0
 25 27  1  0
 27 28  1  0
 27 29  1  0
 29 30  2  0
  9 31  1  0
 31 32  2  0
 32  6  1  0
 29 20  1  0
  1 33  1  0
  1 34  1  0
  1 35  1  0
  2 36  1  0
  2 37  1  0
  3 38  1  0
  3 39  1  0
  4 40  1  0
  4 41  1  0
  7 42  1  0
  8 43  1  0
 12 44  1  0
 13 45  1  0
 13 46  1  0
 17 47  1  0
 17 48  1  0
 22 49  1  0
 22 50  1  0
 24 51  1  0
 24 52  1  0
 24 53  1  0
 28 54  1  0
 28 55  1  0
 28 56  1  0
 31 57  1  0
 32 58  1  0
M  END
$$$$
