
     RDKit          3D

 53 56  0  0  0  0  0  0  0  0999 V2000
   -8.1015    2.0261   -0.9406 C   0  0  0  0  0  0  0  0  0  0  0  0
   -6.7455    1.4085   -0.7691 C   0  0  0  0  0  0  0  0  0  0  0  0
   -6.1384    1.3693    0.4900 C   0  0  0  0  0  0  0  0  0  0  0  0
   -4.8574    0.8263    0.6524 C   0  0  0  0  0  0  0  0  0  0  0  0
   -4.1633    0.3087   -0.4461 C   0  0  0  0  0  0  0  0  0  0  0  0
   -2.8503   -0.2467   -0.3339 N   0  0  0  0  0  0  0  0  0  0  0  0
   -2.1001   -0.3741   -1.4624 N   0  0  0  0  0  0  0  0  0  0  0  0
   -0.8792   -0.7006   -1.0370 C   0  0  0  0  0  0  0  0  0  0  0  0
    0.3054   -0.8830   -1.8665 C   0  0  0  0  0  0  0  0  0  0  0  0
    0.3228   -0.7091   -3.0825 O   0  0  0  0  0  0  0  0  0  0  0  0
    1.4321   -1.2813   -1.1193 N   0  0  0  0  0  0  0  0  0  0  0  0
    2.6937   -1.5146   -1.8229 C   0  0  0  0  0  0  0  0  0  0  0  0
    3.5949   -0.2790   -1.8588 C   0  0  0  0  0  0  0  0  0  0  0  0
    4.5742   -0.2138   -2.5995 O   0  0  0  0  0  0  0  0  0  0  0  0
    3.2836    0.6957   -0.9329 N   0  0  0  0  0  0  0  0  0  0  0  0
    4.1552    1.8227   -0.6642 C   0  0  0  0  0  0  0  0  0  0  0  0
    4.8000    1.7541    0.7249 C   0  0  0  0  0  0  0  0  0  0  0  0
    5.5998    0.5018    0.9482 C   0  0  0  0  0  0  0  0  0  0  0  0
    6.7222    0.0686    0.2695 C   0  0  0  0  0  0  0  0  0  0  0  0
    7.2049   -1.1789    0.7604 C   0  0  0  0  0  0  0  0  0  0  0  0
    6.4349   -1.6577    1.7958 C   0  0  0  0  0  0  0  0  0  0  0  0
    5.1399   -0.6072    2.1722 S   0  0  0  0  0  0  0  0  0  0  0  0
    1.4637   -1.4332    0.2743 N   0  0  0  0  0  0  0  0  0  0  0  0
    0.3904   -1.2630    0.9959 C   0  0  0  0  0  0  0  0  0  0  0  0
    0.4933   -1.4518    2.4826 C   0  0  0  0  0  0  0  0  0  0  0  0
   -0.8436   -0.8943    0.3480 C   0  0  0  0  0  0  0  0  0  0  0  0
   -2.1434   -0.7026    0.7866 C   0  0  0  0  0  0  0  0  0  0  0  0
   -2.7467   -0.9655    2.1186 C   0  0  0  0  0  0  0  0  0  0  0  0
   -4.7598    0.3858   -1.7159 C   0  0  0  0  0  0  0  0  0  0  0  0
   -6.0387    0.9282   -1.8740 C   0  0  0  0  0  0  0  0  0  0  0  0
   -8.0050    3.1084   -1.0728 H   0  0  0  0  0  0  0  0  0  0  0  0
   -8.7318    1.8300   -0.0668 H   0  0  0  0  0  0  0  0  0  0  0  0
   -8.6150    1.6098   -1.8128 H   0  0  0  0  0  0  0  0  0  0  0  0
   -6.6559    1.7766    1.3564 H   0  0  0  0  0  0  0  0  0  0  0  0
   -4.4244    0.8761    1.6435 H   0  0  0  0  0  0  0  0  0  0  0  0
    3.2324   -2.3211   -1.3137 H   0  0  0  0  0  0  0  0  0  0  0  0
    2.4922   -1.8203   -2.8545 H   0  0  0  0  0  0  0  0  0  0  0  0
    2.5777    0.4416   -0.2479 H   0  0  0  0  0  0  0  0  0  0  0  0
    3.5326    2.7217   -0.7263 H   0  0  0  0  0  0  0  0  0  0  0  0
    4.9233    1.8989   -1.4415 H   0  0  0  0  0  0  0  0  0  0  0  0
    5.4579    2.6223    0.8566 H   0  0  0  0  0  0  0  0  0  0  0  0
    4.0125    1.8467    1.4835 H   0  0  0  0  0  0  0  0  0  0  0  0
    7.1686    0.6121   -0.5556 H   0  0  0  0  0  0  0  0  0  0  0  0
    8.0682   -1.7011    0.3667 H   0  0  0  0  0  0  0  0  0  0  0  0
    6.5683   -2.5769    2.3490 H   0  0  0  0  0  0  0  0  0  0  0  0
    1.5430   -1.4986    2.7874 H   0  0  0  0  0  0  0  0  0  0  0  0
    0.0173   -0.6182    3.0051 H   0  0  0  0  0  0  0  0  0  0  0  0
    0.0096   -2.3903    2.7650 H   0  0  0  0  0  0  0  0  0  0  0  0
   -2.6812   -0.0793    2.7566 H   0  0  0  0  0  0  0  0  0  0  0  0
   -2.2287   -1.7834    2.6271 H   0  0  0  0  0  0  0  0  0  0  0  0
   -3.7894   -1.2861    2.0403 H   0  0  0  0  0  0  0  0  0  0  0  0
   -4.2418    0.0184   -2.6012 H   0  0  0  0  0  0  0  0  0  0  0  0
   -6.4739    0.9733   -2.8701 H   0  0  0  0  0  0  0  0  0  0  0  0
  1  2  1  0
  2  3  2  0
  3  4  1  0
  4  5  2  0
  5  6  1  0
  6  7  1  0
  7  8  2  0
  8  9  1  0
  9 10  2  0
  9 11  1  0
 11 12  1  0
 12 13  1  0
 13 14  2  0
 13 15  1  0
 15 16  1  0
 16 17  1  0
 17 18  1  0
 18 19  2  0
 19 20  1  0
 20 21  2  0
 21 22  1  0
 11 23  1  0
 23 24  2  0
 24 25  1  0
 24 26  1  0
 26 27  2  0
 27 28  1  0
  5 29  1  0
 29 30  2  0
 30  2  1  0
 27  6  1  0
 26  8  1  0
 22 18  1  0
  1 31  1  0
  1 32  1  0
  1 33  1  0
  3 34  1  0
  4 35  1  0
 12 36  1  0
 12 37  1  0
 15 38  1  0
 16 39  1  0
 16 40  1  0
 17 41  1  0
 17 42  1  0
 19 43  1  0
 20 44  1  0
 21 45  1  0
 25 46  1  0
 25 47  1  0
 25 48  1  0
 28 49  1  0
 28 50  1  0
 28 51  1  0
 29 52  1  0
 30 53  1  0
M  END
$$$$
