
     RDKit          3D

 56 61  0  0  0  0  0  0  0  0999 V2000
    9.5399    2.1995   -1.6551 C   0  0  0  0  0  0  0  0  0  0  0  0
    8.1241    2.0687   -1.7402 O   0  0  0  0  0  0  0  0  0  0  0  0
    7.5409    1.1206   -0.9454 C   0  0  0  0  0  0  0  0  0  0  0  0
    8.2067    0.2481   -0.0915 C   0  0  0  0  0  0  0  0  0  0  0  0
    7.4771   -0.6718    0.6625 C   0  0  0  0  0  0  0  0  0  0  0  0
    6.0780   -0.7243    0.5676 C   0  0  0  0  0  0  0  0  0  0  0  0
    5.3406   -1.6462    1.3282 C   0  0  0  0  0  0  0  0  0  0  0  0
    3.9472   -1.6373    1.1859 C   0  0  0  0  0  0  0  0  0  0  0  0
    2.8554   -2.3527    1.7348 C   0  0  0  0  0  0  0  0  0  0  0  0
    1.7036   -1.8240    1.1736 C   0  0  0  0  0  0  0  0  0  0  0  0
    0.3172   -2.2103    1.3789 C   0  0  0  0  0  0  0  0  0  0  0  0
    0.0439   -3.3109    1.8632 O   0  0  0  0  0  0  0  0  0  0  0  0
   -0.7069   -1.3259    1.0342 N   0  0  0  0  0  0  0  0  0  0  0  0
   -0.5401    0.0942    0.7103 C   0  0  0  0  0  0  0  0  0  0  0  0
   -1.7369    0.9691    1.1470 C   0  0  0  0  0  0  0  0  0  0  0  0
   -3.0854    0.4450    0.8642 N   0  0  0  0  0  0  0  0  0  0  0  0
   -3.8848    1.3692    0.0499 C   0  0  0  0  0  0  0  0  0  0  0  0
   -5.3639    1.0311    0.0377 C   0  0  0  0  0  0  0  0  0  0  0  0
   -6.0634    0.8510    1.2581 C   0  0  0  0  0  0  0  0  0  0  0  0
   -7.4265    0.5368    1.2713 C   0  0  0  0  0  0  0  0  0  0  0  0
   -8.0683    0.4240    0.0563 C   0  0  0  0  0  0  0  0  0  0  0  0
   -7.4048    0.6167   -1.1331 C   0  0  0  0  0  0  0  0  0  0  0  0
   -6.0581    0.9190   -1.1799 C   0  0  0  0  0  0  0  0  0  0  0  0
   -8.2222    0.4644   -2.2126 O   0  0  0  0  0  0  0  0  0  0  0  0
   -9.4778    0.1678   -1.5622 C   0  0  0  0  0  0  0  0  0  0  0  0
   -9.3836    0.1227   -0.1236 O   0  0  0  0  0  0  0  0  0  0  0  0
   -3.0565   -0.9185    0.3120 C   0  0  0  0  0  0  0  0  0  0  0  0
   -2.0809   -1.8168    1.0861 C   0  0  0  0  0  0  0  0  0  0  0  0
    2.0447   -0.8500    0.2738 O   0  0  0  0  0  0  0  0  0  0  0  0
    3.3996   -0.7231    0.2950 C   0  0  0  0  0  0  0  0  0  0  0  0
    4.0585    0.1748   -0.4534 N   0  0  0  0  0  0  0  0  0  0  0  0
    5.3902    0.1581   -0.3002 C   0  0  0  0  0  0  0  0  0  0  0  0
    6.1450    1.0598   -1.0361 C   0  0  0  0  0  0  0  0  0  0  0  0
    9.8401    3.0082   -2.3279 H   0  0  0  0  0  0  0  0  0  0  0  0
   10.0415    1.2835   -1.9883 H   0  0  0  0  0  0  0  0  0  0  0  0
    9.8513    2.4755   -0.6405 H   0  0  0  0  0  0  0  0  0  0  0  0
    9.2866    0.2540    0.0103 H   0  0  0  0  0  0  0  0  0  0  0  0
    8.0109   -1.3492    1.3259 H   0  0  0  0  0  0  0  0  0  0  0  0
    5.8226   -2.3424    2.0069 H   0  0  0  0  0  0  0  0  0  0  0  0
    2.8830   -3.1550    2.4604 H   0  0  0  0  0  0  0  0  0  0  0  0
   -0.4082    0.1603   -0.3754 H   0  0  0  0  0  0  0  0  0  0  0  0
    0.3557    0.4890    1.1957 H   0  0  0  0  0  0  0  0  0  0  0  0
   -1.5920    1.9745    0.7314 H   0  0  0  0  0  0  0  0  0  0  0  0
   -1.6815    1.0889    2.2366 H   0  0  0  0  0  0  0  0  0  0  0  0
   -3.8116    2.3862    0.4584 H   0  0  0  0  0  0  0  0  0  0  0  0
   -3.4906    1.4122   -0.9747 H   0  0  0  0  0  0  0  0  0  0  0  0
   -5.5272    0.9406    2.2028 H   0  0  0  0  0  0  0  0  0  0  0  0
   -7.9596    0.3773    2.2006 H   0  0  0  0  0  0  0  0  0  0  0  0
   -5.5615    1.0570   -2.1364 H   0  0  0  0  0  0  0  0  0  0  0  0
  -10.2072    0.9386   -1.8432 H   0  0  0  0  0  0  0  0  0  0  0  0
   -9.8379   -0.8032   -1.9207 H   0  0  0  0  0  0  0  0  0  0  0  0
   -4.0534   -1.3689    0.3694 H   0  0  0  0  0  0  0  0  0  0  0  0
   -2.7625   -0.8973   -0.7451 H   0  0  0  0  0  0  0  0  0  0  0  0
   -2.3707   -1.8723    2.1386 H   0  0  0  0  0  0  0  0  0  0  0  0
   -2.1115   -2.8314    0.6817 H   0  0  0  0  0  0  0  0  0  0  0  0
    5.6312    1.7449   -1.7085 H   0  0  0  0  0  0  0  0  0  0  0  0
  1  2  1  0
  2  3  1  0
  3  4  2  0
  4  5  1  0
  5  6  2  0
  6  7  1  0
  7  8  2  0
  8  9  1  0
  9 10  2  0
 10 11  1  0
 11 12  2  0
 11 13  1  0
 13 14  1  0
 14 15  1  0
 15 16  1  0
 16 17  1  0
 17 18  1  0
 18 19  2  0
 19 20  1  0
 20 21  2  0
 21 22  1  0
 22 23  2  0
 22 24  1  0
 24 25  1  0
 25 26  1  0
 16 27  1  0
 27 28  1  0
 10 29  1  0
 29 30  1  0
 30 31  2  0
 31 32  1  0
 32 33  2  0
 33  3  1  0
 32  6  1  0
 30  8  1  0
 28 13  1  0
 23 18  1  0
 26 21  1  0
  1 34  1  0
  1 35  1  0
  1 36  1  0
  4 37  1  0
  5 38  1  0
  7 39  1  0
  9 40  1  0
 14 41  1  0
 14 42  1  0
 15 43  1  0
 15 44  1  0
 17 45  1  0
 17 46  1  0
 19 47  1  0
 20 48  1  0
 23 49  1  0
 25 50  1  0
 25 51  1  0
 27 52  1  0
 27 53  1  0
 28 54  1  0
 28 55  1  0
 33 56  1  0
M  END
$$$$
