
     RDKit          3D

 57 61  0  0  0  0  0  0  0  0999 V2000
    6.4939    0.7302    0.4735 C   0  0  0  0  0  0  0  0  0  0  0  0
    4.9854    0.9878    0.4023 C   0  0  0  0  0  0  0  0  0  0  0  0
    4.6453    2.2479    1.1961 C   0  0  0  0  0  0  0  0  0  0  0  0
    4.2054   -0.2173    0.9399 C   0  0  0  0  0  0  0  0  0  0  0  0
    4.7785   -1.0957    1.5900 O   0  0  0  0  0  0  0  0  0  0  0  0
    2.8335   -0.2852    0.7089 N   0  0  0  0  0  0  0  0  0  0  0  0
    2.0618    0.6106   -0.1478 C   0  0  0  0  0  0  0  0  0  0  0  0
    1.0537   -0.1511   -1.0053 C   0  0  0  0  0  0  0  0  0  0  0  0
    0.0944   -1.0694   -0.1854 C   0  0  0  0  0  0  0  0  0  0  0  0
    0.6078   -1.2256    1.2682 C   0  0  0  0  0  0  0  0  0  0  0  0
    2.1203   -1.4154    1.2966 C   0  0  0  0  0  0  0  0  0  0  0  0
    0.2230   -2.3617   -0.8460 O   0  0  0  0  0  0  0  0  0  0  0  0
   -0.7567   -3.2875   -0.6407 C   0  0  0  0  0  0  0  0  0  0  0  0
   -0.4717   -4.5858   -1.0668 C   0  0  0  0  0  0  0  0  0  0  0  0
   -1.4058   -5.6052   -0.8728 C   0  0  0  0  0  0  0  0  0  0  0  0
   -2.6194   -5.3182   -0.2557 C   0  0  0  0  0  0  0  0  0  0  0  0
   -3.5095   -6.3007   -0.0668 F   0  0  0  0  0  0  0  0  0  0  0  0
   -2.9222   -4.0298    0.1642 C   0  0  0  0  0  0  0  0  0  0  0  0
   -1.9851   -3.0149   -0.0443 C   0  0  0  0  0  0  0  0  0  0  0  0
   -2.2734   -1.6349    0.3664 C   0  0  0  0  0  0  0  0  0  0  0  0
   -3.1841   -1.4084    1.1585 O   0  0  0  0  0  0  0  0  0  0  0  0
   -1.3754   -0.5636   -0.2400 C   0  0  0  0  0  0  0  0  0  0  0  0
   -1.6182    0.7943    0.4011 C   0  0  0  0  0  0  0  0  0  0  0  0
   -2.6219    1.3259   -0.5655 C   0  0  0  0  0  0  0  0  0  0  0  0
   -3.4434    2.5238   -0.2723 C   0  0  0  0  0  0  0  0  0  0  0  0
   -4.4489    2.8930   -1.1760 C   0  0  0  0  0  0  0  0  0  0  0  0
   -5.2382    4.0207   -0.9329 C   0  0  0  0  0  0  0  0  0  0  0  0
   -5.0207    4.7819    0.2126 C   0  0  0  0  0  0  0  0  0  0  0  0
   -5.9872    6.1727    0.5130 Cl  0  0  0  0  0  0  0  0  0  0  0  0
   -4.0226    4.4236    1.1176 C   0  0  0  0  0  0  0  0  0  0  0  0
   -3.2325    3.2940    0.8773 C   0  0  0  0  0  0  0  0  0  0  0  0
   -2.6881    0.6806   -1.6861 N   0  0  0  0  0  0  0  0  0  0  0  0
   -1.7837   -0.4008   -1.6100 O   0  0  0  0  0  0  0  0  0  0  0  0
    6.8340    0.6093    1.5082 H   0  0  0  0  0  0  0  0  0  0  0  0
    7.0518    1.5609    0.0281 H   0  0  0  0  0  0  0  0  0  0  0  0
    6.7575   -0.1827   -0.0723 H   0  0  0  0  0  0  0  0  0  0  0  0
    4.7440    1.1273   -0.6560 H   0  0  0  0  0  0  0  0  0  0  0  0
    4.8694    2.1137    2.2601 H   0  0  0  0  0  0  0  0  0  0  0  0
    5.2228    3.1050    0.8331 H   0  0  0  0  0  0  0  0  0  0  0  0
    3.5859    2.5081    1.1203 H   0  0  0  0  0  0  0  0  0  0  0  0
    2.7102    1.1935   -0.8034 H   0  0  0  0  0  0  0  0  0  0  0  0
    1.5495    1.3210    0.5098 H   0  0  0  0  0  0  0  0  0  0  0  0
    0.4965    0.5771   -1.6053 H   0  0  0  0  0  0  0  0  0  0  0  0
    1.6178   -0.7551   -1.7298 H   0  0  0  0  0  0  0  0  0  0  0  0
    0.1482   -2.0903    1.7599 H   0  0  0  0  0  0  0  0  0  0  0  0
    0.3508   -0.3432    1.8664 H   0  0  0  0  0  0  0  0  0  0  0  0
    2.4541   -1.5471    2.3323 H   0  0  0  0  0  0  0  0  0  0  0  0
    2.4125   -2.3163    0.7440 H   0  0  0  0  0  0  0  0  0  0  0  0
    0.4807   -4.8065   -1.5432 H   0  0  0  0  0  0  0  0  0  0  0  0
   -1.1939   -6.6202   -1.1963 H   0  0  0  0  0  0  0  0  0  0  0  0
   -3.8793   -3.8267    0.6357 H   0  0  0  0  0  0  0  0  0  0  0  0
   -0.7456    1.4516    0.3684 H   0  0  0  0  0  0  0  0  0  0  0  0
   -1.9982    0.7451    1.4245 H   0  0  0  0  0  0  0  0  0  0  0  0
   -4.6281    2.3043   -2.0741 H   0  0  0  0  0  0  0  0  0  0  0  0
   -6.0165    4.2957   -1.6401 H   0  0  0  0  0  0  0  0  0  0  0  0
   -3.8551    5.0188    2.0118 H   0  0  0  0  0  0  0  0  0  0  0  0
   -2.4630    3.0410    1.6005 H   0  0  0  0  0  0  0  0  0  0  0  0
  1  2  1  0
  2  3  1  0
  2  4  1  0
  4  5  2  0
  4  6  1  0
  6  7  1  0
  7  8  1  0
  8  9  1  0
  9 10  1  0
 10 11  1  0
  9 12  1  0
 12 13  1  0
 13 14  2  0
 14 15  1  0
 15 16  2  0
 16 17  1  0
 16 18  1  0
 18 19  2  0
 19 20  1  0
 20 21  2  0
 20 22  1  0
 22 23  1  0
 23 24  1  0
 24 25  1  0
 25 26  2  0
 26 27  1  0
 27 28  2  0
 28 29  1  0
 28 30  1  0
 30 31  2  0
 24 32  2  0
 32 33  1  0
 11  6  1  0
 19 13  1  0
 33 22  1  0
 22  9  1  0
 31 25  1  0
  1 34  1  0
  1 35  1  0
  1 36  1  0
  2 37  1  0
  3 38  1  0
  3 39  1  0
  3 40  1  0
  7 41  1  0
  7 42  1  0
  8 43  1  0
  8 44  1  0
 10 45  1  0
 10 46  1  0
 11 47  1  0
 11 48  1  0
 14 49  1  0
 15 50  1  0
 18 51  1  0
 23 52  1  0
 23 53  1  0
 26 54  1  0
 27 55  1  0
 30 56  1  0
 31 57  1  0
M  END
$$$$
