
     RDKit          3D

 30 31  0  0  0  0  0  0  0  0999 V2000
    4.3174   -3.4137   -1.8764 C   0  0  0  0  0  0  0  0  0  0  0  0
    3.9088   -2.1455   -2.3735 O   0  0  0  0  0  0  0  0  0  0  0  0
    2.9332   -1.4916   -1.6739 C   0  0  0  0  0  0  0  0  0  0  0  0
    2.2912   -1.9579   -0.5278 C   0  0  0  0  0  0  0  0  0  0  0  0
    1.3034   -1.1815    0.0912 C   0  0  0  0  0  0  0  0  0  0  0  0
    0.9412    0.0705   -0.4284 C   0  0  0  0  0  0  0  0  0  0  0  0
   -0.0969    0.8948    0.2274 C   0  0  0  0  0  0  0  0  0  0  0  0
    0.2473    2.2138    0.6581 C   0  0  0  0  0  0  0  0  0  0  0  0
    0.5137    3.2967    0.9806 N   0  0  0  0  0  0  0  0  0  0  0  0
   -1.3268    0.3697    0.3982 C   0  0  0  0  0  0  0  0  0  0  0  0
   -2.4868    0.9950    1.0405 C   0  0  0  0  0  0  0  0  0  0  0  0
   -2.9463    2.2678    0.7179 C   0  0  0  0  0  0  0  0  0  0  0  0
   -4.0815    2.7533    1.3634 C   0  0  0  0  0  0  0  0  0  0  0  0
   -4.7303    1.9534    2.2951 C   0  0  0  0  0  0  0  0  0  0  0  0
   -4.2184    0.6909    2.5381 C   0  0  0  0  0  0  0  0  0  0  0  0
   -3.1211    0.1930    1.9258 N   0  0  0  0  0  0  0  0  0  0  0  0
    1.5951    0.5343   -1.5768 C   0  0  0  0  0  0  0  0  0  0  0  0
    2.5801   -0.2440   -2.1922 C   0  0  0  0  0  0  0  0  0  0  0  0
    3.4887   -4.1293   -1.8925 H   0  0  0  0  0  0  0  0  0  0  0  0
    4.7448   -3.3253   -0.8721 H   0  0  0  0  0  0  0  0  0  0  0  0
    5.1001   -3.7960   -2.5387 H   0  0  0  0  0  0  0  0  0  0  0  0
    2.5347   -2.9186   -0.0861 H   0  0  0  0  0  0  0  0  0  0  0  0
    0.8250   -1.5646    0.9914 H   0  0  0  0  0  0  0  0  0  0  0  0
   -1.5329   -0.6515    0.0823 H   0  0  0  0  0  0  0  0  0  0  0  0
   -2.4478    2.8831   -0.0236 H   0  0  0  0  0  0  0  0  0  0  0  0
   -4.4554    3.7482    1.1376 H   0  0  0  0  0  0  0  0  0  0  0  0
   -5.6148    2.3031    2.8156 H   0  0  0  0  0  0  0  0  0  0  0  0
   -4.6917    0.0238    3.2530 H   0  0  0  0  0  0  0  0  0  0  0  0
    1.3470    1.5008   -2.0109 H   0  0  0  0  0  0  0  0  0  0  0  0
    3.0789    0.1273   -3.0846 H   0  0  0  0  0  0  0  0  0  0  0  0
  1  2  1  0
  2  3  1  0
  3  4  2  0
  4  5  1  0
  5  6  2  0
  6  7  1  0
  7  8  1  0
  8  9  3  0
  7 10  2  3
 10 11  1  0
 11 12  2  0
 12 13  1  0
 13 14  2  0
 14 15  1  0
 15 16  2  0
  6 17  1  0
 17 18  2  0
 18  3  1  0
 16 11  1  0
  1 19  1  0
  1 20  1  0
  1 21  1  0
  4 22  1  0
  5 23  1  0
 10 24  1  0
 12 25  1  0
 13 26  1  0
 14 27  1  0
 15 28  1  0
 17 29  1  0
 18 30  1  0
M  END
$$$$
