
     RDKit          3D

 45 49  0  0  0  0  0  0  0  0999 V2000
    1.2094    0.5632    1.7913 O   0  0  0  0  0  0  0  0  0  0  0  0
    1.6103    0.1977    0.6960 C   0  0  0  0  0  0  0  0  0  0  0  0
    0.9064    0.1582   -0.4745 O   0  0  0  0  0  0  0  0  0  0  0  0
   -0.4658    0.4024   -0.2954 C   0  0  0  0  0  0  0  0  0  0  0  0
   -1.3479   -0.5728    0.0368 C   0  0  0  0  0  0  0  0  0  0  0  0
   -0.8741   -1.9525    0.2460 C   0  0  0  0  0  0  0  0  0  0  0  0
   -0.6302   -2.7922   -0.8490 C   0  0  0  0  0  0  0  0  0  0  0  0
   -0.1413   -4.0844   -0.6491 C   0  0  0  0  0  0  0  0  0  0  0  0
    0.1084   -4.5437    0.6436 C   0  0  0  0  0  0  0  0  0  0  0  0
   -0.1327   -3.7141    1.7380 C   0  0  0  0  0  0  0  0  0  0  0  0
   -0.6230   -2.4222    1.5411 C   0  0  0  0  0  0  0  0  0  0  0  0
   -2.8225   -0.2581    0.2011 C   0  0  0  0  0  0  0  0  0  0  0  0
   -3.6372   -1.1204    0.5195 O   0  0  0  0  0  0  0  0  0  0  0  0
   -3.1760    1.0433   -0.0423 N   0  0  0  0  0  0  0  0  0  0  0  0
   -2.2643    2.0145   -0.4125 C   0  0  0  0  0  0  0  0  0  0  0  0
   -2.8791    3.2396   -0.6121 C   0  0  0  0  0  0  0  0  0  0  0  0
   -2.1120    4.3216   -0.9939 C   0  0  0  0  0  0  0  0  0  0  0  0
   -0.7315    4.1267   -1.1638 C   0  0  0  0  0  0  0  0  0  0  0  0
   -0.1347    2.8635   -0.9515 C   0  0  0  0  0  0  0  0  0  0  0  0
   -0.9149    1.7742   -0.5642 C   0  0  0  0  0  0  0  0  0  0  0  0
   -4.3508    3.1263   -0.3540 C   0  0  0  0  0  0  0  0  0  0  0  0
   -4.5111    1.6332    0.0285 C   0  0  0  0  0  0  0  0  0  0  0  0
    3.0091   -0.2517    0.4556 C   0  0  0  0  0  0  0  0  0  0  0  0
    3.4001   -0.8969   -0.7287 C   0  0  0  0  0  0  0  0  0  0  0  0
    4.7259   -1.3052   -0.8977 C   0  0  0  0  0  0  0  0  0  0  0  0
    5.6524   -1.0727    0.1130 C   0  0  0  0  0  0  0  0  0  0  0  0
    6.9214   -1.4659   -0.0534 F   0  0  0  0  0  0  0  0  0  0  0  0
    5.2802   -0.4416    1.2942 C   0  0  0  0  0  0  0  0  0  0  0  0
    3.9565   -0.0321    1.4683 C   0  0  0  0  0  0  0  0  0  0  0  0
   -0.8245   -2.4463   -1.8614 H   0  0  0  0  0  0  0  0  0  0  0  0
    0.0391   -4.7349   -1.5008 H   0  0  0  0  0  0  0  0  0  0  0  0
    0.4847   -5.5514    0.7996 H   0  0  0  0  0  0  0  0  0  0  0  0
    0.0571   -4.0726    2.7463 H   0  0  0  0  0  0  0  0  0  0  0  0
   -0.8033   -1.7815    2.4023 H   0  0  0  0  0  0  0  0  0  0  0  0
   -2.5561    5.2981   -1.1585 H   0  0  0  0  0  0  0  0  0  0  0  0
   -0.1063    4.9663   -1.4624 H   0  0  0  0  0  0  0  0  0  0  0  0
    0.9376    2.7568   -1.0905 H   0  0  0  0  0  0  0  0  0  0  0  0
   -4.9303    3.3639   -1.2513 H   0  0  0  0  0  0  0  0  0  0  0  0
   -4.6606    3.7762    0.4700 H   0  0  0  0  0  0  0  0  0  0  0  0
   -5.1750    1.1021   -0.6624 H   0  0  0  0  0  0  0  0  0  0  0  0
   -4.9031    1.5103    1.0441 H   0  0  0  0  0  0  0  0  0  0  0  0
    2.6852   -1.0996   -1.5226 H   0  0  0  0  0  0  0  0  0  0  0  0
    5.0402   -1.8070   -1.8078 H   0  0  0  0  0  0  0  0  0  0  0  0
    6.0193   -0.2751    2.0719 H   0  0  0  0  0  0  0  0  0  0  0  0
    3.6653    0.4571    2.3966 H   0  0  0  0  0  0  0  0  0  0  0  0
  1  2  2  0
  2  3  1  0
  3  4  1  0
  4  5  2  0
  5  6  1  0
  6  7  2  0
  7  8  1  0
  8  9  2  0
  9 10  1  0
 10 11  2  0
  5 12  1  0
 12 13  2  0
 12 14  1  0
 14 15  1  0
 15 16  2  0
 16 17  1  0
 17 18  2  0
 18 19  1  0
 19 20  2  0
 16 21  1  0
 21 22  1  0
  2 23  1  0
 23 24  2  0
 24 25  1  0
 25 26  2  0
 26 27  1  0
 26 28  1  0
 28 29  2  0
 20  4  1  0
 29 23  1  0
 11  6  1  0
 22 14  1  0
 20 15  1  0
  7 30  1  0
  8 31  1  0
  9 32  1  0
 10 33  1  0
 11 34  1  0
 17 35  1  0
 18 36  1  0
 19 37  1  0
 21 38  1  0
 21 39  1  0
 22 40  1  0
 22 41  1  0
 24 42  1  0
 25 43  1  0
 28 44  1  0
 29 45  1  0
M  END
$$$$
