
     RDKit          3D

 59 62  0  0  0  0  0  0  0  0999 V2000
    4.8604   -0.7115    5.3983 C   0  0  0  0  0  0  0  0  0  0  0  0
    5.1355   -1.3032    4.1351 O   0  0  0  0  0  0  0  0  0  0  0  0
    4.9321   -0.5236    3.0318 C   0  0  0  0  0  0  0  0  0  0  0  0
    4.4847    0.7972    3.0312 C   0  0  0  0  0  0  0  0  0  0  0  0
    4.3075    1.4738    1.8229 C   0  0  0  0  0  0  0  0  0  0  0  0
    4.5628    0.8294    0.6036 C   0  0  0  0  0  0  0  0  0  0  0  0
    4.3753    1.5962   -0.6543 C   0  0  0  0  0  0  0  0  0  0  0  0
    4.7580    2.7689   -0.6791 O   0  0  0  0  0  0  0  0  0  0  0  0
    3.8357    0.9224   -1.8994 C   0  0  0  0  0  0  0  0  0  0  0  0
    2.4303   -0.1946   -1.6240 S   0  0  0  0  0  0  0  0  0  0  0  0
    1.1977    0.9186   -1.1473 C   0  0  0  0  0  0  0  0  0  0  0  0
    1.3903    2.0634   -0.5417 N   0  0  0  0  0  0  0  0  0  0  0  0
    0.1659    2.6515   -0.3580 N   0  0  0  0  0  0  0  0  0  0  0  0
   -0.7562    1.8563   -0.8713 C   0  0  0  0  0  0  0  0  0  0  0  0
   -2.2243    2.1513   -0.9113 C   0  0  0  0  0  0  0  0  0  0  0  0
   -2.9454    1.7900    0.3160 N   0  0  0  0  0  0  0  0  0  0  0  0
   -3.5656    0.5388    0.4247 C   0  0  0  0  0  0  0  0  0  0  0  0
   -4.2868   -0.0171   -0.6466 C   0  0  0  0  0  0  0  0  0  0  0  0
   -4.9273   -1.2549   -0.5336 C   0  0  0  0  0  0  0  0  0  0  0  0
   -4.8931   -1.9642    0.6687 C   0  0  0  0  0  0  0  0  0  0  0  0
   -5.6063   -3.2774    0.7919 C   0  0  0  0  0  0  0  0  0  0  0  0
   -4.2369   -1.3959    1.7654 C   0  0  0  0  0  0  0  0  0  0  0  0
   -3.5932   -0.1466    1.6613 C   0  0  0  0  0  0  0  0  0  0  0  0
   -2.9534    0.4249    2.9012 C   0  0  0  0  0  0  0  0  0  0  0  0
   -0.1439    0.7143   -1.3452 N   0  0  0  0  0  0  0  0  0  0  0  0
   -0.7837   -0.4688   -1.8913 C   0  0  0  0  0  0  0  0  0  0  0  0
   -0.9039   -0.3770   -3.3663 C   0  0  0  0  0  0  0  0  0  0  0  0
   -0.1975   -0.9315   -4.4145 C   0  0  0  0  0  0  0  0  0  0  0  0
   -0.8166   -0.4703   -5.6029 C   0  0  0  0  0  0  0  0  0  0  0  0
   -1.8604    0.3334   -5.2070 C   0  0  0  0  0  0  0  0  0  0  0  0
   -1.9251    0.3898   -3.8522 O   0  0  0  0  0  0  0  0  0  0  0  0
    5.0261   -0.4881    0.6020 C   0  0  0  0  0  0  0  0  0  0  0  0
    5.2099   -1.1543    1.8125 C   0  0  0  0  0  0  0  0  0  0  0  0
    5.0767   -1.4587    6.1752 H   0  0  0  0  0  0  0  0  0  0  0  0
    5.5110    0.1521    5.5772 H   0  0  0  0  0  0  0  0  0  0  0  0
    3.8007   -0.4390    5.4858 H   0  0  0  0  0  0  0  0  0  0  0  0
    4.2550    1.3291    3.9548 H   0  0  0  0  0  0  0  0  0  0  0  0
    3.9549    2.5039    1.8286 H   0  0  0  0  0  0  0  0  0  0  0  0
    4.6518    0.3668   -2.3721 H   0  0  0  0  0  0  0  0  0  0  0  0
    3.5181    1.6996   -2.6045 H   0  0  0  0  0  0  0  0  0  0  0  0
   -2.3271    3.2423   -1.0157 H   0  0  0  0  0  0  0  0  0  0  0  0
   -2.6832    1.7463   -1.8157 H   0  0  0  0  0  0  0  0  0  0  0  0
   -2.3566    2.0067    1.1152 H   0  0  0  0  0  0  0  0  0  0  0  0
   -4.3791    0.5089   -1.5897 H   0  0  0  0  0  0  0  0  0  0  0  0
   -5.4720   -1.6475   -1.3888 H   0  0  0  0  0  0  0  0  0  0  0  0
   -5.3635   -3.9222   -0.0617 H   0  0  0  0  0  0  0  0  0  0  0  0
   -6.6900   -3.1159    0.8231 H   0  0  0  0  0  0  0  0  0  0  0  0
   -5.3106   -3.8096    1.7021 H   0  0  0  0  0  0  0  0  0  0  0  0
   -4.2409   -1.9206    2.7209 H   0  0  0  0  0  0  0  0  0  0  0  0
   -3.1181   -0.2150    3.7782 H   0  0  0  0  0  0  0  0  0  0  0  0
   -1.8683    0.5150    2.7560 H   0  0  0  0  0  0  0  0  0  0  0  0
   -3.3830    1.4128    3.1316 H   0  0  0  0  0  0  0  0  0  0  0  0
   -0.2032   -1.3505   -1.5956 H   0  0  0  0  0  0  0  0  0  0  0  0
   -1.7623   -0.5834   -1.4269 H   0  0  0  0  0  0  0  0  0  0  0  0
    0.6543   -1.5895   -4.3364 H   0  0  0  0  0  0  0  0  0  0  0  0
   -0.5402   -0.6978   -6.6255 H   0  0  0  0  0  0  0  0  0  0  0  0
   -2.6128    0.9078   -5.7390 H   0  0  0  0  0  0  0  0  0  0  0  0
    5.2623   -1.0029   -0.3245 H   0  0  0  0  0  0  0  0  0  0  0  0
    5.5734   -2.1799    1.8145 H   0  0  0  0  0  0  0  0  0  0  0  0
  1  2  1  0
  2  3  1  0
  3  4  2  0
  4  5  1  0
  5  6  2  0
  6  7  1  0
  7  8  2  0
  7  9  1  0
  9 10  1  0
 10 11  1  0
 11 12  2  0
 12 13  1  0
 13 14  2  0
 14 15  1  0
 15 16  1  0
 16 17  1  0
 17 18  2  0
 18 19  1  0
 19 20  2  0
 20 21  1  0
 20 22  1  0
 22 23  2  0
 23 24  1  0
 14 25  1  0
 25 26  1  0
 26 27  1  0
 27 28  2  0
 28 29  1  0
 29 30  2  0
 30 31  1  0
  6 32  1  0
 32 33  2  0
 33  3  1  0
 25 11  1  0
 31 27  1  0
 23 17  1  0
  1 34  1  0
  1 35  1  0
  1 36  1  0
  4 37  1  0
  5 38  1  0
  9 39  1  0
  9 40  1  0
 15 41  1  0
 15 42  1  0
 16 43  1  0
 18 44  1  0
 19 45  1  0
 21 46  1  0
 21 47  1  0
 21 48  1  0
 22 49  1  0
 24 50  1  0
 24 51  1  0
 24 52  1  0
 26 53  1  0
 26 54  1  0
 28 55  1  0
 29 56  1  0
 30 57  1  0
 32 58  1  0
 33 59  1  0
M  END
$$$$
