
     RDKit          3D

 37 38  0  0  0  0  0  0  0  0999 V2000
    3.9016   -0.8592    3.0934 C   0  0  0  0  0  0  0  0  0  0  0  0
    4.5086   -0.6911    1.7121 C   0  0  0  0  0  0  0  0  0  0  0  0
    3.5198   -0.3084    0.7233 N   0  0  0  0  0  0  0  0  0  0  0  0
    2.8599   -1.1358   -0.1362 C   0  0  0  0  0  0  0  0  0  0  0  0
    2.0333   -0.3300   -0.8950 C   0  0  0  0  0  0  0  0  0  0  0  0
    1.1012   -0.7405   -1.9769 C   0  0  0  0  0  0  0  0  0  0  0  0
   -0.2133   -0.9008   -1.3970 N   0  0  0  0  0  0  0  0  0  0  0  0
   -1.2130    0.0180   -1.6225 C   0  0  0  0  0  0  0  0  0  0  0  0
   -1.1101    0.9662   -2.3912 O   0  0  0  0  0  0  0  0  0  0  0  0
   -2.4664   -0.1637   -0.8412 C   0  0  0  0  0  0  0  0  0  0  0  0
   -2.9051   -1.4313   -0.4309 C   0  0  0  0  0  0  0  0  0  0  0  0
   -4.0923   -1.5647    0.2941 C   0  0  0  0  0  0  0  0  0  0  0  0
   -4.8513   -0.4363    0.6076 C   0  0  0  0  0  0  0  0  0  0  0  0
   -4.4190    0.8287    0.1847 C   0  0  0  0  0  0  0  0  0  0  0  0
   -5.2214    2.0146    0.5095 N   0  0  0  0  0  4  0  0  0  0  0  0
   -6.3062    1.8349    1.0814 O   0  0  0  0  0  0  0  0  0  0  0  0
   -4.7664    3.1233    0.1975 O   0  0  0  0  0  1  0  0  0  0  0  0
   -3.2313    0.9714   -0.5427 C   0  0  0  0  0  0  0  0  0  0  0  0
    2.2769    0.9832   -0.4016 C   0  0  0  0  0  0  0  0  0  0  0  0
    1.6550    2.2583   -0.8412 C   0  0  0  0  0  0  0  0  0  0  0  0
    3.1785    0.9825    0.5884 N   0  0  0  0  0  0  0  0  0  0  0  0
    3.4477    0.0744    3.4424 H   0  0  0  0  0  0  0  0  0  0  0  0
    3.1219   -1.6283    3.0902 H   0  0  0  0  0  0  0  0  0  0  0  0
    4.6709   -1.1548    3.8133 H   0  0  0  0  0  0  0  0  0  0  0  0
    5.2870    0.0797    1.7191 H   0  0  0  0  0  0  0  0  0  0  0  0
    4.9676   -1.6284    1.3792 H   0  0  0  0  0  0  0  0  0  0  0  0
    3.0306   -2.2031   -0.1423 H   0  0  0  0  0  0  0  0  0  0  0  0
    1.3936   -1.7130   -2.3867 H   0  0  0  0  0  0  0  0  0  0  0  0
    1.0923   -0.0149   -2.7957 H   0  0  0  0  0  0  0  0  0  0  0  0
   -0.2788   -1.5198   -0.6019 H   0  0  0  0  0  0  0  0  0  0  0  0
   -2.3489   -2.3280   -0.6925 H   0  0  0  0  0  0  0  0  0  0  0  0
   -4.4314   -2.5505    0.6068 H   0  0  0  0  0  0  0  0  0  0  0  0
   -5.7744   -0.5583    1.1718 H   0  0  0  0  0  0  0  0  0  0  0  0
   -2.8916    1.9503   -0.8791 H   0  0  0  0  0  0  0  0  0  0  0  0
    1.5918    2.3047   -1.9327 H   0  0  0  0  0  0  0  0  0  0  0  0
    0.6451    2.3483   -0.4293 H   0  0  0  0  0  0  0  0  0  0  0  0
    2.2376    3.1225   -0.5051 H   0  0  0  0  0  0  0  0  0  0  0  0
  1  2  1  0
  2  3  1  0
  3  4  1  0
  4  5  2  0
  5  6  1  0
  6  7  1  0
  7  8  1  0
  8  9  2  0
  8 10  1  0
 10 11  2  0
 11 12  1  0
 12 13  2  0
 13 14  1  0
 14 15  1  0
 15 16  2  0
 15 17  1  0
 14 18  2  0
  5 19  1  0
 19 20  1  0
 19 21  2  0
 21  3  1  0
 18 10  1  0
  1 22  1  0
  1 23  1  0
  1 24  1  0
  2 25  1  0
  2 26  1  0
  4 27  1  0
  6 28  1  0
  6 29  1  0
  7 30  1  0
 11 31  1  0
 12 32  1  0
 13 33  1  0
 18 34  1  0
 20 35  1  0
 20 36  1  0
 20 37  1  0
M  CHG  2  15   1  17  -1
M  END
$$$$
