
     RDKit          3D

 46 49  0  0  0  0  0  0  0  0999 V2000
    3.2308    2.1935   -3.1745 O   0  0  0  0  0  0  0  0  0  0  0  0
    2.7413    1.2440   -2.5664 C   0  0  0  0  0  0  0  0  0  0  0  0
    1.2758    0.8759   -2.7286 C   0  0  0  0  0  0  0  0  0  0  0  0
    0.3728    1.3520   -1.2258 S   0  0  0  0  0  0  0  0  0  0  0  0
   -1.1656    0.6361   -1.5519 C   0  0  0  0  0  0  0  0  0  0  0  0
   -1.4998    0.0100   -2.6544 N   0  0  0  0  0  0  0  0  0  0  0  0
   -2.8083   -0.3779   -2.5327 N   0  0  0  0  0  0  0  0  0  0  0  0
   -3.2518    0.0132   -1.3516 C   0  0  0  0  0  0  0  0  0  0  0  0
   -4.6539   -0.1639   -0.8673 C   0  0  0  0  0  0  0  0  0  0  0  0
   -4.8088   -0.9969    0.3737 C   0  0  0  0  0  0  0  0  0  0  0  0
   -5.4983   -0.6737    1.5286 C   0  0  0  0  0  0  0  0  0  0  0  0
   -5.4575   -1.7182    2.4980 C   0  0  0  0  0  0  0  0  0  0  0  0
   -4.7495   -2.8093    2.0480 C   0  0  0  0  0  0  0  0  0  0  0  0
   -4.1534   -2.5802    0.4629 S   0  0  0  0  0  0  0  0  0  0  0  0
   -2.2287    0.6593   -0.6870 N   0  0  0  0  0  0  0  0  0  0  0  0
   -2.2912    1.3069    0.6109 C   0  0  0  0  0  0  0  0  0  0  0  0
   -1.8510    0.4204    1.7216 C   0  0  0  0  0  0  0  0  0  0  0  0
   -2.2847    0.2644    3.0243 C   0  0  0  0  0  0  0  0  0  0  0  0
   -1.4647   -0.7340    3.6043 C   0  0  0  0  0  0  0  0  0  0  0  0
   -0.5760   -1.1156    2.6277 C   0  0  0  0  0  0  0  0  0  0  0  0
   -0.7942   -0.4126    1.4878 O   0  0  0  0  0  0  0  0  0  0  0  0
    3.4111    0.4008   -1.6912 N   0  0  0  0  0  0  0  0  0  0  0  0
    4.7674    0.4489   -1.2937 C   0  0  0  0  0  0  0  0  0  0  0  0
    5.6886    1.3611   -1.8171 C   0  0  0  0  0  0  0  0  0  0  0  0
    7.0157    1.3658   -1.3713 C   0  0  0  0  0  0  0  0  0  0  0  0
    7.4313    0.4553   -0.4019 C   0  0  0  0  0  0  0  0  0  0  0  0
    9.0604    0.4757    0.1495 Cl  0  0  0  0  0  0  0  0  0  0  0  0
    6.5352   -0.4675    0.1271 C   0  0  0  0  0  0  0  0  0  0  0  0
    5.2113   -0.4675   -0.3175 C   0  0  0  0  0  0  0  0  0  0  0  0
    4.1222   -1.6231    0.3792 Cl  0  0  0  0  0  0  0  0  0  0  0  0
    0.8698    1.4034   -3.5989 H   0  0  0  0  0  0  0  0  0  0  0  0
    1.2000   -0.2025   -2.9095 H   0  0  0  0  0  0  0  0  0  0  0  0
   -5.0922    0.8275   -0.7003 H   0  0  0  0  0  0  0  0  0  0  0  0
   -5.2508   -0.6224   -1.6653 H   0  0  0  0  0  0  0  0  0  0  0  0
   -6.0148    0.2680    1.6733 H   0  0  0  0  0  0  0  0  0  0  0  0
   -5.9293   -1.6733    3.4728 H   0  0  0  0  0  0  0  0  0  0  0  0
   -4.5596   -3.7376    2.5684 H   0  0  0  0  0  0  0  0  0  0  0  0
   -3.3220    1.6415    0.7712 H   0  0  0  0  0  0  0  0  0  0  0  0
   -1.6773    2.2129    0.5811 H   0  0  0  0  0  0  0  0  0  0  0  0
   -3.0986    0.7965    3.4967 H   0  0  0  0  0  0  0  0  0  0  0  0
   -1.5150   -1.1290    4.6105 H   0  0  0  0  0  0  0  0  0  0  0  0
    0.2319   -1.8338    2.5853 H   0  0  0  0  0  0  0  0  0  0  0  0
    2.8489   -0.3009   -1.2142 H   0  0  0  0  0  0  0  0  0  0  0  0
    5.4085    2.0899   -2.5740 H   0  0  0  0  0  0  0  0  0  0  0  0
    7.7142    2.0897   -1.7846 H   0  0  0  0  0  0  0  0  0  0  0  0
    6.8598   -1.1729    0.8862 H   0  0  0  0  0  0  0  0  0  0  0  0
  1  2  2  0
  2  3  1  0
  3  4  1  0
  4  5  1  0
  5  6  2  0
  6  7  1  0
  7  8  2  0
  8  9  1  0
  9 10  1  0
 10 11  2  0
 11 12  1  0
 12 13  2  0
 13 14  1  0
  8 15  1  0
 15 16  1  0
 16 17  1  0
 17 18  2  0
 18 19  1  0
 19 20  2  0
 20 21  1  0
  2 22  1  0
 22 23  1  0
 23 24  2  0
 24 25  1  0
 25 26  2  0
 26 27  1  0
 26 28  1  0
 28 29  2  0
 29 30  1  0
 15  5  1  0
 21 17  1  0
 29 23  1  0
 14 10  1  0
  3 31  1  0
  3 32  1  0
  9 33  1  0
  9 34  1  0
 11 35  1  0
 12 36  1  0
 13 37  1  0
 16 38  1  0
 16 39  1  0
 18 40  1  0
 19 41  1  0
 20 42  1  0
 22 43  1  0
 24 44  1  0
 25 45  1  0
 28 46  1  0
M  END
$$$$
