
     RDKit          3D

 51 53  0  0  0  0  0  0  0  0999 V2000
   -0.6159   -0.2890   -0.2247 N   0  0  0  0  0  0  0  0  0  0  0  0
    0.4992   -0.0397   -0.4339 C   0  0  0  0  0  0  0  0  0  0  0  0
    1.8595    0.2897   -0.7007 C   0  0  0  0  0  0  0  0  0  0  0  0
    2.2856    1.4946   -1.1247 C   0  0  0  0  0  0  0  0  0  0  0  0
    1.4328    2.6254   -1.2530 C   0  0  0  0  0  0  0  0  0  0  0  0
    1.5637    3.7186   -2.0996 C   0  0  0  0  0  0  0  0  0  0  0  0
    0.4563    4.5721   -1.8835 C   0  0  0  0  0  0  0  0  0  0  0  0
   -0.2964    3.9803   -0.8956 C   0  0  0  0  0  0  0  0  0  0  0  0
   -1.5658    4.3671   -0.2239 C   0  0  0  0  0  0  0  0  0  0  0  0
   -2.3073    3.2023    0.1819 N   0  0  0  0  0  0  0  0  0  0  0  0
   -3.1232    2.5149   -0.6834 C   0  0  0  0  0  0  0  0  0  0  0  0
   -3.4176    2.8517   -1.8229 O   0  0  0  0  0  0  0  0  0  0  0  0
   -3.6790    1.1952   -0.1026 C   0  0  0  0  0  0  0  0  0  0  0  0
   -3.6078    1.0031    1.1036 O   0  0  0  0  0  0  0  0  0  0  0  0
   -4.2218    0.3940   -1.0846 N   0  0  0  0  0  0  0  0  0  0  0  0
   -4.7603   -0.8962   -0.9441 C   0  0  0  0  0  0  0  0  0  0  0  0
   -4.7800   -1.5993    0.2626 C   0  0  0  0  0  0  0  0  0  0  0  0
   -5.3248   -2.8849    0.3148 C   0  0  0  0  0  0  0  0  0  0  0  0
   -5.3403   -3.7454    1.8040 Cl  0  0  0  0  0  0  0  0  0  0  0  0
   -5.8541   -3.4832   -0.8251 C   0  0  0  0  0  0  0  0  0  0  0  0
   -5.8329   -2.7821   -2.0253 C   0  0  0  0  0  0  0  0  0  0  0  0
   -6.4897   -3.5034   -3.4445 Cl  0  0  0  0  0  0  0  0  0  0  0  0
   -5.2886   -1.4984   -2.0912 C   0  0  0  0  0  0  0  0  0  0  0  0
    0.3041    2.8258   -0.4951 O   0  0  0  0  0  0  0  0  0  0  0  0
    2.8507   -0.8199   -0.6292 C   0  0  0  0  0  0  0  0  0  0  0  0
    2.5889   -1.9340   -1.0649 O   0  0  0  0  0  0  0  0  0  0  0  0
    4.0426   -0.5016   -0.0173 N   0  0  0  0  0  0  0  0  0  0  0  0
    5.0463   -1.5102    0.2529 C   0  0  0  0  0  0  0  0  0  0  0  0
    5.0123   -1.9242    1.6939 C   0  0  0  0  0  0  0  0  0  0  0  0
    4.0396   -2.8035    2.1783 C   0  0  0  0  0  0  0  0  0  0  0  0
    4.0314   -3.1497    3.5258 C   0  0  0  0  0  0  0  0  0  0  0  0
    4.9958   -2.5971    4.3510 C   0  0  0  0  0  0  0  0  0  0  0  0
    5.9459   -1.7392    3.9233 N   0  0  0  0  0  0  0  0  0  0  0  0
    5.9335   -1.4256    2.6091 C   0  0  0  0  0  0  0  0  0  0  0  0
    3.3211    1.6341   -1.4256 H   0  0  0  0  0  0  0  0  0  0  0  0
    2.3607    3.8680   -2.8161 H   0  0  0  0  0  0  0  0  0  0  0  0
    0.2305    5.5004   -2.3901 H   0  0  0  0  0  0  0  0  0  0  0  0
   -1.3489    4.9509    0.6763 H   0  0  0  0  0  0  0  0  0  0  0  0
   -2.1834    4.9727   -0.8956 H   0  0  0  0  0  0  0  0  0  0  0  0
   -2.0222    2.6956    1.0156 H   0  0  0  0  0  0  0  0  0  0  0  0
   -4.1979    0.8076   -2.0141 H   0  0  0  0  0  0  0  0  0  0  0  0
   -4.3642   -1.1767    1.1704 H   0  0  0  0  0  0  0  0  0  0  0  0
   -6.2759   -4.4827   -0.7769 H   0  0  0  0  0  0  0  0  0  0  0  0
   -5.2851   -0.9726   -3.0423 H   0  0  0  0  0  0  0  0  0  0  0  0
    4.1305    0.3758    0.4789 H   0  0  0  0  0  0  0  0  0  0  0  0
    4.9089   -2.3838   -0.3944 H   0  0  0  0  0  0  0  0  0  0  0  0
    6.0175   -1.0708    0.0002 H   0  0  0  0  0  0  0  0  0  0  0  0
    3.2906   -3.2210    1.5087 H   0  0  0  0  0  0  0  0  0  0  0  0
    3.2901   -3.8342    3.9231 H   0  0  0  0  0  0  0  0  0  0  0  0
    5.0292   -2.8367    5.4112 H   0  0  0  0  0  0  0  0  0  0  0  0
    6.7160   -0.7348    2.3074 H   0  0  0  0  0  0  0  0  0  0  0  0
  1  2  3  0
  2  3  1  0
  3  4  2  3
  4  5  1  0
  5  6  2  0
  6  7  1  0
  7  8  2  0
  8  9  1  0
  9 10  1  0
 10 11  1  0
 11 12  2  0
 11 13  1  0
 13 14  2  0
 13 15  1  0
 15 16  1  0
 16 17  2  0
 17 18  1  0
 18 19  1  0
 18 20  2  0
 20 21  1  0
 21 22  1  0
 21 23  2  0
  8 24  1  0
  3 25  1  0
 25 26  2  0
 25 27  1  0
 27 28  1  0
 28 29  1  0
 29 30  2  0
 30 31  1  0
 31 32  2  0
 32 33  1  0
 33 34  2  0
 24  5  1  0
 34 29  1  0
 23 16  1  0
  4 35  1  0
  6 36  1  0
  7 37  1  0
  9 38  1  0
  9 39  1  0
 10 40  1  0
 15 41  1  0
 17 42  1  0
 20 43  1  0
 23 44  1  0
 27 45  1  0
 28 46  1  0
 28 47  1  0
 30 48  1  0
 31 49  1  0
 32 50  1  0
 34 51  1  0
M  END
$$$$
