
     RDKit          3D

 57 59  0  0  0  0  0  0  0  0999 V2000
   11.1664    0.5579   -1.4119 C   0  0  0  0  0  0  0  0  0  0  0  0
   10.0951    0.3477   -2.3223 O   0  0  0  0  0  0  0  0  0  0  0  0
    8.8290    0.5501   -1.8469 C   0  0  0  0  0  0  0  0  0  0  0  0
    8.4864    0.8844   -0.5372 C   0  0  0  0  0  0  0  0  0  0  0  0
    7.1418    1.0638   -0.1772 C   0  0  0  0  0  0  0  0  0  0  0  0
    6.1300    0.9085   -1.1240 C   0  0  0  0  0  0  0  0  0  0  0  0
    4.7877    1.0471   -0.9139 O   0  0  0  0  0  0  0  0  0  0  0  0
    4.3162    1.3991    0.3911 C   0  0  0  0  0  0  0  0  0  0  0  0
    4.1740    0.1739    1.2986 C   0  0  0  0  0  0  0  0  0  0  0  0
    2.8375   -0.9515    0.7644 S   0  0  0  0  0  0  0  0  0  0  0  0
    1.4440   -0.1010    1.3333 C   0  0  0  0  0  0  0  0  0  0  0  0
    1.4377    1.0415    1.9784 N   0  0  0  0  0  0  0  0  0  0  0  0
    0.1334    1.3441    2.2796 N   0  0  0  0  0  0  0  0  0  0  0  0
   -0.6304    0.3701    1.8235 C   0  0  0  0  0  0  0  0  0  0  0  0
   -2.1105    0.2946    1.9515 C   0  0  0  0  0  0  0  0  0  0  0  0
   -2.7975    0.9669    0.7610 C   0  0  0  0  0  0  0  0  0  0  0  0
   -4.2379    0.7841    0.7761 N   0  0  0  0  0  0  0  0  0  0  0  0
   -4.8002   -0.4278    0.4269 C   0  0  0  0  0  0  0  0  0  0  0  0
   -4.1281   -1.4135    0.1400 O   0  0  0  0  0  0  0  0  0  0  0  0
   -6.2883   -0.4921    0.3850 C   0  0  0  0  0  0  0  0  0  0  0  0
   -6.8871   -1.4703   -0.4188 C   0  0  0  0  0  0  0  0  0  0  0  0
   -8.2809   -1.5779   -0.4916 C   0  0  0  0  0  0  0  0  0  0  0  0
   -9.0880   -0.7123    0.2453 C   0  0  0  0  0  0  0  0  0  0  0  0
  -10.4544   -0.7068    0.2626 O   0  0  0  0  0  0  0  0  0  0  0  0
  -11.1140   -1.7131   -0.4963 C   0  0  0  0  0  0  0  0  0  0  0  0
   -8.4897    0.2544    1.0594 C   0  0  0  0  0  0  0  0  0  0  0  0
   -7.0979    0.3647    1.1378 C   0  0  0  0  0  0  0  0  0  0  0  0
    0.1628   -0.5592    1.1908 N   0  0  0  0  0  0  0  0  0  0  0  0
   -0.2646   -1.7575    0.5149 C   0  0  0  0  0  0  0  0  0  0  0  0
    6.4770    0.5715   -2.4336 C   0  0  0  0  0  0  0  0  0  0  0  0
    7.8154    0.3930   -2.7925 C   0  0  0  0  0  0  0  0  0  0  0  0
   12.1030    0.3975   -1.9546 H   0  0  0  0  0  0  0  0  0  0  0  0
   11.1301   -0.1640   -0.5891 H   0  0  0  0  0  0  0  0  0  0  0  0
   11.1718    1.5860   -1.0344 H   0  0  0  0  0  0  0  0  0  0  0  0
    9.2393    1.0102    0.2346 H   0  0  0  0  0  0  0  0  0  0  0  0
    6.9296    1.3207    0.8543 H   0  0  0  0  0  0  0  0  0  0  0  0
    3.3478    1.8924    0.2520 H   0  0  0  0  0  0  0  0  0  0  0  0
    4.9568    2.1605    0.8509 H   0  0  0  0  0  0  0  0  0  0  0  0
    5.0948   -0.4177    1.2897 H   0  0  0  0  0  0  0  0  0  0  0  0
    3.9967    0.4837    2.3344 H   0  0  0  0  0  0  0  0  0  0  0  0
   -2.4201    0.7915    2.8786 H   0  0  0  0  0  0  0  0  0  0  0  0
   -2.4279   -0.7484    2.0563 H   0  0  0  0  0  0  0  0  0  0  0  0
   -2.4166    0.5655   -0.1868 H   0  0  0  0  0  0  0  0  0  0  0  0
   -2.6052    2.0465    0.7631 H   0  0  0  0  0  0  0  0  0  0  0  0
   -4.8178    1.6113    0.8272 H   0  0  0  0  0  0  0  0  0  0  0  0
   -6.2681   -2.1539   -0.9967 H   0  0  0  0  0  0  0  0  0  0  0  0
   -8.6994   -2.3473   -1.1323 H   0  0  0  0  0  0  0  0  0  0  0  0
  -10.8429   -2.7142   -0.1445 H   0  0  0  0  0  0  0  0  0  0  0  0
  -12.1922   -1.5899   -0.3501 H   0  0  0  0  0  0  0  0  0  0  0  0
  -10.9070   -1.5989   -1.5651 H   0  0  0  0  0  0  0  0  0  0  0  0
   -9.1165    0.9224    1.6458 H   0  0  0  0  0  0  0  0  0  0  0  0
   -6.6733    1.1058    1.8081 H   0  0  0  0  0  0  0  0  0  0  0  0
   -1.3296   -1.7047    0.2872 H   0  0  0  0  0  0  0  0  0  0  0  0
   -0.0643   -2.6108    1.1674 H   0  0  0  0  0  0  0  0  0  0  0  0
    0.2799   -1.8565   -0.4282 H   0  0  0  0  0  0  0  0  0  0  0  0
    5.6992    0.4465   -3.1834 H   0  0  0  0  0  0  0  0  0  0  0  0
    8.0673    0.1315   -3.8176 H   0  0  0  0  0  0  0  0  0  0  0  0
  1  2  1  0
  2  3  1  0
  3  4  2  0
  4  5  1  0
  5  6  2  0
  6  7  1  0
  7  8  1  0
  8  9  1  0
  9 10  1  0
 10 11  1  0
 11 12  2  0
 12 13  1  0
 13 14  2  0
 14 15  1  0
 15 16  1  0
 16 17  1  0
 17 18  1  0
 18 19  2  0
 18 20  1  0
 20 21  2  0
 21 22  1  0
 22 23  2  0
 23 24  1  0
 24 25  1  0
 23 26  1  0
 26 27  2  0
 14 28  1  0
 28 29  1  0
  6 30  1  0
 30 31  2  0
 31  3  1  0
 28 11  1  0
 27 20  1  0
  1 32  1  0
  1 33  1  0
  1 34  1  0
  4 35  1  0
  5 36  1  0
  8 37  1  0
  8 38  1  0
  9 39  1  0
  9 40  1  0
 15 41  1  0
 15 42  1  0
 16 43  1  0
 16 44  1  0
 17 45  1  0
 21 46  1  0
 22 47  1  0
 25 48  1  0
 25 49  1  0
 25 50  1  0
 26 51  1  0
 27 52  1  0
 29 53  1  0
 29 54  1  0
 29 55  1  0
 30 56  1  0
 31 57  1  0
M  END
$$$$
