
     RDKit          3D

 36 37  0  0  0  0  0  0  0  0999 V2000
   -2.7096    1.9422    0.8936 C   0  0  0  0  0  0  0  0  0  0  0  0
   -1.7085    0.7928    0.8554 C   0  0  0  0  0  0  0  0  0  0  0  0
   -2.0234   -0.2521   -0.1433 N   0  0  0  0  0  0  0  0  0  0  0  0
   -3.3134   -0.9274    0.1503 C   0  0  0  0  0  0  0  0  0  0  0  0
   -4.4211   -0.3889   -0.7682 C   0  0  0  0  0  0  0  0  0  0  0  0
   -3.9614   -0.3901   -2.1192 O   0  0  0  0  0  0  0  0  0  0  0  0
   -0.9377   -1.2565   -0.2006 C   0  0  0  0  0  0  0  0  0  0  0  0
    0.2927   -0.6722   -0.8447 C   0  0  0  0  0  0  0  0  0  0  0  0
    0.3505   -0.2863   -2.1715 C   0  0  0  0  0  0  0  0  0  0  0  0
    1.8692    0.3304   -2.6212 S   0  0  0  0  0  0  0  0  0  0  0  0
    2.5156    0.0870   -1.0464 C   0  0  0  0  0  0  0  0  0  0  0  0
    3.8278    0.3835   -0.6219 C   0  0  0  0  0  0  0  0  0  0  0  0
    4.2045    0.1155    0.7005 C   0  0  0  0  0  0  0  0  0  0  0  0
    5.5880    0.4564    1.1721 C   0  0  0  0  0  0  0  0  0  0  0  0
    3.2691   -0.4147    1.5842 C   0  0  0  0  0  0  0  0  0  0  0  0
    1.9680   -0.7063    1.1583 C   0  0  0  0  0  0  0  0  0  0  0  0
    1.5655   -0.4606   -0.1797 C   0  0  0  0  0  0  0  0  0  0  0  0
   -2.3319    2.7420    1.5396 H   0  0  0  0  0  0  0  0  0  0  0  0
   -2.8647    2.3657   -0.1041 H   0  0  0  0  0  0  0  0  0  0  0  0
   -3.6751    1.6274    1.2998 H   0  0  0  0  0  0  0  0  0  0  0  0
   -1.6201    0.3569    1.8588 H   0  0  0  0  0  0  0  0  0  0  0  0
   -0.7392    1.2473    0.6216 H   0  0  0  0  0  0  0  0  0  0  0  0
   -3.6023   -0.8501    1.2051 H   0  0  0  0  0  0  0  0  0  0  0  0
   -3.2356   -2.0013   -0.0641 H   0  0  0  0  0  0  0  0  0  0  0  0
   -4.7119    0.6323   -0.5108 H   0  0  0  0  0  0  0  0  0  0  0  0
   -5.3116   -1.0217   -0.7069 H   0  0  0  0  0  0  0  0  0  0  0  0
   -3.0443   -0.0520   -2.0559 H   0  0  0  0  0  0  0  0  0  0  0  0
   -0.7277   -1.6695    0.7925 H   0  0  0  0  0  0  0  0  0  0  0  0
   -1.2402   -2.1015   -0.8349 H   0  0  0  0  0  0  0  0  0  0  0  0
   -0.4468   -0.3348   -2.9010 H   0  0  0  0  0  0  0  0  0  0  0  0
    4.5381    0.8153   -1.3227 H   0  0  0  0  0  0  0  0  0  0  0  0
    5.9044   -0.2172    1.9754 H   0  0  0  0  0  0  0  0  0  0  0  0
    5.6137    1.4858    1.5426 H   0  0  0  0  0  0  0  0  0  0  0  0
    6.3141    0.3542    0.3587 H   0  0  0  0  0  0  0  0  0  0  0  0
    3.5411   -0.6096    2.6196 H   0  0  0  0  0  0  0  0  0  0  0  0
    1.2640   -1.1219    1.8742 H   0  0  0  0  0  0  0  0  0  0  0  0
  1  2  1  0
  2  3  1  0
  3  4  1  0
  4  5  1  0
  5  6  1  0
  3  7  1  0
  7  8  1  0
  8  9  2  0
  9 10  1  0
 10 11  1  0
 11 12  2  0
 12 13  1  0
 13 14  1  0
 13 15  2  0
 15 16  1  0
 16 17  2  0
 17  8  1  0
 17 11  1  0
  1 18  1  0
  1 19  1  0
  1 20  1  0
  2 21  1  0
  2 22  1  0
  4 23  1  0
  4 24  1  0
  5 25  1  0
  5 26  1  0
  6 27  1  0
  7 28  1  0
  7 29  1  0
  9 30  1  0
 12 31  1  0
 14 32  1  0
 14 33  1  0
 14 34  1  0
 15 35  1  0
 16 36  1  0
M  END
$$$$
