
     RDKit          3D

 37 39  0  0  0  0  0  0  0  0999 V2000
   -7.2358    0.2256    0.9057 C   0  0  0  0  0  0  0  0  0  0  0  0
   -6.5398    1.1954    0.1322 O   0  0  0  0  0  0  0  0  0  0  0  0
   -5.2101    0.9688   -0.0885 C   0  0  0  0  0  0  0  0  0  0  0  0
   -4.4739   -0.1186    0.3728 C   0  0  0  0  0  0  0  0  0  0  0  0
   -3.1100   -0.2228    0.0687 C   0  0  0  0  0  0  0  0  0  0  0  0
   -2.4505    0.7524   -0.6996 C   0  0  0  0  0  0  0  0  0  0  0  0
   -1.0173    0.5775   -0.9793 C   0  0  0  0  0  0  0  0  0  0  0  0
   -0.2916   -0.4582   -0.6052 N   0  0  0  0  0  0  0  0  0  0  0  0
    1.0122   -0.2907   -1.0221 C   0  0  0  0  0  0  0  0  0  0  0  0
    1.9789   -1.2285   -0.7637 N   0  0  0  0  0  0  0  0  0  0  0  0
    1.8060   -2.3529    0.0106 C   0  0  0  0  0  0  0  0  0  0  0  0
    0.7832   -2.6799    0.6084 O   0  0  0  0  0  0  0  0  0  0  0  0
    3.0485   -3.2268    0.0859 C   0  0  0  0  0  0  0  0  0  0  0  0
    4.0656   -2.7799    1.5230 S   0  0  0  0  0  0  0  0  0  0  0  0
    4.7773   -1.2863    0.9679 C   0  0  0  0  0  0  0  0  0  0  0  0
    4.7526   -0.9278   -0.2982 N   0  0  0  0  0  0  0  0  0  0  0  0
    5.3307    0.3056   -0.5017 N   0  0  0  0  0  0  0  0  0  0  0  0
    5.7911    0.8252    0.6178 C   0  0  0  0  0  0  0  0  0  0  0  0
    6.4693    2.1405    0.7311 C   0  0  0  0  0  0  0  0  0  0  0  0
    5.5432   -0.1608    2.0046 S   0  0  0  0  0  0  0  0  0  0  0  0
    1.3332    0.8061   -1.7082 N   0  0  0  0  0  0  0  0  0  0  0  0
   -0.0570    1.7136   -1.8417 S   0  0  0  0  0  0  0  0  0  0  0  0
   -3.2059    1.8410   -1.1576 C   0  0  0  0  0  0  0  0  0  0  0  0
   -4.5693    1.9444   -0.8533 C   0  0  0  0  0  0  0  0  0  0  0  0
   -8.2776    0.5498    0.9890 H   0  0  0  0  0  0  0  0  0  0  0  0
   -7.2297   -0.7517    0.4118 H   0  0  0  0  0  0  0  0  0  0  0  0
   -6.8254    0.1602    1.9188 H   0  0  0  0  0  0  0  0  0  0  0  0
   -4.9214   -0.9056    0.9707 H   0  0  0  0  0  0  0  0  0  0  0  0
   -2.5553   -1.0849    0.4426 H   0  0  0  0  0  0  0  0  0  0  0  0
    2.9008   -0.9644   -1.0978 H   0  0  0  0  0  0  0  0  0  0  0  0
    3.6213   -3.1815   -0.8461 H   0  0  0  0  0  0  0  0  0  0  0  0
    2.7213   -4.2658    0.2008 H   0  0  0  0  0  0  0  0  0  0  0  0
    7.4859    2.0226    1.1195 H   0  0  0  0  0  0  0  0  0  0  0  0
    6.5374    2.6220   -0.2497 H   0  0  0  0  0  0  0  0  0  0  0  0
    5.9140    2.8091    1.3964 H   0  0  0  0  0  0  0  0  0  0  0  0
   -2.7638    2.6306   -1.7589 H   0  0  0  0  0  0  0  0  0  0  0  0
   -5.1380    2.7969   -1.2185 H   0  0  0  0  0  0  0  0  0  0  0  0
  1  2  1  0
  2  3  1  0
  3  4  2  0
  4  5  1  0
  5  6  2  0
  6  7  1  0
  7  8  2  0
  8  9  1  0
  9 10  1  0
 10 11  1  0
 11 12  2  0
 11 13  1  0
 13 14  1  0
 14 15  1  0
 15 16  2  0
 16 17  1  0
 17 18  2  0
 18 19  1  0
 18 20  1  0
  9 21  2  0
 21 22  1  0
  6 23  1  0
 23 24  2  0
 24  3  1  0
 22  7  1  0
 20 15  1  0
  1 25  1  0
  1 26  1  0
  1 27  1  0
  4 28  1  0
  5 29  1  0
 10 30  1  0
 13 31  1  0
 13 32  1  0
 19 33  1  0
 19 34  1  0
 19 35  1  0
 23 36  1  0
 24 37  1  0
M  END
$$$$
