
     RDKit          3D

 43 45  0  0  0  0  0  0  0  0999 V2000
   -0.1203    3.1281    1.7157 C   0  0  0  0  0  0  0  0  0  0  0  0
   -1.1218    2.9914    0.6074 C   0  0  0  0  0  0  0  0  0  0  0  0
   -1.0308    3.5533   -0.4766 O   0  0  0  0  0  0  0  0  0  0  0  0
   -2.1495    2.1584    1.0374 O   0  0  0  0  0  0  0  0  0  0  0  0
   -3.0478    1.8361    0.0134 C   0  0  0  0  0  0  0  0  0  0  0  0
   -4.2447    2.5488   -0.0613 C   0  0  0  0  0  0  0  0  0  0  0  0
   -5.1680    2.2259   -1.0542 C   0  0  0  0  0  0  0  0  0  0  0  0
   -4.8967    1.1909   -1.9520 C   0  0  0  0  0  0  0  0  0  0  0  0
   -3.7019    0.4695   -1.8590 C   0  0  0  0  0  0  0  0  0  0  0  0
   -2.7641    0.7820   -0.8690 C   0  0  0  0  0  0  0  0  0  0  0  0
   -1.5199    0.0189   -0.7419 C   0  0  0  0  0  0  0  0  0  0  0  0
   -0.5701    0.0325   -1.6908 C   0  0  0  0  0  0  0  0  0  0  0  0
    0.7344   -0.6242   -1.5338 C   0  0  0  0  0  0  0  0  0  0  0  0
    1.6633   -0.5921   -2.5626 C   0  0  0  0  0  0  0  0  0  0  0  0
    2.9046   -1.1874   -2.3579 C   0  0  0  0  0  0  0  0  0  0  0  0
    3.1962   -1.7902   -1.1287 C   0  0  0  0  0  0  0  0  0  0  0  0
    4.4430   -2.3981   -0.8822 C   0  0  0  0  0  0  0  0  0  0  0  0
    4.7133   -2.9977    0.3485 C   0  0  0  0  0  0  0  0  0  0  0  0
    3.7449   -2.9886    1.3444 C   0  0  0  0  0  0  0  0  0  0  0  0
    2.5199   -2.3656    1.0935 C   0  0  0  0  0  0  0  0  0  0  0  0
    1.5543   -2.4069    2.1117 O   0  0  0  0  0  0  0  0  0  0  0  0
    1.3698   -1.1705    2.7164 C   0  0  0  0  0  0  0  0  0  0  0  0
    0.1476   -1.2369    3.5831 C   0  0  0  0  0  0  0  0  0  0  0  0
    2.0893   -0.1840    2.6212 O   0  0  0  0  0  0  0  0  0  0  0  0
    2.2001   -1.7736   -0.1328 C   0  0  0  0  0  0  0  0  0  0  0  0
    0.9878   -1.2145   -0.3433 N   0  0  0  0  0  0  0  0  0  0  0  0
    0.2492    2.1409    2.0046 H   0  0  0  0  0  0  0  0  0  0  0  0
    0.7273    3.7243    1.3661 H   0  0  0  0  0  0  0  0  0  0  0  0
   -0.5790    3.6333    2.5691 H   0  0  0  0  0  0  0  0  0  0  0  0
   -4.4517    3.3518    0.6391 H   0  0  0  0  0  0  0  0  0  0  0  0
   -6.0998    2.7805   -1.1304 H   0  0  0  0  0  0  0  0  0  0  0  0
   -5.6195    0.9412   -2.7249 H   0  0  0  0  0  0  0  0  0  0  0  0
   -3.5137   -0.3420   -2.5579 H   0  0  0  0  0  0  0  0  0  0  0  0
   -1.3735   -0.4985    0.2027 H   0  0  0  0  0  0  0  0  0  0  0  0
   -0.7238    0.5903   -2.6102 H   0  0  0  0  0  0  0  0  0  0  0  0
    1.4408   -0.1082   -3.5076 H   0  0  0  0  0  0  0  0  0  0  0  0
    3.6416   -1.1683   -3.1567 H   0  0  0  0  0  0  0  0  0  0  0  0
    5.2111   -2.4080   -1.6529 H   0  0  0  0  0  0  0  0  0  0  0  0
    5.6773   -3.4673    0.5272 H   0  0  0  0  0  0  0  0  0  0  0  0
    3.9392   -3.4515    2.3069 H   0  0  0  0  0  0  0  0  0  0  0  0
    0.3202   -1.9239    4.4150 H   0  0  0  0  0  0  0  0  0  0  0  0
   -0.0668   -0.2414    3.9825 H   0  0  0  0  0  0  0  0  0  0  0  0
   -0.7117   -1.5584    2.9887 H   0  0  0  0  0  0  0  0  0  0  0  0
  1  2  1  0
  2  3  2  0
  2  4  1  0
  4  5  1  0
  5  6  2  0
  6  7  1  0
  7  8  2  0
  8  9  1  0
  9 10  2  0
 10 11  1  0
 11 12  2  0
 12 13  1  0
 13 14  2  0
 14 15  1  0
 15 16  2  0
 16 17  1  0
 17 18  2  0
 18 19  1  0
 19 20  2  0
 20 21  1  0
 21 22  1  0
 22 23  1  0
 22 24  2  0
 20 25  1  0
 25 26  2  0
 10  5  1  0
 26 13  1  0
 25 16  1  0
  1 27  1  0
  1 28  1  0
  1 29  1  0
  6 30  1  0
  7 31  1  0
  8 32  1  0
  9 33  1  0
 11 34  1  0
 12 35  1  0
 14 36  1  0
 15 37  1  0
 17 38  1  0
 18 39  1  0
 19 40  1  0
 23 41  1  0
 23 42  1  0
 23 43  1  0
M  END
$$$$
