
     RDKit          3D

 29 30  0  0  0  0  0  0  0  0999 V2000
    2.3530    2.9533   -0.2162 C   0  0  0  0  0  0  0  0  0  0  0  0
    2.4561    1.4741   -0.3162 C   0  0  0  0  0  0  0  0  0  0  0  0
    3.6415    0.9056   -0.5742 N   0  0  0  0  0  0  0  0  0  0  0  0
    3.3769   -0.4069   -0.5946 N   0  0  0  0  0  0  0  0  0  0  0  0
    4.4476   -1.3398   -0.8503 C   0  0  0  0  0  0  0  0  0  0  0  0
    2.0658   -0.7024   -0.3593 C   0  0  0  0  0  0  0  0  0  0  0  0
    1.4157    0.5066   -0.1692 C   0  0  0  0  0  0  0  0  0  0  0  0
    0.0026    0.7659    0.1157 C   0  0  0  0  0  0  0  0  0  0  0  0
   -0.4055    1.9129    0.2561 O   0  0  0  0  0  0  0  0  0  0  0  0
   -0.7763   -0.3718    0.2033 N   0  0  0  0  0  0  0  0  0  0  0  0
   -2.1634   -0.4738    0.4636 C   0  0  0  0  0  0  0  0  0  0  0  0
   -2.9880    0.6333    0.6817 C   0  0  0  0  0  0  0  0  0  0  0  0
   -4.3547    0.4674    0.9346 C   0  0  0  0  0  0  0  0  0  0  0  0
   -4.9155   -0.8065    0.9731 C   0  0  0  0  0  0  0  0  0  0  0  0
   -4.1106   -1.9221    0.7583 C   0  0  0  0  0  0  0  0  0  0  0  0
   -2.7453   -1.7560    0.5057 C   0  0  0  0  0  0  0  0  0  0  0  0
   -1.7043   -3.3254    0.2211 Br  0  0  0  0  0  0  0  0  0  0  0  0
    1.6596    3.3406   -0.9694 H   0  0  0  0  0  0  0  0  0  0  0  0
    3.3236    3.4347   -0.3762 H   0  0  0  0  0  0  0  0  0  0  0  0
    1.9940    3.2460    0.7755 H   0  0  0  0  0  0  0  0  0  0  0  0
    5.2053   -1.2166   -0.0724 H   0  0  0  0  0  0  0  0  0  0  0  0
    4.0546   -2.3592   -0.8302 H   0  0  0  0  0  0  0  0  0  0  0  0
    4.8674   -1.1211   -1.8354 H   0  0  0  0  0  0  0  0  0  0  0  0
    1.7273   -1.7280   -0.3500 H   0  0  0  0  0  0  0  0  0  0  0  0
   -0.3126   -1.2591    0.0664 H   0  0  0  0  0  0  0  0  0  0  0  0
   -2.6031    1.6482    0.6629 H   0  0  0  0  0  0  0  0  0  0  0  0
   -4.9795    1.3422    1.1018 H   0  0  0  0  0  0  0  0  0  0  0  0
   -5.9777   -0.9282    1.1701 H   0  0  0  0  0  0  0  0  0  0  0  0
   -4.5544   -2.9138    0.7897 H   0  0  0  0  0  0  0  0  0  0  0  0
  1  2  1  0
  2  3  2  0
  3  4  1  0
  4  5  1  0
  4  6  1  0
  6  7  2  0
  7  8  1  0
  8  9  2  0
  8 10  1  0
 10 11  1  0
 11 12  2  0
 12 13  1  0
 13 14  2  0
 14 15  1  0
 15 16  2  0
 16 17  1  0
  7  2  1  0
 16 11  1  0
  1 18  1  0
  1 19  1  0
  1 20  1  0
  5 21  1  0
  5 22  1  0
  5 23  1  0
  6 24  1  0
 10 25  1  0
 12 26  1  0
 13 27  1  0
 14 28  1  0
 15 29  1  0
M  END
$$$$
