
     RDKit          3D

 36 37  0  0  0  0  0  0  0  0999 V2000
    6.1911    0.6170    2.1228 C   0  0  0  0  0  0  0  0  0  0  0  0
    4.8741    0.2350    1.7240 O   0  0  0  0  0  0  0  0  0  0  0  0
    4.5645    0.5768    0.4479 C   0  0  0  0  0  0  0  0  0  0  0  0
    5.3020    1.1575   -0.3333 O   0  0  0  0  0  0  0  0  0  0  0  0
    3.1807    0.1468    0.1081 C   0  0  0  0  0  0  0  0  0  0  0  0
    2.3552   -0.5232    1.0187 C   0  0  0  0  0  0  0  0  0  0  0  0
    1.0608   -0.9054    0.6483 C   0  0  0  0  0  0  0  0  0  0  0  0
    0.5620   -0.6203   -0.6327 C   0  0  0  0  0  0  0  0  0  0  0  0
   -0.8334   -1.0493   -1.0651 C   0  0  0  0  0  0  0  0  0  0  0  0
   -1.6179   -1.4765    0.0554 O   0  0  0  0  0  0  0  0  0  0  0  0
   -3.0056   -1.4191   -0.2578 C   0  0  0  0  0  0  0  0  0  0  0  0
   -3.4273    0.0513   -0.4184 C   0  0  0  0  0  0  0  0  0  0  0  0
   -4.6294    0.1259   -1.3723 C   0  0  0  0  0  0  0  0  0  0  0  0
   -3.8308    0.6514    0.9373 C   0  0  0  0  0  0  0  0  0  0  0  0
   -2.2352    0.8442   -0.9815 C   0  0  0  0  0  0  0  0  0  0  0  0
   -1.4608   -0.0053   -1.8242 O   0  0  0  0  0  0  0  0  0  0  0  0
    1.4040    0.0423   -1.5420 C   0  0  0  0  0  0  0  0  0  0  0  0
    2.6975    0.4259   -1.1755 C   0  0  0  0  0  0  0  0  0  0  0  0
    6.9403    0.1212    1.4975 H   0  0  0  0  0  0  0  0  0  0  0  0
    6.3052    1.7047    2.0775 H   0  0  0  0  0  0  0  0  0  0  0  0
    6.3377    0.2966    3.1580 H   0  0  0  0  0  0  0  0  0  0  0  0
    2.7027   -0.7581    2.0217 H   0  0  0  0  0  0  0  0  0  0  0  0
    0.4409   -1.4296    1.3740 H   0  0  0  0  0  0  0  0  0  0  0  0
   -0.7158   -1.9101   -1.7346 H   0  0  0  0  0  0  0  0  0  0  0  0
   -3.1893   -2.0089   -1.1653 H   0  0  0  0  0  0  0  0  0  0  0  0
   -3.5593   -1.9048    0.5531 H   0  0  0  0  0  0  0  0  0  0  0  0
   -4.3703   -0.2529   -2.3674 H   0  0  0  0  0  0  0  0  0  0  0  0
   -5.4696   -0.4684   -0.9958 H   0  0  0  0  0  0  0  0  0  0  0  0
   -4.9773    1.1581   -1.4913 H   0  0  0  0  0  0  0  0  0  0  0  0
   -3.0130    0.5775    1.6631 H   0  0  0  0  0  0  0  0  0  0  0  0
   -4.0956    1.7100    0.8374 H   0  0  0  0  0  0  0  0  0  0  0  0
   -4.6965    0.1291    1.3599 H   0  0  0  0  0  0  0  0  0  0  0  0
   -2.5736    1.6979   -1.5789 H   0  0  0  0  0  0  0  0  0  0  0  0
   -1.5924    1.2497   -0.1898 H   0  0  0  0  0  0  0  0  0  0  0  0
    1.0488    0.2694   -2.5464 H   0  0  0  0  0  0  0  0  0  0  0  0
    3.3255    0.9436   -1.8984 H   0  0  0  0  0  0  0  0  0  0  0  0
  1  2  1  0
  2  3  1  0
  3  4  2  0
  3  5  1  0
  5  6  2  0
  6  7  1  0
  7  8  2  0
  8  9  1  0
  9 10  1  0
 10 11  1  0
 11 12  1  0
 12 13  1  0
 12 14  1  0
 12 15  1  0
 15 16  1  0
  8 17  1  0
 17 18  2  0
 18  5  1  0
 16  9  1  0
  1 19  1  0
  1 20  1  0
  1 21  1  0
  6 22  1  0
  7 23  1  0
  9 24  1  0
 11 25  1  0
 11 26  1  0
 13 27  1  0
 13 28  1  0
 13 29  1  0
 14 30  1  0
 14 31  1  0
 14 32  1  0
 15 33  1  0
 15 34  1  0
 17 35  1  0
 18 36  1  0
M  END
$$$$
