
     RDKit          3D

 38 39  0  0  0  0  0  0  0  0999 V2000
   -0.2418   -1.6831   -0.0388 O   0  0  0  0  0  0  0  0  0  0  0  0
   -0.1886   -0.6439    0.6049 C   0  0  0  0  0  0  0  0  0  0  0  0
   -1.3887   -0.0079    1.2006 C   0  0  0  0  0  0  0  0  0  0  0  0
   -2.6093   -0.4447    0.8559 C   0  0  0  0  0  0  0  0  0  0  0  0
   -3.8442    0.1156    1.4171 C   0  0  0  0  0  0  0  0  0  0  0  0
   -4.6491   -0.7380    2.1850 C   0  0  0  0  0  0  0  0  0  0  0  0
   -5.8523   -0.2847    2.7401 C   0  0  0  0  0  0  0  0  0  0  0  0
   -6.2786    1.0278    2.5317 C   0  0  0  0  0  0  0  0  0  0  0  0
   -5.5038    1.8945    1.7650 C   0  0  0  0  0  0  0  0  0  0  0  0
   -4.2998    1.4281    1.2198 C   0  0  0  0  0  0  0  0  0  0  0  0
   -3.5385    2.3560    0.4129 N   0  0  0  0  0  4  0  0  0  0  0  0
   -3.9035    2.5135   -0.7589 O   0  0  0  0  0  0  0  0  0  0  0  0
   -2.6007    2.9461    0.9680 O   0  0  0  0  0  1  0  0  0  0  0  0
    0.9623    0.0652    0.8425 N   0  0  0  0  0  0  0  0  0  0  0  0
    2.2348   -0.3572    0.2883 C   0  0  0  0  0  0  0  0  0  0  0  0
    2.3755    0.0177   -1.1891 C   0  0  0  0  0  0  0  0  0  0  0  0
    3.7147   -0.3992   -1.7459 C   0  0  0  0  0  0  0  0  0  0  0  0
    3.9074   -1.7103   -2.2087 C   0  0  0  0  0  0  0  0  0  0  0  0
    5.1489   -2.1059   -2.7075 C   0  0  0  0  0  0  0  0  0  0  0  0
    6.1960   -1.1934   -2.7405 C   0  0  0  0  0  0  0  0  0  0  0  0
    7.3882   -1.5738   -3.2185 F   0  0  0  0  0  0  0  0  0  0  0  0
    6.0261    0.1079   -2.2831 C   0  0  0  0  0  0  0  0  0  0  0  0
    4.7855    0.5064   -1.7834 C   0  0  0  0  0  0  0  0  0  0  0  0
   -1.2394    0.7932    1.9138 H   0  0  0  0  0  0  0  0  0  0  0  0
   -2.7314   -1.2710    0.1565 H   0  0  0  0  0  0  0  0  0  0  0  0
   -4.3452   -1.7693    2.3619 H   0  0  0  0  0  0  0  0  0  0  0  0
   -6.4605   -0.9635    3.3350 H   0  0  0  0  0  0  0  0  0  0  0  0
   -7.2171    1.3692    2.9630 H   0  0  0  0  0  0  0  0  0  0  0  0
   -5.8388    2.9147    1.5922 H   0  0  0  0  0  0  0  0  0  0  0  0
    0.9131    0.9706    1.2909 H   0  0  0  0  0  0  0  0  0  0  0  0
    3.0185    0.1212    0.8862 H   0  0  0  0  0  0  0  0  0  0  0  0
    2.3293   -1.4414    0.4216 H   0  0  0  0  0  0  0  0  0  0  0  0
    2.2427    1.1002   -1.3141 H   0  0  0  0  0  0  0  0  0  0  0  0
    1.5770   -0.4444   -1.7834 H   0  0  0  0  0  0  0  0  0  0  0  0
    3.0887   -2.4277   -2.1827 H   0  0  0  0  0  0  0  0  0  0  0  0
    5.3043   -3.1171   -3.0691 H   0  0  0  0  0  0  0  0  0  0  0  0
    6.8592    0.8022   -2.3192 H   0  0  0  0  0  0  0  0  0  0  0  0
    4.6590    1.5263   -1.4270 H   0  0  0  0  0  0  0  0  0  0  0  0
  1  2  2  0
  2  3  1  0
  3  4  2  3
  4  5  1  0
  5  6  2  0
  6  7  1  0
  7  8  2  0
  8  9  1  0
  9 10  2  0
 10 11  1  0
 11 12  2  0
 11 13  1  0
  2 14  1  0
 14 15  1  0
 15 16  1  0
 16 17  1  0
 17 18  2  0
 18 19  1  0
 19 20  2  0
 20 21  1  0
 20 22  1  0
 22 23  2  0
 10  5  1  0
 23 17  1  0
  3 24  1  0
  4 25  1  0
  6 26  1  0
  7 27  1  0
  8 28  1  0
  9 29  1  0
 14 30  1  0
 15 31  1  0
 15 32  1  0
 16 33  1  0
 16 34  1  0
 18 35  1  0
 19 36  1  0
 22 37  1  0
 23 38  1  0
M  CHG  2  11   1  13  -1
M  END
$$$$
