
     RDKit          3D

 47 48  0  0  0  0  0  0  0  0999 V2000
    1.1848    1.9374    4.7558 C   0  0  0  0  0  0  0  0  0  0  0  0
    2.3265    1.3474    3.9499 C   0  0  0  0  0  0  0  0  0  0  0  0
    1.9507    1.2498    2.5670 O   0  0  0  0  0  0  0  0  0  0  0  0
    2.1854    2.3491    1.8014 C   0  0  0  0  0  0  0  0  0  0  0  0
    2.6922    3.3839    2.2102 O   0  0  0  0  0  0  0  0  0  0  0  0
    1.7480    2.1518    0.3873 C   0  0  0  0  0  0  0  0  0  0  0  0
    2.0218    3.2402   -0.4861 C   0  0  0  0  0  0  0  0  0  0  0  0
    2.2424    4.1100   -1.2234 N   0  0  0  0  0  0  0  0  0  0  0  0
    1.0991    1.0267    0.0158 C   0  0  0  0  0  0  0  0  0  0  0  0
    0.5570    0.5935   -1.2812 C   0  0  0  0  0  0  0  0  0  0  0  0
   -0.3915   -0.3804   -1.3686 C   0  0  0  0  0  0  0  0  0  0  0  0
   -0.9489   -1.0213   -0.2470 N   0  0  0  0  0  0  0  0  0  0  0  0
   -1.9920   -0.3746    0.5807 C   0  0  0  0  0  0  0  0  0  0  0  0
   -1.7947   -0.7093    2.0671 C   0  0  0  0  0  0  0  0  0  0  0  0
   -1.8157   -2.1155    2.3560 O   0  0  0  0  0  0  0  0  0  0  0  0
   -1.3801   -2.9310    1.2573 C   0  0  0  0  0  0  0  0  0  0  0  0
   -0.3562   -2.2368    0.3476 C   0  0  0  0  0  0  0  0  0  0  0  0
   -0.9796   -0.8016   -2.7543 C   0  0  0  0  0  0  0  0  0  0  0  0
   -2.5084   -0.6402   -2.7755 C   0  0  0  0  0  0  0  0  0  0  0  0
   -0.6329   -2.2572   -3.1060 C   0  0  0  0  0  0  0  0  0  0  0  0
   -0.5242    0.0377   -3.8355 O   0  0  0  0  0  0  0  0  0  0  0  0
    0.8588    0.3454   -3.7660 C   0  0  0  0  0  0  0  0  0  0  0  0
    1.1128    1.2120   -2.5445 C   0  0  0  0  0  0  0  0  0  0  0  0
    0.2729    1.3465    4.6198 H   0  0  0  0  0  0  0  0  0  0  0  0
    0.9564    2.9557    4.4252 H   0  0  0  0  0  0  0  0  0  0  0  0
    1.4337    1.9629    5.8204 H   0  0  0  0  0  0  0  0  0  0  0  0
    3.2489    1.9260    4.0746 H   0  0  0  0  0  0  0  0  0  0  0  0
    2.5351    0.3300    4.2966 H   0  0  0  0  0  0  0  0  0  0  0  0
    0.9092    0.2939    0.7963 H   0  0  0  0  0  0  0  0  0  0  0  0
   -1.9806    0.7126    0.4447 H   0  0  0  0  0  0  0  0  0  0  0  0
   -2.9694   -0.7453    0.2521 H   0  0  0  0  0  0  0  0  0  0  0  0
   -2.5821   -0.2401    2.6656 H   0  0  0  0  0  0  0  0  0  0  0  0
   -0.8372   -0.3143    2.4251 H   0  0  0  0  0  0  0  0  0  0  0  0
   -2.2687   -3.2192    0.6833 H   0  0  0  0  0  0  0  0  0  0  0  0
   -0.9514   -3.8457    1.6787 H   0  0  0  0  0  0  0  0  0  0  0  0
    0.5258   -1.9585    0.9351 H   0  0  0  0  0  0  0  0  0  0  0  0
   -0.0329   -2.9314   -0.4333 H   0  0  0  0  0  0  0  0  0  0  0  0
   -3.0104   -1.3307   -2.0903 H   0  0  0  0  0  0  0  0  0  0  0  0
   -2.9046   -0.8202   -3.7823 H   0  0  0  0  0  0  0  0  0  0  0  0
   -2.7964    0.3841   -2.5099 H   0  0  0  0  0  0  0  0  0  0  0  0
   -1.1705   -2.9703   -2.4724 H   0  0  0  0  0  0  0  0  0  0  0  0
    0.4393   -2.4538   -2.9970 H   0  0  0  0  0  0  0  0  0  0  0  0
   -0.8864   -2.4752   -4.1501 H   0  0  0  0  0  0  0  0  0  0  0  0
    1.4633   -0.5684   -3.7547 H   0  0  0  0  0  0  0  0  0  0  0  0
    1.1265    0.8978   -4.6728 H   0  0  0  0  0  0  0  0  0  0  0  0
    2.1953    1.3619   -2.4679 H   0  0  0  0  0  0  0  0  0  0  0  0
    0.6292    2.1847   -2.6947 H   0  0  0  0  0  0  0  0  0  0  0  0
  1  2  1  0
  2  3  1  0
  3  4  1  0
  4  5  2  0
  4  6  1  0
  6  7  1  0
  7  8  3  0
  6  9  2  3
  9 10  1  0
 10 11  2  0
 11 12  1  0
 12 13  1  0
 13 14  1  0
 14 15  1  0
 15 16  1  0
 16 17  1  0
 11 18  1  0
 18 19  1  0
 18 20  1  0
 18 21  1  0
 21 22  1  0
 22 23  1  0
 23 10  1  0
 17 12  1  0
  1 24  1  0
  1 25  1  0
  1 26  1  0
  2 27  1  0
  2 28  1  0
  9 29  1  0
 13 30  1  0
 13 31  1  0
 14 32  1  0
 14 33  1  0
 16 34  1  0
 16 35  1  0
 17 36  1  0
 17 37  1  0
 19 38  1  0
 19 39  1  0
 19 40  1  0
 20 41  1  0
 20 42  1  0
 20 43  1  0
 22 44  1  0
 22 45  1  0
 23 46  1  0
 23 47  1  0
M  END
$$$$
