
     RDKit          3D

 29 29  0  0  0  0  0  0  0  0999 V2000
   -4.7973   -3.3747   -0.4130 C   0  0  0  0  0  0  0  0  0  0  0  0
   -4.2458   -2.3421   -0.1437 C   0  0  0  0  0  0  0  0  0  0  0  0
   -3.5696   -1.0804    0.1852 C   0  0  0  0  0  0  0  0  0  0  0  0
   -2.5035   -0.8380   -0.7758 N   0  0  0  0  0  0  0  0  0  0  0  0
   -1.8102    0.4318   -0.5817 C   0  0  0  0  0  0  0  0  0  0  0  0
   -1.0283    0.5893    0.7297 C   0  0  0  0  0  0  0  0  0  0  0  0
    0.0497   -0.4705    0.9573 C   0  0  0  0  0  0  0  0  0  0  0  0
    0.9332   -0.5840   -0.1547 O   0  0  0  0  0  0  0  0  0  0  0  0
    2.0220    0.2380   -0.2559 C   0  0  0  0  0  0  0  0  0  0  0  0
    2.3522    1.2473    0.6535 C   0  0  0  0  0  0  0  0  0  0  0  0
    3.4910    2.0363    0.4537 C   0  0  0  0  0  0  0  0  0  0  0  0
    4.3045    1.8212   -0.6560 C   0  0  0  0  0  0  0  0  0  0  0  0
    5.7011    2.7968   -0.8918 Cl  0  0  0  0  0  0  0  0  0  0  0  0
    3.9931    0.8244   -1.5730 C   0  0  0  0  0  0  0  0  0  0  0  0
    2.8560    0.0380   -1.3718 C   0  0  0  0  0  0  0  0  0  0  0  0
    2.5100   -1.1889   -2.5427 Cl  0  0  0  0  0  0  0  0  0  0  0  0
   -5.2845   -4.2888   -0.6624 H   0  0  0  0  0  0  0  0  0  0  0  0
   -4.2987   -0.2628    0.1588 H   0  0  0  0  0  0  0  0  0  0  0  0
   -3.1740   -1.1475    1.2041 H   0  0  0  0  0  0  0  0  0  0  0  0
   -1.8426   -1.6137   -0.7692 H   0  0  0  0  0  0  0  0  0  0  0  0
   -2.5331    1.2531   -0.6635 H   0  0  0  0  0  0  0  0  0  0  0  0
   -1.1215    0.5661   -1.4244 H   0  0  0  0  0  0  0  0  0  0  0  0
   -0.5602    1.5805    0.7081 H   0  0  0  0  0  0  0  0  0  0  0  0
   -1.7139    0.5942    1.5846 H   0  0  0  0  0  0  0  0  0  0  0  0
    0.5888   -0.3076    1.8974 H   0  0  0  0  0  0  0  0  0  0  0  0
   -0.4292   -1.4497    1.0722 H   0  0  0  0  0  0  0  0  0  0  0  0
    1.7473    1.4554    1.5295 H   0  0  0  0  0  0  0  0  0  0  0  0
    3.7355    2.8179    1.1693 H   0  0  0  0  0  0  0  0  0  0  0  0
    4.6278    0.6583   -2.4389 H   0  0  0  0  0  0  0  0  0  0  0  0
  1  2  3  0
  2  3  1  0
  3  4  1  0
  4  5  1  0
  5  6  1  0
  6  7  1  0
  7  8  1  0
  8  9  1  0
  9 10  2  0
 10 11  1  0
 11 12  2  0
 12 13  1  0
 12 14  1  0
 14 15  2  0
 15 16  1  0
 15  9  1  0
  1 17  1  0
  3 18  1  0
  3 19  1  0
  4 20  1  0
  5 21  1  0
  5 22  1  0
  6 23  1  0
  6 24  1  0
  7 25  1  0
  7 26  1  0
 10 27  1  0
 11 28  1  0
 14 29  1  0
M  END
$$$$
