
     RDKit          3D

 32 34  0  0  0  0  0  0  0  0999 V2000
    5.0598   -2.2501    2.0403 C   0  0  0  0  0  0  0  0  0  0  0  0
    4.6573   -1.2562    1.0141 C   0  0  0  0  0  0  0  0  0  0  0  0
    5.4928   -0.5475    0.1728 C   0  0  0  0  0  0  0  0  0  0  0  0
    4.5662    0.4794   -0.8367 S   0  0  0  0  0  0  0  0  0  0  0  0
    3.1428   -0.0829   -0.0919 C   0  0  0  0  0  0  0  0  0  0  0  0
    1.8937    0.3532   -0.4354 N   0  0  0  0  0  0  0  0  0  0  0  0
    1.5534    1.2827   -1.3891 C   0  0  0  0  0  0  0  0  0  0  0  0
    2.3267    1.9008   -2.1119 O   0  0  0  0  0  0  0  0  0  0  0  0
    0.1165    1.4823   -1.4697 C   0  0  0  0  0  0  0  0  0  0  0  0
   -0.6440    2.3368   -2.2437 C   0  0  0  0  0  0  0  0  0  0  0  0
   -1.9974    2.1042   -1.8974 C   0  0  0  0  0  0  0  0  0  0  0  0
   -1.9922    1.1273   -0.9221 C   0  0  0  0  0  0  0  0  0  0  0  0
   -3.0369    0.4302   -0.1810 C   0  0  0  0  0  0  0  0  0  0  0  0
   -4.1784    0.0030   -0.8840 C   0  0  0  0  0  0  0  0  0  0  0  0
   -5.2118   -0.6778   -0.2343 C   0  0  0  0  0  0  0  0  0  0  0  0
   -5.1178   -0.9357    1.1294 C   0  0  0  0  0  0  0  0  0  0  0  0
   -6.3896   -1.7726    1.9294 Cl  0  0  0  0  0  0  0  0  0  0  0  0
   -4.0040   -0.5163    1.8503 C   0  0  0  0  0  0  0  0  0  0  0  0
   -2.9678    0.1661    1.2006 C   0  0  0  0  0  0  0  0  0  0  0  0
   -1.6481    0.6952    2.1909 Cl  0  0  0  0  0  0  0  0  0  0  0  0
   -0.7107    0.7314   -0.6762 O   0  0  0  0  0  0  0  0  0  0  0  0
    3.3086   -0.9815    0.8510 N   0  0  0  0  0  0  0  0  0  0  0  0
    6.1468   -2.3731    2.0739 H   0  0  0  0  0  0  0  0  0  0  0  0
    4.6120   -3.2240    1.8195 H   0  0  0  0  0  0  0  0  0  0  0  0
    4.7213   -1.9295    3.0305 H   0  0  0  0  0  0  0  0  0  0  0  0
    6.5704   -0.5813    0.1037 H   0  0  0  0  0  0  0  0  0  0  0  0
    1.1455   -0.0695    0.0996 H   0  0  0  0  0  0  0  0  0  0  0  0
   -0.2546    3.0414   -2.9667 H   0  0  0  0  0  0  0  0  0  0  0  0
   -2.8698    2.5974   -2.3036 H   0  0  0  0  0  0  0  0  0  0  0  0
   -4.2660    0.1847   -1.9542 H   0  0  0  0  0  0  0  0  0  0  0  0
   -6.0817   -1.0048   -0.7991 H   0  0  0  0  0  0  0  0  0  0  0  0
   -3.9431   -0.7135    2.9177 H   0  0  0  0  0  0  0  0  0  0  0  0
  1  2  1  0
  2  3  2  0
  3  4  1  0
  4  5  1  0
  5  6  1  0
  6  7  1  0
  7  8  2  0
  7  9  1  0
  9 10  2  0
 10 11  1  0
 11 12  2  0
 12 13  1  0
 13 14  2  0
 14 15  1  0
 15 16  2  0
 16 17  1  0
 16 18  1  0
 18 19  2  0
 19 20  1  0
 12 21  1  0
  5 22  2  0
 22  2  1  0
 21  9  1  0
 19 13  1  0
  1 23  1  0
  1 24  1  0
  1 25  1  0
  3 26  1  0
  6 27  1  0
 10 28  1  0
 11 29  1  0
 14 30  1  0
 15 31  1  0
 18 32  1  0
M  END
$$$$
