
     RDKit          3D

 58 62  0  0  0  0  0  0  0  0999 V2000
    8.1161    1.5857    1.7997 C   0  0  0  0  0  0  0  0  0  0  0  0
    7.2181    2.1468    0.8560 O   0  0  0  0  0  0  0  0  0  0  0  0
    5.9011    1.7824    0.9398 C   0  0  0  0  0  0  0  0  0  0  0  0
    5.4441    0.6713    1.6512 C   0  0  0  0  0  0  0  0  0  0  0  0
    4.0838    0.3666    1.6707 C   0  0  0  0  0  0  0  0  0  0  0  0
    3.1549    1.1587    0.9800 C   0  0  0  0  0  0  0  0  0  0  0  0
    1.7373    0.8126    1.0439 C   0  0  0  0  0  0  0  0  0  0  0  0
    1.1369   -0.0958    1.7887 N   0  0  0  0  0  0  0  0  0  0  0  0
   -0.1951   -0.0045    1.4447 C   0  0  0  0  0  0  0  0  0  0  0  0
   -1.2027   -0.8807    2.0923 C   0  0  0  0  0  0  0  0  0  0  0  0
   -1.7507   -1.8427    1.1514 N   0  0  0  0  0  0  0  0  0  0  0  0
   -3.0449   -1.9311    0.6949 C   0  0  0  0  0  0  0  0  0  0  0  0
   -4.2884   -0.8134    1.1480 S   0  0  0  0  0  0  0  0  0  0  0  0
   -5.6482   -1.2746    0.0425 C   0  0  0  0  0  0  0  0  0  0  0  0
   -5.5791   -0.5702   -1.2821 C   0  0  0  0  0  0  0  0  0  0  0  0
   -4.9410   -1.1713   -2.3803 C   0  0  0  0  0  0  0  0  0  0  0  0
   -4.8972   -0.5315   -3.6246 C   0  0  0  0  0  0  0  0  0  0  0  0
   -5.4789    0.7227   -3.7831 C   0  0  0  0  0  0  0  0  0  0  0  0
   -6.0913    1.3303   -2.6953 C   0  0  0  0  0  0  0  0  0  0  0  0
   -6.6551    2.5389   -2.8504 F   0  0  0  0  0  0  0  0  0  0  0  0
   -6.1462    0.6993   -1.4486 C   0  0  0  0  0  0  0  0  0  0  0  0
   -3.2055   -2.9494   -0.1109 N   0  0  0  0  0  0  0  0  0  0  0  0
   -1.9859   -3.5731   -0.1691 C   0  0  0  0  0  0  0  0  0  0  0  0
   -1.6108   -4.7208   -0.8682 C   0  0  0  0  0  0  0  0  0  0  0  0
   -0.2939   -5.1157   -0.7101 C   0  0  0  0  0  0  0  0  0  0  0  0
    0.6186   -4.4733    0.0554 N   0  0  0  0  0  0  0  0  0  0  0  0
    0.2541   -3.3557    0.7282 C   0  0  0  0  0  0  0  0  0  0  0  0
   -1.0542   -2.9075    0.6139 C   0  0  0  0  0  0  0  0  0  0  0  0
   -0.3471    0.9717    0.4799 C   0  0  0  0  0  0  0  0  0  0  0  0
   -1.4832    1.5115   -0.2861 C   0  0  0  0  0  0  0  0  0  0  0  0
    0.8873    1.5017    0.2225 O   0  0  0  0  0  0  0  0  0  0  0  0
    3.6193    2.2686    0.2612 C   0  0  0  0  0  0  0  0  0  0  0  0
    4.9825    2.5837    0.2306 C   0  0  0  0  0  0  0  0  0  0  0  0
    5.5101    3.6600   -0.4356 O   0  0  0  0  0  0  0  0  0  0  0  0
    4.6451    4.3847   -1.3023 C   0  0  0  0  0  0  0  0  0  0  0  0
    9.0796    2.0953    1.6996 H   0  0  0  0  0  0  0  0  0  0  0  0
    8.2862    0.5256    1.5928 H   0  0  0  0  0  0  0  0  0  0  0  0
    7.7630    1.7382    2.8264 H   0  0  0  0  0  0  0  0  0  0  0  0
    6.1166    0.0181    2.1948 H   0  0  0  0  0  0  0  0  0  0  0  0
    3.7469   -0.5040    2.2283 H   0  0  0  0  0  0  0  0  0  0  0  0
   -1.9997   -0.2775    2.5336 H   0  0  0  0  0  0  0  0  0  0  0  0
   -0.7514   -1.4582    2.9076 H   0  0  0  0  0  0  0  0  0  0  0  0
   -5.7156   -2.3558   -0.0944 H   0  0  0  0  0  0  0  0  0  0  0  0
   -6.5824   -0.9887    0.5393 H   0  0  0  0  0  0  0  0  0  0  0  0
   -4.4813   -2.1557   -2.2720 H   0  0  0  0  0  0  0  0  0  0  0  0
   -4.4163   -1.0245   -4.4625 H   0  0  0  0  0  0  0  0  0  0  0  0
   -5.4612    1.2251   -4.7450 H   0  0  0  0  0  0  0  0  0  0  0  0
   -6.6407    1.2063   -0.6313 H   0  0  0  0  0  0  0  0  0  0  0  0
   -2.3056   -5.2678   -1.4849 H   0  0  0  0  0  0  0  0  0  0  0  0
    0.0768   -6.0034   -1.2161 H   0  0  0  0  0  0  0  0  0  0  0  0
    1.0112   -2.8788    1.3337 H   0  0  0  0  0  0  0  0  0  0  0  0
   -1.8287    0.7777   -1.0238 H   0  0  0  0  0  0  0  0  0  0  0  0
   -2.3167    1.7527    0.3797 H   0  0  0  0  0  0  0  0  0  0  0  0
   -1.2027    2.4237   -0.8175 H   0  0  0  0  0  0  0  0  0  0  0  0
    2.8960    2.8840   -0.2634 H   0  0  0  0  0  0  0  0  0  0  0  0
    5.2412    5.1307   -1.8201 H   0  0  0  0  0  0  0  0  0  0  0  0
    4.1988    3.7333   -2.0542 H   0  0  0  0  0  0  0  0  0  0  0  0
    3.8761    4.9177   -0.7376 H   0  0  0  0  0  0  0  0  0  0  0  0
  1  2  1  0
  2  3  1  0
  3  4  2  0
  4  5  1  0
  5  6  2  0
  6  7  1  0
  7  8  2  0
  8  9  1  0
  9 10  1  0
 10 11  1  0
 11 12  1  0
 12 13  1  0
 13 14  1  0
 14 15  1  0
 15 16  2  0
 16 17  1  0
 17 18  2  0
 18 19  1  0
 19 20  1  0
 19 21  2  0
 12 22  2  0
 22 23  1  0
 23 24  2  0
 24 25  1  0
 25 26  2  0
 26 27  1  0
 27 28  2  0
  9 29  2  0
 29 30  1  0
 29 31  1  0
  6 32  1  0
 32 33  2  0
 33 34  1  0
 34 35  1  0
 33  3  1  0
 31  7  1  0
 28 11  1  0
 21 15  1  0
 28 23  1  0
  1 36  1  0
  1 37  1  0
  1 38  1  0
  4 39  1  0
  5 40  1  0
 10 41  1  0
 10 42  1  0
 14 43  1  0
 14 44  1  0
 16 45  1  0
 17 46  1  0
 18 47  1  0
 21 48  1  0
 24 49  1  0
 25 50  1  0
 27 51  1  0
 30 52  1  0
 30 53  1  0
 30 54  1  0
 32 55  1  0
 35 56  1  0
 35 57  1  0
 35 58  1  0
M  END
$$$$
