
     RDKit          3D

 39 41  0  0  0  0  0  0  0  0999 V2000
   -4.7648    1.2035   -2.3600 C   0  0  0  0  0  0  0  0  0  0  0  0
   -4.2369    0.9339   -0.9809 C   0  0  0  0  0  0  0  0  0  0  0  0
   -5.1025    0.9433    0.1165 C   0  0  0  0  0  0  0  0  0  0  0  0
   -4.6345    0.7243    1.4160 C   0  0  0  0  0  0  0  0  0  0  0  0
   -3.2631    0.5068    1.5850 C   0  0  0  0  0  0  0  0  0  0  0  0
   -2.5419    0.2714    2.7306 N   0  0  0  0  0  0  0  0  0  0  0  0
   -1.2013    0.1353    2.4488 C   0  0  0  0  0  0  0  0  0  0  0  0
   -0.2239   -0.0708    3.5493 C   0  0  0  0  0  0  0  0  0  0  0  0
   -1.0633    0.2533    1.0756 C   0  0  0  0  0  0  0  0  0  0  0  0
    0.1488    0.1825    0.3184 C   0  0  0  0  0  0  0  0  0  0  0  0
    1.1928   -0.6223    0.5786 C   0  0  0  0  0  0  0  0  0  0  0  0
    2.4082   -0.6741   -0.2402 C   0  0  0  0  0  0  0  0  0  0  0  0
    2.3656   -0.6771   -1.6337 C   0  0  0  0  0  0  0  0  0  0  0  0
    3.5485   -0.7568   -2.3597 C   0  0  0  0  0  0  0  0  0  0  0  0
    4.7405   -0.8346   -1.7275 N   0  0  0  0  0  4  0  0  0  0  0  0
    5.9796   -0.9267   -2.5183 C   0  0  0  0  0  0  0  0  0  0  0  0
    4.8053   -0.8568   -0.3776 C   0  0  0  0  0  0  0  0  0  0  0  0
    3.6472   -0.7815    0.3883 C   0  0  0  0  0  0  0  0  0  0  0  0
   -2.3610    0.5052    0.5241 C   0  0  0  0  0  0  0  0  0  0  0  0
   -2.8614    0.7267   -0.7790 C   0  0  0  0  0  0  0  0  0  0  0  0
   -5.7909    0.8355   -2.4646 H   0  0  0  0  0  0  0  0  0  0  0  0
   -4.1591    0.6938   -3.1167 H   0  0  0  0  0  0  0  0  0  0  0  0
   -4.7515    2.2790   -2.5617 H   0  0  0  0  0  0  0  0  0  0  0  0
   -6.1663    1.1224   -0.0315 H   0  0  0  0  0  0  0  0  0  0  0  0
   -5.3185    0.7287    2.2588 H   0  0  0  0  0  0  0  0  0  0  0  0
   -2.9491    0.2303    3.6549 H   0  0  0  0  0  0  0  0  0  0  0  0
    0.0327   -1.1311    3.6369 H   0  0  0  0  0  0  0  0  0  0  0  0
    0.6937    0.4982    3.3696 H   0  0  0  0  0  0  0  0  0  0  0  0
   -0.6306    0.2590    4.5113 H   0  0  0  0  0  0  0  0  0  0  0  0
    0.1827    0.8334   -0.5527 H   0  0  0  0  0  0  0  0  0  0  0  0
    1.1668   -1.2890    1.4372 H   0  0  0  0  0  0  0  0  0  0  0  0
    1.4160   -0.6313   -2.1638 H   0  0  0  0  0  0  0  0  0  0  0  0
    3.5506   -0.7655   -3.4462 H   0  0  0  0  0  0  0  0  0  0  0  0
    6.1741   -1.9866   -2.6994 H   0  0  0  0  0  0  0  0  0  0  0  0
    6.7984   -0.4704   -1.9560 H   0  0  0  0  0  0  0  0  0  0  0  0
    5.8442   -0.3884   -3.4600 H   0  0  0  0  0  0  0  0  0  0  0  0
    5.7871   -0.9379    0.0804 H   0  0  0  0  0  0  0  0  0  0  0  0
    3.7198   -0.7986    1.4744 H   0  0  0  0  0  0  0  0  0  0  0  0
   -2.1819    0.7333   -1.6255 H   0  0  0  0  0  0  0  0  0  0  0  0
  1  2  1  0
  2  3  2  0
  3  4  1  0
  4  5  2  0
  5  6  1  0
  6  7  1  0
  7  8  1  0
  7  9  2  0
  9 10  1  0
 10 11  2  3
 11 12  1  0
 12 13  2  0
 13 14  1  0
 14 15  2  0
 15 16  1  0
 15 17  1  0
 17 18  2  0
  9 19  1  0
 19 20  2  0
 20  2  1  0
 19  5  1  0
 18 12  1  0
  1 21  1  0
  1 22  1  0
  1 23  1  0
  3 24  1  0
  4 25  1  0
  6 26  1  0
  8 27  1  0
  8 28  1  0
  8 29  1  0
 10 30  1  0
 11 31  1  0
 13 32  1  0
 14 33  1  0
 16 34  1  0
 16 35  1  0
 16 36  1  0
 17 37  1  0
 18 38  1  0
 20 39  1  0
M  CHG  1  15   1
M  END
$$$$
