
     RDKit          3D

130132  0  0  0  0  0  0  0  0999 V2000
    2.1021    5.9258   -1.4686 C   0  0  0  0  0  0  0  0  0  0  0  0
    2.4656    4.6370   -0.7395 C   0  0  0  0  0  0  0  0  0  0  0  0
    1.3734    4.1662    0.2424 C   0  0  0  0  0  0  0  0  0  0  0  0
    1.1919    5.1495    1.3784 C   0  0  0  0  0  0  0  0  0  0  0  0
    0.1134    5.9070    1.6396 C   0  0  0  0  0  0  0  0  0  0  0  0
   -1.0997    6.0024    0.8623 C   0  0  0  0  0  0  0  0  0  0  0  0
   -2.0079    5.0423    0.6224 C   0  0  0  0  0  0  0  0  0  0  0  0
   -2.0053    3.6131    1.0935 C   0  0  0  0  0  0  0  0  0  0  0  0
   -3.3080    3.2049    1.8272 C   0  0  0  0  0  0  0  0  0  0  0  0
   -3.3881    3.9668    3.1618 C   0  0  0  0  0  0  0  0  0  0  0  0
   -3.3375    1.6578    1.9841 C   0  0  0  0  0  0  0  0  0  0  0  0
   -2.5185    1.2781    3.1068 O   0  0  0  0  0  0  0  0  0  0  0  0
   -4.7262    0.9576    2.1092 C   0  0  0  0  0  0  0  0  0  0  0  0
   -5.7205    1.6294    3.0532 C   0  0  0  0  0  0  0  0  0  0  0  0
   -4.4529   -0.3753    2.6248 O   0  0  0  0  0  0  0  0  0  0  0  0
   -5.3899    0.8551    0.7106 C   0  0  0  0  0  0  0  0  0  0  0  0
   -5.4279    1.8192   -0.0586 O   0  0  0  0  0  0  0  0  0  0  0  0
   -6.0453   -0.4745    0.3282 C   0  0  0  0  0  0  0  0  0  0  0  0
   -7.3420   -0.1882   -0.4347 C   0  0  0  0  0  0  0  0  0  0  0  0
   -5.0350   -1.3177   -0.4848 C   0  0  0  0  0  0  0  0  0  0  0  0
   -3.8614   -1.5884    0.2874 O   0  0  0  0  0  0  0  0  0  0  0  0
   -5.5922   -2.6573   -1.0157 C   0  0  0  0  0  0  0  0  0  0  0  0
   -6.0782   -3.5681    0.1241 C   0  0  0  0  0  0  0  0  0  0  0  0
   -4.6173   -3.4593   -1.9039 C   0  0  0  0  0  0  0  0  0  0  0  0
   -4.7397   -4.6862   -1.9943 O   0  0  0  0  0  0  0  0  0  0  0  0
   -3.5951   -2.7270   -2.7745 C   0  0  0  0  0  0  0  0  0  0  0  0
   -4.3621   -2.0875   -3.9386 C   0  0  0  0  0  0  0  0  0  0  0  0
   -2.4735   -3.6816   -3.2697 C   0  0  0  0  0  0  0  0  0  0  0  0
   -1.8443   -3.0569   -4.4078 O   0  0  0  0  0  0  0  0  0  0  0  0
   -1.3565   -3.9618   -2.2167 C   0  0  0  0  0  0  0  0  0  0  0  0
   -1.8536   -4.5314   -0.8878 C   0  0  0  0  0  0  0  0  0  0  0  0
   -0.3227   -4.9356   -2.7539 C   0  0  0  0  0  0  0  0  0  0  0  0
    1.0117   -4.7840   -2.8098 C   0  0  0  0  0  0  0  0  0  0  0  0
    1.8331   -3.6360   -2.3709 C   0  0  0  0  0  0  0  0  0  0  0  0
    2.8176   -3.2869   -3.0058 O   0  0  0  0  0  0  0  0  0  0  0  0
    1.3990   -3.1139   -1.1950 O   0  0  0  0  0  0  0  0  0  0  0  0
    2.1032   -1.9479   -0.7238 C   0  0  0  0  0  0  0  0  0  0  0  0
    1.0796   -0.8589   -0.3406 C   0  0  0  0  0  0  0  0  0  0  0  0
   -0.1162   -1.3633    0.4827 C   0  0  0  0  0  0  0  0  0  0  0  0
    1.7664    0.2750    0.4461 C   0  0  0  0  0  0  0  0  0  0  0  0
    1.2982    1.6389   -0.0805 C   0  0  0  0  0  0  0  0  0  0  0  0
    1.7305    2.7865    0.8369 C   0  0  0  0  0  0  0  0  0  0  0  0
    3.1811    0.2227    0.2945 O   0  0  0  0  0  0  0  0  0  0  0  0
    3.8277   -0.9511    0.8086 C   0  0  0  0  0  0  0  0  0  0  0  0
    4.0845   -0.8249    2.3259 C   0  0  0  0  0  0  0  0  0  0  0  0
    5.3750   -0.0701    2.6641 C   0  0  0  0  0  0  0  0  0  0  0  0
    5.7845    0.8761    1.5378 C   0  0  0  0  0  0  0  0  0  0  0  0
    6.9980    1.7178    1.9281 C   0  0  0  0  0  0  0  0  0  0  0  0
    5.9274    0.0942    0.2048 C   0  0  0  0  0  0  0  0  0  0  0  0
    7.3617   -0.3698   -0.1052 C   0  0  0  0  0  0  0  0  0  0  0  0
    7.4925   -1.3102   -1.3096 C   0  0  0  0  0  0  0  0  0  0  0  0
    6.9412   -0.7366   -2.6083 C   0  0  0  0  0  0  0  0  0  0  0  0
    8.8839   -1.6039   -1.4957 O   0  0  0  0  0  0  0  0  0  0  0  0
    5.0959   -1.0725    0.1592 O   0  0  0  0  0  0  0  0  0  0  0  0
    3.0042   -2.2399    0.4900 C   0  0  0  0  0  0  0  0  0  0  0  0
    3.8722   -3.4882    0.2936 C   0  0  0  0  0  0  0  0  0  0  0  0
    2.0650    6.7758   -0.7837 H   0  0  0  0  0  0  0  0  0  0  0  0
    1.1311    5.8376   -1.9664 H   0  0  0  0  0  0  0  0  0  0  0  0
    2.8546    6.1470   -2.2313 H   0  0  0  0  0  0  0  0  0  0  0  0
    3.4180    4.7856   -0.2136 H   0  0  0  0  0  0  0  0  0  0  0  0
    2.6423    3.8604   -1.4937 H   0  0  0  0  0  0  0  0  0  0  0  0
    0.4411    4.0692   -0.3249 H   0  0  0  0  0  0  0  0  0  0  0  0
    2.0435    5.2471    2.0523 H   0  0  0  0  0  0  0  0  0  0  0  0
    0.1631    6.5959    2.4814 H   0  0  0  0  0  0  0  0  0  0  0  0
   -1.2932    6.9988    0.4687 H   0  0  0  0  0  0  0  0  0  0  0  0
   -2.8642    5.3196    0.0087 H   0  0  0  0  0  0  0  0  0  0  0  0
   -1.1461    3.4004    1.7395 H   0  0  0  0  0  0  0  0  0  0  0  0
   -1.8873    2.9907    0.1978 H   0  0  0  0  0  0  0  0  0  0  0  0
   -4.1540    3.5173    1.2038 H   0  0  0  0  0  0  0  0  0  0  0  0
   -3.3905    5.0491    2.9949 H   0  0  0  0  0  0  0  0  0  0  0  0
   -4.3002    3.7383    3.7140 H   0  0  0  0  0  0  0  0  0  0  0  0
   -2.5351    3.7388    3.8096 H   0  0  0  0  0  0  0  0  0  0  0  0
   -2.8457    1.2085    1.1099 H   0  0  0  0  0  0  0  0  0  0  0  0
   -2.6660    0.3165    3.2156 H   0  0  0  0  0  0  0  0  0  0  0  0
   -6.0089    2.6250    2.7048 H   0  0  0  0  0  0  0  0  0  0  0  0
   -5.3181    1.6982    4.0686 H   0  0  0  0  0  0  0  0  0  0  0  0
   -6.6414    1.0404    3.1275 H   0  0  0  0  0  0  0  0  0  0  0  0
   -5.1181   -0.5799    3.3103 H   0  0  0  0  0  0  0  0  0  0  0  0
   -6.3243   -0.9808    1.2577 H   0  0  0  0  0  0  0  0  0  0  0  0
   -7.1385    0.2076   -1.4354 H   0  0  0  0  0  0  0  0  0  0  0  0
   -7.9464   -1.0936   -0.5435 H   0  0  0  0  0  0  0  0  0  0  0  0
   -7.9529    0.5487    0.0988 H   0  0  0  0  0  0  0  0  0  0  0  0
   -4.7028   -0.7049   -1.3297 H   0  0  0  0  0  0  0  0  0  0  0  0
   -4.0816   -1.5886    1.2420 H   0  0  0  0  0  0  0  0  0  0  0  0
   -6.4498   -2.4481   -1.6652 H   0  0  0  0  0  0  0  0  0  0  0  0
   -5.2474   -3.8727    0.7702 H   0  0  0  0  0  0  0  0  0  0  0  0
   -6.5357   -4.4817   -0.2708 H   0  0  0  0  0  0  0  0  0  0  0  0
   -6.8393   -3.0815    0.7425 H   0  0  0  0  0  0  0  0  0  0  0  0
   -3.1171   -1.9321   -2.1957 H   0  0  0  0  0  0  0  0  0  0  0  0
   -3.7188   -1.4170   -4.5181 H   0  0  0  0  0  0  0  0  0  0  0  0
   -5.2101   -1.4905   -3.5859 H   0  0  0  0  0  0  0  0  0  0  0  0
   -4.7637   -2.8518   -4.6154 H   0  0  0  0  0  0  0  0  0  0  0  0
   -2.9046   -4.6250   -3.6285 H   0  0  0  0  0  0  0  0  0  0  0  0
   -1.2641   -3.7188   -4.8196 H   0  0  0  0  0  0  0  0  0  0  0  0
   -0.8698   -2.9998   -2.0345 H   0  0  0  0  0  0  0  0  0  0  0  0
   -2.4090   -5.4652   -1.0294 H   0  0  0  0  0  0  0  0  0  0  0  0
   -2.4964   -3.8207   -0.3612 H   0  0  0  0  0  0  0  0  0  0  0  0
   -1.0144   -4.7477   -0.2163 H   0  0  0  0  0  0  0  0  0  0  0  0
   -0.7291   -5.8688   -3.1458 H   0  0  0  0  0  0  0  0  0  0  0  0
    1.6085   -5.5568   -3.2885 H   0  0  0  0  0  0  0  0  0  0  0  0
    2.7254   -1.5352   -1.5295 H   0  0  0  0  0  0  0  0  0  0  0  0
    0.6594   -0.4780   -1.2819 H   0  0  0  0  0  0  0  0  0  0  0  0
   -0.6770   -2.1330   -0.0474 H   0  0  0  0  0  0  0  0  0  0  0  0
    0.1961   -1.7839    1.4451 H   0  0  0  0  0  0  0  0  0  0  0  0
   -0.8152   -0.5415    0.6888 H   0  0  0  0  0  0  0  0  0  0  0  0
    1.5262    0.2120    1.5138 H   0  0  0  0  0  0  0  0  0  0  0  0
    0.2054    1.6511   -0.1642 H   0  0  0  0  0  0  0  0  0  0  0  0
    1.7077    1.7970   -1.0842 H   0  0  0  0  0  0  0  0  0  0  0  0
    1.2312    2.6463    1.8051 H   0  0  0  0  0  0  0  0  0  0  0  0
    2.8077    2.7342    1.0364 H   0  0  0  0  0  0  0  0  0  0  0  0
    3.2419   -0.3192    2.8121 H   0  0  0  0  0  0  0  0  0  0  0  0
    4.1599   -1.8158    2.7912 H   0  0  0  0  0  0  0  0  0  0  0  0
    5.2409    0.4766    3.6055 H   0  0  0  0  0  0  0  0  0  0  0  0
    6.1793   -0.7972    2.8380 H   0  0  0  0  0  0  0  0  0  0  0  0
    4.9607    1.5920    1.4079 H   0  0  0  0  0  0  0  0  0  0  0  0
    6.7696    2.3340    2.8058 H   0  0  0  0  0  0  0  0  0  0  0  0
    7.8625    1.0952    2.1824 H   0  0  0  0  0  0  0  0  0  0  0  0
    7.2811    2.3962    1.1156 H   0  0  0  0  0  0  0  0  0  0  0  0
    5.6097    0.7613   -0.6081 H   0  0  0  0  0  0  0  0  0  0  0  0
    7.7705   -0.9018    0.7648 H   0  0  0  0  0  0  0  0  0  0  0  0
    8.0162    0.4983   -0.2545 H   0  0  0  0  0  0  0  0  0  0  0  0
    6.9987   -2.2652   -1.0963 H   0  0  0  0  0  0  0  0  0  0  0  0
    5.8555   -0.6007   -2.5627 H   0  0  0  0  0  0  0  0  0  0  0  0
    7.4062    0.2277   -2.8409 H   0  0  0  0  0  0  0  0  0  0  0  0
    7.1675   -1.4070   -3.4442 H   0  0  0  0  0  0  0  0  0  0  0  0
    9.3125   -0.8032   -1.8372 H   0  0  0  0  0  0  0  0  0  0  0  0
    2.3467   -2.4618    1.3420 H   0  0  0  0  0  0  0  0  0  0  0  0
    4.5610   -3.6202    1.1334 H   0  0  0  0  0  0  0  0  0  0  0  0
    4.4612   -3.4289   -0.6274 H   0  0  0  0  0  0  0  0  0  0  0  0
    3.2508   -4.3883    0.2350 H   0  0  0  0  0  0  0  0  0  0  0  0
  1  2  1  0
  2  3  1  0
  3  4  1  0
  4  5  2  3
  5  6  1  0
  6  7  2  3
  7  8  1  0
  8  9  1  0
  9 10  1  0
  9 11  1  0
 11 12  1  0
 11 13  1  0
 13 14  1  0
 13 15  1  0
 13 16  1  0
 16 17  2  0
 16 18  1  0
 18 19  1  0
 18 20  1  0
 20 21  1  0
 20 22  1  0
 22 23  1  0
 22 24  1  0
 24 25  2  0
 24 26  1  0
 26 27  1  0
 26 28  1  0
 28 29  1  0
 28 30  1  0
 30 31  1  0
 30 32  1  0
 32 33  2  3
 33 34  1  0
 34 35  2  0
 34 36  1  0
 36 37  1  0
 37 38  1  0
 38 39  1  0
 38 40  1  0
 40 41  1  0
 41 42  1  0
 40 43  1  0
 43 44  1  0
 44 45  1  0
 45 46  1  0
 46 47  1  0
 47 48  1  0
 47 49  1  0
 49 50  1  0
 50 51  1  0
 51 52  1  0
 51 53  1  0
 49 54  1  0
 44 55  1  0
 55 56  1  0
 42  3  1  0
 54 44  1  0
 55 37  1  0
  1 57  1  0
  1 58  1  0
  1 59  1  0
  2 60  1  0
  2 61  1  0
  3 62  1  0
  4 63  1  0
  5 64  1  0
  6 65  1  0
  7 66  1  0
  8 67  1  0
  8 68  1  0
  9 69  1  0
 10 70  1  0
 10 71  1  0
 10 72  1  0
 11 73  1  0
 12 74  1  0
 14 75  1  0
 14 76  1  0
 14 77  1  0
 15 78  1  0
 18 79  1  0
 19 80  1  0
 19 81  1  0
 19 82  1  0
 20 83  1  0
 21 84  1  0
 22 85  1  0
 23 86  1  0
 23 87  1  0
 23 88  1  0
 26 89  1  0
 27 90  1  0
 27 91  1  0
 27 92  1  0
 28 93  1  0
 29 94  1  0
 30 95  1  0
 31 96  1  0
 31 97  1  0
 31 98  1  0
 32 99  1  0
 33100  1  0
 37101  1  0
 38102  1  0
 39103  1  0
 39104  1  0
 39105  1  0
 40106  1  0
 41107  1  0
 41108  1  0
 42109  1  0
 42110  1  0
 45111  1  0
 45112  1  0
 46113  1  0
 46114  1  0
 47115  1  0
 48116  1  0
 48117  1  0
 48118  1  0
 49119  1  0
 50120  1  0
 50121  1  0
 51122  1  0
 52123  1  0
 52124  1  0
 52125  1  0
 53126  1  0
 55127  1  0
 56128  1  0
 56129  1  0
 56130  1  0
M  END
$$$$
