
     RDKit          3D

 64 69  0  0  0  0  0  0  0  0999 V2000
   -8.7842    3.4135    0.5478 C   0  0  0  0  0  0  0  0  0  0  0  0
   -8.4565    2.0510    0.7879 O   0  0  0  0  0  0  0  0  0  0  0  0
   -7.1409    1.7004    0.6604 C   0  0  0  0  0  0  0  0  0  0  0  0
   -6.0807    2.5702    0.4094 C   0  0  0  0  0  0  0  0  0  0  0  0
   -4.7716    2.0819    0.3267 C   0  0  0  0  0  0  0  0  0  0  0  0
   -4.5011    0.7171    0.4963 C   0  0  0  0  0  0  0  0  0  0  0  0
   -3.1549    0.2264    0.4190 N   0  0  0  0  0  0  0  0  0  0  0  0
   -1.9859    0.9284    0.7454 C   0  0  0  0  0  0  0  0  0  0  0  0
   -1.9859    2.1466    1.3560 N   0  0  0  0  0  0  0  0  0  0  0  0
   -0.8766    0.1690    0.3914 C   0  0  0  0  0  0  0  0  0  0  0  0
    0.5142    0.5900    0.5604 C   0  0  0  0  0  0  0  0  0  0  0  0
    0.7892    1.5532    1.2630 O   0  0  0  0  0  0  0  0  0  0  0  0
    1.4260   -0.2141   -0.0927 N   0  0  0  0  0  0  0  0  0  0  0  0
    2.7753   -0.0161   -0.2339 C   0  0  0  0  0  0  0  0  0  0  0  0
    3.6550   -0.9082   -0.7277 C   0  0  0  0  0  0  0  0  0  0  0  0
    3.3612   -2.3144   -1.1468 C   0  0  0  0  0  0  0  0  0  0  0  0
    4.9719   -0.4260   -0.7932 N   0  0  0  0  0  0  0  0  0  0  0  0
    5.6136   -0.3778   -2.1204 C   0  0  0  0  0  0  0  0  0  0  0  0
    4.9250    0.8559   -0.1660 N   0  0  0  0  0  0  0  0  0  0  0  0
    6.0922    1.4917    0.3354 C   0  0  0  0  0  0  0  0  0  0  0  0
    6.0466    2.7897    0.8642 C   0  0  0  0  0  0  0  0  0  0  0  0
    7.1956    3.4091    1.3699 C   0  0  0  0  0  0  0  0  0  0  0  0
    8.4162    2.7431    1.3557 C   0  0  0  0  0  0  0  0  0  0  0  0
    8.4848    1.4531    0.8381 C   0  0  0  0  0  0  0  0  0  0  0  0
    7.3324    0.8331    0.3417 C   0  0  0  0  0  0  0  0  0  0  0  0
    3.5866    1.2200    0.0605 C   0  0  0  0  0  0  0  0  0  0  0  0
    3.1457    2.3068    0.4003 O   0  0  0  0  0  0  0  0  0  0  0  0
   -1.3758   -1.0638   -0.0842 C   0  0  0  0  0  0  0  0  0  0  0  0
   -0.6904   -2.1569   -0.5261 N   0  0  0  0  0  0  0  0  0  0  0  0
   -1.4699   -3.2007   -0.8642 C   0  0  0  0  0  0  0  0  0  0  0  0
   -0.8614   -4.3762   -1.2877 C   0  0  0  0  0  0  0  0  0  0  0  0
   -1.6076   -5.5015   -1.6416 C   0  0  0  0  0  0  0  0  0  0  0  0
   -2.9918   -5.4514   -1.5813 C   0  0  0  0  0  0  0  0  0  0  0  0
   -3.6166   -4.2788   -1.1618 C   0  0  0  0  0  0  0  0  0  0  0  0
   -2.8858   -3.1547   -0.7988 C   0  0  0  0  0  0  0  0  0  0  0  0
   -3.5579   -2.0693   -0.3908 N   0  0  0  0  0  0  0  0  0  0  0  0
   -2.7638   -1.0379   -0.0192 C   0  0  0  0  0  0  0  0  0  0  0  0
   -5.5712   -0.1546    0.7203 C   0  0  0  0  0  0  0  0  0  0  0  0
   -6.8791    0.3386    0.8097 C   0  0  0  0  0  0  0  0  0  0  0  0
   -8.2739    4.0801    1.2502 H   0  0  0  0  0  0  0  0  0  0  0  0
   -9.8616    3.5345    0.7038 H   0  0  0  0  0  0  0  0  0  0  0  0
   -8.5636    3.6864   -0.4881 H   0  0  0  0  0  0  0  0  0  0  0  0
   -6.2330    3.6347    0.2732 H   0  0  0  0  0  0  0  0  0  0  0  0
   -3.9850    2.7919    0.0807 H   0  0  0  0  0  0  0  0  0  0  0  0
   -1.0711    2.4895    1.6822 H   0  0  0  0  0  0  0  0  0  0  0  0
   -2.7079    2.3572    2.0439 H   0  0  0  0  0  0  0  0  0  0  0  0
    1.0475   -1.0744   -0.4776 H   0  0  0  0  0  0  0  0  0  0  0  0
    2.5656   -2.7546   -0.5404 H   0  0  0  0  0  0  0  0  0  0  0  0
    3.0603   -2.3476   -2.1978 H   0  0  0  0  0  0  0  0  0  0  0  0
    4.2441   -2.9522   -1.0202 H   0  0  0  0  0  0  0  0  0  0  0  0
    6.6680   -0.6529   -2.0448 H   0  0  0  0  0  0  0  0  0  0  0  0
    5.5443    0.6222   -2.5584 H   0  0  0  0  0  0  0  0  0  0  0  0
    5.1456   -1.0720   -2.8238 H   0  0  0  0  0  0  0  0  0  0  0  0
    5.1218    3.3567    0.8886 H   0  0  0  0  0  0  0  0  0  0  0  0
    7.1259    4.4140    1.7787 H   0  0  0  0  0  0  0  0  0  0  0  0
    9.3050    3.2226    1.7543 H   0  0  0  0  0  0  0  0  0  0  0  0
    9.4299    0.9202    0.8328 H   0  0  0  0  0  0  0  0  0  0  0  0
    7.4187   -0.1898   -0.0101 H   0  0  0  0  0  0  0  0  0  0  0  0
    0.2236   -4.4212   -1.3393 H   0  0  0  0  0  0  0  0  0  0  0  0
   -1.1099   -6.4104   -1.9637 H   0  0  0  0  0  0  0  0  0  0  0  0
   -3.5908   -6.3156   -1.8558 H   0  0  0  0  0  0  0  0  0  0  0  0
   -4.7033   -4.2386   -1.1120 H   0  0  0  0  0  0  0  0  0  0  0  0
   -5.4223   -1.2186    0.8669 H   0  0  0  0  0  0  0  0  0  0  0  0
   -7.7000   -0.3486    1.0057 H   0  0  0  0  0  0  0  0  0  0  0  0
  1  2  1  0
  2  3  1  0
  3  4  2  0
  4  5  1  0
  5  6  2  0
  6  7  1  0
  7  8  1  0
  8  9  1  0
  8 10  2  0
 10 11  1  0
 11 12  2  0
 11 13  1  0
 13 14  1  0
 14 15  2  0
 15 16  1  0
 15 17  1  0
 17 18  1  0
 17 19  1  0
 19 20  1  0
 20 21  2  0
 21 22  1  0
 22 23  2  0
 23 24  1  0
 24 25  2  0
 19 26  1  0
 26 27  2  0
 10 28  1  0
 28 29  2  0
 29 30  1  0
 30 31  2  0
 31 32  1  0
 32 33  2  0
 33 34  1  0
 34 35  2  0
 35 36  1  0
 36 37  2  0
  6 38  1  0
 38 39  2  0
 39  3  1  0
 37  7  1  0
 26 14  1  0
 37 28  1  0
 25 20  1  0
 35 30  1  0
  1 40  1  0
  1 41  1  0
  1 42  1  0
  4 43  1  0
  5 44  1  0
  9 45  1  0
  9 46  1  0
 13 47  1  0
 16 48  1  0
 16 49  1  0
 16 50  1  0
 18 51  1  0
 18 52  1  0
 18 53  1  0
 21 54  1  0
 22 55  1  0
 23 56  1  0
 24 57  1  0
 25 58  1  0
 31 59  1  0
 32 60  1  0
 33 61  1  0
 34 62  1  0
 38 63  1  0
 39 64  1  0
M  END
$$$$
