
     RDKit          3D

 58 61  0  0  0  0  0  0  0  0999 V2000
   -1.7483    4.1366   -1.2420 C   0  0  0  0  0  0  0  0  0  0  0  0
   -2.7308    4.3371   -0.2335 O   0  0  0  0  0  0  0  0  0  0  0  0
   -3.2491    3.2135    0.3511 C   0  0  0  0  0  0  0  0  0  0  0  0
   -4.0761    3.4549    1.4501 C   0  0  0  0  0  0  0  0  0  0  0  0
   -4.6628    2.3969    2.1432 C   0  0  0  0  0  0  0  0  0  0  0  0
   -4.4257    1.0844    1.7365 C   0  0  0  0  0  0  0  0  0  0  0  0
   -3.6073    0.8219    0.6288 C   0  0  0  0  0  0  0  0  0  0  0  0
   -3.3395   -0.5604    0.2022 C   0  0  0  0  0  0  0  0  0  0  0  0
   -4.6646   -1.5386   -0.2666 S   0  0  0  0  0  0  0  0  0  0  0  0
   -3.6642   -2.8830   -0.6340 C   0  0  0  0  0  0  0  0  0  0  0  0
   -4.0818   -4.1416   -1.1081 C   0  0  0  0  0  0  0  0  0  0  0  0
   -3.1253   -5.1332   -1.3539 C   0  0  0  0  0  0  0  0  0  0  0  0
   -1.7780   -4.8859   -1.1317 C   0  0  0  0  0  0  0  0  0  0  0  0
   -0.7532   -5.7699   -1.3322 O   0  0  0  0  0  0  0  0  0  0  0  0
   -1.1029   -7.0689   -1.7934 C   0  0  0  0  0  0  0  0  0  0  0  0
   -1.3770   -3.6302   -0.6597 C   0  0  0  0  0  0  0  0  0  0  0  0
   -2.3184   -2.5975   -0.4059 C   0  0  0  0  0  0  0  0  0  0  0  0
   -2.1374   -1.2430    0.0737 C   0  0  0  0  0  0  0  0  0  0  0  0
   -0.8560   -0.6198    0.3971 C   0  0  0  0  0  0  0  0  0  0  0  0
   -0.5580   -0.2383    1.7080 C   0  0  0  0  0  0  0  0  0  0  0  0
    0.6685    0.3642    1.9984 C   0  0  0  0  0  0  0  0  0  0  0  0
    1.6112    0.5871    0.9914 C   0  0  0  0  0  0  0  0  0  0  0  0
    2.7663    1.1834    1.4149 O   0  0  0  0  0  0  0  0  0  0  0  0
    3.7736    1.4314    0.4289 C   0  0  0  0  0  0  0  0  0  0  0  0
    4.9718    2.0969    1.1298 C   0  0  0  0  0  0  0  0  0  0  0  0
    6.1382    2.4519    0.3044 N   0  0  0  0  0  0  0  0  0  0  0  0
    6.7809    1.2853   -0.2925 C   0  0  0  0  0  0  0  0  0  0  0  0
    5.8267    3.4579   -0.7063 C   0  0  0  0  0  0  0  0  0  0  0  0
    1.3176    0.2005   -0.3165 C   0  0  0  0  0  0  0  0  0  0  0  0
    0.0889   -0.4013   -0.6123 C   0  0  0  0  0  0  0  0  0  0  0  0
   -3.0249    1.8983   -0.0613 C   0  0  0  0  0  0  0  0  0  0  0  0
   -1.3751    5.1196   -1.5449 H   0  0  0  0  0  0  0  0  0  0  0  0
   -0.8978    3.5608   -0.8610 H   0  0  0  0  0  0  0  0  0  0  0  0
   -2.1851    3.6600   -2.1257 H   0  0  0  0  0  0  0  0  0  0  0  0
   -4.2591    4.4775    1.7712 H   0  0  0  0  0  0  0  0  0  0  0  0
   -5.3003    2.5960    3.0003 H   0  0  0  0  0  0  0  0  0  0  0  0
   -4.8797    0.2678    2.2932 H   0  0  0  0  0  0  0  0  0  0  0  0
   -5.1355   -4.3433   -1.2811 H   0  0  0  0  0  0  0  0  0  0  0  0
   -3.4778   -6.0923   -1.7193 H   0  0  0  0  0  0  0  0  0  0  0  0
   -1.5761   -7.0232   -2.7799 H   0  0  0  0  0  0  0  0  0  0  0  0
   -1.7430   -7.5856   -1.0707 H   0  0  0  0  0  0  0  0  0  0  0  0
   -0.1797   -7.6477   -1.8938 H   0  0  0  0  0  0  0  0  0  0  0  0
   -0.3194   -3.4485   -0.4805 H   0  0  0  0  0  0  0  0  0  0  0  0
   -1.2738   -0.4022    2.5100 H   0  0  0  0  0  0  0  0  0  0  0  0
    0.8903    0.6627    3.0202 H   0  0  0  0  0  0  0  0  0  0  0  0
    3.3737    2.1014   -0.3404 H   0  0  0  0  0  0  0  0  0  0  0  0
    4.0862    0.4823   -0.0205 H   0  0  0  0  0  0  0  0  0  0  0  0
    5.3043    1.4429    1.9475 H   0  0  0  0  0  0  0  0  0  0  0  0
    4.6168    2.9994    1.6458 H   0  0  0  0  0  0  0  0  0  0  0  0
    7.7235    1.5739   -0.7712 H   0  0  0  0  0  0  0  0  0  0  0  0
    6.1540    0.7997   -1.0481 H   0  0  0  0  0  0  0  0  0  0  0  0
    7.0343    0.5462    0.4754 H   0  0  0  0  0  0  0  0  0  0  0  0
    5.1517    3.0807   -1.4820 H   0  0  0  0  0  0  0  0  0  0  0  0
    5.3687    4.3408   -0.2469 H   0  0  0  0  0  0  0  0  0  0  0  0
    6.7448    3.8016   -1.1960 H   0  0  0  0  0  0  0  0  0  0  0  0
    2.0189    0.3505   -1.1302 H   0  0  0  0  0  0  0  0  0  0  0  0
   -0.1262   -0.6946   -1.6376 H   0  0  0  0  0  0  0  0  0  0  0  0
   -2.4006    1.6828   -0.9222 H   0  0  0  0  0  0  0  0  0  0  0  0
  1  2  1  0
  2  3  1  0
  3  4  2  0
  4  5  1  0
  5  6  2  0
  6  7  1  0
  7  8  1  0
  8  9  1  0
  9 10  1  0
 10 11  2  0
 11 12  1  0
 12 13  2  0
 13 14  1  0
 14 15  1  0
 13 16  1  0
 16 17  2  0
 17 18  1  0
 18 19  1  0
 19 20  2  0
 20 21  1  0
 21 22  2  0
 22 23  1  0
 23 24  1  0
 24 25  1  0
 25 26  1  0
 26 27  1  0
 26 28  1  0
 22 29  1  0
 29 30  2  0
  7 31  2  0
 31  3  1  0
 18  8  2  0
 30 19  1  0
 17 10  1  0
  1 32  1  0
  1 33  1  0
  1 34  1  0
  4 35  1  0
  5 36  1  0
  6 37  1  0
 11 38  1  0
 12 39  1  0
 15 40  1  0
 15 41  1  0
 15 42  1  0
 16 43  1  0
 20 44  1  0
 21 45  1  0
 24 46  1  0
 24 47  1  0
 25 48  1  0
 25 49  1  0
 27 50  1  0
 27 51  1  0
 27 52  1  0
 28 53  1  0
 28 54  1  0
 28 55  1  0
 29 56  1  0
 30 57  1  0
 31 58  1  0
M  END
$$$$
