
     RDKit          3D

 51 53  0  0  0  0  0  0  0  0999 V2000
    5.8915   -2.4015   -3.1582 C   0  0  0  0  0  0  0  0  0  0  0  0
    5.9390   -2.0680   -1.7780 O   0  0  0  0  0  0  0  0  0  0  0  0
    5.3217   -0.9068   -1.3826 C   0  0  0  0  0  0  0  0  0  0  0  0
    4.6010   -0.0640   -2.2348 C   0  0  0  0  0  0  0  0  0  0  0  0
    3.9975    1.0951   -1.7409 C   0  0  0  0  0  0  0  0  0  0  0  0
    4.0989    1.4262   -0.3856 C   0  0  0  0  0  0  0  0  0  0  0  0
    3.4154    2.6642    0.1515 C   0  0  0  0  0  0  0  0  0  0  0  0
    1.8930    2.6517    0.0594 C   0  0  0  0  0  0  0  0  0  0  0  0
    1.2917    3.6778   -0.2489 O   0  0  0  0  0  0  0  0  0  0  0  0
    1.3165    1.4413    0.4075 N   0  0  0  0  0  0  0  0  0  0  0  0
   -0.0551    1.1221    0.4593 C   0  0  0  0  0  0  0  0  0  0  0  0
   -0.3903   -0.2009    0.7650 C   0  0  0  0  0  0  0  0  0  0  0  0
   -1.7302   -0.6014    0.8339 C   0  0  0  0  0  0  0  0  0  0  0  0
   -2.7619    0.3128    0.5969 C   0  0  0  0  0  0  0  0  0  0  0  0
   -4.0848   -0.1697    0.6825 N   0  0  0  0  0  0  0  0  0  0  0  0
   -5.2495    0.5259    0.4097 C   0  0  0  0  0  0  0  0  0  0  0  0
   -5.3433    1.6747   -0.0044 O   0  0  0  0  0  0  0  0  0  0  0  0
   -6.5057   -0.2520    0.6089 C   0  0  0  0  0  0  0  0  0  0  0  0
   -6.6447   -1.1813    1.6496 C   0  0  0  0  0  0  0  0  0  0  0  0
   -7.8422   -1.8879    1.7993 C   0  0  0  0  0  0  0  0  0  0  0  0
   -8.8989   -1.6581    0.9179 C   0  0  0  0  0  0  0  0  0  0  0  0
  -10.5168   -2.6138    1.1273 Br  0  0  0  0  0  0  0  0  0  0  0  0
   -8.7762   -0.7229   -0.1088 C   0  0  0  0  0  0  0  0  0  0  0  0
   -7.5804   -0.0161   -0.2598 C   0  0  0  0  0  0  0  0  0  0  0  0
   -2.4269    1.6328    0.3010 C   0  0  0  0  0  0  0  0  0  0  0  0
   -1.0836    2.0343    0.2315 C   0  0  0  0  0  0  0  0  0  0  0  0
    4.8305    0.5873    0.4696 C   0  0  0  0  0  0  0  0  0  0  0  0
    5.4441   -0.5735   -0.0189 C   0  0  0  0  0  0  0  0  0  0  0  0
    6.1607   -1.4516    0.7569 O   0  0  0  0  0  0  0  0  0  0  0  0
    6.5282   -1.0265    2.0613 C   0  0  0  0  0  0  0  0  0  0  0  0
    4.8618   -2.5797   -3.4860 H   0  0  0  0  0  0  0  0  0  0  0  0
    6.3739   -1.6311   -3.7689 H   0  0  0  0  0  0  0  0  0  0  0  0
    6.4488   -3.3326   -3.2970 H   0  0  0  0  0  0  0  0  0  0  0  0
    4.4868   -0.2814   -3.2919 H   0  0  0  0  0  0  0  0  0  0  0  0
    3.4404    1.7345   -2.4252 H   0  0  0  0  0  0  0  0  0  0  0  0
    3.7888    3.5306   -0.4097 H   0  0  0  0  0  0  0  0  0  0  0  0
    3.6784    2.8308    1.2040 H   0  0  0  0  0  0  0  0  0  0  0  0
    1.9515    0.6734    0.5914 H   0  0  0  0  0  0  0  0  0  0  0  0
    0.3825   -0.9430    0.9490 H   0  0  0  0  0  0  0  0  0  0  0  0
   -1.9484   -1.6392    1.0724 H   0  0  0  0  0  0  0  0  0  0  0  0
   -4.1762   -1.1549    0.8899 H   0  0  0  0  0  0  0  0  0  0  0  0
   -5.8467   -1.3432    2.3694 H   0  0  0  0  0  0  0  0  0  0  0  0
   -7.9454   -2.6044    2.6109 H   0  0  0  0  0  0  0  0  0  0  0  0
   -9.6012   -0.5312   -0.7903 H   0  0  0  0  0  0  0  0  0  0  0  0
   -7.4881    0.7247   -1.0536 H   0  0  0  0  0  0  0  0  0  0  0  0
   -3.1857    2.3879    0.1192 H   0  0  0  0  0  0  0  0  0  0  0  0
   -0.8848    3.0757   -0.0020 H   0  0  0  0  0  0  0  0  0  0  0  0
    4.9041    0.8530    1.5199 H   0  0  0  0  0  0  0  0  0  0  0  0
    5.6497   -0.9629    2.7117 H   0  0  0  0  0  0  0  0  0  0  0  0
    7.1989   -1.7817    2.4827 H   0  0  0  0  0  0  0  0  0  0  0  0
    7.0716   -0.0755    2.0351 H   0  0  0  0  0  0  0  0  0  0  0  0
  1  2  1  0
  2  3  1  0
  3  4  2  0
  4  5  1  0
  5  6  2  0
  6  7  1  0
  7  8  1  0
  8  9  2  0
  8 10  1  0
 10 11  1  0
 11 12  2  0
 12 13  1  0
 13 14  2  0
 14 15  1  0
 15 16  1  0
 16 17  2  0
 16 18  1  0
 18 19  2  0
 19 20  1  0
 20 21  2  0
 21 22  1  0
 21 23  1  0
 23 24  2  0
 14 25  1  0
 25 26  2  0
  6 27  1  0
 27 28  2  0
 28 29  1  0
 29 30  1  0
 28  3  1  0
 26 11  1  0
 24 18  1  0
  1 31  1  0
  1 32  1  0
  1 33  1  0
  4 34  1  0
  5 35  1  0
  7 36  1  0
  7 37  1  0
 10 38  1  0
 12 39  1  0
 13 40  1  0
 15 41  1  0
 19 42  1  0
 20 43  1  0
 23 44  1  0
 24 45  1  0
 25 46  1  0
 26 47  1  0
 27 48  1  0
 30 49  1  0
 30 50  1  0
 30 51  1  0
M  END
$$$$
