
     RDKit          3D

 46 48  0  0  0  0  0  0  0  0999 V2000
   -3.6631   -1.6015   -0.8545 O   0  0  0  0  0  0  0  0  0  0  0  0
   -3.3896   -0.7971    0.0269 C   0  0  0  0  0  0  0  0  0  0  0  0
   -4.2328   -0.3406    1.0245 N   0  0  0  0  0  0  0  0  0  0  0  0
   -5.6015   -0.6498    1.1875 C   0  0  0  0  0  0  0  0  0  0  0  0
   -6.2415   -0.1386    2.3232 C   0  0  0  0  0  0  0  0  0  0  0  0
   -7.5926   -0.4012    2.5440 C   0  0  0  0  0  0  0  0  0  0  0  0
   -8.1856    0.0952    3.6375 F   0  0  0  0  0  0  0  0  0  0  0  0
   -8.3307   -1.1638    1.6543 C   0  0  0  0  0  0  0  0  0  0  0  0
   -7.6948   -1.6646    0.5291 C   0  0  0  0  0  0  0  0  0  0  0  0
   -8.3948   -2.4008   -0.3443 F   0  0  0  0  0  0  0  0  0  0  0  0
   -6.3436   -1.4160    0.2861 C   0  0  0  0  0  0  0  0  0  0  0  0
   -1.9999   -0.2634    0.0786 C   0  0  0  0  0  0  0  0  0  0  0  0
   -0.9472   -1.0987   -0.3006 C   0  0  0  0  0  0  0  0  0  0  0  0
    0.3775   -0.6395   -0.2676 C   0  0  0  0  0  0  0  0  0  0  0  0
    0.6979    0.6763    0.1057 C   0  0  0  0  0  0  0  0  0  0  0  0
    2.0308    1.0981    0.2338 N   0  0  0  0  0  0  0  0  0  0  0  0
    3.1033    0.3993   -0.4809 C   0  0  0  0  0  0  0  0  0  0  0  0
    4.4347    1.1325   -0.2737 C   0  0  0  0  0  0  0  0  0  0  0  0
    5.5700    0.4418   -0.9869 C   0  0  0  0  0  0  0  0  0  0  0  0
    5.8783    0.7675   -2.3146 C   0  0  0  0  0  0  0  0  0  0  0  0
    6.9141    0.1107   -2.9806 C   0  0  0  0  0  0  0  0  0  0  0  0
    7.6476   -0.8784   -2.3281 C   0  0  0  0  0  0  0  0  0  0  0  0
    7.3463   -1.2122   -1.0091 C   0  0  0  0  0  0  0  0  0  0  0  0
    6.3110   -0.5569   -0.3409 C   0  0  0  0  0  0  0  0  0  0  0  0
   -0.3897    1.4953    0.4942 C   0  0  0  0  0  0  0  0  0  0  0  0
   -0.1673    2.8734    0.9361 N   0  0  0  0  0  4  0  0  0  0  0  0
   -0.9382    3.3227    1.7977 O   0  0  0  0  0  0  0  0  0  0  0  0
    0.7553    3.5129    0.4076 O   0  0  0  0  0  1  0  0  0  0  0  0
   -1.7251    1.0464    0.4686 C   0  0  0  0  0  0  0  0  0  0  0  0
   -3.8217    0.2202    1.7606 H   0  0  0  0  0  0  0  0  0  0  0  0
   -5.7115    0.4654    3.0532 H   0  0  0  0  0  0  0  0  0  0  0  0
   -9.3804   -1.3636    1.8315 H   0  0  0  0  0  0  0  0  0  0  0  0
   -5.9124   -1.8344   -0.6167 H   0  0  0  0  0  0  0  0  0  0  0  0
   -1.1493   -2.1227   -0.6143 H   0  0  0  0  0  0  0  0  0  0  0  0
    1.1535   -1.3499   -0.5421 H   0  0  0  0  0  0  0  0  0  0  0  0
    2.1107    2.1181    0.1403 H   0  0  0  0  0  0  0  0  0  0  0  0
    3.2005   -0.6255   -0.1032 H   0  0  0  0  0  0  0  0  0  0  0  0
    2.8694    0.3511   -1.5518 H   0  0  0  0  0  0  0  0  0  0  0  0
    4.6624    1.2058    0.7978 H   0  0  0  0  0  0  0  0  0  0  0  0
    4.3561    2.1685   -0.6286 H   0  0  0  0  0  0  0  0  0  0  0  0
    5.3157    1.5369   -2.8389 H   0  0  0  0  0  0  0  0  0  0  0  0
    7.1498    0.3714   -4.0092 H   0  0  0  0  0  0  0  0  0  0  0  0
    8.4550   -1.3883   -2.8472 H   0  0  0  0  0  0  0  0  0  0  0  0
    7.9189   -1.9831   -0.4999 H   0  0  0  0  0  0  0  0  0  0  0  0
    6.0880   -0.8297    0.6885 H   0  0  0  0  0  0  0  0  0  0  0  0
   -2.5334    1.7270    0.7263 H   0  0  0  0  0  0  0  0  0  0  0  0
  1  2  2  0
  2  3  1  0
  3  4  1  0
  4  5  2  0
  5  6  1  0
  6  7  1  0
  6  8  2  0
  8  9  1  0
  9 10  1  0
  9 11  2  0
  2 12  1  0
 12 13  2  0
 13 14  1  0
 14 15  2  0
 15 16  1  0
 16 17  1  0
 17 18  1  0
 18 19  1  0
 19 20  2  0
 20 21  1  0
 21 22  2  0
 22 23  1  0
 23 24  2  0
 15 25  1  0
 25 26  1  0
 26 27  2  0
 26 28  1  0
 25 29  2  0
 11  4  1  0
 29 12  1  0
 24 19  1  0
  3 30  1  0
  5 31  1  0
  8 32  1  0
 11 33  1  0
 13 34  1  0
 14 35  1  0
 16 36  1  0
 17 37  1  0
 17 38  1  0
 18 39  1  0
 18 40  1  0
 20 41  1  0
 21 42  1  0
 22 43  1  0
 23 44  1  0
 24 45  1  0
 29 46  1  0
M  CHG  2  26   1  28  -1
M  END
$$$$
