
     RDKit          3D

 34 37  0  0  0  0  0  0  0  0999 V2000
   -3.4344   -2.7035    1.1170 C   0  0  0  0  0  0  0  0  0  0  0  0
   -2.9205   -1.7348    0.2118 O   0  0  0  0  0  0  0  0  0  0  0  0
   -3.5760   -0.5321    0.1332 C   0  0  0  0  0  0  0  0  0  0  0  0
   -4.7314   -0.2062    0.8511 C   0  0  0  0  0  0  0  0  0  0  0  0
   -5.3295    1.0487    0.6971 C   0  0  0  0  0  0  0  0  0  0  0  0
   -4.7756    1.9807   -0.1761 C   0  0  0  0  0  0  0  0  0  0  0  0
   -5.5891    3.6746   -0.3794 Br  0  0  0  0  0  0  0  0  0  0  0  0
   -3.6264    1.6742   -0.9002 C   0  0  0  0  0  0  0  0  0  0  0  0
   -3.0210    0.4194   -0.7475 C   0  0  0  0  0  0  0  0  0  0  0  0
   -1.8037    0.1339   -1.5195 C   0  0  0  0  0  0  0  0  0  0  0  0
   -0.5561    0.2088   -1.0362 C   0  0  0  0  0  0  0  0  0  0  0  0
   -0.0782    0.6858    0.5837 S   0  0  0  0  0  0  0  0  0  0  0  0
    1.5640    0.4285    0.1639 C   0  0  0  0  0  0  0  0  0  0  0  0
    2.7056    0.5379    0.7794 N   0  0  0  0  0  0  0  0  0  0  0  0
    3.5929    0.1643   -0.2219 C   0  0  0  0  0  0  0  0  0  0  0  0
    5.1382    0.1264    0.0140 C   0  0  0  0  0  0  0  0  0  0  0  0
    5.7739    0.4470    1.1984 C   0  0  0  0  0  0  0  0  0  0  0  0
    7.1621    0.2787    0.9750 C   0  0  0  0  0  0  0  0  0  0  0  0
    7.2895   -0.1338   -0.3299 C   0  0  0  0  0  0  0  0  0  0  0  0
    6.0711   -0.2292   -0.9204 O   0  0  0  0  0  0  0  0  0  0  0  0
    3.0258   -0.1588   -1.4021 N   0  0  0  0  0  0  0  0  0  0  0  0
    1.7275    0.0217   -1.1107 N   0  0  0  0  0  0  0  0  0  0  0  0
    0.6110   -0.1372   -1.9030 C   0  0  0  0  0  0  0  0  0  0  0  0
    0.6389   -0.4858   -3.0691 O   0  0  0  0  0  0  0  0  0  0  0  0
   -3.4105   -2.3334    2.1473 H   0  0  0  0  0  0  0  0  0  0  0  0
   -4.4441   -3.0147    0.8298 H   0  0  0  0  0  0  0  0  0  0  0  0
   -2.7876   -3.5846    1.0653 H   0  0  0  0  0  0  0  0  0  0  0  0
   -5.1953   -0.9053    1.5393 H   0  0  0  0  0  0  0  0  0  0  0  0
   -6.2270    1.2862    1.2632 H   0  0  0  0  0  0  0  0  0  0  0  0
   -3.2001    2.4086   -1.5794 H   0  0  0  0  0  0  0  0  0  0  0  0
   -1.9798   -0.1797   -2.5472 H   0  0  0  0  0  0  0  0  0  0  0  0
    5.2847    0.7638    2.1094 H   0  0  0  0  0  0  0  0  0  0  0  0
    7.9689    0.4379    1.6764 H   0  0  0  0  0  0  0  0  0  0  0  0
    8.1322   -0.3880   -0.9578 H   0  0  0  0  0  0  0  0  0  0  0  0
  1  2  1  0
  2  3  1  0
  3  4  2  0
  4  5  1  0
  5  6  2  0
  6  7  1  0
  6  8  1  0
  8  9  2  0
  9 10  1  0
 10 11  2  3
 11 12  1  0
 12 13  1  0
 13 14  2  0
 14 15  1  0
 15 16  1  0
 16 17  2  0
 17 18  1  0
 18 19  2  0
 19 20  1  0
 15 21  2  0
 21 22  1  0
 22 23  1  0
 23 24  2  0
  9  3  1  0
 23 11  1  0
 22 13  1  0
 20 16  1  0
  1 25  1  0
  1 26  1  0
  1 27  1  0
  4 28  1  0
  5 29  1  0
  8 30  1  0
 10 31  1  0
 17 32  1  0
 18 33  1  0
 19 34  1  0
M  END
$$$$
