
     RDKit          3D

 71 77  0  0  0  0  0  0  0  0999 V2000
    4.5591    0.7163    3.3416 C   0  0  0  0  0  0  0  0  0  0  0  0
    5.0172    1.2222    2.0965 O   0  0  0  0  0  0  0  0  0  0  0  0
    4.1087    0.9663    1.0219 C   0  0  0  0  0  0  0  0  0  0  0  0
    3.9122   -0.5468    0.6687 C   0  0  0  0  0  0  0  0  0  0  0  0
    4.8106   -1.3700    0.8713 O   0  0  0  0  0  0  0  0  0  0  0  0
    2.6796   -0.9505    0.1623 N   0  0  0  0  0  0  0  0  0  0  0  0
    2.4536   -2.3774   -0.1107 C   0  0  0  0  0  0  0  0  0  0  0  0
    0.9917   -2.7827    0.1626 C   0  0  0  0  0  0  0  0  0  0  0  0
    0.0500   -2.0271   -0.6538 N   0  0  0  0  0  0  0  0  0  0  0  0
    0.5145   -0.6763   -1.0967 C   0  0  2  0  0  0  0  0  0  0  0  0
    1.5696   -0.0429   -0.1685 C   0  0  0  0  0  0  0  0  0  0  0  0
   -0.7552    0.0737   -1.1709 C   0  0  0  0  0  0  0  0  0  0  0  0
   -1.8415   -0.6814   -0.7250 C   0  0  0  0  0  0  0  0  0  0  0  0
   -2.9758    0.0865   -0.8276 C   0  0  0  0  0  0  0  0  0  0  0  0
   -4.2415   -0.2085   -0.5430 O   0  0  0  0  0  0  0  0  0  0  0  0
   -2.5929    1.3170   -1.3984 N   0  0  0  0  0  0  0  0  0  0  0  0
   -3.4680    2.3677   -1.8160 C   0  0  0  0  0  0  0  0  0  0  0  0
   -3.1489    3.1371   -2.9458 C   0  0  0  0  0  0  0  0  0  0  0  0
   -3.9971    4.1673   -3.3585 C   0  0  0  0  0  0  0  0  0  0  0  0
   -5.1669    4.4352   -2.6501 C   0  0  0  0  0  0  0  0  0  0  0  0
   -5.4981    3.6647   -1.5365 C   0  0  0  0  0  0  0  0  0  0  0  0
   -4.6571    2.6276   -1.1234 C   0  0  0  0  0  0  0  0  0  0  0  0
   -1.1876    1.3260   -1.5033 C   0  0  0  0  0  0  0  0  0  0  0  0
   -0.4483    2.3895   -1.8151 O   0  0  0  0  0  0  0  0  0  0  0  0
   -1.3913   -2.0219   -0.2823 C   0  0  1  0  0  0  0  0  0  0  0  0
   -2.1552   -3.2027   -0.9353 C   0  0  0  0  0  0  0  0  0  0  0  0
   -2.2151   -3.5324   -2.1108 O   0  0  0  0  0  0  0  0  0  0  0  0
   -2.8214   -3.8688    0.0967 N   0  0  0  0  0  0  0  0  0  0  0  0
   -2.6057   -3.2682    1.3343 C   0  0  0  0  0  0  0  0  0  0  0  0
   -1.7706   -2.1505    1.1748 C   0  0  0  0  0  0  0  0  0  0  0  0
   -1.4279   -1.3696    2.2685 C   0  0  0  0  0  0  0  0  0  0  0  0
   -1.9174   -1.7399    3.5216 C   0  0  0  0  0  0  0  0  0  0  0  0
   -2.7440   -2.8708    3.6700 C   0  0  0  0  0  0  0  0  0  0  0  0
   -3.2762   -3.2536    5.2721 Cl  0  0  0  0  0  0  0  0  0  0  0  0
   -3.1205   -3.6591    2.5656 C   0  0  0  0  0  0  0  0  0  0  0  0
   -3.9955   -4.8670    2.7220 C   0  0  0  0  0  0  0  0  0  0  0  0
    4.6494    1.7404   -0.1721 C   0  0  0  0  0  0  0  0  0  0  0  0
    5.8456    1.3523   -0.7986 C   0  0  0  0  0  0  0  0  0  0  0  0
    6.3439    2.0666   -1.8898 C   0  0  0  0  0  0  0  0  0  0  0  0
    5.6598    3.1839   -2.3627 C   0  0  0  0  0  0  0  0  0  0  0  0
    4.4800    3.5913   -1.7427 C   0  0  0  0  0  0  0  0  0  0  0  0
    3.9802    2.8785   -0.6503 C   0  0  0  0  0  0  0  0  0  0  0  0
    5.2581    1.0390    4.1183 H   0  0  0  0  0  0  0  0  0  0  0  0
    3.5692    1.1143    3.5844 H   0  0  0  0  0  0  0  0  0  0  0  0
    4.5349   -0.3764    3.3358 H   0  0  0  0  0  0  0  0  0  0  0  0
    3.1404    1.3869    1.3163 H   0  0  0  0  0  0  0  0  0  0  0  0
    3.1225   -2.9944    0.4987 H   0  0  0  0  0  0  0  0  0  0  0  0
    2.7135   -2.5514   -1.1627 H   0  0  0  0  0  0  0  0  0  0  0  0
    0.8145   -2.6278    1.2324 H   0  0  0  0  0  0  0  0  0  0  0  0
    0.8703   -3.8534   -0.0389 H   0  0  0  0  0  0  0  0  0  0  0  0
    0.9406   -0.7868   -2.1015 H   0  0  0  0  0  0  0  0  0  0  0  0
    1.9639    0.8633   -0.6337 H   0  0  0  0  0  0  0  0  0  0  0  0
    1.1192    0.2528    0.7861 H   0  0  0  0  0  0  0  0  0  0  0  0
   -4.2810   -1.1320   -0.2382 H   0  0  0  0  0  0  0  0  0  0  0  0
   -2.2754    2.9166   -3.5568 H   0  0  0  0  0  0  0  0  0  0  0  0
   -3.7534    4.7504   -4.2437 H   0  0  0  0  0  0  0  0  0  0  0  0
   -5.8277    5.2362   -2.9718 H   0  0  0  0  0  0  0  0  0  0  0  0
   -6.4139    3.8708   -0.9871 H   0  0  0  0  0  0  0  0  0  0  0  0
   -4.9367    2.0582   -0.2406 H   0  0  0  0  0  0  0  0  0  0  0  0
   -0.9986    3.1889   -1.7395 H   0  0  0  0  0  0  0  0  0  0  0  0
   -3.3799   -4.6914   -0.0817 H   0  0  0  0  0  0  0  0  0  0  0  0
   -0.7940   -0.4950    2.1629 H   0  0  0  0  0  0  0  0  0  0  0  0
   -1.6507   -1.1442    4.3934 H   0  0  0  0  0  0  0  0  0  0  0  0
   -4.3437   -5.2566    1.7606 H   0  0  0  0  0  0  0  0  0  0  0  0
   -3.4453   -5.6668    3.2282 H   0  0  0  0  0  0  0  0  0  0  0  0
   -4.8946   -4.6210    3.2976 H   0  0  0  0  0  0  0  0  0  0  0  0
    6.4025    0.4922   -0.4279 H   0  0  0  0  0  0  0  0  0  0  0  0
    7.2718    1.7536   -2.3624 H   0  0  0  0  0  0  0  0  0  0  0  0
    6.0518    3.7425   -3.2089 H   0  0  0  0  0  0  0  0  0  0  0  0
    3.9511    4.4683   -2.1066 H   0  0  0  0  0  0  0  0  0  0  0  0
    3.0640    3.2215   -0.1756 H   0  0  0  0  0  0  0  0  0  0  0  0
  1  2  1  0
  2  3  1  0
  3  4  1  0
  4  5  2  0
  4  6  1  0
  6  7  1  0
  7  8  1  0
  8  9  1  0
  9 10  1  0
 10 11  1  0
 10 12  1  0
 12 13  1  0
 13 14  2  0
 14 15  1  0
 14 16  1  0
 16 17  1  0
 17 18  2  0
 18 19  1  0
 19 20  2  0
 20 21  1  0
 21 22  2  0
 16 23  1  0
 23 24  1  0
 13 25  1  0
 25 26  1  0
 26 27  2  0
 26 28  1  0
 28 29  1  0
 29 30  2  0
 30 31  1  0
 31 32  2  0
 32 33  1  0
 33 34  1  0
 33 35  2  0
 35 36  1  0
  3 37  1  0
 37 38  2  0
 38 39  1  0
 39 40  2  0
 40 41  1  0
 41 42  2  0
 11  6  1  0
 23 12  2  0
 30 25  1  0
 42 37  1  0
 25  9  1  1
 35 29  1  0
 22 17  1  0
  1 43  1  0
  1 44  1  0
  1 45  1  0
  3 46  1  0
  7 47  1  0
  7 48  1  0
  8 49  1  0
  8 50  1  0
 10 51  1  6
 11 52  1  0
 11 53  1  0
 15 54  1  0
 18 55  1  0
 19 56  1  0
 20 57  1  0
 21 58  1  0
 22 59  1  0
 24 60  1  0
 28 61  1  0
 31 62  1  0
 32 63  1  0
 36 64  1  0
 36 65  1  0
 36 66  1  0
 38 67  1  0
 39 68  1  0
 40 69  1  0
 41 70  1  0
 42 71  1  0
M  END
$$$$
