
     RDKit          3D

 58 59  0  0  0  0  0  0  0  0999 V2000
    8.3884    0.1872   -1.9284 C   0  0  0  0  0  0  0  0  0  0  0  0
    7.4516   -0.8235   -1.2853 C   0  0  0  0  0  0  0  0  0  0  0  0
    6.1058   -0.8794   -2.0123 C   0  0  0  0  0  0  0  0  0  0  0  0
    5.1646   -1.9230   -1.4087 C   0  0  0  0  0  0  0  0  0  0  0  0
    4.9075   -1.6732   -0.0278 O   0  0  0  0  0  0  0  0  0  0  0  0
    3.8921   -0.8291    0.3199 C   0  0  0  0  0  0  0  0  0  0  0  0
    3.6939   -0.7042    1.6980 C   0  0  0  0  0  0  0  0  0  0  0  0
    2.6928    0.1283    2.2045 C   0  0  0  0  0  0  0  0  0  0  0  0
    1.8690    0.8422    1.3301 C   0  0  0  0  0  0  0  0  0  0  0  0
    0.8116    1.7184    1.9055 C   0  0  0  0  0  0  0  0  0  0  0  0
    0.9218    2.1647    3.0412 O   0  0  0  0  0  0  0  0  0  0  0  0
   -0.2953    1.9453    1.1116 N   0  0  0  0  0  0  0  0  0  0  0  0
   -1.4527    2.6328    1.6703 C   0  0  0  0  0  0  0  0  0  0  0  0
   -2.4409    1.7130    2.3853 C   0  0  0  0  0  0  0  0  0  0  0  0
   -3.4325    2.1103    2.9833 O   0  0  0  0  0  0  0  0  0  0  0  0
   -2.1345    0.3968    2.2045 O   0  0  0  0  0  0  0  0  0  0  0  0
   -2.9882   -0.5232    2.8833 C   0  0  0  0  0  0  0  0  0  0  0  0
   -4.3739   -0.7152    2.2676 C   0  0  0  0  0  0  0  0  0  0  0  0
   -5.3555   -0.9908    2.9650 O   0  0  0  0  0  0  0  0  0  0  0  0
   -4.5262   -0.5686    0.7889 C   0  0  0  0  0  0  0  0  0  0  0  0
   -5.5824    0.1030    0.2824 C   0  0  0  0  0  0  0  0  0  0  0  0
   -6.5626    0.6542    1.1012 N   0  0  0  0  0  0  0  0  0  0  0  0
   -5.6840    0.2582   -1.0980 N   0  0  0  0  0  0  0  0  0  0  0  0
   -6.8066    1.0138   -1.6534 C   0  0  0  0  0  0  0  0  0  0  0  0
   -4.7511   -0.2425   -2.0041 C   0  0  0  0  0  0  0  0  0  0  0  0
   -4.8845   -0.1299   -3.2242 O   0  0  0  0  0  0  0  0  0  0  0  0
   -3.6532   -0.8842   -1.4562 N   0  0  0  0  0  0  0  0  0  0  0  0
   -2.6788   -1.4494   -2.3725 C   0  0  0  0  0  0  0  0  0  0  0  0
   -3.5221   -1.1605   -0.1146 C   0  0  0  0  0  0  0  0  0  0  0  0
   -2.6321   -1.8770    0.3418 O   0  0  0  0  0  0  0  0  0  0  0  0
    2.0748    0.7344   -0.0506 C   0  0  0  0  0  0  0  0  0  0  0  0
    3.0821   -0.1012   -0.5519 C   0  0  0  0  0  0  0  0  0  0  0  0
    8.5897   -0.0732   -2.9725 H   0  0  0  0  0  0  0  0  0  0  0  0
    9.3435    0.2119   -1.3944 H   0  0  0  0  0  0  0  0  0  0  0  0
    7.9579    1.1934   -1.9014 H   0  0  0  0  0  0  0  0  0  0  0  0
    7.9245   -1.8124   -1.3015 H   0  0  0  0  0  0  0  0  0  0  0  0
    7.3030   -0.5514   -0.2341 H   0  0  0  0  0  0  0  0  0  0  0  0
    5.6434    0.1130   -1.9697 H   0  0  0  0  0  0  0  0  0  0  0  0
    6.2672   -1.1186   -3.0700 H   0  0  0  0  0  0  0  0  0  0  0  0
    4.2395   -2.0229   -1.9879 H   0  0  0  0  0  0  0  0  0  0  0  0
    5.6491   -2.9056   -1.4597 H   0  0  0  0  0  0  0  0  0  0  0  0
    4.3283   -1.2590    2.3859 H   0  0  0  0  0  0  0  0  0  0  0  0
    2.5584    0.2146    3.2808 H   0  0  0  0  0  0  0  0  0  0  0  0
   -0.4706    1.2860    0.3649 H   0  0  0  0  0  0  0  0  0  0  0  0
   -1.9763    3.0976    0.8298 H   0  0  0  0  0  0  0  0  0  0  0  0
   -1.1206    3.4014    2.3745 H   0  0  0  0  0  0  0  0  0  0  0  0
   -3.1081   -0.2081    3.9276 H   0  0  0  0  0  0  0  0  0  0  0  0
   -2.4874   -1.4966    2.9045 H   0  0  0  0  0  0  0  0  0  0  0  0
   -6.5331    0.2826    2.0599 H   0  0  0  0  0  0  0  0  0  0  0  0
   -7.4993    0.5283    0.7300 H   0  0  0  0  0  0  0  0  0  0  0  0
   -6.8741    1.9899   -1.1616 H   0  0  0  0  0  0  0  0  0  0  0  0
   -6.6997    1.1928   -2.7269 H   0  0  0  0  0  0  0  0  0  0  0  0
   -7.7296    0.4468   -1.4945 H   0  0  0  0  0  0  0  0  0  0  0  0
   -2.5284   -0.7885   -3.2318 H   0  0  0  0  0  0  0  0  0  0  0  0
   -1.7146   -1.6074   -1.8806 H   0  0  0  0  0  0  0  0  0  0  0  0
   -3.0592   -2.4120   -2.7290 H   0  0  0  0  0  0  0  0  0  0  0  0
    1.4824    1.3153   -0.7518 H   0  0  0  0  0  0  0  0  0  0  0  0
    3.2149   -0.1456   -1.6275 H   0  0  0  0  0  0  0  0  0  0  0  0
  1  2  1  0
  2  3  1  0
  3  4  1  0
  4  5  1  0
  5  6  1  0
  6  7  2  0
  7  8  1  0
  8  9  2  0
  9 10  1  0
 10 11  2  0
 10 12  1  0
 12 13  1  0
 13 14  1  0
 14 15  2  0
 14 16  1  0
 16 17  1  0
 17 18  1  0
 18 19  2  0
 18 20  1  0
 20 21  2  0
 21 22  1  0
 21 23  1  0
 23 24  1  0
 23 25  1  0
 25 26  2  0
 25 27  1  0
 27 28  1  0
 27 29  1  0
 29 30  2  0
  9 31  1  0
 31 32  2  0
 32  6  1  0
 29 20  1  0
  1 33  1  0
  1 34  1  0
  1 35  1  0
  2 36  1  0
  2 37  1  0
  3 38  1  0
  3 39  1  0
  4 40  1  0
  4 41  1  0
  7 42  1  0
  8 43  1  0
 12 44  1  0
 13 45  1  0
 13 46  1  0
 17 47  1  0
 17 48  1  0
 22 49  1  0
 22 50  1  0
 24 51  1  0
 24 52  1  0
 24 53  1  0
 28 54  1  0
 28 55  1  0
 28 56  1  0
 31 57  1  0
 32 58  1  0
M  END
$$$$
