
     RDKit          3D

 46 47  0  0  0  0  0  0  0  0999 V2000
    8.0339    1.1409   -1.3060 C   0  0  0  0  0  0  0  0  0  0  0  0
    7.4507   -0.1187   -0.9956 O   0  0  0  0  0  0  0  0  0  0  0  0
    6.0852   -0.1685   -0.9330 C   0  0  0  0  0  0  0  0  0  0  0  0
    5.2122    0.8940   -1.1636 C   0  0  0  0  0  0  0  0  0  0  0  0
    3.8290    0.7041   -1.0621 C   0  0  0  0  0  0  0  0  0  0  0  0
    3.3018   -0.5501   -0.7297 C   0  0  0  0  0  0  0  0  0  0  0  0
    1.8121   -0.7472   -0.5924 C   0  0  0  0  0  0  0  0  0  0  0  0
    1.3145   -0.2876    0.7767 C   0  0  0  0  0  0  0  0  0  0  0  0
   -0.1671   -0.5438    0.9457 C   0  0  0  0  0  0  0  0  0  0  0  0
   -0.8285   -1.2635    0.2014 O   0  0  0  0  0  0  0  0  0  0  0  0
   -0.6930    0.0873    2.0624 N   0  0  0  0  0  0  0  0  0  0  0  0
   -2.0968    0.1151    2.1788 N   0  0  0  0  0  0  0  0  0  0  0  0
   -2.7089    1.3555    2.0868 C   0  0  0  0  0  0  0  0  0  0  0  0
   -2.0740    2.4096    2.1651 O   0  0  0  0  0  0  0  0  0  0  0  0
   -4.2153    1.3271    1.9830 C   0  0  0  0  0  0  0  0  0  0  0  0
   -4.6606    0.4247    0.9401 N   0  0  0  0  0  0  0  0  0  0  0  0
   -4.6658   -0.8996    1.2039 N   0  0  0  0  0  0  0  0  0  0  0  0
   -5.0511   -1.4626    0.0525 C   0  0  0  0  0  0  0  0  0  0  0  0
   -5.1812   -2.9354   -0.0604 C   0  0  0  0  0  0  0  0  0  0  0  0
   -5.2967   -0.4899   -0.9428 C   0  0  0  0  0  0  0  0  0  0  0  0
   -5.0319    0.7237   -0.3452 C   0  0  0  0  0  0  0  0  0  0  0  0
   -5.0907    2.0991   -0.8952 C   0  0  0  0  0  0  0  0  0  0  0  0
    4.1815   -1.6136   -0.4992 C   0  0  0  0  0  0  0  0  0  0  0  0
    5.5610   -1.4215   -0.6036 C   0  0  0  0  0  0  0  0  0  0  0  0
    7.7844    1.8891   -0.5455 H   0  0  0  0  0  0  0  0  0  0  0  0
    7.7381    1.4777   -2.3063 H   0  0  0  0  0  0  0  0  0  0  0  0
    9.1214    1.0151   -1.3043 H   0  0  0  0  0  0  0  0  0  0  0  0
    5.5725    1.8841   -1.4261 H   0  0  0  0  0  0  0  0  0  0  0  0
    3.1644    1.5464   -1.2464 H   0  0  0  0  0  0  0  0  0  0  0  0
    1.2984   -0.1881   -1.3863 H   0  0  0  0  0  0  0  0  0  0  0  0
    1.5616   -1.8033   -0.7648 H   0  0  0  0  0  0  0  0  0  0  0  0
    1.8414   -0.8201    1.5790 H   0  0  0  0  0  0  0  0  0  0  0  0
    1.5053    0.7871    0.9047 H   0  0  0  0  0  0  0  0  0  0  0  0
   -0.2218    0.9116    2.4382 H   0  0  0  0  0  0  0  0  0  0  0  0
   -2.5934   -0.7046    1.8056 H   0  0  0  0  0  0  0  0  0  0  0  0
   -4.5920    2.3307    1.7637 H   0  0  0  0  0  0  0  0  0  0  0  0
   -4.6448    0.9942    2.9339 H   0  0  0  0  0  0  0  0  0  0  0  0
   -6.2208   -3.2355    0.1057 H   0  0  0  0  0  0  0  0  0  0  0  0
   -4.5536   -3.4485    0.6760 H   0  0  0  0  0  0  0  0  0  0  0  0
   -4.8794   -3.2764   -1.0555 H   0  0  0  0  0  0  0  0  0  0  0  0
   -5.6152   -0.6564   -1.9631 H   0  0  0  0  0  0  0  0  0  0  0  0
   -5.8887    2.6709   -0.4093 H   0  0  0  0  0  0  0  0  0  0  0  0
   -5.2958    2.0815   -1.9722 H   0  0  0  0  0  0  0  0  0  0  0  0
   -4.1388    2.6214   -0.7464 H   0  0  0  0  0  0  0  0  0  0  0  0
    3.8020   -2.5998   -0.2396 H   0  0  0  0  0  0  0  0  0  0  0  0
    6.2346   -2.2563   -0.4269 H   0  0  0  0  0  0  0  0  0  0  0  0
  1  2  1  0
  2  3  1  0
  3  4  2  0
  4  5  1  0
  5  6  2  0
  6  7  1  0
  7  8  1  0
  8  9  1  0
  9 10  2  0
  9 11  1  0
 11 12  1  0
 12 13  1  0
 13 14  2  0
 13 15  1  0
 15 16  1  0
 16 17  1  0
 17 18  2  0
 18 19  1  0
 18 20  1  0
 20 21  2  0
 21 22  1  0
  6 23  1  0
 23 24  2  0
 24  3  1  0
 21 16  1  0
  1 25  1  0
  1 26  1  0
  1 27  1  0
  4 28  1  0
  5 29  1  0
  7 30  1  0
  7 31  1  0
  8 32  1  0
  8 33  1  0
 11 34  1  0
 12 35  1  0
 15 36  1  0
 15 37  1  0
 19 38  1  0
 19 39  1  0
 19 40  1  0
 20 41  1  0
 22 42  1  0
 22 43  1  0
 22 44  1  0
 23 45  1  0
 24 46  1  0
M  END
$$$$
