
     RDKit          3D

 36 37  0  0  0  0  0  0  0  0999 V2000
   -0.6482   -1.8497    2.3862 O   0  0  0  0  0  0  0  0  0  0  0  0
   -0.5066   -0.6763    2.0537 C   0  0  0  0  0  0  0  0  0  0  0  0
    0.3928    0.2921    2.8256 C   0  0  0  0  0  0  0  0  0  0  0  0
    1.6956    0.4279    2.2527 O   0  0  0  0  0  0  0  0  0  0  0  0
    1.7658    1.2087    1.1499 C   0  0  0  0  0  0  0  0  0  0  0  0
    0.8196    1.7736    0.6209 O   0  0  0  0  0  0  0  0  0  0  0  0
    3.1622    1.2954    0.6486 C   0  0  0  0  0  0  0  0  0  0  0  0
    4.1974    0.5157    1.1798 C   0  0  0  0  0  0  0  0  0  0  0  0
    5.4887    0.6387    0.6653 C   0  0  0  0  0  0  0  0  0  0  0  0
    6.7596   -0.3169    1.3218 Cl  0  0  0  0  0  0  0  0  0  0  0  0
    5.7613    1.5265   -0.3727 C   0  0  0  0  0  0  0  0  0  0  0  0
    4.7278    2.2961   -0.9005 C   0  0  0  0  0  0  0  0  0  0  0  0
    5.0544    3.3966   -2.1822 Cl  0  0  0  0  0  0  0  0  0  0  0  0
    3.4322    2.1854   -0.3994 C   0  0  0  0  0  0  0  0  0  0  0  0
   -1.1451   -0.1156    0.9642 N   0  0  0  0  0  0  0  0  0  0  0  0
   -1.8472   -0.9543    0.0113 C   0  0  0  0  0  0  0  0  0  0  0  0
   -2.9111   -0.1746   -0.7645 C   0  0  0  0  0  0  0  0  0  0  0  0
   -3.6567   -1.0242   -1.6719 N   0  0  0  0  0  0  0  0  0  0  0  0
   -4.8341   -1.6721   -1.3828 C   0  0  0  0  0  0  0  0  0  0  0  0
   -5.4185   -1.5924   -0.1546 O   0  0  0  0  0  0  0  0  0  0  0  0
   -5.3390   -2.3854   -2.3935 C   0  0  0  0  0  0  0  0  0  0  0  0
   -4.3251   -2.3065   -3.7994 S   0  0  0  0  0  0  0  0  0  0  0  0
   -3.1751   -1.2563   -2.9569 C   0  0  0  0  0  0  0  0  0  0  0  0
   -2.1443   -0.8336   -3.4550 O   0  0  0  0  0  0  0  0  0  0  0  0
    0.5176   -0.1009    3.8405 H   0  0  0  0  0  0  0  0  0  0  0  0
   -0.0970    1.2685    2.9277 H   0  0  0  0  0  0  0  0  0  0  0  0
    4.0094   -0.1893    1.9864 H   0  0  0  0  0  0  0  0  0  0  0  0
    6.7702    1.6164   -0.7677 H   0  0  0  0  0  0  0  0  0  0  0  0
    2.6350    2.7941   -0.8226 H   0  0  0  0  0  0  0  0  0  0  0  0
   -0.7202    0.7434    0.6073 H   0  0  0  0  0  0  0  0  0  0  0  0
   -1.0978   -1.3746   -0.6696 H   0  0  0  0  0  0  0  0  0  0  0  0
   -2.3065   -1.7970    0.5408 H   0  0  0  0  0  0  0  0  0  0  0  0
   -2.4213    0.6163   -1.3472 H   0  0  0  0  0  0  0  0  0  0  0  0
   -3.6016    0.3344   -0.0823 H   0  0  0  0  0  0  0  0  0  0  0  0
   -4.7409   -1.3488    0.4939 H   0  0  0  0  0  0  0  0  0  0  0  0
   -6.2531   -2.9612   -2.3540 H   0  0  0  0  0  0  0  0  0  0  0  0
  1  2  2  0
  2  3  1  0
  3  4  1  0
  4  5  1  0
  5  6  2  0
  5  7  1  0
  7  8  2  0
  8  9  1  0
  9 10  1  0
  9 11  2  0
 11 12  1  0
 12 13  1  0
 12 14  2  0
  2 15  1  0
 15 16  1  0
 16 17  1  0
 17 18  1  0
 18 19  1  0
 19 20  1  0
 19 21  2  0
 21 22  1  0
 22 23  1  0
 23 24  2  0
 14  7  1  0
 23 18  1  0
  3 25  1  0
  3 26  1  0
  8 27  1  0
 11 28  1  0
 14 29  1  0
 15 30  1  0
 16 31  1  0
 16 32  1  0
 17 33  1  0
 17 34  1  0
 20 35  1  0
 21 36  1  0
M  END
$$$$
