
     RDKit          3D

 71 73  0  0  0  0  0  0  0  0999 V2000
   -5.8223   -2.2381    2.8559 C   0  0  0  0  0  0  0  0  0  0  0  0
   -6.2046   -1.0795    2.1288 O   0  0  0  0  0  0  0  0  0  0  0  0
   -5.4420   -0.7289    1.0417 C   0  0  0  0  0  0  0  0  0  0  0  0
   -4.2136   -1.3189    0.7153 C   0  0  0  0  0  0  0  0  0  0  0  0
   -3.5040   -0.8889   -0.4105 C   0  0  0  0  0  0  0  0  0  0  0  0
   -2.2128   -1.4756   -0.7725 C   0  0  0  0  0  0  0  0  0  0  0  0
   -1.5312   -1.0472   -1.8512 C   0  0  0  0  0  0  0  0  0  0  0  0
   -0.1961   -1.5996   -2.2694 C   0  0  0  0  0  0  0  0  0  0  0  0
    0.8459   -1.3111   -1.2540 N   0  0  0  0  0  0  0  0  0  0  0  0
    1.2092    0.1232   -1.1511 C   0  0  0  0  0  0  0  0  0  0  0  0
    0.7787    0.7659    0.1795 C   0  0  0  0  0  0  0  0  0  0  0  0
    0.9271    2.2760    0.1925 C   0  0  0  0  0  0  0  0  0  0  0  0
    2.1875    2.8400   -0.0925 C   0  0  0  0  0  0  0  0  0  0  0  0
    2.3754    4.2219   -0.0924 C   0  0  0  0  0  0  0  0  0  0  0  0
    1.3109    5.0652    0.2064 C   0  0  0  0  0  0  0  0  0  0  0  0
    0.0613    4.5264    0.5136 C   0  0  0  0  0  0  0  0  0  0  0  0
   -0.1464    3.1360    0.5168 C   0  0  0  0  0  0  0  0  0  0  0  0
   -1.5186    2.6161    0.8639 C   0  0  0  0  0  0  0  0  0  0  0  0
    1.4681   -2.3298   -0.5044 C   0  0  0  0  0  0  0  0  0  0  0  0
    0.9950   -3.9450   -0.5223 S   0  0  0  0  0  0  0  0  0  0  0  0
    2.5032   -1.8887    0.2936 N   0  0  0  0  0  0  0  0  0  0  0  0
    3.3869   -2.6731    1.1530 C   0  0  0  0  0  0  0  0  0  0  0  0
    4.6002   -3.2343    0.4069 C   0  0  0  0  0  0  0  0  0  0  0  0
    5.4085   -2.1848   -0.3734 C   0  0  0  0  0  0  0  0  0  0  0  0
    5.7791   -0.9909    0.4101 N   0  0  0  0  0  0  0  0  0  0  0  0
    6.3278    0.0385   -0.4779 C   0  0  0  0  0  0  0  0  0  0  0  0
    6.7645   -1.3169    1.4476 C   0  0  0  0  0  0  0  0  0  0  0  0
   -2.1163    0.0186   -2.7213 C   0  0  0  0  0  0  0  0  0  0  0  0
   -1.5513    0.4190   -3.7340 O   0  0  0  0  0  0  0  0  0  0  0  0
   -3.3207    0.5455   -2.3400 N   0  0  0  0  0  0  0  0  0  0  0  0
   -4.0315    0.1287   -1.2094 C   0  0  0  0  0  0  0  0  0  0  0  0
   -5.2485    0.7315   -0.8934 C   0  0  0  0  0  0  0  0  0  0  0  0
   -5.9549    0.3138    0.2399 C   0  0  0  0  0  0  0  0  0  0  0  0
   -7.1635    0.8390    0.6296 O   0  0  0  0  0  0  0  0  0  0  0  0
   -7.5542    2.0762    0.0507 C   0  0  0  0  0  0  0  0  0  0  0  0
   -5.7839   -3.1205    2.2092 H   0  0  0  0  0  0  0  0  0  0  0  0
   -4.8693   -2.0817    3.3704 H   0  0  0  0  0  0  0  0  0  0  0  0
   -6.5850   -2.4196    3.6203 H   0  0  0  0  0  0  0  0  0  0  0  0
   -3.7892   -2.1089    1.3259 H   0  0  0  0  0  0  0  0  0  0  0  0
   -1.8095   -2.2566   -0.1358 H   0  0  0  0  0  0  0  0  0  0  0  0
   -0.3014   -2.6682   -2.4720 H   0  0  0  0  0  0  0  0  0  0  0  0
    0.1614   -1.1717   -3.2123 H   0  0  0  0  0  0  0  0  0  0  0  0
    0.7489    0.6667   -1.9853 H   0  0  0  0  0  0  0  0  0  0  0  0
    2.2889    0.2140   -1.3126 H   0  0  0  0  0  0  0  0  0  0  0  0
   -0.2551    0.4745    0.3832 H   0  0  0  0  0  0  0  0  0  0  0  0
    1.3609    0.3685    1.0180 H   0  0  0  0  0  0  0  0  0  0  0  0
    3.0430    2.2058   -0.3171 H   0  0  0  0  0  0  0  0  0  0  0  0
    3.3527    4.6371   -0.3268 H   0  0  0  0  0  0  0  0  0  0  0  0
    1.4518    6.1425    0.2070 H   0  0  0  0  0  0  0  0  0  0  0  0
   -0.7573    5.2033    0.7580 H   0  0  0  0  0  0  0  0  0  0  0  0
   -1.9601    2.1231   -0.0066 H   0  0  0  0  0  0  0  0  0  0  0  0
   -1.4586    1.9133    1.7024 H   0  0  0  0  0  0  0  0  0  0  0  0
   -2.1935    3.4241    1.1678 H   0  0  0  0  0  0  0  0  0  0  0  0
    2.8912   -0.9797    0.1032 H   0  0  0  0  0  0  0  0  0  0  0  0
    3.7114   -2.0037    1.9575 H   0  0  0  0  0  0  0  0  0  0  0  0
    2.8272   -3.4852    1.6266 H   0  0  0  0  0  0  0  0  0  0  0  0
    4.2683   -4.0000   -0.3063 H   0  0  0  0  0  0  0  0  0  0  0  0
    5.2492   -3.7499    1.1262 H   0  0  0  0  0  0  0  0  0  0  0  0
    4.7994   -1.8743   -1.2321 H   0  0  0  0  0  0  0  0  0  0  0  0
    6.3038   -2.6625   -0.7915 H   0  0  0  0  0  0  0  0  0  0  0  0
    5.5823    0.3379   -1.2225 H   0  0  0  0  0  0  0  0  0  0  0  0
    6.5841    0.9424    0.0888 H   0  0  0  0  0  0  0  0  0  0  0  0
    7.2276   -0.3038   -1.0037 H   0  0  0  0  0  0  0  0  0  0  0  0
    6.3454   -2.0050    2.1885 H   0  0  0  0  0  0  0  0  0  0  0  0
    7.6701   -1.7703    1.0269 H   0  0  0  0  0  0  0  0  0  0  0  0
    7.0610   -0.4154    2.0010 H   0  0  0  0  0  0  0  0  0  0  0  0
   -3.6880    1.2708   -2.9405 H   0  0  0  0  0  0  0  0  0  0  0  0
   -5.6333    1.5110   -1.5398 H   0  0  0  0  0  0  0  0  0  0  0  0
   -7.8252    1.9479   -1.0025 H   0  0  0  0  0  0  0  0  0  0  0  0
   -6.7736    2.8347    0.1681 H   0  0  0  0  0  0  0  0  0  0  0  0
   -8.4427    2.4293    0.5822 H   0  0  0  0  0  0  0  0  0  0  0  0
  1  2  1  0
  2  3  1  0
  3  4  2  0
  4  5  1  0
  5  6  1  0
  6  7  2  0
  7  8  1  0
  8  9  1  0
  9 10  1  0
 10 11  1  0
 11 12  1  0
 12 13  2  0
 13 14  1  0
 14 15  2  0
 15 16  1  0
 16 17  2  0
 17 18  1  0
  9 19  1  0
 19 20  2  0
 19 21  1  0
 21 22  1  0
 22 23  1  0
 23 24  1  0
 24 25  1  0
 25 26  1  0
 25 27  1  0
  7 28  1  0
 28 29  2  0
 28 30  1  0
 30 31  1  0
 31 32  1  0
 32 33  2  0
 33 34  1  0
 34 35  1  0
 33  3  1  0
 31  5  2  0
 17 12  1  0
  1 36  1  0
  1 37  1  0
  1 38  1  0
  4 39  1  0
  6 40  1  0
  8 41  1  0
  8 42  1  0
 10 43  1  0
 10 44  1  0
 11 45  1  0
 11 46  1  0
 13 47  1  0
 14 48  1  0
 15 49  1  0
 16 50  1  0
 18 51  1  0
 18 52  1  0
 18 53  1  0
 21 54  1  0
 22 55  1  0
 22 56  1  0
 23 57  1  0
 23 58  1  0
 24 59  1  0
 24 60  1  0
 26 61  1  0
 26 62  1  0
 26 63  1  0
 27 64  1  0
 27 65  1  0
 27 66  1  0
 30 67  1  0
 32 68  1  0
 35 69  1  0
 35 70  1  0
 35 71  1  0
M  END
$$$$
