
     RDKit          3D

 28 28  0  0  0  0  0  0  0  0999 V2000
   -2.2760   -1.7402   -0.6994 C   0  0  0  0  0  0  0  0  0  0  0  0
   -1.8368   -0.4503    0.0175 C   0  0  0  0  0  0  0  0  0  0  0  0
   -1.2023   -0.8261    1.3617 C   0  0  0  0  0  0  0  0  0  0  0  0
   -3.0785    0.4235    0.2425 C   0  0  0  0  0  0  0  0  0  0  0  0
   -0.7962    0.2955   -0.8516 C   0  0  0  0  0  0  0  0  0  0  0  0
   -0.2791   -0.2615   -1.8241 O   0  0  0  0  0  0  0  0  0  0  0  0
   -0.4763    1.7401   -0.4747 C   0  0  0  0  0  0  0  0  0  0  0  0
    1.0856    2.3390   -1.1776 S   0  0  0  0  0  0  0  0  0  0  0  0
    2.2265    1.2415   -0.3754 C   0  0  0  0  0  0  0  0  0  0  0  0
    3.4354    1.1108   -0.9469 N   0  0  0  0  0  0  0  0  0  0  0  0
    4.3067    0.2941   -0.3289 C   0  0  0  0  0  0  0  0  0  0  0  0
    4.0224   -0.3744    0.8367 C   0  0  0  0  0  0  0  0  0  0  0  0
    2.7674   -0.1557    1.3511 C   0  0  0  0  0  0  0  0  0  0  0  0
    1.8537    0.6479    0.7742 N   0  0  0  0  0  0  0  0  0  0  0  0
   -3.0257   -2.2856   -0.1150 H   0  0  0  0  0  0  0  0  0  0  0  0
   -2.7119   -1.5185   -1.6805 H   0  0  0  0  0  0  0  0  0  0  0  0
   -1.4280   -2.4156   -0.8622 H   0  0  0  0  0  0  0  0  0  0  0  0
   -0.2975   -1.4268    1.2154 H   0  0  0  0  0  0  0  0  0  0  0  0
   -0.9165    0.0592    1.9391 H   0  0  0  0  0  0  0  0  0  0  0  0
   -1.8959   -1.4095    1.9777 H   0  0  0  0  0  0  0  0  0  0  0  0
   -3.4945    0.7691   -0.7107 H   0  0  0  0  0  0  0  0  0  0  0  0
   -3.8624   -0.1297    0.7720 H   0  0  0  0  0  0  0  0  0  0  0  0
   -2.8484    1.3116    0.8410 H   0  0  0  0  0  0  0  0  0  0  0  0
   -1.2803    2.3711   -0.8658 H   0  0  0  0  0  0  0  0  0  0  0  0
   -0.4502    1.8604    0.6109 H   0  0  0  0  0  0  0  0  0  0  0  0
    5.2715    0.1923   -0.8170 H   0  0  0  0  0  0  0  0  0  0  0  0
    4.7386   -1.0264    1.3162 H   0  0  0  0  0  0  0  0  0  0  0  0
    2.4486   -0.6358    2.2717 H   0  0  0  0  0  0  0  0  0  0  0  0
  1  2  1  0
  2  3  1  0
  2  4  1  0
  2  5  1  0
  5  6  2  0
  5  7  1  0
  7  8  1  0
  8  9  1  0
  9 10  2  0
 10 11  1  0
 11 12  2  0
 12 13  1  0
 13 14  2  0
 14  9  1  0
  1 15  1  0
  1 16  1  0
  1 17  1  0
  3 18  1  0
  3 19  1  0
  3 20  1  0
  4 21  1  0
  4 22  1  0
  4 23  1  0
  7 24  1  0
  7 25  1  0
 11 26  1  0
 12 27  1  0
 13 28  1  0
M  END
$$$$
