
     RDKit          3D

 46 49  0  0  0  0  0  0  0  0999 V2000
    4.6955   -1.2667    1.2953 O   0  0  0  0  0  0  0  0  0  0  0  0
    3.5514   -0.9873    0.9127 C   0  0  0  0  0  0  0  0  0  0  0  0
    2.3602   -1.7733    1.4504 C   0  0  0  0  0  0  0  0  0  0  0  0
    1.1814   -2.3219    0.1650 S   0  0  0  0  0  0  0  0  0  0  0  0
    0.0836   -0.9884    0.1508 C   0  0  0  0  0  0  0  0  0  0  0  0
    0.4482    0.2674    0.1074 N   0  0  0  0  0  0  0  0  0  0  0  0
   -0.6766    1.0339    0.1752 N   0  0  0  0  0  0  0  0  0  0  0  0
   -1.7168    0.2295    0.2795 C   0  0  0  0  0  0  0  0  0  0  0  0
   -3.1315    0.6523    0.5248 C   0  0  0  0  0  0  0  0  0  0  0  0
   -3.4156    0.9655    1.9770 C   0  0  0  0  0  0  0  0  0  0  0  0
   -4.0111    2.0988    2.4979 C   0  0  0  0  0  0  0  0  0  0  0  0
   -4.1674    2.0376    3.9147 C   0  0  0  0  0  0  0  0  0  0  0  0
   -3.6741    0.8597    4.4374 C   0  0  0  0  0  0  0  0  0  0  0  0
   -3.0581   -0.1707    3.2250 S   0  0  0  0  0  0  0  0  0  0  0  0
   -1.2763   -1.0758    0.1573 N   0  0  0  0  0  0  0  0  0  0  0  0
   -2.0859   -2.2775    0.1216 C   0  0  0  0  0  0  0  0  0  0  0  0
   -2.6399   -2.4886   -1.2383 C   0  0  0  0  0  0  0  0  0  0  0  0
   -2.1279   -2.9769   -2.4255 C   0  0  0  0  0  0  0  0  0  0  0  0
   -3.1862   -2.9279   -3.3653 C   0  0  0  0  0  0  0  0  0  0  0  0
   -4.2727   -2.4140   -2.6905 C   0  0  0  0  0  0  0  0  0  0  0  0
   -3.9549   -2.1524   -1.3999 O   0  0  0  0  0  0  0  0  0  0  0  0
    3.2189    0.0892    0.1094 N   0  0  0  0  0  0  0  0  0  0  0  0
    4.0690    1.0616   -0.4493 C   0  0  0  0  0  0  0  0  0  0  0  0
    3.4442    2.0611   -1.2107 C   0  0  0  0  0  0  0  0  0  0  0  0
    4.1909    3.0860   -1.7914 C   0  0  0  0  0  0  0  0  0  0  0  0
    5.5723    3.1233   -1.5961 C   0  0  0  0  0  0  0  0  0  0  0  0
    6.5783    4.5218   -2.3589 Br  0  0  0  0  0  0  0  0  0  0  0  0
    6.2063    2.1384   -0.8390 C   0  0  0  0  0  0  0  0  0  0  0  0
    5.4556    1.1027   -0.2718 C   0  0  0  0  0  0  0  0  0  0  0  0
    1.8609   -1.1743    2.2178 H   0  0  0  0  0  0  0  0  0  0  0  0
    2.7492   -2.6802    1.9302 H   0  0  0  0  0  0  0  0  0  0  0  0
   -3.3280    1.5484   -0.0778 H   0  0  0  0  0  0  0  0  0  0  0  0
   -3.8493   -0.1038    0.1840 H   0  0  0  0  0  0  0  0  0  0  0  0
   -4.3481    2.9324    1.8883 H   0  0  0  0  0  0  0  0  0  0  0  0
   -4.6323    2.8155    4.5219 H   0  0  0  0  0  0  0  0  0  0  0  0
   -3.6914    0.5375    5.4688 H   0  0  0  0  0  0  0  0  0  0  0  0
   -2.8892   -2.1653    0.8520 H   0  0  0  0  0  0  0  0  0  0  0  0
   -1.4907   -3.1394    0.4336 H   0  0  0  0  0  0  0  0  0  0  0  0
   -1.1165   -3.3248   -2.5983 H   0  0  0  0  0  0  0  0  0  0  0  0
   -3.1624   -3.2250   -4.4047 H   0  0  0  0  0  0  0  0  0  0  0  0
   -5.2943   -2.1914   -2.9719 H   0  0  0  0  0  0  0  0  0  0  0  0
    2.2212    0.2434   -0.0513 H   0  0  0  0  0  0  0  0  0  0  0  0
    2.3622    2.0526   -1.3599 H   0  0  0  0  0  0  0  0  0  0  0  0
    3.6802    3.8529   -2.3703 H   0  0  0  0  0  0  0  0  0  0  0  0
    7.2829    2.1628   -0.6843 H   0  0  0  0  0  0  0  0  0  0  0  0
    5.9846    0.3519    0.3088 H   0  0  0  0  0  0  0  0  0  0  0  0
  1  2  2  0
  2  3  1  0
  3  4  1  0
  4  5  1  0
  5  6  2  0
  6  7  1  0
  7  8  2  0
  8  9  1  0
  9 10  1  0
 10 11  2  0
 11 12  1  0
 12 13  2  0
 13 14  1  0
  8 15  1  0
 15 16  1  0
 16 17  1  0
 17 18  2  0
 18 19  1  0
 19 20  2  0
 20 21  1  0
  2 22  1  0
 22 23  1  0
 23 24  2  0
 24 25  1  0
 25 26  2  0
 26 27  1  0
 26 28  1  0
 28 29  2  0
 15  5  1  0
 21 17  1  0
 29 23  1  0
 14 10  1  0
  3 30  1  0
  3 31  1  0
  9 32  1  0
  9 33  1  0
 11 34  1  0
 12 35  1  0
 13 36  1  0
 16 37  1  0
 16 38  1  0
 18 39  1  0
 19 40  1  0
 20 41  1  0
 22 42  1  0
 24 43  1  0
 25 44  1  0
 28 45  1  0
 29 46  1  0
M  END
$$$$
