
     RDKit          3D

 41 43  0  0  0  0  0  0  0  0999 V2000
    8.0404    0.5227    1.4649 C   0  0  0  0  0  0  0  0  0  0  0  0
    6.7073    0.4576    1.3270 C   0  0  0  0  0  0  0  0  0  0  0  0
    6.1110    0.3472    0.0014 C   0  0  0  0  0  0  0  0  0  0  0  0
    4.7746    0.2844   -0.1410 C   0  0  0  0  0  0  0  0  0  0  0  0
    3.8743    0.3265    1.0331 C   0  0  0  0  0  0  0  0  0  0  0  0
    2.5266    0.2682    0.8876 C   0  0  0  0  0  0  0  0  0  0  0  0
    1.8728    0.1675   -0.3115 N   0  0  0  0  0  0  0  0  0  0  0  0
    0.5029    0.1165   -0.3096 C   0  0  0  0  0  0  0  0  0  0  0  0
   -0.1719    0.0324   -1.3216 O   0  0  0  0  0  0  0  0  0  0  0  0
    0.0212    0.1841    1.0971 C   0  0  0  0  0  0  0  0  0  0  0  0
   -1.2483    0.1654    1.5290 C   0  0  0  0  0  0  0  0  0  0  0  0
   -2.4388    0.0536    0.6851 C   0  0  0  0  0  0  0  0  0  0  0  0
   -3.2785    1.1594    0.5191 C   0  0  0  0  0  0  0  0  0  0  0  0
   -4.4345    1.0663   -0.2677 C   0  0  0  0  0  0  0  0  0  0  0  0
   -4.7637   -0.1342   -0.9016 C   0  0  0  0  0  0  0  0  0  0  0  0
   -5.8702   -0.3349   -1.6836 O   0  0  0  0  0  0  0  0  0  0  0  0
   -6.7799    0.7478   -1.8164 C   0  0  0  0  0  0  0  0  0  0  0  0
   -3.9051   -1.2325   -0.7415 C   0  0  0  0  0  0  0  0  0  0  0  0
   -4.1858   -2.4468   -1.3201 O   0  0  0  0  0  0  0  0  0  0  0  0
   -3.6880   -2.4646   -2.6589 C   0  0  0  0  0  0  0  0  0  0  0  0
   -2.7658   -1.1521    0.0629 C   0  0  0  0  0  0  0  0  0  0  0  0
    1.3649    0.3121    2.1939 S   0  0  0  0  0  0  0  0  0  0  0  0
    4.5089    0.4334    2.3660 C   0  0  0  0  0  0  0  0  0  0  0  0
    5.8457    0.4951    2.5019 C   0  0  0  0  0  0  0  0  0  0  0  0
    8.5113    0.6041    2.4399 H   0  0  0  0  0  0  0  0  0  0  0  0
    8.7067    0.4968    0.6082 H   0  0  0  0  0  0  0  0  0  0  0  0
    6.7582    0.3159   -0.8697 H   0  0  0  0  0  0  0  0  0  0  0  0
    4.3716    0.2019   -1.1424 H   0  0  0  0  0  0  0  0  0  0  0  0
    2.3386    0.1299   -1.2036 H   0  0  0  0  0  0  0  0  0  0  0  0
   -1.4645    0.2426    2.5925 H   0  0  0  0  0  0  0  0  0  0  0  0
   -3.0408    2.1067    0.9984 H   0  0  0  0  0  0  0  0  0  0  0  0
   -5.0529    1.9523   -0.3643 H   0  0  0  0  0  0  0  0  0  0  0  0
   -7.1948    1.0381   -0.8454 H   0  0  0  0  0  0  0  0  0  0  0  0
   -6.3082    1.5998   -2.3169 H   0  0  0  0  0  0  0  0  0  0  0  0
   -7.6101    0.4116   -2.4450 H   0  0  0  0  0  0  0  0  0  0  0  0
   -3.8846   -3.4574   -3.0750 H   0  0  0  0  0  0  0  0  0  0  0  0
   -4.1978   -1.7271   -3.2885 H   0  0  0  0  0  0  0  0  0  0  0  0
   -2.6052   -2.2966   -2.6829 H   0  0  0  0  0  0  0  0  0  0  0  0
   -2.1373   -2.0299    0.1825 H   0  0  0  0  0  0  0  0  0  0  0  0
    3.8965    0.4633    3.2606 H   0  0  0  0  0  0  0  0  0  0  0  0
    6.2931    0.5731    3.4878 H   0  0  0  0  0  0  0  0  0  0  0  0
  1  2  2  0
  2  3  1  0
  3  4  2  0
  4  5  1  0
  5  6  2  3
  6  7  1  0
  7  8  1  0
  8  9  2  0
  8 10  1  0
 10 11  2  3
 11 12  1  0
 12 13  2  0
 13 14  1  0
 14 15  2  0
 15 16  1  0
 16 17  1  0
 15 18  1  0
 18 19  1  0
 19 20  1  0
 18 21  2  0
 10 22  1  0
  5 23  1  0
 23 24  2  0
 24  2  1  0
 22  6  1  0
 21 12  1  0
  1 25  1  0
  1 26  1  0
  3 27  1  0
  4 28  1  0
  7 29  1  0
 11 30  1  0
 13 31  1  0
 14 32  1  0
 17 33  1  0
 17 34  1  0
 17 35  1  0
 20 36  1  0
 20 37  1  0
 20 38  1  0
 21 39  1  0
 23 40  1  0
 24 41  1  0
M  END
$$$$
