
     RDKit          3D

 39 40  0  0  0  0  0  0  0  0999 V2000
   -1.2938    0.6495    2.7022 O   0  0  0  0  0  0  0  0  0  0  0  0
   -0.9802    0.8546    1.5294 C   0  0  0  0  0  0  0  0  0  0  0  0
   -1.9640    0.7188    0.4180 C   0  0  0  0  0  0  0  0  0  0  0  0
   -3.2649    0.5445    0.6908 C   0  0  0  0  0  0  0  0  0  0  0  0
   -4.3097    0.3893   -0.3306 C   0  0  0  0  0  0  0  0  0  0  0  0
   -4.2796    1.0803   -1.5507 C   0  0  0  0  0  0  0  0  0  0  0  0
   -5.3105    0.9271   -2.4838 C   0  0  0  0  0  0  0  0  0  0  0  0
   -6.3798    0.0887   -2.1907 C   0  0  0  0  0  0  0  0  0  0  0  0
   -7.4066   -0.0904   -3.0689 O   0  0  0  0  0  0  0  0  0  0  0  0
   -6.4364   -0.5920   -0.9821 C   0  0  0  0  0  0  0  0  0  0  0  0
   -5.4062   -0.4378   -0.0512 C   0  0  0  0  0  0  0  0  0  0  0  0
    0.4259    1.2325    1.1597 C   0  0  0  0  0  0  0  0  0  0  0  0
    1.3088    0.0232    1.0495 C   0  0  0  0  0  0  0  0  0  0  0  0
    1.3317   -0.6553    0.0247 O   0  0  0  0  0  0  0  0  0  0  0  0
    2.0970   -0.3428    2.2590 C   0  0  0  0  0  0  0  0  0  0  0  0
    3.4028   -0.6462    2.2727 C   0  0  0  0  0  0  0  0  0  0  0  0
    4.3096   -0.6743    1.1232 C   0  0  0  0  0  0  0  0  0  0  0  0
    5.3288    0.2818    1.0288 C   0  0  0  0  0  0  0  0  0  0  0  0
    6.2107    0.2671   -0.0548 C   0  0  0  0  0  0  0  0  0  0  0  0
    6.0772   -0.7064   -1.0372 C   0  0  0  0  0  0  0  0  0  0  0  0
    6.9515   -0.6782   -2.0841 O   0  0  0  0  0  0  0  0  0  0  0  0
    5.0786   -1.6723   -0.9524 C   0  0  0  0  0  0  0  0  0  0  0  0
    4.1968   -1.6559    0.1319 C   0  0  0  0  0  0  0  0  0  0  0  0
   -1.5747    0.7540   -0.5924 H   0  0  0  0  0  0  0  0  0  0  0  0
   -3.6022    0.4889    1.7241 H   0  0  0  0  0  0  0  0  0  0  0  0
   -3.4607    1.7559   -1.7879 H   0  0  0  0  0  0  0  0  0  0  0  0
   -5.2624    1.4721   -3.4210 H   0  0  0  0  0  0  0  0  0  0  0  0
   -7.2274    0.4299   -3.8684 H   0  0  0  0  0  0  0  0  0  0  0  0
   -7.2794   -1.2410   -0.7613 H   0  0  0  0  0  0  0  0  0  0  0  0
   -5.4664   -0.9780    0.8912 H   0  0  0  0  0  0  0  0  0  0  0  0
    0.8142    1.9290    1.9122 H   0  0  0  0  0  0  0  0  0  0  0  0
    0.4491    1.7772    0.2097 H   0  0  0  0  0  0  0  0  0  0  0  0
    1.5454   -0.2956    3.1932 H   0  0  0  0  0  0  0  0  0  0  0  0
    3.8803   -0.8561    3.2274 H   0  0  0  0  0  0  0  0  0  0  0  0
    5.4426    1.0487    1.7917 H   0  0  0  0  0  0  0  0  0  0  0  0
    6.9948    1.0150   -0.1356 H   0  0  0  0  0  0  0  0  0  0  0  0
    6.6898   -1.3671   -2.7171 H   0  0  0  0  0  0  0  0  0  0  0  0
    4.9625   -2.4349   -1.7143 H   0  0  0  0  0  0  0  0  0  0  0  0
    3.4070   -2.4037    0.1872 H   0  0  0  0  0  0  0  0  0  0  0  0
  1  2  2  0
  2  3  1  0
  3  4  2  3
  4  5  1  0
  5  6  2  0
  6  7  1  0
  7  8  2  0
  8  9  1  0
  8 10  1  0
 10 11  2  0
  2 12  1  0
 12 13  1  0
 13 14  2  0
 13 15  1  0
 15 16  2  3
 16 17  1  0
 17 18  2  0
 18 19  1  0
 19 20  2  0
 20 21  1  0
 20 22  1  0
 22 23  2  0
 11  5  1  0
 23 17  1  0
  3 24  1  0
  4 25  1  0
  6 26  1  0
  7 27  1  0
  9 28  1  0
 10 29  1  0
 11 30  1  0
 12 31  1  0
 12 32  1  0
 15 33  1  0
 16 34  1  0
 18 35  1  0
 19 36  1  0
 21 37  1  0
 22 38  1  0
 23 39  1  0
M  END
$$$$
