
     RDKit          3D

 49 50  0  0  0  0  0  0  0  0999 V2000
    6.8795   -0.9357   -0.5738 C   0  0  0  0  0  0  0  0  0  0  0  0
    6.1474    0.0731    0.2912 C   0  0  0  0  0  0  0  0  0  0  0  0
    4.8251    0.2921   -0.2171 O   0  0  0  0  0  0  0  0  0  0  0  0
    3.8629   -0.5732    0.2199 C   0  0  0  0  0  0  0  0  0  0  0  0
    4.0850   -1.4916    1.0019 O   0  0  0  0  0  0  0  0  0  0  0  0
    2.5350   -0.2840   -0.3442 C   0  0  0  0  0  0  0  0  0  0  0  0
    2.1819    0.6175   -1.4119 C   0  0  0  0  0  0  0  0  0  0  0  0
    3.1231    1.4673   -2.2000 C   0  0  0  0  0  0  0  0  0  0  0  0
    0.8056    0.5472   -1.5820 C   0  0  0  0  0  0  0  0  0  0  0  0
   -0.0744    1.2894   -2.5337 C   0  0  0  0  0  0  0  0  0  0  0  0
    0.3165   -0.3950   -0.6980 N   0  0  0  0  0  0  0  0  0  0  0  0
   -1.0776   -0.8565   -0.6484 C   0  0  0  0  0  0  0  0  0  0  0  0
   -1.9833   -0.0712    0.2790 C   0  0  0  0  0  0  0  0  0  0  0  0
   -1.5214    0.9476    1.1257 C   0  0  0  0  0  0  0  0  0  0  0  0
   -2.3990    1.6237    1.9722 C   0  0  0  0  0  0  0  0  0  0  0  0
   -3.7517    1.2841    2.0042 C   0  0  0  0  0  0  0  0  0  0  0  0
   -4.2453    0.2669    1.1835 C   0  0  0  0  0  0  0  0  0  0  0  0
   -5.5489   -0.1557    1.1846 O   0  0  0  0  0  0  0  0  0  0  0  0
   -6.4079    0.3607    2.1925 C   0  0  0  0  0  0  0  0  0  0  0  0
   -3.3595   -0.3855    0.3013 C   0  0  0  0  0  0  0  0  0  0  0  0
   -3.7538   -1.4097   -0.5319 O   0  0  0  0  0  0  0  0  0  0  0  0
   -4.8373   -1.0555   -1.3909 C   0  0  0  0  0  0  0  0  0  0  0  0
    1.3472   -0.8753    0.0866 C   0  0  0  0  0  0  0  0  0  0  0  0
    1.1378   -1.8676    1.1862 C   0  0  0  0  0  0  0  0  0  0  0  0
    7.9105   -1.0637   -0.2323 H   0  0  0  0  0  0  0  0  0  0  0  0
    6.8911   -0.6088   -1.6188 H   0  0  0  0  0  0  0  0  0  0  0  0
    6.3803   -1.9095   -0.5505 H   0  0  0  0  0  0  0  0  0  0  0  0
    6.1274   -0.2367    1.3423 H   0  0  0  0  0  0  0  0  0  0  0  0
    6.6677    1.0357    0.2517 H   0  0  0  0  0  0  0  0  0  0  0  0
    3.5305    2.2664   -1.5728 H   0  0  0  0  0  0  0  0  0  0  0  0
    3.9496    0.8657   -2.5918 H   0  0  0  0  0  0  0  0  0  0  0  0
    2.6343    1.9333   -3.0601 H   0  0  0  0  0  0  0  0  0  0  0  0
    0.4011    2.2110   -2.8815 H   0  0  0  0  0  0  0  0  0  0  0  0
   -0.2943    0.6682   -3.4076 H   0  0  0  0  0  0  0  0  0  0  0  0
   -1.0187    1.5810   -2.0643 H   0  0  0  0  0  0  0  0  0  0  0  0
   -1.4589   -0.8122   -1.6754 H   0  0  0  0  0  0  0  0  0  0  0  0
   -1.0608   -1.9131   -0.3583 H   0  0  0  0  0  0  0  0  0  0  0  0
   -0.4711    1.2327    1.1430 H   0  0  0  0  0  0  0  0  0  0  0  0
   -2.0223    2.4128    2.6190 H   0  0  0  0  0  0  0  0  0  0  0  0
   -4.3918    1.8312    2.6881 H   0  0  0  0  0  0  0  0  0  0  0  0
   -6.0201    0.1480    3.1943 H   0  0  0  0  0  0  0  0  0  0  0  0
   -7.3746   -0.1430    2.0969 H   0  0  0  0  0  0  0  0  0  0  0  0
   -6.5775    1.4330    2.0513 H   0  0  0  0  0  0  0  0  0  0  0  0
   -4.8743    0.0175   -1.6120 H   0  0  0  0  0  0  0  0  0  0  0  0
   -4.6939   -1.5845   -2.3382 H   0  0  0  0  0  0  0  0  0  0  0  0
   -5.7845   -1.3965   -0.9632 H   0  0  0  0  0  0  0  0  0  0  0  0
    1.3619   -2.8773    0.8285 H   0  0  0  0  0  0  0  0  0  0  0  0
    1.7866   -1.6475    2.0394 H   0  0  0  0  0  0  0  0  0  0  0  0
    0.1149   -1.8569    1.5719 H   0  0  0  0  0  0  0  0  0  0  0  0
  1  2  1  0
  2  3  1  0
  3  4  1  0
  4  5  2  0
  4  6  1  0
  6  7  1  0
  7  8  1  0
  7  9  2  0
  9 10  1  0
  9 11  1  0
 11 12  1  0
 12 13  1  0
 13 14  2  0
 14 15  1  0
 15 16  2  0
 16 17  1  0
 17 18  1  0
 18 19  1  0
 17 20  2  0
 20 21  1  0
 21 22  1  0
 11 23  1  0
 23 24  1  0
 23  6  2  0
 20 13  1  0
  1 25  1  0
  1 26  1  0
  1 27  1  0
  2 28  1  0
  2 29  1  0
  8 30  1  0
  8 31  1  0
  8 32  1  0
 10 33  1  0
 10 34  1  0
 10 35  1  0
 12 36  1  0
 12 37  1  0
 14 38  1  0
 15 39  1  0
 16 40  1  0
 19 41  1  0
 19 42  1  0
 19 43  1  0
 22 44  1  0
 22 45  1  0
 22 46  1  0
 24 47  1  0
 24 48  1  0
 24 49  1  0
M  END
$$$$
