
     RDKit          3D

 46 48  0  0  0  0  0  0  0  0999 V2000
   -2.1522   -1.5091   -2.2936 C   0  0  0  0  0  0  0  0  0  0  0  0
   -2.0689   -1.7249   -0.7940 C   0  0  0  0  0  0  0  0  0  0  0  0
   -2.6229   -0.5375   -0.0755 N   0  0  0  0  0  4  0  0  0  0  0  0
   -1.7694    0.4462    0.3421 C   0  0  0  0  0  0  0  0  0  0  0  0
   -0.3398    0.4051    0.0067 C   0  0  0  0  0  0  0  0  0  0  0  0
    0.6083    0.2270    0.9412 C   0  0  0  0  0  0  0  0  0  0  0  0
    2.0515    0.2089    0.6526 C   0  0  0  0  0  0  0  0  0  0  0  0
    2.5764   -0.3480   -0.5180 C   0  0  0  0  0  0  0  0  0  0  0  0
    3.9573   -0.3699   -0.7404 C   0  0  0  0  0  0  0  0  0  0  0  0
    4.8360    0.1562    0.2096 C   0  0  0  0  0  0  0  0  0  0  0  0
    6.2009    0.1775    0.0775 O   0  0  0  0  0  0  0  0  0  0  0  0
    6.7636   -0.3467   -1.1166 C   0  0  0  0  0  0  0  0  0  0  0  0
    4.3206    0.7050    1.3997 C   0  0  0  0  0  0  0  0  0  0  0  0
    5.2485    1.1942    2.2847 O   0  0  0  0  0  0  0  0  0  0  0  0
    4.7834    1.7652    3.4984 C   0  0  0  0  0  0  0  0  0  0  0  0
    2.9358    0.7217    1.6133 C   0  0  0  0  0  0  0  0  0  0  0  0
   -2.2406    1.5374    1.0729 C   0  0  0  0  0  0  0  0  0  0  0  0
   -3.5830    1.6372    1.3845 C   0  0  0  0  0  0  0  0  0  0  0  0
   -4.4585    0.6500    0.9511 C   0  0  0  0  0  0  0  0  0  0  0  0
   -5.8237    0.7562    1.2554 C   0  0  0  0  0  0  0  0  0  0  0  0
   -6.7248   -0.2130    0.8247 C   0  0  0  0  0  0  0  0  0  0  0  0
   -6.2714   -1.2949    0.0831 C   0  0  0  0  0  0  0  0  0  0  0  0
   -4.9121   -1.4149   -0.2266 C   0  0  0  0  0  0  0  0  0  0  0  0
   -3.9705   -0.4566    0.2009 C   0  0  0  0  0  0  0  0  0  0  0  0
   -1.5852   -0.6253   -2.6010 H   0  0  0  0  0  0  0  0  0  0  0  0
   -1.7438   -2.3755   -2.8226 H   0  0  0  0  0  0  0  0  0  0  0  0
   -3.1851   -1.3661   -2.6243 H   0  0  0  0  0  0  0  0  0  0  0  0
   -2.6099   -2.6195   -0.4735 H   0  0  0  0  0  0  0  0  0  0  0  0
   -1.0358   -1.8965   -0.4795 H   0  0  0  0  0  0  0  0  0  0  0  0
   -0.0897    0.5571   -1.0399 H   0  0  0  0  0  0  0  0  0  0  0  0
    0.3471    0.1085    1.9927 H   0  0  0  0  0  0  0  0  0  0  0  0
    1.9311   -0.7846   -1.2749 H   0  0  0  0  0  0  0  0  0  0  0  0
    4.3185   -0.8104   -1.6642 H   0  0  0  0  0  0  0  0  0  0  0  0
    6.4227    0.2138   -1.9932 H   0  0  0  0  0  0  0  0  0  0  0  0
    7.8502   -0.2348   -1.0522 H   0  0  0  0  0  0  0  0  0  0  0  0
    6.5446   -1.4145   -1.2196 H   0  0  0  0  0  0  0  0  0  0  0  0
    4.2546    1.0236    4.1059 H   0  0  0  0  0  0  0  0  0  0  0  0
    5.6560    2.1000    4.0675 H   0  0  0  0  0  0  0  0  0  0  0  0
    4.1549    2.6411    3.3070 H   0  0  0  0  0  0  0  0  0  0  0  0
    2.5287    1.1420    2.5275 H   0  0  0  0  0  0  0  0  0  0  0  0
   -1.5596    2.3237    1.3976 H   0  0  0  0  0  0  0  0  0  0  0  0
   -3.9364    2.4949    1.9565 H   0  0  0  0  0  0  0  0  0  0  0  0
   -6.2059    1.5992    1.8316 H   0  0  0  0  0  0  0  0  0  0  0  0
   -7.7830   -0.1198    1.0653 H   0  0  0  0  0  0  0  0  0  0  0  0
   -6.9803   -2.0484   -0.2586 H   0  0  0  0  0  0  0  0  0  0  0  0
   -4.6382   -2.2808   -0.8211 H   0  0  0  0  0  0  0  0  0  0  0  0
  1  2  1  0
  2  3  1  0
  3  4  2  0
  4  5  1  0
  5  6  2  3
  6  7  1  0
  7  8  2  0
  8  9  1  0
  9 10  2  0
 10 11  1  0
 11 12  1  0
 10 13  1  0
 13 14  1  0
 14 15  1  0
 13 16  2  0
  4 17  1  0
 17 18  2  0
 18 19  1  0
 19 20  2  0
 20 21  1  0
 21 22  2  0
 22 23  1  0
 23 24  2  0
 24  3  1  0
 16  7  1  0
 24 19  1  0
  1 25  1  0
  1 26  1  0
  1 27  1  0
  2 28  1  0
  2 29  1  0
  5 30  1  0
  6 31  1  0
  8 32  1  0
  9 33  1  0
 12 34  1  0
 12 35  1  0
 12 36  1  0
 15 37  1  0
 15 38  1  0
 15 39  1  0
 16 40  1  0
 17 41  1  0
 18 42  1  0
 20 43  1  0
 21 44  1  0
 22 45  1  0
 23 46  1  0
M  CHG  1   3   1
M  END
$$$$
