
     RDKit          3D

 63 67  0  0  0  0  0  0  0  0999 V2000
    5.6569    2.2957   -4.1411 C   0  0  0  0  0  0  0  0  0  0  0  0
    5.7427    0.8066   -3.8724 C   0  0  0  0  0  0  0  0  0  0  0  0
    4.9335    0.4703   -2.7374 O   0  0  0  0  0  0  0  0  0  0  0  0
    5.5637    0.5081   -1.5279 C   0  0  0  0  0  0  0  0  0  0  0  0
    6.7377    0.8172   -1.3635 O   0  0  0  0  0  0  0  0  0  0  0  0
    4.6739    0.1377   -0.4346 C   0  0  0  0  0  0  0  0  0  0  0  0
    3.2896   -0.1977   -0.4789 C   0  0  0  0  0  0  0  0  0  0  0  0
    2.8599   -0.4580    0.8118 C   0  0  0  0  0  0  0  0  0  0  0  0
    1.5588   -0.8311    1.3531 C   0  0  0  0  0  0  0  0  0  0  0  0
    0.3919   -0.8667    0.5965 N   0  0  0  0  0  0  0  0  0  0  0  0
    0.0925    0.1658   -0.4065 C   0  0  0  0  0  0  0  0  0  0  0  0
   -1.3536    0.6974   -0.2814 C   0  0  0  0  0  0  0  0  0  0  0  0
   -2.4194   -0.3255   -0.3317 N   0  0  0  0  0  0  0  0  0  0  0  0
   -3.1136   -0.4017   -1.6281 C   0  0  0  0  0  0  0  0  0  0  0  0
   -4.0675    0.7805   -1.9117 C   0  0  0  0  0  0  0  0  0  0  0  0
   -5.3093    0.7906   -1.0378 C   0  0  0  0  0  0  0  0  0  0  0  0
   -5.2199    1.3655    0.2442 C   0  0  0  0  0  0  0  0  0  0  0  0
   -6.3190    1.3947    1.1018 C   0  0  0  0  0  0  0  0  0  0  0  0
   -7.5308    0.8518    0.6926 C   0  0  0  0  0  0  0  0  0  0  0  0
   -7.6426    0.2791   -0.5735 C   0  0  0  0  0  0  0  0  0  0  0  0
   -6.5417    0.2337   -1.4532 C   0  0  0  0  0  0  0  0  0  0  0  0
   -6.7239   -0.3878   -2.8200 C   0  0  0  0  0  0  0  0  0  0  0  0
   -7.9260   -1.0143   -2.9833 F   0  0  0  0  0  0  0  0  0  0  0  0
   -6.6516    0.5311   -3.8239 F   0  0  0  0  0  0  0  0  0  0  0  0
   -5.7825   -1.3281   -3.1077 F   0  0  0  0  0  0  0  0  0  0  0  0
   -1.8989   -1.6530    0.0633 C   0  0  0  0  0  0  0  0  0  0  0  0
   -0.7880   -1.5748    1.1283 C   0  0  0  0  0  0  0  0  0  0  0  0
    1.4857   -1.1594    2.6197 N   0  0  0  0  0  0  0  0  0  0  0  0
    2.6196   -1.0917    3.4516 C   0  0  0  0  0  0  0  0  0  0  0  0
    2.4758   -1.4335    4.7977 C   0  0  0  0  0  0  0  0  0  0  0  0
    3.5655   -1.3665    5.6709 C   0  0  0  0  0  0  0  0  0  0  0  0
    4.8142   -0.9548    5.2030 C   0  0  0  0  0  0  0  0  0  0  0  0
    4.9813   -0.6109    3.8614 C   0  0  0  0  0  0  0  0  0  0  0  0
    3.8813   -0.6817    3.0001 C   0  0  0  0  0  0  0  0  0  0  0  0
    3.9620   -0.3676    1.6332 N   0  0  0  0  0  0  0  0  0  0  0  0
    5.0479    0.0358    0.8956 C   0  0  0  0  0  0  0  0  0  0  0  0
    6.0147    2.8714   -3.2812 H   0  0  0  0  0  0  0  0  0  0  0  0
    4.6197    2.6002   -4.3163 H   0  0  0  0  0  0  0  0  0  0  0  0
    6.2560    2.5661   -5.0172 H   0  0  0  0  0  0  0  0  0  0  0  0
    5.3445    0.2521   -4.7280 H   0  0  0  0  0  0  0  0  0  0  0  0
    6.7808    0.4857   -3.7391 H   0  0  0  0  0  0  0  0  0  0  0  0
    2.6789   -0.2407   -1.3711 H   0  0  0  0  0  0  0  0  0  0  0  0
    0.7656    1.0241   -0.2989 H   0  0  0  0  0  0  0  0  0  0  0  0
    0.2433   -0.2572   -1.4069 H   0  0  0  0  0  0  0  0  0  0  0  0
   -1.4426    1.1983    0.6923 H   0  0  0  0  0  0  0  0  0  0  0  0
   -1.5045    1.4828   -1.0303 H   0  0  0  0  0  0  0  0  0  0  0  0
   -2.3751   -0.4733   -2.4380 H   0  0  0  0  0  0  0  0  0  0  0  0
   -3.7085   -1.3231   -1.6664 H   0  0  0  0  0  0  0  0  0  0  0  0
   -3.5532    1.7435   -1.8061 H   0  0  0  0  0  0  0  0  0  0  0  0
   -4.3583    0.7451   -2.9684 H   0  0  0  0  0  0  0  0  0  0  0  0
   -4.2758    1.7843    0.5882 H   0  0  0  0  0  0  0  0  0  0  0  0
   -6.2233    1.8376    2.0906 H   0  0  0  0  0  0  0  0  0  0  0  0
   -8.3895    0.8711    1.3585 H   0  0  0  0  0  0  0  0  0  0  0  0
   -8.6028   -0.1397   -0.8735 H   0  0  0  0  0  0  0  0  0  0  0  0
   -1.4950   -2.1802   -0.8130 H   0  0  0  0  0  0  0  0  0  0  0  0
   -2.7281   -2.2536    0.4523 H   0  0  0  0  0  0  0  0  0  0  0  0
   -0.5057   -2.5957    1.4134 H   0  0  0  0  0  0  0  0  0  0  0  0
   -1.1635   -1.0654    2.0248 H   0  0  0  0  0  0  0  0  0  0  0  0
    1.5038   -1.7524    5.1667 H   0  0  0  0  0  0  0  0  0  0  0  0
    3.4376   -1.6360    6.7169 H   0  0  0  0  0  0  0  0  0  0  0  0
    5.6569   -0.9050    5.8879 H   0  0  0  0  0  0  0  0  0  0  0  0
    5.9624   -0.2986    3.5198 H   0  0  0  0  0  0  0  0  0  0  0  0
    6.0155    0.2022    1.3490 H   0  0  0  0  0  0  0  0  0  0  0  0
  1  2  1  0
  2  3  1  0
  3  4  1  0
  4  5  2  0
  4  6  1  0
  6  7  1  0
  7  8  2  0
  8  9  1  0
  9 10  1  0
 10 11  1  0
 11 12  1  0
 12 13  1  0
 13 14  1  0
 14 15  1  0
 15 16  1  0
 16 17  2  0
 17 18  1  0
 18 19  2  0
 19 20  1  0
 20 21  2  0
 21 22  1  0
 22 23  1  0
 22 24  1  0
 22 25  1  0
 13 26  1  0
 26 27  1  0
  9 28  2  0
 28 29  1  0
 29 30  2  0
 30 31  1  0
 31 32  2  0
 32 33  1  0
 33 34  2  0
 34 35  1  0
 35 36  1  0
 36  6  2  0
 35  8  1  0
 27 10  1  0
 34 29  1  0
 21 16  1  0
  1 37  1  0
  1 38  1  0
  1 39  1  0
  2 40  1  0
  2 41  1  0
  7 42  1  0
 11 43  1  0
 11 44  1  0
 12 45  1  0
 12 46  1  0
 14 47  1  0
 14 48  1  0
 15 49  1  0
 15 50  1  0
 17 51  1  0
 18 52  1  0
 19 53  1  0
 20 54  1  0
 26 55  1  0
 26 56  1  0
 27 57  1  0
 27 58  1  0
 30 59  1  0
 31 60  1  0
 32 61  1  0
 33 62  1  0
 36 63  1  0
M  END
$$$$
