
     RDKit          3D

 54 58  0  0  0  0  0  0  0  0999 V2000
    2.6512    0.7909    4.0212 O   0  0  0  0  0  0  0  0  0  0  0  0
    2.6614    0.8116    2.7927 C   0  0  0  0  0  0  0  0  0  0  0  0
    1.4198    1.1012    1.9729 C   0  0  0  0  0  0  0  0  0  0  0  0
    0.5664   -0.4599    1.6105 S   0  0  0  0  0  0  0  0  0  0  0  0
   -0.8889    0.1780    0.8565 C   0  0  0  0  0  0  0  0  0  0  0  0
   -0.7191    1.2106    0.0877 N   0  0  0  0  0  0  0  0  0  0  0  0
   -1.8838    1.6971   -0.5126 C   0  0  0  0  0  0  0  0  0  0  0  0
   -3.1067    1.1567   -0.2633 C   0  0  0  0  0  0  0  0  0  0  0  0
   -4.3419    1.9427   -1.1073 S   0  0  0  0  0  0  0  0  0  0  0  0
   -3.2234    3.0395   -1.8449 C   0  0  0  0  0  0  0  0  0  0  0  0
   -3.5224    4.0723   -2.7547 C   0  0  0  0  0  0  0  0  0  0  0  0
   -2.4796    4.8602   -3.2491 C   0  0  0  0  0  0  0  0  0  0  0  0
   -1.1691    4.6318   -2.8510 C   0  0  0  0  0  0  0  0  0  0  0  0
   -0.8753    3.6071   -1.9468 C   0  0  0  0  0  0  0  0  0  0  0  0
   -1.9093    2.7900   -1.4278 C   0  0  0  0  0  0  0  0  0  0  0  0
   -3.3013    0.0420    0.6146 C   0  0  0  0  0  0  0  0  0  0  0  0
   -4.4063   -0.4114    0.9076 O   0  0  0  0  0  0  0  0  0  0  0  0
   -2.0973   -0.4648    1.1327 N   0  0  0  0  0  0  0  0  0  0  0  0
   -2.2073   -1.7073    1.9154 C   0  0  0  0  0  0  0  0  0  0  0  0
   -1.8127   -2.9706    1.1266 C   0  0  0  0  0  0  0  0  0  0  0  0
   -2.5150   -3.1127   -0.2017 C   0  0  0  0  0  0  0  0  0  0  0  0
   -1.8394   -2.8168   -1.3944 C   0  0  0  0  0  0  0  0  0  0  0  0
   -2.4966   -2.9088   -2.6216 C   0  0  0  0  0  0  0  0  0  0  0  0
   -3.8333   -3.2981   -2.6693 C   0  0  0  0  0  0  0  0  0  0  0  0
   -4.5132   -3.5958   -1.4903 C   0  0  0  0  0  0  0  0  0  0  0  0
   -3.8581   -3.5044   -0.2614 C   0  0  0  0  0  0  0  0  0  0  0  0
    3.7910    0.5573    2.0489 N   0  0  0  0  0  0  0  0  0  0  0  0
    5.0702    0.3674    2.6901 C   0  0  0  0  0  0  0  0  0  0  0  0
    6.0415   -0.1031    1.6754 C   0  0  0  0  0  0  0  0  0  0  0  0
    6.7419   -1.2794    1.5048 C   0  0  0  0  0  0  0  0  0  0  0  0
    7.5150   -1.1170    0.3297 C   0  0  0  0  0  0  0  0  0  0  0  0
    7.2355    0.1434   -0.1432 C   0  0  0  0  0  0  0  0  0  0  0  0
    6.3388    0.7660    0.6641 O   0  0  0  0  0  0  0  0  0  0  0  0
    0.7724    1.7682    2.5517 H   0  0  0  0  0  0  0  0  0  0  0  0
    1.7023    1.6155    1.0485 H   0  0  0  0  0  0  0  0  0  0  0  0
   -4.5465    4.2537   -3.0692 H   0  0  0  0  0  0  0  0  0  0  0  0
   -2.6994    5.6596   -3.9532 H   0  0  0  0  0  0  0  0  0  0  0  0
   -0.3656    5.2510   -3.2435 H   0  0  0  0  0  0  0  0  0  0  0  0
    0.1529    3.4314   -1.6400 H   0  0  0  0  0  0  0  0  0  0  0  0
   -1.5865   -1.6282    2.8145 H   0  0  0  0  0  0  0  0  0  0  0  0
   -3.2334   -1.8277    2.2826 H   0  0  0  0  0  0  0  0  0  0  0  0
   -2.0286   -3.8561    1.7385 H   0  0  0  0  0  0  0  0  0  0  0  0
   -0.7302   -2.9949    0.9602 H   0  0  0  0  0  0  0  0  0  0  0  0
   -0.7972   -2.5059   -1.3769 H   0  0  0  0  0  0  0  0  0  0  0  0
   -1.9671   -2.6736   -3.5409 H   0  0  0  0  0  0  0  0  0  0  0  0
   -4.3471   -3.3654   -3.6244 H   0  0  0  0  0  0  0  0  0  0  0  0
   -5.5587   -3.8906   -1.5257 H   0  0  0  0  0  0  0  0  0  0  0  0
   -4.4110   -3.7236    0.6492 H   0  0  0  0  0  0  0  0  0  0  0  0
    3.7961    0.7587    1.0562 H   0  0  0  0  0  0  0  0  0  0  0  0
    4.9625   -0.3537    3.5071 H   0  0  0  0  0  0  0  0  0  0  0  0
    5.3861    1.3250    3.1165 H   0  0  0  0  0  0  0  0  0  0  0  0
    6.6988   -2.1460    2.1510 H   0  0  0  0  0  0  0  0  0  0  0  0
    8.1931   -1.8298   -0.1182 H   0  0  0  0  0  0  0  0  0  0  0  0
    7.5747    0.7166   -0.9959 H   0  0  0  0  0  0  0  0  0  0  0  0
  1  2  2  0
  2  3  1  0
  3  4  1  0
  4  5  1  0
  5  6  2  0
  6  7  1  0
  7  8  2  0
  8  9  1  0
  9 10  1  0
 10 11  2  0
 11 12  1  0
 12 13  2  0
 13 14  1  0
 14 15  2  0
  8 16  1  0
 16 17  2  0
 16 18  1  0
 18 19  1  0
 19 20  1  0
 20 21  1  0
 21 22  2  0
 22 23  1  0
 23 24  2  0
 24 25  1  0
 25 26  2  0
  2 27  1  0
 27 28  1  0
 28 29  1  0
 29 30  2  0
 30 31  1  0
 31 32  2  0
 32 33  1  0
 18  5  1  0
 26 21  1  0
 33 29  1  0
 15  7  1  0
 15 10  1  0
  3 34  1  0
  3 35  1  0
 11 36  1  0
 12 37  1  0
 13 38  1  0
 14 39  1  0
 19 40  1  0
 19 41  1  0
 20 42  1  0
 20 43  1  0
 22 44  1  0
 23 45  1  0
 24 46  1  0
 25 47  1  0
 26 48  1  0
 27 49  1  0
 28 50  1  0
 28 51  1  0
 30 52  1  0
 31 53  1  0
 32 54  1  0
M  END
$$$$
