
     RDKit          3D

 60 63  0  0  0  0  0  0  0  0999 V2000
   -4.3015    6.1116    1.5943 C   0  0  0  0  0  0  0  0  0  0  0  0
   -4.0351    4.9718    2.4005 O   0  0  0  0  0  0  0  0  0  0  0  0
   -3.4232    3.9127    1.7897 C   0  0  0  0  0  0  0  0  0  0  0  0
   -3.1989    2.8115    2.6197 C   0  0  0  0  0  0  0  0  0  0  0  0
   -2.5811    1.6572    2.1296 C   0  0  0  0  0  0  0  0  0  0  0  0
   -2.1791    1.6011    0.7918 C   0  0  0  0  0  0  0  0  0  0  0  0
   -1.5356    0.4425    0.2884 N   0  0  0  0  0  0  0  0  0  0  0  0
   -1.8872   -0.8901    0.4806 C   0  0  0  0  0  0  0  0  0  0  0  0
   -3.1524   -1.3902    1.0987 C   0  0  0  0  0  0  0  0  0  0  0  0
   -4.3656   -1.0826    0.2720 C   0  0  0  0  0  0  0  0  0  0  0  0
   -5.4106   -0.2182    0.5495 C   0  0  0  0  0  0  0  0  0  0  0  0
   -6.3187   -0.2679   -0.5322 C   0  0  0  0  0  0  0  0  0  0  0  0
   -5.8151   -1.1625   -1.4447 C   0  0  0  0  0  0  0  0  0  0  0  0
   -4.6354   -1.6636   -0.9507 N   0  0  0  0  0  0  0  0  0  0  0  0
   -3.8201   -2.6377   -1.6492 C   0  0  0  0  0  0  0  0  0  0  0  0
   -0.9905   -1.6704   -0.0984 N   0  0  0  0  0  0  0  0  0  0  0  0
   -0.0575   -0.8810   -0.7058 N   0  0  0  0  0  0  0  0  0  0  0  0
   -0.3879    0.3691   -0.4823 C   0  0  0  0  0  0  0  0  0  0  0  0
    0.6613    1.6903   -0.8875 S   0  0  0  0  0  0  0  0  0  0  0  0
    1.7204    1.7083    0.5871 C   0  0  0  0  0  0  0  0  0  0  0  0
    2.9213    0.7764    0.5377 C   0  0  0  0  0  0  0  0  0  0  0  0
    3.9083    1.0061    1.2372 O   0  0  0  0  0  0  0  0  0  0  0  0
    2.8390   -0.3404   -0.2555 N   0  0  0  0  0  0  0  0  0  0  0  0
    3.8685   -1.3626   -0.2622 C   0  0  0  0  0  0  0  0  0  0  0  0
    5.1383   -0.9204   -1.0009 C   0  0  0  0  0  0  0  0  0  0  0  0
    6.1613   -2.0281   -1.0558 C   0  0  0  0  0  0  0  0  0  0  0  0
    6.9882   -2.2829    0.0493 C   0  0  0  0  0  0  0  0  0  0  0  0
    7.9221   -3.3194    0.0107 C   0  0  0  0  0  0  0  0  0  0  0  0
    8.0367   -4.1110   -1.1309 C   0  0  0  0  0  0  0  0  0  0  0  0
    7.2168   -3.8675   -2.2341 C   0  0  0  0  0  0  0  0  0  0  0  0
    6.2811   -2.8319   -2.1971 C   0  0  0  0  0  0  0  0  0  0  0  0
   -2.3953    2.7040   -0.0430 C   0  0  0  0  0  0  0  0  0  0  0  0
   -3.0201    3.8541    0.4565 C   0  0  0  0  0  0  0  0  0  0  0  0
   -4.8153    6.8483    2.2186 H   0  0  0  0  0  0  0  0  0  0  0  0
   -3.3720    6.5651    1.2356 H   0  0  0  0  0  0  0  0  0  0  0  0
   -4.9662    5.8622    0.7605 H   0  0  0  0  0  0  0  0  0  0  0  0
   -3.4996    2.8593    3.6643 H   0  0  0  0  0  0  0  0  0  0  0  0
   -2.3839    0.8476    2.8262 H   0  0  0  0  0  0  0  0  0  0  0  0
   -3.0782   -2.4781    1.2281 H   0  0  0  0  0  0  0  0  0  0  0  0
   -3.2765   -1.0000    2.1128 H   0  0  0  0  0  0  0  0  0  0  0  0
   -5.5092    0.3890    1.4394 H   0  0  0  0  0  0  0  0  0  0  0  0
   -7.2409    0.2892   -0.6350 H   0  0  0  0  0  0  0  0  0  0  0  0
   -6.2032   -1.4846   -2.4027 H   0  0  0  0  0  0  0  0  0  0  0  0
   -4.4596   -3.2253   -2.3158 H   0  0  0  0  0  0  0  0  0  0  0  0
   -3.0724   -2.0932   -2.2332 H   0  0  0  0  0  0  0  0  0  0  0  0
   -3.3438   -3.3073   -0.9292 H   0  0  0  0  0  0  0  0  0  0  0  0
    1.1413    1.4843    1.4885 H   0  0  0  0  0  0  0  0  0  0  0  0
    2.1080    2.7278    0.6818 H   0  0  0  0  0  0  0  0  0  0  0  0
    1.9387   -0.5853   -0.6592 H   0  0  0  0  0  0  0  0  0  0  0  0
    4.0948   -1.6269    0.7811 H   0  0  0  0  0  0  0  0  0  0  0  0
    3.4318   -2.2490   -0.7429 H   0  0  0  0  0  0  0  0  0  0  0  0
    4.8852   -0.5952   -2.0211 H   0  0  0  0  0  0  0  0  0  0  0  0
    5.5883   -0.0433   -0.5161 H   0  0  0  0  0  0  0  0  0  0  0  0
    6.9084   -1.6716    0.9470 H   0  0  0  0  0  0  0  0  0  0  0  0
    8.5586   -3.5090    0.8725 H   0  0  0  0  0  0  0  0  0  0  0  0
    8.7657   -4.9170   -1.1623 H   0  0  0  0  0  0  0  0  0  0  0  0
    7.3057   -4.4853   -3.1241 H   0  0  0  0  0  0  0  0  0  0  0  0
    5.6465   -2.6558   -3.0648 H   0  0  0  0  0  0  0  0  0  0  0  0
   -2.1250    2.6830   -1.0977 H   0  0  0  0  0  0  0  0  0  0  0  0
   -3.1800    4.6829   -0.2256 H   0  0  0  0  0  0  0  0  0  0  0  0
  1  2  1  0
  2  3  1  0
  3  4  2  0
  4  5  1  0
  5  6  2  0
  6  7  1  0
  7  8  1  0
  8  9  1  0
  9 10  1  0
 10 11  2  0
 11 12  1  0
 12 13  2  0
 13 14  1  0
 14 15  1  0
  8 16  2  0
 16 17  1  0
 17 18  2  0
 18 19  1  0
 19 20  1  0
 20 21  1  0
 21 22  2  0
 21 23  1  0
 23 24  1  0
 24 25  1  0
 25 26  1  0
 26 27  2  0
 27 28  1  0
 28 29  2  0
 29 30  1  0
 30 31  2  0
  6 32  1  0
 32 33  2  0
 33  3  1  0
 18  7  1  0
 31 26  1  0
 14 10  1  0
  1 34  1  0
  1 35  1  0
  1 36  1  0
  4 37  1  0
  5 38  1  0
  9 39  1  0
  9 40  1  0
 11 41  1  0
 12 42  1  0
 13 43  1  0
 15 44  1  0
 15 45  1  0
 15 46  1  0
 20 47  1  0
 20 48  1  0
 23 49  1  0
 24 50  1  0
 24 51  1  0
 25 52  1  0
 25 53  1  0
 27 54  1  0
 28 55  1  0
 29 56  1  0
 30 57  1  0
 31 58  1  0
 32 59  1  0
 33 60  1  0
M  END
$$$$
