
     RDKit          3D

 35 37  0  0  0  0  0  0  0  0999 V2000
    7.2853   -0.8167   -0.4700 C   0  0  0  0  0  0  0  0  0  0  0  0
    6.0375   -1.0931   -1.0935 O   0  0  0  0  0  0  0  0  0  0  0  0
    4.9146   -0.6439   -0.4563 C   0  0  0  0  0  0  0  0  0  0  0  0
    3.7155   -0.9385   -1.1078 C   0  0  0  0  0  0  0  0  0  0  0  0
    2.4894   -0.5378   -0.5665 C   0  0  0  0  0  0  0  0  0  0  0  0
    2.4415    0.1684    0.6427 C   0  0  0  0  0  0  0  0  0  0  0  0
    1.1812    0.5995    1.2322 C   0  0  0  0  0  0  0  0  0  0  0  0
    0.9452    1.2706    2.3435 N   0  0  0  0  0  0  0  0  0  0  0  0
   -0.4261    1.4120    2.4289 N   0  0  0  0  0  0  0  0  0  0  0  0
   -0.9250    0.8202    1.3658 C   0  0  0  0  0  0  0  0  0  0  0  0
   -2.2491    0.7157    1.0519 N   0  0  0  0  0  0  0  0  0  0  0  0
   -2.6985    0.1293   -0.1059 C   0  0  0  0  0  0  0  0  0  0  0  0
   -2.0083   -0.3285   -1.0086 O   0  0  0  0  0  0  0  0  0  0  0  0
   -4.1817    0.0972   -0.2624 C   0  0  0  0  0  0  0  0  0  0  0  0
   -4.7153    0.1820   -1.5576 C   0  0  0  0  0  0  0  0  0  0  0  0
   -6.0977    0.1544   -1.7507 C   0  0  0  0  0  0  0  0  0  0  0  0
   -6.9398    0.0316   -0.6518 C   0  0  0  0  0  0  0  0  0  0  0  0
   -8.2657    0.0031   -0.8360 F   0  0  0  0  0  0  0  0  0  0  0  0
   -6.4263   -0.0710    0.6372 C   0  0  0  0  0  0  0  0  0  0  0  0
   -5.0433   -0.0430    0.8368 C   0  0  0  0  0  0  0  0  0  0  0  0
    0.0315    0.2780    0.5629 O   0  0  0  0  0  0  0  0  0  0  0  0
    3.6507    0.4606    1.2905 C   0  0  0  0  0  0  0  0  0  0  0  0
    4.8783    0.0585    0.7471 C   0  0  0  0  0  0  0  0  0  0  0  0
    8.0744   -1.2380   -1.1002 H   0  0  0  0  0  0  0  0  0  0  0  0
    7.3511   -1.2971    0.5118 H   0  0  0  0  0  0  0  0  0  0  0  0
    7.4590    0.2619   -0.3956 H   0  0  0  0  0  0  0  0  0  0  0  0
    3.7335   -1.4859   -2.0477 H   0  0  0  0  0  0  0  0  0  0  0  0
    1.5746   -0.7848   -1.1035 H   0  0  0  0  0  0  0  0  0  0  0  0
   -2.8729    1.1694    1.7009 H   0  0  0  0  0  0  0  0  0  0  0  0
   -4.0539    0.2702   -2.4182 H   0  0  0  0  0  0  0  0  0  0  0  0
   -6.5199    0.2227   -2.7486 H   0  0  0  0  0  0  0  0  0  0  0  0
   -7.1075   -0.1836    1.4755 H   0  0  0  0  0  0  0  0  0  0  0  0
   -4.6610   -0.1633    1.8466 H   0  0  0  0  0  0  0  0  0  0  0  0
    3.6464    1.0086    2.2320 H   0  0  0  0  0  0  0  0  0  0  0  0
    5.7825    0.3114    1.2908 H   0  0  0  0  0  0  0  0  0  0  0  0
  1  2  1  0
  2  3  1  0
  3  4  2  0
  4  5  1  0
  5  6  2  0
  6  7  1  0
  7  8  2  0
  8  9  1  0
  9 10  2  0
 10 11  1  0
 11 12  1  0
 12 13  2  0
 12 14  1  0
 14 15  2  0
 15 16  1  0
 16 17  2  0
 17 18  1  0
 17 19  1  0
 19 20  2  0
 10 21  1  0
  6 22  1  0
 22 23  2  0
 23  3  1  0
 21  7  1  0
 20 14  1  0
  1 24  1  0
  1 25  1  0
  1 26  1  0
  4 27  1  0
  5 28  1  0
 11 29  1  0
 15 30  1  0
 16 31  1  0
 19 32  1  0
 20 33  1  0
 22 34  1  0
 23 35  1  0
M  END
$$$$
