
     RDKit          3D

 44 46  0  0  0  0  0  0  0  0999 V2000
   -6.3712    1.5058   -2.0578 C   0  0  0  0  0  0  0  0  0  0  0  0
   -6.0522    1.2789   -0.6874 O   0  0  0  0  0  0  0  0  0  0  0  0
   -4.8013    0.7534   -0.4845 C   0  0  0  0  0  0  0  0  0  0  0  0
   -4.7654   -0.3493    0.3725 C   0  0  0  0  0  0  0  0  0  0  0  0
   -3.5544   -0.9686    0.6812 C   0  0  0  0  0  0  0  0  0  0  0  0
   -2.3591   -0.4691    0.1583 C   0  0  0  0  0  0  0  0  0  0  0  0
   -1.0597   -1.1067    0.4210 C   0  0  0  0  0  0  0  0  0  0  0  0
   -0.5578   -1.4619    1.6198 C   0  0  0  0  0  0  0  0  0  0  0  0
   -1.2136   -1.3044    2.8686 C   0  0  0  0  0  0  0  0  0  0  0  0
   -1.7544   -1.1437    3.8828 N   0  0  0  0  0  0  0  0  0  0  0  0
    0.7913   -2.0905    1.6304 C   0  0  0  0  0  0  0  0  0  0  0  0
    0.9094   -3.2586    1.9718 O   0  0  0  0  0  0  0  0  0  0  0  0
    1.7867   -1.2139    1.2318 N   0  0  0  0  0  0  0  0  0  0  0  0
    3.1773   -1.4743    1.0936 C   0  0  0  0  0  0  0  0  0  0  0  0
    3.7036   -2.7509    1.3162 C   0  0  0  0  0  0  0  0  0  0  0  0
    5.0656   -2.9909    1.1694 C   0  0  0  0  0  0  0  0  0  0  0  0
    5.9144   -1.9555    0.7930 C   0  0  0  0  0  0  0  0  0  0  0  0
    5.4420   -0.6769    0.5582 C   0  0  0  0  0  0  0  0  0  0  0  0
    6.3431    0.2508    0.1930 N   0  0  0  0  0  0  0  0  0  0  0  0
    5.9159    1.5065   -0.0395 C   0  0  0  0  0  0  0  0  0  0  0  0
    4.5999    1.8927    0.0731 C   0  0  0  0  0  0  0  0  0  0  0  0
    3.6682    0.9289    0.4482 C   0  0  0  0  0  0  0  0  0  0  0  0
    4.0582   -0.4101    0.7063 C   0  0  0  0  0  0  0  0  0  0  0  0
   -2.3981    0.6473   -0.6942 C   0  0  0  0  0  0  0  0  0  0  0  0
   -3.6097    1.2802   -1.0072 C   0  0  0  0  0  0  0  0  0  0  0  0
   -3.7094    2.3967   -1.7938 O   0  0  0  0  0  0  0  0  0  0  0  0
   -2.5121    3.0841   -2.1277 C   0  0  0  0  0  0  0  0  0  0  0  0
   -5.9225    0.7597   -2.7240 H   0  0  0  0  0  0  0  0  0  0  0  0
   -6.0886    2.5197   -2.3562 H   0  0  0  0  0  0  0  0  0  0  0  0
   -7.4592    1.4296   -2.1591 H   0  0  0  0  0  0  0  0  0  0  0  0
   -5.6918   -0.7348    0.7926 H   0  0  0  0  0  0  0  0  0  0  0  0
   -3.5720   -1.8444    1.3265 H   0  0  0  0  0  0  0  0  0  0  0  0
   -0.4725   -1.2901   -0.4797 H   0  0  0  0  0  0  0  0  0  0  0  0
    1.4941   -0.2648    1.0551 H   0  0  0  0  0  0  0  0  0  0  0  0
    3.0826   -3.5932    1.6051 H   0  0  0  0  0  0  0  0  0  0  0  0
    5.4654   -3.9864    1.3458 H   0  0  0  0  0  0  0  0  0  0  0  0
    6.9783   -2.1534    0.6787 H   0  0  0  0  0  0  0  0  0  0  0  0
    6.6887    2.2131   -0.3287 H   0  0  0  0  0  0  0  0  0  0  0  0
    4.3040    2.9173   -0.1231 H   0  0  0  0  0  0  0  0  0  0  0  0
    2.6367    1.2518    0.5330 H   0  0  0  0  0  0  0  0  0  0  0  0
   -1.4638    1.0156   -1.1059 H   0  0  0  0  0  0  0  0  0  0  0  0
   -2.7885    3.9980   -2.6623 H   0  0  0  0  0  0  0  0  0  0  0  0
   -1.8884    2.4844   -2.7973 H   0  0  0  0  0  0  0  0  0  0  0  0
   -1.9597    3.3781   -1.2296 H   0  0  0  0  0  0  0  0  0  0  0  0
  1  2  1  0
  2  3  1  0
  3  4  2  0
  4  5  1  0
  5  6  2  0
  6  7  1  0
  7  8  2  3
  8  9  1  0
  9 10  3  0
  8 11  1  0
 11 12  2  0
 11 13  1  0
 13 14  1  0
 14 15  2  0
 15 16  1  0
 16 17  2  0
 17 18  1  0
 18 19  2  0
 19 20  1  0
 20 21  2  0
 21 22  1  0
 22 23  2  0
  6 24  1  0
 24 25  2  0
 25 26  1  0
 26 27  1  0
 25  3  1  0
 23 14  1  0
 23 18  1  0
  1 28  1  0
  1 29  1  0
  1 30  1  0
  4 31  1  0
  5 32  1  0
  7 33  1  0
 13 34  1  0
 15 35  1  0
 16 36  1  0
 17 37  1  0
 20 38  1  0
 21 39  1  0
 22 40  1  0
 24 41  1  0
 27 42  1  0
 27 43  1  0
 27 44  1  0
M  END
$$$$
