
     RDKit          3D

 39 41  0  0  0  0  0  0  0  0999 V2000
   -4.7155    1.4255   -2.3348 C   0  0  0  0  0  0  0  0  0  0  0  0
   -4.1880    1.1534   -0.9560 C   0  0  0  0  0  0  0  0  0  0  0  0
   -5.0272    1.2802    0.1546 C   0  0  0  0  0  0  0  0  0  0  0  0
   -4.5716    1.0052    1.4478 C   0  0  0  0  0  0  0  0  0  0  0  0
   -3.2455    0.5847    1.5941 C   0  0  0  0  0  0  0  0  0  0  0  0
   -2.5463    0.2498    2.7286 N   0  0  0  0  0  0  0  0  0  0  0  0
   -1.2615   -0.1353    2.4190 C   0  0  0  0  0  0  0  0  0  0  0  0
   -0.3405   -0.5946    3.4913 C   0  0  0  0  0  0  0  0  0  0  0  0
   -1.1222   -0.0108    1.0464 C   0  0  0  0  0  0  0  0  0  0  0  0
    0.0409   -0.3004    0.2648 C   0  0  0  0  0  0  0  0  0  0  0  0
    1.3133   -0.0836    0.6381 C   0  0  0  0  0  0  0  0  0  0  0  0
    2.4743   -0.3784   -0.2078 C   0  0  0  0  0  0  0  0  0  0  0  0
    3.6127   -0.9362    0.3706 C   0  0  0  0  0  0  0  0  0  0  0  0
    4.7291   -1.1972   -0.4160 C   0  0  0  0  0  0  0  0  0  0  0  0
    4.7240   -0.9078   -1.7362 N   0  0  0  0  0  4  0  0  0  0  0  0
    5.9220   -1.1829   -2.5475 C   0  0  0  0  0  0  0  0  0  0  0  0
    3.6408   -0.3428   -2.3143 C   0  0  0  0  0  0  0  0  0  0  0  0
    2.5017   -0.0670   -1.5664 C   0  0  0  0  0  0  0  0  0  0  0  0
   -2.3782    0.4281    0.5159 C   0  0  0  0  0  0  0  0  0  0  0  0
   -2.8641    0.7153   -0.7799 C   0  0  0  0  0  0  0  0  0  0  0  0
   -3.9170    1.7786   -2.9959 H   0  0  0  0  0  0  0  0  0  0  0  0
   -5.4853    2.2041   -2.3121 H   0  0  0  0  0  0  0  0  0  0  0  0
   -5.1467    0.5126   -2.7569 H   0  0  0  0  0  0  0  0  0  0  0  0
   -6.0594    1.6007    0.0224 H   0  0  0  0  0  0  0  0  0  0  0  0
   -5.2323    1.1132    2.3022 H   0  0  0  0  0  0  0  0  0  0  0  0
   -2.9409    0.2645    3.6591 H   0  0  0  0  0  0  0  0  0  0  0  0
   -0.8925   -0.9154    4.3811 H   0  0  0  0  0  0  0  0  0  0  0  0
    0.3342    0.2151    3.7862 H   0  0  0  0  0  0  0  0  0  0  0  0
    0.2596   -1.4455    3.1540 H   0  0  0  0  0  0  0  0  0  0  0  0
   -0.1618   -0.7073   -0.7236 H   0  0  0  0  0  0  0  0  0  0  0  0
    1.5304    0.3366    1.6173 H   0  0  0  0  0  0  0  0  0  0  0  0
    3.6351   -1.1784    1.4318 H   0  0  0  0  0  0  0  0  0  0  0  0
    5.6314   -1.6345    0.0024 H   0  0  0  0  0  0  0  0  0  0  0  0
    6.5527   -0.2912   -2.5123 H   0  0  0  0  0  0  0  0  0  0  0  0
    6.4456   -2.0476   -2.1317 H   0  0  0  0  0  0  0  0  0  0  0  0
    5.6166   -1.4045   -3.5734 H   0  0  0  0  0  0  0  0  0  0  0  0
    3.6968   -0.1092   -3.3739 H   0  0  0  0  0  0  0  0  0  0  0  0
    1.6469    0.4030   -2.0494 H   0  0  0  0  0  0  0  0  0  0  0  0
   -2.2119    0.6002   -1.6399 H   0  0  0  0  0  0  0  0  0  0  0  0
  1  2  1  0
  2  3  2  0
  3  4  1  0
  4  5  2  0
  5  6  1  0
  6  7  1  0
  7  8  1  0
  7  9  2  0
  9 10  1  0
 10 11  2  3
 11 12  1  0
 12 13  2  0
 13 14  1  0
 14 15  2  0
 15 16  1  0
 15 17  1  0
 17 18  2  0
  9 19  1  0
 19 20  2  0
 20  2  1  0
 19  5  1  0
 18 12  1  0
  1 21  1  0
  1 22  1  0
  1 23  1  0
  3 24  1  0
  4 25  1  0
  6 26  1  0
  8 27  1  0
  8 28  1  0
  8 29  1  0
 10 30  1  0
 11 31  1  0
 13 32  1  0
 14 33  1  0
 16 34  1  0
 16 35  1  0
 16 36  1  0
 17 37  1  0
 18 38  1  0
 20 39  1  0
M  CHG  1  15   1
M  END
$$$$
