
     RDKit          3D

 36 38  0  0  0  0  0  0  0  0999 V2000
   -5.9574   -1.4982    0.3723 C   0  0  0  0  0  0  0  0  0  0  0  0
   -5.2491   -0.3071   -0.0929 N   0  0  0  0  0  0  0  0  0  0  0  0
   -6.0046    0.9425   -0.0247 C   0  0  0  0  0  0  0  0  0  0  0  0
   -3.8537   -0.2616    0.0149 C   0  0  0  0  0  0  0  0  0  0  0  0
   -3.1284    0.9302   -0.1575 C   0  0  0  0  0  0  0  0  0  0  0  0
   -1.7274    0.9796   -0.0697 C   0  0  0  0  0  0  0  0  0  0  0  0
   -0.9888   -0.1767    0.1762 C   0  0  0  0  0  0  0  0  0  0  0  0
    0.4735   -0.1713    0.3038 C   0  0  0  0  0  0  0  0  0  0  0  0
    1.2895    0.5620   -0.4713 C   0  0  0  0  0  0  0  0  0  0  0  0
    2.7035    0.5067   -0.2981 C   0  0  0  0  0  0  0  0  0  0  0  0
    3.3657   -0.2135    0.5865 N   0  0  0  0  0  0  0  0  0  0  0  0
    4.7298   -0.0153    0.4629 C   0  0  0  0  0  0  0  0  0  0  0  0
    5.7282   -0.6271    1.2481 C   0  0  0  0  0  0  0  0  0  0  0  0
    7.0756   -0.3341    1.0133 C   0  0  0  0  0  0  0  0  0  0  0  0
    7.4371    0.5581    0.0090 C   0  0  0  0  0  0  0  0  0  0  0  0
    6.4652    1.1778   -0.7830 C   0  0  0  0  0  0  0  0  0  0  0  0
    5.1152    0.8753   -0.5374 C   0  0  0  0  0  0  0  0  0  0  0  0
    3.7092    1.4662   -1.3293 S   0  0  0  0  0  0  0  0  0  0  0  0
   -1.6824   -1.3724    0.3530 C   0  0  0  0  0  0  0  0  0  0  0  0
   -3.0831   -1.4109    0.2616 C   0  0  0  0  0  0  0  0  0  0  0  0
   -5.7809   -1.6699    1.4399 H   0  0  0  0  0  0  0  0  0  0  0  0
   -7.0392   -1.3986    0.2281 H   0  0  0  0  0  0  0  0  0  0  0  0
   -5.6606   -2.3847   -0.1983 H   0  0  0  0  0  0  0  0  0  0  0  0
   -5.8281    1.4586    0.9255 H   0  0  0  0  0  0  0  0  0  0  0  0
   -7.0823    0.7607   -0.1061 H   0  0  0  0  0  0  0  0  0  0  0  0
   -5.7499    1.6061   -0.8580 H   0  0  0  0  0  0  0  0  0  0  0  0
   -3.6353    1.8672   -0.3662 H   0  0  0  0  0  0  0  0  0  0  0  0
   -1.2343    1.9407   -0.1892 H   0  0  0  0  0  0  0  0  0  0  0  0
    0.8839   -0.8308    1.0672 H   0  0  0  0  0  0  0  0  0  0  0  0
    0.8866    1.1984   -1.2530 H   0  0  0  0  0  0  0  0  0  0  0  0
    5.4403   -1.3224    2.0303 H   0  0  0  0  0  0  0  0  0  0  0  0
    7.8423   -0.8084    1.6214 H   0  0  0  0  0  0  0  0  0  0  0  0
    8.4887    0.7778   -0.1639 H   0  0  0  0  0  0  0  0  0  0  0  0
    6.7482    1.8739   -1.5667 H   0  0  0  0  0  0  0  0  0  0  0  0
   -1.1453   -2.2973    0.5515 H   0  0  0  0  0  0  0  0  0  0  0  0
   -3.5513   -2.3816    0.3908 H   0  0  0  0  0  0  0  0  0  0  0  0
  1  2  1  0
  2  3  1  0
  2  4  1  0
  4  5  2  0
  5  6  1  0
  6  7  2  0
  7  8  1  0
  8  9  2  3
  9 10  1  0
 10 11  2  0
 11 12  1  0
 12 13  2  0
 13 14  1  0
 14 15  2  0
 15 16  1  0
 16 17  2  0
 17 18  1  0
  7 19  1  0
 19 20  2  0
 20  4  1  0
 18 10  1  0
 17 12  1  0
  1 21  1  0
  1 22  1  0
  1 23  1  0
  3 24  1  0
  3 25  1  0
  3 26  1  0
  5 27  1  0
  6 28  1  0
  8 29  1  0
  9 30  1  0
 13 31  1  0
 14 32  1  0
 15 33  1  0
 16 34  1  0
 19 35  1  0
 20 36  1  0
M  END
$$$$
