
     RDKit          3D

 80 86  0  0  0  0  0  0  0  0999 V2000
    6.7299   -0.6556    1.9219 C   0  0  0  0  0  0  0  0  0  0  0  0
    6.0962   -1.8256    1.1616 C   0  0  0  0  0  0  0  0  0  0  0  0
    6.1489   -3.0752    2.0543 C   0  0  0  0  0  0  0  0  0  0  0  0
    6.8346   -2.1288   -0.1467 C   0  0  0  0  0  0  0  0  0  0  0  0
    4.6821   -1.6015    0.9306 O   0  0  0  0  0  0  0  0  0  0  0  0
    4.2503   -0.5639    0.1693 C   0  0  0  0  0  0  0  0  0  0  0  0
    4.9852    0.2516   -0.3730 O   0  0  0  0  0  0  0  0  0  0  0  0
    2.8700   -0.5308    0.0682 N   0  0  0  0  0  0  0  0  0  0  0  0
    2.0084   -1.3600    0.9346 C   0  0  0  0  0  0  0  0  0  0  0  0
    0.5607   -1.5347    0.4065 C   0  0  0  0  0  0  0  0  0  0  0  0
    0.0397   -0.2388    0.0041 N   0  0  0  0  0  0  0  0  0  0  0  0
    0.8796    0.3450   -1.0906 C   0  0  2  0  0  0  0  0  0  0  0  0
    2.2536    0.6720   -0.5201 C   0  0  0  0  0  0  0  0  0  0  0  0
    0.0009    1.4470   -1.5349 C   0  0  0  0  0  0  0  0  0  0  0  0
   -1.3308    1.1831   -1.1413 C   0  0  0  0  0  0  0  0  0  0  0  0
   -2.1235    2.2050   -1.5949 C   0  0  0  0  0  0  0  0  0  0  0  0
   -3.4262    2.4381   -1.4897 O   0  0  0  0  0  0  0  0  0  0  0  0
   -1.2797    3.0937   -2.2478 N   0  0  0  0  0  0  0  0  0  0  0  0
   -1.7110    4.3303   -2.8879 C   0  0  0  0  0  0  0  0  0  0  0  0
   -1.6728    5.4975   -1.9311 C   0  0  0  0  0  0  0  0  0  0  0  0
   -2.8026    5.8355   -1.1721 C   0  0  0  0  0  0  0  0  0  0  0  0
   -2.7636    6.9088   -0.2807 C   0  0  0  0  0  0  0  0  0  0  0  0
   -1.5942    7.6524   -0.1345 C   0  0  0  0  0  0  0  0  0  0  0  0
   -0.4620    7.3214   -0.8764 C   0  0  0  0  0  0  0  0  0  0  0  0
   -0.4996    6.2486   -1.7685 C   0  0  0  0  0  0  0  0  0  0  0  0
    0.0244    2.6165   -2.2434 C   0  0  0  0  0  0  0  0  0  0  0  0
    1.0021    3.2726   -2.8550 O   0  0  0  0  0  0  0  0  0  0  0  0
   -1.3842   -0.0919   -0.3777 C   0  0  1  0  0  0  0  0  0  0  0  0
   -1.9609   -1.2753   -1.1941 C   0  0  0  0  0  0  0  0  0  0  0  0
   -1.4988   -1.7729   -2.2130 O   0  0  0  0  0  0  0  0  0  0  0  0
   -3.1178   -1.6968   -0.5145 N   0  0  0  0  0  0  0  0  0  0  0  0
   -3.8781   -2.8622   -0.9028 C   0  0  0  0  0  0  0  0  0  0  0  0
   -3.3828   -4.1227   -0.2297 C   0  0  0  0  0  0  0  0  0  0  0  0
   -4.0851   -4.6920    0.8417 C   0  0  0  0  0  0  0  0  0  0  0  0
   -3.6098   -5.8459    1.4686 C   0  0  0  0  0  0  0  0  0  0  0  0
   -2.4289   -6.4433    1.0324 C   0  0  0  0  0  0  0  0  0  0  0  0
   -1.7220   -5.8893   -0.0320 C   0  0  0  0  0  0  0  0  0  0  0  0
   -2.1956   -4.7363   -0.6597 C   0  0  0  0  0  0  0  0  0  0  0  0
   -3.3425   -0.9247    0.6369 C   0  0  0  0  0  0  0  0  0  0  0  0
   -4.3656   -1.0259    1.5621 C   0  0  0  0  0  0  0  0  0  0  0  0
   -4.3740   -0.1290    2.6351 C   0  0  0  0  0  0  0  0  0  0  0  0
   -3.3701    0.8436    2.7685 C   0  0  0  0  0  0  0  0  0  0  0  0
   -2.3422    0.9364    1.8297 C   0  0  0  0  0  0  0  0  0  0  0  0
   -2.3439    0.0488    0.7622 C   0  0  0  0  0  0  0  0  0  0  0  0
    7.7492   -0.8953    2.2439 H   0  0  0  0  0  0  0  0  0  0  0  0
    6.7854    0.2493    1.3093 H   0  0  0  0  0  0  0  0  0  0  0  0
    6.1359   -0.3995    2.8065 H   0  0  0  0  0  0  0  0  0  0  0  0
    5.5981   -2.9106    2.9877 H   0  0  0  0  0  0  0  0  0  0  0  0
    7.1780   -3.3538    2.3050 H   0  0  0  0  0  0  0  0  0  0  0  0
    5.6695   -3.9282    1.5595 H   0  0  0  0  0  0  0  0  0  0  0  0
    6.8915   -1.2515   -0.7978 H   0  0  0  0  0  0  0  0  0  0  0  0
    6.3147   -2.9083   -0.7147 H   0  0  0  0  0  0  0  0  0  0  0  0
    7.8608   -2.4616    0.0432 H   0  0  0  0  0  0  0  0  0  0  0  0
    1.9877   -0.8669    1.9148 H   0  0  0  0  0  0  0  0  0  0  0  0
    2.4580   -2.3488    1.0740 H   0  0  0  0  0  0  0  0  0  0  0  0
    0.5678   -2.2385   -0.4344 H   0  0  0  0  0  0  0  0  0  0  0  0
   -0.0507   -1.9738    1.2027 H   0  0  0  0  0  0  0  0  0  0  0  0
    0.9812   -0.3762   -1.9145 H   0  0  0  0  0  0  0  0  0  0  0  0
    2.1932    1.4297    0.2720 H   0  0  0  0  0  0  0  0  0  0  0  0
    2.9016    1.0791   -1.3045 H   0  0  0  0  0  0  0  0  0  0  0  0
   -3.7992    1.7547   -0.9040 H   0  0  0  0  0  0  0  0  0  0  0  0
   -1.0670    4.5145   -3.7557 H   0  0  0  0  0  0  0  0  0  0  0  0
   -2.7224    4.1781   -3.2830 H   0  0  0  0  0  0  0  0  0  0  0  0
   -3.7183    5.2553   -1.2684 H   0  0  0  0  0  0  0  0  0  0  0  0
   -3.6451    7.1609    0.3024 H   0  0  0  0  0  0  0  0  0  0  0  0
   -1.5633    8.4863    0.5614 H   0  0  0  0  0  0  0  0  0  0  0  0
    0.4535    7.8947   -0.7576 H   0  0  0  0  0  0  0  0  0  0  0  0
    0.3951    5.9930   -2.3332 H   0  0  0  0  0  0  0  0  0  0  0  0
    1.8204    2.7572   -2.7484 H   0  0  0  0  0  0  0  0  0  0  0  0
   -4.9412   -2.6941   -0.6962 H   0  0  0  0  0  0  0  0  0  0  0  0
   -3.7967   -2.9922   -1.9894 H   0  0  0  0  0  0  0  0  0  0  0  0
   -5.0096   -4.2450    1.1974 H   0  0  0  0  0  0  0  0  0  0  0  0
   -4.1618   -6.2802    2.2981 H   0  0  0  0  0  0  0  0  0  0  0  0
   -2.0610   -7.3421    1.5202 H   0  0  0  0  0  0  0  0  0  0  0  0
   -0.8026   -6.3552   -0.3771 H   0  0  0  0  0  0  0  0  0  0  0  0
   -1.6321   -4.3184   -1.4927 H   0  0  0  0  0  0  0  0  0  0  0  0
   -5.1500   -1.7677    1.4767 H   0  0  0  0  0  0  0  0  0  0  0  0
   -5.1656   -0.1851    3.3795 H   0  0  0  0  0  0  0  0  0  0  0  0
   -3.3923    1.5301    3.6124 H   0  0  0  0  0  0  0  0  0  0  0  0
   -1.5613    1.6858    1.9288 H   0  0  0  0  0  0  0  0  0  0  0  0
  1  2  1  0
  2  3  1  0
  2  4  1  0
  2  5  1  0
  5  6  1  0
  6  7  2  0
  6  8  1  0
  8  9  1  0
  9 10  1  0
 10 11  1  0
 11 12  1  0
 12 13  1  0
 12 14  1  0
 14 15  1  0
 15 16  2  0
 16 17  1  0
 16 18  1  0
 18 19  1  0
 19 20  1  0
 20 21  2  0
 21 22  1  0
 22 23  2  0
 23 24  1  0
 24 25  2  0
 18 26  1  0
 26 27  1  0
 15 28  1  0
 28 29  1  0
 29 30  2  0
 29 31  1  0
 31 32  1  0
 32 33  1  0
 33 34  2  0
 34 35  1  0
 35 36  2  0
 36 37  1  0
 37 38  2  0
 31 39  1  0
 39 40  2  0
 40 41  1  0
 41 42  2  0
 42 43  1  0
 43 44  2  0
 13  8  1  0
 26 14  2  0
 44 28  1  0
 28 11  1  1
 38 33  1  0
 44 39  1  0
 25 20  1  0
  1 45  1  0
  1 46  1  0
  1 47  1  0
  3 48  1  0
  3 49  1  0
  3 50  1  0
  4 51  1  0
  4 52  1  0
  4 53  1  0
  9 54  1  0
  9 55  1  0
 10 56  1  0
 10 57  1  0
 12 58  1  6
 13 59  1  0
 13 60  1  0
 17 61  1  0
 19 62  1  0
 19 63  1  0
 21 64  1  0
 22 65  1  0
 23 66  1  0
 24 67  1  0
 25 68  1  0
 27 69  1  0
 32 70  1  0
 32 71  1  0
 34 72  1  0
 35 73  1  0
 36 74  1  0
 37 75  1  0
 38 76  1  0
 40 77  1  0
 41 78  1  0
 42 79  1  0
 43 80  1  0
M  END
$$$$
