
     RDKit          3D

 35 36  0  0  0  0  0  0  0  0999 V2000
   -5.5746    1.1563    0.1548 C   0  0  0  0  0  0  0  0  0  0  0  0
   -4.9220   -0.1770   -0.1004 C   0  0  0  0  0  0  0  0  0  0  0  0
   -5.5685   -1.2216   -0.0570 O   0  0  0  0  0  0  0  0  0  0  0  0
   -3.4609   -0.2216   -0.4037 C   0  0  0  0  0  0  0  0  0  0  0  0
   -2.8883   -1.4482   -0.7580 C   0  0  0  0  0  0  0  0  0  0  0  0
   -1.5237   -1.5339   -1.0533 C   0  0  0  0  0  0  0  0  0  0  0  0
   -0.7146   -0.3950   -1.0208 C   0  0  0  0  0  0  0  0  0  0  0  0
    0.6793   -0.5805   -1.2476 N   0  0  0  0  0  0  0  0  0  0  0  0
    1.6956    0.6092   -1.8488 S   0  0  0  0  0  6  0  0  0  0  0  0
    2.7307   -0.0982   -2.5768 O   0  0  0  0  0  0  0  0  0  0  0  0
    0.9166    1.6363   -2.5076 O   0  0  0  0  0  0  0  0  0  0  0  0
    2.4338    1.3146   -0.3657 C   0  0  0  0  0  0  0  0  0  0  0  0
    2.9949    0.2378    0.5290 C   0  0  0  0  0  0  0  0  0  0  0  0
    4.2470   -0.3358    0.2600 C   0  0  0  0  0  0  0  0  0  0  0  0
    4.7624   -1.3356    1.0882 C   0  0  0  0  0  0  0  0  0  0  0  0
    4.0309   -1.7664    2.1919 C   0  0  0  0  0  0  0  0  0  0  0  0
    4.6644   -2.9990    3.2108 Cl  0  0  0  0  0  0  0  0  0  0  0  0
    2.7876   -1.2060    2.4746 C   0  0  0  0  0  0  0  0  0  0  0  0
    2.2712   -0.2063    1.6469 C   0  0  0  0  0  0  0  0  0  0  0  0
   -1.2778    0.8191   -0.6245 C   0  0  0  0  0  0  0  0  0  0  0  0
   -2.6460    0.9121   -0.3321 C   0  0  0  0  0  0  0  0  0  0  0  0
   -6.6564    1.0152    0.2437 H   0  0  0  0  0  0  0  0  0  0  0  0
   -5.3946    1.8359   -0.6822 H   0  0  0  0  0  0  0  0  0  0  0  0
   -5.2053    1.5831    1.0908 H   0  0  0  0  0  0  0  0  0  0  0  0
   -3.5013   -2.3472   -0.8051 H   0  0  0  0  0  0  0  0  0  0  0  0
   -1.1087   -2.5041   -1.3154 H   0  0  0  0  0  0  0  0  0  0  0  0
    0.9925   -1.5091   -1.5342 H   0  0  0  0  0  0  0  0  0  0  0  0
    1.6663    1.9031    0.1460 H   0  0  0  0  0  0  0  0  0  0  0  0
    3.2223    2.0024   -0.6888 H   0  0  0  0  0  0  0  0  0  0  0  0
    4.8288   -0.0162   -0.6040 H   0  0  0  0  0  0  0  0  0  0  0  0
    5.7315   -1.7741    0.8643 H   0  0  0  0  0  0  0  0  0  0  0  0
    2.2158   -1.5431    3.3353 H   0  0  0  0  0  0  0  0  0  0  0  0
    1.2956    0.2165    1.8803 H   0  0  0  0  0  0  0  0  0  0  0  0
   -0.6807    1.7219   -0.5443 H   0  0  0  0  0  0  0  0  0  0  0  0
   -3.0436    1.8818   -0.0462 H   0  0  0  0  0  0  0  0  0  0  0  0
  1  2  1  0
  2  3  2  0
  2  4  1  0
  4  5  2  0
  5  6  1  0
  6  7  2  0
  7  8  1  0
  8  9  1  0
  9 10  2  0
  9 11  2  0
  9 12  1  0
 12 13  1  0
 13 14  2  0
 14 15  1  0
 15 16  2  0
 16 17  1  0
 16 18  1  0
 18 19  2  0
  7 20  1  0
 20 21  2  0
 21  4  1  0
 19 13  1  0
  1 22  1  0
  1 23  1  0
  1 24  1  0
  5 25  1  0
  6 26  1  0
  8 27  1  0
 12 28  1  0
 12 29  1  0
 14 30  1  0
 15 31  1  0
 18 32  1  0
 19 33  1  0
 20 34  1  0
 21 35  1  0
M  END
$$$$
