
     RDKit          3D

 61 67  0  0  0  0  0  0  0  0999 V2000
    2.4532    2.7892   -0.9240 O   0  0  0  0  0  0  0  0  0  0  0  0
    2.7206    1.6011   -0.7632 C   0  0  0  0  0  0  0  0  0  0  0  0
    3.9865    1.2772   -0.0725 C   0  0  0  0  0  0  0  0  0  0  0  0
    4.2282    1.8434    1.1961 C   0  0  0  0  0  0  0  0  0  0  0  0
    5.4249    1.5785    1.8679 C   0  0  0  0  0  0  0  0  0  0  0  0
    6.3455    0.7671    1.2379 C   0  0  0  0  0  0  0  0  0  0  0  0
    6.1139    0.2331   -0.0102 C   0  0  0  0  0  0  0  0  0  0  0  0
    4.9464    0.4735   -0.7007 C   0  0  0  0  0  0  0  0  0  0  0  0
    7.1519   -0.5284   -0.4486 O   0  0  0  0  0  0  0  0  0  0  0  0
    8.0693   -0.4024    0.6587 C   0  0  0  0  0  0  0  0  0  0  0  0
    7.5575    0.4065    1.7380 O   0  0  0  0  0  0  0  0  0  0  0  0
    1.9053    0.5569   -1.2065 N   0  0  0  0  0  0  0  0  0  0  0  0
    0.6660    0.9064   -1.8854 C   0  0  0  0  0  0  0  0  0  0  0  0
   -0.5078    0.8422   -0.9061 C   0  0  0  0  0  0  0  0  0  0  0  0
   -0.6259   -0.5583   -0.2373 C   0  0  0  0  0  0  0  0  0  0  0  0
    0.7604   -0.8988    0.3935 C   0  0  0  0  0  0  0  0  0  0  0  0
    1.9013   -0.7795   -0.6192 C   0  0  0  0  0  0  0  0  0  0  0  0
   -0.9117   -1.4751   -1.3245 O   0  0  0  0  0  0  0  0  0  0  0  0
   -1.2976   -2.7358   -0.9687 C   0  0  0  0  0  0  0  0  0  0  0  0
   -1.2133   -3.7071   -1.9657 C   0  0  0  0  0  0  0  0  0  0  0  0
   -1.5687   -5.0287   -1.6857 C   0  0  0  0  0  0  0  0  0  0  0  0
   -2.0127   -5.3738   -0.4089 C   0  0  0  0  0  0  0  0  0  0  0  0
   -2.4462   -7.0028   -0.0697 Cl  0  0  0  0  0  0  0  0  0  0  0  0
   -2.1143   -4.4077    0.5886 C   0  0  0  0  0  0  0  0  0  0  0  0
   -1.7640   -3.0852    0.2973 C   0  0  0  0  0  0  0  0  0  0  0  0
   -1.9015   -2.0331    1.3218 C   0  0  0  0  0  0  0  0  0  0  0  0
   -2.1531   -2.3484    2.4800 O   0  0  0  0  0  0  0  0  0  0  0  0
   -1.7699   -0.6006    0.8164 C   0  0  0  0  0  0  0  0  0  0  0  0
   -3.1444   -0.1586    0.3276 C   0  0  0  0  0  0  0  0  0  0  0  0
   -3.1939    1.1948    0.9460 C   0  0  0  0  0  0  0  0  0  0  0  0
   -4.2295    2.1878    0.5789 C   0  0  0  0  0  0  0  0  0  0  0  0
   -5.2985    1.8536   -0.2605 C   0  0  0  0  0  0  0  0  0  0  0  0
   -6.2548    2.8173   -0.5915 C   0  0  0  0  0  0  0  0  0  0  0  0
   -6.1483    4.1127   -0.0866 C   0  0  0  0  0  0  0  0  0  0  0  0
   -5.0877    4.4489    0.7526 C   0  0  0  0  0  0  0  0  0  0  0  0
   -4.1305    3.4892    1.0863 C   0  0  0  0  0  0  0  0  0  0  0  0
   -2.2678    1.4251    1.8200 N   0  0  0  0  0  0  0  0  0  0  0  0
   -1.4739    0.2602    1.9207 O   0  0  0  0  0  0  0  0  0  0  0  0
    3.4816    2.4922    1.6503 H   0  0  0  0  0  0  0  0  0  0  0  0
    5.6269    2.0021    2.8453 H   0  0  0  0  0  0  0  0  0  0  0  0
    4.7850    0.0625   -1.6903 H   0  0  0  0  0  0  0  0  0  0  0  0
    9.0001    0.0471    0.2937 H   0  0  0  0  0  0  0  0  0  0  0  0
    8.2902   -1.4037    1.0457 H   0  0  0  0  0  0  0  0  0  0  0  0
    0.7311    1.9076   -2.3245 H   0  0  0  0  0  0  0  0  0  0  0  0
    0.5268    0.2027   -2.7142 H   0  0  0  0  0  0  0  0  0  0  0  0
   -0.3706    1.6164   -0.1422 H   0  0  0  0  0  0  0  0  0  0  0  0
   -1.4169    1.0807   -1.4690 H   0  0  0  0  0  0  0  0  0  0  0  0
    0.7781   -1.9181    0.7937 H   0  0  0  0  0  0  0  0  0  0  0  0
    0.9604   -0.2202    1.2324 H   0  0  0  0  0  0  0  0  0  0  0  0
    2.8422   -1.0075   -0.1155 H   0  0  0  0  0  0  0  0  0  0  0  0
    1.7824   -1.5041   -1.4327 H   0  0  0  0  0  0  0  0  0  0  0  0
   -0.8608   -3.4411   -2.9598 H   0  0  0  0  0  0  0  0  0  0  0  0
   -1.4943   -5.7838   -2.4650 H   0  0  0  0  0  0  0  0  0  0  0  0
   -2.4699   -4.6767    1.5811 H   0  0  0  0  0  0  0  0  0  0  0  0
   -3.2357   -0.1305   -0.7604 H   0  0  0  0  0  0  0  0  0  0  0  0
   -3.9621   -0.7595    0.7414 H   0  0  0  0  0  0  0  0  0  0  0  0
   -5.4160    0.8520   -0.6623 H   0  0  0  0  0  0  0  0  0  0  0  0
   -7.0870    2.5577   -1.2416 H   0  0  0  0  0  0  0  0  0  0  0  0
   -6.8942    4.8609   -0.3444 H   0  0  0  0  0  0  0  0  0  0  0  0
   -5.0043    5.4577    1.1496 H   0  0  0  0  0  0  0  0  0  0  0  0
   -3.3078    3.7652    1.7436 H   0  0  0  0  0  0  0  0  0  0  0  0
  1  2  2  0
  2  3  1  0
  3  4  2  0
  4  5  1  0
  5  6  2  0
  6  7  1  0
  7  8  2  0
  7  9  1  0
  9 10  1  0
 10 11  1  0
  2 12  1  0
 12 13  1  0
 13 14  1  0
 14 15  1  0
 15 16  1  0
 16 17  1  0
 15 18  1  0
 18 19  1  0
 19 20  2  0
 20 21  1  0
 21 22  2  0
 22 23  1  0
 22 24  1  0
 24 25  2  0
 25 26  1  0
 26 27  2  0
 26 28  1  0
 28 29  1  0
 29 30  1  0
 30 31  1  0
 31 32  2  0
 32 33  1  0
 33 34  2  0
 34 35  1  0
 35 36  2  0
 30 37  2  0
 37 38  1  0
  8  3  1  0
 17 12  1  0
 25 19  1  0
 38 28  1  0
 11  6  1  0
 28 15  1  0
 36 31  1  0
  4 39  1  0
  5 40  1  0
  8 41  1  0
 10 42  1  0
 10 43  1  0
 13 44  1  0
 13 45  1  0
 14 46  1  0
 14 47  1  0
 16 48  1  0
 16 49  1  0
 17 50  1  0
 17 51  1  0
 20 52  1  0
 21 53  1  0
 24 54  1  0
 29 55  1  0
 29 56  1  0
 32 57  1  0
 33 58  1  0
 34 59  1  0
 35 60  1  0
 36 61  1  0
M  END
$$$$
