
     RDKit          3D

 67 72  0  0  0  0  0  0  0  0999 V2000
   -4.3880    4.9671   -1.2425 C   0  0  0  0  0  0  0  0  0  0  0  0
   -3.3923    3.8783   -1.4896 C   0  0  0  0  0  0  0  0  0  0  0  0
   -3.0090    3.5268   -2.7919 C   0  0  0  0  0  0  0  0  0  0  0  0
   -2.0871    2.4904   -3.0260 C   0  0  0  0  0  0  0  0  0  0  0  0
   -1.5239    1.7801   -1.9640 C   0  0  0  0  0  0  0  0  0  0  0  0
   -1.8919    2.1260   -0.6709 C   0  0  0  0  0  0  0  0  0  0  0  0
   -2.8190    3.1544   -0.4549 C   0  0  0  0  0  0  0  0  0  0  0  0
   -3.0619    3.3039    0.9064 N   0  0  0  0  0  0  0  0  0  0  0  0
   -2.3374    2.3820    1.6643 C   0  0  0  0  0  0  0  0  0  0  0  0
   -2.3937    2.2955    2.8829 O   0  0  0  0  0  0  0  0  0  0  0  0
   -1.4744    1.5626    0.6654 C   0  0  1  0  0  0  0  0  0  0  0  0
   -1.7707    0.1143    0.6547 C   0  0  0  0  0  0  0  0  0  0  0  0
   -0.6169   -0.6418    0.8650 C   0  0  0  0  0  0  0  0  0  0  0  0
   -0.9453   -1.9716    0.8276 C   0  0  0  0  0  0  0  0  0  0  0  0
   -0.1851   -3.0455    1.0244 O   0  0  0  0  0  0  0  0  0  0  0  0
   -2.3386   -2.0496    0.6280 N   0  0  0  0  0  0  0  0  0  0  0  0
   -3.1304   -3.2417    0.6457 C   0  0  0  0  0  0  0  0  0  0  0  0
   -2.6028   -4.4576    0.1930 C   0  0  0  0  0  0  0  0  0  0  0  0
   -3.3869   -5.6148    0.2092 C   0  0  0  0  0  0  0  0  0  0  0  0
   -4.6949   -5.5687    0.6862 C   0  0  0  0  0  0  0  0  0  0  0  0
   -5.2213   -4.3673    1.1556 C   0  0  0  0  0  0  0  0  0  0  0  0
   -4.4437   -3.2070    1.1389 C   0  0  0  0  0  0  0  0  0  0  0  0
   -2.8229   -0.7376    0.4484 C   0  0  0  0  0  0  0  0  0  0  0  0
   -4.0675   -0.4276    0.0871 O   0  0  0  0  0  0  0  0  0  0  0  0
    0.5607    0.2227    1.0870 C   0  0  1  0  0  0  0  0  0  0  0  0
    1.7038    0.0255    0.0757 C   0  0  0  0  0  0  0  0  0  0  0  0
    2.7496    1.0410    0.2491 N   0  0  0  0  0  0  0  0  0  0  0  0
    4.0986    0.7841    0.1185 C   0  0  0  0  0  0  0  0  0  0  0  0
    4.9648    1.6165    0.3484 O   0  0  0  0  0  0  0  0  0  0  0  0
    4.3410   -0.4892   -0.2841 O   0  0  0  0  0  0  0  0  0  0  0  0
    5.6994   -0.9769   -0.4367 C   0  0  0  0  0  0  0  0  0  0  0  0
    6.4407   -0.2203   -1.5425 C   0  0  0  0  0  0  0  0  0  0  0  0
    5.5412   -2.4449   -0.8630 C   0  0  0  0  0  0  0  0  0  0  0  0
    6.4586   -0.9362    0.8954 C   0  0  0  0  0  0  0  0  0  0  0  0
    2.3171    2.3669    0.6961 C   0  0  0  0  0  0  0  0  0  0  0  0
    0.8189    2.6172    0.4334 C   0  0  0  0  0  0  0  0  0  0  0  0
   -0.0284    1.6002    1.0535 N   0  0  0  0  0  0  0  0  0  0  0  0
   -3.9699    5.7206   -0.5668 H   0  0  0  0  0  0  0  0  0  0  0  0
   -5.3001    4.5525   -0.8015 H   0  0  0  0  0  0  0  0  0  0  0  0
   -4.6655    5.4762   -2.1718 H   0  0  0  0  0  0  0  0  0  0  0  0
   -3.4297    4.0539   -3.6466 H   0  0  0  0  0  0  0  0  0  0  0  0
   -1.8147    2.2373   -4.0483 H   0  0  0  0  0  0  0  0  0  0  0  0
   -0.8208    0.9748   -2.1508 H   0  0  0  0  0  0  0  0  0  0  0  0
   -3.7128    3.9493    1.3253 H   0  0  0  0  0  0  0  0  0  0  0  0
    0.6841   -2.7486    1.3451 H   0  0  0  0  0  0  0  0  0  0  0  0
   -1.5944   -4.5262   -0.2056 H   0  0  0  0  0  0  0  0  0  0  0  0
   -2.9731   -6.5532   -0.1527 H   0  0  0  0  0  0  0  0  0  0  0  0
   -5.3002   -6.4716    0.7027 H   0  0  0  0  0  0  0  0  0  0  0  0
   -6.2329   -4.3364    1.5526 H   0  0  0  0  0  0  0  0  0  0  0  0
   -4.8660   -2.3013    1.5706 H   0  0  0  0  0  0  0  0  0  0  0  0
   -4.4698   -1.2026   -0.3459 H   0  0  0  0  0  0  0  0  0  0  0  0
    0.9477    0.0581    2.1003 H   0  0  0  0  0  0  0  0  0  0  0  0
    2.1180   -0.9829    0.1696 H   0  0  0  0  0  0  0  0  0  0  0  0
    1.3383    0.1242   -0.9534 H   0  0  0  0  0  0  0  0  0  0  0  0
    6.6559    0.8131   -1.2545 H   0  0  0  0  0  0  0  0  0  0  0  0
    7.3974   -0.6988   -1.7811 H   0  0  0  0  0  0  0  0  0  0  0  0
    5.8363   -0.1723   -2.4549 H   0  0  0  0  0  0  0  0  0  0  0  0
    4.9614   -2.5265   -1.7915 H   0  0  0  0  0  0  0  0  0  0  0  0
    6.5108   -2.9306   -1.0166 H   0  0  0  0  0  0  0  0  0  0  0  0
    4.9874   -3.0122   -0.1053 H   0  0  0  0  0  0  0  0  0  0  0  0
    5.8636   -1.3897    1.6964 H   0  0  0  0  0  0  0  0  0  0  0  0
    7.4150   -1.4671    0.8273 H   0  0  0  0  0  0  0  0  0  0  0  0
    6.6805    0.0895    1.2078 H   0  0  0  0  0  0  0  0  0  0  0  0
    2.5337    2.4376    1.7697 H   0  0  0  0  0  0  0  0  0  0  0  0
    2.9199    3.1300    0.1891 H   0  0  0  0  0  0  0  0  0  0  0  0
    0.6928    2.6404   -0.6532 H   0  0  0  0  0  0  0  0  0  0  0  0
    0.5467    3.6052    0.8185 H   0  0  0  0  0  0  0  0  0  0  0  0
  1  2  1  0
  2  3  2  0
  3  4  1  0
  4  5  2  0
  5  6  1  0
  6  7  2  0
  7  8  1  0
  8  9  1  0
  9 10  2  0
  9 11  1  0
 11 12  1  0
 12 13  1  0
 13 14  2  0
 14 15  1  0
 14 16  1  0
 16 17  1  0
 17 18  2  0
 18 19  1  0
 19 20  2  0
 20 21  1  0
 21 22  2  0
 16 23  1  0
 23 24  1  0
 13 25  1  0
 25 26  1  0
 26 27  1  0
 27 28  1  0
 28 29  2  0
 28 30  1  0
 30 31  1  0
 31 32  1  0
 31 33  1  0
 31 34  1  0
 27 35  1  0
 35 36  1  0
 36 37  1  0
  7  2  1  0
 11 37  1  1
 11  6  1  0
 23 12  2  0
 37 25  1  0
 22 17  1  0
  1 38  1  0
  1 39  1  0
  1 40  1  0
  3 41  1  0
  4 42  1  0
  5 43  1  0
  8 44  1  0
 15 45  1  0
 18 46  1  0
 19 47  1  0
 20 48  1  0
 21 49  1  0
 22 50  1  0
 24 51  1  0
 25 52  1  1
 26 53  1  0
 26 54  1  0
 32 55  1  0
 32 56  1  0
 32 57  1  0
 33 58  1  0
 33 59  1  0
 33 60  1  0
 34 61  1  0
 34 62  1  0
 34 63  1  0
 35 64  1  0
 35 65  1  0
 36 66  1  0
 36 67  1  0
M  END
$$$$
