
     RDKit          3D

 38 38  0  0  0  0  0  0  0  0999 V2000
    4.5923    0.7276   -3.4710 C   0  0  0  0  0  0  0  0  0  0  0  0
    4.4542   -0.6980   -2.9703 C   0  0  0  0  0  0  0  0  0  0  0  0
    3.3382   -0.8011   -2.0742 O   0  0  0  0  0  0  0  0  0  0  0  0
    3.5906   -0.4844   -0.7741 C   0  0  0  0  0  0  0  0  0  0  0  0
    4.6881   -0.2038   -0.3100 O   0  0  0  0  0  0  0  0  0  0  0  0
    2.3414   -0.5944    0.0476 C   0  0  0  0  0  0  0  0  0  0  0  0
    1.2789    0.4037   -0.3326 C   0  0  0  0  0  0  0  0  0  0  0  0
    1.5192    1.3973   -1.0151 O   0  0  0  0  0  0  0  0  0  0  0  0
   -0.1174    0.1871    0.1564 C   0  0  0  0  0  0  0  0  0  0  0  0
   -1.1465    0.9316   -0.4431 C   0  0  0  0  0  0  0  0  0  0  0  0
   -2.4696    0.7733   -0.0303 C   0  0  0  0  0  0  0  0  0  0  0  0
   -3.5417    1.4442   -0.5579 O   0  0  0  0  0  0  0  0  0  0  0  0
   -3.2985    2.3078   -1.6607 C   0  0  0  0  0  0  0  0  0  0  0  0
   -2.7488   -0.1302    1.0086 C   0  0  0  0  0  0  0  0  0  0  0  0
   -4.0555   -0.3340    1.3954 O   0  0  0  0  0  0  0  0  0  0  0  0
   -4.4049    0.5850    2.4292 C   0  0  0  0  0  0  0  0  0  0  0  0
   -1.7316   -0.8917    1.6109 C   0  0  0  0  0  0  0  0  0  0  0  0
   -2.1267   -1.7477    2.6062 O   0  0  0  0  0  0  0  0  0  0  0  0
   -1.1663   -2.6631    3.1141 C   0  0  0  0  0  0  0  0  0  0  0  0
   -0.4120   -0.7186    1.1857 C   0  0  0  0  0  0  0  0  0  0  0  0
    5.4024    0.8053   -4.2016 H   0  0  0  0  0  0  0  0  0  0  0  0
    3.6607    1.0626   -3.9387 H   0  0  0  0  0  0  0  0  0  0  0  0
    4.7992    1.4158   -2.6453 H   0  0  0  0  0  0  0  0  0  0  0  0
    4.2499   -1.3659   -3.8135 H   0  0  0  0  0  0  0  0  0  0  0  0
    5.3785   -1.0496   -2.4979 H   0  0  0  0  0  0  0  0  0  0  0  0
    1.9690   -1.6187   -0.0602 H   0  0  0  0  0  0  0  0  0  0  0  0
    2.6115   -0.4282    1.0964 H   0  0  0  0  0  0  0  0  0  0  0  0
   -0.8867    1.6288   -1.2350 H   0  0  0  0  0  0  0  0  0  0  0  0
   -2.6529    3.1433   -1.3709 H   0  0  0  0  0  0  0  0  0  0  0  0
   -2.8793    1.7580   -2.5098 H   0  0  0  0  0  0  0  0  0  0  0  0
   -4.2596    2.7249   -1.9765 H   0  0  0  0  0  0  0  0  0  0  0  0
   -4.3494    1.6215    2.0792 H   0  0  0  0  0  0  0  0  0  0  0  0
   -5.4400    0.3828    2.7204 H   0  0  0  0  0  0  0  0  0  0  0  0
   -3.7730    0.4500    3.3139 H   0  0  0  0  0  0  0  0  0  0  0  0
   -0.3767   -2.1378    3.6610 H   0  0  0  0  0  0  0  0  0  0  0  0
   -0.7480   -3.2851    2.3157 H   0  0  0  0  0  0  0  0  0  0  0  0
   -1.6758   -3.3256    3.8204 H   0  0  0  0  0  0  0  0  0  0  0  0
    0.3869   -1.2728    1.6628 H   0  0  0  0  0  0  0  0  0  0  0  0
  1  2  1  0
  2  3  1  0
  3  4  1  0
  4  5  2  0
  4  6  1  0
  6  7  1  0
  7  8  2  0
  7  9  1  0
  9 10  2  0
 10 11  1  0
 11 12  1  0
 12 13  1  0
 11 14  2  0
 14 15  1  0
 15 16  1  0
 14 17  1  0
 17 18  1  0
 18 19  1  0
 17 20  2  0
 20  9  1  0
  1 21  1  0
  1 22  1  0
  1 23  1  0
  2 24  1  0
  2 25  1  0
  6 26  1  0
  6 27  1  0
 10 28  1  0
 13 29  1  0
 13 30  1  0
 13 31  1  0
 16 32  1  0
 16 33  1  0
 16 34  1  0
 19 35  1  0
 19 36  1  0
 19 37  1  0
 20 38  1  0
M  END
$$$$
