
     RDKit          3D

 36 37  0  0  0  0  0  0  0  0999 V2000
   -7.1949    0.0852    1.2644 C   0  0  0  0  0  0  0  0  0  0  0  0
   -6.3546    0.5333    0.2080 O   0  0  0  0  0  0  0  0  0  0  0  0
   -5.0299    0.2053    0.2891 C   0  0  0  0  0  0  0  0  0  0  0  0
   -4.4261   -0.5267    1.3114 C   0  0  0  0  0  0  0  0  0  0  0  0
   -3.0518   -0.7918    1.2686 C   0  0  0  0  0  0  0  0  0  0  0  0
   -2.2683   -0.3276    0.2037 C   0  0  0  0  0  0  0  0  0  0  0  0
   -0.8132   -0.6393    0.2123 C   0  0  0  0  0  0  0  0  0  0  0  0
   -0.2675   -1.2824    1.0951 O   0  0  0  0  0  0  0  0  0  0  0  0
   -0.2029   -0.1068   -0.8758 O   0  0  0  0  0  0  0  0  0  0  0  0
    1.2089   -0.3598   -0.9781 C   0  0  0  0  0  0  0  0  0  0  0  0
    1.9953    0.6531   -0.1475 C   0  0  0  0  0  0  0  0  0  0  0  0
    3.4824    0.4405   -0.2601 C   0  0  0  0  0  0  0  0  0  0  0  0
    4.1276   -0.4881    0.5699 C   0  0  0  0  0  0  0  0  0  0  0  0
    5.5025   -0.7049    0.4572 C   0  0  0  0  0  0  0  0  0  0  0  0
    6.2311    0.0061   -0.4905 C   0  0  0  0  0  0  0  0  0  0  0  0
    7.5749   -0.1744   -0.6354 O   0  0  0  0  0  0  0  0  0  0  0  0
    5.6077    0.9261   -1.3245 C   0  0  0  0  0  0  0  0  0  0  0  0
    4.2336    1.1431   -1.2119 C   0  0  0  0  0  0  0  0  0  0  0  0
   -2.8759    0.4062   -0.8210 C   0  0  0  0  0  0  0  0  0  0  0  0
   -4.2487    0.6682   -0.7734 C   0  0  0  0  0  0  0  0  0  0  0  0
   -7.2146   -1.0084    1.3161 H   0  0  0  0  0  0  0  0  0  0  0  0
   -6.8919    0.5217    2.2218 H   0  0  0  0  0  0  0  0  0  0  0  0
   -8.2122    0.4267    1.0500 H   0  0  0  0  0  0  0  0  0  0  0  0
   -4.9917   -0.9066    2.1560 H   0  0  0  0  0  0  0  0  0  0  0  0
   -2.5952   -1.3648    2.0741 H   0  0  0  0  0  0  0  0  0  0  0  0
    1.4701   -0.2634   -2.0383 H   0  0  0  0  0  0  0  0  0  0  0  0
    1.4382   -1.3948   -0.6945 H   0  0  0  0  0  0  0  0  0  0  0  0
    1.7333    1.6715   -0.4626 H   0  0  0  0  0  0  0  0  0  0  0  0
    1.6958    0.6038    0.9067 H   0  0  0  0  0  0  0  0  0  0  0  0
    3.5584   -1.0479    1.3102 H   0  0  0  0  0  0  0  0  0  0  0  0
    5.9807   -1.4267    1.1113 H   0  0  0  0  0  0  0  0  0  0  0  0
    7.8680   -0.8342    0.0140 H   0  0  0  0  0  0  0  0  0  0  0  0
    6.1898    1.4730   -2.0606 H   0  0  0  0  0  0  0  0  0  0  0  0
    3.7558    1.8643   -1.8709 H   0  0  0  0  0  0  0  0  0  0  0  0
   -2.2997    0.7811   -1.6629 H   0  0  0  0  0  0  0  0  0  0  0  0
   -4.7150    1.2392   -1.5734 H   0  0  0  0  0  0  0  0  0  0  0  0
  1  2  1  0
  2  3  1  0
  3  4  2  0
  4  5  1  0
  5  6  2  0
  6  7  1  0
  7  8  2  0
  7  9  1  0
  9 10  1  0
 10 11  1  0
 11 12  1  0
 12 13  2  0
 13 14  1  0
 14 15  2  0
 15 16  1  0
 15 17  1  0
 17 18  2  0
  6 19  1  0
 19 20  2  0
 20  3  1  0
 18 12  1  0
  1 21  1  0
  1 22  1  0
  1 23  1  0
  4 24  1  0
  5 25  1  0
 10 26  1  0
 10 27  1  0
 11 28  1  0
 11 29  1  0
 13 30  1  0
 14 31  1  0
 16 32  1  0
 17 33  1  0
 18 34  1  0
 19 35  1  0
 20 36  1  0
M  END
$$$$
