
     RDKit          3D

 49 50  0  0  0  0  0  0  0  0999 V2000
    6.8980   -1.0435   -1.4255 C   0  0  0  0  0  0  0  0  0  0  0  0
    5.8554   -1.4747   -0.4127 C   0  0  0  0  0  0  0  0  0  0  0  0
    4.6931   -0.6605   -0.5967 O   0  0  0  0  0  0  0  0  0  0  0  0
    3.6742   -0.9245    0.2737 C   0  0  0  0  0  0  0  0  0  0  0  0
    3.7386   -1.7899    1.1411 O   0  0  0  0  0  0  0  0  0  0  0  0
    2.4972   -0.0687    0.0566 C   0  0  0  0  0  0  0  0  0  0  0  0
    2.3552    1.0743   -0.8098 C   0  0  0  0  0  0  0  0  0  0  0  0
    3.4121    1.6531   -1.6916 C   0  0  0  0  0  0  0  0  0  0  0  0
    1.0558    1.5447   -0.6731 C   0  0  0  0  0  0  0  0  0  0  0  0
    0.3793    2.6852   -1.3610 C   0  0  0  0  0  0  0  0  0  0  0  0
    0.4207    0.7676    0.2761 N   0  0  0  0  0  0  0  0  0  0  0  0
   -0.9293    1.0155    0.8007 C   0  0  0  0  0  0  0  0  0  0  0  0
   -2.0385    0.2473    0.1108 C   0  0  0  0  0  0  0  0  0  0  0  0
   -1.8366   -0.5304   -1.0392 C   0  0  0  0  0  0  0  0  0  0  0  0
   -2.9005   -1.1994   -1.6431 C   0  0  0  0  0  0  0  0  0  0  0  0
   -4.1906   -1.0897   -1.1234 C   0  0  0  0  0  0  0  0  0  0  0  0
   -4.4316   -0.3131    0.0126 C   0  0  0  0  0  0  0  0  0  0  0  0
   -5.6719   -0.1173    0.5617 O   0  0  0  0  0  0  0  0  0  0  0  0
   -6.7942   -0.6240   -0.1483 C   0  0  0  0  0  0  0  0  0  0  0  0
   -3.3444    0.3288    0.6403 C   0  0  0  0  0  0  0  0  0  0  0  0
   -3.4941    1.1285    1.7524 O   0  0  0  0  0  0  0  0  0  0  0  0
   -4.1038    0.4511    2.8513 C   0  0  0  0  0  0  0  0  0  0  0  0
    1.2688   -0.2391    0.6955 C   0  0  0  0  0  0  0  0  0  0  0  0
    0.8638   -1.2902    1.6798 C   0  0  0  0  0  0  0  0  0  0  0  0
    7.1472    0.0149   -1.2950 H   0  0  0  0  0  0  0  0  0  0  0  0
    6.5159   -1.1561   -2.4453 H   0  0  0  0  0  0  0  0  0  0  0  0
    7.8106   -1.6369   -1.3225 H   0  0  0  0  0  0  0  0  0  0  0  0
    6.2480   -1.3390    0.6010 H   0  0  0  0  0  0  0  0  0  0  0  0
    5.5983   -2.5278   -0.5722 H   0  0  0  0  0  0  0  0  0  0  0  0
    4.3248    1.8507   -1.1201 H   0  0  0  0  0  0  0  0  0  0  0  0
    3.6463    0.9630   -2.5084 H   0  0  0  0  0  0  0  0  0  0  0  0
    3.1032    2.6034   -2.1356 H   0  0  0  0  0  0  0  0  0  0  0  0
   -0.6550    2.4400   -1.6207 H   0  0  0  0  0  0  0  0  0  0  0  0
    0.8844    2.9446   -2.2957 H   0  0  0  0  0  0  0  0  0  0  0  0
    0.3786    3.5695   -0.7159 H   0  0  0  0  0  0  0  0  0  0  0  0
   -1.1184    2.0922    0.7237 H   0  0  0  0  0  0  0  0  0  0  0  0
   -0.8977    0.7711    1.8692 H   0  0  0  0  0  0  0  0  0  0  0  0
   -0.8489   -0.6296   -1.4856 H   0  0  0  0  0  0  0  0  0  0  0  0
   -2.7229   -1.8015   -2.5313 H   0  0  0  0  0  0  0  0  0  0  0  0
   -4.9864   -1.6194   -1.6360 H   0  0  0  0  0  0  0  0  0  0  0  0
   -6.7805   -1.7183   -0.1743 H   0  0  0  0  0  0  0  0  0  0  0  0
   -7.6961   -0.3166    0.3899 H   0  0  0  0  0  0  0  0  0  0  0  0
   -6.8502   -0.2031   -1.1577 H   0  0  0  0  0  0  0  0  0  0  0  0
   -3.9269   -0.6308    2.8385 H   0  0  0  0  0  0  0  0  0  0  0  0
   -5.1756    0.6677    2.8797 H   0  0  0  0  0  0  0  0  0  0  0  0
   -3.6622    0.8486    3.7703 H   0  0  0  0  0  0  0  0  0  0  0  0
    1.2583   -1.0475    2.6714 H   0  0  0  0  0  0  0  0  0  0  0  0
   -0.2206   -1.4004    1.7606 H   0  0  0  0  0  0  0  0  0  0  0  0
    1.2490   -2.2699    1.3805 H   0  0  0  0  0  0  0  0  0  0  0  0
  1  2  1  0
  2  3  1  0
  3  4  1  0
  4  5  2  0
  4  6  1  0
  6  7  1  0
  7  8  1  0
  7  9  2  0
  9 10  1  0
  9 11  1  0
 11 12  1  0
 12 13  1  0
 13 14  2  0
 14 15  1  0
 15 16  2  0
 16 17  1  0
 17 18  1  0
 18 19  1  0
 17 20  2  0
 20 21  1  0
 21 22  1  0
 11 23  1  0
 23 24  1  0
 23  6  2  0
 20 13  1  0
  1 25  1  0
  1 26  1  0
  1 27  1  0
  2 28  1  0
  2 29  1  0
  8 30  1  0
  8 31  1  0
  8 32  1  0
 10 33  1  0
 10 34  1  0
 10 35  1  0
 12 36  1  0
 12 37  1  0
 14 38  1  0
 15 39  1  0
 16 40  1  0
 19 41  1  0
 19 42  1  0
 19 43  1  0
 22 44  1  0
 22 45  1  0
 22 46  1  0
 24 47  1  0
 24 48  1  0
 24 49  1  0
M  END
$$$$
