
     RDKit          3D

 51 55  0  0  0  0  0  0  0  0999 V2000
   -9.5470    1.7939    1.6502 C   0  0  0  0  0  0  0  0  0  0  0  0
   -9.1091    1.0464    0.4237 C   0  0  0  0  0  0  0  0  0  0  0  0
  -10.0000    0.8322   -0.6353 C   0  0  0  0  0  0  0  0  0  0  0  0
   -9.6077    0.0954   -1.7538 C   0  0  0  0  0  0  0  0  0  0  0  0
   -8.3202   -0.4342   -1.8243 C   0  0  0  0  0  0  0  0  0  0  0  0
   -7.4156   -0.2252   -0.7767 C   0  0  0  0  0  0  0  0  0  0  0  0
   -6.0484   -0.8145   -0.8918 C   0  0  0  0  0  0  0  0  0  0  0  0
   -5.9157   -1.8522   -1.5289 O   0  0  0  0  0  0  0  0  0  0  0  0
   -5.0531   -0.0857   -0.2824 N   0  0  0  0  0  0  0  0  0  0  0  0
   -3.7211   -0.4116   -0.2124 C   0  0  0  0  0  0  0  0  0  0  0  0
   -2.8389    0.3891    0.3499 N   0  0  0  0  0  0  0  0  0  0  0  0
   -1.5639   -0.1414    0.3203 N   0  0  0  0  0  0  0  0  0  0  0  0
   -1.5438   -1.3224   -0.2605 C   0  0  0  0  0  0  0  0  0  0  0  0
   -0.0651   -2.2233   -0.4651 S   0  0  0  0  0  0  0  0  0  0  0  0
    0.6855   -1.9862    1.1724 C   0  0  0  0  0  0  0  0  0  0  0  0
    2.1969   -1.9486    1.0274 C   0  0  0  0  0  0  0  0  0  0  0  0
    2.8760   -2.9494    1.2357 O   0  0  0  0  0  0  0  0  0  0  0  0
    2.6639   -0.6939    0.6587 N   0  0  0  0  0  0  0  0  0  0  0  0
    4.0022   -0.3001    0.4456 C   0  0  0  0  0  0  0  0  0  0  0  0
    4.2105    1.0396    0.0785 C   0  0  0  0  0  0  0  0  0  0  0  0
    5.4971    1.5496   -0.1653 C   0  0  0  0  0  0  0  0  0  0  0  0
    6.5982    0.6863   -0.0417 C   0  0  0  0  0  0  0  0  0  0  0  0
    6.3599   -0.6330    0.3244 C   0  0  0  0  0  0  0  0  0  0  0  0
    5.0931   -1.1656    0.5792 C   0  0  0  0  0  0  0  0  0  0  0  0
    7.5310   -1.3255    0.3936 O   0  0  0  0  0  0  0  0  0  0  0  0
    8.5287   -0.4578    0.0687 C   0  0  0  0  0  0  0  0  0  0  0  0
    9.8844   -0.7730    0.0140 C   0  0  0  0  0  0  0  0  0  0  0  0
   10.7539    0.2625   -0.3449 C   0  0  0  0  0  0  0  0  0  0  0  0
   10.2732    1.5433   -0.6282 C   0  0  0  0  0  0  0  0  0  0  0  0
    8.9026    1.8309   -0.5626 C   0  0  0  0  0  0  0  0  0  0  0  0
    8.0097    0.8020   -0.2071 C   0  0  0  0  0  0  0  0  0  0  0  0
   -3.0675   -1.8651   -0.8138 S   0  0  0  0  0  0  0  0  0  0  0  0
   -7.8197    0.4986    0.3553 C   0  0  0  0  0  0  0  0  0  0  0  0
   -8.7350    2.4279    2.0245 H   0  0  0  0  0  0  0  0  0  0  0  0
   -9.8390    1.0874    2.4340 H   0  0  0  0  0  0  0  0  0  0  0  0
  -10.3971    2.4487    1.4321 H   0  0  0  0  0  0  0  0  0  0  0  0
  -11.0124    1.2296   -0.5911 H   0  0  0  0  0  0  0  0  0  0  0  0
  -10.3091   -0.0721   -2.5687 H   0  0  0  0  0  0  0  0  0  0  0  0
   -8.0248   -1.0140   -2.6968 H   0  0  0  0  0  0  0  0  0  0  0  0
   -5.2597    0.8225    0.1086 H   0  0  0  0  0  0  0  0  0  0  0  0
    0.4091   -2.8188    1.8278 H   0  0  0  0  0  0  0  0  0  0  0  0
    0.3573   -1.0635    1.6595 H   0  0  0  0  0  0  0  0  0  0  0  0
    1.9607    0.0177    0.4925 H   0  0  0  0  0  0  0  0  0  0  0  0
    3.3668    1.7200   -0.0254 H   0  0  0  0  0  0  0  0  0  0  0  0
    5.6330    2.5888   -0.4491 H   0  0  0  0  0  0  0  0  0  0  0  0
    5.0014   -2.2074    0.8559 H   0  0  0  0  0  0  0  0  0  0  0  0
   10.2389   -1.7718    0.2359 H   0  0  0  0  0  0  0  0  0  0  0  0
   11.8214    0.0649   -0.4048 H   0  0  0  0  0  0  0  0  0  0  0  0
   10.9720    2.3303   -0.9052 H   0  0  0  0  0  0  0  0  0  0  0  0
    8.5404    2.8295   -0.7862 H   0  0  0  0  0  0  0  0  0  0  0  0
   -7.1540    0.6193    1.2066 H   0  0  0  0  0  0  0  0  0  0  0  0
  1  2  1  0
  2  3  2  0
  3  4  1  0
  4  5  2  0
  5  6  1  0
  6  7  1  0
  7  8  2  0
  7  9  1  0
  9 10  1  0
 10 11  2  0
 11 12  1  0
 12 13  2  0
 13 14  1  0
 14 15  1  0
 15 16  1  0
 16 17  2  0
 16 18  1  0
 18 19  1  0
 19 20  2  0
 20 21  1  0
 21 22  2  0
 22 23  1  0
 23 24  2  0
 23 25  1  0
 25 26  1  0
 26 27  2  0
 27 28  1  0
 28 29  2  0
 29 30  1  0
 30 31  2  0
 13 32  1  0
  6 33  2  0
 33  2  1  0
 32 10  1  0
 24 19  1  0
 31 26  1  0
 31 22  1  0
  1 34  1  0
  1 35  1  0
  1 36  1  0
  3 37  1  0
  4 38  1  0
  5 39  1  0
  9 40  1  0
 15 41  1  0
 15 42  1  0
 18 43  1  0
 20 44  1  0
 21 45  1  0
 24 46  1  0
 27 47  1  0
 28 48  1  0
 29 49  1  0
 30 50  1  0
 33 51  1  0
M  END
$$$$
