
     RDKit          3D

 39 40  0  0  0  0  0  0  0  0999 V2000
    6.6510   -0.0084   -0.5511 C   0  0  0  0  0  0  0  0  0  0  0  0
    5.2265   -0.3570   -0.9579 C   0  0  0  0  0  0  0  0  0  0  0  0
    4.1549    0.3554   -0.1138 C   0  0  0  0  0  0  0  0  0  0  0  0
    4.1746   -0.1021    1.3460 C   0  0  0  0  0  0  0  0  0  0  0  0
    2.7579    0.1223   -0.7073 C   0  0  0  0  0  0  0  0  0  0  0  0
    2.5477   -0.7669   -1.5246 O   0  0  0  0  0  0  0  0  0  0  0  0
    1.8271    1.0026   -0.2006 N   0  0  0  0  0  0  0  0  0  0  0  0
    0.4911    1.0624   -0.5081 C   0  0  0  0  0  0  0  0  0  0  0  0
   -0.3035    1.9628    0.0260 N   0  0  0  0  0  0  0  0  0  0  0  0
   -1.6041    1.8423   -0.4208 N   0  0  0  0  0  0  0  0  0  0  0  0
   -1.7436    0.8432   -1.2679 C   0  0  0  0  0  0  0  0  0  0  0  0
   -3.0244    0.4624   -1.9394 C   0  0  0  0  0  0  0  0  0  0  0  0
   -3.6658   -0.7976   -1.3508 C   0  0  0  0  0  0  0  0  0  0  0  0
   -4.2417   -0.5974    0.0304 C   0  0  0  0  0  0  0  0  0  0  0  0
   -3.5177   -0.9806    1.1672 C   0  0  0  0  0  0  0  0  0  0  0  0
   -4.0480   -0.7822    2.4431 C   0  0  0  0  0  0  0  0  0  0  0  0
   -5.3043   -0.1986    2.5950 C   0  0  0  0  0  0  0  0  0  0  0  0
   -6.0315    0.1885    1.4713 C   0  0  0  0  0  0  0  0  0  0  0  0
   -5.5032   -0.0084    0.1946 C   0  0  0  0  0  0  0  0  0  0  0  0
   -0.2807    0.0010   -1.5917 S   0  0  0  0  0  0  0  0  0  0  0  0
    6.8884   -0.3878    0.4473 H   0  0  0  0  0  0  0  0  0  0  0  0
    7.3612   -0.4595   -1.2517 H   0  0  0  0  0  0  0  0  0  0  0  0
    6.8093    1.0747   -0.5593 H   0  0  0  0  0  0  0  0  0  0  0  0
    5.0952   -0.0816   -2.0122 H   0  0  0  0  0  0  0  0  0  0  0  0
    5.0930   -1.4445   -0.9038 H   0  0  0  0  0  0  0  0  0  0  0  0
    4.3491    1.4356   -0.1518 H   0  0  0  0  0  0  0  0  0  0  0  0
    4.0275   -1.1856    1.4188 H   0  0  0  0  0  0  0  0  0  0  0  0
    5.1234    0.1482    1.8298 H   0  0  0  0  0  0  0  0  0  0  0  0
    3.3786    0.3734    1.9293 H   0  0  0  0  0  0  0  0  0  0  0  0
    2.1132    1.7127    0.4592 H   0  0  0  0  0  0  0  0  0  0  0  0
   -2.8310    0.2962   -3.0070 H   0  0  0  0  0  0  0  0  0  0  0  0
   -3.7229    1.3068   -1.8828 H   0  0  0  0  0  0  0  0  0  0  0  0
   -4.4791   -1.1215   -2.0138 H   0  0  0  0  0  0  0  0  0  0  0  0
   -2.9523   -1.6317   -1.3370 H   0  0  0  0  0  0  0  0  0  0  0  0
   -2.5321   -1.4304    1.0692 H   0  0  0  0  0  0  0  0  0  0  0  0
   -3.4770   -1.0782    3.3193 H   0  0  0  0  0  0  0  0  0  0  0  0
   -5.7142   -0.0409    3.5889 H   0  0  0  0  0  0  0  0  0  0  0  0
   -7.0094    0.6477    1.5895 H   0  0  0  0  0  0  0  0  0  0  0  0
   -6.0832    0.3026   -0.6715 H   0  0  0  0  0  0  0  0  0  0  0  0
  1  2  1  0
  2  3  1  0
  3  4  1  0
  3  5  1  0
  5  6  2  0
  5  7  1  0
  7  8  1  0
  8  9  2  0
  9 10  1  0
 10 11  2  0
 11 12  1  0
 12 13  1  0
 13 14  1  0
 14 15  2  0
 15 16  1  0
 16 17  2  0
 17 18  1  0
 18 19  2  0
 11 20  1  0
 20  8  1  0
 19 14  1  0
  1 21  1  0
  1 22  1  0
  1 23  1  0
  2 24  1  0
  2 25  1  0
  3 26  1  0
  4 27  1  0
  4 28  1  0
  4 29  1  0
  7 30  1  0
 12 31  1  0
 12 32  1  0
 13 33  1  0
 13 34  1  0
 15 35  1  0
 16 36  1  0
 17 37  1  0
 18 38  1  0
 19 39  1  0
M  END
$$$$
