
     RDKit          3D

 45 49  0  0  0  0  0  0  0  0999 V2000
    0.9694   -0.3896   -1.9057 O   0  0  0  0  0  0  0  0  0  0  0  0
    1.5063   -0.0321   -0.8671 C   0  0  0  0  0  0  0  0  0  0  0  0
    0.9807   -0.0752    0.3940 O   0  0  0  0  0  0  0  0  0  0  0  0
   -0.3791   -0.4288    0.4095 C   0  0  0  0  0  0  0  0  0  0  0  0
   -1.3758    0.4791    0.2626 C   0  0  0  0  0  0  0  0  0  0  0  0
   -1.0511    1.9011    0.0544 C   0  0  0  0  0  0  0  0  0  0  0  0
   -0.7574    2.7278    1.1466 C   0  0  0  0  0  0  0  0  0  0  0  0
   -0.4118    4.0650    0.9432 C   0  0  0  0  0  0  0  0  0  0  0  0
   -0.3552    4.5821   -0.3505 C   0  0  0  0  0  0  0  0  0  0  0  0
   -0.6463    3.7652   -1.4422 C   0  0  0  0  0  0  0  0  0  0  0  0
   -0.9939    2.4284   -1.2417 C   0  0  0  0  0  0  0  0  0  0  0  0
   -2.8287    0.0465    0.3096 C   0  0  0  0  0  0  0  0  0  0  0  0
   -3.7484    0.8477    0.1640 O   0  0  0  0  0  0  0  0  0  0  0  0
   -3.0373   -1.2886    0.5375 N   0  0  0  0  0  0  0  0  0  0  0  0
   -2.0058   -2.1918    0.7162 C   0  0  0  0  0  0  0  0  0  0  0  0
   -2.4843   -3.4714    0.9452 C   0  0  0  0  0  0  0  0  0  0  0  0
   -1.5848   -4.4976    1.1522 C   0  0  0  0  0  0  0  0  0  0  0  0
   -0.2143   -4.1922    1.1213 C   0  0  0  0  0  0  0  0  0  0  0  0
    0.2414   -2.8757    0.8846 C   0  0  0  0  0  0  0  0  0  0  0  0
   -0.6723   -1.8432    0.6742 C   0  0  0  0  0  0  0  0  0  0  0  0
   -3.9824   -3.4744    0.9182 C   0  0  0  0  0  0  0  0  0  0  0  0
   -4.3167   -1.9868    0.6411 C   0  0  0  0  0  0  0  0  0  0  0  0
    2.8961    0.4966   -0.8129 C   0  0  0  0  0  0  0  0  0  0  0  0
    3.4160    1.1325    0.3235 C   0  0  0  0  0  0  0  0  0  0  0  0
    4.7269    1.6153    0.3177 C   0  0  0  0  0  0  0  0  0  0  0  0
    5.5215    1.4696   -0.8191 C   0  0  0  0  0  0  0  0  0  0  0  0
    5.0085    0.8451   -1.9551 C   0  0  0  0  0  0  0  0  0  0  0  0
    3.6988    0.3616   -1.9541 C   0  0  0  0  0  0  0  0  0  0  0  0
   -0.8010    2.3364    2.1601 H   0  0  0  0  0  0  0  0  0  0  0  0
   -0.1917    4.7045    1.7939 H   0  0  0  0  0  0  0  0  0  0  0  0
   -0.0896    5.6241   -0.5086 H   0  0  0  0  0  0  0  0  0  0  0  0
   -0.6056    4.1678   -2.4509 H   0  0  0  0  0  0  0  0  0  0  0  0
   -1.2141    1.7981   -2.1012 H   0  0  0  0  0  0  0  0  0  0  0  0
   -1.9200   -5.5139    1.3330 H   0  0  0  0  0  0  0  0  0  0  0  0
    0.5138   -4.9858    1.2795 H   0  0  0  0  0  0  0  0  0  0  0  0
    1.3106   -2.6829    0.8650 H   0  0  0  0  0  0  0  0  0  0  0  0
   -4.3960   -3.7951    1.8791 H   0  0  0  0  0  0  0  0  0  0  0  0
   -4.3637   -4.1161    0.1181 H   0  0  0  0  0  0  0  0  0  0  0  0
   -4.9038   -1.5409    1.4514 H   0  0  0  0  0  0  0  0  0  0  0  0
   -4.8711   -1.8589   -0.2951 H   0  0  0  0  0  0  0  0  0  0  0  0
    2.8120    1.2710    1.2167 H   0  0  0  0  0  0  0  0  0  0  0  0
    5.1271    2.1104    1.1993 H   0  0  0  0  0  0  0  0  0  0  0  0
    6.5408    1.8485   -0.8217 H   0  0  0  0  0  0  0  0  0  0  0  0
    5.6263    0.7370   -2.8433 H   0  0  0  0  0  0  0  0  0  0  0  0
    3.3059   -0.1201   -2.8479 H   0  0  0  0  0  0  0  0  0  0  0  0
  1  2  2  0
  2  3  1  0
  3  4  1  0
  4  5  2  0
  5  6  1  0
  6  7  2  0
  7  8  1  0
  8  9  2  0
  9 10  1  0
 10 11  2  0
  5 12  1  0
 12 13  2  0
 12 14  1  0
 14 15  1  0
 15 16  2  0
 16 17  1  0
 17 18  2  0
 18 19  1  0
 19 20  2  0
 16 21  1  0
 21 22  1  0
  2 23  1  0
 23 24  2  0
 24 25  1  0
 25 26  2  0
 26 27  1  0
 27 28  2  0
 20  4  1  0
 28 23  1  0
 11  6  1  0
 22 14  1  0
 20 15  1  0
  7 29  1  0
  8 30  1  0
  9 31  1  0
 10 32  1  0
 11 33  1  0
 17 34  1  0
 18 35  1  0
 19 36  1  0
 21 37  1  0
 21 38  1  0
 22 39  1  0
 22 40  1  0
 24 41  1  0
 25 42  1  0
 26 43  1  0
 27 44  1  0
 28 45  1  0
M  END
$$$$
