
     RDKit          3D

 56 58  0  0  0  0  0  0  0  0999 V2000
    7.9578    1.8840    2.1110 C   0  0  0  0  0  0  0  0  0  0  0  0
    7.4765    0.5686    1.8653 O   0  0  0  0  0  0  0  0  0  0  0  0
    6.8588    0.3556    0.6631 C   0  0  0  0  0  0  0  0  0  0  0  0
    6.3695   -0.9384    0.4780 C   0  0  0  0  0  0  0  0  0  0  0  0
    5.7141   -1.2903   -0.7049 C   0  0  0  0  0  0  0  0  0  0  0  0
    5.5468   -0.3513   -1.7308 C   0  0  0  0  0  0  0  0  0  0  0  0
    4.8211   -0.7298   -2.9956 C   0  0  0  0  0  0  0  0  0  0  0  0
    3.4091   -0.4797   -2.8775 N   0  0  0  0  0  0  0  0  0  0  0  0
    2.5304   -1.4313   -2.4192 C   0  0  0  0  0  0  0  0  0  0  0  0
    2.7832   -2.6049   -2.1917 O   0  0  0  0  0  0  0  0  0  0  0  0
    1.1040   -0.8836   -2.1797 C   0  0  0  0  0  0  0  0  0  0  0  0
    0.8416    0.2858   -2.4265 O   0  0  0  0  0  0  0  0  0  0  0  0
    0.2332   -1.8151   -1.6668 N   0  0  0  0  0  0  0  0  0  0  0  0
   -1.1356   -1.4876   -1.3034 C   0  0  0  0  0  0  0  0  0  0  0  0
   -1.2553   -0.4452   -0.1568 C   0  0  0  0  0  0  0  0  0  0  0  0
   -0.4560   -0.8893    0.9661 O   0  0  0  0  0  0  0  0  0  0  0  0
   -1.3422   -1.6255    1.8107 C   0  0  0  0  0  0  0  0  0  0  0  0
   -2.6451   -0.8635    1.7314 C   0  0  0  0  0  0  0  0  0  0  0  0
   -2.6148   -0.2456    0.3973 N   0  0  0  0  0  0  0  0  0  0  0  0
   -3.9323   -0.4314   -0.6167 S   0  0  0  0  0  6  0  0  0  0  0  0
   -4.2054   -1.8508   -0.7088 O   0  0  0  0  0  0  0  0  0  0  0  0
   -3.7051    0.3639   -1.8019 O   0  0  0  0  0  0  0  0  0  0  0  0
   -5.2414    0.3389    0.3014 C   0  0  0  0  0  0  0  0  0  0  0  0
   -5.3034    1.7336    0.3549 C   0  0  0  0  0  0  0  0  0  0  0  0
   -6.3427    2.3479    1.0544 C   0  0  0  0  0  0  0  0  0  0  0  0
   -7.3244    1.5759    1.6917 C   0  0  0  0  0  0  0  0  0  0  0  0
   -8.4295    2.2503    2.4505 C   0  0  0  0  0  0  0  0  0  0  0  0
   -7.2491    0.1774    1.6282 C   0  0  0  0  0  0  0  0  0  0  0  0
   -6.2150   -0.4435    0.9259 C   0  0  0  0  0  0  0  0  0  0  0  0
    6.0307    0.9497   -1.5385 C   0  0  0  0  0  0  0  0  0  0  0  0
    6.6858    1.2993   -0.3512 C   0  0  0  0  0  0  0  0  0  0  0  0
    8.4074    1.8947    3.1082 H   0  0  0  0  0  0  0  0  0  0  0  0
    8.7370    2.1603    1.3906 H   0  0  0  0  0  0  0  0  0  0  0  0
    7.1405    2.6125    2.1091 H   0  0  0  0  0  0  0  0  0  0  0  0
    6.4940   -1.6797    1.2635 H   0  0  0  0  0  0  0  0  0  0  0  0
    5.3278   -2.3033   -0.8189 H   0  0  0  0  0  0  0  0  0  0  0  0
    4.9969   -1.7844   -3.2337 H   0  0  0  0  0  0  0  0  0  0  0  0
    5.1937   -0.1386   -3.8386 H   0  0  0  0  0  0  0  0  0  0  0  0
    3.0622    0.4761   -2.8996 H   0  0  0  0  0  0  0  0  0  0  0  0
    0.6264   -2.7234   -1.4292 H   0  0  0  0  0  0  0  0  0  0  0  0
   -1.5974   -2.4377   -1.0142 H   0  0  0  0  0  0  0  0  0  0  0  0
   -1.6297   -1.1256   -2.2105 H   0  0  0  0  0  0  0  0  0  0  0  0
   -0.8538    0.5232   -0.4728 H   0  0  0  0  0  0  0  0  0  0  0  0
   -0.9410   -1.6773    2.8272 H   0  0  0  0  0  0  0  0  0  0  0  0
   -1.4427   -2.6448    1.4187 H   0  0  0  0  0  0  0  0  0  0  0  0
   -3.5004   -1.5200    1.9114 H   0  0  0  0  0  0  0  0  0  0  0  0
   -2.6671   -0.0553    2.4709 H   0  0  0  0  0  0  0  0  0  0  0  0
   -4.5521    2.3410   -0.1446 H   0  0  0  0  0  0  0  0  0  0  0  0
   -6.3890    3.4333    1.0943 H   0  0  0  0  0  0  0  0  0  0  0  0
   -8.0314    2.7185    3.3561 H   0  0  0  0  0  0  0  0  0  0  0  0
   -8.9058    3.0140    1.8281 H   0  0  0  0  0  0  0  0  0  0  0  0
   -9.2047    1.5361    2.7473 H   0  0  0  0  0  0  0  0  0  0  0  0
   -8.0019   -0.4367    2.1208 H   0  0  0  0  0  0  0  0  0  0  0  0
   -6.1794   -1.5291    0.8724 H   0  0  0  0  0  0  0  0  0  0  0  0
    5.8997    1.7045   -2.3109 H   0  0  0  0  0  0  0  0  0  0  0  0
    7.0454    2.3175   -0.2504 H   0  0  0  0  0  0  0  0  0  0  0  0
  1  2  1  0
  2  3  1  0
  3  4  2  0
  4  5  1  0
  5  6  2  0
  6  7  1  0
  7  8  1  0
  8  9  1  0
  9 10  2  0
  9 11  1  0
 11 12  2  0
 11 13  1  0
 13 14  1  0
 14 15  1  0
 15 16  1  0
 16 17  1  0
 17 18  1  0
 18 19  1  0
 19 20  1  0
 20 21  2  0
 20 22  2  0
 20 23  1  0
 23 24  2  0
 24 25  1  0
 25 26  2  0
 26 27  1  0
 26 28  1  0
 28 29  2  0
  6 30  1  0
 30 31  2  0
 31  3  1  0
 19 15  1  0
 29 23  1  0
  1 32  1  0
  1 33  1  0
  1 34  1  0
  4 35  1  0
  5 36  1  0
  7 37  1  0
  7 38  1  0
  8 39  1  0
 13 40  1  0
 14 41  1  0
 14 42  1  0
 15 43  1  0
 17 44  1  0
 17 45  1  0
 18 46  1  0
 18 47  1  0
 24 48  1  0
 25 49  1  0
 27 50  1  0
 27 51  1  0
 27 52  1  0
 28 53  1  0
 29 54  1  0
 30 55  1  0
 31 56  1  0
M  END
$$$$
