
     RDKit          3D

 58 62  0  0  0  0  0  0  0  0999 V2000
    8.8338   -0.1852    1.6529 C   0  0  0  0  0  0  0  0  0  0  0  0
    7.8203    0.2165    2.5657 O   0  0  0  0  0  0  0  0  0  0  0  0
    6.5308    0.2060    2.1097 C   0  0  0  0  0  0  0  0  0  0  0  0
    5.5801    0.6127    3.0503 C   0  0  0  0  0  0  0  0  0  0  0  0
    4.2222    0.6524    2.7219 C   0  0  0  0  0  0  0  0  0  0  0  0
    3.7909    0.2879    1.4476 C   0  0  0  0  0  0  0  0  0  0  0  0
    2.4142    0.3325    1.1707 N   0  0  0  0  0  0  0  0  0  0  0  0
    1.9427   -0.0096   -0.0047 C   0  0  0  0  0  0  0  0  0  0  0  0
    0.5612    0.0144   -0.1610 N   0  0  0  0  0  0  0  0  0  0  0  0
   -0.1679   -0.7818   -1.1469 C   0  0  0  0  0  0  0  0  0  0  0  0
   -1.5200   -1.2889   -0.5896 C   0  0  0  0  0  0  0  0  0  0  0  0
   -2.3828   -0.2683    0.0442 N   0  0  0  0  0  0  0  0  0  0  0  0
   -2.9763    0.6765   -0.9204 C   0  0  0  0  0  0  0  0  0  0  0  0
   -4.1291    0.0844   -1.7589 C   0  0  0  0  0  0  0  0  0  0  0  0
   -5.4050   -0.1500   -0.9710 C   0  0  0  0  0  0  0  0  0  0  0  0
   -5.5279   -1.3464   -0.2421 C   0  0  0  0  0  0  0  0  0  0  0  0
   -6.6731   -1.6213    0.5037 C   0  0  0  0  0  0  0  0  0  0  0  0
   -7.7173   -0.7052    0.5349 C   0  0  0  0  0  0  0  0  0  0  0  0
   -7.6133    0.4895   -0.1766 C   0  0  0  0  0  0  0  0  0  0  0  0
   -6.4620    0.7897   -0.9317 C   0  0  0  0  0  0  0  0  0  0  0  0
   -6.4062    2.0981   -1.6890 C   0  0  0  0  0  0  0  0  0  0  0  0
   -7.4355    2.9446   -1.3988 F   0  0  0  0  0  0  0  0  0  0  0  0
   -5.2703    2.8102   -1.4401 F   0  0  0  0  0  0  0  0  0  0  0  0
   -6.4470    1.9223   -3.0398 F   0  0  0  0  0  0  0  0  0  0  0  0
   -1.5687    0.4384    1.0614 C   0  0  0  0  0  0  0  0  0  0  0  0
   -0.2435    1.0291    0.5392 C   0  0  0  0  0  0  0  0  0  0  0  0
    2.9000   -0.3851   -1.0418 C   0  0  0  0  0  0  0  0  0  0  0  0
    2.7602   -0.6590   -2.3929 C   0  0  0  0  0  0  0  0  0  0  0  0
    4.0362   -0.9768   -2.9123 C   0  0  0  0  0  0  0  0  0  0  0  0
    4.9362   -0.8538   -1.8787 C   0  0  0  0  0  0  0  0  0  0  0  0
    4.2504   -0.4539   -0.7559 N   0  0  0  0  0  0  0  0  0  0  0  0
    4.7499   -0.1185    0.5139 C   0  0  0  0  0  0  0  0  0  0  0  0
    6.1152   -0.1634    0.8296 C   0  0  0  0  0  0  0  0  0  0  0  0
    8.6954   -1.2262    1.3432 H   0  0  0  0  0  0  0  0  0  0  0  0
    9.7958   -0.1169    2.1700 H   0  0  0  0  0  0  0  0  0  0  0  0
    8.8732    0.4839    0.7870 H   0  0  0  0  0  0  0  0  0  0  0  0
    5.8981    0.9008    4.0494 H   0  0  0  0  0  0  0  0  0  0  0  0
    3.4937    0.9672    3.4640 H   0  0  0  0  0  0  0  0  0  0  0  0
    0.4065   -1.6709   -1.4277 H   0  0  0  0  0  0  0  0  0  0  0  0
   -0.3317   -0.1842   -2.0501 H   0  0  0  0  0  0  0  0  0  0  0  0
   -2.0606   -1.8200   -1.3803 H   0  0  0  0  0  0  0  0  0  0  0  0
   -1.3082   -2.0534    0.1707 H   0  0  0  0  0  0  0  0  0  0  0  0
   -3.3746    1.5422   -0.3757 H   0  0  0  0  0  0  0  0  0  0  0  0
   -2.2142    1.0690   -1.6035 H   0  0  0  0  0  0  0  0  0  0  0  0
   -4.3328    0.7629   -2.5950 H   0  0  0  0  0  0  0  0  0  0  0  0
   -3.8284   -0.8522   -2.2432 H   0  0  0  0  0  0  0  0  0  0  0  0
   -4.7157   -2.0716   -0.2438 H   0  0  0  0  0  0  0  0  0  0  0  0
   -6.7449   -2.5503    1.0635 H   0  0  0  0  0  0  0  0  0  0  0  0
   -8.6110   -0.9181    1.1160 H   0  0  0  0  0  0  0  0  0  0  0  0
   -8.4428    1.1949   -0.1371 H   0  0  0  0  0  0  0  0  0  0  0  0
   -1.3407   -0.2758    1.8642 H   0  0  0  0  0  0  0  0  0  0  0  0
   -2.1636    1.2290    1.5350 H   0  0  0  0  0  0  0  0  0  0  0  0
   -0.4438    1.8553   -0.1535 H   0  0  0  0  0  0  0  0  0  0  0  0
    0.2907    1.4626    1.3918 H   0  0  0  0  0  0  0  0  0  0  0  0
    1.8427   -0.6349   -2.9624 H   0  0  0  0  0  0  0  0  0  0  0  0
    4.2760   -1.2519   -3.9315 H   0  0  0  0  0  0  0  0  0  0  0  0
    6.0061   -1.0007   -1.8739 H   0  0  0  0  0  0  0  0  0  0  0  0
    6.8362   -0.4785    0.0872 H   0  0  0  0  0  0  0  0  0  0  0  0
  1  2  1  0
  2  3  1  0
  3  4  2  0
  4  5  1  0
  5  6  2  0
  6  7  1  0
  7  8  2  0
  8  9  1  0
  9 10  1  0
 10 11  1  0
 11 12  1  0
 12 13  1  0
 13 14  1  0
 14 15  1  0
 15 16  2  0
 16 17  1  0
 17 18  2  0
 18 19  1  0
 19 20  2  0
 20 21  1  0
 21 22  1  0
 21 23  1  0
 21 24  1  0
 12 25  1  0
 25 26  1  0
  8 27  1  0
 27 28  2  0
 28 29  1  0
 29 30  2  0
 30 31  1  0
 31 32  1  0
 32 33  2  0
 33  3  1  0
 32  6  1  0
 26  9  1  0
 31 27  1  0
 20 15  1  0
  1 34  1  0
  1 35  1  0
  1 36  1  0
  4 37  1  0
  5 38  1  0
 10 39  1  0
 10 40  1  0
 11 41  1  0
 11 42  1  0
 13 43  1  0
 13 44  1  0
 14 45  1  0
 14 46  1  0
 16 47  1  0
 17 48  1  0
 18 49  1  0
 19 50  1  0
 25 51  1  0
 25 52  1  0
 26 53  1  0
 26 54  1  0
 28 55  1  0
 29 56  1  0
 30 57  1  0
 33 58  1  0
M  END
$$$$
