
     RDKit          3D

 59 64  0  0  0  0  0  0  0  0999 V2000
    1.7080   -2.2187    0.4211 C   0  0  0  0  0  0  0  0  0  0  0  0
    1.4992   -1.0129   -0.3068 O   0  0  0  0  0  0  0  0  0  0  0  0
    2.6363   -0.2584   -0.4871 C   0  0  0  0  0  0  0  0  0  0  0  0
    3.8329   -0.8248   -0.9537 C   0  0  0  0  0  0  0  0  0  0  0  0
    4.9433    0.0199   -1.1443 C   0  0  0  0  0  0  0  0  0  0  0  0
    4.7957    1.3783   -0.8874 C   0  0  0  0  0  0  0  0  0  0  0  0
    3.6102    1.9760   -0.4575 C   0  0  0  0  0  0  0  0  0  0  0  0
    2.5128    1.1289   -0.2600 C   0  0  0  0  0  0  0  0  0  0  0  0
    1.2608    1.5874    0.2150 N   0  0  0  0  0  0  0  0  0  0  0  0
    0.8368    2.8938    0.3583 C   0  0  0  0  0  0  0  0  0  0  0  0
    1.4478    3.8946   -0.0160 O   0  0  0  0  0  0  0  0  0  0  0  0
   -0.4991    3.0282    1.0677 C   0  0  0  0  0  0  0  0  0  0  0  0
   -1.8810    2.7324   -0.0713 S   0  0  0  0  0  0  0  0  0  0  0  0
   -2.1159    1.0351    0.1407 C   0  0  0  0  0  0  0  0  0  0  0  0
   -1.2720    0.2217    0.7301 N   0  0  0  0  0  0  0  0  0  0  0  0
   -1.8305   -1.0275    0.7287 N   0  0  0  0  0  0  0  0  0  0  0  0
   -3.0201   -0.9565    0.1508 C   0  0  0  0  0  0  0  0  0  0  0  0
   -3.9498   -2.1118   -0.0517 C   0  0  0  0  0  0  0  0  0  0  0  0
   -4.3680   -2.7528    1.2448 C   0  0  0  0  0  0  0  0  0  0  0  0
   -3.6322   -3.5886    2.0641 C   0  0  0  0  0  0  0  0  0  0  0  0
   -4.3677   -4.0249    3.2021 C   0  0  0  0  0  0  0  0  0  0  0  0
   -5.6328   -3.4797    3.2383 C   0  0  0  0  0  0  0  0  0  0  0  0
   -5.9382   -2.4877    1.8795 S   0  0  0  0  0  0  0  0  0  0  0  0
   -3.2211    0.3414   -0.2799 N   0  0  0  0  0  0  0  0  0  0  0  0
   -4.3087    0.8446   -1.0970 C   0  0  0  0  0  0  0  0  0  0  0  0
   -5.3613    1.4686   -0.2585 C   0  0  0  0  0  0  0  0  0  0  0  0
   -5.6805    2.7765    0.0556 C   0  0  0  0  0  0  0  0  0  0  0  0
   -6.7932    2.7180    0.9304 C   0  0  0  0  0  0  0  0  0  0  0  0
   -7.0957    1.3841    1.0768 C   0  0  0  0  0  0  0  0  0  0  0  0
   -6.2391    0.6197    0.3472 O   0  0  0  0  0  0  0  0  0  0  0  0
    5.9665    2.0370   -1.1131 O   0  0  0  0  0  0  0  0  0  0  0  0
    6.8722    1.1100   -1.5257 C   0  0  0  0  0  0  0  0  0  0  0  0
    8.1966    1.3759   -1.8643 C   0  0  0  0  0  0  0  0  0  0  0  0
    8.9699    0.2827   -2.2681 C   0  0  0  0  0  0  0  0  0  0  0  0
    8.4266   -1.0035   -2.3298 C   0  0  0  0  0  0  0  0  0  0  0  0
    7.0871   -1.2400   -1.9850 C   0  0  0  0  0  0  0  0  0  0  0  0
    6.2927   -0.1538   -1.5716 C   0  0  0  0  0  0  0  0  0  0  0  0
    2.1294   -2.9951   -0.2231 H   0  0  0  0  0  0  0  0  0  0  0  0
    2.3387   -2.0629    1.3057 H   0  0  0  0  0  0  0  0  0  0  0  0
    0.7300   -2.5742    0.7638 H   0  0  0  0  0  0  0  0  0  0  0  0
    3.9111   -1.8821   -1.1770 H   0  0  0  0  0  0  0  0  0  0  0  0
    3.5812    3.0418   -0.2762 H   0  0  0  0  0  0  0  0  0  0  0  0
    0.5796    0.8445    0.3947 H   0  0  0  0  0  0  0  0  0  0  0  0
   -0.5732    4.0481    1.4557 H   0  0  0  0  0  0  0  0  0  0  0  0
   -0.5341    2.3696    1.9409 H   0  0  0  0  0  0  0  0  0  0  0  0
   -4.8314   -1.8346   -0.6353 H   0  0  0  0  0  0  0  0  0  0  0  0
   -3.4184   -2.8609   -0.6531 H   0  0  0  0  0  0  0  0  0  0  0  0
   -2.6065   -3.8675    1.8545 H   0  0  0  0  0  0  0  0  0  0  0  0
   -3.9811   -4.6794    3.9743 H   0  0  0  0  0  0  0  0  0  0  0  0
   -6.3967   -3.6232    3.9929 H   0  0  0  0  0  0  0  0  0  0  0  0
   -4.7232    0.0172   -1.6858 H   0  0  0  0  0  0  0  0  0  0  0  0
   -3.8988    1.5577   -1.8244 H   0  0  0  0  0  0  0  0  0  0  0  0
   -5.1675    3.6623   -0.2917 H   0  0  0  0  0  0  0  0  0  0  0  0
   -7.3139    3.5445    1.3974 H   0  0  0  0  0  0  0  0  0  0  0  0
   -7.8495    0.8422    1.6364 H   0  0  0  0  0  0  0  0  0  0  0  0
    8.5980    2.3801   -1.8142 H   0  0  0  0  0  0  0  0  0  0  0  0
   10.0113    0.4380   -2.5439 H   0  0  0  0  0  0  0  0  0  0  0  0
    9.0514   -1.8352   -2.6487 H   0  0  0  0  0  0  0  0  0  0  0  0
    6.6755   -2.2443   -2.0369 H   0  0  0  0  0  0  0  0  0  0  0  0
  1  2  1  0
  2  3  1  0
  3  4  2  0
  4  5  1  0
  5  6  2  0
  6  7  1  0
  7  8  2  0
  8  9  1  0
  9 10  1  0
 10 11  2  0
 10 12  1  0
 12 13  1  0
 13 14  1  0
 14 15  2  0
 15 16  1  0
 16 17  2  0
 17 18  1  0
 18 19  1  0
 19 20  2  0
 20 21  1  0
 21 22  2  0
 22 23  1  0
 17 24  1  0
 24 25  1  0
 25 26  1  0
 26 27  2  0
 27 28  1  0
 28 29  2  0
 29 30  1  0
  6 31  1  0
 31 32  1  0
 32 33  2  0
 33 34  1  0
 34 35  2  0
 35 36  1  0
 36 37  2  0
  8  3  1  0
 24 14  1  0
 30 26  1  0
 37 32  1  0
 37  5  1  0
 23 19  1  0
  1 38  1  0
  1 39  1  0
  1 40  1  0
  4 41  1  0
  7 42  1  0
  9 43  1  0
 12 44  1  0
 12 45  1  0
 18 46  1  0
 18 47  1  0
 20 48  1  0
 21 49  1  0
 22 50  1  0
 25 51  1  0
 25 52  1  0
 27 53  1  0
 28 54  1  0
 29 55  1  0
 33 56  1  0
 34 57  1  0
 35 58  1  0
 36 59  1  0
M  END
$$$$
