
     RDKit          3D

 42 44  0  0  0  0  0  0  0  0999 V2000
    6.4787    0.5579   -1.9949 C   0  0  0  0  0  0  0  0  0  0  0  0
    5.8135   -0.2584   -1.0276 O   0  0  0  0  0  0  0  0  0  0  0  0
    4.5715   -0.6862   -1.4011 C   0  0  0  0  0  0  0  0  0  0  0  0
    4.0438   -0.4585   -2.4839 O   0  0  0  0  0  0  0  0  0  0  0  0
    3.9530   -1.5130   -0.3047 C   0  0  0  0  0  0  0  0  0  0  0  0
    2.6968   -0.9423    0.1510 N   0  0  0  0  0  0  0  0  0  0  0  0
    1.4591   -1.3569   -0.2690 C   0  0  0  0  0  0  0  0  0  0  0  0
    0.5107   -0.5869    0.3684 C   0  0  0  0  0  0  0  0  0  0  0  0
   -0.8871   -0.7470    0.1179 C   0  0  0  0  0  0  0  0  0  0  0  0
   -1.8099    0.2284    0.1824 C   0  0  0  0  0  0  0  0  0  0  0  0
   -3.2308    0.0213   -0.1144 C   0  0  0  0  0  0  0  0  0  0  0  0
   -4.1918    0.6015    0.7103 C   0  0  0  0  0  0  0  0  0  0  0  0
   -5.5406    0.4316    0.4207 C   0  0  0  0  0  0  0  0  0  0  0  0
   -5.9289   -0.2826   -0.6592 N   0  0  0  0  0  4  0  0  0  0  0  0
   -7.3660   -0.4342   -0.9391 C   0  0  0  0  0  0  0  0  0  0  0  0
   -5.0144   -0.8355   -1.4862 C   0  0  0  0  0  0  0  0  0  0  0  0
   -3.6549   -0.6941   -1.2331 C   0  0  0  0  0  0  0  0  0  0  0  0
    1.1996    0.2996    1.2562 C   0  0  0  0  0  0  0  0  0  0  0  0
    0.8042    1.2734    2.2022 C   0  0  0  0  0  0  0  0  0  0  0  0
    1.7699    1.9910    2.9173 C   0  0  0  0  0  0  0  0  0  0  0  0
    3.1230    1.7514    2.7113 C   0  0  0  0  0  0  0  0  0  0  0  0
    3.5478    0.7842    1.7975 C   0  0  0  0  0  0  0  0  0  0  0  0
    2.5711    0.0647    1.0869 C   0  0  0  0  0  0  0  0  0  0  0  0
    5.8005    1.2908   -2.4456 H   0  0  0  0  0  0  0  0  0  0  0  0
    7.2770    1.1031   -1.4823 H   0  0  0  0  0  0  0  0  0  0  0  0
    6.9269   -0.0780   -2.7645 H   0  0  0  0  0  0  0  0  0  0  0  0
    4.6218   -1.6014    0.5584 H   0  0  0  0  0  0  0  0  0  0  0  0
    3.7704   -2.5252   -0.6819 H   0  0  0  0  0  0  0  0  0  0  0  0
    1.3601   -2.1427   -1.0079 H   0  0  0  0  0  0  0  0  0  0  0  0
   -1.1938   -1.7499   -0.1754 H   0  0  0  0  0  0  0  0  0  0  0  0
   -1.5216    1.2425    0.4492 H   0  0  0  0  0  0  0  0  0  0  0  0
   -3.8980    1.1793    1.5846 H   0  0  0  0  0  0  0  0  0  0  0  0
   -6.3182    0.8642    1.0440 H   0  0  0  0  0  0  0  0  0  0  0  0
   -7.5168   -1.1962   -1.7072 H   0  0  0  0  0  0  0  0  0  0  0  0
   -7.8629   -0.7424   -0.0159 H   0  0  0  0  0  0  0  0  0  0  0  0
   -7.7386    0.5335   -1.2853 H   0  0  0  0  0  0  0  0  0  0  0  0
   -5.3760   -1.3841   -2.3513 H   0  0  0  0  0  0  0  0  0  0  0  0
   -2.9345   -1.1329   -1.9213 H   0  0  0  0  0  0  0  0  0  0  0  0
   -0.2455    1.4679    2.3931 H   0  0  0  0  0  0  0  0  0  0  0  0
    1.4591    2.7404    3.6417 H   0  0  0  0  0  0  0  0  0  0  0  0
    3.8628    2.3185    3.2739 H   0  0  0  0  0  0  0  0  0  0  0  0
    4.6091    0.6035    1.6537 H   0  0  0  0  0  0  0  0  0  0  0  0
  1  2  1  0
  2  3  1  0
  3  4  2  0
  3  5  1  0
  5  6  1  0
  6  7  1  0
  7  8  2  0
  8  9  1  0
  9 10  2  3
 10 11  1  0
 11 12  2  0
 12 13  1  0
 13 14  2  0
 14 15  1  0
 14 16  1  0
 16 17  2  0
  8 18  1  0
 18 19  2  0
 19 20  1  0
 20 21  2  0
 21 22  1  0
 22 23  2  0
 23  6  1  0
 17 11  1  0
 23 18  1  0
  1 24  1  0
  1 25  1  0
  1 26  1  0
  5 27  1  0
  5 28  1  0
  7 29  1  0
  9 30  1  0
 10 31  1  0
 12 32  1  0
 13 33  1  0
 15 34  1  0
 15 35  1  0
 15 36  1  0
 16 37  1  0
 17 38  1  0
 19 39  1  0
 20 40  1  0
 21 41  1  0
 22 42  1  0
M  CHG  1  14   1
M  END
$$$$
