
     RDKit          3D

 45 49  0  0  0  0  0  0  0  0999 V2000
    6.9722    2.8030   -1.5209 Cl  0  0  0  0  0  0  0  0  0  0  0  0
    6.1786    1.4341   -0.8421 C   0  0  0  0  0  0  0  0  0  0  0  0
    6.9293    0.4332   -0.2372 C   0  0  0  0  0  0  0  0  0  0  0  0
    6.2795   -0.6745    0.2969 C   0  0  0  0  0  0  0  0  0  0  0  0
    4.8839   -0.7719    0.2282 C   0  0  0  0  0  0  0  0  0  0  0  0
    4.1041    0.2344   -0.3637 C   0  0  0  0  0  0  0  0  0  0  0  0
    2.7044    0.1735   -0.4634 N   0  0  0  0  0  0  0  0  0  0  0  0
    2.0428   -1.1293   -0.2232 C   0  0  0  0  0  0  0  0  0  0  0  0
    0.5512   -1.0680   -0.6114 C   0  0  0  0  0  0  0  0  0  0  0  0
   -0.1398    0.0170    0.1223 N   0  0  0  0  0  0  0  0  0  0  0  0
   -1.5326   -0.0160    0.1490 C   0  0  0  0  0  0  0  0  0  0  0  0
   -2.2077    0.9402   -0.4370 N   0  0  0  0  0  0  0  0  0  0  0  0
   -3.6167    0.9165   -0.4520 C   0  0  0  0  0  0  0  0  0  0  0  0
   -4.2900    1.9507   -1.1050 C   0  0  0  0  0  0  0  0  0  0  0  0
   -5.6864    1.9716   -1.1579 C   0  0  0  0  0  0  0  0  0  0  0  0
   -6.4256    0.9527   -0.5555 C   0  0  0  0  0  0  0  0  0  0  0  0
   -5.7743   -0.0909    0.1028 C   0  0  0  0  0  0  0  0  0  0  0  0
   -4.3770   -0.0985    0.1469 C   0  0  0  0  0  0  0  0  0  0  0  0
   -3.6421   -1.1031    0.7968 N   0  0  0  0  0  0  0  0  0  0  0  0
   -4.0846   -2.2054    1.4893 C   0  0  0  0  0  0  0  0  0  0  0  0
   -2.9860   -2.8611    2.0026 C   0  0  0  0  0  0  0  0  0  0  0  0
   -1.8397   -2.1393    1.5966 C   0  0  0  0  0  0  0  0  0  0  0  0
   -2.2661   -1.0747    0.8228 C   0  0  0  0  0  0  0  0  0  0  0  0
    0.5070    1.3242   -0.1419 C   0  0  0  0  0  0  0  0  0  0  0  0
    2.0055    1.2919    0.2268 C   0  0  0  0  0  0  0  0  0  0  0  0
    4.7870    1.3358   -0.9083 C   0  0  0  0  0  0  0  0  0  0  0  0
    8.0117    0.5069   -0.1846 H   0  0  0  0  0  0  0  0  0  0  0  0
    6.8546   -1.4668    0.7694 H   0  0  0  0  0  0  0  0  0  0  0  0
    4.4237   -1.6518    0.6677 H   0  0  0  0  0  0  0  0  0  0  0  0
    2.1237   -1.4033    0.8367 H   0  0  0  0  0  0  0  0  0  0  0  0
    2.5183   -1.9130   -0.8253 H   0  0  0  0  0  0  0  0  0  0  0  0
    0.4535   -0.8913   -1.6904 H   0  0  0  0  0  0  0  0  0  0  0  0
    0.0985   -2.0420   -0.4020 H   0  0  0  0  0  0  0  0  0  0  0  0
   -3.7173    2.7447   -1.5769 H   0  0  0  0  0  0  0  0  0  0  0  0
   -6.1952    2.7840   -1.6705 H   0  0  0  0  0  0  0  0  0  0  0  0
   -7.5119    0.9740   -0.5991 H   0  0  0  0  0  0  0  0  0  0  0  0
   -6.3700   -0.8704    0.5657 H   0  0  0  0  0  0  0  0  0  0  0  0
   -5.1359   -2.4353    1.5828 H   0  0  0  0  0  0  0  0  0  0  0  0
   -3.0114   -3.7552    2.6123 H   0  0  0  0  0  0  0  0  0  0  0  0
   -0.8117   -2.3681    1.8437 H   0  0  0  0  0  0  0  0  0  0  0  0
    0.3927    1.5852   -1.2018 H   0  0  0  0  0  0  0  0  0  0  0  0
    0.0251    2.1082    0.4547 H   0  0  0  0  0  0  0  0  0  0  0  0
    2.1119    1.1667    1.3126 H   0  0  0  0  0  0  0  0  0  0  0  0
    2.4340    2.2645   -0.0390 H   0  0  0  0  0  0  0  0  0  0  0  0
    4.2286    2.1170   -1.4173 H   0  0  0  0  0  0  0  0  0  0  0  0
  1  2  1  0
  2  3  2  0
  3  4  1  0
  4  5  2  0
  5  6  1  0
  6  7  1  0
  7  8  1  0
  8  9  1  0
  9 10  1  0
 10 11  1  0
 11 12  2  0
 12 13  1  0
 13 14  2  0
 14 15  1  0
 15 16  2  0
 16 17  1  0
 17 18  2  0
 18 19  1  0
 19 20  1  0
 20 21  2  0
 21 22  1  0
 22 23  2  0
 10 24  1  0
 24 25  1  0
  6 26  2  0
 26  2  1  0
 25  7  1  0
 23 11  1  0
 18 13  1  0
 23 19  1  0
  3 27  1  0
  4 28  1  0
  5 29  1  0
  8 30  1  0
  8 31  1  0
  9 32  1  0
  9 33  1  0
 14 34  1  0
 15 35  1  0
 16 36  1  0
 17 37  1  0
 20 38  1  0
 21 39  1  0
 22 40  1  0
 24 41  1  0
 24 42  1  0
 25 43  1  0
 25 44  1  0
 26 45  1  0
M  END
$$$$
