
     RDKit          3D

 58 59  0  0  0  0  0  0  0  0999 V2000
    7.2778   -1.1600    2.4567 C   0  0  0  0  0  0  0  0  0  0  0  0
    7.8331   -1.3383    1.0519 C   0  0  0  0  0  0  0  0  0  0  0  0
    6.8931   -2.1009    0.1138 C   0  0  0  0  0  0  0  0  0  0  0  0
    5.5557   -1.4072   -0.1405 C   0  0  0  0  0  0  0  0  0  0  0  0
    5.8038   -0.1123   -0.6982 O   0  0  0  0  0  0  0  0  0  0  0  0
    4.6294    0.5597   -0.8919 C   0  0  0  0  0  0  0  0  0  0  0  0
    4.0779    0.5953   -2.1702 C   0  0  0  0  0  0  0  0  0  0  0  0
    2.8983    1.3094   -2.3967 C   0  0  0  0  0  0  0  0  0  0  0  0
    2.2763    1.9904   -1.3407 C   0  0  0  0  0  0  0  0  0  0  0  0
    1.0171    2.7675   -1.5278 C   0  0  0  0  0  0  0  0  0  0  0  0
    0.7194    3.6600   -0.7428 O   0  0  0  0  0  0  0  0  0  0  0  0
    0.2180    2.4025   -2.5920 N   0  0  0  0  0  0  0  0  0  0  0  0
   -1.1236    2.9549   -2.7291 C   0  0  0  0  0  0  0  0  0  0  0  0
   -2.1575    1.9982   -2.1497 C   0  0  0  0  0  0  0  0  0  0  0  0
   -1.9349    0.8388   -1.8145 O   0  0  0  0  0  0  0  0  0  0  0  0
   -3.3891    2.5851   -2.1326 O   0  0  0  0  0  0  0  0  0  0  0  0
   -4.4221    1.7415   -1.6100 C   0  0  0  0  0  0  0  0  0  0  0  0
   -4.2835    1.5191   -0.1012 C   0  0  0  0  0  0  0  0  0  0  0  0
   -3.6869    2.3413    0.6029 O   0  0  0  0  0  0  0  0  0  0  0  0
   -4.8247    0.2473    0.4895 C   0  0  0  0  0  0  0  0  0  0  0  0
   -4.3159   -0.2519    1.6394 C   0  0  0  0  0  0  0  0  0  0  0  0
   -3.3471    0.4141    2.3827 N   0  0  0  0  0  0  0  0  0  0  0  0
   -4.7829   -1.4750    2.1160 N   0  0  0  0  0  0  0  0  0  0  0  0
   -4.3214   -1.9513    3.4202 C   0  0  0  0  0  0  0  0  0  0  0  0
   -5.6943   -2.2753    1.4346 C   0  0  0  0  0  0  0  0  0  0  0  0
   -6.0865   -3.3592    1.8718 O   0  0  0  0  0  0  0  0  0  0  0  0
   -6.1561   -1.7757    0.2299 N   0  0  0  0  0  0  0  0  0  0  0  0
   -7.1464   -2.5657   -0.4780 C   0  0  0  0  0  0  0  0  0  0  0  0
   -5.9027   -0.4954   -0.2002 C   0  0  0  0  0  0  0  0  0  0  0  0
   -6.5298    0.0455   -1.1105 O   0  0  0  0  0  0  0  0  0  0  0  0
    2.8626    1.9733   -0.0673 C   0  0  0  0  0  0  0  0  0  0  0  0
    4.0426    1.2611    0.1568 C   0  0  0  0  0  0  0  0  0  0  0  0
    6.3716   -0.5478    2.4581 H   0  0  0  0  0  0  0  0  0  0  0  0
    7.0433   -2.1295    2.9103 H   0  0  0  0  0  0  0  0  0  0  0  0
    8.0158   -0.6597    3.0917 H   0  0  0  0  0  0  0  0  0  0  0  0
    8.7767   -1.8928    1.1180 H   0  0  0  0  0  0  0  0  0  0  0  0
    8.0774   -0.3580    0.6292 H   0  0  0  0  0  0  0  0  0  0  0  0
    7.4120   -2.2211   -0.8466 H   0  0  0  0  0  0  0  0  0  0  0  0
    6.7106   -3.1059    0.5106 H   0  0  0  0  0  0  0  0  0  0  0  0
    4.9763   -2.0074   -0.8529 H   0  0  0  0  0  0  0  0  0  0  0  0
    4.9835   -1.3338    0.7921 H   0  0  0  0  0  0  0  0  0  0  0  0
    4.5726    0.0790   -2.9879 H   0  0  0  0  0  0  0  0  0  0  0  0
    2.4993    1.3470   -3.4057 H   0  0  0  0  0  0  0  0  0  0  0  0
    0.3570    1.4802   -2.9843 H   0  0  0  0  0  0  0  0  0  0  0  0
   -1.3189    3.0698   -3.7990 H   0  0  0  0  0  0  0  0  0  0  0  0
   -1.1932    3.9218   -2.2235 H   0  0  0  0  0  0  0  0  0  0  0  0
   -4.4161    0.7947   -2.1604 H   0  0  0  0  0  0  0  0  0  0  0  0
   -5.3739    2.2511   -1.7918 H   0  0  0  0  0  0  0  0  0  0  0  0
   -3.0525    1.2996    1.9492 H   0  0  0  0  0  0  0  0  0  0  0  0
   -2.5328   -0.1665    2.5601 H   0  0  0  0  0  0  0  0  0  0  0  0
   -4.8354   -2.8635    3.7376 H   0  0  0  0  0  0  0  0  0  0  0  0
   -4.5113   -1.1838    4.1775 H   0  0  0  0  0  0  0  0  0  0  0  0
   -3.2507   -2.1692    3.3640 H   0  0  0  0  0  0  0  0  0  0  0  0
   -7.3024   -2.2027   -1.4975 H   0  0  0  0  0  0  0  0  0  0  0  0
   -6.8233   -3.6100   -0.5233 H   0  0  0  0  0  0  0  0  0  0  0  0
   -8.0924   -2.5156    0.0702 H   0  0  0  0  0  0  0  0  0  0  0  0
    2.4040    2.5234    0.7525 H   0  0  0  0  0  0  0  0  0  0  0  0
    4.5030    1.2636    1.1393 H   0  0  0  0  0  0  0  0  0  0  0  0
  1  2  1  0
  2  3  1  0
  3  4  1  0
  4  5  1  0
  5  6  1  0
  6  7  2  0
  7  8  1  0
  8  9  2  0
  9 10  1  0
 10 11  2  0
 10 12  1  0
 12 13  1  0
 13 14  1  0
 14 15  2  0
 14 16  1  0
 16 17  1  0
 17 18  1  0
 18 19  2  0
 18 20  1  0
 20 21  2  0
 21 22  1  0
 21 23  1  0
 23 24  1  0
 23 25  1  0
 25 26  2  0
 25 27  1  0
 27 28  1  0
 27 29  1  0
 29 30  2  0
  9 31  1  0
 31 32  2  0
 32  6  1  0
 29 20  1  0
  1 33  1  0
  1 34  1  0
  1 35  1  0
  2 36  1  0
  2 37  1  0
  3 38  1  0
  3 39  1  0
  4 40  1  0
  4 41  1  0
  7 42  1  0
  8 43  1  0
 12 44  1  0
 13 45  1  0
 13 46  1  0
 17 47  1  0
 17 48  1  0
 22 49  1  0
 22 50  1  0
 24 51  1  0
 24 52  1  0
 24 53  1  0
 28 54  1  0
 28 55  1  0
 28 56  1  0
 31 57  1  0
 32 58  1  0
M  END
$$$$
