
     RDKit          3D

 34 35  0  0  0  0  0  0  0  0999 V2000
    4.0358    1.1474    2.0327 C   0  0  0  0  0  0  0  0  0  0  0  0
    3.8569   -0.1864    1.5726 O   0  0  0  0  0  0  0  0  0  0  0  0
    3.0998   -0.3551    0.4466 C   0  0  0  0  0  0  0  0  0  0  0  0
    3.0057   -1.6757   -0.0010 C   0  0  0  0  0  0  0  0  0  0  0  0
    2.2581   -1.9903   -1.1385 C   0  0  0  0  0  0  0  0  0  0  0  0
    1.5823   -0.9876   -1.8323 C   0  0  0  0  0  0  0  0  0  0  0  0
    0.8257   -1.2998   -2.9663 N   0  0  0  0  0  0  0  0  0  0  0  0
   -0.4608   -1.4532   -2.8550 C   0  0  0  0  0  0  0  0  0  0  0  0
   -1.2864   -1.3755   -1.5959 C   0  0  0  0  0  0  0  0  0  0  0  0
   -2.0767   -0.0924   -1.5054 C   0  0  0  0  0  0  0  0  0  0  0  0
   -2.3401    0.5803   -2.5005 O   0  0  0  0  0  0  0  0  0  0  0  0
   -2.5732    0.3607   -0.1712 C   0  0  0  0  0  0  0  0  0  0  0  0
   -3.0668    1.6692   -0.0557 C   0  0  0  0  0  0  0  0  0  0  0  0
   -3.5410    2.1428    1.1708 C   0  0  0  0  0  0  0  0  0  0  0  0
   -3.5268    1.3081    2.2852 C   0  0  0  0  0  0  0  0  0  0  0  0
   -4.1081    1.8873    3.7964 Cl  0  0  0  0  0  0  0  0  0  0  0  0
   -3.0462    0.0036    2.1818 C   0  0  0  0  0  0  0  0  0  0  0  0
   -2.5714   -0.4731    0.9546 C   0  0  0  0  0  0  0  0  0  0  0  0
    1.6941    0.3359   -1.3985 C   0  0  0  0  0  0  0  0  0  0  0  0
    2.4433    0.6531   -0.2599 C   0  0  0  0  0  0  0  0  0  0  0  0
    4.6785    1.1123    2.9177 H   0  0  0  0  0  0  0  0  0  0  0  0
    3.0810    1.5920    2.3322 H   0  0  0  0  0  0  0  0  0  0  0  0
    4.5398    1.7617    1.2792 H   0  0  0  0  0  0  0  0  0  0  0  0
    3.5261   -2.4651    0.5357 H   0  0  0  0  0  0  0  0  0  0  0  0
    2.2037   -3.0179   -1.4856 H   0  0  0  0  0  0  0  0  0  0  0  0
   -1.0221   -1.6450   -3.7864 H   0  0  0  0  0  0  0  0  0  0  0  0
   -0.6469   -1.4888   -0.7191 H   0  0  0  0  0  0  0  0  0  0  0  0
   -1.9964   -2.2092   -1.6199 H   0  0  0  0  0  0  0  0  0  0  0  0
   -3.0834    2.3290   -0.9222 H   0  0  0  0  0  0  0  0  0  0  0  0
   -3.9189    3.1593    1.2461 H   0  0  0  0  0  0  0  0  0  0  0  0
   -3.0406   -0.6483    3.0523 H   0  0  0  0  0  0  0  0  0  0  0  0
   -2.2163   -1.4986    0.9079 H   0  0  0  0  0  0  0  0  0  0  0  0
    1.1950    1.1254   -1.9552 H   0  0  0  0  0  0  0  0  0  0  0  0
    2.4965    1.6939    0.0405 H   0  0  0  0  0  0  0  0  0  0  0  0
  1  2  1  0
  2  3  1  0
  3  4  2  0
  4  5  1  0
  5  6  2  0
  6  7  1  0
  7  8  2  3
  8  9  1  0
  9 10  1  0
 10 11  2  0
 10 12  1  0
 12 13  2  0
 13 14  1  0
 14 15  2  0
 15 16  1  0
 15 17  1  0
 17 18  2  0
  6 19  1  0
 19 20  2  0
 20  3  1  0
 18 12  1  0
  1 21  1  0
  1 22  1  0
  1 23  1  0
  4 24  1  0
  5 25  1  0
  8 26  1  0
  9 27  1  0
  9 28  1  0
 13 29  1  0
 14 30  1  0
 17 31  1  0
 18 32  1  0
 19 33  1  0
 20 34  1  0
M  END
$$$$
