
     RDKit          3D

 37 39  0  0  0  0  0  0  0  0999 V2000
    3.6718    1.2943    1.1340 N   0  0  0  0  0  0  0  0  0  0  0  0
    3.5673    0.0272    0.4204 C   0  0  0  0  0  0  0  0  0  0  0  0
    2.1876   -0.1751   -0.2044 C   0  0  0  0  0  0  0  0  0  0  0  0
    1.0714   -0.3111    0.8400 C   0  0  0  0  0  0  0  0  0  0  0  0
   -0.2471   -0.5513    0.2057 N   0  0  0  0  0  0  0  0  0  0  0  0
   -0.6533   -1.9077    0.0374 C   0  0  0  0  0  0  0  0  0  0  0  0
    0.2592   -2.9848    0.1216 C   0  0  0  0  0  0  0  0  0  0  0  0
   -0.1277   -4.3195   -0.0537 C   0  0  0  0  0  0  0  0  0  0  0  0
   -1.4495   -4.6265   -0.3253 C   0  0  0  0  0  0  0  0  0  0  0  0
   -2.3757   -3.5954   -0.4233 C   0  0  0  0  0  0  0  0  0  0  0  0
   -1.9902   -2.2506   -0.2501 C   0  0  0  0  0  0  0  0  0  0  0  0
   -3.3031   -1.0612   -0.3829 S   0  0  0  0  0  0  0  0  0  0  0  0
   -2.4197    0.4796   -0.3824 C   0  0  0  0  0  0  0  0  0  0  0  0
   -3.1955    1.6177   -0.6775 C   0  0  0  0  0  0  0  0  0  0  0  0
   -2.6338    2.8901   -0.6879 C   0  0  0  0  0  0  0  0  0  0  0  0
   -1.2811    3.0467   -0.3984 C   0  0  0  0  0  0  0  0  0  0  0  0
   -0.6297    4.4075   -0.4184 C   0  0  0  0  0  0  0  0  0  0  0  0
    0.1767    4.5820   -1.5009 F   0  0  0  0  0  0  0  0  0  0  0  0
   -1.5234    5.4359   -0.4490 F   0  0  0  0  0  0  0  0  0  0  0  0
    0.1531    4.6309    0.6738 F   0  0  0  0  0  0  0  0  0  0  0  0
   -0.5107    1.9021   -0.1082 C   0  0  0  0  0  0  0  0  0  0  0  0
   -1.0480    0.5929   -0.0819 C   0  0  0  0  0  0  0  0  0  0  0  0
    3.1911    1.2414    2.0314 H   0  0  0  0  0  0  0  0  0  0  0  0
    4.6509    1.4722    1.3624 H   0  0  0  0  0  0  0  0  0  0  0  0
    4.3153    0.0198   -0.3803 H   0  0  0  0  0  0  0  0  0  0  0  0
    3.8101   -0.8001    1.0963 H   0  0  0  0  0  0  0  0  0  0  0  0
    1.9763    0.6495   -0.8950 H   0  0  0  0  0  0  0  0  0  0  0  0
    2.2255   -1.0729   -0.8322 H   0  0  0  0  0  0  0  0  0  0  0  0
    1.0301    0.5719    1.4896 H   0  0  0  0  0  0  0  0  0  0  0  0
    1.3167   -1.1084    1.5537 H   0  0  0  0  0  0  0  0  0  0  0  0
    1.3149   -2.8225    0.3100 H   0  0  0  0  0  0  0  0  0  0  0  0
    0.6122   -5.1126    0.0184 H   0  0  0  0  0  0  0  0  0  0  0  0
   -1.7604   -5.6581   -0.4633 H   0  0  0  0  0  0  0  0  0  0  0  0
   -3.4134   -3.8445   -0.6373 H   0  0  0  0  0  0  0  0  0  0  0  0
   -4.2559    1.5134   -0.9027 H   0  0  0  0  0  0  0  0  0  0  0  0
   -3.2577    3.7504   -0.9231 H   0  0  0  0  0  0  0  0  0  0  0  0
    0.5459    2.0768    0.0835 H   0  0  0  0  0  0  0  0  0  0  0  0
  1  2  1  0
  2  3  1  0
  3  4  1  0
  4  5  1  0
  5  6  1  0
  6  7  2  0
  7  8  1  0
  8  9  2  0
  9 10  1  0
 10 11  2  0
 11 12  1  0
 12 13  1  0
 13 14  2  0
 14 15  1  0
 15 16  2  0
 16 17  1  0
 17 18  1  0
 17 19  1  0
 17 20  1  0
 16 21  1  0
 21 22  2  0
 22  5  1  0
 11  6  1  0
 22 13  1  0
  1 23  1  0
  1 24  1  0
  2 25  1  0
  2 26  1  0
  3 27  1  0
  3 28  1  0
  4 29  1  0
  4 30  1  0
  7 31  1  0
  8 32  1  0
  9 33  1  0
 10 34  1  0
 14 35  1  0
 15 36  1  0
 21 37  1  0
M  END
$$$$
