
     RDKit          3D

 58 60  0  0  0  0  0  0  0  0999 V2000
    7.7214    3.4631    1.3574 C   0  0  0  0  0  0  0  0  0  0  0  0
    6.5441    3.2585    0.4957 C   0  0  0  0  0  0  0  0  0  0  0  0
    5.7116    2.1964    0.2488 C   0  0  0  0  0  0  0  0  0  0  0  0
    4.7810    2.6845   -0.6944 C   0  0  0  0  0  0  0  0  0  0  0  0
    3.7201    2.0436   -1.2944 N   0  0  0  0  0  0  0  0  0  0  0  0
    3.3410    0.7439   -1.0558 C   0  0  0  0  0  0  0  0  0  0  0  0
    3.9007   -0.0384   -0.2935 O   0  0  0  0  0  0  0  0  0  0  0  0
    2.1574    0.3215   -1.9106 C   0  0  0  0  0  0  0  0  0  0  0  0
    1.4541   -0.8994   -1.3224 C   0  0  0  0  0  0  0  0  0  0  0  0
    0.6644   -0.5317   -0.0777 C   0  0  0  0  0  0  0  0  0  0  0  0
    0.4219    0.6479    0.1908 O   0  0  0  0  0  0  0  0  0  0  0  0
    0.1897   -1.5584    0.7192 N   0  0  0  0  0  0  0  0  0  0  0  0
   -0.4116   -1.2091    2.0172 C   0  0  0  0  0  0  0  0  0  0  0  0
   -1.9134   -0.8993    1.9781 C   0  0  0  0  0  0  0  0  0  0  0  0
   -2.6707   -1.2578    2.8782 O   0  0  0  0  0  0  0  0  0  0  0  0
   -2.3095   -0.1003    0.9267 N   0  0  0  0  0  0  0  0  0  0  0  0
   -3.6746    0.3721    0.7996 C   0  0  0  0  0  0  0  0  0  0  0  0
   -3.9666    0.8508   -0.6181 C   0  0  0  0  0  0  0  0  0  0  0  0
   -3.4216    2.2761   -0.6687 C   0  0  0  0  0  0  0  0  0  0  0  0
   -3.3849    2.7697    0.7788 C   0  0  0  0  0  0  0  0  0  0  0  0
   -3.9259    1.6261    1.6326 C   0  0  0  0  0  0  0  0  0  0  0  0
    0.1035   -2.9622    0.3085 C   0  0  0  0  0  0  0  0  0  0  0  0
   -1.3049   -3.3835   -0.0454 C   0  0  0  0  0  0  0  0  0  0  0  0
   -1.8948   -2.9763   -1.2540 C   0  0  0  0  0  0  0  0  0  0  0  0
   -3.2069   -3.3412   -1.5602 C   0  0  0  0  0  0  0  0  0  0  0  0
   -3.9328   -4.1109   -0.6592 C   0  0  0  0  0  0  0  0  0  0  0  0
   -5.1931   -4.4572   -0.9539 F   0  0  0  0  0  0  0  0  0  0  0  0
   -3.3710   -4.5247    0.5420 C   0  0  0  0  0  0  0  0  0  0  0  0
   -2.0579   -4.1634    0.8494 C   0  0  0  0  0  0  0  0  0  0  0  0
    5.0382    3.9602   -1.0027 N   0  0  0  0  0  0  0  0  0  0  0  0
    6.1446    4.3187   -0.2546 O   0  0  0  0  0  0  0  0  0  0  0  0
    8.6413    3.2821    0.7924 H   0  0  0  0  0  0  0  0  0  0  0  0
    7.7516    4.4859    1.7451 H   0  0  0  0  0  0  0  0  0  0  0  0
    7.7022    2.7790    2.2113 H   0  0  0  0  0  0  0  0  0  0  0  0
    5.7686    1.2141    0.6932 H   0  0  0  0  0  0  0  0  0  0  0  0
    3.1849    2.6342   -1.9156 H   0  0  0  0  0  0  0  0  0  0  0  0
    2.5523    0.0669   -2.9004 H   0  0  0  0  0  0  0  0  0  0  0  0
    1.4613    1.1584   -2.0335 H   0  0  0  0  0  0  0  0  0  0  0  0
    0.7515   -1.2912   -2.0648 H   0  0  0  0  0  0  0  0  0  0  0  0
    2.1856   -1.6772   -1.0828 H   0  0  0  0  0  0  0  0  0  0  0  0
   -0.2401   -2.0395    2.7112 H   0  0  0  0  0  0  0  0  0  0  0  0
    0.0931   -0.3261    2.4271 H   0  0  0  0  0  0  0  0  0  0  0  0
   -1.5654    0.4196    0.4648 H   0  0  0  0  0  0  0  0  0  0  0  0
   -4.3481   -0.4402    1.0935 H   0  0  0  0  0  0  0  0  0  0  0  0
   -3.5232    0.2152   -1.3914 H   0  0  0  0  0  0  0  0  0  0  0  0
   -5.0519    0.8745   -0.7805 H   0  0  0  0  0  0  0  0  0  0  0  0
   -4.0450    2.9159   -1.3013 H   0  0  0  0  0  0  0  0  0  0  0  0
   -2.4088    2.2850   -1.0896 H   0  0  0  0  0  0  0  0  0  0  0  0
   -2.3523    3.0063    1.0626 H   0  0  0  0  0  0  0  0  0  0  0  0
   -3.9771    3.6806    0.9139 H   0  0  0  0  0  0  0  0  0  0  0  0
   -5.0049    1.7631    1.7749 H   0  0  0  0  0  0  0  0  0  0  0  0
   -3.4589    1.5977    2.6208 H   0  0  0  0  0  0  0  0  0  0  0  0
    0.7446   -3.1694   -0.5527 H   0  0  0  0  0  0  0  0  0  0  0  0
    0.4976   -3.5756    1.1283 H   0  0  0  0  0  0  0  0  0  0  0  0
   -1.3443   -2.3619   -1.9602 H   0  0  0  0  0  0  0  0  0  0  0  0
   -3.6708   -3.0246   -2.4892 H   0  0  0  0  0  0  0  0  0  0  0  0
   -3.9614   -5.1145    1.2371 H   0  0  0  0  0  0  0  0  0  0  0  0
   -1.6363   -4.4776    1.8030 H   0  0  0  0  0  0  0  0  0  0  0  0
  1  2  1  0
  2  3  2  0
  3  4  1  0
  4  5  1  0
  5  6  1  0
  6  7  2  0
  6  8  1  0
  8  9  1  0
  9 10  1  0
 10 11  2  0
 10 12  1  0
 12 13  1  0
 13 14  1  0
 14 15  2  0
 14 16  1  0
 16 17  1  0
 17 18  1  0
 18 19  1  0
 19 20  1  0
 20 21  1  0
 12 22  1  0
 22 23  1  0
 23 24  2  0
 24 25  1  0
 25 26  2  0
 26 27  1  0
 26 28  1  0
 28 29  2  0
  4 30  2  0
 30 31  1  0
 31  2  1  0
 21 17  1  0
 29 23  1  0
  1 32  1  0
  1 33  1  0
  1 34  1  0
  3 35  1  0
  5 36  1  0
  8 37  1  0
  8 38  1  0
  9 39  1  0
  9 40  1  0
 13 41  1  0
 13 42  1  0
 16 43  1  0
 17 44  1  0
 18 45  1  0
 18 46  1  0
 19 47  1  0
 19 48  1  0
 20 49  1  0
 20 50  1  0
 21 51  1  0
 21 52  1  0
 22 53  1  0
 22 54  1  0
 24 55  1  0
 25 56  1  0
 28 57  1  0
 29 58  1  0
M  END
$$$$
