
     RDKit          3D

 35 37  0  0  0  0  0  0  0  0999 V2000
   -3.5810    3.9543    3.9420 C   0  0  0  0  0  0  0  0  0  0  0  0
   -2.7654    4.3054    2.8312 O   0  0  0  0  0  0  0  0  0  0  0  0
   -1.9592    3.3246    2.3235 C   0  0  0  0  0  0  0  0  0  0  0  0
   -1.8099    2.0365    2.8363 C   0  0  0  0  0  0  0  0  0  0  0  0
   -0.9448    1.1265    2.2160 C   0  0  0  0  0  0  0  0  0  0  0  0
   -0.2292    1.4920    1.0706 C   0  0  0  0  0  0  0  0  0  0  0  0
    0.7006    0.5657    0.4115 C   0  0  0  0  0  0  0  0  0  0  0  0
    0.3957   -0.6329   -0.1329 C   0  0  0  0  0  0  0  0  0  0  0  0
   -0.9491   -1.1310   -0.1175 C   0  0  0  0  0  0  0  0  0  0  0  0
   -2.0376   -1.5368   -0.1001 N   0  0  0  0  0  0  0  0  0  0  0  0
    1.3971   -1.4603   -0.7548 C   0  0  0  0  0  0  0  0  0  0  0  0
    2.6706   -1.6544   -0.2541 C   0  0  0  0  0  0  0  0  0  0  0  0
    3.3350   -2.5043   -1.0972 N   0  0  0  0  0  0  0  0  0  0  0  0
    2.5240   -2.8644   -2.1480 C   0  0  0  0  0  0  0  0  0  0  0  0
    2.7907   -3.7032   -3.2374 C   0  0  0  0  0  0  0  0  0  0  0  0
    1.7729   -3.8955   -4.1745 C   0  0  0  0  0  0  0  0  0  0  0  0
    0.5387   -3.2706   -4.0269 C   0  0  0  0  0  0  0  0  0  0  0  0
    0.2877   -2.4343   -2.9322 C   0  0  0  0  0  0  0  0  0  0  0  0
    1.2949   -2.2251   -1.9638 C   0  0  0  0  0  0  0  0  0  0  0  0
   -0.3699    2.7882    0.5674 C   0  0  0  0  0  0  0  0  0  0  0  0
   -1.2318    3.6948    1.1904 C   0  0  0  0  0  0  0  0  0  0  0  0
   -2.9699    3.6998    4.8142 H   0  0  0  0  0  0  0  0  0  0  0  0
   -4.1848    4.8289    4.2029 H   0  0  0  0  0  0  0  0  0  0  0  0
   -4.2674    3.1397    3.6878 H   0  0  0  0  0  0  0  0  0  0  0  0
   -2.3489    1.7050    3.7176 H   0  0  0  0  0  0  0  0  0  0  0  0
   -0.8403    0.1311    2.6426 H   0  0  0  0  0  0  0  0  0  0  0  0
    1.7210    0.9402    0.3519 H   0  0  0  0  0  0  0  0  0  0  0  0
    3.1606   -1.2750    0.6332 H   0  0  0  0  0  0  0  0  0  0  0  0
    4.2851   -2.8263   -0.9730 H   0  0  0  0  0  0  0  0  0  0  0  0
    3.7528   -4.1910   -3.3570 H   0  0  0  0  0  0  0  0  0  0  0  0
    1.9483   -4.5423   -5.0312 H   0  0  0  0  0  0  0  0  0  0  0  0
   -0.2418   -3.4319   -4.7667 H   0  0  0  0  0  0  0  0  0  0  0  0
   -0.6843   -1.9569   -2.8427 H   0  0  0  0  0  0  0  0  0  0  0  0
    0.1802    3.1048   -0.3157 H   0  0  0  0  0  0  0  0  0  0  0  0
   -1.3403    4.6986    0.7867 H   0  0  0  0  0  0  0  0  0  0  0  0
  1  2  1  0
  2  3  1  0
  3  4  2  0
  4  5  1  0
  5  6  2  0
  6  7  1  0
  7  8  2  3
  8  9  1  0
  9 10  3  0
  8 11  1  0
 11 12  2  0
 12 13  1  0
 13 14  1  0
 14 15  2  0
 15 16  1  0
 16 17  2  0
 17 18  1  0
 18 19  2  0
  6 20  1  0
 20 21  2  0
 21  3  1  0
 19 11  1  0
 19 14  1  0
  1 22  1  0
  1 23  1  0
  1 24  1  0
  4 25  1  0
  5 26  1  0
  7 27  1  0
 12 28  1  0
 13 29  1  0
 15 30  1  0
 16 31  1  0
 17 32  1  0
 18 33  1  0
 20 34  1  0
 21 35  1  0
M  END
$$$$
