
     RDKit          3D

 32 32  0  0  0  0  0  0  0  0999 V2000
    0.0108    2.4306   -4.2202 C   0  0  0  0  0  0  0  0  0  0  0  0
   -0.6659    1.6027   -3.6725 C   0  0  0  0  0  0  0  0  0  0  0  0
   -1.4906    0.5811   -3.0038 C   0  0  0  0  0  0  0  0  0  0  0  0
   -1.9174    1.0182   -1.6617 N   0  0  0  0  0  0  0  0  0  0  0  0
   -2.9049    2.1016   -1.7648 C   0  0  0  0  0  0  0  0  0  0  0  0
   -2.4918   -0.0954   -0.8869 C   0  0  0  0  0  0  0  0  0  0  0  0
   -1.4665   -1.1334   -0.4192 C   0  0  0  0  0  0  0  0  0  0  0  0
   -0.3131   -0.5179    0.3695 C   0  0  0  0  0  0  0  0  0  0  0  0
    0.4999   -1.5899    0.8526 O   0  0  0  0  0  0  0  0  0  0  0  0
    1.6083   -1.2712    1.5935 C   0  0  0  0  0  0  0  0  0  0  0  0
    2.0133    0.0342    1.8936 C   0  0  0  0  0  0  0  0  0  0  0  0
    3.1622    0.2531    2.6585 C   0  0  0  0  0  0  0  0  0  0  0  0
    3.6490    1.8641    3.0219 Cl  0  0  0  0  0  0  0  0  0  0  0  0
    3.9198   -0.8155    3.1319 C   0  0  0  0  0  0  0  0  0  0  0  0
    3.5259   -2.1200    2.8380 C   0  0  0  0  0  0  0  0  0  0  0  0
    2.3771   -2.3464    2.0733 C   0  0  0  0  0  0  0  0  0  0  0  0
    1.9387   -3.9868    1.7428 Cl  0  0  0  0  0  0  0  0  0  0  0  0
    0.6136    3.1670   -4.6992 H   0  0  0  0  0  0  0  0  0  0  0  0
   -0.8720   -0.3201   -2.9336 H   0  0  0  0  0  0  0  0  0  0  0  0
   -2.3552    0.3213   -3.6274 H   0  0  0  0  0  0  0  0  0  0  0  0
   -2.4896    2.9774   -2.2742 H   0  0  0  0  0  0  0  0  0  0  0  0
   -3.1995    2.4469   -0.7670 H   0  0  0  0  0  0  0  0  0  0  0  0
   -3.8087    1.7856   -2.2986 H   0  0  0  0  0  0  0  0  0  0  0  0
   -2.9667    0.3051    0.0190 H   0  0  0  0  0  0  0  0  0  0  0  0
   -3.2855   -0.5969   -1.4560 H   0  0  0  0  0  0  0  0  0  0  0  0
   -1.0689   -1.7104   -1.2622 H   0  0  0  0  0  0  0  0  0  0  0  0
   -1.9764   -1.8725    0.2127 H   0  0  0  0  0  0  0  0  0  0  0  0
   -0.7108    0.0573    1.2139 H   0  0  0  0  0  0  0  0  0  0  0  0
    0.2812    0.1300   -0.2849 H   0  0  0  0  0  0  0  0  0  0  0  0
    1.4558    0.8970    1.5440 H   0  0  0  0  0  0  0  0  0  0  0  0
    4.8128   -0.6406    3.7262 H   0  0  0  0  0  0  0  0  0  0  0  0
    4.1152   -2.9563    3.2056 H   0  0  0  0  0  0  0  0  0  0  0  0
  1  2  3  0
  2  3  1  0
  3  4  1  0
  4  5  1  0
  4  6  1  0
  6  7  1  0
  7  8  1  0
  8  9  1  0
  9 10  1  0
 10 11  2  0
 11 12  1  0
 12 13  1  0
 12 14  2  0
 14 15  1  0
 15 16  2  0
 16 17  1  0
 16 10  1  0
  1 18  1  0
  3 19  1  0
  3 20  1  0
  5 21  1  0
  5 22  1  0
  5 23  1  0
  6 24  1  0
  6 25  1  0
  7 26  1  0
  7 27  1  0
  8 28  1  0
  8 29  1  0
 11 30  1  0
 14 31  1  0
 15 32  1  0
M  END
$$$$
