
     RDKit          3D

 48 51  0  0  0  0  0  0  0  0999 V2000
    6.6799    0.9316   -2.7751 C   0  0  0  0  0  0  0  0  0  0  0  0
    5.8988    0.2165   -1.7512 C   0  0  0  0  0  0  0  0  0  0  0  0
    4.5613   -0.0146   -1.5486 C   0  0  0  0  0  0  0  0  0  0  0  0
    4.5019   -0.7940   -0.3585 C   0  0  0  0  0  0  0  0  0  0  0  0
    3.3277   -1.3383    0.3374 C   0  0  0  0  0  0  0  0  0  0  0  0
    3.3993   -2.1812    1.2281 O   0  0  0  0  0  0  0  0  0  0  0  0
    2.1118   -0.8203   -0.0741 N   0  0  0  0  0  0  0  0  0  0  0  0
    0.8846   -1.1775    0.6084 C   0  0  0  0  0  0  0  0  0  0  0  0
    0.7455   -0.3936    1.9359 C   0  0  0  0  0  0  0  0  0  0  0  0
   -0.7101   -0.3377    2.4859 C   0  0  0  0  0  0  0  0  0  0  0  0
   -0.7217    0.5090    3.7730 C   0  0  0  0  0  0  0  0  0  0  0  0
   -1.2090   -1.7527    2.8439 C   0  0  0  0  0  0  0  0  0  0  0  0
   -1.6611    0.3280    1.4411 C   0  0  0  0  0  0  0  0  0  0  0  0
   -1.3926   -0.1769    0.0611 C   0  0  0  0  0  0  0  0  0  0  0  0
   -0.2523   -0.8706   -0.3052 C   0  0  0  0  0  0  0  0  0  0  0  0
   -0.4867   -1.2653   -1.6261 C   0  0  0  0  0  0  0  0  0  0  0  0
   -1.6511   -0.8192   -2.0879 N   0  0  0  0  0  0  0  0  0  0  0  0
   -2.2052   -0.1045   -1.0642 N   0  0  0  0  0  0  0  0  0  0  0  0
   -3.4468    0.5698   -1.2907 C   0  0  0  0  0  0  0  0  0  0  0  0
   -3.9671    1.5211   -0.4032 C   0  0  0  0  0  0  0  0  0  0  0  0
   -5.1870    2.1514   -0.6782 C   0  0  0  0  0  0  0  0  0  0  0  0
   -5.8832    1.8408   -1.8390 C   0  0  0  0  0  0  0  0  0  0  0  0
   -7.0479    2.4503   -2.0940 F   0  0  0  0  0  0  0  0  0  0  0  0
   -5.3813    0.9142   -2.7400 C   0  0  0  0  0  0  0  0  0  0  0  0
   -4.1642    0.2832   -2.4702 C   0  0  0  0  0  0  0  0  0  0  0  0
    5.7429   -1.0124    0.1095 N   0  0  0  0  0  0  0  0  0  0  0  0
    6.6071   -0.3788   -0.7591 O   0  0  0  0  0  0  0  0  0  0  0  0
    7.2572    0.2245   -3.3787 H   0  0  0  0  0  0  0  0  0  0  0  0
    6.0239    1.4964   -3.4449 H   0  0  0  0  0  0  0  0  0  0  0  0
    7.3751    1.6360   -2.3083 H   0  0  0  0  0  0  0  0  0  0  0  0
    3.7512    0.3176   -2.1790 H   0  0  0  0  0  0  0  0  0  0  0  0
    2.1018    0.0140   -0.6420 H   0  0  0  0  0  0  0  0  0  0  0  0
    0.8968   -2.2539    0.8191 H   0  0  0  0  0  0  0  0  0  0  0  0
    1.4195   -0.8281    2.6859 H   0  0  0  0  0  0  0  0  0  0  0  0
    1.0971    0.6377    1.7830 H   0  0  0  0  0  0  0  0  0  0  0  0
   -0.3596    1.5256    3.5832 H   0  0  0  0  0  0  0  0  0  0  0  0
   -0.0802    0.0667    4.5435 H   0  0  0  0  0  0  0  0  0  0  0  0
   -1.7342    0.5881    4.1847 H   0  0  0  0  0  0  0  0  0  0  0  0
   -2.2048   -1.7130    3.3003 H   0  0  0  0  0  0  0  0  0  0  0  0
   -1.2806   -2.4047    1.9679 H   0  0  0  0  0  0  0  0  0  0  0  0
   -0.5355   -2.2351    3.5613 H   0  0  0  0  0  0  0  0  0  0  0  0
   -2.7002    0.1381    1.7321 H   0  0  0  0  0  0  0  0  0  0  0  0
   -1.4926    1.4122    1.4449 H   0  0  0  0  0  0  0  0  0  0  0  0
    0.1381   -1.8678   -2.2736 H   0  0  0  0  0  0  0  0  0  0  0  0
   -3.4491    1.8323    0.4936 H   0  0  0  0  0  0  0  0  0  0  0  0
   -5.5935    2.8917    0.0045 H   0  0  0  0  0  0  0  0  0  0  0  0
   -5.9340    0.6864   -3.6459 H   0  0  0  0  0  0  0  0  0  0  0  0
   -3.7897   -0.4432   -3.1907 H   0  0  0  0  0  0  0  0  0  0  0  0
  1  2  1  0
  2  3  2  0
  3  4  1  0
  4  5  1  0
  5  6  2  0
  5  7  1  0
  7  8  1  0
  8  9  1  0
  9 10  1  0
 10 11  1  0
 10 12  1  0
 10 13  1  0
 13 14  1  0
 14 15  2  0
 15 16  1  0
 16 17  2  0
 17 18  1  0
 18 19  1  0
 19 20  2  0
 20 21  1  0
 21 22  2  0
 22 23  1  0
 22 24  1  0
 24 25  2  0
  4 26  2  0
 26 27  1  0
 27  2  1  0
 15  8  1  0
 25 19  1  0
 18 14  1  0
  1 28  1  0
  1 29  1  0
  1 30  1  0
  3 31  1  0
  7 32  1  0
  8 33  1  0
  9 34  1  0
  9 35  1  0
 11 36  1  0
 11 37  1  0
 11 38  1  0
 12 39  1  0
 12 40  1  0
 12 41  1  0
 13 42  1  0
 13 43  1  0
 16 44  1  0
 20 45  1  0
 21 46  1  0
 24 47  1  0
 25 48  1  0
M  END
$$$$
