
     RDKit          3D

 71 75  0  0  0  0  0  0  0  0999 V2000
   -2.0616    4.0598    0.2578 C   0  0  0  0  0  0  0  0  0  0  0  0
   -1.6333    2.6078    0.3584 C   0  0  0  0  0  0  0  0  0  0  0  0
   -2.0291    1.7634   -0.6214 C   0  0  0  0  0  0  0  0  0  0  0  0
   -1.8614    0.3204   -0.8895 C   0  0  0  0  0  0  0  0  0  0  0  0
   -2.9145   -0.7134   -0.5016 C   0  0  2  0  0  0  0  0  0  0  0  0
   -2.5585   -2.1127   -0.0334 C   0  0  0  0  0  0  0  0  0  0  0  0
   -2.7977   -2.3893    1.4662 C   0  0  0  0  0  0  0  0  0  0  0  0
   -2.0120   -1.5329    2.4415 C   0  0  2  0  0  0  0  0  0  0  0  0
   -2.1204   -1.8793    3.8905 C   0  0  0  0  0  0  0  0  0  0  0  0
   -2.2126   -0.1612    2.1521 O   0  0  0  0  0  0  0  0  0  0  0  0
   -0.8697   -0.6535    1.9514 C   0  0  1  0  0  0  0  0  0  0  0  0
    0.0573    0.2801    2.6347 C   0  0  1  0  0  0  0  0  0  0  0  0
    1.4000   -0.3140    3.0401 C   0  0  1  0  0  0  0  0  0  0  0  0
    1.9426   -1.1439    2.0182 O   0  0  0  0  0  0  0  0  0  0  0  0
    2.2642    0.9374    3.2929 C   0  0  1  0  0  0  0  0  0  0  0  0
    3.7356    0.7806    2.9268 C   0  0  0  0  0  0  0  0  0  0  0  0
    4.2719   -0.3646    3.5850 O   0  0  0  0  0  0  0  0  0  0  0  0
    1.5855    2.1015    2.5288 C   0  0  0  0  0  0  0  0  0  0  0  0
    0.4274    1.4774    1.6991 C   0  0  1  0  0  0  0  0  0  0  0  0
    0.9706    0.9999    0.4601 O   0  0  0  0  0  0  0  0  0  0  0  0
    1.3926    1.9016   -0.4549 C   0  0  0  0  0  0  0  0  0  0  0  0
    1.3583    3.1173   -0.3417 O   0  0  0  0  0  0  0  0  0  0  0  0
    1.9005    1.2392   -1.6747 C   0  0  0  0  0  0  0  0  0  0  0  0
    2.1187   -0.0820   -1.7723 C   0  0  0  0  0  0  0  0  0  0  0  0
    2.5902   -0.7534   -2.9923 C   0  0  0  0  0  0  0  0  0  0  0  0
    2.1668   -2.0657   -3.2412 C   0  0  0  0  0  0  0  0  0  0  0  0
    2.6024   -2.7535   -4.3760 C   0  0  0  0  0  0  0  0  0  0  0  0
    3.4779   -2.1409   -5.2686 C   0  0  0  0  0  0  0  0  0  0  0  0
    3.9200   -0.8429   -5.0247 C   0  0  0  0  0  0  0  0  0  0  0  0
    3.4823   -0.1537   -3.8906 C   0  0  0  0  0  0  0  0  0  0  0  0
   -0.8221    2.4010    1.6248 C   0  0  0  0  0  0  0  0  0  0  0  0
   -1.1699    3.0367    2.6326 O   0  0  0  0  0  0  0  0  0  0  0  0
   -2.7328   -0.3417   -1.9645 C   0  0  0  0  0  0  0  0  0  0  0  0
   -3.9019    0.3644   -2.6136 C   0  0  0  0  0  0  0  0  0  0  0  0
   -2.0242   -1.2802   -2.9151 C   0  0  0  0  0  0  0  0  0  0  0  0
   -2.9432    4.2396    0.8807 H   0  0  0  0  0  0  0  0  0  0  0  0
   -1.2590    4.7279    0.5866 H   0  0  0  0  0  0  0  0  0  0  0  0
   -2.3054    4.3495   -0.7697 H   0  0  0  0  0  0  0  0  0  0  0  0
   -2.5960    2.2578   -1.4114 H   0  0  0  0  0  0  0  0  0  0  0  0
   -0.8256    0.0110   -0.9103 H   0  0  0  0  0  0  0  0  0  0  0  0
   -3.8150   -0.3576   -0.0081 H   0  0  0  0  0  0  0  0  0  0  0  0
   -1.5210   -2.3582   -0.2849 H   0  0  0  0  0  0  0  0  0  0  0  0
   -3.1846   -2.8158   -0.5969 H   0  0  0  0  0  0  0  0  0  0  0  0
   -3.8664   -2.2657    1.6814 H   0  0  0  0  0  0  0  0  0  0  0  0
   -2.5555   -3.4409    1.6609 H   0  0  0  0  0  0  0  0  0  0  0  0
   -3.1564   -2.1169    4.1552 H   0  0  0  0  0  0  0  0  0  0  0  0
   -1.7988   -1.0538    4.5367 H   0  0  0  0  0  0  0  0  0  0  0  0
   -1.4974   -2.7515    4.1171 H   0  0  0  0  0  0  0  0  0  0  0  0
   -0.4815   -0.9293    0.9832 H   0  0  0  0  0  0  0  0  0  0  0  0
   -0.4164    0.6720    3.5472 H   0  0  0  0  0  0  0  0  0  0  0  0
    1.3026   -0.9279    3.9429 H   0  0  0  0  0  0  0  0  0  0  0  0
    2.8088   -1.4575    2.3533 H   0  0  0  0  0  0  0  0  0  0  0  0
    2.2023    1.1657    4.3662 H   0  0  0  0  0  0  0  0  0  0  0  0
    3.8694    0.6434    1.8487 H   0  0  0  0  0  0  0  0  0  0  0  0
    4.3157    1.6607    3.2236 H   0  0  0  0  0  0  0  0  0  0  0  0
    4.3629   -0.1352    4.5277 H   0  0  0  0  0  0  0  0  0  0  0  0
    1.2075    2.8226    3.2632 H   0  0  0  0  0  0  0  0  0  0  0  0
    2.3150    2.6379    1.9138 H   0  0  0  0  0  0  0  0  0  0  0  0
    2.0772    1.9191   -2.5002 H   0  0  0  0  0  0  0  0  0  0  0  0
    1.9218   -0.7393   -0.9264 H   0  0  0  0  0  0  0  0  0  0  0  0
    1.4885   -2.5653   -2.5527 H   0  0  0  0  0  0  0  0  0  0  0  0
    2.2601   -3.7688   -4.5593 H   0  0  0  0  0  0  0  0  0  0  0  0
    3.8214   -2.6765   -6.1493 H   0  0  0  0  0  0  0  0  0  0  0  0
    4.6136   -0.3677   -5.7129 H   0  0  0  0  0  0  0  0  0  0  0  0
    3.8622    0.8494   -3.7147 H   0  0  0  0  0  0  0  0  0  0  0  0
   -4.5812   -0.3680   -3.0637 H   0  0  0  0  0  0  0  0  0  0  0  0
   -3.5500    1.0336   -3.4059 H   0  0  0  0  0  0  0  0  0  0  0  0
   -4.4871    0.9550   -1.9002 H   0  0  0  0  0  0  0  0  0  0  0  0
   -1.1350   -1.7358   -2.4708 H   0  0  0  0  0  0  0  0  0  0  0  0
   -2.6986   -2.0851   -3.2273 H   0  0  0  0  0  0  0  0  0  0  0  0
   -1.6981   -0.7382   -3.8083 H   0  0  0  0  0  0  0  0  0  0  0  0
  1  2  1  0
  2  3  2  3
  3  4  1  0
  4  5  1  0
  5  6  1  0
  6  7  1  0
  7  8  1  0
  8  9  1  1
  8 10  1  0
 10 11  1  0
 11 12  1  0
 12 13  1  0
 13 14  1  0
 13 15  1  0
 15 16  1  0
 16 17  1  0
 15 18  1  0
 18 19  1  0
 19 20  1  6
 20 21  1  0
 21 22  2  0
 21 23  1  0
 23 24  2  0
 24 25  1  0
 25 26  2  0
 26 27  1  0
 27 28  2  0
 28 29  1  0
 29 30  2  0
 19 31  1  0
 31 32  2  0
  5 33  1  0
 33 34  1  0
 33 35  1  0
 31  2  1  0
 33  4  1  0
 11  8  1  0
 19 12  1  0
 30 25  1  0
  1 36  1  0
  1 37  1  0
  1 38  1  0
  3 39  1  0
  4 40  1  0
  5 41  1  1
  6 42  1  0
  6 43  1  0
  7 44  1  0
  7 45  1  0
  9 46  1  0
  9 47  1  0
  9 48  1  0
 11 49  1  6
 12 50  1  1
 13 51  1  1
 14 52  1  0
 15 53  1  1
 16 54  1  0
 16 55  1  0
 17 56  1  0
 18 57  1  0
 18 58  1  0
 23 59  1  0
 24 60  1  0
 26 61  1  0
 27 62  1  0
 28 63  1  0
 29 64  1  0
 30 65  1  0
 34 66  1  0
 34 67  1  0
 34 68  1  0
 35 69  1  0
 35 70  1  0
 35 71  1  0
M  END
$$$$
