
     RDKit          3D

 34 35  0  0  0  0  0  0  0  0999 V2000
    5.1697    1.7356    0.3222 C   0  0  0  0  0  0  0  0  0  0  0  0
    4.5470    0.6545   -0.5432 C   0  0  0  0  0  0  0  0  0  0  0  0
    3.4972   -0.0694    0.1523 N   0  0  0  0  0  0  0  0  0  0  0  0
    3.8461   -1.1264    0.9106 N   0  0  0  0  0  0  0  0  0  0  0  0
    2.6840   -1.5804    1.3781 C   0  0  0  0  0  0  0  0  0  0  0  0
    1.5859   -0.8263    0.9159 C   0  0  0  0  0  0  0  0  0  0  0  0
    0.2177   -1.0708    1.2340 C   0  0  0  0  0  0  0  0  0  0  0  0
   -0.8373   -0.7901    0.4536 C   0  0  0  0  0  0  0  0  0  0  0  0
   -2.2080   -1.1417    0.9128 C   0  0  0  0  0  0  0  0  0  0  0  0
   -2.4000   -1.8464    1.8984 O   0  0  0  0  0  0  0  0  0  0  0  0
   -3.3603   -0.6439    0.1144 C   0  0  0  0  0  0  0  0  0  0  0  0
   -4.5393   -1.4013    0.1170 C   0  0  0  0  0  0  0  0  0  0  0  0
   -5.6510   -0.9759   -0.6120 C   0  0  0  0  0  0  0  0  0  0  0  0
   -5.5943    0.2126   -1.3380 C   0  0  0  0  0  0  0  0  0  0  0  0
   -4.4306    0.9813   -1.3305 C   0  0  0  0  0  0  0  0  0  0  0  0
   -3.3149    0.5589   -0.6028 C   0  0  0  0  0  0  0  0  0  0  0  0
    2.1415    0.1803    0.1439 C   0  0  0  0  0  0  0  0  0  0  0  0
    1.5399    1.3364   -0.5702 C   0  0  0  0  0  0  0  0  0  0  0  0
    5.9541    2.2604   -0.2318 H   0  0  0  0  0  0  0  0  0  0  0  0
    4.4229    2.4716    0.6374 H   0  0  0  0  0  0  0  0  0  0  0  0
    5.6177    1.3086    1.2257 H   0  0  0  0  0  0  0  0  0  0  0  0
    5.3049   -0.0762   -0.8482 H   0  0  0  0  0  0  0  0  0  0  0  0
    4.1218    1.0812   -1.4570 H   0  0  0  0  0  0  0  0  0  0  0  0
    2.6842   -2.4473    2.0266 H   0  0  0  0  0  0  0  0  0  0  0  0
    0.0348   -1.5699    2.1866 H   0  0  0  0  0  0  0  0  0  0  0  0
   -0.7192   -0.3502   -0.5266 H   0  0  0  0  0  0  0  0  0  0  0  0
   -4.5937   -2.3270    0.6873 H   0  0  0  0  0  0  0  0  0  0  0  0
   -6.5615   -1.5703   -0.6084 H   0  0  0  0  0  0  0  0  0  0  0  0
   -6.4624    0.5451   -1.9024 H   0  0  0  0  0  0  0  0  0  0  0  0
   -4.3968    1.9162   -1.8851 H   0  0  0  0  0  0  0  0  0  0  0  0
   -2.4341    1.1939   -0.5892 H   0  0  0  0  0  0  0  0  0  0  0  0
    2.2131    2.1986   -0.5913 H   0  0  0  0  0  0  0  0  0  0  0  0
    0.6215    1.6709   -0.0781 H   0  0  0  0  0  0  0  0  0  0  0  0
    1.2995    1.0611   -1.6018 H   0  0  0  0  0  0  0  0  0  0  0  0
  1  2  1  0
  2  3  1  0
  3  4  1  0
  4  5  2  0
  5  6  1  0
  6  7  1  0
  7  8  2  3
  8  9  1  0
  9 10  2  0
  9 11  1  0
 11 12  2  0
 12 13  1  0
 13 14  2  0
 14 15  1  0
 15 16  2  0
  6 17  2  0
 17 18  1  0
 17  3  1  0
 16 11  1  0
  1 19  1  0
  1 20  1  0
  1 21  1  0
  2 22  1  0
  2 23  1  0
  5 24  1  0
  7 25  1  0
  8 26  1  0
 12 27  1  0
 13 28  1  0
 14 29  1  0
 15 30  1  0
 16 31  1  0
 18 32  1  0
 18 33  1  0
 18 34  1  0
M  END
$$$$
