
     RDKit          3D

 38 40  0  0  0  0  0  0  0  0999 V2000
   -0.0049    3.5775   -0.0950 S   0  0  0  0  0  0  0  0  0  0  0  0
    0.0323    1.9257   -0.4042 C   0  0  0  0  0  0  0  0  0  0  0  0
    1.2011    1.1910   -0.3825 N   0  0  0  0  0  0  0  0  0  0  0  0
    2.5344    1.7094   -0.1131 C   0  0  0  0  0  0  0  0  0  0  0  0
    3.5303    0.5807   -0.0535 C   0  0  0  0  0  0  0  0  0  0  0  0
    4.3725    0.3100   -1.1407 C   0  0  0  0  0  0  0  0  0  0  0  0
    5.2748   -0.7537   -1.0877 C   0  0  0  0  0  0  0  0  0  0  0  0
    5.3392   -1.5595    0.0479 C   0  0  0  0  0  0  0  0  0  0  0  0
    4.5003   -1.3049    1.1312 C   0  0  0  0  0  0  0  0  0  0  0  0
    3.5977   -0.2420    1.0804 C   0  0  0  0  0  0  0  0  0  0  0  0
   -1.0989    1.1526   -0.6887 N   0  0  0  0  0  0  0  0  0  0  0  0
   -2.3802    1.7287   -1.1199 C   0  0  0  0  0  0  0  0  0  0  0  0
   -3.4568    1.4905   -0.0652 C   0  0  0  0  0  0  0  0  0  0  0  0
   -3.5547    0.0228    0.2696 C   0  0  0  0  0  0  0  0  0  0  0  0
   -4.7366   -0.4943    0.8168 C   0  0  0  0  0  0  0  0  0  0  0  0
   -4.8294   -1.8467    1.1426 C   0  0  0  0  0  0  0  0  0  0  0  0
   -3.7416   -2.6904    0.9327 C   0  0  0  0  0  0  0  0  0  0  0  0
   -2.5557   -2.1816    0.4024 C   0  0  0  0  0  0  0  0  0  0  0  0
   -2.4450   -0.8213    0.0742 C   0  0  0  0  0  0  0  0  0  0  0  0
   -1.1378   -0.3045   -0.4933 C   0  0  0  0  0  0  0  0  0  0  0  0
    1.1953    0.3658   -0.9635 H   0  0  0  0  0  0  0  0  0  0  0  0
    2.7977    2.4182   -0.9067 H   0  0  0  0  0  0  0  0  0  0  0  0
    2.5318    2.2576    0.8358 H   0  0  0  0  0  0  0  0  0  0  0  0
    4.3324    0.9275   -2.0355 H   0  0  0  0  0  0  0  0  0  0  0  0
    5.9288   -0.9539   -1.9326 H   0  0  0  0  0  0  0  0  0  0  0  0
    6.0434   -2.3864    0.0886 H   0  0  0  0  0  0  0  0  0  0  0  0
    4.5485   -1.9342    2.0162 H   0  0  0  0  0  0  0  0  0  0  0  0
    2.9422   -0.0555    1.9291 H   0  0  0  0  0  0  0  0  0  0  0  0
   -2.3020    2.7949   -1.3447 H   0  0  0  0  0  0  0  0  0  0  0  0
   -2.6499    1.2347   -2.0629 H   0  0  0  0  0  0  0  0  0  0  0  0
   -4.4172    1.8563   -0.4461 H   0  0  0  0  0  0  0  0  0  0  0  0
   -3.2191    2.0412    0.8527 H   0  0  0  0  0  0  0  0  0  0  0  0
   -5.5914    0.1554    0.9907 H   0  0  0  0  0  0  0  0  0  0  0  0
   -5.7505   -2.2416    1.5632 H   0  0  0  0  0  0  0  0  0  0  0  0
   -3.8150   -3.7444    1.1877 H   0  0  0  0  0  0  0  0  0  0  0  0
   -1.7126   -2.8526    0.2522 H   0  0  0  0  0  0  0  0  0  0  0  0
   -0.3326   -0.6134    0.1819 H   0  0  0  0  0  0  0  0  0  0  0  0
   -0.9708   -0.7598   -1.4766 H   0  0  0  0  0  0  0  0  0  0  0  0
  1  2  2  0
  2  3  1  0
  3  4  1  0
  4  5  1  0
  5  6  2  0
  6  7  1  0
  7  8  2  0
  8  9  1  0
  9 10  2  0
  2 11  1  0
 11 12  1  0
 12 13  1  0
 13 14  1  0
 14 15  2  0
 15 16  1  0
 16 17  2  0
 17 18  1  0
 18 19  2  0
 19 20  1  0
 10  5  1  0
 20 11  1  0
 19 14  1  0
  3 21  1  0
  4 22  1  0
  4 23  1  0
  6 24  1  0
  7 25  1  0
  8 26  1  0
  9 27  1  0
 10 28  1  0
 12 29  1  0
 12 30  1  0
 13 31  1  0
 13 32  1  0
 15 33  1  0
 16 34  1  0
 17 35  1  0
 18 36  1  0
 20 37  1  0
 20 38  1  0
M  END
$$$$
