
     RDKit          3D

 51 55  0  0  0  0  0  0  0  0999 V2000
    4.8385   -2.1905    0.9335 F   0  0  0  0  0  0  0  0  0  0  0  0
    5.5130   -1.0400    1.0739 C   0  0  0  0  0  0  0  0  0  0  0  0
    6.8630   -1.0884    1.4093 C   0  0  0  0  0  0  0  0  0  0  0  0
    7.5833    0.0972    1.5475 C   0  0  0  0  0  0  0  0  0  0  0  0
    6.9480    1.3235    1.3482 C   0  0  0  0  0  0  0  0  0  0  0  0
    5.5915    1.3659    1.0139 C   0  0  0  0  0  0  0  0  0  0  0  0
    4.8574    0.1787    0.8776 C   0  0  0  0  0  0  0  0  0  0  0  0
    3.4000    0.2081    0.4891 C   0  0  0  0  0  0  0  0  0  0  0  0
    3.2259    0.1740   -1.0403 C   0  0  0  0  0  0  0  0  0  0  0  0
    1.8517    0.0724   -1.5424 N   0  0  0  0  0  0  0  0  0  0  0  0
    1.0044    1.2304   -1.2267 C   0  0  0  0  0  0  0  0  0  0  0  0
   -0.4715    0.9986   -1.6185 C   0  0  0  0  0  0  0  0  0  0  0  0
   -1.0496   -0.1472   -0.9080 N   0  0  0  0  0  0  0  0  0  0  0  0
   -2.3621   -0.1615   -0.4435 C   0  0  0  0  0  0  0  0  0  0  0  0
   -2.6057   -0.8233    0.6636 N   0  0  0  0  0  0  0  0  0  0  0  0
   -3.8996   -0.8696    1.2147 C   0  0  0  0  0  0  0  0  0  0  0  0
   -4.0928   -1.5864    2.3974 C   0  0  0  0  0  0  0  0  0  0  0  0
   -5.3582   -1.6646    2.9876 C   0  0  0  0  0  0  0  0  0  0  0  0
   -6.4463   -1.0204    2.3982 C   0  0  0  0  0  0  0  0  0  0  0  0
   -6.2753   -0.2946    1.2186 C   0  0  0  0  0  0  0  0  0  0  0  0
   -5.0030   -0.2268    0.6399 C   0  0  0  0  0  0  0  0  0  0  0  0
   -4.7452    0.4660   -0.5537 N   0  0  0  0  0  0  0  0  0  0  0  0
   -5.6155    1.1706   -1.3513 C   0  0  0  0  0  0  0  0  0  0  0  0
   -4.9237    1.6101   -2.4585 C   0  0  0  0  0  0  0  0  0  0  0  0
   -3.5877    1.1675   -2.3190 C   0  0  0  0  0  0  0  0  0  0  0  0
   -3.4816    0.4971   -1.1107 C   0  0  0  0  0  0  0  0  0  0  0  0
   -0.0766   -1.1098   -0.3592 C   0  0  0  0  0  0  0  0  0  0  0  0
    1.1886   -1.2097   -1.2390 C   0  0  0  0  0  0  0  0  0  0  0  0
    7.3436   -2.0497    1.5565 H   0  0  0  0  0  0  0  0  0  0  0  0
    8.6388    0.0676    1.8095 H   0  0  0  0  0  0  0  0  0  0  0  0
    7.5101    2.2485    1.4514 H   0  0  0  0  0  0  0  0  0  0  0  0
    5.1133    2.3305    0.8588 H   0  0  0  0  0  0  0  0  0  0  0  0
    2.8850   -0.6363    0.9625 H   0  0  0  0  0  0  0  0  0  0  0  0
    2.9430    1.1118    0.9103 H   0  0  0  0  0  0  0  0  0  0  0  0
    3.6849    1.0734   -1.4726 H   0  0  0  0  0  0  0  0  0  0  0  0
    3.8035   -0.6614   -1.4590 H   0  0  0  0  0  0  0  0  0  0  0  0
    1.3789    2.1068   -1.7684 H   0  0  0  0  0  0  0  0  0  0  0  0
    1.0372    1.4671   -0.1576 H   0  0  0  0  0  0  0  0  0  0  0  0
   -1.0223    1.9162   -1.3911 H   0  0  0  0  0  0  0  0  0  0  0  0
   -0.5370    0.8172   -2.6971 H   0  0  0  0  0  0  0  0  0  0  0  0
   -3.2469   -2.0886    2.8612 H   0  0  0  0  0  0  0  0  0  0  0  0
   -5.4923   -2.2305    3.9061 H   0  0  0  0  0  0  0  0  0  0  0  0
   -7.4298   -1.0873    2.8562 H   0  0  0  0  0  0  0  0  0  0  0  0
   -7.1374    0.1942    0.7771 H   0  0  0  0  0  0  0  0  0  0  0  0
   -6.6562    1.2923   -1.0917 H   0  0  0  0  0  0  0  0  0  0  0  0
   -5.3421    2.1738   -3.2822 H   0  0  0  0  0  0  0  0  0  0  0  0
   -2.7941    1.3248   -3.0369 H   0  0  0  0  0  0  0  0  0  0  0  0
    0.2022   -0.8126    0.6604 H   0  0  0  0  0  0  0  0  0  0  0  0
   -0.5295   -2.1086   -0.3056 H   0  0  0  0  0  0  0  0  0  0  0  0
    0.8945   -1.6456   -2.2030 H   0  0  0  0  0  0  0  0  0  0  0  0
    1.8814   -1.9306   -0.7879 H   0  0  0  0  0  0  0  0  0  0  0  0
  1  2  1  0
  2  3  2  0
  3  4  1  0
  4  5  2  0
  5  6  1  0
  6  7  2  0
  7  8  1  0
  8  9  1  0
  9 10  1  0
 10 11  1  0
 11 12  1  0
 12 13  1  0
 13 14  1  0
 14 15  2  0
 15 16  1  0
 16 17  2  0
 17 18  1  0
 18 19  2  0
 19 20  1  0
 20 21  2  0
 21 22  1  0
 22 23  1  0
 23 24  2  0
 24 25  1  0
 25 26  2  0
 13 27  1  0
 27 28  1  0
  7  2  1  0
 28 10  1  0
 26 14  1  0
 21 16  1  0
 26 22  1  0
  3 29  1  0
  4 30  1  0
  5 31  1  0
  6 32  1  0
  8 33  1  0
  8 34  1  0
  9 35  1  0
  9 36  1  0
 11 37  1  0
 11 38  1  0
 12 39  1  0
 12 40  1  0
 17 41  1  0
 18 42  1  0
 19 43  1  0
 20 44  1  0
 23 45  1  0
 24 46  1  0
 25 47  1  0
 27 48  1  0
 27 49  1  0
 28 50  1  0
 28 51  1  0
M  END
$$$$
