
     RDKit          3D

 72 77  0  0  0  0  0  0  0  0999 V2000
   -5.9904    2.5674   -1.5546 C   0  0  0  0  0  0  0  0  0  0  0  0
   -6.6674    1.3555   -0.9875 C   0  0  0  0  0  0  0  0  0  0  0  0
   -7.9857    1.4210   -0.5384 C   0  0  0  0  0  0  0  0  0  0  0  0
   -8.6152    0.2831   -0.0319 C   0  0  0  0  0  0  0  0  0  0  0  0
   -7.9472   -0.9512    0.0251 C   0  0  0  0  0  0  0  0  0  0  0  0
   -8.6721   -2.1370    0.6003 C   0  0  0  0  0  0  0  0  0  0  0  0
   -6.6181   -1.0346   -0.4378 C   0  0  0  0  0  0  0  0  0  0  0  0
   -5.8143   -2.3160   -0.3898 C   0  0  0  0  0  0  0  0  0  0  0  0
   -5.0905   -2.4519    0.8584 N   0  0  0  0  0  0  0  0  0  0  0  0
   -5.5538   -3.2492    1.8535 N   0  0  0  0  0  0  0  0  0  0  0  0
   -4.6841   -3.1910    2.8610 N   0  0  0  0  0  0  0  0  0  0  0  0
   -3.6646   -2.3788    2.4695 C   0  0  0  0  0  0  0  0  0  0  0  0
   -2.4693   -1.9694    3.1491 C   0  0  0  0  0  0  0  0  0  0  0  0
   -2.1280   -2.3103    4.2773 O   0  0  0  0  0  0  0  0  0  0  0  0
   -1.6910   -1.1196    2.3754 N   0  0  0  0  0  0  0  0  0  0  0  0
   -2.0061   -0.7338    1.0773 C   0  0  0  0  0  0  0  0  0  0  0  0
   -1.0222    0.1872    0.3723 C   0  0  0  0  0  0  0  0  0  0  0  0
    0.3414   -0.4852    0.2001 C   0  0  0  0  0  0  0  0  0  0  0  0
    1.4040    0.5506   -0.1319 C   0  0  0  0  0  0  0  0  0  0  0  0
    1.5797    1.5161    0.9873 N   0  0  0  0  0  0  0  0  0  0  0  0
    2.3940    2.9702    0.5711 S   0  0  0  0  0  6  0  0  0  0  0  0
    1.6570    3.5711   -0.5213 O   0  0  0  0  0  0  0  0  0  0  0  0
    2.6639    3.7031    1.7906 O   0  0  0  0  0  0  0  0  0  0  0  0
    3.9471    2.3757   -0.0539 C   0  0  0  0  0  0  0  0  0  0  0  0
    4.1841    2.3624   -1.4332 C   0  0  0  0  0  0  0  0  0  0  0  0
    5.3980    1.8729   -1.9170 C   0  0  0  0  0  0  0  0  0  0  0  0
    6.3663    1.4164   -1.0160 C   0  0  0  0  0  0  0  0  0  0  0  0
    7.9029    0.7668   -1.6264 S   0  0  0  0  0  6  0  0  0  0  0  0
    8.9646    1.5661   -1.0577 O   0  0  0  0  0  0  0  0  0  0  0  0
    7.7644    0.5544   -3.0527 O   0  0  0  0  0  0  0  0  0  0  0  0
    7.9115   -0.7854   -0.9163 N   0  0  0  0  0  0  0  0  0  0  0  0
    9.2607   -1.3719   -0.8024 C   0  0  0  0  0  0  0  0  0  0  0  0
    9.4346   -2.8120   -0.4089 C   0  0  0  0  0  0  0  0  0  0  0  0
    9.7515   -2.3726   -1.8078 C   0  0  0  0  0  0  0  0  0  0  0  0
    6.1400    1.4544    0.3651 C   0  0  0  0  0  0  0  0  0  0  0  0
    4.9224    1.9359    0.8489 C   0  0  0  0  0  0  0  0  0  0  0  0
    0.3785    1.7239    1.8433 C   0  0  0  0  0  0  0  0  0  0  0  0
   -0.9185    1.5528    1.0642 C   0  0  0  0  0  0  0  0  0  0  0  0
   -3.0832   -1.1123    0.4460 N   0  0  0  0  0  0  0  0  0  0  0  0
   -3.8780   -1.9168    1.1921 C   0  0  0  0  0  0  0  0  0  0  0  0
   -5.9985    0.1268   -0.9450 C   0  0  0  0  0  0  0  0  0  0  0  0
   -4.9359    2.5939   -1.2596 H   0  0  0  0  0  0  0  0  0  0  0  0
   -6.4547    3.4876   -1.1857 H   0  0  0  0  0  0  0  0  0  0  0  0
   -6.0574    2.5568   -2.6470 H   0  0  0  0  0  0  0  0  0  0  0  0
   -8.5344    2.3597   -0.5722 H   0  0  0  0  0  0  0  0  0  0  0  0
   -9.6399    0.3689    0.3243 H   0  0  0  0  0  0  0  0  0  0  0  0
   -9.7243   -1.9038    0.7992 H   0  0  0  0  0  0  0  0  0  0  0  0
   -8.6607   -2.9744   -0.1031 H   0  0  0  0  0  0  0  0  0  0  0  0
   -8.2161   -2.4401    1.5466 H   0  0  0  0  0  0  0  0  0  0  0  0
   -5.0810   -2.3420   -1.2055 H   0  0  0  0  0  0  0  0  0  0  0  0
   -6.4459   -3.2001   -0.5216 H   0  0  0  0  0  0  0  0  0  0  0  0
   -0.8367   -0.8249    2.8240 H   0  0  0  0  0  0  0  0  0  0  0  0
   -1.4363    0.3697   -0.6309 H   0  0  0  0  0  0  0  0  0  0  0  0
    0.6383   -1.0367    1.1017 H   0  0  0  0  0  0  0  0  0  0  0  0
    0.2814   -1.2276   -0.6061 H   0  0  0  0  0  0  0  0  0  0  0  0
    1.1344    1.0684   -1.0606 H   0  0  0  0  0  0  0  0  0  0  0  0
    2.3556    0.0282   -0.2920 H   0  0  0  0  0  0  0  0  0  0  0  0
    3.4317    2.7245   -2.1323 H   0  0  0  0  0  0  0  0  0  0  0  0
    5.5847    1.8561   -2.9895 H   0  0  0  0  0  0  0  0  0  0  0  0
    7.2940   -1.3885   -1.4641 H   0  0  0  0  0  0  0  0  0  0  0  0
    9.9869   -0.6828   -0.3743 H   0  0  0  0  0  0  0  0  0  0  0  0
    8.5486   -3.4124   -0.2460 H   0  0  0  0  0  0  0  0  0  0  0  0
   10.2664   -3.0609    0.2399 H   0  0  0  0  0  0  0  0  0  0  0  0
    9.0869   -2.6811   -2.6055 H   0  0  0  0  0  0  0  0  0  0  0  0
   10.7927   -2.3151   -2.1048 H   0  0  0  0  0  0  0  0  0  0  0  0
    6.9055    1.1113    1.0588 H   0  0  0  0  0  0  0  0  0  0  0  0
    4.7376    1.9678    1.9220 H   0  0  0  0  0  0  0  0  0  0  0  0
    0.3887    2.7163    2.3087 H   0  0  0  0  0  0  0  0  0  0  0  0
    0.4321    1.0082    2.6723 H   0  0  0  0  0  0  0  0  0  0  0  0
   -1.7722    1.7255    1.7310 H   0  0  0  0  0  0  0  0  0  0  0  0
   -0.9669    2.3368    0.2958 H   0  0  0  0  0  0  0  0  0  0  0  0
   -4.9713    0.0757   -1.3062 H   0  0  0  0  0  0  0  0  0  0  0  0
  1  2  1  0
  2  3  2  0
  3  4  1  0
  4  5  2  0
  5  6  1  0
  5  7  1  0
  7  8  1  0
  8  9  1  0
  9 10  1  0
 10 11  2  0
 11 12  1  0
 12 13  1  0
 13 14  2  0
 13 15  1  0
 15 16  1  0
 16 17  1  0
 17 18  1  0
 18 19  1  0
 19 20  1  0
 20 21  1  0
 21 22  2  0
 21 23  2  0
 21 24  1  0
 24 25  2  0
 25 26  1  0
 26 27  2  0
 27 28  1  0
 28 29  2  0
 28 30  2  0
 28 31  1  0
 31 32  1  0
 32 33  1  0
 33 34  1  0
 27 35  1  0
 35 36  2  0
 20 37  1  0
 37 38  1  0
 16 39  2  0
 39 40  1  0
  7 41  2  0
 41  2  1  0
 40  9  1  0
 40 12  2  0
 38 17  1  0
 36 24  1  0
 34 32  1  0
  1 42  1  0
  1 43  1  0
  1 44  1  0
  3 45  1  0
  4 46  1  0
  6 47  1  0
  6 48  1  0
  6 49  1  0
  8 50  1  0
  8 51  1  0
 15 52  1  0
 17 53  1  0
 18 54  1  0
 18 55  1  0
 19 56  1  0
 19 57  1  0
 25 58  1  0
 26 59  1  0
 31 60  1  0
 32 61  1  0
 33 62  1  0
 33 63  1  0
 34 64  1  0
 34 65  1  0
 35 66  1  0
 36 67  1  0
 37 68  1  0
 37 69  1  0
 38 70  1  0
 38 71  1  0
 41 72  1  0
M  END
$$$$
