
     RDKit          3D

 60 63  0  0  0  0  0  0  0  0999 V2000
   -8.6425    1.8392   -1.9344 C   0  0  0  0  0  0  0  0  0  0  0  0
   -8.3562    1.2926   -0.6548 O   0  0  0  0  0  0  0  0  0  0  0  0
   -7.0671    0.8903   -0.4065 C   0  0  0  0  0  0  0  0  0  0  0  0
   -5.9811    1.1681   -1.2445 C   0  0  0  0  0  0  0  0  0  0  0  0
   -4.7003    0.7266   -0.9067 C   0  0  0  0  0  0  0  0  0  0  0  0
   -4.5088    0.0122    0.2758 C   0  0  0  0  0  0  0  0  0  0  0  0
   -2.8777   -0.5559    0.6821 S   0  0  0  0  0  6  0  0  0  0  0  0
   -2.2935   -1.0922   -0.5258 O   0  0  0  0  0  0  0  0  0  0  0  0
   -2.9576   -1.3447    1.8934 O   0  0  0  0  0  0  0  0  0  0  0  0
   -2.0749    0.8610    1.0696 N   0  0  0  0  0  0  0  0  0  0  0  0
   -2.5602    1.6717    2.1984 C   0  0  0  0  0  0  0  0  0  0  0  0
   -1.3170    1.9550    3.0095 C   0  0  0  0  0  0  0  0  0  0  0  0
   -0.2488    1.8929    2.0608 O   0  0  0  0  0  0  0  0  0  0  0  0
   -0.5952    0.8330    1.1401 C   0  0  0  0  0  0  0  0  0  0  0  0
    0.0301   -0.4938    1.6511 C   0  0  0  0  0  0  0  0  0  0  0  0
    1.4660   -0.4256    1.8637 N   0  0  0  0  0  0  0  0  0  0  0  0
    2.3591   -0.3237    0.8237 C   0  0  0  0  0  0  0  0  0  0  0  0
    2.0753   -0.2972   -0.3668 O   0  0  0  0  0  0  0  0  0  0  0  0
    3.8353   -0.2499    1.2774 C   0  0  0  0  0  0  0  0  0  0  0  0
    4.1096   -0.1646    2.4670 O   0  0  0  0  0  0  0  0  0  0  0  0
    4.7314   -0.3155    0.2410 N   0  0  0  0  0  0  0  0  0  0  0  0
    6.1456   -0.1542    0.4499 C   0  0  0  0  0  0  0  0  0  0  0  0
    6.9299   -0.7224   -0.7016 C   0  0  0  0  0  0  0  0  0  0  0  0
    7.2389   -2.1021   -0.7344 C   0  0  0  0  0  0  0  0  0  0  0  0
    7.9502   -2.6568   -1.8036 C   0  0  0  0  0  0  0  0  0  0  0  0
    8.3297   -1.8157   -2.8257 C   0  0  0  0  0  0  0  0  0  0  0  0
    8.0249   -0.4757   -2.8086 C   0  0  0  0  0  0  0  0  0  0  0  0
    7.3257    0.1005   -1.7683 C   0  0  0  0  0  0  0  0  0  0  0  0
    8.4851    0.1745   -3.9109 O   0  0  0  0  0  0  0  0  0  0  0  0
    9.1095   -0.9119   -4.6274 C   0  0  0  0  0  0  0  0  0  0  0  0
    9.0182   -2.1777   -3.9433 O   0  0  0  0  0  0  0  0  0  0  0  0
   -5.5831   -0.2820    1.1223 C   0  0  0  0  0  0  0  0  0  0  0  0
   -6.8659    0.1601    0.7869 C   0  0  0  0  0  0  0  0  0  0  0  0
   -7.9831   -0.0597    1.5565 O   0  0  0  0  0  0  0  0  0  0  0  0
   -7.8525   -0.9221    2.6799 C   0  0  0  0  0  0  0  0  0  0  0  0
   -8.1493    2.8058   -2.0693 H   0  0  0  0  0  0  0  0  0  0  0  0
   -8.3730    1.1436   -2.7331 H   0  0  0  0  0  0  0  0  0  0  0  0
   -9.7211    2.0081   -1.9940 H   0  0  0  0  0  0  0  0  0  0  0  0
   -6.0997    1.7286   -2.1660 H   0  0  0  0  0  0  0  0  0  0  0  0
   -3.8604    0.9386   -1.5653 H   0  0  0  0  0  0  0  0  0  0  0  0
   -3.3268    1.1868    2.8066 H   0  0  0  0  0  0  0  0  0  0  0  0
   -2.9791    2.5994    1.7915 H   0  0  0  0  0  0  0  0  0  0  0  0
   -1.3404    2.9372    3.4882 H   0  0  0  0  0  0  0  0  0  0  0  0
   -1.1547    1.1939    3.7812 H   0  0  0  0  0  0  0  0  0  0  0  0
   -0.1794    1.1054    0.1658 H   0  0  0  0  0  0  0  0  0  0  0  0
   -0.3974   -0.7741    2.6192 H   0  0  0  0  0  0  0  0  0  0  0  0
   -0.1516   -1.3079    0.9446 H   0  0  0  0  0  0  0  0  0  0  0  0
    1.8427   -0.3202    2.8020 H   0  0  0  0  0  0  0  0  0  0  0  0
    4.3468   -0.2935   -0.6992 H   0  0  0  0  0  0  0  0  0  0  0  0
    6.4397   -0.6353    1.3897 H   0  0  0  0  0  0  0  0  0  0  0  0
    6.3495    0.9161    0.5659 H   0  0  0  0  0  0  0  0  0  0  0  0
    6.9160   -2.7482    0.0791 H   0  0  0  0  0  0  0  0  0  0  0  0
    8.1904   -3.7129   -1.8312 H   0  0  0  0  0  0  0  0  0  0  0  0
    7.0940    1.1598   -1.7866 H   0  0  0  0  0  0  0  0  0  0  0  0
   10.1673   -0.6715   -4.7776 H   0  0  0  0  0  0  0  0  0  0  0  0
    8.6299   -1.0063   -5.6092 H   0  0  0  0  0  0  0  0  0  0  0  0
   -5.3996   -0.8463    2.0320 H   0  0  0  0  0  0  0  0  0  0  0  0
   -8.8479   -1.0646    3.1077 H   0  0  0  0  0  0  0  0  0  0  0  0
   -7.2204   -0.4690    3.4480 H   0  0  0  0  0  0  0  0  0  0  0  0
   -7.4742   -1.9078    2.3878 H   0  0  0  0  0  0  0  0  0  0  0  0
  1  2  1  0
  2  3  1  0
  3  4  2  0
  4  5  1  0
  5  6  2  0
  6  7  1  0
  7  8  2  0
  7  9  2  0
  7 10  1  0
 10 11  1  0
 11 12  1  0
 12 13  1  0
 13 14  1  0
 14 15  1  0
 15 16  1  0
 16 17  1  0
 17 18  2  0
 17 19  1  0
 19 20  2  0
 19 21  1  0
 21 22  1  0
 22 23  1  0
 23 24  2  0
 24 25  1  0
 25 26  2  0
 26 27  1  0
 27 28  2  0
 27 29  1  0
 29 30  1  0
 30 31  1  0
  6 32  1  0
 32 33  2  0
 33 34  1  0
 34 35  1  0
 33  3  1  0
 14 10  1  0
 28 23  1  0
 31 26  1  0
  1 36  1  0
  1 37  1  0
  1 38  1  0
  4 39  1  0
  5 40  1  0
 11 41  1  0
 11 42  1  0
 12 43  1  0
 12 44  1  0
 14 45  1  0
 15 46  1  0
 15 47  1  0
 16 48  1  0
 21 49  1  0
 22 50  1  0
 22 51  1  0
 24 52  1  0
 25 53  1  0
 28 54  1  0
 30 55  1  0
 30 56  1  0
 32 57  1  0
 35 58  1  0
 35 59  1  0
 35 60  1  0
M  END
$$$$
