
     RDKit          3D

 48 50  0  0  0  0  0  0  0  0999 V2000
    9.0507    0.3558    1.6012 C   0  0  0  0  0  0  0  0  0  0  0  0
    7.7701    0.6706    0.9184 C   0  0  0  0  0  0  0  0  0  0  0  0
    7.4422    1.8495    0.2750 C   0  0  0  0  0  0  0  0  0  0  0  0
    5.8537    1.7415   -0.3649 S   0  0  0  0  0  0  0  0  0  0  0  0
    5.7229    0.1611    0.2487 C   0  0  0  0  0  0  0  0  0  0  0  0
    4.6040   -0.6176    0.1032 N   0  0  0  0  0  0  0  0  0  0  0  0
    3.4650   -0.3172   -0.6086 C   0  0  0  0  0  0  0  0  0  0  0  0
    3.2557    0.6819   -1.2911 O   0  0  0  0  0  0  0  0  0  0  0  0
    2.4420   -1.4397   -0.5634 C   0  0  0  0  0  0  0  0  0  0  0  0
    1.0361   -0.8971   -0.3405 C   0  0  0  0  0  0  0  0  0  0  0  0
    0.7013   -0.9593    1.0874 N   0  0  0  0  0  0  0  0  0  0  0  0
   -0.0832    0.3184    1.8349 S   0  0  0  0  0  6  0  0  0  0  0  0
   -0.4796   -0.1502    3.1427 O   0  0  0  0  0  0  0  0  0  0  0  0
    0.7243    1.5004    1.6564 O   0  0  0  0  0  0  0  0  0  0  0  0
   -1.5556    0.4951    0.8612 C   0  0  0  0  0  0  0  0  0  0  0  0
   -1.7256    1.6124    0.0427 C   0  0  0  0  0  0  0  0  0  0  0  0
   -2.8949    1.7428   -0.7180 C   0  0  0  0  0  0  0  0  0  0  0  0
   -3.9044    0.7648   -0.6678 C   0  0  0  0  0  0  0  0  0  0  0  0
   -3.7115   -0.3408    0.1635 C   0  0  0  0  0  0  0  0  0  0  0  0
   -2.5473   -0.4819    0.9358 C   0  0  0  0  0  0  0  0  0  0  0  0
   -4.7454   -1.3852    0.2193 C   0  0  0  0  0  0  0  0  0  0  0  0
   -4.5159   -2.4200    0.8417 O   0  0  0  0  0  0  0  0  0  0  0  0
   -5.9218   -1.1368   -0.4710 N   0  0  0  0  0  0  0  0  0  0  0  0
   -6.9647   -2.1448   -0.3900 C   0  0  0  0  0  0  0  0  0  0  0  0
   -6.1139   -0.0852   -1.3641 C   0  0  0  0  0  0  0  0  0  0  0  0
   -7.1318   -0.0064   -2.0645 O   0  0  0  0  0  0  0  0  0  0  0  0
   -5.0964    0.8648   -1.4374 N   0  0  0  0  0  0  0  0  0  0  0  0
   -5.2753    1.9890   -2.3501 C   0  0  0  0  0  0  0  0  0  0  0  0
    6.7714   -0.2931    0.8987 N   0  0  0  0  0  0  0  0  0  0  0  0
    8.8613   -0.0795    2.5871 H   0  0  0  0  0  0  0  0  0  0  0  0
    9.6597    1.2544    1.7380 H   0  0  0  0  0  0  0  0  0  0  0  0
    9.6252   -0.3638    1.0098 H   0  0  0  0  0  0  0  0  0  0  0  0
    8.0388    2.7435    0.1527 H   0  0  0  0  0  0  0  0  0  0  0  0
    4.6935   -1.5076    0.5813 H   0  0  0  0  0  0  0  0  0  0  0  0
    2.7004   -2.1964    0.1852 H   0  0  0  0  0  0  0  0  0  0  0  0
    2.4939   -1.9258   -1.5468 H   0  0  0  0  0  0  0  0  0  0  0  0
    0.3177   -1.5351   -0.8674 H   0  0  0  0  0  0  0  0  0  0  0  0
    0.9233    0.1170   -0.7327 H   0  0  0  0  0  0  0  0  0  0  0  0
    0.5350   -1.8652    1.5276 H   0  0  0  0  0  0  0  0  0  0  0  0
   -0.9592    2.3852   -0.0125 H   0  0  0  0  0  0  0  0  0  0  0  0
   -2.9872    2.6307   -1.3425 H   0  0  0  0  0  0  0  0  0  0  0  0
   -2.4229   -1.3432    1.5897 H   0  0  0  0  0  0  0  0  0  0  0  0
   -7.9527   -1.7009   -0.5402 H   0  0  0  0  0  0  0  0  0  0  0  0
   -6.9506   -2.6439    0.5854 H   0  0  0  0  0  0  0  0  0  0  0  0
   -6.7858   -2.8902   -1.1718 H   0  0  0  0  0  0  0  0  0  0  0  0
   -5.2618    2.9255   -1.7818 H   0  0  0  0  0  0  0  0  0  0  0  0
   -4.4733    1.9819   -3.0958 H   0  0  0  0  0  0  0  0  0  0  0  0
   -6.2274    1.9405   -2.8870 H   0  0  0  0  0  0  0  0  0  0  0  0
  1  2  1  0
  2  3  2  0
  3  4  1  0
  4  5  1  0
  5  6  1  0
  6  7  1  0
  7  8  2  0
  7  9  1  0
  9 10  1  0
 10 11  1  0
 11 12  1  0
 12 13  2  0
 12 14  2  0
 12 15  1  0
 15 16  2  0
 16 17  1  0
 17 18  2  0
 18 19  1  0
 19 20  2  0
 19 21  1  0
 21 22  2  0
 21 23  1  0
 23 24  1  0
 23 25  1  0
 25 26  2  0
 25 27  1  0
 27 28  1  0
  5 29  2  0
 29  2  1  0
 20 15  1  0
 27 18  1  0
  1 30  1  0
  1 31  1  0
  1 32  1  0
  3 33  1  0
  6 34  1  0
  9 35  1  0
  9 36  1  0
 10 37  1  0
 10 38  1  0
 11 39  1  0
 16 40  1  0
 17 41  1  0
 20 42  1  0
 24 43  1  0
 24 44  1  0
 24 45  1  0
 28 46  1  0
 28 47  1  0
 28 48  1  0
M  END
$$$$
