
     RDKit          3D

 39 40  0  0  0  0  0  0  0  0999 V2000
   -1.2948    1.3666    2.2082 O   0  0  0  0  0  0  0  0  0  0  0  0
   -1.1927    0.7673    1.1449 C   0  0  0  0  0  0  0  0  0  0  0  0
    0.1095    0.7331    0.3585 C   0  0  0  0  0  0  0  0  0  0  0  0
    1.2535    1.4248    1.1004 C   0  0  0  0  0  0  0  0  0  0  0  0
    2.5339    1.4661    0.2708 C   0  0  0  0  0  0  0  0  0  0  0  0
    2.9309    0.1287   -0.0282 O   0  0  0  0  0  0  0  0  0  0  0  0
    4.0569   -0.0321   -0.7874 C   0  0  0  0  0  0  0  0  0  0  0  0
    4.8712    0.9898   -1.2775 C   0  0  0  0  0  0  0  0  0  0  0  0
    5.9982    0.6818   -2.0464 C   0  0  0  0  0  0  0  0  0  0  0  0
    6.3160   -0.6460   -2.3274 C   0  0  0  0  0  0  0  0  0  0  0  0
    5.5078   -1.6694   -1.8392 C   0  0  0  0  0  0  0  0  0  0  0  0
    4.3833   -1.3609   -1.0720 C   0  0  0  0  0  0  0  0  0  0  0  0
   -2.1931    0.0631    0.4893 N   0  0  0  0  0  0  0  0  0  0  0  0
   -3.5371   -0.1353    0.8921 C   0  0  0  0  0  0  0  0  0  0  0  0
   -4.0371    0.3969    2.0889 C   0  0  0  0  0  0  0  0  0  0  0  0
   -5.3650    0.1945    2.4776 C   0  0  0  0  0  0  0  0  0  0  0  0
   -6.2221   -0.5455    1.6762 C   0  0  0  0  0  0  0  0  0  0  0  0
   -5.7478   -1.0831    0.4841 C   0  0  0  0  0  0  0  0  0  0  0  0
   -4.4090   -0.8887    0.0762 C   0  0  0  0  0  0  0  0  0  0  0  0
   -4.0026   -1.5135   -1.2344 C   0  0  0  0  0  0  0  0  0  0  0  0
   -4.7291   -1.0414   -2.2859 F   0  0  0  0  0  0  0  0  0  0  0  0
   -2.6953   -1.3059   -1.5731 F   0  0  0  0  0  0  0  0  0  0  0  0
   -4.1702   -2.8655   -1.2444 F   0  0  0  0  0  0  0  0  0  0  0  0
    0.3653   -0.3152    0.1649 H   0  0  0  0  0  0  0  0  0  0  0  0
   -0.0635    1.2294   -0.6039 H   0  0  0  0  0  0  0  0  0  0  0  0
    1.4437    0.8852    2.0367 H   0  0  0  0  0  0  0  0  0  0  0  0
    0.9671    2.4488    1.3681 H   0  0  0  0  0  0  0  0  0  0  0  0
    3.3150    1.9672    0.8547 H   0  0  0  0  0  0  0  0  0  0  0  0
    2.3482    2.0240   -0.6551 H   0  0  0  0  0  0  0  0  0  0  0  0
    4.6611    2.0352   -1.0793 H   0  0  0  0  0  0  0  0  0  0  0  0
    6.6300    1.4813   -2.4253 H   0  0  0  0  0  0  0  0  0  0  0  0
    7.1930   -0.8821   -2.9244 H   0  0  0  0  0  0  0  0  0  0  0  0
    5.7511   -2.7067   -2.0529 H   0  0  0  0  0  0  0  0  0  0  0  0
    3.7559   -2.1629   -0.6910 H   0  0  0  0  0  0  0  0  0  0  0  0
   -1.9132   -0.3670   -0.3890 H   0  0  0  0  0  0  0  0  0  0  0  0
   -3.4148    0.9834    2.7582 H   0  0  0  0  0  0  0  0  0  0  0  0
   -5.7220    0.6204    3.4125 H   0  0  0  0  0  0  0  0  0  0  0  0
   -7.2544   -0.7029    1.9785 H   0  0  0  0  0  0  0  0  0  0  0  0
   -6.4279   -1.6632   -0.1399 H   0  0  0  0  0  0  0  0  0  0  0  0
  1  2  2  0
  2  3  1  0
  3  4  1  0
  4  5  1  0
  5  6  1  0
  6  7  1  0
  7  8  2  0
  8  9  1  0
  9 10  2  0
 10 11  1  0
 11 12  2  0
  2 13  1  0
 13 14  1  0
 14 15  2  0
 15 16  1  0
 16 17  2  0
 17 18  1  0
 18 19  2  0
 19 20  1  0
 20 21  1  0
 20 22  1  0
 20 23  1  0
 12  7  1  0
 19 14  1  0
  3 24  1  0
  3 25  1  0
  4 26  1  0
  4 27  1  0
  5 28  1  0
  5 29  1  0
  8 30  1  0
  9 31  1  0
 10 32  1  0
 11 33  1  0
 12 34  1  0
 13 35  1  0
 15 36  1  0
 16 37  1  0
 17 38  1  0
 18 39  1  0
M  END
$$$$
