
     RDKit          3D

 56 60  0  0  0  0  0  0  0  0999 V2000
   -4.5471    0.7440   -0.7333 C   0  0  0  0  0  0  0  0  0  0  0  0
   -3.8549   -0.5358   -1.1210 C   0  0  0  0  0  0  0  0  0  0  0  0
   -4.5356   -1.4244   -1.9671 C   0  0  0  0  0  0  0  0  0  0  0  0
   -3.9656   -2.6422   -2.3284 C   0  0  0  0  0  0  0  0  0  0  0  0
   -2.7050   -2.9911   -1.8509 C   0  0  0  0  0  0  0  0  0  0  0  0
   -1.9793   -2.1138   -1.0306 C   0  0  0  0  0  0  0  0  0  0  0  0
   -0.6414   -2.5726   -0.5156 C   0  0  0  0  0  0  0  0  0  0  0  0
   -2.5537   -0.8698   -0.6781 C   0  0  0  0  0  0  0  0  0  0  0  0
   -1.8252    0.0418    0.1447 N   0  0  0  0  0  0  0  0  0  0  0  0
   -1.2189    1.1868   -0.3664 C   0  0  0  0  0  0  0  0  0  0  0  0
   -1.2772    1.5087   -2.0950 S   0  0  0  0  0  0  0  0  0  0  0  0
    0.3550    0.8477   -2.5407 C   0  0  0  0  0  0  0  0  0  0  0  0
    1.4655    1.7909   -2.0890 C   0  0  0  0  0  0  0  0  0  0  0  0
    1.5220    2.9419   -2.5352 O   0  0  0  0  0  0  0  0  0  0  0  0
    2.3480    1.3570   -1.1042 N   0  0  0  0  0  0  0  0  0  0  0  0
    2.9710    2.4037   -0.2911 C   0  0  0  0  0  0  0  0  0  0  0  0
    3.3208    1.9975    1.1341 C   0  0  0  0  0  0  0  0  0  0  0  0
    3.5739    2.8167    2.0171 O   0  0  0  0  0  0  0  0  0  0  0  0
    3.4783    0.6592    1.3709 N   0  0  0  0  0  0  0  0  0  0  0  0
    3.3240   -0.3128    0.3786 C   0  0  0  0  0  0  0  0  0  0  0  0
    3.7056   -1.6251    0.6690 C   0  0  0  0  0  0  0  0  0  0  0  0
    3.6211   -2.6059   -0.3168 C   0  0  0  0  0  0  0  0  0  0  0  0
    3.1714   -2.2708   -1.5911 C   0  0  0  0  0  0  0  0  0  0  0  0
    2.7692   -0.9617   -1.8737 C   0  0  0  0  0  0  0  0  0  0  0  0
    2.7971    0.0249   -0.8804 C   0  0  0  0  0  0  0  0  0  0  0  0
   -0.5709    2.0472    0.3488 N   0  0  0  0  0  0  0  0  0  0  0  0
   -0.4733    1.8303    1.7254 C   0  0  0  0  0  0  0  0  0  0  0  0
    0.1988    2.7707    2.5085 C   0  0  0  0  0  0  0  0  0  0  0  0
    0.3462    2.5789    3.8847 C   0  0  0  0  0  0  0  0  0  0  0  0
   -0.1885    1.4449    4.4931 C   0  0  0  0  0  0  0  0  0  0  0  0
   -0.8708    0.5041    3.7237 C   0  0  0  0  0  0  0  0  0  0  0  0
   -1.0081    0.7041    2.3438 C   0  0  0  0  0  0  0  0  0  0  0  0
   -1.7299   -0.2681    1.5037 C   0  0  0  0  0  0  0  0  0  0  0  0
   -2.1970   -1.2711    2.0415 O   0  0  0  0  0  0  0  0  0  0  0  0
   -4.3458    1.5254   -1.4714 H   0  0  0  0  0  0  0  0  0  0  0  0
   -5.6312    0.5938   -0.6782 H   0  0  0  0  0  0  0  0  0  0  0  0
   -4.2336    1.0921    0.2554 H   0  0  0  0  0  0  0  0  0  0  0  0
   -5.5290   -1.1768   -2.3365 H   0  0  0  0  0  0  0  0  0  0  0  0
   -4.5134   -3.3285   -2.9693 H   0  0  0  0  0  0  0  0  0  0  0  0
   -2.2896   -3.9600   -2.1210 H   0  0  0  0  0  0  0  0  0  0  0  0
   -0.7727   -3.1426    0.4094 H   0  0  0  0  0  0  0  0  0  0  0  0
   -0.1421   -3.2118   -1.2519 H   0  0  0  0  0  0  0  0  0  0  0  0
    0.0329   -1.7349   -0.3210 H   0  0  0  0  0  0  0  0  0  0  0  0
    0.4193   -0.1448   -2.1025 H   0  0  0  0  0  0  0  0  0  0  0  0
    0.4192    0.7439   -3.6282 H   0  0  0  0  0  0  0  0  0  0  0  0
    2.2964    3.2654   -0.2271 H   0  0  0  0  0  0  0  0  0  0  0  0
    3.8902    2.7185   -0.7987 H   0  0  0  0  0  0  0  0  0  0  0  0
    3.8043    0.4103    2.2954 H   0  0  0  0  0  0  0  0  0  0  0  0
    4.0890   -1.8909    1.6506 H   0  0  0  0  0  0  0  0  0  0  0  0
    3.9305   -3.6256   -0.0986 H   0  0  0  0  0  0  0  0  0  0  0  0
    3.1414   -3.0281   -2.3716 H   0  0  0  0  0  0  0  0  0  0  0  0
    2.4729   -0.7331   -2.8935 H   0  0  0  0  0  0  0  0  0  0  0  0
    0.6226    3.6575    2.0420 H   0  0  0  0  0  0  0  0  0  0  0  0
    0.8842    3.3164    4.4763 H   0  0  0  0  0  0  0  0  0  0  0  0
   -0.0761    1.2968    5.5644 H   0  0  0  0  0  0  0  0  0  0  0  0
   -1.2951   -0.3787    4.1972 H   0  0  0  0  0  0  0  0  0  0  0  0
  1  2  1  0
  2  3  2  0
  3  4  1  0
  4  5  2  0
  5  6  1  0
  6  7  1  0
  6  8  2  0
  8  9  1  0
  9 10  1  0
 10 11  1  0
 11 12  1  0
 12 13  1  0
 13 14  2  0
 13 15  1  0
 15 16  1  0
 16 17  1  0
 17 18  2  0
 17 19  1  0
 19 20  1  0
 20 21  2  0
 21 22  1  0
 22 23  2  0
 23 24  1  0
 24 25  2  0
 10 26  2  0
 26 27  1  0
 27 28  2  0
 28 29  1  0
 29 30  2  0
 30 31  1  0
 31 32  2  0
 32 33  1  0
 33 34  2  0
  8  2  1  0
 33  9  1  0
 25 15  1  0
 32 27  1  0
 25 20  1  0
  1 35  1  0
  1 36  1  0
  1 37  1  0
  3 38  1  0
  4 39  1  0
  5 40  1  0
  7 41  1  0
  7 42  1  0
  7 43  1  0
 12 44  1  0
 12 45  1  0
 16 46  1  0
 16 47  1  0
 19 48  1  0
 21 49  1  0
 22 50  1  0
 23 51  1  0
 24 52  1  0
 28 53  1  0
 29 54  1  0
 30 55  1  0
 31 56  1  0
M  END
$$$$
