
     RDKit          3D

 26 27  0  0  0  0  0  0  0  0999 V2000
    1.0170    2.5895   -0.6233 O   0  0  0  0  0  0  0  0  0  0  0  0
    1.4425    1.4640   -0.3785 C   0  0  0  0  0  0  0  0  0  0  0  0
    2.7881    1.0132   -0.9131 C   0  0  0  0  0  0  0  0  0  0  0  0
    3.0923   -0.4364   -0.5512 C   0  0  0  0  0  0  0  0  0  0  0  0
    2.9663   -0.6575    0.9521 C   0  0  0  0  0  0  0  0  0  0  0  0
    1.6221   -0.2009    1.4845 C   0  0  0  0  0  0  0  0  0  0  0  0
    1.3341   -0.3480    2.6693 O   0  0  0  0  0  0  0  0  0  0  0  0
    0.7233    0.5043    0.5173 C   0  0  0  0  0  0  0  0  0  0  0  0
   -0.5854    0.1915    0.3668 C   0  0  0  0  0  0  0  0  0  0  0  0
   -1.3412   -1.0658    1.3456 S   0  0  0  0  0  0  0  0  0  0  0  0
   -3.0038   -0.3629    1.5134 C   0  0  0  0  0  0  0  0  0  0  0  0
   -3.7738   -0.3683    0.1958 C   0  0  0  0  0  0  0  0  0  0  0  0
   -2.9339   -0.2242   -1.0701 C   0  0  0  0  0  0  0  0  0  0  0  0
   -1.5675    0.9510   -0.8878 S   0  0  0  0  0  0  0  0  0  0  0  0
    2.7823    1.1259   -2.0022 H   0  0  0  0  0  0  0  0  0  0  0  0
    3.5556    1.6732   -0.4936 H   0  0  0  0  0  0  0  0  0  0  0  0
    4.1037   -0.6976   -0.8818 H   0  0  0  0  0  0  0  0  0  0  0  0
    2.3992   -1.1022   -1.0814 H   0  0  0  0  0  0  0  0  0  0  0  0
    3.0837   -1.7226    1.1776 H   0  0  0  0  0  0  0  0  0  0  0  0
    3.7458   -0.0966    1.4798 H   0  0  0  0  0  0  0  0  0  0  0  0
   -2.9197    0.6579    1.9042 H   0  0  0  0  0  0  0  0  0  0  0  0
   -3.5559   -0.9380    2.2643 H   0  0  0  0  0  0  0  0  0  0  0  0
   -4.3490   -1.3001    0.1166 H   0  0  0  0  0  0  0  0  0  0  0  0
   -4.5243    0.4321    0.2325 H   0  0  0  0  0  0  0  0  0  0  0  0
   -2.5282   -1.1953   -1.3771 H   0  0  0  0  0  0  0  0  0  0  0  0
   -3.5734    0.1137   -1.8928 H   0  0  0  0  0  0  0  0  0  0  0  0
  1  2  2  0
  2  3  1  0
  3  4  1  0
  4  5  1  0
  5  6  1  0
  6  7  2  0
  6  8  1  0
  8  9  2  3
  9 10  1  0
 10 11  1  0
 11 12  1  0
 12 13  1  0
 13 14  1  0
  8  2  1  0
 14  9  1  0
  3 15  1  0
  3 16  1  0
  4 17  1  0
  4 18  1  0
  5 19  1  0
  5 20  1  0
 11 21  1  0
 11 22  1  0
 12 23  1  0
 12 24  1  0
 13 25  1  0
 13 26  1  0
M  END
$$$$
