
     RDKit          3D

 43 46  0  0  0  0  0  0  0  0999 V2000
   -7.7826    0.3789    0.9597 C   0  0  0  0  0  0  0  0  0  0  0  0
   -6.7024    1.2413    0.6263 O   0  0  0  0  0  0  0  0  0  0  0  0
   -5.5425    0.6480    0.2113 C   0  0  0  0  0  0  0  0  0  0  0  0
   -4.5102    1.5366   -0.0971 C   0  0  0  0  0  0  0  0  0  0  0  0
   -3.2695    1.0643   -0.5342 C   0  0  0  0  0  0  0  0  0  0  0  0
   -3.0480   -0.3088   -0.6802 C   0  0  0  0  0  0  0  0  0  0  0  0
   -1.7468   -0.7798   -1.1312 C   0  0  0  0  0  0  0  0  0  0  0  0
   -0.5894   -0.2710   -0.5605 N   0  0  0  0  0  0  0  0  0  0  0  0
    0.4616   -0.8374   -1.1014 C   0  0  0  0  0  0  0  0  0  0  0  0
    1.7229   -0.5143   -0.6909 N   0  0  0  0  0  0  0  0  0  0  0  0
    2.9216   -1.0138   -1.1499 C   0  0  0  0  0  0  0  0  0  0  0  0
    3.0779   -1.8542   -2.0280 O   0  0  0  0  0  0  0  0  0  0  0  0
    4.0660   -0.3981   -0.4343 C   0  0  0  0  0  0  0  0  0  0  0  0
    5.3795   -0.7101   -0.6872 N   0  0  0  0  0  0  0  0  0  0  0  0
    6.0594    0.0421    0.1460 C   0  0  0  0  0  0  0  0  0  0  0  0
    7.4109    0.1324    0.3200 N   0  0  0  0  0  0  0  0  0  0  0  0
    7.8101    0.9690    1.2262 C   0  0  0  0  0  0  0  0  0  0  0  0
    6.9426    1.8261    2.0804 C   0  0  0  0  0  0  0  0  0  0  0  0
    5.6180    1.7079    1.8785 C   0  0  0  0  0  0  0  0  0  0  0  0
    4.6019    2.4925    2.6476 C   0  0  0  0  0  0  0  0  0  0  0  0
    5.1645    0.8089    0.9032 N   0  0  0  0  0  0  0  0  0  0  0  0
    3.8904    0.5269    0.5312 N   0  0  0  0  0  0  0  0  0  0  0  0
    0.1440   -1.9741   -2.3233 S   0  0  0  0  0  0  0  0  0  0  0  0
   -1.5436   -1.7018   -2.1461 C   0  0  0  0  0  0  0  0  0  0  0  0
   -2.5071   -2.4157   -3.0280 C   0  0  0  0  0  0  0  0  0  0  0  0
   -4.0785   -1.1992   -0.3554 C   0  0  0  0  0  0  0  0  0  0  0  0
   -5.3210   -0.7235    0.0840 C   0  0  0  0  0  0  0  0  0  0  0  0
   -8.1021   -0.2076    0.0919 H   0  0  0  0  0  0  0  0  0  0  0  0
   -8.6265    1.0038    1.2678 H   0  0  0  0  0  0  0  0  0  0  0  0
   -7.5239   -0.2701    1.8029 H   0  0  0  0  0  0  0  0  0  0  0  0
   -4.6706    2.6069    0.0073 H   0  0  0  0  0  0  0  0  0  0  0  0
   -2.4766    1.7737   -0.7609 H   0  0  0  0  0  0  0  0  0  0  0  0
    1.7678    0.1790    0.0472 H   0  0  0  0  0  0  0  0  0  0  0  0
    8.8931    1.0791    1.4054 H   0  0  0  0  0  0  0  0  0  0  0  0
    7.4032    2.4855    2.8032 H   0  0  0  0  0  0  0  0  0  0  0  0
    5.0730    3.1588    3.3784 H   0  0  0  0  0  0  0  0  0  0  0  0
    3.9309    1.8226    3.1957 H   0  0  0  0  0  0  0  0  0  0  0  0
    4.0021    3.1129    1.9734 H   0  0  0  0  0  0  0  0  0  0  0  0
   -3.3646   -1.7789   -3.2683 H   0  0  0  0  0  0  0  0  0  0  0  0
   -2.8755   -3.3204   -2.5340 H   0  0  0  0  0  0  0  0  0  0  0  0
   -2.0490   -2.7106   -3.9781 H   0  0  0  0  0  0  0  0  0  0  0  0
   -3.9225   -2.2731   -0.4229 H   0  0  0  0  0  0  0  0  0  0  0  0
   -6.0884   -1.4514    0.3245 H   0  0  0  0  0  0  0  0  0  0  0  0
  1  2  1  0
  2  3  1  0
  3  4  2  0
  4  5  1  0
  5  6  2  0
  6  7  1  0
  7  8  1  0
  8  9  2  0
  9 10  1  0
 10 11  1  0
 11 12  2  0
 11 13  1  0
 13 14  1  0
 14 15  2  0
 15 16  1  0
 16 17  2  0
 17 18  1  0
 18 19  2  0
 19 20  1  0
 19 21  1  0
 21 22  1  0
  9 23  1  0
 23 24  1  0
 24 25  1  0
  6 26  1  0
 26 27  2  0
 27  3  1  0
 24  7  2  0
 22 13  2  0
 21 15  1  0
  1 28  1  0
  1 29  1  0
  1 30  1  0
  4 31  1  0
  5 32  1  0
 10 33  1  0
 17 34  1  0
 18 35  1  0
 20 36  1  0
 20 37  1  0
 20 38  1  0
 25 39  1  0
 25 40  1  0
 25 41  1  0
 26 42  1  0
 27 43  1  0
M  END
$$$$
