
     RDKit          3D

 43 46  0  0  0  0  0  0  0  0999 V2000
    6.4602    1.6267    1.3546 C   0  0  0  0  0  0  0  0  0  0  0  0
    5.0607    1.3165    0.9087 C   0  0  0  0  0  0  0  0  0  0  0  0
    4.0985    2.3278    0.8375 C   0  0  0  0  0  0  0  0  0  0  0  0
    2.7868    2.0345    0.4524 C   0  0  0  0  0  0  0  0  0  0  0  0
    2.4206    0.7202    0.1402 C   0  0  0  0  0  0  0  0  0  0  0  0
    0.9446    0.4005   -0.2913 C   0  0  0  0  0  0  0  0  0  0  0  0
   -0.1133    1.3011   -0.3425 C   0  0  0  0  0  0  0  0  0  0  0  0
   -1.2699    0.6246   -0.7354 N   0  0  0  0  0  4  0  0  0  0  0  0
   -2.5991    1.2005   -0.9178 C   0  0  0  0  0  0  0  0  0  0  0  0
   -3.5608    0.5467    0.0426 C   0  0  0  0  0  0  0  0  0  0  0  0
   -3.3678    0.6391    1.4290 C   0  0  0  0  0  0  0  0  0  0  0  0
   -4.2587    0.0237    2.3135 C   0  0  0  0  0  0  0  0  0  0  0  0
   -5.3566   -0.6915    1.8280 C   0  0  0  0  0  0  0  0  0  0  0  0
   -6.4048   -1.4372    2.9776 Cl  0  0  0  0  0  0  0  0  0  0  0  0
   -5.5650   -0.7839    0.4495 C   0  0  0  0  0  0  0  0  0  0  0  0
   -6.8888   -1.6556   -0.2344 Cl  0  0  0  0  0  0  0  0  0  0  0  0
   -4.6736   -0.1635   -0.4364 C   0  0  0  0  0  0  0  0  0  0  0  0
   -0.9311   -0.6439   -0.9443 C   0  0  0  0  0  0  0  0  0  0  0  0
    0.3682   -0.7881   -0.7018 N   0  0  0  0  0  0  0  0  0  0  0  0
    0.8166   -2.1537   -0.9370 C   0  0  0  0  0  0  0  0  0  0  0  0
   -0.3770   -2.8018   -1.6914 C   0  0  0  0  0  0  0  0  0  0  0  0
   -1.5869   -1.9002   -1.3762 C   0  0  0  0  0  0  0  0  0  0  0  0
    3.3734   -0.2949    0.2293 C   0  0  0  0  0  0  0  0  0  0  0  0
    4.6845    0.0023    0.6156 C   0  0  0  0  0  0  0  0  0  0  0  0
    7.1777    0.9385    0.8953 H   0  0  0  0  0  0  0  0  0  0  0  0
    6.5335    1.5407    2.4430 H   0  0  0  0  0  0  0  0  0  0  0  0
    6.7484    2.6409    1.0588 H   0  0  0  0  0  0  0  0  0  0  0  0
    4.3687    3.3544    1.0813 H   0  0  0  0  0  0  0  0  0  0  0  0
    2.0818    2.8589    0.4048 H   0  0  0  0  0  0  0  0  0  0  0  0
   -0.1945    2.3537   -0.1300 H   0  0  0  0  0  0  0  0  0  0  0  0
   -2.5687    2.2808   -0.7390 H   0  0  0  0  0  0  0  0  0  0  0  0
   -2.8943    1.0394   -1.9606 H   0  0  0  0  0  0  0  0  0  0  0  0
   -2.5234    1.1919    1.8381 H   0  0  0  0  0  0  0  0  0  0  0  0
   -4.0937    0.1065    3.3867 H   0  0  0  0  0  0  0  0  0  0  0  0
   -4.8594   -0.2400   -1.5073 H   0  0  0  0  0  0  0  0  0  0  0  0
    1.7216   -2.1704   -1.5484 H   0  0  0  0  0  0  0  0  0  0  0  0
    0.9855   -2.6404    0.0279 H   0  0  0  0  0  0  0  0  0  0  0  0
   -0.5387   -3.8463   -1.4121 H   0  0  0  0  0  0  0  0  0  0  0  0
   -0.1766   -2.7683   -2.7689 H   0  0  0  0  0  0  0  0  0  0  0  0
   -2.1646   -2.2631   -0.5236 H   0  0  0  0  0  0  0  0  0  0  0  0
   -2.2152   -1.6957   -2.2437 H   0  0  0  0  0  0  0  0  0  0  0  0
    3.1354   -1.3301    0.0238 H   0  0  0  0  0  0  0  0  0  0  0  0
    5.4156   -0.8016    0.6896 H   0  0  0  0  0  0  0  0  0  0  0  0
  1  2  1  0
  2  3  2  0
  3  4  1  0
  4  5  2  0
  5  6  1  0
  6  7  2  0
  7  8  1  0
  8  9  1  0
  9 10  1  0
 10 11  2  0
 11 12  1  0
 12 13  2  0
 13 14  1  0
 13 15  1  0
 15 16  1  0
 15 17  2  0
  8 18  2  0
 18 19  1  0
 19 20  1  0
 20 21  1  0
 21 22  1  0
  5 23  1  0
 23 24  2  0
 24  2  1  0
 19  6  1  0
 17 10  1  0
 22 18  1  0
  1 25  1  0
  1 26  1  0
  1 27  1  0
  3 28  1  0
  4 29  1  0
  7 30  1  0
  9 31  1  0
  9 32  1  0
 11 33  1  0
 12 34  1  0
 17 35  1  0
 20 36  1  0
 20 37  1  0
 21 38  1  0
 21 39  1  0
 22 40  1  0
 22 41  1  0
 23 42  1  0
 24 43  1  0
M  CHG  1   8   1
M  END
$$$$
