
     RDKit          3D

 27 27  0  0  0  0  0  0  0  0999 V2000
   -0.7921    1.2202   -1.2487 C   0  0  0  0  0  0  0  0  0  0  0  0
   -1.4281    0.2183   -0.2819 C   0  0  0  0  0  0  0  0  0  0  0  0
   -2.7282   -0.3186   -0.9087 C   0  0  0  0  0  0  0  0  0  0  0  0
   -1.7747    0.9299    1.0341 C   0  0  0  0  0  0  0  0  0  0  0  0
   -0.3363   -1.2081    0.0194 S   0  0  0  0  0  6  0  0  0  0  0  0
    0.0758   -1.8106   -1.2312 O   0  0  0  0  0  0  0  0  0  0  0  0
   -0.9145   -2.0242    1.0710 O   0  0  0  0  0  0  0  0  0  0  0  0
    1.1291   -0.6106    0.7489 C   0  0  0  0  0  0  0  0  0  0  0  0
    1.2201   -0.3476    2.1570 C   0  0  0  0  0  0  0  0  0  0  0  0
    2.4858    0.0317    2.5387 C   0  0  0  0  0  0  0  0  0  0  0  0
    3.5711    0.0359    1.2227 S   0  0  0  0  0  0  0  0  0  0  0  0
    2.3474   -0.4398    0.1137 C   0  0  0  0  0  0  0  0  0  0  0  0
    2.7351   -0.6111   -1.2613 C   0  0  0  0  0  0  0  0  0  0  0  0
    3.7170   -1.1854   -1.7071 O   0  0  0  0  0  0  0  0  0  0  0  0
    1.9033    0.0513   -2.0912 O   0  0  0  0  0  0  0  0  0  0  0  0
    0.1383    1.6333   -0.8470 H   0  0  0  0  0  0  0  0  0  0  0  0
   -1.4655    2.0639   -1.4393 H   0  0  0  0  0  0  0  0  0  0  0  0
   -0.5727    0.7564   -2.2157 H   0  0  0  0  0  0  0  0  0  0  0  0
   -3.4342    0.4931   -1.1172 H   0  0  0  0  0  0  0  0  0  0  0  0
   -3.2265   -1.0312   -0.2418 H   0  0  0  0  0  0  0  0  0  0  0  0
   -2.5292   -0.8385   -1.8525 H   0  0  0  0  0  0  0  0  0  0  0  0
   -2.5164    1.7200    0.8695 H   0  0  0  0  0  0  0  0  0  0  0  0
   -2.1909    0.2356    1.7718 H   0  0  0  0  0  0  0  0  0  0  0  0
   -0.8956    1.4043    1.4806 H   0  0  0  0  0  0  0  0  0  0  0  0
    0.4008   -0.4592    2.8592 H   0  0  0  0  0  0  0  0  0  0  0  0
    2.8326    0.2806    3.5331 H   0  0  0  0  0  0  0  0  0  0  0  0
    2.2487   -0.1897   -2.9761 H   0  0  0  0  0  0  0  0  0  0  0  0
  1  2  1  0
  2  3  1  0
  2  4  1  0
  2  5  1  0
  5  6  2  0
  5  7  2  0
  5  8  1  0
  8  9  1  0
  9 10  2  0
 10 11  1  0
 11 12  1  0
 12 13  1  0
 13 14  2  0
 13 15  1  0
 12  8  2  0
  1 16  1  0
  1 17  1  0
  1 18  1  0
  3 19  1  0
  3 20  1  0
  3 21  1  0
  4 22  1  0
  4 23  1  0
  4 24  1  0
  9 25  1  0
 10 26  1  0
 15 27  1  0
M  END
$$$$
