
     RDKit          3D

 57 61  0  0  0  0  0  0  0  0999 V2000
   -4.2017   -2.4074   -1.6600 C   0  0  0  0  0  0  0  0  0  0  0  0
   -4.8827   -1.2043   -1.0081 C   0  0  0  0  0  0  0  0  0  0  0  0
   -6.3715   -1.5020   -0.8099 C   0  0  0  0  0  0  0  0  0  0  0  0
   -4.2088   -0.8743    0.3288 C   0  0  0  0  0  0  0  0  0  0  0  0
   -4.7816   -1.1161    1.3936 O   0  0  0  0  0  0  0  0  0  0  0  0
   -2.9115   -0.3477    0.3001 N   0  0  0  0  0  0  0  0  0  0  0  0
   -2.3271    0.0045    1.5935 C   0  0  0  0  0  0  0  0  0  0  0  0
   -0.8014   -0.0583    1.5705 C   0  0  0  0  0  0  0  0  0  0  0  0
   -0.1957    0.7817    0.4189 C   0  0  0  0  0  0  0  0  0  0  0  0
   -0.8601    0.3369   -0.9046 C   0  0  0  0  0  0  0  0  0  0  0  0
   -2.3844    0.4009   -0.8386 C   0  0  0  0  0  0  0  0  0  0  0  0
   -0.6089    2.1414    0.7171 O   0  0  0  0  0  0  0  0  0  0  0  0
    0.0834    3.1633    0.1405 C   0  0  0  0  0  0  0  0  0  0  0  0
   -0.4909    4.4310    0.2517 C   0  0  0  0  0  0  0  0  0  0  0  0
    0.1351    5.5350   -0.3298 C   0  0  0  0  0  0  0  0  0  0  0  0
    1.3327    5.3635   -1.0168 C   0  0  0  0  0  0  0  0  0  0  0  0
    1.9264    6.4240   -1.5785 F   0  0  0  0  0  0  0  0  0  0  0  0
    1.9217    4.1111   -1.1266 C   0  0  0  0  0  0  0  0  0  0  0  0
    1.2928    3.0146   -0.5316 C   0  0  0  0  0  0  0  0  0  0  0  0
    1.8925    1.6769   -0.6101 C   0  0  0  0  0  0  0  0  0  0  0  0
    2.7581    1.4483   -1.4508 O   0  0  0  0  0  0  0  0  0  0  0  0
    1.3535    0.6469    0.3766 C   0  0  0  0  0  0  0  0  0  0  0  0
    1.8868   -0.7439    0.0612 C   0  0  0  0  0  0  0  0  0  0  0  0
    3.0445   -0.7659    1.0008 C   0  0  0  0  0  0  0  0  0  0  0  0
    4.0984   -1.8055    0.9273 C   0  0  0  0  0  0  0  0  0  0  0  0
    5.1923   -1.7238    1.7984 C   0  0  0  0  0  0  0  0  0  0  0  0
    6.1995   -2.6897    1.7571 C   0  0  0  0  0  0  0  0  0  0  0  0
    6.1186   -3.7420    0.8473 C   0  0  0  0  0  0  0  0  0  0  0  0
    5.0316   -3.8305   -0.0213 C   0  0  0  0  0  0  0  0  0  0  0  0
    4.0210   -2.8656    0.0168 C   0  0  0  0  0  0  0  0  0  0  0  0
    3.0335    0.1685    1.8977 N   0  0  0  0  0  0  0  0  0  0  0  0
    1.8983    0.9735    1.6659 O   0  0  0  0  0  0  0  0  0  0  0  0
   -4.6634   -2.6389   -2.6256 H   0  0  0  0  0  0  0  0  0  0  0  0
   -3.1357   -2.2328   -1.8331 H   0  0  0  0  0  0  0  0  0  0  0  0
   -4.2820   -3.2959   -1.0233 H   0  0  0  0  0  0  0  0  0  0  0  0
   -4.8239   -0.3300   -1.6640 H   0  0  0  0  0  0  0  0  0  0  0  0
   -6.8621   -1.6859   -1.7716 H   0  0  0  0  0  0  0  0  0  0  0  0
   -6.5258   -2.3831   -0.1770 H   0  0  0  0  0  0  0  0  0  0  0  0
   -6.8763   -0.6560   -0.3307 H   0  0  0  0  0  0  0  0  0  0  0  0
   -2.6801    1.0093    1.8556 H   0  0  0  0  0  0  0  0  0  0  0  0
   -2.6911   -0.6752    2.3723 H   0  0  0  0  0  0  0  0  0  0  0  0
   -0.5084   -1.1094    1.4817 H   0  0  0  0  0  0  0  0  0  0  0  0
   -0.4368    0.3022    2.5400 H   0  0  0  0  0  0  0  0  0  0  0  0
   -0.5343    0.9683   -1.7391 H   0  0  0  0  0  0  0  0  0  0  0  0
   -0.5649   -0.6920   -1.1443 H   0  0  0  0  0  0  0  0  0  0  0  0
   -2.7335    1.4359   -0.7416 H   0  0  0  0  0  0  0  0  0  0  0  0
   -2.7815    0.0239   -1.7823 H   0  0  0  0  0  0  0  0  0  0  0  0
   -1.4283    4.5600    0.7879 H   0  0  0  0  0  0  0  0  0  0  0  0
   -0.3027    6.5257   -0.2519 H   0  0  0  0  0  0  0  0  0  0  0  0
    2.8618    4.0018   -1.6593 H   0  0  0  0  0  0  0  0  0  0  0  0
    1.2102   -1.5530    0.3454 H   0  0  0  0  0  0  0  0  0  0  0  0
    2.1854   -0.8820   -0.9804 H   0  0  0  0  0  0  0  0  0  0  0  0
    5.2690   -0.9068    2.5134 H   0  0  0  0  0  0  0  0  0  0  0  0
    7.0464   -2.6184    2.4351 H   0  0  0  0  0  0  0  0  0  0  0  0
    6.9040   -4.4933    0.8151 H   0  0  0  0  0  0  0  0  0  0  0  0
    4.9717   -4.6530   -0.7302 H   0  0  0  0  0  0  0  0  0  0  0  0
    3.1878   -2.9662   -0.6713 H   0  0  0  0  0  0  0  0  0  0  0  0
  1  2  1  0
  2  3  1  0
  2  4  1  0
  4  5  2  0
  4  6  1  0
  6  7  1  0
  7  8  1  0
  8  9  1  0
  9 10  1  0
 10 11  1  0
  9 12  1  0
 12 13  1  0
 13 14  2  0
 14 15  1  0
 15 16  2  0
 16 17  1  0
 16 18  1  0
 18 19  2  0
 19 20  1  0
 20 21  2  0
 20 22  1  0
 22 23  1  0
 23 24  1  0
 24 25  1  0
 25 26  2  0
 26 27  1  0
 27 28  2  0
 28 29  1  0
 29 30  2  0
 24 31  2  0
 31 32  1  0
 11  6  1  0
 19 13  1  0
 32 22  1  0
 22  9  1  0
 30 25  1  0
  1 33  1  0
  1 34  1  0
  1 35  1  0
  2 36  1  0
  3 37  1  0
  3 38  1  0
  3 39  1  0
  7 40  1  0
  7 41  1  0
  8 42  1  0
  8 43  1  0
 10 44  1  0
 10 45  1  0
 11 46  1  0
 11 47  1  0
 14 48  1  0
 15 49  1  0
 18 50  1  0
 23 51  1  0
 23 52  1  0
 26 53  1  0
 27 54  1  0
 28 55  1  0
 29 56  1  0
 30 57  1  0
M  END
$$$$
