
     RDKit          3D

 39 41  0  0  0  0  0  0  0  0999 V2000
   -4.1636   -0.4516    5.2730 C   0  0  0  0  0  0  0  0  0  0  0  0
   -2.9190   -0.9910    4.8463 O   0  0  0  0  0  0  0  0  0  0  0  0
   -2.7541   -1.1828    3.5023 C   0  0  0  0  0  0  0  0  0  0  0  0
   -3.6841   -0.8677    2.5084 C   0  0  0  0  0  0  0  0  0  0  0  0
   -3.3867   -1.1134    1.1639 C   0  0  0  0  0  0  0  0  0  0  0  0
   -2.1517   -1.6681    0.8176 C   0  0  0  0  0  0  0  0  0  0  0  0
   -1.7869   -1.9909   -0.8882 S   0  0  0  0  0  6  0  0  0  0  0  0
   -0.6369   -2.8645   -0.9692 O   0  0  0  0  0  0  0  0  0  0  0  0
   -3.0340   -2.3398   -1.5372 O   0  0  0  0  0  0  0  0  0  0  0  0
   -1.3735   -0.4581   -1.4769 N   0  0  0  0  0  0  0  0  0  0  0  0
   -0.0547    0.0139   -1.2311 C   0  0  0  0  0  0  0  0  0  0  0  0
    0.2134    0.7240   -0.0637 C   0  0  0  0  0  0  0  0  0  0  0  0
    1.5127    1.1532    0.1991 C   0  0  0  0  0  0  0  0  0  0  0  0
    2.5362    0.8724   -0.7057 C   0  0  0  0  0  0  0  0  0  0  0  0
    3.7741    1.3433   -0.3640 O   0  0  0  0  0  0  0  0  0  0  0  0
    2.2835    0.1451   -1.8783 C   0  0  0  0  0  0  0  0  0  0  0  0
    3.5484   -0.3527   -3.0379 S   0  0  0  0  0  0  0  0  0  0  0  0
    4.1151    1.1751   -3.6433 C   0  0  0  0  0  0  0  0  0  0  0  0
    4.7041    2.1099   -2.8300 N   0  0  0  0  0  0  0  0  0  0  0  0
    5.0030    3.0767   -3.6669 C   0  0  0  0  0  0  0  0  0  0  0  0
    4.6157    2.7273   -4.9225 N   0  0  0  0  0  0  0  0  0  0  0  0
    4.0471    1.5117   -4.9333 N   0  0  0  0  0  0  0  0  0  0  0  0
    0.9726   -0.2879   -2.1275 C   0  0  0  0  0  0  0  0  0  0  0  0
   -1.2214   -2.0009    1.8032 C   0  0  0  0  0  0  0  0  0  0  0  0
   -1.5265   -1.7495    3.1420 C   0  0  0  0  0  0  0  0  0  0  0  0
   -4.1385   -0.3757    6.3643 H   0  0  0  0  0  0  0  0  0  0  0  0
   -4.9939   -1.1130    5.0041 H   0  0  0  0  0  0  0  0  0  0  0  0
   -4.3143    0.5563    4.8725 H   0  0  0  0  0  0  0  0  0  0  0  0
   -4.6499   -0.4335    2.7459 H   0  0  0  0  0  0  0  0  0  0  0  0
   -4.1192   -0.8719    0.3966 H   0  0  0  0  0  0  0  0  0  0  0  0
   -1.7503   -0.3286   -2.4156 H   0  0  0  0  0  0  0  0  0  0  0  0
   -0.5790    0.9561    0.6424 H   0  0  0  0  0  0  0  0  0  0  0  0
    1.7311    1.7097    1.1068 H   0  0  0  0  0  0  0  0  0  0  0  0
    4.3031    1.4356   -1.1843 H   0  0  0  0  0  0  0  0  0  0  0  0
    5.4840    4.0158   -3.4319 H   0  0  0  0  0  0  0  0  0  0  0  0
    4.7051    3.2445   -5.7904 H   0  0  0  0  0  0  0  0  0  0  0  0
    0.7558   -0.8819   -3.0125 H   0  0  0  0  0  0  0  0  0  0  0  0
   -0.2637   -2.4462    1.5427 H   0  0  0  0  0  0  0  0  0  0  0  0
   -0.8029   -2.0009    3.9146 H   0  0  0  0  0  0  0  0  0  0  0  0
  1  2  1  0
  2  3  1  0
  3  4  2  0
  4  5  1  0
  5  6  2  0
  6  7  1  0
  7  8  2  0
  7  9  2  0
  7 10  1  0
 10 11  1  0
 11 12  2  0
 12 13  1  0
 13 14  2  0
 14 15  1  0
 14 16  1  0
 16 17  1  0
 17 18  1  0
 18 19  1  0
 19 20  2  0
 20 21  1  0
 21 22  1  0
 16 23  2  0
  6 24  1  0
 24 25  2  0
 25  3  1  0
 23 11  1  0
 22 18  2  0
  1 26  1  0
  1 27  1  0
  1 28  1  0
  4 29  1  0
  5 30  1  0
 10 31  1  0
 12 32  1  0
 13 33  1  0
 15 34  1  0
 20 35  1  0
 21 36  1  0
 23 37  1  0
 24 38  1  0
 25 39  1  0
M  END
$$$$
