
     RDKit          3D

 37 39  0  0  0  0  0  0  0  0999 V2000
   -0.2373   -0.2809    4.8316 C   0  0  0  0  0  0  0  0  0  0  0  0
    1.2493   -0.7785    3.9226 S   0  0  0  0  0  0  0  0  0  0  0  0
    0.7073   -0.5192    2.2383 C   0  0  0  0  0  0  0  0  0  0  0  0
    1.6085   -0.7333    1.2168 C   0  0  0  0  0  0  0  0  0  0  0  0
    1.1688   -0.5304   -0.0762 C   0  0  0  0  0  0  0  0  0  0  0  0
    2.0120   -0.7424   -1.1637 N   0  0  0  0  0  0  0  0  0  0  0  0
    3.4105   -0.2787   -1.0865 C   0  0  0  0  0  0  0  0  0  0  0  0
    3.7689    0.5952   -2.3011 C   0  0  0  0  0  0  0  0  0  0  0  0
    3.5783   -0.0651   -3.5593 O   0  0  0  0  0  0  0  0  0  0  0  0
    2.4369   -0.9382   -3.5751 C   0  0  0  0  0  0  0  0  0  0  0  0
    1.3905   -0.6212   -2.4954 C   0  0  0  0  0  0  0  0  0  0  0  0
   -0.1042   -0.1720   -0.3072 N   0  0  0  0  0  0  0  0  0  0  0  0
   -0.9109    0.0397    0.7452 C   0  0  0  0  0  0  0  0  0  0  0  0
   -2.3043    0.4143    0.4801 C   0  0  0  0  0  0  0  0  0  0  0  0
   -3.3403   -0.2826    1.1408 C   0  0  0  0  0  0  0  0  0  0  0  0
   -4.6867    0.0172    0.9173 C   0  0  0  0  0  0  0  0  0  0  0  0
   -5.0321    1.0283    0.0286 C   0  0  0  0  0  0  0  0  0  0  0  0
   -4.0311    1.7417   -0.6281 C   0  0  0  0  0  0  0  0  0  0  0  0
   -2.6788    1.4427   -0.4045 C   0  0  0  0  0  0  0  0  0  0  0  0
   -1.5237    2.4405   -1.2260 Cl  0  0  0  0  0  0  0  0  0  0  0  0
   -0.5579   -0.1336    2.0270 N   0  0  0  0  0  0  0  0  0  0  0  0
   -0.0455   -0.3772    5.9038 H   0  0  0  0  0  0  0  0  0  0  0  0
   -0.4902    0.7620    4.6213 H   0  0  0  0  0  0  0  0  0  0  0  0
   -1.0830   -0.9257    4.5763 H   0  0  0  0  0  0  0  0  0  0  0  0
    2.6140   -1.0729    1.4255 H   0  0  0  0  0  0  0  0  0  0  0  0
    4.0551   -1.1651   -1.0734 H   0  0  0  0  0  0  0  0  0  0  0  0
    3.6129    0.3021   -0.1796 H   0  0  0  0  0  0  0  0  0  0  0  0
    3.1675    1.5122   -2.3057 H   0  0  0  0  0  0  0  0  0  0  0  0
    4.8196    0.8979   -2.2461 H   0  0  0  0  0  0  0  0  0  0  0  0
    1.9861   -0.8708   -4.5703 H   0  0  0  0  0  0  0  0  0  0  0  0
    2.8092   -1.9620   -3.4522 H   0  0  0  0  0  0  0  0  0  0  0  0
    1.0118    0.3979   -2.6460 H   0  0  0  0  0  0  0  0  0  0  0  0
    0.5570   -1.3267   -2.5944 H   0  0  0  0  0  0  0  0  0  0  0  0
   -3.0906   -1.0815    1.8390 H   0  0  0  0  0  0  0  0  0  0  0  0
   -5.4611   -0.5413    1.4377 H   0  0  0  0  0  0  0  0  0  0  0  0
   -6.0777    1.2667   -0.1492 H   0  0  0  0  0  0  0  0  0  0  0  0
   -4.3088    2.5406   -1.3119 H   0  0  0  0  0  0  0  0  0  0  0  0
  1  2  1  0
  2  3  1  0
  3  4  2  0
  4  5  1  0
  5  6  1  0
  6  7  1  0
  7  8  1  0
  8  9  1  0
  9 10  1  0
 10 11  1  0
  5 12  2  0
 12 13  1  0
 13 14  1  0
 14 15  2  0
 15 16  1  0
 16 17  2  0
 17 18  1  0
 18 19  2  0
 19 20  1  0
 13 21  2  0
 21  3  1  0
 11  6  1  0
 19 14  1  0
  1 22  1  0
  1 23  1  0
  1 24  1  0
  4 25  1  0
  7 26  1  0
  7 27  1  0
  8 28  1  0
  8 29  1  0
 10 30  1  0
 10 31  1  0
 11 32  1  0
 11 33  1  0
 15 34  1  0
 16 35  1  0
 17 36  1  0
 18 37  1  0
M  END
$$$$
