
     RDKit          3D

 36 36  0  0  0  0  0  0  0  0999 V2000
    2.3608   -5.1056    3.2279 C   0  0  0  0  0  0  0  0  0  0  0  0
    1.5029   -5.2180    1.9836 C   0  0  0  0  0  0  0  0  0  0  0  0
    0.9615   -3.9316    1.6925 O   0  0  0  0  0  0  0  0  0  0  0  0
    0.1477   -3.9488    0.5241 C   0  0  0  0  0  0  0  0  0  0  0  0
   -0.4533   -2.5659    0.2992 C   0  0  0  0  0  0  0  0  0  0  0  0
    0.6200   -1.4860    0.1826 C   0  0  0  0  0  0  0  0  0  0  0  0
    0.0621   -0.2183   -0.2594 N   0  0  0  0  0  0  0  0  0  0  0  0
   -0.5731    0.6364    0.6157 C   0  0  0  0  0  0  0  0  0  0  0  0
   -0.7034    0.4211    1.8140 O   0  0  0  0  0  0  0  0  0  0  0  0
   -1.1473    1.8608   -0.0066 C   0  0  0  0  0  0  0  0  0  0  0  0
   -2.4942    2.1677    0.3198 C   0  0  0  0  0  0  0  0  0  0  0  0
   -3.6006    2.4444    0.5383 N   0  0  0  0  0  0  0  0  0  0  0  0
   -0.3399    2.5997   -0.7889 C   0  0  0  0  0  0  0  0  0  0  0  0
   -0.6853    3.8040   -1.4680 C   0  0  0  0  0  0  0  0  0  0  0  0
   -1.6600    4.7769   -1.2421 C   0  0  0  0  0  0  0  0  0  0  0  0
   -1.5365    5.7801   -2.2392 C   0  0  0  0  0  0  0  0  0  0  0  0
   -0.4857    5.3766   -3.0173 C   0  0  0  0  0  0  0  0  0  0  0  0
    0.1281    5.9568   -4.1690 N   0  0  0  0  0  4  0  0  0  0  0  0
   -0.3463    7.0318   -4.5598 O   0  0  0  0  0  0  0  0  0  0  0  0
    1.0745    5.3500   -4.6867 O   0  0  0  0  0  1  0  0  0  0  0  0
    0.0413    4.2095   -2.5731 O   0  0  0  0  0  0  0  0  0  0  0  0
    1.7668   -4.7460    4.0746 H   0  0  0  0  0  0  0  0  0  0  0  0
    2.7983   -6.0732    3.4891 H   0  0  0  0  0  0  0  0  0  0  0  0
    3.1684   -4.3820    3.0753 H   0  0  0  0  0  0  0  0  0  0  0  0
    0.6894   -5.9314    2.1550 H   0  0  0  0  0  0  0  0  0  0  0  0
    2.1120   -5.5623    1.1407 H   0  0  0  0  0  0  0  0  0  0  0  0
   -0.6594   -4.6801    0.6467 H   0  0  0  0  0  0  0  0  0  0  0  0
    0.7562   -4.2397   -0.3400 H   0  0  0  0  0  0  0  0  0  0  0  0
   -1.0706   -2.5854   -0.6068 H   0  0  0  0  0  0  0  0  0  0  0  0
   -1.1183   -2.3172    1.1354 H   0  0  0  0  0  0  0  0  0  0  0  0
    1.3751   -1.7706   -0.5577 H   0  0  0  0  0  0  0  0  0  0  0  0
    1.1225   -1.3321    1.1439 H   0  0  0  0  0  0  0  0  0  0  0  0
    0.0190   -0.0504   -1.2564 H   0  0  0  0  0  0  0  0  0  0  0  0
    0.6835    2.2676   -0.9577 H   0  0  0  0  0  0  0  0  0  0  0  0
   -2.3855    4.7861   -0.4383 H   0  0  0  0  0  0  0  0  0  0  0  0
   -2.1309    6.6754   -2.3625 H   0  0  0  0  0  0  0  0  0  0  0  0
  1  2  1  0
  2  3  1  0
  3  4  1  0
  4  5  1  0
  5  6  1  0
  6  7  1  0
  7  8  1  0
  8  9  2  0
  8 10  1  0
 10 11  1  0
 11 12  3  0
 10 13  2  3
 13 14  1  0
 14 15  2  0
 15 16  1  0
 16 17  2  0
 17 18  1  0
 18 19  2  0
 18 20  1  0
 17 21  1  0
 21 14  1  0
  1 22  1  0
  1 23  1  0
  1 24  1  0
  2 25  1  0
  2 26  1  0
  4 27  1  0
  4 28  1  0
  5 29  1  0
  5 30  1  0
  6 31  1  0
  6 32  1  0
  7 33  1  0
 13 34  1  0
 15 35  1  0
 16 36  1  0
M  CHG  2  18   1  20  -1
M  END
$$$$
