
     RDKit          3D

 57 62  0  0  0  0  0  0  0  0999 V2000
    6.7459   -3.2664    1.6430 C   0  0  0  0  0  0  0  0  0  0  0  0
    5.8431   -2.1160    1.3577 C   0  0  0  0  0  0  0  0  0  0  0  0
    5.1588   -1.3189    2.2521 C   0  0  0  0  0  0  0  0  0  0  0  0
    4.3887   -0.3143    1.5972 C   0  0  0  0  0  0  0  0  0  0  0  0
    4.5018   -0.3798    0.2216 C   0  0  0  0  0  0  0  0  0  0  0  0
    3.8890    0.4606   -0.7954 C   0  0  0  0  0  0  0  0  0  0  0  0
    4.5402    0.9594   -1.7148 O   0  0  0  0  0  0  0  0  0  0  0  0
    2.5124    0.7093   -0.6869 N   0  0  0  0  0  0  0  0  0  0  0  0
    1.9201    1.6725   -1.6054 C   0  0  0  0  0  0  0  0  0  0  0  0
    0.5581    2.1458   -1.1091 C   0  0  0  0  0  0  0  0  0  0  0  0
   -0.4680    0.9727   -1.0037 C   0  0  0  0  0  0  0  0  0  0  0  0
    0.2990   -0.3502   -0.7087 C   0  0  0  0  0  0  0  0  0  0  0  0
    1.5890   -0.1316    0.0747 C   0  0  0  0  0  0  0  0  0  0  0  0
   -1.0728    0.7473   -2.3067 O   0  0  0  0  0  0  0  0  0  0  0  0
   -2.0118    1.6566   -2.7081 C   0  0  0  0  0  0  0  0  0  0  0  0
   -2.3400    1.6418   -4.0629 C   0  0  0  0  0  0  0  0  0  0  0  0
   -3.2751    2.5501   -4.5648 C   0  0  0  0  0  0  0  0  0  0  0  0
   -3.8800    3.4709   -3.7082 C   0  0  0  0  0  0  0  0  0  0  0  0
   -5.0321    4.5827   -4.3336 Cl  0  0  0  0  0  0  0  0  0  0  0  0
   -3.5676    3.4863   -2.3510 C   0  0  0  0  0  0  0  0  0  0  0  0
   -2.6395    2.5651   -1.8557 C   0  0  0  0  0  0  0  0  0  0  0  0
   -2.3287    2.5159   -0.4152 C   0  0  0  0  0  0  0  0  0  0  0  0
   -2.7135    3.4163    0.3217 O   0  0  0  0  0  0  0  0  0  0  0  0
   -1.5805    1.2697    0.0455 C   0  0  0  0  0  0  0  0  0  0  0  0
   -2.6189    0.1707    0.2557 C   0  0  0  0  0  0  0  0  0  0  0  0
   -2.1510   -0.3585    1.5650 C   0  0  0  0  0  0  0  0  0  0  0  0
   -2.6741   -1.6150    2.1323 C   0  0  0  0  0  0  0  0  0  0  0  0
   -3.6639   -2.3714    1.5001 C   0  0  0  0  0  0  0  0  0  0  0  0
   -4.0918   -3.5626    2.0869 C   0  0  0  0  0  0  0  0  0  0  0  0
   -3.5141   -3.9548    3.2844 C   0  0  0  0  0  0  0  0  0  0  0  0
   -2.5591   -3.2437    3.9221 N   0  0  0  0  0  0  0  0  0  0  0  0
   -2.1608   -2.0885    3.3351 C   0  0  0  0  0  0  0  0  0  0  0  0
   -1.2476    0.3594    2.1491 N   0  0  0  0  0  0  0  0  0  0  0  0
   -1.0098    1.4914    1.3380 O   0  0  0  0  0  0  0  0  0  0  0  0
    5.5605   -1.6357   -0.2600 S   0  0  0  0  0  0  0  0  0  0  0  0
    6.9420   -3.3511    2.7166 H   0  0  0  0  0  0  0  0  0  0  0  0
    7.7108   -3.1461    1.1376 H   0  0  0  0  0  0  0  0  0  0  0  0
    6.2902   -4.2047    1.3076 H   0  0  0  0  0  0  0  0  0  0  0  0
    5.2111   -1.4441    3.3275 H   0  0  0  0  0  0  0  0  0  0  0  0
    3.7908    0.4281    2.1129 H   0  0  0  0  0  0  0  0  0  0  0  0
    2.5972    2.5277   -1.7133 H   0  0  0  0  0  0  0  0  0  0  0  0
    1.8350    1.1955   -2.5891 H   0  0  0  0  0  0  0  0  0  0  0  0
    0.2037    2.9281   -1.7894 H   0  0  0  0  0  0  0  0  0  0  0  0
    0.7013    2.6159   -0.1281 H   0  0  0  0  0  0  0  0  0  0  0  0
   -0.3254   -1.0822   -0.1900 H   0  0  0  0  0  0  0  0  0  0  0  0
    0.5552   -0.8393   -1.6603 H   0  0  0  0  0  0  0  0  0  0  0  0
    2.0408   -1.1053    0.2836 H   0  0  0  0  0  0  0  0  0  0  0  0
    1.3975    0.3660    1.0300 H   0  0  0  0  0  0  0  0  0  0  0  0
   -1.8608    0.9320   -4.7335 H   0  0  0  0  0  0  0  0  0  0  0  0
   -3.5240    2.5369   -5.6239 H   0  0  0  0  0  0  0  0  0  0  0  0
   -4.0483    4.1979   -1.6829 H   0  0  0  0  0  0  0  0  0  0  0  0
   -3.6372    0.5546    0.3800 H   0  0  0  0  0  0  0  0  0  0  0  0
   -2.6142   -0.5887   -0.5302 H   0  0  0  0  0  0  0  0  0  0  0  0
   -4.1126   -2.0618    0.5617 H   0  0  0  0  0  0  0  0  0  0  0  0
   -4.8556   -4.1748    1.6174 H   0  0  0  0  0  0  0  0  0  0  0  0
   -3.8113   -4.8769    3.7758 H   0  0  0  0  0  0  0  0  0  0  0  0
   -1.3921   -1.5447    3.8814 H   0  0  0  0  0  0  0  0  0  0  0  0
  1  2  1  0
  2  3  2  0
  3  4  1  0
  4  5  2  0
  5  6  1  0
  6  7  2  0
  6  8  1  0
  8  9  1  0
  9 10  1  0
 10 11  1  0
 11 12  1  0
 12 13  1  0
 11 14  1  0
 14 15  1  0
 15 16  2  0
 16 17  1  0
 17 18  2  0
 18 19  1  0
 18 20  1  0
 20 21  2  0
 21 22  1  0
 22 23  2  0
 22 24  1  0
 24 25  1  0
 25 26  1  0
 26 27  1  0
 27 28  2  0
 28 29  1  0
 29 30  2  0
 30 31  1  0
 31 32  2  0
 26 33  2  0
 33 34  1  0
  5 35  1  0
 35  2  1  0
 13  8  1  0
 21 15  1  0
 34 24  1  0
 24 11  1  0
 32 27  1  0
  1 36  1  0
  1 37  1  0
  1 38  1  0
  3 39  1  0
  4 40  1  0
  9 41  1  0
  9 42  1  0
 10 43  1  0
 10 44  1  0
 12 45  1  0
 12 46  1  0
 13 47  1  0
 13 48  1  0
 16 49  1  0
 17 50  1  0
 20 51  1  0
 25 52  1  0
 25 53  1  0
 28 54  1  0
 29 55  1  0
 30 56  1  0
 32 57  1  0
M  END
$$$$
