
     RDKit          3D

 54 57  0  0  0  0  0  0  0  0999 V2000
    5.6555    1.5941    3.8222 C   0  0  0  0  0  0  0  0  0  0  0  0
    4.9050    1.1797    2.5671 C   0  0  0  0  0  0  0  0  0  0  0  0
    3.5115    0.6527    2.8723 C   0  0  0  0  0  0  0  0  0  0  0  0
    3.0421    0.6922    4.0094 O   0  0  0  0  0  0  0  0  0  0  0  0
    2.7965    0.1305    1.8047 N   0  0  0  0  0  0  0  0  0  0  0  0
    1.4715   -0.4478    2.0622 C   0  0  0  0  0  0  0  0  0  0  0  0
    1.1062   -1.5377    1.0421 C   0  0  0  0  0  0  0  0  0  0  0  0
    1.1094   -0.9922   -0.3371 N   0  0  0  0  0  0  0  0  0  0  0  0
    1.0455   -2.0057   -1.3263 C   0  0  0  0  0  0  0  0  0  0  0  0
    2.0914   -2.9129   -1.5428 C   0  0  0  0  0  0  0  0  0  0  0  0
    1.9807   -3.8918   -2.5316 C   0  0  0  0  0  0  0  0  0  0  0  0
    0.8254   -3.9675   -3.3085 C   0  0  0  0  0  0  0  0  0  0  0  0
    0.7032   -5.1841   -4.5214 Cl  0  0  0  0  0  0  0  0  0  0  0  0
   -0.2270   -3.0741   -3.1143 C   0  0  0  0  0  0  0  0  0  0  0  0
   -0.1200   -2.0926   -2.1295 C   0  0  0  0  0  0  0  0  0  0  0  0
   -1.1205   -1.1394   -1.8464 N   0  0  0  0  0  0  0  0  0  0  0  0
   -2.3209   -0.9387   -2.4887 C   0  0  0  0  0  0  0  0  0  0  0  0
   -2.7216   -1.5305   -3.4839 O   0  0  0  0  0  0  0  0  0  0  0  0
   -3.1715    0.1409   -1.9090 C   0  0  0  0  0  0  0  0  0  0  0  0
   -4.0151    0.8609   -2.7672 C   0  0  0  0  0  0  0  0  0  0  0  0
   -4.8191    1.8878   -2.2669 C   0  0  0  0  0  0  0  0  0  0  0  0
   -4.7872    2.1922   -0.9083 C   0  0  0  0  0  0  0  0  0  0  0  0
   -3.9808    1.4462   -0.0420 C   0  0  0  0  0  0  0  0  0  0  0  0
   -3.1663    0.4290   -0.5379 C   0  0  0  0  0  0  0  0  0  0  0  0
   -3.9345    1.6608    1.3124 O   0  0  0  0  0  0  0  0  0  0  0  0
   -5.0390    2.4615    1.7509 C   0  0  0  0  0  0  0  0  0  0  0  0
   -5.2334    3.6559    0.8315 C   0  0  0  0  0  0  0  0  0  0  0  0
   -5.5834    3.2265   -0.4893 O   0  0  0  0  0  0  0  0  0  0  0  0
    2.1362    0.0422   -0.6156 C   0  0  0  0  0  0  0  0  0  0  0  0
    3.2775    0.0617    0.4179 C   0  0  0  0  0  0  0  0  0  0  0  0
    6.6546    1.9589    3.5655 H   0  0  0  0  0  0  0  0  0  0  0  0
    5.1263    2.3932    4.3517 H   0  0  0  0  0  0  0  0  0  0  0  0
    5.7654    0.7500    4.5110 H   0  0  0  0  0  0  0  0  0  0  0  0
    4.8127    2.0503    1.9092 H   0  0  0  0  0  0  0  0  0  0  0  0
    5.4771    0.4003    2.0529 H   0  0  0  0  0  0  0  0  0  0  0  0
    1.4328   -0.8617    3.0755 H   0  0  0  0  0  0  0  0  0  0  0  0
    0.7506    0.3770    2.0101 H   0  0  0  0  0  0  0  0  0  0  0  0
    1.8212   -2.3639    1.1445 H   0  0  0  0  0  0  0  0  0  0  0  0
    0.1074   -1.9275    1.2709 H   0  0  0  0  0  0  0  0  0  0  0  0
    2.9964   -2.8692   -0.9450 H   0  0  0  0  0  0  0  0  0  0  0  0
    2.7953   -4.5934   -2.6904 H   0  0  0  0  0  0  0  0  0  0  0  0
   -1.1139   -3.1602   -3.7328 H   0  0  0  0  0  0  0  0  0  0  0  0
   -0.8365   -0.5080   -1.1019 H   0  0  0  0  0  0  0  0  0  0  0  0
   -4.0416    0.6266   -3.8299 H   0  0  0  0  0  0  0  0  0  0  0  0
   -5.4618    2.4521   -2.9373 H   0  0  0  0  0  0  0  0  0  0  0  0
   -2.5668   -0.1483    0.1594 H   0  0  0  0  0  0  0  0  0  0  0  0
   -5.9356    1.8302    1.7849 H   0  0  0  0  0  0  0  0  0  0  0  0
   -4.8199    2.7987    2.7688 H   0  0  0  0  0  0  0  0  0  0  0  0
   -4.3243    4.2668    0.7697 H   0  0  0  0  0  0  0  0  0  0  0  0
   -6.0460    4.2894    1.2005 H   0  0  0  0  0  0  0  0  0  0  0  0
    1.6228    1.0116   -0.5818 H   0  0  0  0  0  0  0  0  0  0  0  0
    2.5536   -0.0488   -1.6264 H   0  0  0  0  0  0  0  0  0  0  0  0
    3.9400    0.9050    0.2057 H   0  0  0  0  0  0  0  0  0  0  0  0
    3.8733   -0.8550    0.3393 H   0  0  0  0  0  0  0  0  0  0  0  0
  1  2  1  0
  2  3  1  0
  3  4  2  0
  3  5  1  0
  5  6  1  0
  6  7  1  0
  7  8  1  0
  8  9  1  0
  9 10  2  0
 10 11  1  0
 11 12  2  0
 12 13  1  0
 12 14  1  0
 14 15  2  0
 15 16  1  0
 16 17  1  0
 17 18  2  0
 17 19  1  0
 19 20  2  0
 20 21  1  0
 21 22  2  0
 22 23  1  0
 23 24  2  0
 23 25  1  0
 25 26  1  0
 26 27  1  0
 27 28  1  0
  8 29  1  0
 29 30  1  0
 30  5  1  0
 15  9  1  0
 24 19  1  0
 28 22  1  0
  1 31  1  0
  1 32  1  0
  1 33  1  0
  2 34  1  0
  2 35  1  0
  6 36  1  0
  6 37  1  0
  7 38  1  0
  7 39  1  0
 10 40  1  0
 11 41  1  0
 14 42  1  0
 16 43  1  0
 20 44  1  0
 21 45  1  0
 24 46  1  0
 26 47  1  0
 26 48  1  0
 27 49  1  0
 27 50  1  0
 29 51  1  0
 29 52  1  0
 30 53  1  0
 30 54  1  0
M  END
$$$$
