
     RDKit          3D

 37 39  0  0  0  0  0  0  0  0999 V2000
    5.9880    2.8782   -2.6960 C   0  0  0  0  0  0  0  0  0  0  0  0
    4.5861    3.0785   -2.8261 O   0  0  0  0  0  0  0  0  0  0  0  0
    3.7692    2.2535   -2.0993 C   0  0  0  0  0  0  0  0  0  0  0  0
    2.4072    2.4997   -2.2722 C   0  0  0  0  0  0  0  0  0  0  0  0
    1.4385    1.7436   -1.5997 C   0  0  0  0  0  0  0  0  0  0  0  0
    1.8456    0.7118   -0.7292 C   0  0  0  0  0  0  0  0  0  0  0  0
    1.1631   -0.2358    0.0992 C   0  0  0  0  0  0  0  0  0  0  0  0
   -0.2542   -0.3593    0.2527 C   0  0  0  0  0  0  0  0  0  0  0  0
   -0.8932   -1.2963    0.9743 C   0  0  0  0  0  0  0  0  0  0  0  0
   -2.3533   -1.3739    1.0901 C   0  0  0  0  0  0  0  0  0  0  0  0
   -3.1393   -0.2459    1.3216 C   0  0  0  0  0  0  0  0  0  0  0  0
   -4.5173   -0.3800    1.4477 C   0  0  0  0  0  0  0  0  0  0  0  0
   -5.1017   -1.5958    1.3609 N   0  0  0  0  0  4  0  0  0  0  0  0
   -6.5649   -1.7106    1.4836 C   0  0  0  0  0  0  0  0  0  0  0  0
   -4.3593   -2.7043    1.1437 C   0  0  0  0  0  0  0  0  0  0  0  0
   -2.9777   -2.6172    1.0142 C   0  0  0  0  0  0  0  0  0  0  0  0
    2.1234   -1.0010    0.7256 C   0  0  0  0  0  0  0  0  0  0  0  0
    3.3540   -0.5588    0.3122 N   0  0  0  0  0  0  0  0  0  0  0  0
    3.2140    0.4846   -0.5740 C   0  0  0  0  0  0  0  0  0  0  0  0
    4.1962    1.2348   -1.2416 C   0  0  0  0  0  0  0  0  0  0  0  0
    6.2776    1.8801   -3.0407 H   0  0  0  0  0  0  0  0  0  0  0  0
    6.4910    3.6101   -3.3352 H   0  0  0  0  0  0  0  0  0  0  0  0
    6.3176    3.0529   -1.6665 H   0  0  0  0  0  0  0  0  0  0  0  0
    2.0908    3.2951   -2.9438 H   0  0  0  0  0  0  0  0  0  0  0  0
    0.3873    1.9600   -1.7582 H   0  0  0  0  0  0  0  0  0  0  0  0
   -0.8447    0.3783   -0.2865 H   0  0  0  0  0  0  0  0  0  0  0  0
   -0.3320   -2.0682    1.4959 H   0  0  0  0  0  0  0  0  0  0  0  0
   -2.6877    0.7403    1.4142 H   0  0  0  0  0  0  0  0  0  0  0  0
   -5.1597    0.4790    1.6208 H   0  0  0  0  0  0  0  0  0  0  0  0
   -6.8143   -2.6886    1.9033 H   0  0  0  0  0  0  0  0  0  0  0  0
   -6.9868   -1.5974    0.4819 H   0  0  0  0  0  0  0  0  0  0  0  0
   -6.9308   -0.9268    2.1518 H   0  0  0  0  0  0  0  0  0  0  0  0
   -4.8791   -3.6558    1.0744 H   0  0  0  0  0  0  0  0  0  0  0  0
   -2.3963   -3.5214    0.8411 H   0  0  0  0  0  0  0  0  0  0  0  0
    2.0568   -1.8180    1.4305 H   0  0  0  0  0  0  0  0  0  0  0  0
    4.2417   -0.9385    0.6124 H   0  0  0  0  0  0  0  0  0  0  0  0
    5.2441    1.0132   -1.0817 H   0  0  0  0  0  0  0  0  0  0  0  0
  1  2  1  0
  2  3  1  0
  3  4  2  0
  4  5  1  0
  5  6  2  0
  6  7  1  0
  7  8  1  0
  8  9  2  3
  9 10  1  0
 10 11  2  0
 11 12  1  0
 12 13  2  0
 13 14  1  0
 13 15  1  0
 15 16  2  0
  7 17  2  0
 17 18  1  0
 18 19  1  0
 19 20  2  0
 20  3  1  0
 19  6  1  0
 16 10  1  0
  1 21  1  0
  1 22  1  0
  1 23  1  0
  4 24  1  0
  5 25  1  0
  8 26  1  0
  9 27  1  0
 11 28  1  0
 12 29  1  0
 14 30  1  0
 14 31  1  0
 14 32  1  0
 15 33  1  0
 16 34  1  0
 17 35  1  0
 18 36  1  0
 20 37  1  0
M  CHG  1  13   1
M  END
$$$$
