
     RDKit          3D

 36 37  0  0  0  0  0  0  0  0999 V2000
    6.7454    0.8286    0.8271 C   0  0  0  0  0  0  0  0  0  0  0  0
    5.3445    0.5519    0.8383 O   0  0  0  0  0  0  0  0  0  0  0  0
    4.8064    0.3857   -0.3963 C   0  0  0  0  0  0  0  0  0  0  0  0
    5.4149    0.4504   -1.4532 O   0  0  0  0  0  0  0  0  0  0  0  0
    3.3475    0.1065   -0.3021 C   0  0  0  0  0  0  0  0  0  0  0  0
    2.6292   -0.0690   -1.4902 C   0  0  0  0  0  0  0  0  0  0  0  0
    1.2564   -0.3336   -1.4537 C   0  0  0  0  0  0  0  0  0  0  0  0
    0.5678   -0.4189   -0.2316 C   0  0  0  0  0  0  0  0  0  0  0  0
   -0.9168   -0.7519   -0.2047 C   0  0  0  0  0  0  0  0  0  0  0  0
   -1.5604   -0.1188   -1.3106 O   0  0  0  0  0  0  0  0  0  0  0  0
   -2.9425   -0.4559   -1.3651 C   0  0  0  0  0  0  0  0  0  0  0  0
   -3.6556   -0.0522   -0.0676 C   0  0  0  0  0  0  0  0  0  0  0  0
   -3.6649    1.4826    0.0651 C   0  0  0  0  0  0  0  0  0  0  0  0
   -5.0989   -0.5683   -0.0716 C   0  0  0  0  0  0  0  0  0  0  0  0
   -2.8732   -0.6686    1.0998 C   0  0  0  0  0  0  0  0  0  0  0  0
   -1.4946   -0.3205    1.0273 O   0  0  0  0  0  0  0  0  0  0  0  0
    1.3030   -0.2559    0.9545 C   0  0  0  0  0  0  0  0  0  0  0  0
    2.6768    0.0098    0.9225 C   0  0  0  0  0  0  0  0  0  0  0  0
    7.2974   -0.0046    0.3808 H   0  0  0  0  0  0  0  0  0  0  0  0
    7.0755    0.9469    1.8628 H   0  0  0  0  0  0  0  0  0  0  0  0
    6.9482    1.7608    0.2905 H   0  0  0  0  0  0  0  0  0  0  0  0
    3.1331    0.0012   -2.4524 H   0  0  0  0  0  0  0  0  0  0  0  0
    0.7198   -0.4644   -2.3921 H   0  0  0  0  0  0  0  0  0  0  0  0
   -1.0060   -1.8437   -0.2935 H   0  0  0  0  0  0  0  0  0  0  0  0
   -3.3780    0.0613   -2.2274 H   0  0  0  0  0  0  0  0  0  0  0  0
   -3.0361   -1.5324   -1.5570 H   0  0  0  0  0  0  0  0  0  0  0  0
   -4.1574    1.7927    0.9937 H   0  0  0  0  0  0  0  0  0  0  0  0
   -4.2068    1.9448   -0.7678 H   0  0  0  0  0  0  0  0  0  0  0  0
   -2.6528    1.9014    0.0729 H   0  0  0  0  0  0  0  0  0  0  0  0
   -5.6174   -0.2990    0.8554 H   0  0  0  0  0  0  0  0  0  0  0  0
   -5.6669   -0.1468   -0.9084 H   0  0  0  0  0  0  0  0  0  0  0  0
   -5.1297   -1.6596   -0.1649 H   0  0  0  0  0  0  0  0  0  0  0  0
   -2.9612   -1.7625    1.1095 H   0  0  0  0  0  0  0  0  0  0  0  0
   -3.2577   -0.3088    2.0608 H   0  0  0  0  0  0  0  0  0  0  0  0
    0.8048   -0.3277    1.9201 H   0  0  0  0  0  0  0  0  0  0  0  0
    3.2064    0.1386    1.8630 H   0  0  0  0  0  0  0  0  0  0  0  0
  1  2  1  0
  2  3  1  0
  3  4  2  0
  3  5  1  0
  5  6  2  0
  6  7  1  0
  7  8  2  0
  8  9  1  0
  9 10  1  0
 10 11  1  0
 11 12  1  0
 12 13  1  0
 12 14  1  0
 12 15  1  0
 15 16  1  0
  8 17  1  0
 17 18  2  0
 18  5  1  0
 16  9  1  0
  1 19  1  0
  1 20  1  0
  1 21  1  0
  6 22  1  0
  7 23  1  0
  9 24  1  0
 11 25  1  0
 11 26  1  0
 13 27  1  0
 13 28  1  0
 13 29  1  0
 14 30  1  0
 14 31  1  0
 14 32  1  0
 15 33  1  0
 15 34  1  0
 17 35  1  0
 18 36  1  0
M  END
$$$$
