
     RDKit          3D

 38 40  0  0  0  0  0  0  0  0999 V2000
   -4.6423    1.7686   -2.2436 C   0  0  0  0  0  0  0  0  0  0  0  0
   -3.9621    1.1864   -1.0389 C   0  0  0  0  0  0  0  0  0  0  0  0
   -2.8491    1.8278   -0.4780 C   0  0  0  0  0  0  0  0  0  0  0  0
   -2.1952    1.2758    0.6243 C   0  0  0  0  0  0  0  0  0  0  0  0
   -2.6417    0.0617    1.1515 C   0  0  0  0  0  0  0  0  0  0  0  0
   -1.8146   -0.6498    2.5556 S   0  0  0  0  0  6  0  0  0  0  0  0
   -1.0742    0.3975    3.2249 O   0  0  0  0  0  0  0  0  0  0  0  0
   -2.7828   -1.4566    3.2696 O   0  0  0  0  0  0  0  0  0  0  0  0
   -0.7331   -1.7412    1.8490 N   0  0  0  0  0  0  0  0  0  0  0  0
    0.1711   -1.2825    0.8506 C   0  0  0  0  0  0  0  0  0  0  0  0
    0.0276   -1.7545   -0.4534 C   0  0  0  0  0  0  0  0  0  0  0  0
    0.8776   -1.2886   -1.4546 C   0  0  0  0  0  0  0  0  0  0  0  0
    1.8728   -0.3615   -1.1486 C   0  0  0  0  0  0  0  0  0  0  0  0
    2.6606    0.0301   -2.1958 O   0  0  0  0  0  0  0  0  0  0  0  0
    2.0293    0.1253    0.1571 C   0  0  0  0  0  0  0  0  0  0  0  0
    3.2015    1.3931    0.6164 S   0  0  0  0  0  0  0  0  0  0  0  0
    4.7284    0.6166    0.3187 C   0  0  0  0  0  0  0  0  0  0  0  0
    5.0785    0.1382   -0.9192 N   0  0  0  0  0  0  0  0  0  0  0  0
    6.2896   -0.3287   -0.7187 C   0  0  0  0  0  0  0  0  0  0  0  0
    6.6471   -0.1247    0.5770 N   0  0  0  0  0  0  0  0  0  0  0  0
    5.6676    0.4882    1.2585 N   0  0  0  0  0  0  0  0  0  0  0  0
    1.1630   -0.3471    1.1543 C   0  0  0  0  0  0  0  0  0  0  0  0
   -3.7522   -0.5877    0.6059 C   0  0  0  0  0  0  0  0  0  0  0  0
   -4.4031   -0.0278   -0.4945 C   0  0  0  0  0  0  0  0  0  0  0  0
   -4.1731    1.3900   -3.1568 H   0  0  0  0  0  0  0  0  0  0  0  0
   -5.7055    1.5067   -2.2566 H   0  0  0  0  0  0  0  0  0  0  0  0
   -4.5776    2.8617   -2.2385 H   0  0  0  0  0  0  0  0  0  0  0  0
   -2.4868    2.7654   -0.8955 H   0  0  0  0  0  0  0  0  0  0  0  0
   -1.3397    1.7912    1.0557 H   0  0  0  0  0  0  0  0  0  0  0  0
   -1.1559   -2.6594    1.7242 H   0  0  0  0  0  0  0  0  0  0  0  0
   -0.7480   -2.4706   -0.7086 H   0  0  0  0  0  0  0  0  0  0  0  0
    0.7681   -1.6452   -2.4755 H   0  0  0  0  0  0  0  0  0  0  0  0
    3.5267    0.3118   -1.8313 H   0  0  0  0  0  0  0  0  0  0  0  0
    6.9329   -0.8042   -1.4457 H   0  0  0  0  0  0  0  0  0  0  0  0
    7.5114   -0.3628    1.0514 H   0  0  0  0  0  0  0  0  0  0  0  0
    1.2626    0.0172    2.1753 H   0  0  0  0  0  0  0  0  0  0  0  0
   -4.1167   -1.5208    1.0288 H   0  0  0  0  0  0  0  0  0  0  0  0
   -5.2625   -0.5399   -0.9228 H   0  0  0  0  0  0  0  0  0  0  0  0
  1  2  1  0
  2  3  2  0
  3  4  1  0
  4  5  2  0
  5  6  1  0
  6  7  2  0
  6  8  2  0
  6  9  1  0
  9 10  1  0
 10 11  2  0
 11 12  1  0
 12 13  2  0
 13 14  1  0
 13 15  1  0
 15 16  1  0
 16 17  1  0
 17 18  1  0
 18 19  2  0
 19 20  1  0
 20 21  1  0
 15 22  2  0
  5 23  1  0
 23 24  2  0
 24  2  1  0
 22 10  1  0
 21 17  2  0
  1 25  1  0
  1 26  1  0
  1 27  1  0
  3 28  1  0
  4 29  1  0
  9 30  1  0
 11 31  1  0
 12 32  1  0
 14 33  1  0
 19 34  1  0
 20 35  1  0
 22 36  1  0
 23 37  1  0
 24 38  1  0
M  END
$$$$
