
     RDKit          3D

 32 34  0  0  0  0  0  0  0  0999 V2000
    5.0182   -2.3169    1.9967 C   0  0  0  0  0  0  0  0  0  0  0  0
    4.6285   -1.2577    1.0326 C   0  0  0  0  0  0  0  0  0  0  0  0
    5.4783   -0.4598    0.2913 C   0  0  0  0  0  0  0  0  0  0  0  0
    4.5663    0.6167   -0.6791 S   0  0  0  0  0  0  0  0  0  0  0  0
    3.1298   -0.0436   -0.0498 C   0  0  0  0  0  0  0  0  0  0  0  0
    1.8838    0.3819   -0.4168 N   0  0  0  0  0  0  0  0  0  0  0  0
    1.5554    1.3682   -1.3159 C   0  0  0  0  0  0  0  0  0  0  0  0
    2.3397    2.0516   -1.9638 O   0  0  0  0  0  0  0  0  0  0  0  0
    0.1173    1.5400   -1.4373 C   0  0  0  0  0  0  0  0  0  0  0  0
   -0.6338    2.3861   -2.2281 C   0  0  0  0  0  0  0  0  0  0  0  0
   -1.9928    2.1211   -1.9324 C   0  0  0  0  0  0  0  0  0  0  0  0
   -2.0060    1.1235   -0.9785 C   0  0  0  0  0  0  0  0  0  0  0  0
   -3.0452    0.4015   -0.2493 C   0  0  0  0  0  0  0  0  0  0  0  0
   -2.8458    0.1417    1.1204 C   0  0  0  0  0  0  0  0  0  0  0  0
   -3.8079   -0.5324    1.8775 C   0  0  0  0  0  0  0  0  0  0  0  0
   -4.9848   -0.9589    1.2727 C   0  0  0  0  0  0  0  0  0  0  0  0
   -6.1708   -1.7886    2.2015 Cl  0  0  0  0  0  0  0  0  0  0  0  0
   -5.2068   -0.7206   -0.0801 C   0  0  0  0  0  0  0  0  0  0  0  0
   -4.2424   -0.0451   -0.8395 C   0  0  0  0  0  0  0  0  0  0  0  0
   -4.5921    0.1614   -2.5226 Cl  0  0  0  0  0  0  0  0  0  0  0  0
   -0.7204    0.7740   -0.6678 O   0  0  0  0  0  0  0  0  0  0  0  0
    3.2803   -1.0061    0.8305 N   0  0  0  0  0  0  0  0  0  0  0  0
    6.0646   -2.6104    1.8644 H   0  0  0  0  0  0  0  0  0  0  0  0
    4.3961   -3.2071    1.8582 H   0  0  0  0  0  0  0  0  0  0  0  0
    4.8870   -1.9587    3.0227 H   0  0  0  0  0  0  0  0  0  0  0  0
    6.5586   -0.4574    0.2716 H   0  0  0  0  0  0  0  0  0  0  0  0
    1.1280   -0.1099    0.0409 H   0  0  0  0  0  0  0  0  0  0  0  0
   -0.2363    3.1061   -2.9314 H   0  0  0  0  0  0  0  0  0  0  0  0
   -2.8572    2.6080   -2.3631 H   0  0  0  0  0  0  0  0  0  0  0  0
   -1.9333    0.4748    1.6133 H   0  0  0  0  0  0  0  0  0  0  0  0
   -3.6303   -0.7179    2.9341 H   0  0  0  0  0  0  0  0  0  0  0  0
   -6.1263   -1.0656   -0.5466 H   0  0  0  0  0  0  0  0  0  0  0  0
  1  2  1  0
  2  3  2  0
  3  4  1  0
  4  5  1  0
  5  6  1  0
  6  7  1  0
  7  8  2  0
  7  9  1  0
  9 10  2  0
 10 11  1  0
 11 12  2  0
 12 13  1  0
 13 14  2  0
 14 15  1  0
 15 16  2  0
 16 17  1  0
 16 18  1  0
 18 19  2  0
 19 20  1  0
 12 21  1  0
  5 22  2  0
 22  2  1  0
 21  9  1  0
 19 13  1  0
  1 23  1  0
  1 24  1  0
  1 25  1  0
  3 26  1  0
  6 27  1  0
 10 28  1  0
 11 29  1  0
 14 30  1  0
 15 31  1  0
 18 32  1  0
M  END
$$$$
