
     RDKit          3D

 35 37  0  0  0  0  0  0  0  0999 V2000
   -0.6586    0.6777   -0.5859 O   0  0  0  0  0  0  0  0  0  0  0  0
   -0.4097   -0.0498   -1.5360 C   0  0  0  0  0  0  0  0  0  0  0  0
   -1.3397   -1.0782   -2.0941 C   0  0  0  0  0  0  0  0  0  0  0  0
   -2.5205   -1.4737   -1.5972 C   0  0  0  0  0  0  0  0  0  0  0  0
   -3.1386   -0.9865   -0.3627 C   0  0  0  0  0  0  0  0  0  0  0  0
   -4.2728   -0.1672   -0.4350 C   0  0  0  0  0  0  0  0  0  0  0  0
   -4.8810    0.2917    0.7349 C   0  0  0  0  0  0  0  0  0  0  0  0
   -4.3568   -0.0735    1.9694 C   0  0  0  0  0  0  0  0  0  0  0  0
   -4.9426    0.3661    3.0908 F   0  0  0  0  0  0  0  0  0  0  0  0
   -3.2366   -0.8916    2.0578 C   0  0  0  0  0  0  0  0  0  0  0  0
   -2.6264   -1.3525    0.8897 C   0  0  0  0  0  0  0  0  0  0  0  0
   -0.6909   -1.7360   -3.5606 S   0  0  0  0  0  0  0  0  0  0  0  0
    0.7753   -0.7646   -3.4768 C   0  0  0  0  0  0  0  0  0  0  0  0
    1.9415   -0.7786   -4.6700 S   0  0  0  0  0  0  0  0  0  0  0  0
    0.7490   -0.0331   -2.3047 N   0  0  0  0  0  0  0  0  0  0  0  0
    1.7706    0.9108   -2.0292 N   0  0  0  0  0  0  0  0  0  0  0  0
    2.3681    0.8196   -0.7555 C   0  0  0  0  0  0  0  0  0  0  0  0
    2.4696    2.0158   -0.1244 N   0  0  0  0  0  0  0  0  0  0  0  0
    3.0304    2.0546    1.1072 C   0  0  0  0  0  0  0  0  0  0  0  0
    3.5398    0.9456    1.7585 C   0  0  0  0  0  0  0  0  0  0  0  0
    4.1239    1.0732    3.1304 C   0  0  0  0  0  0  0  0  0  0  0  0
    3.1901    0.9131    4.1059 F   0  0  0  0  0  0  0  0  0  0  0  0
    5.0915    0.1491    3.3820 F   0  0  0  0  0  0  0  0  0  0  0  0
    4.6998    2.2856    3.3551 F   0  0  0  0  0  0  0  0  0  0  0  0
    3.4520   -0.2810    1.0955 C   0  0  0  0  0  0  0  0  0  0  0  0
    2.8715   -0.3523   -0.1745 C   0  0  0  0  0  0  0  0  0  0  0  0
    2.8345   -1.9005   -0.9357 Cl  0  0  0  0  0  0  0  0  0  0  0  0
   -3.1131   -2.2207   -2.1225 H   0  0  0  0  0  0  0  0  0  0  0  0
   -4.6859    0.1247   -1.3977 H   0  0  0  0  0  0  0  0  0  0  0  0
   -5.7561    0.9320    0.6916 H   0  0  0  0  0  0  0  0  0  0  0  0
   -2.8445   -1.1620    3.0328 H   0  0  0  0  0  0  0  0  0  0  0  0
   -1.7493   -1.9903    0.9663 H   0  0  0  0  0  0  0  0  0  0  0  0
    1.4175    1.8700   -2.0727 H   0  0  0  0  0  0  0  0  0  0  0  0
    3.0561    3.0439    1.5615 H   0  0  0  0  0  0  0  0  0  0  0  0
    3.8416   -1.1816    1.5679 H   0  0  0  0  0  0  0  0  0  0  0  0
  1  2  2  0
  2  3  1  0
  3  4  2  3
  4  5  1  0
  5  6  2  0
  6  7  1  0
  7  8  2  0
  8  9  1  0
  8 10  1  0
 10 11  2  0
  3 12  1  0
 12 13  1  0
 13 14  2  0
 13 15  1  0
 15 16  1  0
 16 17  1  0
 17 18  2  0
 18 19  1  0
 19 20  2  0
 20 21  1  0
 21 22  1  0
 21 23  1  0
 21 24  1  0
 20 25  1  0
 25 26  2  0
 26 27  1  0
 15  2  1  0
 26 17  1  0
 11  5  1  0
  4 28  1  0
  6 29  1  0
  7 30  1  0
 10 31  1  0
 11 32  1  0
 16 33  1  0
 19 34  1  0
 25 35  1  0
M  END
$$$$
