
     RDKit          3D

 38 40  0  0  0  0  0  0  0  0999 V2000
   -3.0444    1.2211   -2.4787 C   0  0  0  0  0  0  0  0  0  0  0  0
   -2.9225    1.4208   -0.9934 C   0  0  0  0  0  0  0  0  0  0  0  0
   -2.9477    2.7429   -0.5078 C   0  0  0  0  0  0  0  0  0  0  0  0
   -2.8678    3.0038    0.8582 C   0  0  0  0  0  0  0  0  0  0  0  0
   -2.9088    4.2742    1.2871 F   0  0  0  0  0  0  0  0  0  0  0  0
   -2.7687    1.9686    1.7803 C   0  0  0  0  0  0  0  0  0  0  0  0
   -2.7408    0.6519    1.3248 C   0  0  0  0  0  0  0  0  0  0  0  0
   -2.8016    0.3714   -0.0567 C   0  0  0  0  0  0  0  0  0  0  0  0
   -2.7508   -1.3660   -0.5030 S   0  0  0  0  0  6  0  0  0  0  0  0
   -2.8975   -1.5244   -1.9323 O   0  0  0  0  0  0  0  0  0  0  0  0
   -3.6377   -2.0554    0.4117 O   0  0  0  0  0  0  0  0  0  0  0  0
   -1.1889   -1.8312   -0.0633 N   0  0  0  0  0  0  0  0  0  0  0  0
   -0.0541   -1.0957   -0.5039 C   0  0  0  0  0  0  0  0  0  0  0  0
    0.1850   -0.8535   -1.8557 C   0  0  0  0  0  0  0  0  0  0  0  0
    1.3089   -0.1219   -2.2495 C   0  0  0  0  0  0  0  0  0  0  0  0
    2.2032    0.3490   -1.2858 C   0  0  0  0  0  0  0  0  0  0  0  0
    3.2980    1.0715   -1.6767 O   0  0  0  0  0  0  0  0  0  0  0  0
    1.9911    0.0864    0.0745 C   0  0  0  0  0  0  0  0  0  0  0  0
    3.1157    0.6679    1.3379 S   0  0  0  0  0  0  0  0  0  0  0  0
    4.0593   -0.7686    1.6636 C   0  0  0  0  0  0  0  0  0  0  0  0
    3.7210   -2.0299    1.2382 N   0  0  0  0  0  0  0  0  0  0  0  0
    4.6942   -2.7754    1.7062 C   0  0  0  0  0  0  0  0  0  0  0  0
    5.5689   -1.9973    2.3943 N   0  0  0  0  0  0  0  0  0  0  0  0
    5.1750   -0.7150    2.4024 N   0  0  0  0  0  0  0  0  0  0  0  0
    0.8523   -0.6374    0.4571 C   0  0  0  0  0  0  0  0  0  0  0  0
   -3.1511    2.1781   -3.0030 H   0  0  0  0  0  0  0  0  0  0  0  0
   -3.9364    0.6302   -2.7163 H   0  0  0  0  0  0  0  0  0  0  0  0
   -2.1506    0.7416   -2.8818 H   0  0  0  0  0  0  0  0  0  0  0  0
   -3.0404    3.5866   -1.1878 H   0  0  0  0  0  0  0  0  0  0  0  0
   -2.7210    2.1938    2.8402 H   0  0  0  0  0  0  0  0  0  0  0  0
   -2.6794   -0.1564    2.0509 H   0  0  0  0  0  0  0  0  0  0  0  0
   -1.1550   -2.2684    0.8562 H   0  0  0  0  0  0  0  0  0  0  0  0
   -0.4870   -1.2424   -2.6212 H   0  0  0  0  0  0  0  0  0  0  0  0
    1.4741    0.0565   -3.3076 H   0  0  0  0  0  0  0  0  0  0  0  0
    3.2904    1.1748   -2.6430 H   0  0  0  0  0  0  0  0  0  0  0  0
    4.8114   -3.8429    1.5855 H   0  0  0  0  0  0  0  0  0  0  0  0
    6.4210   -2.2627    2.8760 H   0  0  0  0  0  0  0  0  0  0  0  0
    0.6827   -0.8466    1.5109 H   0  0  0  0  0  0  0  0  0  0  0  0
  1  2  1  0
  2  3  2  0
  3  4  1  0
  4  5  1  0
  4  6  2  0
  6  7  1  0
  7  8  2  0
  8  9  1  0
  9 10  2  0
  9 11  2  0
  9 12  1  0
 12 13  1  0
 13 14  2  0
 14 15  1  0
 15 16  2  0
 16 17  1  0
 16 18  1  0
 18 19  1  0
 19 20  1  0
 20 21  1  0
 21 22  2  0
 22 23  1  0
 23 24  1  0
 18 25  2  0
  8  2  1  0
 25 13  1  0
 24 20  2  0
  1 26  1  0
  1 27  1  0
  1 28  1  0
  3 29  1  0
  6 30  1  0
  7 31  1  0
 12 32  1  0
 14 33  1  0
 15 34  1  0
 17 35  1  0
 22 36  1  0
 23 37  1  0
 25 38  1  0
M  END
$$$$
