
     RDKit          3D

 51 55  0  0  0  0  0  0  0  0999 V2000
   -6.5898    1.3375   -2.0537 F   0  0  0  0  0  0  0  0  0  0  0  0
   -6.2217    0.4812   -1.0921 C   0  0  0  0  0  0  0  0  0  0  0  0
   -7.1505    0.0851   -0.1382 C   0  0  0  0  0  0  0  0  0  0  0  0
   -6.7674   -0.8036    0.8634 C   0  0  0  0  0  0  0  0  0  0  0  0
   -5.4589   -1.2908    0.8995 C   0  0  0  0  0  0  0  0  0  0  0  0
   -4.5206   -0.8961   -0.0672 C   0  0  0  0  0  0  0  0  0  0  0  0
   -3.1038   -1.4184   -0.0187 C   0  0  0  0  0  0  0  0  0  0  0  0
   -2.1784   -0.6027    0.9061 C   0  0  0  0  0  0  0  0  0  0  0  0
   -1.8514    0.7443    0.4027 N   0  0  0  0  0  0  0  0  0  0  0  0
   -1.0226    0.6852   -0.8294 C   0  0  0  0  0  0  0  0  0  0  0  0
    0.0830    1.7577   -0.8934 C   0  0  0  0  0  0  0  0  0  0  0  0
    1.0168    1.5909    0.2397 N   0  0  0  0  0  0  0  0  0  0  0  0
    2.1943    0.8672    0.0331 C   0  0  0  0  0  0  0  0  0  0  0  0
    2.2885    0.1056   -1.0291 N   0  0  0  0  0  0  0  0  0  0  0  0
    3.4362   -0.6761   -1.2595 C   0  0  0  0  0  0  0  0  0  0  0  0
    3.4767   -1.4728   -2.4056 C   0  0  0  0  0  0  0  0  0  0  0  0
    4.5874   -2.2747   -2.6785 C   0  0  0  0  0  0  0  0  0  0  0  0
    5.6718   -2.2894   -1.8011 C   0  0  0  0  0  0  0  0  0  0  0  0
    5.6526   -1.5016   -0.6495 C   0  0  0  0  0  0  0  0  0  0  0  0
    4.5345   -0.7030   -0.3913 C   0  0  0  0  0  0  0  0  0  0  0  0
    4.4378    0.1317    0.7334 N   0  0  0  0  0  0  0  0  0  0  0  0
    5.3440    0.3397    1.7456 C   0  0  0  0  0  0  0  0  0  0  0  0
    4.8342    1.3020    2.5889 C   0  0  0  0  0  0  0  0  0  0  0  0
    3.5706    1.6790    2.0771 C   0  0  0  0  0  0  0  0  0  0  0  0
    3.3247    0.9147    0.9501 C   0  0  0  0  0  0  0  0  0  0  0  0
    0.3327    1.4373    1.5433 C   0  0  0  0  0  0  0  0  0  0  0  0
   -1.2030    1.5737    1.4402 C   0  0  0  0  0  0  0  0  0  0  0  0
   -4.9156    0.0029   -1.0648 C   0  0  0  0  0  0  0  0  0  0  0  0
   -8.1629    0.4717   -0.1808 H   0  0  0  0  0  0  0  0  0  0  0  0
   -7.4856   -1.1167    1.6163 H   0  0  0  0  0  0  0  0  0  0  0  0
   -5.1737   -1.9824    1.6889 H   0  0  0  0  0  0  0  0  0  0  0  0
   -2.6958   -1.4837   -1.0345 H   0  0  0  0  0  0  0  0  0  0  0  0
   -3.1327   -2.4543    0.3436 H   0  0  0  0  0  0  0  0  0  0  0  0
   -2.6752   -0.5147    1.8810 H   0  0  0  0  0  0  0  0  0  0  0  0
   -1.2556   -1.1727    1.0792 H   0  0  0  0  0  0  0  0  0  0  0  0
   -0.5418   -0.2965   -0.9284 H   0  0  0  0  0  0  0  0  0  0  0  0
   -1.6845    0.8060   -1.6939 H   0  0  0  0  0  0  0  0  0  0  0  0
    0.6025    1.7097   -1.8578 H   0  0  0  0  0  0  0  0  0  0  0  0
   -0.3567    2.7620   -0.8495 H   0  0  0  0  0  0  0  0  0  0  0  0
    2.6326   -1.4656   -3.0901 H   0  0  0  0  0  0  0  0  0  0  0  0
    4.6037   -2.8876   -3.5764 H   0  0  0  0  0  0  0  0  0  0  0  0
    6.5340   -2.9158   -2.0172 H   0  0  0  0  0  0  0  0  0  0  0  0
    6.5088   -1.5260    0.0148 H   0  0  0  0  0  0  0  0  0  0  0  0
    6.2838   -0.1899    1.7865 H   0  0  0  0  0  0  0  0  0  0  0  0
    5.3257    1.6978    3.4680 H   0  0  0  0  0  0  0  0  0  0  0  0
    2.9160    2.4337    2.4895 H   0  0  0  0  0  0  0  0  0  0  0  0
    0.6978    2.2043    2.2333 H   0  0  0  0  0  0  0  0  0  0  0  0
    0.5662    0.4554    1.9735 H   0  0  0  0  0  0  0  0  0  0  0  0
   -1.4403    2.6209    1.2117 H   0  0  0  0  0  0  0  0  0  0  0  0
   -1.6537    1.3962    2.4244 H   0  0  0  0  0  0  0  0  0  0  0  0
   -4.2149    0.3418   -1.8208 H   0  0  0  0  0  0  0  0  0  0  0  0
  1  2  1  0
  2  3  2  0
  3  4  1  0
  4  5  2  0
  5  6  1  0
  6  7  1  0
  7  8  1  0
  8  9  1  0
  9 10  1  0
 10 11  1  0
 11 12  1  0
 12 13  1  0
 13 14  2  0
 14 15  1  0
 15 16  2  0
 16 17  1  0
 17 18  2  0
 18 19  1  0
 19 20  2  0
 20 21  1  0
 21 22  1  0
 22 23  2  0
 23 24  1  0
 24 25  2  0
 12 26  1  0
 26 27  1  0
  6 28  2  0
 28  2  1  0
 27  9  1  0
 25 13  1  0
 20 15  1  0
 25 21  1  0
  3 29  1  0
  4 30  1  0
  5 31  1  0
  7 32  1  0
  7 33  1  0
  8 34  1  0
  8 35  1  0
 10 36  1  0
 10 37  1  0
 11 38  1  0
 11 39  1  0
 16 40  1  0
 17 41  1  0
 18 42  1  0
 19 43  1  0
 22 44  1  0
 23 45  1  0
 24 46  1  0
 26 47  1  0
 26 48  1  0
 27 49  1  0
 27 50  1  0
 28 51  1  0
M  END
$$$$
