
     RDKit          3D

 42 44  0  0  0  0  0  0  0  0999 V2000
   -5.9230   -3.0795   -0.8479 C   0  0  0  0  0  0  0  0  0  0  0  0
   -5.0804   -1.9656   -0.5836 O   0  0  0  0  0  0  0  0  0  0  0  0
   -5.6677   -0.8260   -0.0905 C   0  0  0  0  0  0  0  0  0  0  0  0
   -7.0369   -0.6954    0.1729 C   0  0  0  0  0  0  0  0  0  0  0  0
   -7.5519    0.5027    0.6736 C   0  0  0  0  0  0  0  0  0  0  0  0
   -6.7069    1.5817    0.9105 C   0  0  0  0  0  0  0  0  0  0  0  0
   -5.3412    1.4642    0.6527 C   0  0  0  0  0  0  0  0  0  0  0  0
   -4.8038    0.2614    0.1646 C   0  0  0  0  0  0  0  0  0  0  0  0
   -3.3621    0.1578   -0.1331 C   0  0  0  0  0  0  0  0  0  0  0  0
   -2.4017    0.6375    0.6714 C   0  0  0  0  0  0  0  0  0  0  0  0
   -0.9729    0.5079    0.3746 C   0  0  0  0  0  0  0  0  0  0  0  0
   -0.0012    0.9384    1.1070 N   0  0  0  0  0  0  0  0  0  0  0  0
    1.1124    0.5715    0.3922 C   0  0  0  0  0  0  0  0  0  0  0  0
    2.3617    0.8303    0.8034 C   0  0  0  0  0  0  0  0  0  0  0  0
    3.5969    0.4952    0.1264 C   0  0  0  0  0  0  0  0  0  0  0  0
    4.8029    0.7838    0.6421 C   0  0  0  0  0  0  0  0  0  0  0  0
    6.0814    0.4692   -0.0147 C   0  0  0  0  0  0  0  0  0  0  0  0
    7.1678    1.3347    0.1731 C   0  0  0  0  0  0  0  0  0  0  0  0
    8.4082    1.0596   -0.4086 C   0  0  0  0  0  0  0  0  0  0  0  0
    8.5790   -0.0903   -1.1758 C   0  0  0  0  0  0  0  0  0  0  0  0
    7.5119   -0.9672   -1.3575 C   0  0  0  0  0  0  0  0  0  0  0  0
    6.2713   -0.6920   -0.7758 C   0  0  0  0  0  0  0  0  0  0  0  0
    0.6999   -0.1327   -0.8573 C   0  0  0  0  0  0  0  0  0  0  0  0
    1.3695   -0.6147   -1.7479 O   0  0  0  0  0  0  0  0  0  0  0  0
   -0.6590   -0.1206   -0.7787 O   0  0  0  0  0  0  0  0  0  0  0  0
   -5.2953   -3.8885   -1.2339 H   0  0  0  0  0  0  0  0  0  0  0  0
   -6.6653   -2.8398   -1.6163 H   0  0  0  0  0  0  0  0  0  0  0  0
   -6.4014   -3.4390    0.0689 H   0  0  0  0  0  0  0  0  0  0  0  0
   -7.7337   -1.5083   -0.0019 H   0  0  0  0  0  0  0  0  0  0  0  0
   -8.6169    0.5936    0.8731 H   0  0  0  0  0  0  0  0  0  0  0  0
   -7.1102    2.5172    1.2900 H   0  0  0  0  0  0  0  0  0  0  0  0
   -4.7032    2.3277    0.8259 H   0  0  0  0  0  0  0  0  0  0  0  0
   -3.1196   -0.3751   -1.0503 H   0  0  0  0  0  0  0  0  0  0  0  0
   -2.6298    1.1391    1.6055 H   0  0  0  0  0  0  0  0  0  0  0  0
    2.4649    1.3531    1.7534 H   0  0  0  0  0  0  0  0  0  0  0  0
    3.5285    0.0046   -0.8418 H   0  0  0  0  0  0  0  0  0  0  0  0
    4.8852    1.2980    1.5972 H   0  0  0  0  0  0  0  0  0  0  0  0
    7.0557    2.2385    0.7677 H   0  0  0  0  0  0  0  0  0  0  0  0
    9.2398    1.7437   -0.2617 H   0  0  0  0  0  0  0  0  0  0  0  0
    9.5432   -0.3052   -1.6286 H   0  0  0  0  0  0  0  0  0  0  0  0
    7.6436   -1.8694   -1.9491 H   0  0  0  0  0  0  0  0  0  0  0  0
    5.4600   -1.4018   -0.9192 H   0  0  0  0  0  0  0  0  0  0  0  0
  1  2  1  0
  2  3  1  0
  3  4  2  0
  4  5  1  0
  5  6  2  0
  6  7  1  0
  7  8  2  0
  8  9  1  0
  9 10  2  3
 10 11  1  0
 11 12  2  0
 12 13  1  0
 13 14  2  3
 14 15  1  0
 15 16  2  3
 16 17  1  0
 17 18  2  0
 18 19  1  0
 19 20  2  0
 20 21  1  0
 21 22  2  0
 13 23  1  0
 23 24  2  0
 23 25  1  0
  8  3  1  0
 25 11  1  0
 22 17  1  0
  1 26  1  0
  1 27  1  0
  1 28  1  0
  4 29  1  0
  5 30  1  0
  6 31  1  0
  7 32  1  0
  9 33  1  0
 10 34  1  0
 14 35  1  0
 15 36  1  0
 16 37  1  0
 18 38  1  0
 19 39  1  0
 20 40  1  0
 21 41  1  0
 22 42  1  0
M  END
$$$$
