
     RDKit          3D

 38 40  0  0  0  0  0  0  0  0999 V2000
   -5.3590    2.6943    1.3195 C   0  0  0  0  0  0  0  0  0  0  0  0
   -4.5209    1.7469    0.5130 C   0  0  0  0  0  0  0  0  0  0  0  0
   -4.6995    0.3656    0.6595 C   0  0  0  0  0  0  0  0  0  0  0  0
   -3.9115   -0.5301   -0.0656 C   0  0  0  0  0  0  0  0  0  0  0  0
   -2.9299   -0.0404   -0.9315 C   0  0  0  0  0  0  0  0  0  0  0  0
   -1.9288   -1.1829   -1.8499 S   0  0  0  0  0  6  0  0  0  0  0  0
   -2.7711   -2.3101   -2.1968 O   0  0  0  0  0  0  0  0  0  0  0  0
   -1.1955   -0.4594   -2.8664 O   0  0  0  0  0  0  0  0  0  0  0  0
   -0.8511   -1.7553   -0.6750 N   0  0  0  0  0  0  0  0  0  0  0  0
    0.3292   -1.0003   -0.4286 C   0  0  0  0  0  0  0  0  0  0  0  0
    0.2863    0.1121    0.4091 C   0  0  0  0  0  0  0  0  0  0  0  0
    1.4354    0.8784    0.6006 C   0  0  0  0  0  0  0  0  0  0  0  0
    2.6216    0.5290   -0.0423 C   0  0  0  0  0  0  0  0  0  0  0  0
    3.6935    1.3464    0.2003 O   0  0  0  0  0  0  0  0  0  0  0  0
    2.6787   -0.5911   -0.8856 C   0  0  0  0  0  0  0  0  0  0  0  0
    4.1502   -1.0864   -1.7672 S   0  0  0  0  0  0  0  0  0  0  0  0
    5.2454   -1.3850   -0.4485 C   0  0  0  0  0  0  0  0  0  0  0  0
    5.3408   -2.5765    0.2109 N   0  0  0  0  0  0  0  0  0  0  0  0
    6.2182   -2.3222    1.1518 C   0  0  0  0  0  0  0  0  0  0  0  0
    6.6281   -1.0281    1.0566 N   0  0  0  0  0  0  0  0  0  0  0  0
    6.0059   -0.4009    0.0416 N   0  0  0  0  0  0  0  0  0  0  0  0
    1.5133   -1.3456   -1.0831 C   0  0  0  0  0  0  0  0  0  0  0  0
   -2.7480    1.3337   -1.0975 C   0  0  0  0  0  0  0  0  0  0  0  0
   -3.5380    2.2237   -0.3664 C   0  0  0  0  0  0  0  0  0  0  0  0
   -5.2315    3.7293    0.9797 H   0  0  0  0  0  0  0  0  0  0  0  0
   -5.0637    2.6458    2.3733 H   0  0  0  0  0  0  0  0  0  0  0  0
   -6.4204    2.4349    1.2333 H   0  0  0  0  0  0  0  0  0  0  0  0
   -5.4580   -0.0186    1.3394 H   0  0  0  0  0  0  0  0  0  0  0  0
   -4.0663   -1.5995    0.0489 H   0  0  0  0  0  0  0  0  0  0  0  0
   -0.7554   -2.7687   -0.7517 H   0  0  0  0  0  0  0  0  0  0  0  0
   -0.6285    0.3878    0.9256 H   0  0  0  0  0  0  0  0  0  0  0  0
    1.4086    1.7494    1.2508 H   0  0  0  0  0  0  0  0  0  0  0  0
    4.4923    0.9429   -0.1876 H   0  0  0  0  0  0  0  0  0  0  0  0
    6.5794   -3.0089    1.9033 H   0  0  0  0  0  0  0  0  0  0  0  0
    7.2944   -0.5229    1.6276 H   0  0  0  0  0  0  0  0  0  0  0  0
    1.5277   -2.1981   -1.7578 H   0  0  0  0  0  0  0  0  0  0  0  0
   -1.9926    1.7179   -1.7811 H   0  0  0  0  0  0  0  0  0  0  0  0
   -3.3793    3.2928   -0.4897 H   0  0  0  0  0  0  0  0  0  0  0  0
  1  2  1  0
  2  3  2  0
  3  4  1  0
  4  5  2  0
  5  6  1  0
  6  7  2  0
  6  8  2  0
  6  9  1  0
  9 10  1  0
 10 11  2  0
 11 12  1  0
 12 13  2  0
 13 14  1  0
 13 15  1  0
 15 16  1  0
 16 17  1  0
 17 18  1  0
 18 19  2  0
 19 20  1  0
 20 21  1  0
 15 22  2  0
  5 23  1  0
 23 24  2  0
 24  2  1  0
 22 10  1  0
 21 17  2  0
  1 25  1  0
  1 26  1  0
  1 27  1  0
  3 28  1  0
  4 29  1  0
  9 30  1  0
 11 31  1  0
 12 32  1  0
 14 33  1  0
 19 34  1  0
 20 35  1  0
 22 36  1  0
 23 37  1  0
 24 38  1  0
M  END
$$$$
