
     RDKit          3D

 39 40  0  0  0  0  0  0  0  0999 V2000
    5.9774    2.6860   -0.9388 C   0  0  0  0  0  0  0  0  0  0  0  0
    5.9593    1.1989   -1.2708 C   0  0  0  0  0  0  0  0  0  0  0  0
    4.8961    0.4284   -0.4705 C   0  0  0  0  0  0  0  0  0  0  0  0
    5.1162   -1.0786   -0.6250 C   0  0  0  0  0  0  0  0  0  0  0  0
    3.4682    0.7719   -0.9135 C   0  0  0  0  0  0  0  0  0  0  0  0
    3.2362    1.3297   -1.9793 O   0  0  0  0  0  0  0  0  0  0  0  0
    2.5285    0.3577    0.0068 N   0  0  0  0  0  0  0  0  0  0  0  0
    1.1882    0.5491   -0.1854 C   0  0  0  0  0  0  0  0  0  0  0  0
    0.5361    1.1038   -1.1760 N   0  0  0  0  0  0  0  0  0  0  0  0
   -0.8305    1.0911   -0.9636 N   0  0  0  0  0  0  0  0  0  0  0  0
   -1.1486    0.5226    0.1806 C   0  0  0  0  0  0  0  0  0  0  0  0
   -2.5437    0.3543    0.6836 C   0  0  0  0  0  0  0  0  0  0  0  0
   -3.2350   -0.8229   -0.0060 C   0  0  0  0  0  0  0  0  0  0  0  0
   -4.6430   -1.0116    0.5017 C   0  0  0  0  0  0  0  0  0  0  0  0
   -5.7054   -0.3058   -0.0788 C   0  0  0  0  0  0  0  0  0  0  0  0
   -7.0052   -0.4625    0.4042 C   0  0  0  0  0  0  0  0  0  0  0  0
   -7.2543   -1.3220    1.4726 C   0  0  0  0  0  0  0  0  0  0  0  0
   -6.2039   -2.0251    2.0595 C   0  0  0  0  0  0  0  0  0  0  0  0
   -4.9029   -1.8700    1.5784 C   0  0  0  0  0  0  0  0  0  0  0  0
    0.2052   -0.0382    1.0826 S   0  0  0  0  0  0  0  0  0  0  0  0
    6.1687    2.8459    0.1272 H   0  0  0  0  0  0  0  0  0  0  0  0
    5.0298    3.1694   -1.1934 H   0  0  0  0  0  0  0  0  0  0  0  0
    6.7709    3.1868   -1.5026 H   0  0  0  0  0  0  0  0  0  0  0  0
    5.8007    1.0718   -2.3485 H   0  0  0  0  0  0  0  0  0  0  0  0
    6.9527    0.7911   -1.0466 H   0  0  0  0  0  0  0  0  0  0  0  0
    4.9983    0.6898    0.5908 H   0  0  0  0  0  0  0  0  0  0  0  0
    6.1232   -1.3618   -0.3011 H   0  0  0  0  0  0  0  0  0  0  0  0
    4.9919   -1.3899   -1.6683 H   0  0  0  0  0  0  0  0  0  0  0  0
    4.4021   -1.6518   -0.0244 H   0  0  0  0  0  0  0  0  0  0  0  0
    2.8056   -0.0942    0.8640 H   0  0  0  0  0  0  0  0  0  0  0  0
   -2.5490    0.2154    1.7721 H   0  0  0  0  0  0  0  0  0  0  0  0
   -3.0990    1.2813    0.4914 H   0  0  0  0  0  0  0  0  0  0  0  0
   -3.2581   -0.6725   -1.0936 H   0  0  0  0  0  0  0  0  0  0  0  0
   -2.6647   -1.7482    0.1502 H   0  0  0  0  0  0  0  0  0  0  0  0
   -5.5270    0.3698   -0.9130 H   0  0  0  0  0  0  0  0  0  0  0  0
   -7.8240    0.0862   -0.0541 H   0  0  0  0  0  0  0  0  0  0  0  0
   -8.2672   -1.4441    1.8469 H   0  0  0  0  0  0  0  0  0  0  0  0
   -6.3989   -2.6957    2.8924 H   0  0  0  0  0  0  0  0  0  0  0  0
   -4.0950   -2.4261    2.0483 H   0  0  0  0  0  0  0  0  0  0  0  0
  1  2  1  0
  2  3  1  0
  3  4  1  0
  3  5  1  0
  5  6  2  0
  5  7  1  0
  7  8  1  0
  8  9  2  0
  9 10  1  0
 10 11  2  0
 11 12  1  0
 12 13  1  0
 13 14  1  0
 14 15  2  0
 15 16  1  0
 16 17  2  0
 17 18  1  0
 18 19  2  0
 11 20  1  0
 20  8  1  0
 19 14  1  0
  1 21  1  0
  1 22  1  0
  1 23  1  0
  2 24  1  0
  2 25  1  0
  3 26  1  0
  4 27  1  0
  4 28  1  0
  4 29  1  0
  7 30  1  0
 12 31  1  0
 12 32  1  0
 13 33  1  0
 13 34  1  0
 15 35  1  0
 16 36  1  0
 17 37  1  0
 18 38  1  0
 19 39  1  0
M  END
$$$$
