
     RDKit          3D

 46 47  0  0  0  0  0  0  0  0999 V2000
    0.7329    1.7670   -3.7398 C   0  0  0  0  0  0  0  0  0  0  0  0
    1.3566    0.3970   -3.6419 C   0  0  0  0  0  0  0  0  0  0  0  0
    1.2870   -0.3930   -4.5777 O   0  0  0  0  0  0  0  0  0  0  0  0
    1.9409    0.1754   -2.4131 N   0  0  0  0  0  0  0  0  0  0  0  0
    2.6148   -0.9793   -1.9622 C   0  0  0  0  0  0  0  0  0  0  0  0
    2.8582   -2.0970   -2.7620 C   0  0  0  0  0  0  0  0  0  0  0  0
    3.5527   -3.1995   -2.2496 C   0  0  0  0  0  0  0  0  0  0  0  0
    4.0186   -3.1935   -0.9356 C   0  0  0  0  0  0  0  0  0  0  0  0
    3.7834   -2.0872   -0.1241 C   0  0  0  0  0  0  0  0  0  0  0  0
    3.0690   -0.9994   -0.6320 C   0  0  0  0  0  0  0  0  0  0  0  0
    2.8713    0.0889    0.1831 O   0  0  0  0  0  0  0  0  0  0  0  0
    1.7215   -0.0883    1.0234 C   0  0  0  0  0  0  0  0  0  0  0  0
    2.1334    0.2778    2.4448 C   0  0  0  0  0  0  0  0  0  0  0  0
    0.5814    0.8326    0.5500 C   0  0  0  0  0  0  0  0  0  0  0  0
    0.7188    1.6498   -0.3602 O   0  0  0  0  0  0  0  0  0  0  0  0
   -0.6161    0.6477    1.2070 N   0  0  0  0  0  0  0  0  0  0  0  0
   -1.8094    1.4045    0.8647 C   0  0  0  0  0  0  0  0  0  0  0  0
   -1.7518    2.8225    1.4405 C   0  0  0  0  0  0  0  0  0  0  0  0
   -3.0378    0.6296    1.3119 C   0  0  0  0  0  0  0  0  0  0  0  0
   -3.7734   -0.1041    0.3637 C   0  0  0  0  0  0  0  0  0  0  0  0
   -4.8908   -0.8474    0.7486 C   0  0  0  0  0  0  0  0  0  0  0  0
   -5.2731   -0.8679    2.0831 C   0  0  0  0  0  0  0  0  0  0  0  0
   -6.3437   -1.5823    2.4531 F   0  0  0  0  0  0  0  0  0  0  0  0
   -4.5565   -0.1631    3.0415 C   0  0  0  0  0  0  0  0  0  0  0  0
   -3.4378    0.5805    2.6593 C   0  0  0  0  0  0  0  0  0  0  0  0
    0.6475    2.0529   -4.7921 H   0  0  0  0  0  0  0  0  0  0  0  0
    1.3522    2.5143   -3.2356 H   0  0  0  0  0  0  0  0  0  0  0  0
   -0.2616    1.7458   -3.2869 H   0  0  0  0  0  0  0  0  0  0  0  0
    1.8367    0.9162   -1.7171 H   0  0  0  0  0  0  0  0  0  0  0  0
    2.5300   -2.1386   -3.7959 H   0  0  0  0  0  0  0  0  0  0  0  0
    3.7388   -4.0593   -2.8892 H   0  0  0  0  0  0  0  0  0  0  0  0
    4.5720   -4.0462   -0.5512 H   0  0  0  0  0  0  0  0  0  0  0  0
    4.1614   -2.0689    0.8934 H   0  0  0  0  0  0  0  0  0  0  0  0
    1.3503   -1.1229    1.0090 H   0  0  0  0  0  0  0  0  0  0  0  0
    1.3134    0.1385    3.1559 H   0  0  0  0  0  0  0  0  0  0  0  0
    2.9819   -0.3343    2.7685 H   0  0  0  0  0  0  0  0  0  0  0  0
    2.4556    1.3241    2.4991 H   0  0  0  0  0  0  0  0  0  0  0  0
   -0.7024   -0.0835    1.9011 H   0  0  0  0  0  0  0  0  0  0  0  0
   -1.8353    1.5053   -0.2283 H   0  0  0  0  0  0  0  0  0  0  0  0
   -2.6771    3.3701    1.2306 H   0  0  0  0  0  0  0  0  0  0  0  0
   -1.5953    2.8198    2.5247 H   0  0  0  0  0  0  0  0  0  0  0  0
   -0.9217    3.3872    1.0023 H   0  0  0  0  0  0  0  0  0  0  0  0
   -3.4788   -0.1017   -0.6845 H   0  0  0  0  0  0  0  0  0  0  0  0
   -5.4619   -1.4102    0.0169 H   0  0  0  0  0  0  0  0  0  0  0  0
   -4.8723   -0.1982    4.0794 H   0  0  0  0  0  0  0  0  0  0  0  0
   -2.8838    1.1184    3.4249 H   0  0  0  0  0  0  0  0  0  0  0  0
  1  2  1  0
  2  3  2  0
  2  4  1  0
  4  5  1  0
  5  6  2  0
  6  7  1  0
  7  8  2  0
  8  9  1  0
  9 10  2  0
 10 11  1  0
 11 12  1  0
 12 13  1  0
 12 14  1  0
 14 15  2  0
 14 16  1  0
 16 17  1  0
 17 18  1  0
 17 19  1  0
 19 20  2  0
 20 21  1  0
 21 22  2  0
 22 23  1  0
 22 24  1  0
 24 25  2  0
 10  5  1  0
 25 19  1  0
  1 26  1  0
  1 27  1  0
  1 28  1  0
  4 29  1  0
  6 30  1  0
  7 31  1  0
  8 32  1  0
  9 33  1  0
 12 34  1  0
 13 35  1  0
 13 36  1  0
 13 37  1  0
 16 38  1  0
 17 39  1  0
 18 40  1  0
 18 41  1  0
 18 42  1  0
 20 43  1  0
 21 44  1  0
 24 45  1  0
 25 46  1  0
M  END
$$$$
