
     RDKit          3D

 51 53  0  0  0  0  0  0  0  0999 V2000
    9.6271    0.3015    1.8684 C   0  0  0  0  0  0  0  0  0  0  0  0
    8.2277    0.2639    1.6204 O   0  0  0  0  0  0  0  0  0  0  0  0
    7.8294   -0.0694    0.3538 C   0  0  0  0  0  0  0  0  0  0  0  0
    8.6740   -0.3739   -0.7132 C   0  0  0  0  0  0  0  0  0  0  0  0
    8.1338   -0.6985   -1.9582 C   0  0  0  0  0  0  0  0  0  0  0  0
    6.7501   -0.7193   -2.1389 C   0  0  0  0  0  0  0  0  0  0  0  0
    5.8918   -0.4159   -1.0773 C   0  0  0  0  0  0  0  0  0  0  0  0
    4.5118   -0.4580   -1.3367 N   0  0  0  0  0  0  0  0  0  0  0  0
    3.4750   -0.2027   -0.4655 C   0  0  0  0  0  0  0  0  0  0  0  0
    3.5078    0.1146    0.7158 O   0  0  0  0  0  0  0  0  0  0  0  0
    2.1020   -0.3573   -1.1425 C   0  0  0  0  0  0  0  0  0  0  0  0
    2.0510   -0.6722   -2.3244 O   0  0  0  0  0  0  0  0  0  0  0  0
    1.0636   -0.1035   -0.2680 N   0  0  0  0  0  0  0  0  0  0  0  0
   -0.2330   -0.1897   -0.6790 N   0  0  0  0  0  0  0  0  0  0  0  0
   -1.1206    0.0704    0.2260 C   0  0  0  0  0  0  0  0  0  0  0  0
   -2.5262    0.0047   -0.1273 C   0  0  0  0  0  0  0  0  0  0  0  0
   -3.0745   -0.3115   -1.3926 C   0  0  0  0  0  0  0  0  0  0  0  0
   -4.4503   -0.2495   -1.3059 C   0  0  0  0  0  0  0  0  0  0  0  0
   -5.4218   -0.4131   -2.4258 C   0  0  0  0  0  0  0  0  0  0  0  0
   -4.7824    0.0946    0.0003 N   0  0  0  0  0  0  0  0  0  0  0  0
   -6.1031    0.2937    0.5003 C   0  0  0  0  0  0  0  0  0  0  0  0
   -6.3921    1.4108    1.2929 C   0  0  0  0  0  0  0  0  0  0  0  0
   -7.6885    1.6081    1.7760 C   0  0  0  0  0  0  0  0  0  0  0  0
   -8.7007    0.6928    1.4736 C   0  0  0  0  0  0  0  0  0  0  0  0
  -10.2783    1.0018    2.1058 Cl  0  0  0  0  0  0  0  0  0  0  0  0
   -8.4132   -0.4251    0.6827 C   0  0  0  0  0  0  0  0  0  0  0  0
   -9.6108   -1.6034    0.2771 Cl  0  0  0  0  0  0  0  0  0  0  0  0
   -7.1164   -0.6237    0.1954 C   0  0  0  0  0  0  0  0  0  0  0  0
   -3.5982    0.2239    0.7319 C   0  0  0  0  0  0  0  0  0  0  0  0
   -3.5598    0.4703    2.2067 C   0  0  0  0  0  0  0  0  0  0  0  0
    6.4409   -0.0922    0.1653 C   0  0  0  0  0  0  0  0  0  0  0  0
    9.7735    0.5806    2.9163 H   0  0  0  0  0  0  0  0  0  0  0  0
   10.1173    1.0608    1.2502 H   0  0  0  0  0  0  0  0  0  0  0  0
   10.0810   -0.6839    1.7199 H   0  0  0  0  0  0  0  0  0  0  0  0
    9.7538   -0.3679   -0.6100 H   0  0  0  0  0  0  0  0  0  0  0  0
    8.7925   -0.9359   -2.7900 H   0  0  0  0  0  0  0  0  0  0  0  0
    6.3554   -0.9755   -3.1190 H   0  0  0  0  0  0  0  0  0  0  0  0
    4.2122   -0.7056   -2.2785 H   0  0  0  0  0  0  0  0  0  0  0  0
    1.3020    0.1475    0.6905 H   0  0  0  0  0  0  0  0  0  0  0  0
   -0.8509    0.3465    1.2594 H   0  0  0  0  0  0  0  0  0  0  0  0
   -2.5101   -0.5378   -2.2908 H   0  0  0  0  0  0  0  0  0  0  0  0
   -4.9192   -0.2761   -3.3898 H   0  0  0  0  0  0  0  0  0  0  0  0
   -6.2263    0.3269   -2.3779 H   0  0  0  0  0  0  0  0  0  0  0  0
   -5.8519   -1.4189   -2.4226 H   0  0  0  0  0  0  0  0  0  0  0  0
   -5.6351    2.1610    1.5092 H   0  0  0  0  0  0  0  0  0  0  0  0
   -7.9055    2.4855    2.3814 H   0  0  0  0  0  0  0  0  0  0  0  0
   -6.9010   -1.5181   -0.3836 H   0  0  0  0  0  0  0  0  0  0  0  0
   -2.6650    0.0250    2.6535 H   0  0  0  0  0  0  0  0  0  0  0  0
   -4.4137    0.0199    2.7214 H   0  0  0  0  0  0  0  0  0  0  0  0
   -3.5373    1.5441    2.4153 H   0  0  0  0  0  0  0  0  0  0  0  0
    5.8122    0.1498    1.0165 H   0  0  0  0  0  0  0  0  0  0  0  0
  1  2  1  0
  2  3  1  0
  3  4  2  0
  4  5  1  0
  5  6  2  0
  6  7  1  0
  7  8  1  0
  8  9  1  0
  9 10  2  0
  9 11  1  0
 11 12  2  0
 11 13  1  0
 13 14  1  0
 14 15  2  3
 15 16  1  0
 16 17  1  0
 17 18  2  0
 18 19  1  0
 18 20  1  0
 20 21  1  0
 21 22  2  0
 22 23  1  0
 23 24  2  0
 24 25  1  0
 24 26  1  0
 26 27  1  0
 26 28  2  0
 20 29  1  0
 29 30  1  0
  7 31  2  0
 31  3  1  0
 29 16  2  0
 28 21  1  0
  1 32  1  0
  1 33  1  0
  1 34  1  0
  4 35  1  0
  5 36  1  0
  6 37  1  0
  8 38  1  0
 13 39  1  0
 15 40  1  0
 17 41  1  0
 19 42  1  0
 19 43  1  0
 19 44  1  0
 22 45  1  0
 23 46  1  0
 28 47  1  0
 30 48  1  0
 30 49  1  0
 30 50  1  0
 31 51  1  0
M  END
$$$$
