
     RDKit          3D

 38 40  0  0  0  0  0  0  0  0999 V2000
   -6.5521    2.0247   -1.2694 C   0  0  0  0  0  0  0  0  0  0  0  0
   -6.2454    0.6075   -0.8266 C   0  0  0  0  0  0  0  0  0  0  0  0
   -5.4104    0.0019   -1.8146 O   0  0  0  0  0  0  0  0  0  0  0  0
   -5.0645   -1.3496   -1.4894 C   0  0  0  0  0  0  0  0  0  0  0  0
   -3.9237   -1.3548   -0.5273 C   0  0  0  0  0  0  0  0  0  0  0  0
   -4.0124   -1.7087    0.7397 N   0  0  0  0  0  0  0  0  0  0  0  0
   -2.7977   -1.6091    1.3933 N   0  0  0  0  0  0  0  0  0  0  0  0
   -1.8496   -1.1871    0.5944 C   0  0  0  0  0  0  0  0  0  0  0  0
   -0.5283   -0.9502    0.8356 N   0  0  0  0  0  0  0  0  0  0  0  0
    0.0488   -1.1370    2.0696 C   0  0  0  0  0  0  0  0  0  0  0  0
   -0.5097   -1.5304    3.0891 O   0  0  0  0  0  0  0  0  0  0  0  0
    1.5409   -0.7967    2.0851 C   0  0  0  0  0  0  0  0  0  0  0  0
    1.9834   -0.3675    0.7982 O   0  0  0  0  0  0  0  0  0  0  0  0
    3.3049   -0.0308    0.6771 C   0  0  0  0  0  0  0  0  0  0  0  0
    4.2614   -0.0736    1.7095 C   0  0  0  0  0  0  0  0  0  0  0  0
    5.5910    0.2959    1.4667 C   0  0  0  0  0  0  0  0  0  0  0  0
    5.9260    0.6989    0.1933 C   0  0  0  0  0  0  0  0  0  0  0  0
    4.9958    0.7418   -0.8160 C   0  0  0  0  0  0  0  0  0  0  0  0
    3.6810    0.3841   -0.6060 C   0  0  0  0  0  0  0  0  0  0  0  0
    5.5270    1.1657   -1.9938 O   0  0  0  0  0  0  0  0  0  0  0  0
    6.9004    1.3854   -1.6084 C   0  0  0  0  0  0  0  0  0  0  0  0
    7.1601    1.0899   -0.2200 O   0  0  0  0  0  0  0  0  0  0  0  0
   -2.3393   -0.8861   -1.0127 S   0  0  0  0  0  0  0  0  0  0  0  0
   -7.1950    2.5299   -0.5432 H   0  0  0  0  0  0  0  0  0  0  0  0
   -7.0514    2.0249   -2.2440 H   0  0  0  0  0  0  0  0  0  0  0  0
   -5.6280    2.6008   -1.3845 H   0  0  0  0  0  0  0  0  0  0  0  0
   -7.1772    0.0393   -0.7324 H   0  0  0  0  0  0  0  0  0  0  0  0
   -5.7360    0.6277    0.1425 H   0  0  0  0  0  0  0  0  0  0  0  0
   -5.9317   -1.8873   -1.0893 H   0  0  0  0  0  0  0  0  0  0  0  0
   -4.7713   -1.8485   -2.4194 H   0  0  0  0  0  0  0  0  0  0  0  0
    0.0472   -0.6179    0.0726 H   0  0  0  0  0  0  0  0  0  0  0  0
    1.6795    0.0055    2.8191 H   0  0  0  0  0  0  0  0  0  0  0  0
    2.0744   -1.7065    2.3836 H   0  0  0  0  0  0  0  0  0  0  0  0
    4.0047   -0.3903    2.7159 H   0  0  0  0  0  0  0  0  0  0  0  0
    6.3351    0.2664    2.2550 H   0  0  0  0  0  0  0  0  0  0  0  0
    2.9637    0.4259   -1.4176 H   0  0  0  0  0  0  0  0  0  0  0  0
    7.5443    0.7509   -2.2284 H   0  0  0  0  0  0  0  0  0  0  0  0
    7.1539    2.4350   -1.7971 H   0  0  0  0  0  0  0  0  0  0  0  0
  1  2  1  0
  2  3  1  0
  3  4  1  0
  4  5  1  0
  5  6  2  0
  6  7  1  0
  7  8  2  0
  8  9  1  0
  9 10  1  0
 10 11  2  0
 10 12  1  0
 12 13  1  0
 13 14  1  0
 14 15  2  0
 15 16  1  0
 16 17  2  0
 17 18  1  0
 18 19  2  0
 18 20  1  0
 20 21  1  0
 21 22  1  0
  8 23  1  0
 23  5  1  0
 19 14  1  0
 22 17  1  0
  1 24  1  0
  1 25  1  0
  1 26  1  0
  2 27  1  0
  2 28  1  0
  4 29  1  0
  4 30  1  0
  9 31  1  0
 12 32  1  0
 12 33  1  0
 15 34  1  0
 16 35  1  0
 19 36  1  0
 21 37  1  0
 21 38  1  0
M  END
$$$$
