
     RDKit          3D

 45 47  0  0  0  0  0  0  0  0999 V2000
    6.6892   -0.5872    1.6314 C   0  0  0  0  0  0  0  0  0  0  0  0
    7.7828   -0.6223    0.5764 C   0  0  0  0  0  0  0  0  0  0  0  0
    7.6784    0.4786   -0.4851 C   0  0  0  0  0  0  0  0  0  0  0  0
    6.5359    0.3020   -1.4909 C   0  0  0  0  0  0  0  0  0  0  0  0
    5.2044    0.7449   -0.9766 C   0  0  0  0  0  0  0  0  0  0  0  0
    4.9847    1.8333   -0.2670 N   0  0  0  0  0  0  0  0  0  0  0  0
    3.6508    1.9805    0.0540 N   0  0  0  0  0  0  0  0  0  0  0  0
    2.9115    1.0116   -0.4381 C   0  0  0  0  0  0  0  0  0  0  0  0
    1.5543    0.9683   -0.2388 N   0  0  0  0  0  0  0  0  0  0  0  0
    0.6767    0.0074   -0.7044 C   0  0  0  0  0  0  0  0  0  0  0  0
    0.9674   -0.9758   -1.3768 O   0  0  0  0  0  0  0  0  0  0  0  0
   -0.7649    0.3102   -0.2708 C   0  0  0  0  0  0  0  0  0  0  0  0
   -1.6696   -0.6633   -0.7694 O   0  0  0  0  0  0  0  0  0  0  0  0
   -2.9889   -0.5180   -0.4481 C   0  0  0  0  0  0  0  0  0  0  0  0
   -3.8273   -1.5072   -0.9688 C   0  0  0  0  0  0  0  0  0  0  0  0
   -5.2064   -1.4891   -0.7222 C   0  0  0  0  0  0  0  0  0  0  0  0
   -5.7754   -0.4761    0.0552 C   0  0  0  0  0  0  0  0  0  0  0  0
   -7.2099   -0.3897    0.3593 C   0  0  0  0  0  0  0  0  0  0  0  0
   -8.1575   -1.4247   -0.1714 C   0  0  0  0  0  0  0  0  0  0  0  0
   -7.6397    0.6296    1.1177 C   0  0  0  0  0  0  0  0  0  0  0  0
   -6.7513    1.6682    1.6614 C   0  0  0  0  0  0  0  0  0  0  0  0
   -7.1983    2.5798    2.3479 O   0  0  0  0  0  0  0  0  0  0  0  0
   -5.4052    1.5605    1.3593 O   0  0  0  0  0  0  0  0  0  0  0  0
   -4.9191    0.5017    0.5654 C   0  0  0  0  0  0  0  0  0  0  0  0
   -3.5407    0.4967    0.3266 C   0  0  0  0  0  0  0  0  0  0  0  0
    3.7801   -0.1519   -1.3251 S   0  0  0  0  0  0  0  0  0  0  0  0
    6.9293   -1.2843    2.4413 H   0  0  0  0  0  0  0  0  0  0  0  0
    5.7233   -0.8899    1.2199 H   0  0  0  0  0  0  0  0  0  0  0  0
    6.5896    0.4123    2.0663 H   0  0  0  0  0  0  0  0  0  0  0  0
    7.7984   -1.6079    0.0966 H   0  0  0  0  0  0  0  0  0  0  0  0
    8.7476   -0.5083    1.0861 H   0  0  0  0  0  0  0  0  0  0  0  0
    8.6170    0.4618   -1.0543 H   0  0  0  0  0  0  0  0  0  0  0  0
    7.6318    1.4622   -0.0021 H   0  0  0  0  0  0  0  0  0  0  0  0
    6.5057   -0.7397   -1.8323 H   0  0  0  0  0  0  0  0  0  0  0  0
    6.7593    0.9136   -2.3748 H   0  0  0  0  0  0  0  0  0  0  0  0
    1.2133    1.7453    0.3108 H   0  0  0  0  0  0  0  0  0  0  0  0
   -1.0256    1.3006   -0.6641 H   0  0  0  0  0  0  0  0  0  0  0  0
   -0.7817    0.3130    0.8260 H   0  0  0  0  0  0  0  0  0  0  0  0
   -3.4017   -2.3048   -1.5751 H   0  0  0  0  0  0  0  0  0  0  0  0
   -5.8121   -2.2829   -1.1516 H   0  0  0  0  0  0  0  0  0  0  0  0
   -8.1501   -1.4329   -1.2668 H   0  0  0  0  0  0  0  0  0  0  0  0
   -9.1890   -1.2316    0.1441 H   0  0  0  0  0  0  0  0  0  0  0  0
   -7.8893   -2.4221    0.1932 H   0  0  0  0  0  0  0  0  0  0  0  0
   -8.6852    0.7506    1.3785 H   0  0  0  0  0  0  0  0  0  0  0  0
   -2.9426    1.2912    0.7572 H   0  0  0  0  0  0  0  0  0  0  0  0
  1  2  1  0
  2  3  1  0
  3  4  1  0
  4  5  1  0
  5  6  2  0
  6  7  1  0
  7  8  2  0
  8  9  1  0
  9 10  1  0
 10 11  2  0
 10 12  1  0
 12 13  1  0
 13 14  1  0
 14 15  2  0
 15 16  1  0
 16 17  2  0
 17 18  1  0
 18 19  1  0
 18 20  2  0
 20 21  1  0
 21 22  2  0
 21 23  1  0
 23 24  1  0
 24 25  2  0
  8 26  1  0
 26  5  1  0
 25 14  1  0
 24 17  1  0
  1 27  1  0
  1 28  1  0
  1 29  1  0
  2 30  1  0
  2 31  1  0
  3 32  1  0
  3 33  1  0
  4 34  1  0
  4 35  1  0
  9 36  1  0
 12 37  1  0
 12 38  1  0
 15 39  1  0
 16 40  1  0
 19 41  1  0
 19 42  1  0
 19 43  1  0
 20 44  1  0
 25 45  1  0
M  END
$$$$
