
     RDKit          3D

 37 39  0  0  0  0  0  0  0  0999 V2000
   -0.3374   -1.0631    2.2033 C   0  0  0  0  0  0  0  0  0  0  0  0
   -0.8234   -0.4934    0.9634 N   0  0  0  0  0  0  0  0  0  0  0  0
   -0.0982    0.0915   -0.0835 C   0  0  0  0  0  0  0  0  0  0  0  0
    1.2243    0.1173   -0.3481 C   0  0  0  0  0  0  0  0  0  0  0  0
    2.2925   -0.5546    0.3635 C   0  0  0  0  0  0  0  0  0  0  0  0
    3.6077   -0.3870    0.1692 C   0  0  0  0  0  0  0  0  0  0  0  0
    4.4059    0.6767   -0.9322 S   0  0  0  0  0  0  0  0  0  0  0  0
    5.9935    0.1559   -0.4162 C   0  0  0  0  0  0  0  0  0  0  0  0
    7.4453    0.7014   -0.9944 S   0  0  0  0  0  0  0  0  0  0  0  0
    5.8748   -0.7886    0.5563 N   0  0  0  0  0  0  0  0  0  0  0  0
    4.6180   -1.1520    0.9509 C   0  0  0  0  0  0  0  0  0  0  0  0
    4.3729   -1.9764    1.8165 O   0  0  0  0  0  0  0  0  0  0  0  0
   -1.1198    0.7758   -1.0575 C   0  0  0  0  0  0  0  0  0  0  0  0
   -0.9702    2.3037   -1.0436 C   0  0  0  0  0  0  0  0  0  0  0  0
   -1.0173    0.2252   -2.4883 C   0  0  0  0  0  0  0  0  0  0  0  0
   -2.4461    0.3718   -0.4348 C   0  0  0  0  0  0  0  0  0  0  0  0
   -3.7368    0.6420   -0.8741 C   0  0  0  0  0  0  0  0  0  0  0  0
   -4.8059    0.1514   -0.1267 C   0  0  0  0  0  0  0  0  0  0  0  0
   -4.5732   -0.5964    1.0350 C   0  0  0  0  0  0  0  0  0  0  0  0
   -3.2680   -0.8592    1.4685 C   0  0  0  0  0  0  0  0  0  0  0  0
   -2.1998   -0.3670    0.7351 C   0  0  0  0  0  0  0  0  0  0  0  0
    0.5369   -0.5157    2.5705 H   0  0  0  0  0  0  0  0  0  0  0  0
   -1.0685   -1.0069    3.0163 H   0  0  0  0  0  0  0  0  0  0  0  0
   -0.0674   -2.1142    2.0600 H   0  0  0  0  0  0  0  0  0  0  0  0
    1.5402    0.6770   -1.2270 H   0  0  0  0  0  0  0  0  0  0  0  0
    1.9926   -1.2936    1.1000 H   0  0  0  0  0  0  0  0  0  0  0  0
    6.6826   -1.2118    0.9872 H   0  0  0  0  0  0  0  0  0  0  0  0
   -1.7519    2.7865   -1.6416 H   0  0  0  0  0  0  0  0  0  0  0  0
   -0.0039    2.6152   -1.4559 H   0  0  0  0  0  0  0  0  0  0  0  0
   -1.0426    2.7074   -0.0263 H   0  0  0  0  0  0  0  0  0  0  0  0
   -1.1077   -0.8677   -2.5061 H   0  0  0  0  0  0  0  0  0  0  0  0
   -0.0616    0.4876   -2.9551 H   0  0  0  0  0  0  0  0  0  0  0  0
   -1.8101    0.6279   -3.1295 H   0  0  0  0  0  0  0  0  0  0  0  0
   -3.9147    1.2182   -1.7759 H   0  0  0  0  0  0  0  0  0  0  0  0
   -5.8262    0.3459   -0.4478 H   0  0  0  0  0  0  0  0  0  0  0  0
   -5.4162   -0.9794    1.6052 H   0  0  0  0  0  0  0  0  0  0  0  0
   -3.1203   -1.4516    2.3636 H   0  0  0  0  0  0  0  0  0  0  0  0
  1  2  1  0
  2  3  1  0
  3  4  2  3
  4  5  1  0
  5  6  2  3
  6  7  1  0
  7  8  1  0
  8  9  2  0
  8 10  1  0
 10 11  1  0
 11 12  2  0
  3 13  1  0
 13 14  1  0
 13 15  1  0
 13 16  1  0
 16 17  2  0
 17 18  1  0
 18 19  2  0
 19 20  1  0
 20 21  2  0
 21  2  1  0
 11  6  1  0
 21 16  1  0
  1 22  1  0
  1 23  1  0
  1 24  1  0
  4 25  1  0
  5 26  1  0
 10 27  1  0
 14 28  1  0
 14 29  1  0
 14 30  1  0
 15 31  1  0
 15 32  1  0
 15 33  1  0
 17 34  1  0
 18 35  1  0
 19 36  1  0
 20 37  1  0
M  END
$$$$
