
     RDKit          3D

 37 39  0  0  0  0  0  0  0  0999 V2000
   -6.3037    4.0169    0.8199 C   0  0  0  0  0  0  0  0  0  0  0  0
   -5.2367    3.8219   -0.0992 O   0  0  0  0  0  0  0  0  0  0  0  0
   -4.4407    2.7287    0.0978 C   0  0  0  0  0  0  0  0  0  0  0  0
   -4.5781    1.7834    1.1121 C   0  0  0  0  0  0  0  0  0  0  0  0
   -3.6872    0.7021    1.2008 C   0  0  0  0  0  0  0  0  0  0  0  0
   -2.6414    0.5445    0.2776 C   0  0  0  0  0  0  0  0  0  0  0  0
   -1.6777   -0.5661    0.3172 C   0  0  0  0  0  0  0  0  0  0  0  0
   -0.7128   -0.7676   -0.5587 N   0  0  0  0  0  0  0  0  0  0  0  0
    0.0056   -1.8911   -0.2130 C   0  0  0  0  0  0  0  0  0  0  0  0
    1.0729   -2.3282   -0.9521 N   0  0  0  0  0  0  0  0  0  0  0  0
    1.5917   -1.7071   -2.0612 C   0  0  0  0  0  0  0  0  0  0  0  0
    1.1404   -0.6962   -2.5977 O   0  0  0  0  0  0  0  0  0  0  0  0
    2.7683   -2.4289   -2.7088 C   0  0  0  0  0  0  0  0  0  0  0  0
    3.6944   -3.5339   -1.6007 S   0  0  0  0  0  0  0  0  0  0  0  0
    4.5510   -2.3782   -0.6076 C   0  0  0  0  0  0  0  0  0  0  0  0
    4.3949   -1.0800   -0.7278 N   0  0  0  0  0  0  0  0  0  0  0  0
    5.1703   -0.3770    0.1723 N   0  0  0  0  0  0  0  0  0  0  0  0
    5.8804   -1.1742    0.9421 C   0  0  0  0  0  0  0  0  0  0  0  0
    6.8090   -0.7232    2.0081 C   0  0  0  0  0  0  0  0  0  0  0  0
    5.6519   -2.8465    0.6196 S   0  0  0  0  0  0  0  0  0  0  0  0
   -0.3539   -2.5810    0.8702 N   0  0  0  0  0  0  0  0  0  0  0  0
   -1.6611   -1.7854    1.5304 S   0  0  0  0  0  0  0  0  0  0  0  0
   -2.5188    1.5060   -0.7381 C   0  0  0  0  0  0  0  0  0  0  0  0
   -3.4067    2.5832   -0.8257 C   0  0  0  0  0  0  0  0  0  0  0  0
   -5.9264    4.1658    1.8371 H   0  0  0  0  0  0  0  0  0  0  0  0
   -7.0161    3.1863    0.7797 H   0  0  0  0  0  0  0  0  0  0  0  0
   -6.8362    4.9266    0.5260 H   0  0  0  0  0  0  0  0  0  0  0  0
   -5.3674    1.8539    1.8534 H   0  0  0  0  0  0  0  0  0  0  0  0
   -3.8398   -0.0074    2.0099 H   0  0  0  0  0  0  0  0  0  0  0  0
    1.5166   -3.1550   -0.5816 H   0  0  0  0  0  0  0  0  0  0  0  0
    2.3647   -3.0370   -3.5251 H   0  0  0  0  0  0  0  0  0  0  0  0
    3.4478   -1.6893   -3.1447 H   0  0  0  0  0  0  0  0  0  0  0  0
    6.8238    0.3698    2.0663 H   0  0  0  0  0  0  0  0  0  0  0  0
    6.4978   -1.1080    2.9844 H   0  0  0  0  0  0  0  0  0  0  0  0
    7.8295   -1.0632    1.8053 H   0  0  0  0  0  0  0  0  0  0  0  0
   -1.7205    1.4228   -1.4767 H   0  0  0  0  0  0  0  0  0  0  0  0
   -3.2859    3.3126   -1.6233 H   0  0  0  0  0  0  0  0  0  0  0  0
  1  2  1  0
  2  3  1  0
  3  4  2  0
  4  5  1  0
  5  6  2  0
  6  7  1  0
  7  8  2  0
  8  9  1  0
  9 10  1  0
 10 11  1  0
 11 12  2  0
 11 13  1  0
 13 14  1  0
 14 15  1  0
 15 16  2  0
 16 17  1  0
 17 18  2  0
 18 19  1  0
 18 20  1  0
  9 21  2  0
 21 22  1  0
  6 23  1  0
 23 24  2  0
 24  3  1  0
 22  7  1  0
 20 15  1  0
  1 25  1  0
  1 26  1  0
  1 27  1  0
  4 28  1  0
  5 29  1  0
 10 30  1  0
 13 31  1  0
 13 32  1  0
 19 33  1  0
 19 34  1  0
 19 35  1  0
 23 36  1  0
 24 37  1  0
M  END
$$$$
