
     RDKit          3D

 61 65  0  0  0  0  0  0  0  0999 V2000
    0.6806   -1.5951    4.9638 C   0  0  0  0  0  0  0  0  0  0  0  0
    1.5871   -1.1717    3.8467 C   0  0  0  0  0  0  0  0  0  0  0  0
    2.7913   -1.8328    3.6146 C   0  0  0  0  0  0  0  0  0  0  0  0
    3.6162   -1.4397    2.5558 C   0  0  0  0  0  0  0  0  0  0  0  0
    3.2712   -0.4043    1.6988 C   0  0  0  0  0  0  0  0  0  0  0  0
    4.1112   -0.0853    0.6973 N   0  0  0  0  0  0  0  0  0  0  0  0
    3.8101    0.9341   -0.1477 C   0  0  0  0  0  0  0  0  0  0  0  0
    4.8110    1.2150   -1.1977 C   0  0  0  0  0  0  0  0  0  0  0  0
    5.0311    2.5137   -1.6940 C   0  0  0  0  0  0  0  0  0  0  0  0
    5.9768    2.7599   -2.6953 C   0  0  0  0  0  0  0  0  0  0  0  0
    6.7273    1.7119   -3.2200 C   0  0  0  0  0  0  0  0  0  0  0  0
    6.5384    0.4200   -2.7402 C   0  0  0  0  0  0  0  0  0  0  0  0
    5.5932    0.1774   -1.7390 C   0  0  0  0  0  0  0  0  0  0  0  0
    2.6234    1.6363   -0.0331 C   0  0  0  0  0  0  0  0  0  0  0  0
    1.7463    1.2790    0.9888 C   0  0  0  0  0  0  0  0  0  0  0  0
    0.4725    2.0123    1.0672 C   0  0  0  0  0  0  0  0  0  0  0  0
    0.4261    3.0082    1.7813 O   0  0  0  0  0  0  0  0  0  0  0  0
   -0.5983    1.5415    0.3194 N   0  0  0  0  0  0  0  0  0  0  0  0
   -0.5838    0.3408   -0.5262 C   0  0  0  0  0  0  0  0  0  0  0  0
   -1.9560   -0.3436   -0.5655 C   0  0  0  0  0  0  0  0  0  0  0  0
   -3.0367    0.5713   -1.0630 N   0  0  0  0  0  0  0  0  0  0  0  0
   -4.6147    0.1218   -0.5985 S   0  0  0  0  0  6  0  0  0  0  0  0
   -5.5516    0.9452   -1.3293 O   0  0  0  0  0  0  0  0  0  0  0  0
   -4.6395    0.0389    0.8444 O   0  0  0  0  0  0  0  0  0  0  0  0
   -4.9094   -1.4556   -1.1677 C   0  0  0  0  0  0  0  0  0  0  0  0
   -5.2068   -2.6218   -0.4317 C   0  0  0  0  0  0  0  0  0  0  0  0
   -5.3759   -2.8063    1.0293 C   0  0  0  0  0  0  0  0  0  0  0  0
   -5.3330   -3.6765   -1.2506 N   0  0  0  0  0  0  0  0  0  0  0  0
   -5.1456   -3.1915   -2.5327 O   0  0  0  0  0  0  0  0  0  0  0  0
   -4.8917   -1.8568   -2.4811 C   0  0  0  0  0  0  0  0  0  0  0  0
   -4.6731   -1.1735   -3.7691 C   0  0  0  0  0  0  0  0  0  0  0  0
   -2.7414    2.0289   -0.8483 C   0  0  0  0  0  0  0  0  0  0  0  0
   -1.8664    2.2716    0.3850 C   0  0  0  0  0  0  0  0  0  0  0  0
    2.0517    0.2574    1.9070 C   0  0  0  0  0  0  0  0  0  0  0  0
    1.2168   -0.1357    2.9839 C   0  0  0  0  0  0  0  0  0  0  0  0
   -0.0526   -2.3195    4.5961 H   0  0  0  0  0  0  0  0  0  0  0  0
    1.2499   -2.0529    5.7795 H   0  0  0  0  0  0  0  0  0  0  0  0
    0.1499   -0.7333    5.3819 H   0  0  0  0  0  0  0  0  0  0  0  0
    3.1057   -2.6533    4.2560 H   0  0  0  0  0  0  0  0  0  0  0  0
    4.5589   -1.9591    2.3959 H   0  0  0  0  0  0  0  0  0  0  0  0
    4.4823    3.3621   -1.2907 H   0  0  0  0  0  0  0  0  0  0  0  0
    6.1319    3.7730   -3.0577 H   0  0  0  0  0  0  0  0  0  0  0  0
    7.4648    1.9033   -3.9950 H   0  0  0  0  0  0  0  0  0  0  0  0
    7.1275   -0.4018   -3.1388 H   0  0  0  0  0  0  0  0  0  0  0  0
    5.4658   -0.8414   -1.3753 H   0  0  0  0  0  0  0  0  0  0  0  0
    2.3633    2.4329   -0.7212 H   0  0  0  0  0  0  0  0  0  0  0  0
    0.1671   -0.3721   -0.1769 H   0  0  0  0  0  0  0  0  0  0  0  0
   -0.2922    0.6654   -1.5321 H   0  0  0  0  0  0  0  0  0  0  0  0
   -1.9047   -1.2104   -1.2328 H   0  0  0  0  0  0  0  0  0  0  0  0
   -2.1958   -0.6996    0.4430 H   0  0  0  0  0  0  0  0  0  0  0  0
   -4.4437   -2.5795    1.5560 H   0  0  0  0  0  0  0  0  0  0  0  0
   -5.6522   -3.8377    1.2740 H   0  0  0  0  0  0  0  0  0  0  0  0
   -6.1670   -2.1532    1.4109 H   0  0  0  0  0  0  0  0  0  0  0  0
   -5.5120   -0.5087   -3.9955 H   0  0  0  0  0  0  0  0  0  0  0  0
   -4.5790   -1.8922   -4.5891 H   0  0  0  0  0  0  0  0  0  0  0  0
   -3.7567   -0.5765   -3.7412 H   0  0  0  0  0  0  0  0  0  0  0  0
   -2.2298    2.3891   -1.7494 H   0  0  0  0  0  0  0  0  0  0  0  0
   -3.6637    2.6126   -0.7642 H   0  0  0  0  0  0  0  0  0  0  0  0
   -1.6677    3.3430    0.4967 H   0  0  0  0  0  0  0  0  0  0  0  0
   -2.3818    1.9334    1.2918 H   0  0  0  0  0  0  0  0  0  0  0  0
    0.2736    0.3815    3.1581 H   0  0  0  0  0  0  0  0  0  0  0  0
  1  2  1  0
  2  3  2  0
  3  4  1  0
  4  5  2  0
  5  6  1  0
  6  7  2  0
  7  8  1  0
  8  9  2  0
  9 10  1  0
 10 11  2  0
 11 12  1  0
 12 13  2  0
  7 14  1  0
 14 15  2  0
 15 16  1  0
 16 17  2  0
 16 18  1  0
 18 19  1  0
 19 20  1  0
 20 21  1  0
 21 22  1  0
 22 23  2  0
 22 24  2  0
 22 25  1  0
 25 26  1  0
 26 27  1  0
 26 28  2  0
 28 29  1  0
 29 30  1  0
 30 31  1  0
 21 32  1  0
 32 33  1  0
 15 34  1  0
 34 35  2  0
 35  2  1  0
 34  5  1  0
 13  8  1  0
 33 18  1  0
 30 25  2  0
  1 36  1  0
  1 37  1  0
  1 38  1  0
  3 39  1  0
  4 40  1  0
  9 41  1  0
 10 42  1  0
 11 43  1  0
 12 44  1  0
 13 45  1  0
 14 46  1  0
 19 47  1  0
 19 48  1  0
 20 49  1  0
 20 50  1  0
 27 51  1  0
 27 52  1  0
 27 53  1  0
 31 54  1  0
 31 55  1  0
 31 56  1  0
 32 57  1  0
 32 58  1  0
 33 59  1  0
 33 60  1  0
 35 61  1  0
M  END
$$$$
