
     RDKit          3D

 56 61  0  0  0  0  0  0  0  0999 V2000
    6.3814    2.4345   -3.2984 C   0  0  0  0  0  0  0  0  0  0  0  0
    5.3680    1.8063   -2.3859 C   0  0  0  0  0  0  0  0  0  0  0  0
    4.2332    2.5149   -1.9844 C   0  0  0  0  0  0  0  0  0  0  0  0
    3.2726    1.9122   -1.1657 C   0  0  0  0  0  0  0  0  0  0  0  0
    3.4349    0.5878   -0.7436 C   0  0  0  0  0  0  0  0  0  0  0  0
    2.3433   -0.0833    0.1655 C   0  0  0  0  0  0  0  0  0  0  0  0
    1.1411    0.4856    0.5666 C   0  0  0  0  0  0  0  0  0  0  0  0
    0.4287   -0.4444    1.3238 N   0  0  0  0  0  4  0  0  0  0  0  0
   -0.9369   -0.2833    1.8571 C   0  0  0  0  0  0  0  0  0  0  0  0
   -1.9436   -1.0352    0.9586 C   0  0  0  0  0  0  0  0  0  0  0  0
   -1.6767   -2.1965    0.6341 O   0  0  0  0  0  0  0  0  0  0  0  0
   -3.0097   -0.2548    0.4784 N   0  0  0  0  0  0  0  0  0  0  0  0
   -3.6934    0.6716    1.3469 C   0  0  0  0  0  0  0  0  0  0  0  0
   -3.7901    0.3810    2.7249 C   0  0  0  0  0  0  0  0  0  0  0  0
   -4.4285    1.2513    3.6110 C   0  0  0  0  0  0  0  0  0  0  0  0
   -4.9983    2.4247    3.1367 C   0  0  0  0  0  0  0  0  0  0  0  0
   -4.9477    2.7137    1.7755 C   0  0  0  0  0  0  0  0  0  0  0  0
   -4.3145    1.8386    0.8801 C   0  0  0  0  0  0  0  0  0  0  0  0
   -4.2910    2.2949   -0.8273 S   0  0  0  0  0  0  0  0  0  0  0  0
   -4.1346    0.6751   -1.5451 C   0  0  0  0  0  0  0  0  0  0  0  0
   -4.5941    0.5297   -2.8666 C   0  0  0  0  0  0  0  0  0  0  0  0
   -4.4336   -0.6723   -3.5493 C   0  0  0  0  0  0  0  0  0  0  0  0
   -3.8059   -1.7330   -2.9151 C   0  0  0  0  0  0  0  0  0  0  0  0
   -3.3434   -1.5920   -1.5997 C   0  0  0  0  0  0  0  0  0  0  0  0
   -3.5042   -0.3930   -0.8753 C   0  0  0  0  0  0  0  0  0  0  0  0
    1.1616   -1.5521    1.3876 C   0  0  0  0  0  0  0  0  0  0  0  0
    2.3075   -1.3390    0.7454 N   0  0  0  0  0  0  0  0  0  0  0  0
    3.1841   -2.4992    0.8021 C   0  0  0  0  0  0  0  0  0  0  0  0
    2.5288   -3.3973    1.8865 C   0  0  0  0  0  0  0  0  0  0  0  0
    1.0717   -2.9044    1.9873 C   0  0  0  0  0  0  0  0  0  0  0  0
    4.5594   -0.1270   -1.1540 C   0  0  0  0  0  0  0  0  0  0  0  0
    5.5173    0.4784   -1.9746 C   0  0  0  0  0  0  0  0  0  0  0  0
    6.3800    3.5261   -3.1984 H   0  0  0  0  0  0  0  0  0  0  0  0
    6.1568    2.1751   -4.3392 H   0  0  0  0  0  0  0  0  0  0  0  0
    7.3906    2.0844   -3.0557 H   0  0  0  0  0  0  0  0  0  0  0  0
    4.0886    3.5438   -2.3081 H   0  0  0  0  0  0  0  0  0  0  0  0
    2.4126    2.5089   -0.8779 H   0  0  0  0  0  0  0  0  0  0  0  0
    0.6836    1.4424    0.3858 H   0  0  0  0  0  0  0  0  0  0  0  0
   -1.1408    0.7900    1.9095 H   0  0  0  0  0  0  0  0  0  0  0  0
   -0.9669   -0.7050    2.8670 H   0  0  0  0  0  0  0  0  0  0  0  0
   -3.4274   -0.5588    3.1336 H   0  0  0  0  0  0  0  0  0  0  0  0
   -4.5066    1.0023    4.6674 H   0  0  0  0  0  0  0  0  0  0  0  0
   -5.5051    3.1043    3.8181 H   0  0  0  0  0  0  0  0  0  0  0  0
   -5.4198    3.6274    1.4144 H   0  0  0  0  0  0  0  0  0  0  0  0
   -5.0780    1.3612   -3.3778 H   0  0  0  0  0  0  0  0  0  0  0  0
   -4.7978   -0.7788   -4.5690 H   0  0  0  0  0  0  0  0  0  0  0  0
   -3.6838   -2.6820   -3.4352 H   0  0  0  0  0  0  0  0  0  0  0  0
   -2.9026   -2.4792   -1.1592 H   0  0  0  0  0  0  0  0  0  0  0  0
    4.1975   -2.2106    1.0911 H   0  0  0  0  0  0  0  0  0  0  0  0
    3.1801   -2.9922   -0.1742 H   0  0  0  0  0  0  0  0  0  0  0  0
    2.6020   -4.4624    1.6519 H   0  0  0  0  0  0  0  0  0  0  0  0
    3.0347   -3.2282    2.8437 H   0  0  0  0  0  0  0  0  0  0  0  0
    0.7110   -2.8167    3.0125 H   0  0  0  0  0  0  0  0  0  0  0  0
    0.3990   -3.4920    1.3608 H   0  0  0  0  0  0  0  0  0  0  0  0
    4.7197   -1.1597   -0.8753 H   0  0  0  0  0  0  0  0  0  0  0  0
    6.3850   -0.0935   -2.2985 H   0  0  0  0  0  0  0  0  0  0  0  0
  1  2  1  0
  2  3  2  0
  3  4  1  0
  4  5  2  0
  5  6  1  0
  6  7  2  0
  7  8  1  0
  8  9  1  0
  9 10  1  0
 10 11  2  0
 10 12  1  0
 12 13  1  0
 13 14  2  0
 14 15  1  0
 15 16  2  0
 16 17  1  0
 17 18  2  0
 18 19  1  0
 19 20  1  0
 20 21  2  0
 21 22  1  0
 22 23  2  0
 23 24  1  0
 24 25  2  0
  8 26  2  0
 26 27  1  0
 27 28  1  0
 28 29  1  0
 29 30  1  0
  5 31  1  0
 31 32  2  0
 32  2  1  0
 27  6  1  0
 25 12  1  0
 30 26  1  0
 18 13  1  0
 25 20  1  0
  1 33  1  0
  1 34  1  0
  1 35  1  0
  3 36  1  0
  4 37  1  0
  7 38  1  0
  9 39  1  0
  9 40  1  0
 14 41  1  0
 15 42  1  0
 16 43  1  0
 17 44  1  0
 21 45  1  0
 22 46  1  0
 23 47  1  0
 24 48  1  0
 28 49  1  0
 28 50  1  0
 29 51  1  0
 29 52  1  0
 30 53  1  0
 30 54  1  0
 31 55  1  0
 32 56  1  0
M  CHG  1   8   1
M  END
$$$$
