
     RDKit          3D

 34 34  0  0  0  0  0  0  0  0999 V2000
    4.9466    0.6751   -1.9353 C   0  0  0  0  0  0  0  0  0  0  0  0
    4.1184   -0.0961   -0.9197 C   0  0  0  0  0  0  0  0  0  0  0  0
    4.1152    0.6000    0.4430 C   0  0  0  0  0  0  0  0  0  0  0  0
    3.3222   -0.1812    1.4890 C   0  0  0  0  0  0  0  0  0  0  0  0
    1.9551   -0.3482    1.0842 O   0  0  0  0  0  0  0  0  0  0  0  0
    1.1198    0.6760    1.3857 C   0  0  0  0  0  0  0  0  0  0  0  0
    1.4244    1.7051    1.9677 O   0  0  0  0  0  0  0  0  0  0  0  0
   -0.2575    0.3874    0.9017 C   0  0  0  0  0  0  0  0  0  0  0  0
   -1.2574    1.3358    1.1437 C   0  0  0  0  0  0  0  0  0  0  0  0
   -2.5671    1.1098    0.7061 C   0  0  0  0  0  0  0  0  0  0  0  0
   -2.8996   -0.0649    0.0197 C   0  0  0  0  0  0  0  0  0  0  0  0
   -4.2415   -0.2149   -0.3858 N   0  0  0  0  0  0  0  0  0  0  0  0
   -4.7983   -1.2744   -1.0796 C   0  0  0  0  0  0  0  0  0  0  0  0
   -6.2714   -1.0759   -1.3383 C   0  0  0  0  0  0  0  0  0  0  0  0
   -4.2196   -2.2739   -1.4895 O   0  0  0  0  0  0  0  0  0  0  0  0
   -1.9000   -1.0095   -0.2202 C   0  0  0  0  0  0  0  0  0  0  0  0
   -0.5867   -0.7871    0.2165 C   0  0  0  0  0  0  0  0  0  0  0  0
    4.9367    0.1607   -2.9014 H   0  0  0  0  0  0  0  0  0  0  0  0
    4.5466    1.6833   -2.0831 H   0  0  0  0  0  0  0  0  0  0  0  0
    5.9875    0.7625   -1.6078 H   0  0  0  0  0  0  0  0  0  0  0  0
    3.0942   -0.1941   -1.2973 H   0  0  0  0  0  0  0  0  0  0  0  0
    4.5256   -1.1088   -0.8185 H   0  0  0  0  0  0  0  0  0  0  0  0
    5.1449    0.7246    0.7977 H   0  0  0  0  0  0  0  0  0  0  0  0
    3.6852    1.6018    0.3267 H   0  0  0  0  0  0  0  0  0  0  0  0
    3.3821    0.3048    2.4701 H   0  0  0  0  0  0  0  0  0  0  0  0
    3.7455   -1.1846    1.6083 H   0  0  0  0  0  0  0  0  0  0  0  0
   -1.0220    2.2568    1.6745 H   0  0  0  0  0  0  0  0  0  0  0  0
   -3.3182    1.8685    0.9117 H   0  0  0  0  0  0  0  0  0  0  0  0
   -4.8638    0.5468   -0.1463 H   0  0  0  0  0  0  0  0  0  0  0  0
   -6.7577   -0.5964   -0.4839 H   0  0  0  0  0  0  0  0  0  0  0  0
   -6.4022   -0.4584   -2.2307 H   0  0  0  0  0  0  0  0  0  0  0  0
   -6.7465   -2.0484   -1.4961 H   0  0  0  0  0  0  0  0  0  0  0  0
   -2.1054   -1.9368   -0.7468 H   0  0  0  0  0  0  0  0  0  0  0  0
    0.1649   -1.5454    0.0098 H   0  0  0  0  0  0  0  0  0  0  0  0
  1  2  1  0
  2  3  1  0
  3  4  1  0
  4  5  1  0
  5  6  1  0
  6  7  2  0
  6  8  1  0
  8  9  2  0
  9 10  1  0
 10 11  2  0
 11 12  1  0
 12 13  1  0
 13 14  1  0
 13 15  2  0
 11 16  1  0
 16 17  2  0
 17  8  1  0
  1 18  1  0
  1 19  1  0
  1 20  1  0
  2 21  1  0
  2 22  1  0
  3 23  1  0
  3 24  1  0
  4 25  1  0
  4 26  1  0
  9 27  1  0
 10 28  1  0
 12 29  1  0
 14 30  1  0
 14 31  1  0
 14 32  1  0
 16 33  1  0
 17 34  1  0
M  END
$$$$
