
     RDKit          3D

 49 51  0  0  0  0  0  0  0  0999 V2000
    4.4377    5.1923   -1.9362 C   0  0  0  0  0  0  0  0  0  0  0  0
    4.2548    4.0813   -1.0704 O   0  0  0  0  0  0  0  0  0  0  0  0
    3.5054    3.0278   -1.5332 C   0  0  0  0  0  0  0  0  0  0  0  0
    2.8593    3.0047   -2.7760 C   0  0  0  0  0  0  0  0  0  0  0  0
    2.1090    1.8923   -3.1604 C   0  0  0  0  0  0  0  0  0  0  0  0
    2.0007    0.8047   -2.2938 C   0  0  0  0  0  0  0  0  0  0  0  0
    1.0438   -0.6080   -2.7850 S   0  0  0  0  0  6  0  0  0  0  0  0
    1.3252   -1.6975   -1.8755 O   0  0  0  0  0  0  0  0  0  0  0  0
    1.2208   -0.7630   -4.2139 O   0  0  0  0  0  0  0  0  0  0  0  0
   -0.5455   -0.0697   -2.5609 N   0  0  0  0  0  0  0  0  0  0  0  0
   -1.0893   -0.1411   -1.2462 C   0  0  0  0  0  0  0  0  0  0  0  0
   -0.8463    0.8819   -0.3403 C   0  0  0  0  0  0  0  0  0  0  0  0
   -1.3171    0.7643    0.9628 C   0  0  0  0  0  0  0  0  0  0  0  0
   -2.0353   -0.3767    1.3640 C   0  0  0  0  0  0  0  0  0  0  0  0
   -2.3315   -1.4018    0.4387 C   0  0  0  0  0  0  0  0  0  0  0  0
   -1.8100   -1.2743   -0.8584 C   0  0  0  0  0  0  0  0  0  0  0  0
   -3.1143   -2.5490    0.8440 N   0  0  0  0  0  0  0  0  0  0  0  0
   -3.7478   -3.3880   -0.0958 C   0  0  0  0  0  0  0  0  0  0  0  0
   -4.4783   -4.5909    0.4619 C   0  0  0  0  0  0  0  0  0  0  0  0
   -3.7691   -3.2154   -1.3154 O   0  0  0  0  0  0  0  0  0  0  0  0
   -3.4596   -2.6704    2.2672 C   0  0  0  0  0  0  0  0  0  0  0  0
   -2.5545   -1.9061    3.2155 C   0  0  0  0  0  0  0  0  0  0  0  0
   -2.5033   -0.4551    2.7905 C   0  0  0  0  0  0  0  0  0  0  0  0
    2.6534    0.8021   -1.0573 C   0  0  0  0  0  0  0  0  0  0  0  0
    3.4032    1.9155   -0.6685 C   0  0  0  0  0  0  0  0  0  0  0  0
    4.0634    2.0212    0.5310 O   0  0  0  0  0  0  0  0  0  0  0  0
    4.0637    0.8860    1.3858 C   0  0  0  0  0  0  0  0  0  0  0  0
    4.9470    4.8958   -2.8591 H   0  0  0  0  0  0  0  0  0  0  0  0
    3.4842    5.6863   -2.1502 H   0  0  0  0  0  0  0  0  0  0  0  0
    5.0776    5.9155   -1.4216 H   0  0  0  0  0  0  0  0  0  0  0  0
    2.9203    3.8383   -3.4681 H   0  0  0  0  0  0  0  0  0  0  0  0
    1.6128    1.8816   -4.1286 H   0  0  0  0  0  0  0  0  0  0  0  0
   -1.1397   -0.4128   -3.3169 H   0  0  0  0  0  0  0  0  0  0  0  0
   -0.2983    1.7718   -0.6351 H   0  0  0  0  0  0  0  0  0  0  0  0
   -1.1158    1.5654    1.6712 H   0  0  0  0  0  0  0  0  0  0  0  0
   -1.9216   -2.0691   -1.5881 H   0  0  0  0  0  0  0  0  0  0  0  0
   -3.7816   -5.2452    0.9923 H   0  0  0  0  0  0  0  0  0  0  0  0
   -4.9092   -5.1654   -0.3647 H   0  0  0  0  0  0  0  0  0  0  0  0
   -5.2975   -4.2786    1.1141 H   0  0  0  0  0  0  0  0  0  0  0  0
   -3.4291   -3.7249    2.5586 H   0  0  0  0  0  0  0  0  0  0  0  0
   -4.4984   -2.3338    2.3777 H   0  0  0  0  0  0  0  0  0  0  0  0
   -1.5472   -2.3424    3.2005 H   0  0  0  0  0  0  0  0  0  0  0  0
   -2.9293   -1.9879    4.2418 H   0  0  0  0  0  0  0  0  0  0  0  0
   -3.4907    0.0143    2.8728 H   0  0  0  0  0  0  0  0  0  0  0  0
   -1.8171    0.0853    3.4530 H   0  0  0  0  0  0  0  0  0  0  0  0
    2.5525   -0.0667   -0.4145 H   0  0  0  0  0  0  0  0  0  0  0  0
    4.5212    0.0202    0.8957 H   0  0  0  0  0  0  0  0  0  0  0  0
    3.0516    0.6562    1.7347 H   0  0  0  0  0  0  0  0  0  0  0  0
    4.6699    1.1291    2.2639 H   0  0  0  0  0  0  0  0  0  0  0  0
  1  2  1  0
  2  3  1  0
  3  4  2  0
  4  5  1  0
  5  6  2  0
  6  7  1  0
  7  8  2  0
  7  9  2  0
  7 10  1  0
 10 11  1  0
 11 12  2  0
 12 13  1  0
 13 14  2  0
 14 15  1  0
 15 16  2  0
 15 17  1  0
 17 18  1  0
 18 19  1  0
 18 20  2  0
 17 21  1  0
 21 22  1  0
 22 23  1  0
  6 24  1  0
 24 25  2  0
 25 26  1  0
 26 27  1  0
 25  3  1  0
 16 11  1  0
 23 14  1  0
  1 28  1  0
  1 29  1  0
  1 30  1  0
  4 31  1  0
  5 32  1  0
 10 33  1  0
 12 34  1  0
 13 35  1  0
 16 36  1  0
 19 37  1  0
 19 38  1  0
 19 39  1  0
 21 40  1  0
 21 41  1  0
 22 42  1  0
 22 43  1  0
 23 44  1  0
 23 45  1  0
 24 46  1  0
 27 47  1  0
 27 48  1  0
 27 49  1  0
M  END
$$$$
