
     RDKit          3D

 37 38  0  0  0  0  0  0  0  0999 V2000
   -5.1077    2.5320   -0.3505 C   0  0  0  0  0  0  0  0  0  0  0  0
   -4.6393    1.3644    0.3080 O   0  0  0  0  0  0  0  0  0  0  0  0
   -3.4294    0.8487   -0.0850 C   0  0  0  0  0  0  0  0  0  0  0  0
   -2.6282    1.3950   -1.0939 C   0  0  0  0  0  0  0  0  0  0  0  0
   -1.4063    0.8027   -1.4264 C   0  0  0  0  0  0  0  0  0  0  0  0
   -0.9733   -0.3381   -0.7444 C   0  0  0  0  0  0  0  0  0  0  0  0
    0.3208   -1.0024   -1.0629 C   0  0  0  0  0  0  0  0  0  0  0  0
    0.4612   -2.2027   -0.8583 O   0  0  0  0  0  0  0  0  0  0  0  0
    1.3226   -0.1887   -1.5484 N   0  0  0  0  0  0  0  0  0  0  0  0
    2.6573   -0.6960   -1.7733 C   0  0  0  0  0  0  0  0  0  0  0  0
    3.5430   -0.4209   -0.5843 C   0  0  0  0  0  0  0  0  0  0  0  0
    3.5340   -1.2858    0.5187 C   0  0  0  0  0  0  0  0  0  0  0  0
    4.3331   -1.0236    1.6340 C   0  0  0  0  0  0  0  0  0  0  0  0
    5.1475    0.1111    1.6638 C   0  0  0  0  0  0  0  0  0  0  0  0
    6.1087    0.3760    3.0745 Cl  0  0  0  0  0  0  0  0  0  0  0  0
    5.1581    0.9861    0.5726 C   0  0  0  0  0  0  0  0  0  0  0  0
    6.1318    2.4137    0.5382 Cl  0  0  0  0  0  0  0  0  0  0  0  0
    4.3565    0.7211   -0.5443 C   0  0  0  0  0  0  0  0  0  0  0  0
   -1.7790   -0.9008    0.2540 C   0  0  0  0  0  0  0  0  0  0  0  0
   -3.0034   -0.3138    0.5908 C   0  0  0  0  0  0  0  0  0  0  0  0
   -3.8493   -0.7905    1.5620 O   0  0  0  0  0  0  0  0  0  0  0  0
   -3.4981   -2.0097    2.2017 C   0  0  0  0  0  0  0  0  0  0  0  0
   -4.4262    3.3745   -0.1937 H   0  0  0  0  0  0  0  0  0  0  0  0
   -5.2690    2.3458   -1.4174 H   0  0  0  0  0  0  0  0  0  0  0  0
   -6.0732    2.7998    0.0894 H   0  0  0  0  0  0  0  0  0  0  0  0
   -2.9318    2.2777   -1.6471 H   0  0  0  0  0  0  0  0  0  0  0  0
   -0.8222    1.2294   -2.2368 H   0  0  0  0  0  0  0  0  0  0  0  0
    1.2190    0.8128   -1.4699 H   0  0  0  0  0  0  0  0  0  0  0  0
    3.0500   -0.1940   -2.6645 H   0  0  0  0  0  0  0  0  0  0  0  0
    2.6337   -1.7698   -1.9910 H   0  0  0  0  0  0  0  0  0  0  0  0
    2.8950   -2.1693    0.5139 H   0  0  0  0  0  0  0  0  0  0  0  0
    4.3113   -1.7089    2.4782 H   0  0  0  0  0  0  0  0  0  0  0  0
    4.3683    1.4086   -1.3876 H   0  0  0  0  0  0  0  0  0  0  0  0
   -1.4228   -1.7948    0.7568 H   0  0  0  0  0  0  0  0  0  0  0  0
   -3.4234   -2.8295    1.4797 H   0  0  0  0  0  0  0  0  0  0  0  0
   -2.5721   -1.9003    2.7757 H   0  0  0  0  0  0  0  0  0  0  0  0
   -4.2973   -2.2597    2.9062 H   0  0  0  0  0  0  0  0  0  0  0  0
  1  2  1  0
  2  3  1  0
  3  4  2  0
  4  5  1  0
  5  6  2  0
  6  7  1  0
  7  8  2  0
  7  9  1  0
  9 10  1  0
 10 11  1  0
 11 12  2  0
 12 13  1  0
 13 14  2  0
 14 15  1  0
 14 16  1  0
 16 17  1  0
 16 18  2  0
  6 19  1  0
 19 20  2  0
 20 21  1  0
 21 22  1  0
 20  3  1  0
 18 11  1  0
  1 23  1  0
  1 24  1  0
  1 25  1  0
  4 26  1  0
  5 27  1  0
  9 28  1  0
 10 29  1  0
 10 30  1  0
 12 31  1  0
 13 32  1  0
 18 33  1  0
 19 34  1  0
 22 35  1  0
 22 36  1  0
 22 37  1  0
M  END
$$$$
