
     RDKit          3D

 43 45  0  0  0  0  0  0  0  0999 V2000
   -7.0384   -0.5133    1.0809 C   0  0  0  0  0  0  0  0  0  0  0  0
   -5.9012   -1.3093    0.6221 N   0  0  0  0  0  0  0  0  0  0  0  0
   -5.7150   -2.5904    1.3016 C   0  0  0  0  0  0  0  0  0  0  0  0
   -4.7798   -0.6492    0.1040 C   0  0  0  0  0  0  0  0  0  0  0  0
   -3.5453   -1.2964   -0.0753 C   0  0  0  0  0  0  0  0  0  0  0  0
   -2.4214   -0.6430   -0.6077 C   0  0  0  0  0  0  0  0  0  0  0  0
   -2.4882    0.6968   -0.9870 C   0  0  0  0  0  0  0  0  0  0  0  0
   -1.3504    1.4155   -1.5793 C   0  0  0  0  0  0  0  0  0  0  0  0
   -0.0678    1.2104   -1.2367 C   0  0  0  0  0  0  0  0  0  0  0  0
    1.0264    1.9445   -1.8397 C   0  0  0  0  0  0  0  0  0  0  0  0
    2.3392    1.8117   -1.5908 C   0  0  0  0  0  0  0  0  0  0  0  0
    3.5124    2.7818   -2.3959 S   0  0  0  0  0  0  0  0  0  0  0  0
    4.8527    2.1265   -1.4581 C   0  0  0  0  0  0  0  0  0  0  0  0
    6.3636    2.8401   -1.5783 S   0  0  0  0  0  0  0  0  0  0  0  0
    4.4008    1.0940   -0.6446 N   0  0  0  0  0  0  0  0  0  0  0  0
    5.2478    0.2777    0.1794 C   0  0  0  0  0  0  0  0  0  0  0  0
    6.4847   -0.1984   -0.2819 C   0  0  0  0  0  0  0  0  0  0  0  0
    7.2988   -0.9988    0.5271 C   0  0  0  0  0  0  0  0  0  0  0  0
    6.8855   -1.3459    1.8091 C   0  0  0  0  0  0  0  0  0  0  0  0
    5.6549   -0.9005    2.2794 C   0  0  0  0  0  0  0  0  0  0  0  0
    4.8420   -0.1009    1.4697 C   0  0  0  0  0  0  0  0  0  0  0  0
    3.0204    0.8708   -0.6510 C   0  0  0  0  0  0  0  0  0  0  0  0
    2.4109    0.0108   -0.0266 O   0  0  0  0  0  0  0  0  0  0  0  0
   -3.7111    1.3528   -0.8519 C   0  0  0  0  0  0  0  0  0  0  0  0
   -4.8286    0.6905   -0.3177 C   0  0  0  0  0  0  0  0  0  0  0  0
   -7.4888    0.0481    0.2554 H   0  0  0  0  0  0  0  0  0  0  0  0
   -6.7406    0.1772    1.8778 H   0  0  0  0  0  0  0  0  0  0  0  0
   -7.8358   -1.1515    1.4782 H   0  0  0  0  0  0  0  0  0  0  0  0
   -5.3110   -3.3463    0.6197 H   0  0  0  0  0  0  0  0  0  0  0  0
   -5.0542   -2.4843    2.1691 H   0  0  0  0  0  0  0  0  0  0  0  0
   -6.6696   -2.9917    1.6604 H   0  0  0  0  0  0  0  0  0  0  0  0
   -3.4177   -2.3415    0.1892 H   0  0  0  0  0  0  0  0  0  0  0  0
   -1.5026   -1.2116   -0.7292 H   0  0  0  0  0  0  0  0  0  0  0  0
   -1.6112    2.1617   -2.3265 H   0  0  0  0  0  0  0  0  0  0  0  0
    0.1693    0.4783   -0.4690 H   0  0  0  0  0  0  0  0  0  0  0  0
    0.7204    2.6893   -2.5756 H   0  0  0  0  0  0  0  0  0  0  0  0
    6.8282    0.0018   -1.2933 H   0  0  0  0  0  0  0  0  0  0  0  0
    8.2524   -1.3585    0.1480 H   0  0  0  0  0  0  0  0  0  0  0  0
    7.5170   -1.9692    2.4369 H   0  0  0  0  0  0  0  0  0  0  0  0
    5.3220   -1.1737    3.2777 H   0  0  0  0  0  0  0  0  0  0  0  0
    3.8935    0.2372    1.8819 H   0  0  0  0  0  0  0  0  0  0  0  0
   -3.8174    2.3918   -1.1549 H   0  0  0  0  0  0  0  0  0  0  0  0
   -5.7469    1.2650   -0.2483 H   0  0  0  0  0  0  0  0  0  0  0  0
  1  2  1  0
  2  3  1  0
  2  4  1  0
  4  5  2  0
  5  6  1  0
  6  7  2  0
  7  8  1  0
  8  9  2  3
  9 10  1  0
 10 11  2  3
 11 12  1  0
 12 13  1  0
 13 14  2  0
 13 15  1  0
 15 16  1  0
 16 17  2  0
 17 18  1  0
 18 19  2  0
 19 20  1  0
 20 21  2  0
 15 22  1  0
 22 23  2  0
  7 24  1  0
 24 25  2  0
 25  4  1  0
 22 11  1  0
 21 16  1  0
  1 26  1  0
  1 27  1  0
  1 28  1  0
  3 29  1  0
  3 30  1  0
  3 31  1  0
  5 32  1  0
  6 33  1  0
  8 34  1  0
  9 35  1  0
 10 36  1  0
 17 37  1  0
 18 38  1  0
 19 39  1  0
 20 40  1  0
 21 41  1  0
 24 42  1  0
 25 43  1  0
M  END
$$$$
