
     RDKit          3D

 61 66  0  0  0  0  0  0  0  0999 V2000
    9.5005    2.5247    0.7828 F   0  0  0  0  0  0  0  0  0  0  0  0
    8.2547    2.0336    0.8294 C   0  0  0  0  0  0  0  0  0  0  0  0
    7.4183    2.1849   -0.2697 C   0  0  0  0  0  0  0  0  0  0  0  0
    6.1213    1.6724   -0.2234 C   0  0  0  0  0  0  0  0  0  0  0  0
    5.6611    1.0114    0.9262 C   0  0  0  0  0  0  0  0  0  0  0  0
    4.2620    0.4415    0.9670 C   0  0  0  0  0  0  0  0  0  0  0  0
    4.2229   -1.0034    0.4360 C   0  0  0  0  0  0  0  0  0  0  0  0
    2.9067   -1.6515    0.3771 N   0  0  0  0  0  0  0  0  0  0  0  0
    2.2074   -1.7462    1.6732 C   0  0  0  0  0  0  0  0  0  0  0  0
    0.9893   -0.8049    1.8154 C   0  0  0  0  0  0  0  0  0  0  0  0
   -0.0170   -1.0655    0.7623 N   0  0  0  0  0  0  0  0  0  0  0  0
   -1.1127   -0.2418    0.6878 C   0  0  0  0  0  0  0  0  0  0  0  0
   -1.2321    1.0920    1.0335 C   0  0  0  0  0  0  0  0  0  0  0  0
   -2.4846    1.5553    0.5720 C   0  0  0  0  0  0  0  0  0  0  0  0
   -3.1307    0.4877   -0.0174 C   0  0  0  0  0  0  0  0  0  0  0  0
   -4.4092    0.3758   -0.6860 C   0  0  0  0  0  0  0  0  0  0  0  0
   -5.1893    1.5911   -1.0305 C   0  0  0  0  0  0  0  0  0  0  0  0
   -6.5468    1.6379   -0.6968 C   0  0  0  0  0  0  0  0  0  0  0  0
   -7.3022    2.7677   -1.0133 C   0  0  0  0  0  0  0  0  0  0  0  0
   -6.7065    3.8416   -1.6753 C   0  0  0  0  0  0  0  0  0  0  0  0
   -5.3561    3.7882   -2.0275 C   0  0  0  0  0  0  0  0  0  0  0  0
   -4.5954    2.6617   -1.7093 C   0  0  0  0  0  0  0  0  0  0  0  0
   -4.9026   -0.7877   -0.9919 N   0  0  0  0  0  0  0  0  0  0  0  0
   -4.1766   -1.9492   -0.6585 C   0  0  0  0  0  0  0  0  0  0  0  0
   -4.7693   -3.1850   -0.9299 C   0  0  0  0  0  0  0  0  0  0  0  0
   -4.1279   -4.3765   -0.5868 C   0  0  0  0  0  0  0  0  0  0  0  0
   -2.8886   -4.3403    0.0479 C   0  0  0  0  0  0  0  0  0  0  0  0
   -2.2785   -3.1154    0.3241 C   0  0  0  0  0  0  0  0  0  0  0  0
   -2.9068   -1.9254   -0.0545 C   0  0  0  0  0  0  0  0  0  0  0  0
   -2.3601   -0.6427    0.1990 N   0  0  0  0  0  0  0  0  0  0  0  0
    0.5568   -1.5342   -0.5307 C   0  0  0  0  0  0  0  0  0  0  0  0
    2.0355   -1.1104   -0.6852 C   0  0  0  0  0  0  0  0  0  0  0  0
    6.5224    0.8643    2.0242 C   0  0  0  0  0  0  0  0  0  0  0  0
    7.8193    1.3782    1.9750 C   0  0  0  0  0  0  0  0  0  0  0  0
    7.7813    2.6981   -1.1543 H   0  0  0  0  0  0  0  0  0  0  0  0
    5.4719    1.7910   -1.0882 H   0  0  0  0  0  0  0  0  0  0  0  0
    3.6021    1.0945    0.3844 H   0  0  0  0  0  0  0  0  0  0  0  0
    3.8930    0.4861    1.9982 H   0  0  0  0  0  0  0  0  0  0  0  0
    4.6731   -1.0393   -0.5651 H   0  0  0  0  0  0  0  0  0  0  0  0
    4.8785   -1.6278    1.0583 H   0  0  0  0  0  0  0  0  0  0  0  0
    1.8500   -2.7793    1.7685 H   0  0  0  0  0  0  0  0  0  0  0  0
    2.8952   -1.5958    2.5138 H   0  0  0  0  0  0  0  0  0  0  0  0
    0.5289   -0.9625    2.7979 H   0  0  0  0  0  0  0  0  0  0  0  0
    1.3383    0.2330    1.7715 H   0  0  0  0  0  0  0  0  0  0  0  0
   -0.4649    1.6981    1.4924 H   0  0  0  0  0  0  0  0  0  0  0  0
   -2.8578    2.5677    0.6450 H   0  0  0  0  0  0  0  0  0  0  0  0
   -7.0133    0.7967   -0.1890 H   0  0  0  0  0  0  0  0  0  0  0  0
   -8.3561    2.8074   -0.7478 H   0  0  0  0  0  0  0  0  0  0  0  0
   -7.2986    4.7187   -1.9262 H   0  0  0  0  0  0  0  0  0  0  0  0
   -4.8999    4.6216   -2.5566 H   0  0  0  0  0  0  0  0  0  0  0  0
   -3.5510    2.6181   -2.0080 H   0  0  0  0  0  0  0  0  0  0  0  0
   -5.7459   -3.2124   -1.4048 H   0  0  0  0  0  0  0  0  0  0  0  0
   -4.6055   -5.3291   -0.7995 H   0  0  0  0  0  0  0  0  0  0  0  0
   -2.3992   -5.2659    0.3404 H   0  0  0  0  0  0  0  0  0  0  0  0
   -1.3371   -3.1189    0.8633 H   0  0  0  0  0  0  0  0  0  0  0  0
    0.4921   -2.6276   -0.5697 H   0  0  0  0  0  0  0  0  0  0  0  0
   -0.0130   -1.1465   -1.3851 H   0  0  0  0  0  0  0  0  0  0  0  0
    2.0660   -0.0158   -0.7038 H   0  0  0  0  0  0  0  0  0  0  0  0
    2.4058   -1.4600   -1.6550 H   0  0  0  0  0  0  0  0  0  0  0  0
    6.1890    0.3492    2.9228 H   0  0  0  0  0  0  0  0  0  0  0  0
    8.4920    1.2707    2.8198 H   0  0  0  0  0  0  0  0  0  0  0  0
  1  2  1  0
  2  3  2  0
  3  4  1  0
  4  5  2  0
  5  6  1  0
  6  7  1  0
  7  8  1  0
  8  9  1  0
  9 10  1  0
 10 11  1  0
 11 12  1  0
 12 13  2  0
 13 14  1  0
 14 15  2  0
 15 16  1  0
 16 17  1  0
 17 18  2  0
 18 19  1  0
 19 20  2  0
 20 21  1  0
 21 22  2  0
 16 23  2  0
 23 24  1  0
 24 25  2  0
 25 26  1  0
 26 27  2  0
 27 28  1  0
 28 29  2  0
 29 30  1  0
 11 31  1  0
 31 32  1  0
  5 33  1  0
 33 34  2  0
 34  2  1  0
 32  8  1  0
 30 12  1  0
 30 15  1  0
 22 17  1  0
 29 24  1  0
  3 35  1  0
  4 36  1  0
  6 37  1  0
  6 38  1  0
  7 39  1  0
  7 40  1  0
  9 41  1  0
  9 42  1  0
 10 43  1  0
 10 44  1  0
 13 45  1  0
 14 46  1  0
 18 47  1  0
 19 48  1  0
 20 49  1  0
 21 50  1  0
 22 51  1  0
 25 52  1  0
 26 53  1  0
 27 54  1  0
 28 55  1  0
 31 56  1  0
 31 57  1  0
 32 58  1  0
 32 59  1  0
 33 60  1  0
 34 61  1  0
M  END
$$$$
