
     RDKit          3D

 59 64  0  0  0  0  0  0  0  0999 V2000
   -3.5787   -1.4619    2.2043 C   0  0  0  0  0  0  0  0  0  0  0  0
   -4.1758   -0.2778    1.5356 C   0  0  0  0  0  0  0  0  0  0  0  0
   -4.4382    0.8633    2.1384 N   0  0  0  0  0  0  0  0  0  0  0  0
   -5.0282    1.6611    1.1948 C   0  0  0  0  0  0  0  0  0  0  0  0
   -5.5158    2.9699    1.3174 C   0  0  0  0  0  0  0  0  0  0  0  0
   -6.1022    3.5800    0.2035 C   0  0  0  0  0  0  0  0  0  0  0  0
   -6.2040    2.8982   -1.0080 C   0  0  0  0  0  0  0  0  0  0  0  0
   -5.7219    1.5913   -1.1492 C   0  0  0  0  0  0  0  0  0  0  0  0
   -5.1284    1.0017   -0.0253 C   0  0  0  0  0  0  0  0  0  0  0  0
   -4.5380   -0.2228    0.2048 N   0  0  0  0  0  0  0  0  0  0  0  0
   -4.3762   -1.2756   -0.7827 C   0  0  0  0  0  0  0  0  0  0  0  0
   -3.3721   -0.9621   -1.8920 C   0  0  0  0  0  0  0  0  0  0  0  0
   -1.9990   -0.6852   -1.4018 C   0  0  0  0  0  0  0  0  0  0  0  0
   -1.3141    0.4441   -1.7764 N   0  0  0  0  0  0  0  0  0  0  0  0
   -0.1867    0.3362   -1.1098 C   0  0  0  0  0  0  0  0  0  0  0  0
    0.9692    1.1989   -1.0231 C   0  0  0  0  0  0  0  0  0  0  0  0
    1.0659    2.4013   -1.7251 C   0  0  0  0  0  0  0  0  0  0  0  0
    2.2095    3.1878   -1.5853 C   0  0  0  0  0  0  0  0  0  0  0  0
    3.2444    2.7743   -0.7449 C   0  0  0  0  0  0  0  0  0  0  0  0
    3.1433    1.5701   -0.0409 C   0  0  0  0  0  0  0  0  0  0  0  0
    2.0107    0.7666   -0.1747 C   0  0  0  0  0  0  0  0  0  0  0  0
    1.9462   -0.4561    0.5493 N   0  0  0  0  0  0  0  0  0  0  0  0
    0.8801   -1.2070    0.4462 C   0  0  0  0  0  0  0  0  0  0  0  0
    0.7870   -2.7157    1.3462 S   0  0  0  0  0  0  0  0  0  0  0  0
    2.1578   -2.5411    2.5182 C   0  0  0  0  0  0  0  0  0  0  0  0
    3.4524   -3.0614    1.9194 C   0  0  0  0  0  0  0  0  0  0  0  0
    3.8734   -4.1939    2.1431 O   0  0  0  0  0  0  0  0  0  0  0  0
    4.1221   -2.1626    1.1256 N   0  0  0  0  0  0  0  0  0  0  0  0
    5.3322   -2.5341    0.4353 C   0  0  0  0  0  0  0  0  0  0  0  0
    5.7581   -1.4156   -0.4383 C   0  0  0  0  0  0  0  0  0  0  0  0
    5.6670   -1.1874   -1.7965 C   0  0  0  0  0  0  0  0  0  0  0  0
    6.2549    0.0786   -2.0322 C   0  0  0  0  0  0  0  0  0  0  0  0
    6.6676    0.5425   -0.8055 C   0  0  0  0  0  0  0  0  0  0  0  0
    6.3636   -0.3530    0.1694 O   0  0  0  0  0  0  0  0  0  0  0  0
   -0.1874   -0.8228   -0.3818 N   0  0  0  0  0  0  0  0  0  0  0  0
   -1.3363   -1.5141   -0.5829 N   0  0  0  0  0  0  0  0  0  0  0  0
   -3.5996   -1.3286    3.2913 H   0  0  0  0  0  0  0  0  0  0  0  0
   -4.1377   -2.3738    1.9769 H   0  0  0  0  0  0  0  0  0  0  0  0
   -2.5375   -1.5943    1.9050 H   0  0  0  0  0  0  0  0  0  0  0  0
   -5.4378    3.4875    2.2655 H   0  0  0  0  0  0  0  0  0  0  0  0
   -6.4825    4.5939    0.2871 H   0  0  0  0  0  0  0  0  0  0  0  0
   -6.6662    3.3920   -1.8604 H   0  0  0  0  0  0  0  0  0  0  0  0
   -5.8081    1.0730   -2.0959 H   0  0  0  0  0  0  0  0  0  0  0  0
   -4.0946   -2.1993   -0.2681 H   0  0  0  0  0  0  0  0  0  0  0  0
   -5.3666   -1.4520   -1.2190 H   0  0  0  0  0  0  0  0  0  0  0  0
   -3.3314   -1.8119   -2.5820 H   0  0  0  0  0  0  0  0  0  0  0  0
   -3.7171   -0.1072   -2.4836 H   0  0  0  0  0  0  0  0  0  0  0  0
    0.2557    2.7261   -2.3739 H   0  0  0  0  0  0  0  0  0  0  0  0
    2.2925    4.1253   -2.1290 H   0  0  0  0  0  0  0  0  0  0  0  0
    4.1343    3.3906   -0.6350 H   0  0  0  0  0  0  0  0  0  0  0  0
    3.9554    1.2608    0.6121 H   0  0  0  0  0  0  0  0  0  0  0  0
    2.2774   -1.5117    2.8699 H   0  0  0  0  0  0  0  0  0  0  0  0
    1.9334   -3.1490    3.4014 H   0  0  0  0  0  0  0  0  0  0  0  0
    3.6395   -1.3094    0.8494 H   0  0  0  0  0  0  0  0  0  0  0  0
    6.0992   -2.7728    1.1777 H   0  0  0  0  0  0  0  0  0  0  0  0
    5.1348   -3.4371   -0.1522 H   0  0  0  0  0  0  0  0  0  0  0  0
    5.2275   -1.8523   -2.5234 H   0  0  0  0  0  0  0  0  0  0  0  0
    6.3655    0.5909   -2.9778 H   0  0  0  0  0  0  0  0  0  0  0  0
    7.1616    1.4435   -0.4735 H   0  0  0  0  0  0  0  0  0  0  0  0
  1  2  1  0
  2  3  2  0
  3  4  1  0
  4  5  2  0
  5  6  1  0
  6  7  2  0
  7  8  1  0
  8  9  2  0
  9 10  1  0
 10 11  1  0
 11 12  1  0
 12 13  1  0
 13 14  1  0
 14 15  2  0
 15 16  1  0
 16 17  2  0
 17 18  1  0
 18 19  2  0
 19 20  1  0
 20 21  2  0
 21 22  1  0
 22 23  2  0
 23 24  1  0
 24 25  1  0
 25 26  1  0
 26 27  2  0
 26 28  1  0
 28 29  1  0
 29 30  1  0
 30 31  2  0
 31 32  1  0
 32 33  2  0
 33 34  1  0
 23 35  1  0
 35 36  1  0
 10  2  1  0
 36 13  2  0
  9  4  1  0
 35 15  1  0
 21 16  1  0
 34 30  1  0
  1 37  1  0
  1 38  1  0
  1 39  1  0
  5 40  1  0
  6 41  1  0
  7 42  1  0
  8 43  1  0
 11 44  1  0
 11 45  1  0
 12 46  1  0
 12 47  1  0
 17 48  1  0
 18 49  1  0
 19 50  1  0
 20 51  1  0
 25 52  1  0
 25 53  1  0
 28 54  1  0
 29 55  1  0
 29 56  1  0
 31 57  1  0
 32 58  1  0
 33 59  1  0
M  END
$$$$
