
     RDKit          3D

 61 67  0  0  0  0  0  0  0  0999 V2000
    4.2620    1.0615   -2.1650 O   0  0  0  0  0  0  0  0  0  0  0  0
    3.6482    0.6296   -1.1923 C   0  0  0  0  0  0  0  0  0  0  0  0
    4.4278    0.3149    0.0258 C   0  0  0  0  0  0  0  0  0  0  0  0
    5.5594   -0.5183   -0.0962 C   0  0  0  0  0  0  0  0  0  0  0  0
    6.3344   -0.8244    1.0262 C   0  0  0  0  0  0  0  0  0  0  0  0
    5.9574   -0.2728    2.2325 C   0  0  0  0  0  0  0  0  0  0  0  0
    4.8648    0.5577    2.3443 C   0  0  0  0  0  0  0  0  0  0  0  0
    4.0808    0.8819    1.2585 C   0  0  0  0  0  0  0  0  0  0  0  0
    4.6769    0.9984    3.6170 O   0  0  0  0  0  0  0  0  0  0  0  0
    5.7852    0.3646    4.2913 C   0  0  0  0  0  0  0  0  0  0  0  0
    6.5904   -0.4577    3.4213 O   0  0  0  0  0  0  0  0  0  0  0  0
    2.2666    0.4303   -1.1855 N   0  0  0  0  0  0  0  0  0  0  0  0
    1.5535   -0.3810   -0.2008 C   0  0  0  0  0  0  0  0  0  0  0  0
    0.4419   -1.2082   -0.8395 C   0  0  0  0  0  0  0  0  0  0  0  0
   -0.5784   -0.3605   -1.6512 C   0  0  0  0  0  0  0  0  0  0  0  0
    0.0354    1.0043   -2.0621 C   0  0  0  0  0  0  0  0  0  0  0  0
    1.5223    0.8661   -2.3636 C   0  0  0  0  0  0  0  0  0  0  0  0
   -0.7654   -1.0278   -2.9342 O   0  0  0  0  0  0  0  0  0  0  0  0
   -1.6512   -2.0604   -2.9971 C   0  0  0  0  0  0  0  0  0  0  0  0
   -1.6050   -2.8367   -4.1567 C   0  0  0  0  0  0  0  0  0  0  0  0
   -2.4620   -3.9293   -4.3013 C   0  0  0  0  0  0  0  0  0  0  0  0
   -3.3605   -4.2366   -3.2849 C   0  0  0  0  0  0  0  0  0  0  0  0
   -4.1785   -5.2874   -3.4255 F   0  0  0  0  0  0  0  0  0  0  0  0
   -3.4253   -3.4676   -2.1305 C   0  0  0  0  0  0  0  0  0  0  0  0
   -2.5715   -2.3692   -2.0011 C   0  0  0  0  0  0  0  0  0  0  0  0
   -2.6260   -1.5188   -0.8064 C   0  0  0  0  0  0  0  0  0  0  0  0
   -3.1897   -1.9283    0.2054 O   0  0  0  0  0  0  0  0  0  0  0  0
   -1.9350   -0.1629   -0.9164 C   0  0  0  0  0  0  0  0  0  0  0  0
   -1.8499    0.5144    0.4448 C   0  0  0  0  0  0  0  0  0  0  0  0
   -3.0799    1.3542    0.3590 C   0  0  0  0  0  0  0  0  0  0  0  0
   -3.6538    2.0354    1.5433 C   0  0  0  0  0  0  0  0  0  0  0  0
   -4.8563    2.7397    1.4025 C   0  0  0  0  0  0  0  0  0  0  0  0
   -5.4193    3.3983    2.4970 C   0  0  0  0  0  0  0  0  0  0  0  0
   -4.7840    3.3575    3.7361 C   0  0  0  0  0  0  0  0  0  0  0  0
   -3.5857    2.6598    3.8830 C   0  0  0  0  0  0  0  0  0  0  0  0
   -3.0186    1.9995    2.7898 C   0  0  0  0  0  0  0  0  0  0  0  0
   -3.5764    1.4673   -0.8320 N   0  0  0  0  0  0  0  0  0  0  0  0
   -2.7859    0.6873   -1.7024 O   0  0  0  0  0  0  0  0  0  0  0  0
    5.8322   -0.9201   -1.0703 H   0  0  0  0  0  0  0  0  0  0  0  0
    7.2059   -1.4650    0.9507 H   0  0  0  0  0  0  0  0  0  0  0  0
    3.2427    1.5607    1.3592 H   0  0  0  0  0  0  0  0  0  0  0  0
    5.3905   -0.2622    5.0988 H   0  0  0  0  0  0  0  0  0  0  0  0
    6.4215    1.1429    4.7282 H   0  0  0  0  0  0  0  0  0  0  0  0
    1.1434    0.3027    0.5494 H   0  0  0  0  0  0  0  0  0  0  0  0
    2.2468   -1.0567    0.3095 H   0  0  0  0  0  0  0  0  0  0  0  0
    0.9110   -1.9512   -1.4995 H   0  0  0  0  0  0  0  0  0  0  0  0
   -0.0598   -1.7863   -0.0549 H   0  0  0  0  0  0  0  0  0  0  0  0
   -0.0852    1.7561   -1.2755 H   0  0  0  0  0  0  0  0  0  0  0  0
   -0.4675    1.3937   -2.9563 H   0  0  0  0  0  0  0  0  0  0  0  0
    1.9247    1.8266   -2.7057 H   0  0  0  0  0  0  0  0  0  0  0  0
    1.6996    0.1352   -3.1615 H   0  0  0  0  0  0  0  0  0  0  0  0
   -0.8990   -2.5934   -4.9473 H   0  0  0  0  0  0  0  0  0  0  0  0
   -2.4336   -4.5413   -5.1979 H   0  0  0  0  0  0  0  0  0  0  0  0
   -4.1418   -3.7201   -1.3544 H   0  0  0  0  0  0  0  0  0  0  0  0
   -1.8653   -0.1760    1.2911 H   0  0  0  0  0  0  0  0  0  0  0  0
   -0.9975    1.1885    0.5519 H   0  0  0  0  0  0  0  0  0  0  0  0
   -5.3642    2.7789    0.4409 H   0  0  0  0  0  0  0  0  0  0  0  0
   -6.3535    3.9419    2.3802 H   0  0  0  0  0  0  0  0  0  0  0  0
   -5.2233    3.8698    4.5884 H   0  0  0  0  0  0  0  0  0  0  0  0
   -3.0926    2.6312    4.8517 H   0  0  0  0  0  0  0  0  0  0  0  0
   -2.0834    1.4691    2.9381 H   0  0  0  0  0  0  0  0  0  0  0  0
  1  2  2  0
  2  3  1  0
  3  4  2  0
  4  5  1  0
  5  6  2  0
  6  7  1  0
  7  8  2  0
  7  9  1  0
  9 10  1  0
 10 11  1  0
  2 12  1  0
 12 13  1  0
 13 14  1  0
 14 15  1  0
 15 16  1  0
 16 17  1  0
 15 18  1  0
 18 19  1  0
 19 20  2  0
 20 21  1  0
 21 22  2  0
 22 23  1  0
 22 24  1  0
 24 25  2  0
 25 26  1  0
 26 27  2  0
 26 28  1  0
 28 29  1  0
 29 30  1  0
 30 31  1  0
 31 32  2  0
 32 33  1  0
 33 34  2  0
 34 35  1  0
 35 36  2  0
 30 37  2  0
 37 38  1  0
  8  3  1  0
 17 12  1  0
 25 19  1  0
 38 28  1  0
 11  6  1  0
 28 15  1  0
 36 31  1  0
  4 39  1  0
  5 40  1  0
  8 41  1  0
 10 42  1  0
 10 43  1  0
 13 44  1  0
 13 45  1  0
 14 46  1  0
 14 47  1  0
 16 48  1  0
 16 49  1  0
 17 50  1  0
 17 51  1  0
 20 52  1  0
 21 53  1  0
 24 54  1  0
 29 55  1  0
 29 56  1  0
 32 57  1  0
 33 58  1  0
 34 59  1  0
 35 60  1  0
 36 61  1  0
M  END
$$$$
