
     RDKit          3D

 55 59  0  0  0  0  0  0  0  0999 V2000
    5.8593   -0.3748    5.0510 C   0  0  0  0  0  0  0  0  0  0  0  0
    4.6320   -0.0865    4.3927 O   0  0  0  0  0  0  0  0  0  0  0  0
    4.6456   -0.1063    3.0241 C   0  0  0  0  0  0  0  0  0  0  0  0
    5.7631   -0.3179    2.2173 C   0  0  0  0  0  0  0  0  0  0  0  0
    5.6298   -0.3241    0.8270 C   0  0  0  0  0  0  0  0  0  0  0  0
    4.3821   -0.1080    0.2397 C   0  0  0  0  0  0  0  0  0  0  0  0
    3.2540    0.1278    1.0336 C   0  0  0  0  0  0  0  0  0  0  0  0
    1.9559    0.3369    0.3945 C   0  0  0  0  0  0  0  0  0  0  0  0
    1.4878   -0.3668   -0.6225 N   0  0  0  0  0  0  0  0  0  0  0  0
    0.2194    0.0705   -0.9148 N   0  0  0  0  0  0  0  0  0  0  0  0
   -0.0607    1.0414   -0.0833 C   0  0  0  0  0  0  0  0  0  0  0  0
   -1.5627    1.8803    0.0243 S   0  0  0  0  0  0  0  0  0  0  0  0
   -2.7641    0.4865    0.1141 C   0  0  0  0  0  0  0  0  0  0  0  0
   -2.7793   -0.3869   -1.1567 C   0  0  0  0  0  0  0  0  0  0  0  0
   -2.6467   -1.6113   -1.1039 O   0  0  0  0  0  0  0  0  0  0  0  0
   -3.0695    0.2469   -2.4589 C   0  0  0  0  0  0  0  0  0  0  0  0
   -3.6481    1.4886   -2.6737 C   0  0  0  0  0  0  0  0  0  0  0  0
   -3.7452    1.6988   -4.0248 N   0  0  0  0  0  0  0  0  0  0  0  0
   -3.2656    0.6111   -4.7117 C   0  0  0  0  0  0  0  0  0  0  0  0
   -3.1780    0.3850   -6.0913 C   0  0  0  0  0  0  0  0  0  0  0  0
   -2.6325   -0.8301   -6.5158 C   0  0  0  0  0  0  0  0  0  0  0  0
   -2.1893   -1.7769   -5.5953 C   0  0  0  0  0  0  0  0  0  0  0  0
   -2.2823   -1.5318   -4.2200 C   0  0  0  0  0  0  0  0  0  0  0  0
   -2.8348   -0.3169   -3.7605 C   0  0  0  0  0  0  0  0  0  0  0  0
   -2.6330   -0.2404    1.4542 C   0  0  0  0  0  0  0  0  0  0  0  0
   -3.4250    0.1707    2.5423 C   0  0  0  0  0  0  0  0  0  0  0  0
   -3.2983   -0.4387    3.7928 C   0  0  0  0  0  0  0  0  0  0  0  0
   -2.3745   -1.4636    3.9802 C   0  0  0  0  0  0  0  0  0  0  0  0
   -1.5763   -1.8786    2.9183 C   0  0  0  0  0  0  0  0  0  0  0  0
   -1.7015   -1.2704    1.6680 C   0  0  0  0  0  0  0  0  0  0  0  0
    1.0180    1.2965    0.7173 N   0  0  0  0  0  0  0  0  0  0  0  0
    1.1575    2.3622    1.6747 C   0  0  0  0  0  0  0  0  0  0  0  0
    3.3977    0.1095    2.4275 C   0  0  0  0  0  0  0  0  0  0  0  0
    6.2131   -1.3811    4.8025 H   0  0  0  0  0  0  0  0  0  0  0  0
    5.6763   -0.3422    6.1297 H   0  0  0  0  0  0  0  0  0  0  0  0
    6.6177    0.3810    4.8200 H   0  0  0  0  0  0  0  0  0  0  0  0
    6.7490   -0.4931    2.6375 H   0  0  0  0  0  0  0  0  0  0  0  0
    6.4980   -0.5063    0.1978 H   0  0  0  0  0  0  0  0  0  0  0  0
    4.2891   -0.1303   -0.8454 H   0  0  0  0  0  0  0  0  0  0  0  0
   -3.7568    0.9575    0.1266 H   0  0  0  0  0  0  0  0  0  0  0  0
   -3.9993    2.2495   -1.9900 H   0  0  0  0  0  0  0  0  0  0  0  0
   -4.1125    2.5333   -4.4632 H   0  0  0  0  0  0  0  0  0  0  0  0
   -3.5177    1.1226   -6.8119 H   0  0  0  0  0  0  0  0  0  0  0  0
   -2.5500   -1.0375   -7.5802 H   0  0  0  0  0  0  0  0  0  0  0  0
   -1.7646   -2.7161   -5.9425 H   0  0  0  0  0  0  0  0  0  0  0  0
   -1.9238   -2.2740   -3.5093 H   0  0  0  0  0  0  0  0  0  0  0  0
   -4.1501    0.9741    2.4255 H   0  0  0  0  0  0  0  0  0  0  0  0
   -3.9224   -0.1139    4.6212 H   0  0  0  0  0  0  0  0  0  0  0  0
   -2.2783   -1.9424    4.9510 H   0  0  0  0  0  0  0  0  0  0  0  0
   -0.8554   -2.6810    3.0560 H   0  0  0  0  0  0  0  0  0  0  0  0
   -1.0621   -1.6222    0.8579 H   0  0  0  0  0  0  0  0  0  0  0  0
    0.7392    2.0271    2.6275 H   0  0  0  0  0  0  0  0  0  0  0  0
    2.2131    2.6239    1.7901 H   0  0  0  0  0  0  0  0  0  0  0  0
    0.6307    3.2515    1.3185 H   0  0  0  0  0  0  0  0  0  0  0  0
    2.5321    0.2372    3.0730 H   0  0  0  0  0  0  0  0  0  0  0  0
  1  2  1  0
  2  3  1  0
  3  4  2  0
  4  5  1  0
  5  6  2  0
  6  7  1  0
  7  8  1  0
  8  9  2  0
  9 10  1  0
 10 11  2  0
 11 12  1  0
 12 13  1  0
 13 14  1  0
 14 15  2  0
 14 16  1  0
 16 17  2  0
 17 18  1  0
 18 19  1  0
 19 20  2  0
 20 21  1  0
 21 22  2  0
 22 23  1  0
 23 24  2  0
 13 25  1  0
 25 26  2  0
 26 27  1  0
 27 28  2  0
 28 29  1  0
 29 30  2  0
 11 31  1  0
 31 32  1  0
  7 33  2  0
 33  3  1  0
 31  8  1  0
 24 16  1  0
 30 25  1  0
 24 19  1  0
  1 34  1  0
  1 35  1  0
  1 36  1  0
  4 37  1  0
  5 38  1  0
  6 39  1  0
 13 40  1  0
 17 41  1  0
 18 42  1  0
 20 43  1  0
 21 44  1  0
 22 45  1  0
 23 46  1  0
 26 47  1  0
 27 48  1  0
 28 49  1  0
 29 50  1  0
 30 51  1  0
 32 52  1  0
 32 53  1  0
 32 54  1  0
 33 55  1  0
M  END
$$$$
