
     RDKit          3D

 39 41  0  0  0  0  0  0  0  0999 V2000
   -3.5015   -3.1683   -0.0248 C   0  0  0  0  0  0  0  0  0  0  0  0
   -3.9707   -1.9559    0.5517 O   0  0  0  0  0  0  0  0  0  0  0  0
   -3.0208   -1.0682    0.9762 C   0  0  0  0  0  0  0  0  0  0  0  0
   -3.5258    0.1597    1.4179 C   0  0  0  0  0  0  0  0  0  0  0  0
   -2.6671    1.1668    1.8627 C   0  0  0  0  0  0  0  0  0  0  0  0
   -1.2904    0.9383    1.8633 C   0  0  0  0  0  0  0  0  0  0  0  0
   -0.1857    2.2141    2.4098 S   0  0  0  0  0  6  0  0  0  0  0  0
    1.0640    1.6122    2.8221 O   0  0  0  0  0  0  0  0  0  0  0  0
   -0.9228    3.0768    3.3106 O   0  0  0  0  0  0  0  0  0  0  0  0
    0.0604    3.1244    1.0016 N   0  0  0  0  0  0  0  0  0  0  0  0
    0.9924    2.6271    0.0501 C   0  0  0  0  0  0  0  0  0  0  0  0
    2.3419    2.9581    0.1606 C   0  0  0  0  0  0  0  0  0  0  0  0
    3.2666    2.4086   -0.7286 C   0  0  0  0  0  0  0  0  0  0  0  0
    2.8354    1.5174   -1.7132 C   0  0  0  0  0  0  0  0  0  0  0  0
    3.7486    0.9762   -2.5772 O   0  0  0  0  0  0  0  0  0  0  0  0
    1.4809    1.1699   -1.8229 C   0  0  0  0  0  0  0  0  0  0  0  0
    0.8852    0.0118   -3.0444 S   0  0  0  0  0  0  0  0  0  0  0  0
    1.3129   -1.5145   -2.3120 C   0  0  0  0  0  0  0  0  0  0  0  0
    1.5101   -1.6979   -0.9649 N   0  0  0  0  0  0  0  0  0  0  0  0
    1.8109   -2.9714   -0.8778 C   0  0  0  0  0  0  0  0  0  0  0  0
    1.7685   -3.5310   -2.1139 N   0  0  0  0  0  0  0  0  0  0  0  0
    1.4246   -2.6299   -3.0442 N   0  0  0  0  0  0  0  0  0  0  0  0
    0.5598    1.7454   -0.9399 C   0  0  0  0  0  0  0  0  0  0  0  0
   -0.7757   -0.2956    1.4572 C   0  0  0  0  0  0  0  0  0  0  0  0
   -1.6429   -1.2938    1.0030 C   0  0  0  0  0  0  0  0  0  0  0  0
   -2.9745   -3.7776    0.7167 H   0  0  0  0  0  0  0  0  0  0  0  0
   -4.3732   -3.7366   -0.3633 H   0  0  0  0  0  0  0  0  0  0  0  0
   -2.8704   -2.9745   -0.8988 H   0  0  0  0  0  0  0  0  0  0  0  0
   -4.5996    0.3334    1.4074 H   0  0  0  0  0  0  0  0  0  0  0  0
   -3.0767    2.1172    2.1961 H   0  0  0  0  0  0  0  0  0  0  0  0
    0.0892    4.1195    1.2203 H   0  0  0  0  0  0  0  0  0  0  0  0
    2.6859    3.6220    0.9491 H   0  0  0  0  0  0  0  0  0  0  0  0
    4.3150    2.6727   -0.6289 H   0  0  0  0  0  0  0  0  0  0  0  0
    4.6392    1.2714   -2.3296 H   0  0  0  0  0  0  0  0  0  0  0  0
    2.0594   -3.5208    0.0188 H   0  0  0  0  0  0  0  0  0  0  0  0
    1.9507   -4.4885   -2.3929 H   0  0  0  0  0  0  0  0  0  0  0  0
   -0.4947    1.4932   -1.0173 H   0  0  0  0  0  0  0  0  0  0  0  0
    0.2973   -0.4815    1.4625 H   0  0  0  0  0  0  0  0  0  0  0  0
   -1.2066   -2.2305    0.6723 H   0  0  0  0  0  0  0  0  0  0  0  0
  1  2  1  0
  2  3  1  0
  3  4  2  0
  4  5  1  0
  5  6  2  0
  6  7  1  0
  7  8  2  0
  7  9  2  0
  7 10  1  0
 10 11  1  0
 11 12  2  0
 12 13  1  0
 13 14  2  0
 14 15  1  0
 14 16  1  0
 16 17  1  0
 17 18  1  0
 18 19  1  0
 19 20  2  0
 20 21  1  0
 21 22  1  0
 16 23  2  0
  6 24  1  0
 24 25  2  0
 25  3  1  0
 23 11  1  0
 22 18  2  0
  1 26  1  0
  1 27  1  0
  1 28  1  0
  4 29  1  0
  5 30  1  0
 10 31  1  0
 12 32  1  0
 13 33  1  0
 15 34  1  0
 20 35  1  0
 21 36  1  0
 23 37  1  0
 24 38  1  0
 25 39  1  0
M  END
$$$$
