
     RDKit          3D

 60 63  0  0  0  0  0  0  0  0999 V2000
    4.2037    3.5242   -2.4019 C   0  0  0  0  0  0  0  0  0  0  0  0
    4.0685    2.0570   -2.7815 C   0  0  0  0  0  0  0  0  0  0  0  0
    3.6871    1.2612   -1.6570 O   0  0  0  0  0  0  0  0  0  0  0  0
    4.6233    0.9410   -0.7091 C   0  0  0  0  0  0  0  0  0  0  0  0
    6.0054    1.0771   -0.8804 C   0  0  0  0  0  0  0  0  0  0  0  0
    6.8892    0.7277    0.1479 C   0  0  0  0  0  0  0  0  0  0  0  0
    6.4042    0.2342    1.3558 C   0  0  0  0  0  0  0  0  0  0  0  0
    5.0316    0.0862    1.5394 C   0  0  0  0  0  0  0  0  0  0  0  0
    4.1436    0.4327    0.5113 C   0  0  0  0  0  0  0  0  0  0  0  0
    2.6891    0.2707    0.7312 C   0  0  0  0  0  0  0  0  0  0  0  0
    2.2080   -0.0886    1.8794 N   0  0  0  0  0  0  0  0  0  0  0  0
    0.8463   -0.2031    1.9310 N   0  0  0  0  0  0  0  0  0  0  0  0
    0.2183   -0.5977    3.1002 C   0  0  0  0  0  0  0  0  0  0  0  0
    0.8293   -0.8417    4.1400 O   0  0  0  0  0  0  0  0  0  0  0  0
   -1.2488   -0.7025    3.0501 C   0  0  0  0  0  0  0  0  0  0  0  0
   -1.9080   -1.2081    4.1459 N   0  0  0  0  0  0  0  0  0  0  0  0
   -3.2041   -1.1719    3.9209 N   0  0  0  0  0  0  0  0  0  0  0  0
   -3.4259   -0.5612    2.7298 N   0  0  0  0  0  0  0  0  0  0  0  0
   -4.7429   -0.1869    2.3503 C   0  0  0  0  0  0  0  0  0  0  0  0
   -4.9717    0.5554    1.2656 N   0  0  0  0  0  0  0  0  0  0  0  0
   -6.3538    0.7409    1.2655 O   0  0  0  0  0  0  0  0  0  0  0  0
   -6.9464    0.1242    2.3610 N   0  0  0  0  0  0  0  0  0  0  0  0
   -5.9486   -0.4502    3.0313 C   0  0  0  0  0  0  0  0  0  0  0  0
   -6.1050   -1.1584    4.1675 N   0  0  0  0  0  0  0  0  0  0  0  0
   -2.1979   -0.3725    2.0786 C   0  0  0  0  0  0  0  0  0  0  0  0
   -2.1088    0.1448    0.6799 C   0  0  0  0  0  0  0  0  0  0  0  0
   -0.9743   -0.4204   -0.0769 N   0  0  0  0  0  0  0  0  0  0  0  0
   -1.1405   -1.8600   -0.3832 C   0  0  0  0  0  0  0  0  0  0  0  0
   -2.2085   -2.1758   -1.4339 C   0  0  0  0  0  0  0  0  0  0  0  0
   -1.9734   -1.3855   -2.7251 C   0  0  0  0  0  0  0  0  0  0  0  0
   -3.1071   -1.6131   -3.7210 C   0  0  0  0  0  0  0  0  0  0  0  0
   -1.8077    0.1048   -2.4126 C   0  0  0  0  0  0  0  0  0  0  0  0
   -0.7472    0.3296   -1.3316 C   0  0  0  0  0  0  0  0  0  0  0  0
    4.3843    4.1389   -3.2902 H   0  0  0  0  0  0  0  0  0  0  0  0
    5.0291    3.6828   -1.7005 H   0  0  0  0  0  0  0  0  0  0  0  0
    3.2925    3.8792   -1.9073 H   0  0  0  0  0  0  0  0  0  0  0  0
    3.2529    1.9672   -3.5102 H   0  0  0  0  0  0  0  0  0  0  0  0
    4.9601    1.6656   -3.2844 H   0  0  0  0  0  0  0  0  0  0  0  0
    6.4380    1.4550   -1.8012 H   0  0  0  0  0  0  0  0  0  0  0  0
    7.9611    0.8428    0.0031 H   0  0  0  0  0  0  0  0  0  0  0  0
    7.0909   -0.0325    2.1557 H   0  0  0  0  0  0  0  0  0  0  0  0
    4.6568   -0.2985    2.4853 H   0  0  0  0  0  0  0  0  0  0  0  0
    2.0254    0.4792   -0.1236 H   0  0  0  0  0  0  0  0  0  0  0  0
    0.3078   -0.1472    1.0661 H   0  0  0  0  0  0  0  0  0  0  0  0
   -5.2952   -1.3608    4.7574 H   0  0  0  0  0  0  0  0  0  0  0  0
   -6.9668   -1.0439    4.6895 H   0  0  0  0  0  0  0  0  0  0  0  0
   -1.9917    1.2338    0.7555 H   0  0  0  0  0  0  0  0  0  0  0  0
   -3.0233   -0.0445    0.1195 H   0  0  0  0  0  0  0  0  0  0  0  0
   -0.1732   -2.2391   -0.7410 H   0  0  0  0  0  0  0  0  0  0  0  0
   -1.3472   -2.4308    0.5303 H   0  0  0  0  0  0  0  0  0  0  0  0
   -2.1867   -3.2500   -1.6518 H   0  0  0  0  0  0  0  0  0  0  0  0
   -3.2065   -1.9626   -1.0332 H   0  0  0  0  0  0  0  0  0  0  0  0
   -1.0435   -1.7460   -3.1840 H   0  0  0  0  0  0  0  0  0  0  0  0
   -4.0659   -1.2664   -3.3201 H   0  0  0  0  0  0  0  0  0  0  0  0
   -2.9162   -1.0735   -4.6554 H   0  0  0  0  0  0  0  0  0  0  0  0
   -3.2062   -2.6777   -3.9608 H   0  0  0  0  0  0  0  0  0  0  0  0
   -1.5106    0.6422   -3.3220 H   0  0  0  0  0  0  0  0  0  0  0  0
   -2.7645    0.5368   -2.0968 H   0  0  0  0  0  0  0  0  0  0  0  0
   -0.6590    1.4013   -1.1159 H   0  0  0  0  0  0  0  0  0  0  0  0
    0.2309    0.0344   -1.7322 H   0  0  0  0  0  0  0  0  0  0  0  0
  1  2  1  0
  2  3  1  0
  3  4  1  0
  4  5  2  0
  5  6  1  0
  6  7  2  0
  7  8  1  0
  8  9  2  0
  9 10  1  0
 10 11  2  3
 11 12  1  0
 12 13  1  0
 13 14  2  0
 13 15  1  0
 15 16  1  0
 16 17  2  0
 17 18  1  0
 18 19  1  0
 19 20  2  0
 20 21  1  0
 21 22  1  0
 22 23  2  0
 23 24  1  0
 18 25  1  0
 25 26  1  0
 26 27  1  0
 27 28  1  0
 28 29  1  0
 29 30  1  0
 30 31  1  0
 30 32  1  0
 32 33  1  0
  9  4  1  0
 25 15  2  0
 33 27  1  0
 23 19  1  0
  1 34  1  0
  1 35  1  0
  1 36  1  0
  2 37  1  0
  2 38  1  0
  5 39  1  0
  6 40  1  0
  7 41  1  0
  8 42  1  0
 10 43  1  0
 12 44  1  0
 24 45  1  0
 24 46  1  0
 26 47  1  0
 26 48  1  0
 28 49  1  0
 28 50  1  0
 29 51  1  0
 29 52  1  0
 30 53  1  0
 31 54  1  0
 31 55  1  0
 31 56  1  0
 32 57  1  0
 32 58  1  0
 33 59  1  0
 33 60  1  0
M  END
$$$$
