
     RDKit          3D

 55 59  0  0  0  0  0  0  0  0999 V2000
    7.1398   -0.3635    1.6755 C   0  0  0  0  0  0  0  0  0  0  0  0
    6.7238    0.7980    2.3839 O   0  0  0  0  0  0  0  0  0  0  0  0
    5.3764    1.0210    2.4637 C   0  0  0  0  0  0  0  0  0  0  0  0
    5.0195    2.2257    3.0736 C   0  0  0  0  0  0  0  0  0  0  0  0
    3.6788    2.5851    3.2084 C   0  0  0  0  0  0  0  0  0  0  0  0
    2.6811    1.7289    2.7443 C   0  0  0  0  0  0  0  0  0  0  0  0
    3.0203    0.5035    2.1552 C   0  0  0  0  0  0  0  0  0  0  0  0
    1.9952   -0.4114    1.6606 C   0  0  0  0  0  0  0  0  0  0  0  0
    1.9853   -0.9692    0.4625 N   0  0  0  0  0  0  0  0  0  0  0  0
    0.8332   -1.7071    0.3338 N   0  0  0  0  0  0  0  0  0  0  0  0
    0.1769   -1.6144    1.4636 C   0  0  0  0  0  0  0  0  0  0  0  0
   -1.4000   -2.2424    1.7873 S   0  0  0  0  0  0  0  0  0  0  0  0
   -2.4135   -1.3094    0.5609 C   0  0  0  0  0  0  0  0  0  0  0  0
   -2.3030   -1.8889   -0.8628 C   0  0  0  0  0  0  0  0  0  0  0  0
   -1.6525   -2.9057   -1.1089 O   0  0  0  0  0  0  0  0  0  0  0  0
   -3.0908   -1.2643   -1.9434 C   0  0  0  0  0  0  0  0  0  0  0  0
   -4.1583   -0.3932   -1.7998 C   0  0  0  0  0  0  0  0  0  0  0  0
   -4.6096   -0.0458   -3.0459 N   0  0  0  0  0  0  0  0  0  0  0  0
   -3.8734   -0.6831   -4.0138 C   0  0  0  0  0  0  0  0  0  0  0  0
   -3.9837   -0.6304   -5.4089 C   0  0  0  0  0  0  0  0  0  0  0  0
   -3.0851   -1.3926   -6.1603 C   0  0  0  0  0  0  0  0  0  0  0  0
   -2.1155   -2.1742   -5.5388 C   0  0  0  0  0  0  0  0  0  0  0  0
   -2.0201   -2.2143   -4.1432 C   0  0  0  0  0  0  0  0  0  0  0  0
   -2.9157   -1.4573   -3.3572 C   0  0  0  0  0  0  0  0  0  0  0  0
   -2.2017    0.1962    0.7092 C   0  0  0  0  0  0  0  0  0  0  0  0
   -1.2547    0.8960   -0.0571 C   0  0  0  0  0  0  0  0  0  0  0  0
   -1.0552    2.2645    0.1313 C   0  0  0  0  0  0  0  0  0  0  0  0
   -1.7964    2.9546    1.0868 C   0  0  0  0  0  0  0  0  0  0  0  0
   -2.7357    2.2768    1.8598 C   0  0  0  0  0  0  0  0  0  0  0  0
   -2.9352    0.9073    1.6764 C   0  0  0  0  0  0  0  0  0  0  0  0
    0.8907   -0.8607    2.3534 N   0  0  0  0  0  0  0  0  0  0  0  0
    0.5621   -0.5959    3.7300 C   0  0  0  0  0  0  0  0  0  0  0  0
    4.3743    0.1652    2.0030 C   0  0  0  0  0  0  0  0  0  0  0  0
    6.8092   -1.2742    2.1853 H   0  0  0  0  0  0  0  0  0  0  0  0
    6.7914   -0.3412    0.6375 H   0  0  0  0  0  0  0  0  0  0  0  0
    8.2337   -0.3698    1.6588 H   0  0  0  0  0  0  0  0  0  0  0  0
    5.7968    2.8961    3.4332 H   0  0  0  0  0  0  0  0  0  0  0  0
    3.4160    3.5355    3.6651 H   0  0  0  0  0  0  0  0  0  0  0  0
    1.6413    2.0360    2.8281 H   0  0  0  0  0  0  0  0  0  0  0  0
   -3.4500   -1.5263    0.8547 H   0  0  0  0  0  0  0  0  0  0  0  0
   -4.6417    0.0192   -0.9247 H   0  0  0  0  0  0  0  0  0  0  0  0
   -5.3760    0.5855   -3.2351 H   0  0  0  0  0  0  0  0  0  0  0  0
   -4.7371   -0.0212   -5.8975 H   0  0  0  0  0  0  0  0  0  0  0  0
   -3.1434   -1.3739   -7.2461 H   0  0  0  0  0  0  0  0  0  0  0  0
   -1.4228   -2.7601   -6.1382 H   0  0  0  0  0  0  0  0  0  0  0  0
   -1.2569   -2.8275   -3.6689 H   0  0  0  0  0  0  0  0  0  0  0  0
   -0.6433    0.3816   -0.7996 H   0  0  0  0  0  0  0  0  0  0  0  0
   -0.3145    2.7874   -0.4696 H   0  0  0  0  0  0  0  0  0  0  0  0
   -1.6400    4.0210    1.2279 H   0  0  0  0  0  0  0  0  0  0  0  0
   -3.3127    2.8154    2.6074 H   0  0  0  0  0  0  0  0  0  0  0  0
   -3.6672    0.3958    2.2989 H   0  0  0  0  0  0  0  0  0  0  0  0
    0.0879   -1.4758    4.1716 H   0  0  0  0  0  0  0  0  0  0  0  0
    1.4720   -0.3864    4.2967 H   0  0  0  0  0  0  0  0  0  0  0  0
   -0.1149    0.2611    3.7646 H   0  0  0  0  0  0  0  0  0  0  0  0
    4.6150   -0.7775    1.5194 H   0  0  0  0  0  0  0  0  0  0  0  0
  1  2  1  0
  2  3  1  0
  3  4  2  0
  4  5  1  0
  5  6  2  0
  6  7  1  0
  7  8  1  0
  8  9  2  0
  9 10  1  0
 10 11  2  0
 11 12  1  0
 12 13  1  0
 13 14  1  0
 14 15  2  0
 14 16  1  0
 16 17  2  0
 17 18  1  0
 18 19  1  0
 19 20  2  0
 20 21  1  0
 21 22  2  0
 22 23  1  0
 23 24  2  0
 13 25  1  0
 25 26  2  0
 26 27  1  0
 27 28  2  0
 28 29  1  0
 29 30  2  0
 11 31  1  0
 31 32  1  0
  7 33  2  0
 33  3  1  0
 31  8  1  0
 24 16  1  0
 30 25  1  0
 24 19  1  0
  1 34  1  0
  1 35  1  0
  1 36  1  0
  4 37  1  0
  5 38  1  0
  6 39  1  0
 13 40  1  0
 17 41  1  0
 18 42  1  0
 20 43  1  0
 21 44  1  0
 22 45  1  0
 23 46  1  0
 26 47  1  0
 27 48  1  0
 28 49  1  0
 29 50  1  0
 30 51  1  0
 32 52  1  0
 32 53  1  0
 32 54  1  0
 33 55  1  0
M  END
$$$$
