
     RDKit          3D

 67 71  0  0  0  0  0  0  0  0999 V2000
   -3.0915   -3.6675    4.1813 C   0  0  0  0  0  0  0  0  0  0  0  0
   -2.9251   -4.1297    2.8464 O   0  0  0  0  0  0  0  0  0  0  0  0
   -3.0068   -3.1930    1.8509 C   0  0  0  0  0  0  0  0  0  0  0  0
   -2.8924   -3.7113    0.5557 C   0  0  0  0  0  0  0  0  0  0  0  0
   -2.9551   -2.8706   -0.5553 C   0  0  0  0  0  0  0  0  0  0  0  0
   -2.8583   -3.2574   -1.8640 O   0  0  0  0  0  0  0  0  0  0  0  0
   -2.6699   -4.6449   -2.1118 C   0  0  0  0  0  0  0  0  0  0  0  0
   -3.1330   -1.4992   -0.3639 C   0  0  0  0  0  0  0  0  0  0  0  0
   -3.2487   -0.9624    0.9245 C   0  0  0  0  0  0  0  0  0  0  0  0
   -3.4163    0.4851    1.1088 C   0  0  0  0  0  0  0  0  0  0  0  0
   -4.8766    1.0528    1.7971 S   0  0  0  0  0  0  0  0  0  0  0  0
   -4.4009    2.6976    1.6777 C   0  0  0  0  0  0  0  0  0  0  0  0
   -5.1464    3.8235    2.0772 C   0  0  0  0  0  0  0  0  0  0  0  0
   -4.6001    5.1012    1.9108 C   0  0  0  0  0  0  0  0  0  0  0  0
   -3.3361    5.2635    1.3608 C   0  0  0  0  0  0  0  0  0  0  0  0
   -2.6962    6.4544    1.1511 O   0  0  0  0  0  0  0  0  0  0  0  0
   -3.3905    7.6358    1.5306 C   0  0  0  0  0  0  0  0  0  0  0  0
   -2.6059    4.1354    0.9678 C   0  0  0  0  0  0  0  0  0  0  0  0
   -3.1307    2.8241    1.1155 C   0  0  0  0  0  0  0  0  0  0  0  0
   -2.5673    1.5327    0.7838 C   0  0  0  0  0  0  0  0  0  0  0  0
   -1.2595    1.3041    0.1763 C   0  0  0  0  0  0  0  0  0  0  0  0
   -0.2390    0.6757    0.8980 C   0  0  0  0  0  0  0  0  0  0  0  0
    1.0119    0.4547    0.3104 C   0  0  0  0  0  0  0  0  0  0  0  0
    1.2525    0.8640   -1.0017 C   0  0  0  0  0  0  0  0  0  0  0  0
    2.4232    0.7087   -1.6912 O   0  0  0  0  0  0  0  0  0  0  0  0
    3.4694   -0.0176   -1.0389 C   0  0  0  0  0  0  0  0  0  0  0  0
    4.6609   -0.1054   -2.0075 C   0  0  0  0  0  0  0  0  0  0  0  0
    5.8441   -0.7824   -1.4477 N   0  0  0  0  0  0  0  0  0  0  0  0
    7.0111   -0.6723   -2.3525 C   0  0  0  0  0  0  0  0  0  0  0  0
    7.2428   -1.9264   -3.2100 C   0  0  0  0  0  0  0  0  0  0  0  0
    7.4639   -3.1101   -2.4309 O   0  0  0  0  0  0  0  0  0  0  0  0
    6.8471   -3.0547   -1.1374 C   0  0  0  0  0  0  0  0  0  0  0  0
    5.5688   -2.2023   -1.1296 C   0  0  0  0  0  0  0  0  0  0  0  0
    0.2352    1.5011   -1.7169 C   0  0  0  0  0  0  0  0  0  0  0  0
   -1.0155    1.7216   -1.1350 C   0  0  0  0  0  0  0  0  0  0  0  0
   -3.1823   -1.8207    2.0323 C   0  0  0  0  0  0  0  0  0  0  0  0
   -2.2905   -2.9753    4.4608 H   0  0  0  0  0  0  0  0  0  0  0  0
   -4.0770   -3.2114    4.3223 H   0  0  0  0  0  0  0  0  0  0  0  0
   -3.0283   -4.5349    4.8454 H   0  0  0  0  0  0  0  0  0  0  0  0
   -2.7555   -4.7825    0.4501 H   0  0  0  0  0  0  0  0  0  0  0  0
   -1.7292   -4.9994   -1.6777 H   0  0  0  0  0  0  0  0  0  0  0  0
   -2.6099   -4.7857   -3.1953 H   0  0  0  0  0  0  0  0  0  0  0  0
   -3.5204   -5.2302   -1.7468 H   0  0  0  0  0  0  0  0  0  0  0  0
   -3.1810   -0.8472   -1.2337 H   0  0  0  0  0  0  0  0  0  0  0  0
   -6.1358    3.7041    2.5105 H   0  0  0  0  0  0  0  0  0  0  0  0
   -5.1985    5.9493    2.2275 H   0  0  0  0  0  0  0  0  0  0  0  0
   -3.5866    7.6496    2.6079 H   0  0  0  0  0  0  0  0  0  0  0  0
   -4.3167    7.7506    0.9579 H   0  0  0  0  0  0  0  0  0  0  0  0
   -2.7477    8.4904    1.2985 H   0  0  0  0  0  0  0  0  0  0  0  0
   -1.6138    4.2714    0.5422 H   0  0  0  0  0  0  0  0  0  0  0  0
   -0.4087    0.3527    1.9225 H   0  0  0  0  0  0  0  0  0  0  0  0
    1.7732   -0.0364    0.9069 H   0  0  0  0  0  0  0  0  0  0  0  0
    3.1143   -1.0237   -0.7879 H   0  0  0  0  0  0  0  0  0  0  0  0
    3.7812    0.5109   -0.1297 H   0  0  0  0  0  0  0  0  0  0  0  0
    4.9279    0.9252   -2.2780 H   0  0  0  0  0  0  0  0  0  0  0  0
    4.3387   -0.5817   -2.9433 H   0  0  0  0  0  0  0  0  0  0  0  0
    6.9465    0.2152   -2.9928 H   0  0  0  0  0  0  0  0  0  0  0  0
    7.8926   -0.5241   -1.7157 H   0  0  0  0  0  0  0  0  0  0  0  0
    8.1213   -1.7878   -3.8483 H   0  0  0  0  0  0  0  0  0  0  0  0
    6.3869   -2.1082   -3.8703 H   0  0  0  0  0  0  0  0  0  0  0  0
    6.6149   -4.0831   -0.8421 H   0  0  0  0  0  0  0  0  0  0  0  0
    7.5812   -2.6689   -0.4204 H   0  0  0  0  0  0  0  0  0  0  0  0
    4.8743   -2.6301   -1.8646 H   0  0  0  0  0  0  0  0  0  0  0  0
    5.0995   -2.2645   -0.1419 H   0  0  0  0  0  0  0  0  0  0  0  0
    0.4164    1.8252   -2.7387 H   0  0  0  0  0  0  0  0  0  0  0  0
   -1.7939    2.2132   -1.7136 H   0  0  0  0  0  0  0  0  0  0  0  0
   -3.2623   -1.3910    3.0256 H   0  0  0  0  0  0  0  0  0  0  0  0
  1  2  1  0
  2  3  1  0
  3  4  2  0
  4  5  1  0
  5  6  1  0
  6  7  1  0
  5  8  2  0
  8  9  1  0
  9 10  1  0
 10 11  1  0
 11 12  1  0
 12 13  2  0
 13 14  1  0
 14 15  2  0
 15 16  1  0
 16 17  1  0
 15 18  1  0
 18 19  2  0
 19 20  1  0
 20 21  1  0
 21 22  2  0
 22 23  1  0
 23 24  2  0
 24 25  1  0
 25 26  1  0
 26 27  1  0
 27 28  1  0
 28 29  1  0
 29 30  1  0
 30 31  1  0
 31 32  1  0
 32 33  1  0
 24 34  1  0
 34 35  2  0
  9 36  2  0
 36  3  1  0
 20 10  2  0
 35 21  1  0
 19 12  1  0
 33 28  1  0
  1 37  1  0
  1 38  1  0
  1 39  1  0
  4 40  1  0
  7 41  1  0
  7 42  1  0
  7 43  1  0
  8 44  1  0
 13 45  1  0
 14 46  1  0
 17 47  1  0
 17 48  1  0
 17 49  1  0
 18 50  1  0
 22 51  1  0
 23 52  1  0
 26 53  1  0
 26 54  1  0
 27 55  1  0
 27 56  1  0
 29 57  1  0
 29 58  1  0
 30 59  1  0
 30 60  1  0
 32 61  1  0
 32 62  1  0
 33 63  1  0
 33 64  1  0
 34 65  1  0
 35 66  1  0
 36 67  1  0
M  END
$$$$
