
     RDKit          3D

 56 60  0  0  0  0  0  0  0  0999 V2000
   -4.1661   -0.3350   -1.8800 C   0  0  0  0  0  0  0  0  0  0  0  0
   -4.1111   -1.0632   -0.5631 C   0  0  0  0  0  0  0  0  0  0  0  0
   -5.0694   -2.0600   -0.3230 C   0  0  0  0  0  0  0  0  0  0  0  0
   -5.1060   -2.7348    0.8941 C   0  0  0  0  0  0  0  0  0  0  0  0
   -4.1847   -2.4246    1.8905 C   0  0  0  0  0  0  0  0  0  0  0  0
   -3.1902   -1.4583    1.6744 C   0  0  0  0  0  0  0  0  0  0  0  0
   -2.2511   -1.1442    2.8084 C   0  0  0  0  0  0  0  0  0  0  0  0
   -3.1421   -0.7867    0.4306 C   0  0  0  0  0  0  0  0  0  0  0  0
   -2.1286    0.1904    0.1900 N   0  0  0  0  0  0  0  0  0  0  0  0
   -1.0654   -0.0346   -0.6771 C   0  0  0  0  0  0  0  0  0  0  0  0
   -0.8295   -1.6183   -1.4035 S   0  0  0  0  0  0  0  0  0  0  0  0
    0.1939   -2.3936   -0.1258 C   0  0  0  0  0  0  0  0  0  0  0  0
    1.3246   -1.4908    0.3650 C   0  0  0  0  0  0  0  0  0  0  0  0
    1.1828   -0.9772    1.4798 O   0  0  0  0  0  0  0  0  0  0  0  0
    2.4492   -1.3152   -0.4562 N   0  0  0  0  0  0  0  0  0  0  0  0
    2.6625   -2.1862   -1.6184 C   0  0  0  0  0  0  0  0  0  0  0  0
    4.0299   -2.2169   -2.2758 C   0  0  0  0  0  0  0  0  0  0  0  0
    4.3245   -3.0451   -3.1370 O   0  0  0  0  0  0  0  0  0  0  0  0
    4.9063   -1.2395   -1.9273 N   0  0  0  0  0  0  0  0  0  0  0  0
    4.6263   -0.2630   -0.9707 C   0  0  0  0  0  0  0  0  0  0  0  0
    5.6002    0.7251   -0.7673 C   0  0  0  0  0  0  0  0  0  0  0  0
    5.3883    1.7354    0.1640 C   0  0  0  0  0  0  0  0  0  0  0  0
    4.2037    1.7572    0.8871 C   0  0  0  0  0  0  0  0  0  0  0  0
    3.2362    0.7640    0.6881 C   0  0  0  0  0  0  0  0  0  0  0  0
    3.4257   -0.2769   -0.2341 C   0  0  0  0  0  0  0  0  0  0  0  0
   -0.1834    0.8527   -1.0045 N   0  0  0  0  0  0  0  0  0  0  0  0
   -0.2701    2.1183   -0.4203 C   0  0  0  0  0  0  0  0  0  0  0  0
    0.6934    3.0758   -0.7476 C   0  0  0  0  0  0  0  0  0  0  0  0
    0.6569    4.3487   -0.1730 C   0  0  0  0  0  0  0  0  0  0  0  0
   -0.3486    4.6749    0.7359 C   0  0  0  0  0  0  0  0  0  0  0  0
   -1.3162    3.7277    1.0689 C   0  0  0  0  0  0  0  0  0  0  0  0
   -1.2692    2.4535    0.4888 C   0  0  0  0  0  0  0  0  0  0  0  0
   -2.2848    1.4330    0.8096 C   0  0  0  0  0  0  0  0  0  0  0  0
   -3.2022    1.7414    1.5693 O   0  0  0  0  0  0  0  0  0  0  0  0
   -3.5990   -0.8785   -2.6408 H   0  0  0  0  0  0  0  0  0  0  0  0
   -5.2023   -0.2420   -2.2243 H   0  0  0  0  0  0  0  0  0  0  0  0
   -3.7765    0.6841   -1.7989 H   0  0  0  0  0  0  0  0  0  0  0  0
   -5.8113   -2.3013   -1.0818 H   0  0  0  0  0  0  0  0  0  0  0  0
   -5.8667   -3.4904    1.0737 H   0  0  0  0  0  0  0  0  0  0  0  0
   -4.2474   -2.9417    2.8461 H   0  0  0  0  0  0  0  0  0  0  0  0
   -1.2692   -0.8284    2.4494 H   0  0  0  0  0  0  0  0  0  0  0  0
   -2.0855   -2.0297    3.4318 H   0  0  0  0  0  0  0  0  0  0  0  0
   -2.6729   -0.3519    3.4343 H   0  0  0  0  0  0  0  0  0  0  0  0
   -0.4462   -2.6286    0.7315 H   0  0  0  0  0  0  0  0  0  0  0  0
    0.5715   -3.3550   -0.4785 H   0  0  0  0  0  0  0  0  0  0  0  0
    1.9439   -1.8949   -2.3911 H   0  0  0  0  0  0  0  0  0  0  0  0
    2.4599   -3.2177   -1.3127 H   0  0  0  0  0  0  0  0  0  0  0  0
    5.7916   -1.2422   -2.4163 H   0  0  0  0  0  0  0  0  0  0  0  0
    6.5272    0.7191   -1.3346 H   0  0  0  0  0  0  0  0  0  0  0  0
    6.1398    2.5044    0.3213 H   0  0  0  0  0  0  0  0  0  0  0  0
    4.0188    2.5479    1.6107 H   0  0  0  0  0  0  0  0  0  0  0  0
    2.3243    0.8616    1.2676 H   0  0  0  0  0  0  0  0  0  0  0  0
    1.4826    2.8216   -1.4513 H   0  0  0  0  0  0  0  0  0  0  0  0
    1.4145    5.0830   -0.4356 H   0  0  0  0  0  0  0  0  0  0  0  0
   -0.3798    5.6653    1.1838 H   0  0  0  0  0  0  0  0  0  0  0  0
   -2.1032    3.9812    1.7760 H   0  0  0  0  0  0  0  0  0  0  0  0
  1  2  1  0
  2  3  2  0
  3  4  1  0
  4  5  2  0
  5  6  1  0
  6  7  1  0
  6  8  2  0
  8  9  1  0
  9 10  1  0
 10 11  1  0
 11 12  1  0
 12 13  1  0
 13 14  2  0
 13 15  1  0
 15 16  1  0
 16 17  1  0
 17 18  2  0
 17 19  1  0
 19 20  1  0
 20 21  2  0
 21 22  1  0
 22 23  2  0
 23 24  1  0
 24 25  2  0
 10 26  2  0
 26 27  1  0
 27 28  2  0
 28 29  1  0
 29 30  2  0
 30 31  1  0
 31 32  2  0
 32 33  1  0
 33 34  2  0
  8  2  1  0
 33  9  1  0
 25 15  1  0
 32 27  1  0
 25 20  1  0
  1 35  1  0
  1 36  1  0
  1 37  1  0
  3 38  1  0
  4 39  1  0
  5 40  1  0
  7 41  1  0
  7 42  1  0
  7 43  1  0
 12 44  1  0
 12 45  1  0
 16 46  1  0
 16 47  1  0
 19 48  1  0
 21 49  1  0
 22 50  1  0
 23 51  1  0
 24 52  1  0
 28 53  1  0
 29 54  1  0
 30 55  1  0
 31 56  1  0
M  END
$$$$
