
     RDKit          3D

 68 70  0  0  0  0  0  0  0  0999 V2000
   -5.2506    4.3188    3.9499 C   0  0  0  0  0  0  0  0  0  0  0  0
   -5.5203    3.6795    2.7062 O   0  0  0  0  0  0  0  0  0  0  0  0
   -4.6220    2.7324    2.2960 C   0  0  0  0  0  0  0  0  0  0  0  0
   -3.4808    2.3291    2.9845 C   0  0  0  0  0  0  0  0  0  0  0  0
   -2.6546    1.3327    2.4523 C   0  0  0  0  0  0  0  0  0  0  0  0
   -2.9494    0.7141    1.2219 C   0  0  0  0  0  0  0  0  0  0  0  0
   -1.9813   -0.3455    0.6939 C   0  0  0  0  0  0  0  0  0  0  0  0
   -2.5658   -1.4765   -0.2149 C   0  0  0  0  0  0  0  0  0  0  0  0
   -3.7527   -1.5804   -0.5075 O   0  0  0  0  0  0  0  0  0  0  0  0
   -1.6288   -2.4408   -0.5622 N   0  0  0  0  0  0  0  0  0  0  0  0
   -1.9268   -3.7128   -1.2347 C   0  0  0  0  0  0  0  0  0  0  0  0
   -0.5839   -4.4183   -1.5192 C   0  0  0  0  0  0  0  0  0  0  0  0
   -2.6377   -3.4974   -2.5804 C   0  0  0  0  0  0  0  0  0  0  0  0
   -2.7758   -4.6150   -0.3268 C   0  0  0  0  0  0  0  0  0  0  0  0
   -0.7307    0.2600    0.1602 N   0  0  0  0  0  0  0  0  0  0  0  0
   -0.8446    1.3210   -0.8478 C   0  0  0  0  0  0  0  0  0  0  0  0
   -1.1552    0.7630   -2.1891 C   0  0  0  0  0  0  0  0  0  0  0  0
   -2.2735    0.8075   -2.9954 C   0  0  0  0  0  0  0  0  0  0  0  0
   -1.9292    0.1360   -4.1943 C   0  0  0  0  0  0  0  0  0  0  0  0
   -0.6287   -0.2791   -4.0403 C   0  0  0  0  0  0  0  0  0  0  0  0
   -0.1488    0.0982   -2.8269 O   0  0  0  0  0  0  0  0  0  0  0  0
    0.4722   -0.3495    0.4849 C   0  0  0  0  0  0  0  0  0  0  0  0
    0.4977   -1.4012    1.1350 O   0  0  0  0  0  0  0  0  0  0  0  0
    1.7638    0.3016    0.0266 C   0  0  0  0  0  0  0  0  0  0  0  0
    2.9733   -0.3448    0.7023 C   0  0  0  0  0  0  0  0  0  0  0  0
    4.2611    0.3579    0.3208 C   0  0  0  0  0  0  0  0  0  0  0  0
    4.3967    0.9184   -0.7651 O   0  0  0  0  0  0  0  0  0  0  0  0
    5.2229    0.2510    1.3030 N   0  0  0  0  0  0  0  0  0  0  0  0
    6.4868    0.7940    1.2375 C   0  0  0  0  0  0  0  0  0  0  0  0
    7.1167    1.4811    0.1750 C   0  0  0  0  0  0  0  0  0  0  0  0
    8.3592    1.8018    0.6620 C   0  0  0  0  0  0  0  0  0  0  0  0
    9.5322    2.5069    0.1147 C   0  0  0  0  0  0  0  0  0  0  0  0
    8.4723    1.3375    1.9351 O   0  0  0  0  0  0  0  0  0  0  0  0
    7.3036    0.6917    2.2926 N   0  0  0  0  0  0  0  0  0  0  0  0
   -4.0872    1.1464    0.5313 C   0  0  0  0  0  0  0  0  0  0  0  0
   -4.9153    2.1385    1.0681 C   0  0  0  0  0  0  0  0  0  0  0  0
   -4.3308    4.9069    3.8852 H   0  0  0  0  0  0  0  0  0  0  0  0
   -6.0739    5.0087    4.1603 H   0  0  0  0  0  0  0  0  0  0  0  0
   -5.2066    3.5944    4.7693 H   0  0  0  0  0  0  0  0  0  0  0  0
   -3.2037    2.7620    3.9403 H   0  0  0  0  0  0  0  0  0  0  0  0
   -1.7690    1.0358    3.0126 H   0  0  0  0  0  0  0  0  0  0  0  0
   -1.7085   -0.9127    1.5987 H   0  0  0  0  0  0  0  0  0  0  0  0
   -0.7634   -2.4039   -0.0280 H   0  0  0  0  0  0  0  0  0  0  0  0
   -0.7321   -5.3810   -2.0231 H   0  0  0  0  0  0  0  0  0  0  0  0
    0.0567   -3.7952   -2.1556 H   0  0  0  0  0  0  0  0  0  0  0  0
   -0.0294   -4.6130   -0.5934 H   0  0  0  0  0  0  0  0  0  0  0  0
   -2.8051   -4.4532   -3.0902 H   0  0  0  0  0  0  0  0  0  0  0  0
   -3.6141   -3.0182   -2.4738 H   0  0  0  0  0  0  0  0  0  0  0  0
   -2.0360   -2.8704   -3.2420 H   0  0  0  0  0  0  0  0  0  0  0  0
   -2.9335   -5.6020   -0.7789 H   0  0  0  0  0  0  0  0  0  0  0  0
   -3.7642   -4.1797   -0.1321 H   0  0  0  0  0  0  0  0  0  0  0  0
   -2.2880   -4.7645    0.6443 H   0  0  0  0  0  0  0  0  0  0  0  0
   -1.6062    2.0451   -0.5443 H   0  0  0  0  0  0  0  0  0  0  0  0
    0.0866    1.8899   -0.9161 H   0  0  0  0  0  0  0  0  0  0  0  0
   -3.2196    1.2732   -2.7500 H   0  0  0  0  0  0  0  0  0  0  0  0
   -2.5520   -0.0288   -5.0629 H   0  0  0  0  0  0  0  0  0  0  0  0
    0.0627   -0.8231   -4.6685 H   0  0  0  0  0  0  0  0  0  0  0  0
    1.8429    0.2075   -1.0601 H   0  0  0  0  0  0  0  0  0  0  0  0
    1.7473    1.3642    0.2899 H   0  0  0  0  0  0  0  0  0  0  0  0
    3.0666   -1.3966    0.4068 H   0  0  0  0  0  0  0  0  0  0  0  0
    2.8463   -0.3131    1.7920 H   0  0  0  0  0  0  0  0  0  0  0  0
    5.0279   -0.2244    2.1727 H   0  0  0  0  0  0  0  0  0  0  0  0
    6.7292    1.6950   -0.8131 H   0  0  0  0  0  0  0  0  0  0  0  0
    9.4532    2.6143   -0.9712 H   0  0  0  0  0  0  0  0  0  0  0  0
   10.4526    1.9571    0.3372 H   0  0  0  0  0  0  0  0  0  0  0  0
    9.6170    3.5051    0.5543 H   0  0  0  0  0  0  0  0  0  0  0  0
   -4.3642    0.7181   -0.4294 H   0  0  0  0  0  0  0  0  0  0  0  0
   -5.8035    2.4446    0.5200 H   0  0  0  0  0  0  0  0  0  0  0  0
  1  2  1  0
  2  3  1  0
  3  4  2  0
  4  5  1  0
  5  6  2  0
  6  7  1  0
  7  8  1  0
  8  9  2  0
  8 10  1  0
 10 11  1  0
 11 12  1  0
 11 13  1  0
 11 14  1  0
  7 15  1  0
 15 16  1  0
 16 17  1  0
 17 18  2  0
 18 19  1  0
 19 20  2  0
 20 21  1  0
 15 22  1  0
 22 23  2  0
 22 24  1  0
 24 25  1  0
 25 26  1  0
 26 27  2  0
 26 28  1  0
 28 29  1  0
 29 30  1  0
 30 31  2  0
 31 32  1  0
 31 33  1  0
 33 34  1  0
  6 35  1  0
 35 36  2  0
 36  3  1  0
 21 17  1  0
 34 29  2  0
  1 37  1  0
  1 38  1  0
  1 39  1  0
  4 40  1  0
  5 41  1  0
  7 42  1  0
 10 43  1  0
 12 44  1  0
 12 45  1  0
 12 46  1  0
 13 47  1  0
 13 48  1  0
 13 49  1  0
 14 50  1  0
 14 51  1  0
 14 52  1  0
 16 53  1  0
 16 54  1  0
 18 55  1  0
 19 56  1  0
 20 57  1  0
 24 58  1  0
 24 59  1  0
 25 60  1  0
 25 61  1  0
 28 62  1  0
 30 63  1  0
 32 64  1  0
 32 65  1  0
 32 66  1  0
 35 67  1  0
 36 68  1  0
M  END
$$$$
