
     RDKit          3D

 48 50  0  0  0  0  0  0  0  0999 V2000
    9.1233    1.3235    0.2778 C   0  0  0  0  0  0  0  0  0  0  0  0
    8.6509   -0.0101    0.1247 O   0  0  0  0  0  0  0  0  0  0  0  0
    7.2965   -0.1861    0.0701 C   0  0  0  0  0  0  0  0  0  0  0  0
    6.8864   -1.5133   -0.0742 C   0  0  0  0  0  0  0  0  0  0  0  0
    5.5290   -1.8465   -0.1437 C   0  0  0  0  0  0  0  0  0  0  0  0
    4.5582   -0.8469   -0.0662 C   0  0  0  0  0  0  0  0  0  0  0  0
    3.2086   -1.0675   -0.1329 O   0  0  0  0  0  0  0  0  0  0  0  0
    2.7495   -2.4114   -0.0074 C   0  0  0  0  0  0  0  0  0  0  0  0
    1.2719   -2.3543    0.0813 C   0  0  0  0  0  0  0  0  0  0  0  0
    0.3436   -1.3508    0.2197 C   0  0  0  0  0  0  0  0  0  0  0  0
   -0.9141   -2.0134    0.2456 C   0  0  0  0  0  0  0  0  0  0  0  0
   -2.2616   -1.4412    0.3757 C   0  0  0  0  0  0  0  0  0  0  0  0
   -3.2654   -2.1176    0.5888 O   0  0  0  0  0  0  0  0  0  0  0  0
   -2.3345   -0.0640    0.2205 N   0  0  0  0  0  0  0  0  0  0  0  0
   -3.6232    0.6297    0.2207 C   0  0  0  0  0  0  0  0  0  0  0  0
   -3.3975    2.1055    0.5527 C   0  0  0  0  0  0  0  0  0  0  0  0
   -4.3467    0.4382   -1.1260 C   0  0  0  0  0  0  0  0  0  0  0  0
   -5.7834    0.8889   -1.0836 C   0  0  0  0  0  0  0  0  0  0  0  0
   -6.7600    0.0779   -0.5097 C   0  0  0  0  0  0  0  0  0  0  0  0
   -8.0738    0.5343   -0.4723 C   0  0  0  0  0  0  0  0  0  0  0  0
   -8.3775    1.7794   -1.0093 C   0  0  0  0  0  0  0  0  0  0  0  0
   -7.3473    2.5225   -1.5595 C   0  0  0  0  0  0  0  0  0  0  0  0
   -6.0613    2.1095   -1.6036 N   0  0  0  0  0  0  0  0  0  0  0  0
   -0.7343   -3.3416    0.1371 N   0  0  0  0  0  0  0  0  0  0  0  0
    0.6254   -3.5469    0.0320 O   0  0  0  0  0  0  0  0  0  0  0  0
    4.9755    0.4879    0.0692 C   0  0  0  0  0  0  0  0  0  0  0  0
    3.8232    1.7776    0.1627 Cl  0  0  0  0  0  0  0  0  0  0  0  0
    6.3343    0.8185    0.1395 C   0  0  0  0  0  0  0  0  0  0  0  0
   10.2171    1.2902    0.2983 H   0  0  0  0  0  0  0  0  0  0  0  0
    8.8248    1.9491   -0.5700 H   0  0  0  0  0  0  0  0  0  0  0  0
    8.7846    1.7533    1.2267 H   0  0  0  0  0  0  0  0  0  0  0  0
    7.6360   -2.3005   -0.1348 H   0  0  0  0  0  0  0  0  0  0  0  0
    5.2740   -2.8940   -0.2683 H   0  0  0  0  0  0  0  0  0  0  0  0
    3.0399   -2.9921   -0.8902 H   0  0  0  0  0  0  0  0  0  0  0  0
    3.1468   -2.8741    0.9040 H   0  0  0  0  0  0  0  0  0  0  0  0
    0.5574   -0.2955    0.3020 H   0  0  0  0  0  0  0  0  0  0  0  0
   -1.5372    0.4260   -0.1620 H   0  0  0  0  0  0  0  0  0  0  0  0
   -4.2245    0.1867    1.0254 H   0  0  0  0  0  0  0  0  0  0  0  0
   -4.3440    2.6434    0.6595 H   0  0  0  0  0  0  0  0  0  0  0  0
   -2.8505    2.2077    1.4967 H   0  0  0  0  0  0  0  0  0  0  0  0
   -2.8050    2.6009   -0.2250 H   0  0  0  0  0  0  0  0  0  0  0  0
   -4.3271   -0.6152   -1.4332 H   0  0  0  0  0  0  0  0  0  0  0  0
   -3.8142    0.9827   -1.9169 H   0  0  0  0  0  0  0  0  0  0  0  0
   -6.5039   -0.8939   -0.0962 H   0  0  0  0  0  0  0  0  0  0  0  0
   -8.8537   -0.0795   -0.0302 H   0  0  0  0  0  0  0  0  0  0  0  0
   -9.3920    2.1611   -1.0001 H   0  0  0  0  0  0  0  0  0  0  0  0
   -7.5336    3.5005   -1.9949 H   0  0  0  0  0  0  0  0  0  0  0  0
    6.6096    1.8617    0.2488 H   0  0  0  0  0  0  0  0  0  0  0  0
  1  2  1  0
  2  3  1  0
  3  4  2  0
  4  5  1  0
  5  6  2  0
  6  7  1  0
  7  8  1  0
  8  9  1  0
  9 10  2  0
 10 11  1  0
 11 12  1  0
 12 13  2  0
 12 14  1  0
 14 15  1  0
 15 16  1  0
 15 17  1  0
 17 18  1  0
 18 19  2  0
 19 20  1  0
 20 21  2  0
 21 22  1  0
 22 23  2  0
 11 24  2  0
 24 25  1  0
  6 26  1  0
 26 27  1  0
 26 28  2  0
 28  3  1  0
 25  9  1  0
 23 18  1  0
  1 29  1  0
  1 30  1  0
  1 31  1  0
  4 32  1  0
  5 33  1  0
  8 34  1  0
  8 35  1  0
 10 36  1  0
 14 37  1  0
 15 38  1  0
 16 39  1  0
 16 40  1  0
 16 41  1  0
 17 42  1  0
 17 43  1  0
 19 44  1  0
 20 45  1  0
 21 46  1  0
 22 47  1  0
 28 48  1  0
M  END
$$$$
