
     RDKit          3D

 39 41  0  0  0  0  0  0  0  0999 V2000
   -4.9403    1.9362    1.8943 C   0  0  0  0  0  0  0  0  0  0  0  0
   -5.6958    1.2961    0.8718 O   0  0  0  0  0  0  0  0  0  0  0  0
   -4.9826    0.6348   -0.0953 C   0  0  0  0  0  0  0  0  0  0  0  0
   -3.5923    0.5913   -0.2102 C   0  0  0  0  0  0  0  0  0  0  0  0
   -2.9908   -0.1369   -1.2508 C   0  0  0  0  0  0  0  0  0  0  0  0
   -1.5316   -0.1859   -1.4014 C   0  0  0  0  0  0  0  0  0  0  0  0
   -0.6622   -0.7080   -0.5255 C   0  0  0  0  0  0  0  0  0  0  0  0
   -1.0006   -1.4697    0.9859 S   0  0  0  0  0  0  0  0  0  0  0  0
    0.6999   -1.7806    1.3292 C   0  0  0  0  0  0  0  0  0  0  0  0
    1.2313   -2.5741    2.6966 S   0  0  0  0  0  0  0  0  0  0  0  0
    1.4528   -1.2954    0.2801 N   0  0  0  0  0  0  0  0  0  0  0  0
    2.8621   -1.3071    0.2899 N   0  0  0  0  0  0  0  0  0  0  0  0
    3.4715   -0.1739    0.8063 C   0  0  0  0  0  0  0  0  0  0  0  0
    2.8613    0.7141    1.3944 O   0  0  0  0  0  0  0  0  0  0  0  0
    4.9280   -0.0488    0.5774 C   0  0  0  0  0  0  0  0  0  0  0  0
    5.5150    1.2170    0.5270 C   0  0  0  0  0  0  0  0  0  0  0  0
    6.8865    1.3281    0.3093 C   0  0  0  0  0  0  0  0  0  0  0  0
    7.6240    0.1648    0.1554 C   0  0  0  0  0  0  0  0  0  0  0  0
    7.0895   -1.0757    0.2130 N   0  0  0  0  0  0  0  0  0  0  0  0
    5.7552   -1.1552    0.4355 C   0  0  0  0  0  0  0  0  0  0  0  0
    0.8022   -0.7118   -0.7925 C   0  0  0  0  0  0  0  0  0  0  0  0
    1.3276   -0.2959   -1.8170 O   0  0  0  0  0  0  0  0  0  0  0  0
   -3.7917   -0.7998   -2.1900 C   0  0  0  0  0  0  0  0  0  0  0  0
   -5.1809   -0.7552   -2.0838 C   0  0  0  0  0  0  0  0  0  0  0  0
   -5.7592   -0.0429   -1.0417 C   0  0  0  0  0  0  0  0  0  0  0  0
   -7.1249   -0.0153   -0.9589 O   0  0  0  0  0  0  0  0  0  0  0  0
   -4.3281    2.7452    1.4826 H   0  0  0  0  0  0  0  0  0  0  0  0
   -4.3271    1.2145    2.4442 H   0  0  0  0  0  0  0  0  0  0  0  0
   -5.6467    2.3806    2.6021 H   0  0  0  0  0  0  0  0  0  0  0  0
   -2.9564    1.1185    0.4935 H   0  0  0  0  0  0  0  0  0  0  0  0
   -1.1631    0.2367   -2.3360 H   0  0  0  0  0  0  0  0  0  0  0  0
    3.2817   -1.7675   -0.5128 H   0  0  0  0  0  0  0  0  0  0  0  0
    4.9095    2.1118    0.6538 H   0  0  0  0  0  0  0  0  0  0  0  0
    7.3676    2.2991    0.2620 H   0  0  0  0  0  0  0  0  0  0  0  0
    8.6963    0.2004   -0.0183 H   0  0  0  0  0  0  0  0  0  0  0  0
    5.3810   -2.1716    0.5134 H   0  0  0  0  0  0  0  0  0  0  0  0
   -3.3424   -1.3586   -3.0079 H   0  0  0  0  0  0  0  0  0  0  0  0
   -5.8081   -1.2699   -2.8053 H   0  0  0  0  0  0  0  0  0  0  0  0
   -7.3180    0.5287   -0.1705 H   0  0  0  0  0  0  0  0  0  0  0  0
  1  2  1  0
  2  3  1  0
  3  4  2  0
  4  5  1  0
  5  6  1  0
  6  7  2  3
  7  8  1  0
  8  9  1  0
  9 10  2  0
  9 11  1  0
 11 12  1  0
 12 13  1  0
 13 14  2  0
 13 15  1  0
 15 16  2  0
 16 17  1  0
 17 18  2  0
 18 19  1  0
 19 20  2  0
 11 21  1  0
 21 22  2  0
  5 23  2  0
 23 24  1  0
 24 25  2  0
 25 26  1  0
 25  3  1  0
 21  7  1  0
 20 15  1  0
  1 27  1  0
  1 28  1  0
  1 29  1  0
  4 30  1  0
  6 31  1  0
 12 32  1  0
 16 33  1  0
 17 34  1  0
 18 35  1  0
 20 36  1  0
 23 37  1  0
 24 38  1  0
 26 39  1  0
M  END
$$$$
