
     RDKit          3D

 44 47  0  0  0  0  0  0  0  0999 V2000
   -4.1640    2.7414    0.1098 C   0  0  0  0  0  0  0  0  0  0  0  0
   -3.9352    1.3395   -0.4573 C   0  0  0  0  0  0  0  0  0  0  0  0
   -2.4806    1.1263   -0.8495 C   0  0  0  0  0  0  0  0  0  0  0  0
   -1.5656    0.8930    0.3328 C   0  0  0  0  0  0  0  0  0  0  0  0
   -0.8845    1.8217    0.7815 O   0  0  0  0  0  0  0  0  0  0  0  0
   -1.4460   -0.4053    0.8169 N   0  0  0  0  0  0  0  0  0  0  0  0
   -0.4367   -0.6560    1.8528 C   0  0  0  0  0  0  0  0  0  0  0  0
    0.9776   -0.7756    1.2711 C   0  0  0  0  0  0  0  0  0  0  0  0
    1.5284   -1.8698    1.1800 O   0  0  0  0  0  0  0  0  0  0  0  0
    1.5029    0.4439    0.8785 N   0  0  0  0  0  0  0  0  0  0  0  0
    2.7665    0.7035    0.3146 C   0  0  0  0  0  0  0  0  0  0  0  0
    3.0283    2.0406   -0.0620 C   0  0  0  0  0  0  0  0  0  0  0  0
    4.2531    2.4077   -0.6305 C   0  0  0  0  0  0  0  0  0  0  0  0
    5.1937    1.4197   -0.8082 C   0  0  0  0  0  0  0  0  0  0  0  0
    4.9479    0.1178   -0.4432 C   0  0  0  0  0  0  0  0  0  0  0  0
    3.7483   -0.2727    0.1198 C   0  0  0  0  0  0  0  0  0  0  0  0
    6.0058   -0.6989   -0.7012 O   0  0  0  0  0  0  0  0  0  0  0  0
    6.9425    0.2391   -1.2687 C   0  0  0  0  0  0  0  0  0  0  0  0
    6.4328    1.5870   -1.3411 O   0  0  0  0  0  0  0  0  0  0  0  0
   -2.2923   -1.4889    0.4214 C   0  0  0  0  0  0  0  0  0  0  0  0
   -1.7205   -2.7518    0.1920 C   0  0  0  0  0  0  0  0  0  0  0  0
   -2.5039   -3.8351   -0.2126 C   0  0  0  0  0  0  0  0  0  0  0  0
   -3.8751   -3.6802   -0.3766 C   0  0  0  0  0  0  0  0  0  0  0  0
   -4.4666   -2.4434   -0.1253 C   0  0  0  0  0  0  0  0  0  0  0  0
   -3.6893   -1.3434    0.2693 C   0  0  0  0  0  0  0  0  0  0  0  0
   -4.5847    0.1306    0.7499 S   0  0  0  0  0  0  0  0  0  0  0  0
   -3.6092    2.9047    1.0405 H   0  0  0  0  0  0  0  0  0  0  0  0
   -3.8366    3.5024   -0.6074 H   0  0  0  0  0  0  0  0  0  0  0  0
   -5.2265    2.9237    0.3079 H   0  0  0  0  0  0  0  0  0  0  0  0
   -4.5457    1.2434   -1.3631 H   0  0  0  0  0  0  0  0  0  0  0  0
   -2.1031    1.9988   -1.3986 H   0  0  0  0  0  0  0  0  0  0  0  0
   -2.3808    0.2949   -1.5582 H   0  0  0  0  0  0  0  0  0  0  0  0
   -0.4478    0.1685    2.5768 H   0  0  0  0  0  0  0  0  0  0  0  0
   -0.6738   -1.5641    2.4192 H   0  0  0  0  0  0  0  0  0  0  0  0
    0.8708    1.2438    0.9569 H   0  0  0  0  0  0  0  0  0  0  0  0
    2.2731    2.8105    0.0849 H   0  0  0  0  0  0  0  0  0  0  0  0
    4.4552    3.4323   -0.9203 H   0  0  0  0  0  0  0  0  0  0  0  0
    3.6092   -1.3111    0.3921 H   0  0  0  0  0  0  0  0  0  0  0  0
    7.8517    0.2408   -0.6566 H   0  0  0  0  0  0  0  0  0  0  0  0
    7.2011   -0.0924   -2.2810 H   0  0  0  0  0  0  0  0  0  0  0  0
   -0.6490   -2.9119    0.2877 H   0  0  0  0  0  0  0  0  0  0  0  0
   -2.0374   -4.7999   -0.3990 H   0  0  0  0  0  0  0  0  0  0  0  0
   -4.4875   -4.5251   -0.6818 H   0  0  0  0  0  0  0  0  0  0  0  0
   -5.5468   -2.3501   -0.2193 H   0  0  0  0  0  0  0  0  0  0  0  0
  1  2  1  0
  2  3  1  0
  3  4  1  0
  4  5  2  0
  4  6  1  0
  6  7  1  0
  7  8  1  0
  8  9  2  0
  8 10  1  0
 10 11  1  0
 11 12  2  0
 12 13  1  0
 13 14  2  0
 14 15  1  0
 15 16  2  0
 15 17  1  0
 17 18  1  0
 18 19  1  0
  6 20  1  0
 20 21  2  0
 21 22  1  0
 22 23  2  0
 23 24  1  0
 24 25  2  0
 25 26  1  0
 26  2  1  0
 16 11  1  0
 25 20  1  0
 19 14  1  0
  1 27  1  0
  1 28  1  0
  1 29  1  0
  2 30  1  0
  3 31  1  0
  3 32  1  0
  7 33  1  0
  7 34  1  0
 10 35  1  0
 12 36  1  0
 13 37  1  0
 16 38  1  0
 18 39  1  0
 18 40  1  0
 21 41  1  0
 22 42  1  0
 23 43  1  0
 24 44  1  0
M  END
$$$$
