
     RDKit          3D

 45 49  0  0  0  0  0  0  0  0999 V2000
    1.2623    0.0194   -1.7836 O   0  0  0  0  0  0  0  0  0  0  0  0
    1.6297   -0.0026   -0.6181 C   0  0  0  0  0  0  0  0  0  0  0  0
    0.8922    0.3046    0.4904 O   0  0  0  0  0  0  0  0  0  0  0  0
   -0.4731    0.4789    0.2073 C   0  0  0  0  0  0  0  0  0  0  0  0
   -1.3499   -0.5545    0.1545 C   0  0  0  0  0  0  0  0  0  0  0  0
   -0.8767   -1.9321    0.3785 C   0  0  0  0  0  0  0  0  0  0  0  0
   -0.6683   -2.4075    1.6800 C   0  0  0  0  0  0  0  0  0  0  0  0
   -0.1799   -3.6988    1.8873 C   0  0  0  0  0  0  0  0  0  0  0  0
    0.1047   -4.5203    0.7972 C   0  0  0  0  0  0  0  0  0  0  0  0
   -0.1009   -4.0544   -0.5007 C   0  0  0  0  0  0  0  0  0  0  0  0
   -0.5906   -2.7643   -0.7108 C   0  0  0  0  0  0  0  0  0  0  0  0
   -2.8176   -0.3089   -0.1383 C   0  0  0  0  0  0  0  0  0  0  0  0
   -3.6268   -1.2301   -0.2096 O   0  0  0  0  0  0  0  0  0  0  0  0
   -3.1719    1.0046   -0.3029 N   0  0  0  0  0  0  0  0  0  0  0  0
   -2.2666    2.0457   -0.2119 C   0  0  0  0  0  0  0  0  0  0  0  0
   -2.8812    3.2722   -0.4031 C   0  0  0  0  0  0  0  0  0  0  0  0
   -2.1203    4.4219   -0.3380 C   0  0  0  0  0  0  0  0  0  0  0  0
   -0.7462    4.2920   -0.0781 C   0  0  0  0  0  0  0  0  0  0  0  0
   -0.1495    3.0252    0.1119 C   0  0  0  0  0  0  0  0  0  0  0  0
   -0.9233    1.8669    0.0433 C   0  0  0  0  0  0  0  0  0  0  0  0
   -4.3453    3.0815   -0.6583 C   0  0  0  0  0  0  0  0  0  0  0  0
   -4.5016    1.5414   -0.5844 C   0  0  0  0  0  0  0  0  0  0  0  0
    3.0189   -0.3545   -0.2147 C   0  0  0  0  0  0  0  0  0  0  0  0
    3.3727   -0.6170    1.1186 C   0  0  0  0  0  0  0  0  0  0  0  0
    4.6910   -0.9514    1.4394 C   0  0  0  0  0  0  0  0  0  0  0  0
    5.6473   -1.0260    0.4324 C   0  0  0  0  0  0  0  0  0  0  0  0
    6.9092   -1.3468    0.7448 F   0  0  0  0  0  0  0  0  0  0  0  0
    5.3123   -0.7758   -0.8932 C   0  0  0  0  0  0  0  0  0  0  0  0
    3.9960   -0.4420   -1.2192 C   0  0  0  0  0  0  0  0  0  0  0  0
   -0.8900   -1.7773    2.5380 H   0  0  0  0  0  0  0  0  0  0  0  0
   -0.0272   -4.0661    2.8986 H   0  0  0  0  0  0  0  0  0  0  0  0
    0.4806   -5.5274    0.9586 H   0  0  0  0  0  0  0  0  0  0  0  0
    0.1162   -4.6955   -1.3511 H   0  0  0  0  0  0  0  0  0  0  0  0
   -0.7431   -2.4092   -1.7282 H   0  0  0  0  0  0  0  0  0  0  0  0
   -2.5644    5.4015   -0.4839 H   0  0  0  0  0  0  0  0  0  0  0  0
   -0.1259    5.1849   -0.0245 H   0  0  0  0  0  0  0  0  0  0  0  0
    0.9179    2.9690    0.3072 H   0  0  0  0  0  0  0  0  0  0  0  0
   -4.6282    3.4559   -1.6468 H   0  0  0  0  0  0  0  0  0  0  0  0
   -4.9493    3.5725    0.1107 H   0  0  0  0  0  0  0  0  0  0  0  0
   -4.8647    1.1207   -1.5285 H   0  0  0  0  0  0  0  0  0  0  0  0
   -5.1875    1.2369    0.2137 H   0  0  0  0  0  0  0  0  0  0  0  0
    2.6342   -0.5776    1.9158 H   0  0  0  0  0  0  0  0  0  0  0  0
    4.9767   -1.1588    2.4662 H   0  0  0  0  0  0  0  0  0  0  0  0
    6.0742   -0.8450   -1.6635 H   0  0  0  0  0  0  0  0  0  0  0  0
    3.7340   -0.2519   -2.2589 H   0  0  0  0  0  0  0  0  0  0  0  0
  1  2  2  0
  2  3  1  0
  3  4  1  0
  4  5  2  0
  5  6  1  0
  6  7  2  0
  7  8  1  0
  8  9  2  0
  9 10  1  0
 10 11  2  0
  5 12  1  0
 12 13  2  0
 12 14  1  0
 14 15  1  0
 15 16  2  0
 16 17  1  0
 17 18  2  0
 18 19  1  0
 19 20  2  0
 16 21  1  0
 21 22  1  0
  2 23  1  0
 23 24  2  0
 24 25  1  0
 25 26  2  0
 26 27  1  0
 26 28  1  0
 28 29  2  0
 20  4  1  0
 29 23  1  0
 11  6  1  0
 22 14  1  0
 20 15  1  0
  7 30  1  0
  8 31  1  0
  9 32  1  0
 10 33  1  0
 11 34  1  0
 17 35  1  0
 18 36  1  0
 19 37  1  0
 21 38  1  0
 21 39  1  0
 22 40  1  0
 22 41  1  0
 24 42  1  0
 25 43  1  0
 28 44  1  0
 29 45  1  0
M  END
$$$$
