
     RDKit          3D

 39 40  0  0  0  0  0  0  0  0999 V2000
   -1.8530    1.8026   -2.0177 C   0  0  0  0  0  0  0  0  0  0  0  0
   -2.5245    0.8294   -1.0688 C   0  0  0  0  0  0  0  0  0  0  0  0
   -1.8365   -0.0495   -0.3119 C   0  0  0  0  0  0  0  0  0  0  0  0
   -0.3484   -0.0503   -0.3051 C   0  0  0  0  0  0  0  0  0  0  0  0
    0.3551   -1.1337   -0.2207 N   0  0  0  0  0  0  0  0  0  0  0  0
    1.7235   -1.0408   -0.1846 N   0  0  0  0  0  0  0  0  0  0  0  0
    2.4447   -0.0028    0.3944 C   0  0  0  0  0  0  0  0  0  0  0  0
    1.9724    1.0259    0.8758 O   0  0  0  0  0  0  0  0  0  0  0  0
    3.9216   -0.1944    0.4721 C   0  0  0  0  0  0  0  0  0  0  0  0
    4.5986   -1.0345   -0.4246 C   0  0  0  0  0  0  0  0  0  0  0  0
    5.9817   -1.1959   -0.3144 C   0  0  0  0  0  0  0  0  0  0  0  0
    6.8873   -2.3333   -1.5239 Br  0  0  0  0  0  0  0  0  0  0  0  0
    6.7035   -0.5258    0.6717 C   0  0  0  0  0  0  0  0  0  0  0  0
    6.0393    0.3279    1.5511 C   0  0  0  0  0  0  0  0  0  0  0  0
    4.6600    0.5000    1.4446 C   0  0  0  0  0  0  0  0  0  0  0  0
    4.0946    1.3735    2.3351 O   0  0  0  0  0  0  0  0  0  0  0  0
   -2.5812   -0.9810    0.5715 C   0  0  0  0  0  0  0  0  0  0  0  0
   -2.0055   -1.6109    1.4571 O   0  0  0  0  0  0  0  0  0  0  0  0
   -3.9440   -1.0617    0.3637 N   0  0  0  0  0  0  0  0  0  0  0  0
   -4.6861   -2.0306    1.1475 C   0  0  0  0  0  0  0  0  0  0  0  0
   -4.6718   -0.1043   -0.3234 C   0  0  0  0  0  0  0  0  0  0  0  0
   -5.9041   -0.0905   -0.3073 O   0  0  0  0  0  0  0  0  0  0  0  0
   -3.9234    0.8479   -1.0221 N   0  0  0  0  0  0  0  0  0  0  0  0
   -4.6791    1.8569   -1.7646 C   0  0  0  0  0  0  0  0  0  0  0  0
   -2.3445    1.7998   -2.9964 H   0  0  0  0  0  0  0  0  0  0  0  0
   -0.8086    1.5587   -2.2283 H   0  0  0  0  0  0  0  0  0  0  0  0
   -1.8850    2.8174   -1.6081 H   0  0  0  0  0  0  0  0  0  0  0  0
    0.1154    0.9408   -0.4276 H   0  0  0  0  0  0  0  0  0  0  0  0
    2.1652   -1.9548   -0.2308 H   0  0  0  0  0  0  0  0  0  0  0  0
    4.0703   -1.5463   -1.2239 H   0  0  0  0  0  0  0  0  0  0  0  0
    7.7798   -0.6518    0.7588 H   0  0  0  0  0  0  0  0  0  0  0  0
    6.5943    0.8655    2.3162 H   0  0  0  0  0  0  0  0  0  0  0  0
    3.1569    1.5144    2.0729 H   0  0  0  0  0  0  0  0  0  0  0  0
   -4.9658   -1.5668    2.0989 H   0  0  0  0  0  0  0  0  0  0  0  0
   -4.0798   -2.9191    1.3484 H   0  0  0  0  0  0  0  0  0  0  0  0
   -5.5953   -2.3383    0.6220 H   0  0  0  0  0  0  0  0  0  0  0  0
   -4.6426    1.6137   -2.8310 H   0  0  0  0  0  0  0  0  0  0  0  0
   -4.2559    2.8498   -1.5852 H   0  0  0  0  0  0  0  0  0  0  0  0
   -5.7292    1.8926   -1.4610 H   0  0  0  0  0  0  0  0  0  0  0  0
  1  2  1  0
  2  3  2  0
  3  4  1  0
  4  5  2  3
  5  6  1  0
  6  7  1  0
  7  8  2  0
  7  9  1  0
  9 10  2  0
 10 11  1  0
 11 12  1  0
 11 13  2  0
 13 14  1  0
 14 15  2  0
 15 16  1  0
  3 17  1  0
 17 18  2  0
 17 19  1  0
 19 20  1  0
 19 21  1  0
 21 22  2  0
 21 23  1  0
 23 24  1  0
 23  2  1  0
 15  9  1  0
  1 25  1  0
  1 26  1  0
  1 27  1  0
  4 28  1  0
  6 29  1  0
 10 30  1  0
 13 31  1  0
 14 32  1  0
 16 33  1  0
 20 34  1  0
 20 35  1  0
 20 36  1  0
 24 37  1  0
 24 38  1  0
 24 39  1  0
M  END
$$$$
