
     RDKit          3D

 38 38  0  0  0  0  0  0  0  0999 V2000
    4.4042   -0.9532    2.2905 C   0  0  0  0  0  0  0  0  0  0  0  0
    3.0724   -1.3775    2.0250 O   0  0  0  0  0  0  0  0  0  0  0  0
    2.3851   -0.5033    1.1281 C   0  0  0  0  0  0  0  0  0  0  0  0
    1.8127    0.7143    1.8591 C   0  0  0  0  0  0  0  0  0  0  0  0
    0.9235    1.5042    1.0306 N   0  0  0  0  0  0  0  0  0  0  0  0
    1.4055    2.3359    0.0478 C   0  0  0  0  0  0  0  0  0  0  0  0
    2.6014    2.4993   -0.1669 O   0  0  0  0  0  0  0  0  0  0  0  0
    0.3737    3.0721   -0.7334 C   0  0  0  0  0  0  0  0  0  0  0  0
    0.5888    4.4696   -0.9057 C   0  0  0  0  0  0  0  0  0  0  0  0
    0.7028    5.6155   -1.0549 N   0  0  0  0  0  0  0  0  0  0  0  0
   -0.6880    2.4825   -1.3194 C   0  0  0  0  0  0  0  0  0  0  0  0
   -1.0205    1.0652   -1.3319 C   0  0  0  0  0  0  0  0  0  0  0  0
   -0.1526    0.2044   -2.2146 C   0  0  0  0  0  0  0  0  0  0  0  0
   -2.0698    0.6329   -0.6074 C   0  0  0  0  0  0  0  0  0  0  0  0
   -2.5152   -0.7601   -0.5336 C   0  0  0  0  0  0  0  0  0  0  0  0
   -1.8444   -1.6807    0.2797 C   0  0  0  0  0  0  0  0  0  0  0  0
   -2.2739   -3.0078    0.3368 C   0  0  0  0  0  0  0  0  0  0  0  0
   -3.3745   -3.4191   -0.4154 C   0  0  0  0  0  0  0  0  0  0  0  0
   -4.0472   -2.5048   -1.2258 C   0  0  0  0  0  0  0  0  0  0  0  0
   -3.6195   -1.1772   -1.2852 C   0  0  0  0  0  0  0  0  0  0  0  0
    4.9876   -0.9208    1.3653 H   0  0  0  0  0  0  0  0  0  0  0  0
    4.8656   -1.6787    2.9655 H   0  0  0  0  0  0  0  0  0  0  0  0
    4.4153    0.0253    2.7776 H   0  0  0  0  0  0  0  0  0  0  0  0
    3.0344   -0.2133    0.2935 H   0  0  0  0  0  0  0  0  0  0  0  0
    1.5603   -1.0817    0.6973 H   0  0  0  0  0  0  0  0  0  0  0  0
    2.6217    1.3598    2.2175 H   0  0  0  0  0  0  0  0  0  0  0  0
    1.2451    0.3942    2.7393 H   0  0  0  0  0  0  0  0  0  0  0  0
   -0.0748    1.3855    1.1500 H   0  0  0  0  0  0  0  0  0  0  0  0
   -1.3833    3.0987   -1.8936 H   0  0  0  0  0  0  0  0  0  0  0  0
    0.8696    0.1536   -1.8268 H   0  0  0  0  0  0  0  0  0  0  0  0
   -0.5196   -0.8223   -2.3011 H   0  0  0  0  0  0  0  0  0  0  0  0
   -0.1170    0.6141   -3.2306 H   0  0  0  0  0  0  0  0  0  0  0  0
   -2.6749    1.3251   -0.0240 H   0  0  0  0  0  0  0  0  0  0  0  0
   -0.9845   -1.3758    0.8718 H   0  0  0  0  0  0  0  0  0  0  0  0
   -1.7495   -3.7216    0.9682 H   0  0  0  0  0  0  0  0  0  0  0  0
   -3.7068   -4.4532   -0.3707 H   0  0  0  0  0  0  0  0  0  0  0  0
   -4.9037   -2.8261   -1.8136 H   0  0  0  0  0  0  0  0  0  0  0  0
   -4.1497   -0.4750   -1.9252 H   0  0  0  0  0  0  0  0  0  0  0  0
  1  2  1  0
  2  3  1  0
  3  4  1  0
  4  5  1  0
  5  6  1  0
  6  7  2  0
  6  8  1  0
  8  9  1  0
  9 10  3  0
  8 11  2  3
 11 12  1  0
 12 13  1  0
 12 14  2  3
 14 15  1  0
 15 16  2  0
 16 17  1  0
 17 18  2  0
 18 19  1  0
 19 20  2  0
 20 15  1  0
  1 21  1  0
  1 22  1  0
  1 23  1  0
  3 24  1  0
  3 25  1  0
  4 26  1  0
  4 27  1  0
  5 28  1  0
 11 29  1  0
 13 30  1  0
 13 31  1  0
 13 32  1  0
 14 33  1  0
 16 34  1  0
 17 35  1  0
 18 36  1  0
 19 37  1  0
 20 38  1  0
M  END
$$$$
