
     RDKit          3D

 36 37  0  0  0  0  0  0  0  0999 V2000
   -2.5442    1.9734   -1.5117 C   0  0  0  0  0  0  0  0  0  0  0  0
   -2.6640    1.5784    0.2562 S   0  0  0  0  0  0  0  0  0  0  0  0
   -3.3043   -0.0921    0.1325 C   0  0  0  0  0  0  0  0  0  0  0  0
   -4.6425   -0.2632    0.5274 C   0  0  0  0  0  0  0  0  0  0  0  0
   -5.2659   -1.5097    0.4398 C   0  0  0  0  0  0  0  0  0  0  0  0
   -4.5615   -2.6057   -0.0449 C   0  0  0  0  0  0  0  0  0  0  0  0
   -3.2293   -2.4569   -0.4290 C   0  0  0  0  0  0  0  0  0  0  0  0
   -2.5839   -1.2101   -0.3305 C   0  0  0  0  0  0  0  0  0  0  0  0
   -1.1475   -1.1909   -0.7423 C   0  0  0  0  0  0  0  0  0  0  0  0
   -0.8164   -1.8852   -1.6972 O   0  0  0  0  0  0  0  0  0  0  0  0
   -0.3178   -0.4068    0.0333 N   0  0  0  0  0  0  0  0  0  0  0  0
    1.0707   -0.2103   -0.1097 C   0  0  0  0  0  0  0  0  0  0  0  0
    1.8548   -0.8497   -1.0649 C   0  0  0  0  0  0  0  0  0  0  0  0
    3.2281   -0.5950   -1.1381 C   0  0  0  0  0  0  0  0  0  0  0  0
    3.8455    0.3042   -0.2577 C   0  0  0  0  0  0  0  0  0  0  0  0
    5.3249    0.5488   -0.3708 C   0  0  0  0  0  0  0  0  0  0  0  0
    3.0625    0.9552    0.7129 C   0  0  0  0  0  0  0  0  0  0  0  0
    3.6690    1.9301    1.6846 C   0  0  0  0  0  0  0  0  0  0  0  0
    1.6828    0.6884    0.7741 C   0  0  0  0  0  0  0  0  0  0  0  0
   -1.8170    1.3289   -2.0112 H   0  0  0  0  0  0  0  0  0  0  0  0
   -3.5193    1.8616   -1.9939 H   0  0  0  0  0  0  0  0  0  0  0  0
   -2.2185    3.0111   -1.6228 H   0  0  0  0  0  0  0  0  0  0  0  0
   -5.2201    0.5816    0.8995 H   0  0  0  0  0  0  0  0  0  0  0  0
   -6.3041   -1.6205    0.7442 H   0  0  0  0  0  0  0  0  0  0  0  0
   -5.0446   -3.5768   -0.1225 H   0  0  0  0  0  0  0  0  0  0  0  0
   -2.6844   -3.3234   -0.8022 H   0  0  0  0  0  0  0  0  0  0  0  0
   -0.7656    0.1327    0.7665 H   0  0  0  0  0  0  0  0  0  0  0  0
    1.4317   -1.5571   -1.7705 H   0  0  0  0  0  0  0  0  0  0  0  0
    3.8122   -1.1122   -1.8966 H   0  0  0  0  0  0  0  0  0  0  0  0
    5.8298    0.2618    0.5569 H   0  0  0  0  0  0  0  0  0  0  0  0
    5.5209    1.6047   -0.5825 H   0  0  0  0  0  0  0  0  0  0  0  0
    5.7688   -0.0374   -1.1825 H   0  0  0  0  0  0  0  0  0  0  0  0
    4.1160    2.7730    1.1482 H   0  0  0  0  0  0  0  0  0  0  0  0
    2.9173    2.3368    2.3694 H   0  0  0  0  0  0  0  0  0  0  0  0
    4.4337    1.4358    2.2920 H   0  0  0  0  0  0  0  0  0  0  0  0
    1.0821    1.1964    1.5256 H   0  0  0  0  0  0  0  0  0  0  0  0
  1  2  1  0
  2  3  1  0
  3  4  2  0
  4  5  1  0
  5  6  2  0
  6  7  1  0
  7  8  2  0
  8  9  1  0
  9 10  2  0
  9 11  1  0
 11 12  1  0
 12 13  2  0
 13 14  1  0
 14 15  2  0
 15 16  1  0
 15 17  1  0
 17 18  1  0
 17 19  2  0
  8  3  1  0
 19 12  1  0
  1 20  1  0
  1 21  1  0
  1 22  1  0
  4 23  1  0
  5 24  1  0
  6 25  1  0
  7 26  1  0
 11 27  1  0
 13 28  1  0
 14 29  1  0
 16 30  1  0
 16 31  1  0
 16 32  1  0
 18 33  1  0
 18 34  1  0
 18 35  1  0
 19 36  1  0
M  END
$$$$
