
     RDKit          3D

 46 47  0  0  0  0  0  0  0  0999 V2000
    8.4245    2.0851   -1.0383 C   0  0  0  0  0  0  0  0  0  0  0  0
    7.9658    0.7460   -0.9160 O   0  0  0  0  0  0  0  0  0  0  0  0
    6.6537    0.5107   -1.2219 C   0  0  0  0  0  0  0  0  0  0  0  0
    6.2581   -0.8245   -1.1098 C   0  0  0  0  0  0  0  0  0  0  0  0
    4.9454   -1.2066   -1.3955 C   0  0  0  0  0  0  0  0  0  0  0  0
    4.0057   -0.2526   -1.8011 C   0  0  0  0  0  0  0  0  0  0  0  0
    2.5826   -0.6565   -2.0945 C   0  0  0  0  0  0  0  0  0  0  0  0
    1.7329   -0.6684   -0.8281 C   0  0  0  0  0  0  0  0  0  0  0  0
    0.3087   -1.0831   -1.1190 C   0  0  0  0  0  0  0  0  0  0  0  0
   -0.1275   -1.3433   -2.2375 O   0  0  0  0  0  0  0  0  0  0  0  0
   -0.4818   -1.1474    0.0150 N   0  0  0  0  0  0  0  0  0  0  0  0
   -1.8685   -1.3008   -0.1943 N   0  0  0  0  0  0  0  0  0  0  0  0
   -2.7019   -0.4676    0.5431 C   0  0  0  0  0  0  0  0  0  0  0  0
   -2.2646    0.2258    1.4603 O   0  0  0  0  0  0  0  0  0  0  0  0
   -4.1409   -0.5233    0.0901 C   0  0  0  0  0  0  0  0  0  0  0  0
   -5.0793   -0.0946    1.1106 N   0  0  0  0  0  0  0  0  0  0  0  0
   -5.8666    0.9720    0.8574 N   0  0  0  0  0  0  0  0  0  0  0  0
   -6.6515    1.0668    1.9364 C   0  0  0  0  0  0  0  0  0  0  0  0
   -7.6415    2.1636    2.0446 C   0  0  0  0  0  0  0  0  0  0  0  0
   -6.3993    0.0258    2.8558 C   0  0  0  0  0  0  0  0  0  0  0  0
   -5.3966   -0.7310    2.2876 C   0  0  0  0  0  0  0  0  0  0  0  0
   -4.7268   -1.9612    2.7756 C   0  0  0  0  0  0  0  0  0  0  0  0
    4.4020    1.0864   -1.9043 C   0  0  0  0  0  0  0  0  0  0  0  0
    5.7187    1.4657   -1.6184 C   0  0  0  0  0  0  0  0  0  0  0  0
    7.9033    2.7458   -0.3385 H   0  0  0  0  0  0  0  0  0  0  0  0
    9.4879    2.0989   -0.7800 H   0  0  0  0  0  0  0  0  0  0  0  0
    8.3271    2.4461   -2.0678 H   0  0  0  0  0  0  0  0  0  0  0  0
    6.9814   -1.5753   -0.7995 H   0  0  0  0  0  0  0  0  0  0  0  0
    4.6661   -2.2532   -1.3011 H   0  0  0  0  0  0  0  0  0  0  0  0
    2.5763   -1.6438   -2.5726 H   0  0  0  0  0  0  0  0  0  0  0  0
    2.1515    0.0307   -2.8332 H   0  0  0  0  0  0  0  0  0  0  0  0
    2.1511   -1.3643   -0.0918 H   0  0  0  0  0  0  0  0  0  0  0  0
    1.7143    0.3295   -0.3753 H   0  0  0  0  0  0  0  0  0  0  0  0
   -0.2279   -0.6125    0.8478 H   0  0  0  0  0  0  0  0  0  0  0  0
   -2.1213   -1.5774   -1.1452 H   0  0  0  0  0  0  0  0  0  0  0  0
   -4.4178   -1.5441   -0.1884 H   0  0  0  0  0  0  0  0  0  0  0  0
   -4.2565    0.1223   -0.7850 H   0  0  0  0  0  0  0  0  0  0  0  0
   -8.3201    2.1569    1.1845 H   0  0  0  0  0  0  0  0  0  0  0  0
   -8.2459    2.0627    2.9526 H   0  0  0  0  0  0  0  0  0  0  0  0
   -7.1358    3.1338    2.0794 H   0  0  0  0  0  0  0  0  0  0  0  0
   -6.8898   -0.1518    3.8036 H   0  0  0  0  0  0  0  0  0  0  0  0
   -4.6746   -2.7187    1.9882 H   0  0  0  0  0  0  0  0  0  0  0  0
   -3.7102   -1.7411    3.1167 H   0  0  0  0  0  0  0  0  0  0  0  0
   -5.2769   -2.3953    3.6176 H   0  0  0  0  0  0  0  0  0  0  0  0
    3.6876    1.8490   -2.2121 H   0  0  0  0  0  0  0  0  0  0  0  0
    5.9787    2.5147   -1.7162 H   0  0  0  0  0  0  0  0  0  0  0  0
  1  2  1  0
  2  3  1  0
  3  4  2  0
  4  5  1  0
  5  6  2  0
  6  7  1  0
  7  8  1  0
  8  9  1  0
  9 10  2  0
  9 11  1  0
 11 12  1  0
 12 13  1  0
 13 14  2  0
 13 15  1  0
 15 16  1  0
 16 17  1  0
 17 18  2  0
 18 19  1  0
 18 20  1  0
 20 21  2  0
 21 22  1  0
  6 23  1  0
 23 24  2  0
 24  3  1  0
 21 16  1  0
  1 25  1  0
  1 26  1  0
  1 27  1  0
  4 28  1  0
  5 29  1  0
  7 30  1  0
  7 31  1  0
  8 32  1  0
  8 33  1  0
 11 34  1  0
 12 35  1  0
 15 36  1  0
 15 37  1  0
 19 38  1  0
 19 39  1  0
 19 40  1  0
 20 41  1  0
 22 42  1  0
 22 43  1  0
 22 44  1  0
 23 45  1  0
 24 46  1  0
M  END
$$$$
