
     RDKit          3D

 58 62  0  0  0  0  0  0  0  0999 V2000
   -0.6296    0.8809    3.2941 O   0  0  0  0  0  0  0  0  0  0  0  0
   -0.9102   -0.2832    3.0182 C   0  0  0  0  0  0  0  0  0  0  0  0
   -2.1341   -0.9581    3.6231 C   0  0  0  0  0  0  0  0  0  0  0  0
   -3.6481   -0.4001    2.7865 S   0  0  0  0  0  0  0  0  0  0  0  0
   -3.2082   -0.7879    1.1261 C   0  0  0  0  0  0  0  0  0  0  0  0
   -2.8590   -2.0194    0.9212 N   0  0  0  0  0  0  0  0  0  0  0  0
   -2.4093   -2.3755   -0.3532 C   0  0  0  0  0  0  0  0  0  0  0  0
   -2.0214   -3.6987   -0.5823 C   0  0  0  0  0  0  0  0  0  0  0  0
   -1.5238   -4.0872   -1.8287 C   0  0  0  0  0  0  0  0  0  0  0  0
   -1.4123   -3.1545   -2.8588 C   0  0  0  0  0  0  0  0  0  0  0  0
   -1.8034   -1.8345   -2.6423 C   0  0  0  0  0  0  0  0  0  0  0  0
   -2.2964   -1.4525   -1.3884 C   0  0  0  0  0  0  0  0  0  0  0  0
   -2.7373   -0.0695   -1.1340 C   0  0  0  0  0  0  0  0  0  0  0  0
   -2.7402    0.7162   -2.0801 O   0  0  0  0  0  0  0  0  0  0  0  0
   -3.1847    0.2152    0.1609 N   0  0  0  0  0  0  0  0  0  0  0  0
   -3.6263    1.5531    0.4085 C   0  0  0  0  0  0  0  0  0  0  0  0
   -4.9316    1.8083    0.8585 C   0  0  0  0  0  0  0  0  0  0  0  0
   -5.3560    3.1220    1.0738 C   0  0  0  0  0  0  0  0  0  0  0  0
   -4.4832    4.1789    0.8275 C   0  0  0  0  0  0  0  0  0  0  0  0
   -4.8995    5.4343    1.0392 F   0  0  0  0  0  0  0  0  0  0  0  0
   -3.1941    3.9525    0.3699 C   0  0  0  0  0  0  0  0  0  0  0  0
   -2.7747    2.6425    0.1602 C   0  0  0  0  0  0  0  0  0  0  0  0
   -1.5107    2.4370   -0.2450 F   0  0  0  0  0  0  0  0  0  0  0  0
   -0.2326   -1.1036    2.1301 N   0  0  0  0  0  0  0  0  0  0  0  0
    0.9037   -0.7874    1.3592 C   0  0  0  0  0  0  0  0  0  0  0  0
    1.3711   -1.7608    0.4747 C   0  0  0  0  0  0  0  0  0  0  0  0
    2.4999   -1.5214   -0.3218 C   0  0  0  0  0  0  0  0  0  0  0  0
    3.2026   -0.3084   -0.2653 C   0  0  0  0  0  0  0  0  0  0  0  0
    4.3310   -0.1270   -1.0721 N   0  0  0  0  0  0  0  0  0  0  0  0
    4.0533   -0.2732   -2.5251 C   0  0  0  0  0  0  0  0  0  0  0  0
    5.2252    0.2737   -3.3614 C   0  0  0  0  0  0  0  0  0  0  0  0
    5.4859    1.6677   -3.1313 O   0  0  0  0  0  0  0  0  0  0  0  0
    5.2201    2.0769   -1.7766 C   0  0  0  0  0  0  0  0  0  0  0  0
    5.3191    0.9282   -0.7591 C   0  0  0  0  0  0  0  0  0  0  0  0
    2.7183    0.6548    0.6269 C   0  0  0  0  0  0  0  0  0  0  0  0
    1.5850    0.4235    1.4262 C   0  0  0  0  0  0  0  0  0  0  0  0
   -2.0548   -2.0477    3.5728 H   0  0  0  0  0  0  0  0  0  0  0  0
   -2.1857   -0.6883    4.6839 H   0  0  0  0  0  0  0  0  0  0  0  0
   -2.1098   -4.4331    0.2163 H   0  0  0  0  0  0  0  0  0  0  0  0
   -1.2240   -5.1197   -1.9976 H   0  0  0  0  0  0  0  0  0  0  0  0
   -1.0306   -3.4561   -3.8322 H   0  0  0  0  0  0  0  0  0  0  0  0
   -1.7282   -1.1069   -3.4480 H   0  0  0  0  0  0  0  0  0  0  0  0
   -5.6358    0.9958    1.0233 H   0  0  0  0  0  0  0  0  0  0  0  0
   -6.3630    3.3265    1.4263 H   0  0  0  0  0  0  0  0  0  0  0  0
   -2.5193    4.7801    0.1856 H   0  0  0  0  0  0  0  0  0  0  0  0
   -0.6407   -2.0158    1.9498 H   0  0  0  0  0  0  0  0  0  0  0  0
    0.8761   -2.7238    0.3894 H   0  0  0  0  0  0  0  0  0  0  0  0
    2.8454   -2.3166   -0.9780 H   0  0  0  0  0  0  0  0  0  0  0  0
    3.9012   -1.3292   -2.7772 H   0  0  0  0  0  0  0  0  0  0  0  0
    3.1451    0.2882   -2.7887 H   0  0  0  0  0  0  0  0  0  0  0  0
    6.1462   -0.2821   -3.1418 H   0  0  0  0  0  0  0  0  0  0  0  0
    5.0174    0.1503   -4.4297 H   0  0  0  0  0  0  0  0  0  0  0  0
    5.9390    2.8639   -1.5302 H   0  0  0  0  0  0  0  0  0  0  0  0
    4.2199    2.5261   -1.7562 H   0  0  0  0  0  0  0  0  0  0  0  0
    6.3152    0.4715   -0.8365 H   0  0  0  0  0  0  0  0  0  0  0  0
    5.2427    1.3024    0.2676 H   0  0  0  0  0  0  0  0  0  0  0  0
    3.1887    1.6298    0.7124 H   0  0  0  0  0  0  0  0  0  0  0  0
    1.2663    1.2218    2.0902 H   0  0  0  0  0  0  0  0  0  0  0  0
  1  2  2  0
  2  3  1  0
  3  4  1  0
  4  5  1  0
  5  6  2  0
  6  7  1  0
  7  8  2  0
  8  9  1  0
  9 10  2  0
 10 11  1  0
 11 12  2  0
 12 13  1  0
 13 14  2  0
 13 15  1  0
 15 16  1  0
 16 17  2  0
 17 18  1  0
 18 19  2  0
 19 20  1  0
 19 21  1  0
 21 22  2  0
 22 23  1  0
  2 24  1  0
 24 25  1  0
 25 26  2  0
 26 27  1  0
 27 28  2  0
 28 29  1  0
 29 30  1  0
 30 31  1  0
 31 32  1  0
 32 33  1  0
 33 34  1  0
 28 35  1  0
 35 36  2  0
 15  5  1  0
 22 16  1  0
 36 25  1  0
 12  7  1  0
 34 29  1  0
  3 37  1  0
  3 38  1  0
  8 39  1  0
  9 40  1  0
 10 41  1  0
 11 42  1  0
 17 43  1  0
 18 44  1  0
 21 45  1  0
 24 46  1  0
 26 47  1  0
 27 48  1  0
 30 49  1  0
 30 50  1  0
 31 51  1  0
 31 52  1  0
 33 53  1  0
 33 54  1  0
 34 55  1  0
 34 56  1  0
 35 57  1  0
 36 58  1  0
M  END
$$$$
