
     RDKit          3D

 32 34  0  0  0  0  0  0  0  0999 V2000
   -0.5951   -0.2645    1.1383 O   0  0  0  0  0  0  0  0  0  0  0  0
   -0.4969    0.6240    0.3003 C   0  0  0  0  0  0  0  0  0  0  0  0
   -1.6468    1.5960   -0.0106 C   0  0  0  0  0  0  0  0  0  0  0  0
   -2.7359    1.5971    0.8968 O   0  0  0  0  0  0  0  0  0  0  0  0
   -3.7925    0.7843    0.5955 C   0  0  0  0  0  0  0  0  0  0  0  0
   -3.7104   -0.4231   -0.0994 C   0  0  0  0  0  0  0  0  0  0  0  0
   -4.8652   -1.1762   -0.3363 C   0  0  0  0  0  0  0  0  0  0  0  0
   -6.0974   -0.7247    0.1320 C   0  0  0  0  0  0  0  0  0  0  0  0
   -7.6559   -1.7440   -0.1898 Br  0  0  0  0  0  0  0  0  0  0  0  0
   -6.1853    0.4678    0.8451 C   0  0  0  0  0  0  0  0  0  0  0  0
   -5.0296    1.2151    1.0818 C   0  0  0  0  0  0  0  0  0  0  0  0
    0.6102    0.8791   -0.4881 N   0  0  0  0  0  0  0  0  0  0  0  0
    1.7466    0.1216   -0.4084 C   0  0  0  0  0  0  0  0  0  0  0  0
    2.0225   -0.9307    0.3212 N   0  0  0  0  0  0  0  0  0  0  0  0
    3.3057   -1.3955    0.0847 N   0  0  0  0  0  0  0  0  0  0  0  0
    3.9292   -0.6597   -0.8073 C   0  0  0  0  0  0  0  0  0  0  0  0
    5.3892   -0.9640   -1.2627 C   0  0  0  0  0  0  0  0  0  0  0  0
    6.4108   -1.3650   -0.2287 C   0  0  0  0  0  0  0  0  0  0  0  0
    6.4966   -0.0153   -0.8792 C   0  0  0  0  0  0  0  0  0  0  0  0
    3.0071    0.6345   -1.4434 S   0  0  0  0  0  0  0  0  0  0  0  0
   -1.9790    1.4434   -1.0458 H   0  0  0  0  0  0  0  0  0  0  0  0
   -1.2249    2.6080    0.0301 H   0  0  0  0  0  0  0  0  0  0  0  0
   -2.7604   -0.8231   -0.4382 H   0  0  0  0  0  0  0  0  0  0  0  0
   -4.7878   -2.1191   -0.8712 H   0  0  0  0  0  0  0  0  0  0  0  0
   -7.1396    0.8203    1.2263 H   0  0  0  0  0  0  0  0  0  0  0  0
   -5.0940    2.1410    1.6483 H   0  0  0  0  0  0  0  0  0  0  0  0
    0.6266    1.6524   -1.1353 H   0  0  0  0  0  0  0  0  0  0  0  0
    5.4559   -1.4516   -2.2291 H   0  0  0  0  0  0  0  0  0  0  0  0
    6.1023   -1.4142    0.8102 H   0  0  0  0  0  0  0  0  0  0  0  0
    7.1411   -2.1162   -0.5062 H   0  0  0  0  0  0  0  0  0  0  0  0
    7.2917    0.1524   -1.5963 H   0  0  0  0  0  0  0  0  0  0  0  0
    6.2612    0.8500   -0.2698 H   0  0  0  0  0  0  0  0  0  0  0  0
  1  2  2  0
  2  3  1  0
  3  4  1  0
  4  5  1  0
  5  6  2  0
  6  7  1  0
  7  8  2  0
  8  9  1  0
  8 10  1  0
 10 11  2  0
  2 12  1  0
 12 13  1  0
 13 14  2  0
 14 15  1  0
 15 16  2  0
 16 17  1  0
 17 18  1  0
 18 19  1  0
 16 20  1  0
 11  5  1  0
 20 13  1  0
 19 17  1  0
  3 21  1  0
  3 22  1  0
  6 23  1  0
  7 24  1  0
 10 25  1  0
 11 26  1  0
 12 27  1  0
 17 28  1  0
 18 29  1  0
 18 30  1  0
 19 31  1  0
 19 32  1  0
M  END
$$$$
