
     RDKit          3D

 40 42  0  0  0  0  0  0  0  0999 V2000
   -4.3672    3.4531    1.5635 C   0  0  0  0  0  0  0  0  0  0  0  0
   -4.4207    2.1945    1.1067 C   0  0  0  0  0  0  0  0  0  0  0  0
   -3.9057    0.9954    1.8488 C   0  0  0  0  0  0  0  0  0  0  0  0
   -2.9184    0.2596    1.0636 N   0  0  0  0  0  0  0  0  0  0  0  0
   -1.5665    0.5078    1.1002 C   0  0  0  0  0  0  0  0  0  0  0  0
   -0.9431   -0.3831    0.2543 C   0  0  0  0  0  0  0  0  0  0  0  0
    0.4627   -0.4670    0.0003 C   0  0  0  0  0  0  0  0  0  0  0  0
    1.3991    0.3842    0.4541 C   0  0  0  0  0  0  0  0  0  0  0  0
    2.8287    0.2541    0.1542 C   0  0  0  0  0  0  0  0  0  0  0  0
    3.5630    1.3937   -0.1673 C   0  0  0  0  0  0  0  0  0  0  0  0
    4.9236    1.2856   -0.4319 C   0  0  0  0  0  0  0  0  0  0  0  0
    5.5453    0.0873   -0.3623 N   0  0  0  0  0  4  0  0  0  0  0  0
    6.9853   -0.0052   -0.6573 C   0  0  0  0  0  0  0  0  0  0  0  0
    4.8555   -1.0305   -0.0433 C   0  0  0  0  0  0  0  0  0  0  0  0
    3.4930   -0.9694    0.2263 C   0  0  0  0  0  0  0  0  0  0  0  0
   -1.9599   -1.2116   -0.3185 C   0  0  0  0  0  0  0  0  0  0  0  0
   -1.9561   -2.2844   -1.2386 C   0  0  0  0  0  0  0  0  0  0  0  0
   -3.1608   -2.8934   -1.6056 C   0  0  0  0  0  0  0  0  0  0  0  0
   -4.3659   -2.4504   -1.0734 C   0  0  0  0  0  0  0  0  0  0  0  0
   -4.4020   -1.3915   -0.1627 C   0  0  0  0  0  0  0  0  0  0  0  0
   -3.1876   -0.7866    0.2035 C   0  0  0  0  0  0  0  0  0  0  0  0
   -3.9350    3.6980    2.5288 H   0  0  0  0  0  0  0  0  0  0  0  0
   -4.7649    4.2735    0.9724 H   0  0  0  0  0  0  0  0  0  0  0  0
   -4.8713    2.0076    0.1334 H   0  0  0  0  0  0  0  0  0  0  0  0
   -3.4260    1.2738    2.7946 H   0  0  0  0  0  0  0  0  0  0  0  0
   -4.7271    0.3131    2.0892 H   0  0  0  0  0  0  0  0  0  0  0  0
   -1.1790    1.2997    1.7268 H   0  0  0  0  0  0  0  0  0  0  0  0
    0.7710   -1.2947   -0.6343 H   0  0  0  0  0  0  0  0  0  0  0  0
    1.1154    1.2427    1.0586 H   0  0  0  0  0  0  0  0  0  0  0  0
    3.0798    2.3677   -0.2267 H   0  0  0  0  0  0  0  0  0  0  0  0
    5.5223    2.1516   -0.7002 H   0  0  0  0  0  0  0  0  0  0  0  0
    7.4197   -0.8177   -0.0692 H   0  0  0  0  0  0  0  0  0  0  0  0
    7.0879   -0.2003   -1.7275 H   0  0  0  0  0  0  0  0  0  0  0  0
    7.4689    0.9364   -0.3847 H   0  0  0  0  0  0  0  0  0  0  0  0
    5.4025   -1.9684   -0.0034 H   0  0  0  0  0  0  0  0  0  0  0  0
    2.9609   -1.8786    0.5003 H   0  0  0  0  0  0  0  0  0  0  0  0
   -1.0259   -2.6416   -1.6684 H   0  0  0  0  0  0  0  0  0  0  0  0
   -3.1547   -3.7180   -2.3143 H   0  0  0  0  0  0  0  0  0  0  0  0
   -5.2951   -2.9324   -1.3701 H   0  0  0  0  0  0  0  0  0  0  0  0
   -5.3517   -1.0544    0.2408 H   0  0  0  0  0  0  0  0  0  0  0  0
  1  2  2  0
  2  3  1  0
  3  4  1  0
  4  5  1  0
  5  6  2  0
  6  7  1  0
  7  8  2  3
  8  9  1  0
  9 10  2  0
 10 11  1  0
 11 12  2  0
 12 13  1  0
 12 14  1  0
 14 15  2  0
  6 16  1  0
 16 17  2  0
 17 18  1  0
 18 19  2  0
 19 20  1  0
 20 21  2  0
 21  4  1  0
 15  9  1  0
 21 16  1  0
  1 22  1  0
  1 23  1  0
  2 24  1  0
  3 25  1  0
  3 26  1  0
  5 27  1  0
  7 28  1  0
  8 29  1  0
 10 30  1  0
 11 31  1  0
 13 32  1  0
 13 33  1  0
 13 34  1  0
 14 35  1  0
 15 36  1  0
 17 37  1  0
 18 38  1  0
 19 39  1  0
 20 40  1  0
M  CHG  1  12   1
M  END
$$$$
