
     RDKit          3D

 44 46  0  0  0  0  0  0  0  0999 V2000
   -3.8534   -0.7060    2.8107 C   0  0  0  0  0  0  0  0  0  0  0  0
   -2.8154   -1.2921    1.8997 C   0  0  0  0  0  0  0  0  0  0  0  0
   -3.0069   -1.2968    0.5180 C   0  0  0  0  0  0  0  0  0  0  0  0
   -2.0363   -1.8112   -0.3643 C   0  0  0  0  0  0  0  0  0  0  0  0
   -2.3854   -1.7916   -1.8282 C   0  0  0  0  0  0  0  0  0  0  0  0
   -0.8234   -2.3139    0.1699 C   0  0  0  0  0  0  0  0  0  0  0  0
    0.4775   -2.9583   -0.9097 S   0  0  0  0  0  6  0  0  0  0  0  0
    0.0013   -3.0609   -2.2720 O   0  0  0  0  0  0  0  0  0  0  0  0
    1.0607   -4.1188   -0.2684 O   0  0  0  0  0  0  0  0  0  0  0  0
    1.6588   -1.7458   -0.8597 N   0  0  0  0  0  0  0  0  0  0  0  0
    1.2944   -0.4136   -1.1945 C   0  0  0  0  0  0  0  0  0  0  0  0
    1.0213   -0.0735   -2.5180 C   0  0  0  0  0  0  0  0  0  0  0  0
    0.6258    1.2258   -2.8377 C   0  0  0  0  0  0  0  0  0  0  0  0
    0.5007    2.1785   -1.8257 C   0  0  0  0  0  0  0  0  0  0  0  0
    0.1024    3.4487   -2.1432 O   0  0  0  0  0  0  0  0  0  0  0  0
    0.7728    1.8459   -0.4906 C   0  0  0  0  0  0  0  0  0  0  0  0
    0.6003    3.0259    0.8392 S   0  0  0  0  0  0  0  0  0  0  0  0
    2.1320    3.8628    0.7841 C   0  0  0  0  0  0  0  0  0  0  0  0
    2.2745    5.1507    1.2351 N   0  0  0  0  0  0  0  0  0  0  0  0
    3.5495    5.3941    1.0509 C   0  0  0  0  0  0  0  0  0  0  0  0
    4.1484    4.2927    0.5312 N   0  0  0  0  0  0  0  0  0  0  0  0
    3.2718    3.2903    0.3724 N   0  0  0  0  0  0  0  0  0  0  0  0
    1.1675    0.5376   -0.1822 C   0  0  0  0  0  0  0  0  0  0  0  0
   -0.6167   -2.3122    1.5762 C   0  0  0  0  0  0  0  0  0  0  0  0
    0.6071   -2.8677    2.2573 C   0  0  0  0  0  0  0  0  0  0  0  0
   -1.6220   -1.7955    2.4153 C   0  0  0  0  0  0  0  0  0  0  0  0
   -3.8388   -1.1985    3.7887 H   0  0  0  0  0  0  0  0  0  0  0  0
   -4.8582   -0.8397    2.3961 H   0  0  0  0  0  0  0  0  0  0  0  0
   -3.6673    0.3633    2.9502 H   0  0  0  0  0  0  0  0  0  0  0  0
   -3.9377   -0.8940    0.1187 H   0  0  0  0  0  0  0  0  0  0  0  0
   -1.6610   -1.2050   -2.3972 H   0  0  0  0  0  0  0  0  0  0  0  0
   -2.4587   -2.8110   -2.2184 H   0  0  0  0  0  0  0  0  0  0  0  0
   -3.3608   -1.3228   -2.0031 H   0  0  0  0  0  0  0  0  0  0  0  0
    2.3233   -1.8800   -0.1010 H   0  0  0  0  0  0  0  0  0  0  0  0
    1.1150   -0.8175   -3.3061 H   0  0  0  0  0  0  0  0  0  0  0  0
    0.4165    1.4719   -3.8742 H   0  0  0  0  0  0  0  0  0  0  0  0
   -0.0340    3.5134   -3.1017 H   0  0  0  0  0  0  0  0  0  0  0  0
    4.0733    6.3135    1.2695 H   0  0  0  0  0  0  0  0  0  0  0  0
    5.1189    4.1513    0.2750 H   0  0  0  0  0  0  0  0  0  0  0  0
    1.3716    0.2682    0.8502 H   0  0  0  0  0  0  0  0  0  0  0  0
    0.6376   -2.5831    3.3155 H   0  0  0  0  0  0  0  0  0  0  0  0
    0.6009   -3.9608    2.2194 H   0  0  0  0  0  0  0  0  0  0  0  0
    1.5261   -2.4759    1.8173 H   0  0  0  0  0  0  0  0  0  0  0  0
   -1.4737   -1.7882    3.4949 H   0  0  0  0  0  0  0  0  0  0  0  0
  1  2  1  0
  2  3  2  0
  3  4  1  0
  4  5  1  0
  4  6  2  0
  6  7  1  0
  7  8  2  0
  7  9  2  0
  7 10  1  0
 10 11  1  0
 11 12  2  0
 12 13  1  0
 13 14  2  0
 14 15  1  0
 14 16  1  0
 16 17  1  0
 17 18  1  0
 18 19  1  0
 19 20  2  0
 20 21  1  0
 21 22  1  0
 16 23  2  0
  6 24  1  0
 24 25  1  0
 24 26  2  0
 26  2  1  0
 23 11  1  0
 22 18  2  0
  1 27  1  0
  1 28  1  0
  1 29  1  0
  3 30  1  0
  5 31  1  0
  5 32  1  0
  5 33  1  0
 10 34  1  0
 12 35  1  0
 13 36  1  0
 15 37  1  0
 20 38  1  0
 21 39  1  0
 23 40  1  0
 25 41  1  0
 25 42  1  0
 25 43  1  0
 26 44  1  0
M  END
$$$$
