
     RDKit          3D

 49 53  0  0  0  0  0  0  0  0999 V2000
   -0.9503   -0.6397    3.2280 O   0  0  0  0  0  0  0  0  0  0  0  0
   -0.8433   -0.2365    2.0671 C   0  0  0  0  0  0  0  0  0  0  0  0
   -1.9986    0.3027    1.3657 C   0  0  0  0  0  0  0  0  0  0  0  0
   -3.3432    0.2144    1.6867 C   0  0  0  0  0  0  0  0  0  0  0  0
   -4.0670    0.9468    0.7044 C   0  0  0  0  0  0  0  0  0  0  0  0
   -3.1012    1.4563   -0.1531 C   0  0  0  0  0  0  0  0  0  0  0  0
   -3.3731    2.2481   -1.2643 C   0  0  0  0  0  0  0  0  0  0  0  0
   -4.7191    2.5363   -1.5158 C   0  0  0  0  0  0  0  0  0  0  0  0
   -5.7457    2.0526   -0.6874 C   0  0  0  0  0  0  0  0  0  0  0  0
   -7.0925    2.3497   -0.9453 C   0  0  0  0  0  0  0  0  0  0  0  0
   -8.1054    1.8651   -0.1127 C   0  0  0  0  0  0  0  0  0  0  0  0
   -7.7906    1.0763    0.9918 C   0  0  0  0  0  0  0  0  0  0  0  0
   -6.4601    0.7657    1.2725 C   0  0  0  0  0  0  0  0  0  0  0  0
   -5.4306    1.2482    0.4398 C   0  0  0  0  0  0  0  0  0  0  0  0
   -1.8577    1.0777    0.2464 O   0  0  0  0  0  0  0  0  0  0  0  0
    0.3956   -0.2990    1.4219 N   0  0  0  0  0  0  0  0  0  0  0  0
    0.6017   -0.1382   -0.0257 C   0  0  0  0  0  0  0  0  0  0  0  0
    1.8785   -0.8321   -0.5363 C   0  0  0  0  0  0  0  0  0  0  0  0
    3.0515   -0.3808    0.2166 N   0  0  0  0  0  0  0  0  0  0  0  0
    4.2561   -0.8696   -0.2559 C   0  0  0  0  0  0  0  0  0  0  0  0
    4.8378   -0.1000   -1.2084 N   0  0  0  0  0  0  0  0  0  0  0  0
    6.0239   -0.4858   -1.7337 C   0  0  0  0  0  0  0  0  0  0  0  0
    6.6872   -1.6443   -1.3749 C   0  0  0  0  0  0  0  0  0  0  0  0
    8.0066   -1.9936   -1.9869 C   0  0  0  0  0  0  0  0  0  0  0  0
    8.1399   -3.3286   -2.2201 F   0  0  0  0  0  0  0  0  0  0  0  0
    9.0536   -1.6469   -1.1905 F   0  0  0  0  0  0  0  0  0  0  0  0
    8.2265   -1.3836   -3.1836 F   0  0  0  0  0  0  0  0  0  0  0  0
    6.0833   -2.4488   -0.4070 C   0  0  0  0  0  0  0  0  0  0  0  0
    4.8587   -2.0712    0.1521 C   0  0  0  0  0  0  0  0  0  0  0  0
    4.1396   -3.1623    1.2828 Cl  0  0  0  0  0  0  0  0  0  0  0  0
    2.8849   -0.1245    1.6527 C   0  0  0  0  0  0  0  0  0  0  0  0
    1.5695   -0.7041    2.2024 C   0  0  0  0  0  0  0  0  0  0  0  0
   -3.7415   -0.3194    2.5384 H   0  0  0  0  0  0  0  0  0  0  0  0
   -2.5787    2.6229   -1.8985 H   0  0  0  0  0  0  0  0  0  0  0  0
   -4.9624    3.1558   -2.3776 H   0  0  0  0  0  0  0  0  0  0  0  0
   -7.3669    2.9645   -1.8000 H   0  0  0  0  0  0  0  0  0  0  0  0
   -9.1433    2.1072   -0.3275 H   0  0  0  0  0  0  0  0  0  0  0  0
   -8.5823    0.7025    1.6359 H   0  0  0  0  0  0  0  0  0  0  0  0
   -6.2347    0.1510    2.1394 H   0  0  0  0  0  0  0  0  0  0  0  0
    0.6668    0.9387   -0.2199 H   0  0  0  0  0  0  0  0  0  0  0  0
   -0.2581   -0.5450   -0.5668 H   0  0  0  0  0  0  0  0  0  0  0  0
    1.7601   -1.9188   -0.4349 H   0  0  0  0  0  0  0  0  0  0  0  0
    1.9975   -0.6083   -1.6033 H   0  0  0  0  0  0  0  0  0  0  0  0
    6.4286    0.1969   -2.4789 H   0  0  0  0  0  0  0  0  0  0  0  0
    6.5618   -3.3760   -0.0963 H   0  0  0  0  0  0  0  0  0  0  0  0
    3.7291   -0.4872    2.2497 H   0  0  0  0  0  0  0  0  0  0  0  0
    2.8651    0.9647    1.7846 H   0  0  0  0  0  0  0  0  0  0  0  0
    1.4479   -0.3996    3.2478 H   0  0  0  0  0  0  0  0  0  0  0  0
    1.5946   -1.8001    2.1836 H   0  0  0  0  0  0  0  0  0  0  0  0
  1  2  2  0
  2  3  1  0
  3  4  2  0
  4  5  1  0
  5  6  2  0
  6  7  1  0
  7  8  2  0
  8  9  1  0
  9 10  2  0
 10 11  1  0
 11 12  2  0
 12 13  1  0
 13 14  2  0
  6 15  1  0
  2 16  1  0
 16 17  1  0
 17 18  1  0
 18 19  1  0
 19 20  1  0
 20 21  2  0
 21 22  1  0
 22 23  2  0
 23 24  1  0
 24 25  1  0
 24 26  1  0
 24 27  1  0
 23 28  1  0
 28 29  2  0
 29 30  1  0
 19 31  1  0
 31 32  1  0
 15  3  1  0
 32 16  1  0
 14  5  1  0
 29 20  1  0
 14  9  1  0
  4 33  1  0
  7 34  1  0
  8 35  1  0
 10 36  1  0
 11 37  1  0
 12 38  1  0
 13 39  1  0
 17 40  1  0
 17 41  1  0
 18 42  1  0
 18 43  1  0
 22 44  1  0
 28 45  1  0
 31 46  1  0
 31 47  1  0
 32 48  1  0
 32 49  1  0
M  END
$$$$
