
     RDKit          3D

 57 59  0  0  0  0  0  0  0  0999 V2000
    8.1175    2.3557   -4.4061 C   0  0  0  0  0  0  0  0  0  0  0  0
    8.7664    1.2780   -3.7440 O   0  0  0  0  0  0  0  0  0  0  0  0
    8.1618    0.7924   -2.6181 C   0  0  0  0  0  0  0  0  0  0  0  0
    8.7809   -0.3236   -2.0557 C   0  0  0  0  0  0  0  0  0  0  0  0
    8.2595   -0.9186   -0.9045 C   0  0  0  0  0  0  0  0  0  0  0  0
    7.1149   -0.4038   -0.2937 C   0  0  0  0  0  0  0  0  0  0  0  0
    6.7105   -1.0874    0.8177 O   0  0  0  0  0  0  0  0  0  0  0  0
    5.6096   -0.5798    1.5773 C   0  0  0  0  0  0  0  0  0  0  0  0
    4.2832   -1.1016    1.0303 C   0  0  0  0  0  0  0  0  0  0  0  0
    2.8978   -0.4550    2.0191 S   0  0  0  0  0  0  0  0  0  0  0  0
    1.5573   -1.1386    1.1688 C   0  0  0  0  0  0  0  0  0  0  0  0
    1.6293   -1.9592    0.1469 N   0  0  0  0  0  0  0  0  0  0  0  0
    0.3476   -2.2702   -0.2352 N   0  0  0  0  0  0  0  0  0  0  0  0
   -0.4818   -1.6316    0.5637 C   0  0  0  0  0  0  0  0  0  0  0  0
   -1.9667   -1.6741    0.4996 C   0  0  0  0  0  0  0  0  0  0  0  0
   -2.4973   -0.6506   -0.5045 C   0  0  0  0  0  0  0  0  0  0  0  0
   -3.9352   -0.4771   -0.4114 N   0  0  0  0  0  0  0  0  0  0  0  0
   -4.4934    0.2361    0.6308 C   0  0  0  0  0  0  0  0  0  0  0  0
   -3.8224    0.7484    1.5215 O   0  0  0  0  0  0  0  0  0  0  0  0
   -5.9795    0.3213    0.6615 C   0  0  0  0  0  0  0  0  0  0  0  0
   -6.6104    0.5154    1.8963 C   0  0  0  0  0  0  0  0  0  0  0  0
   -8.0056    0.6043    1.9770 C   0  0  0  0  0  0  0  0  0  0  0  0
   -8.7797    0.5094    0.8204 C   0  0  0  0  0  0  0  0  0  0  0  0
  -10.1431    0.5801    0.7561 O   0  0  0  0  0  0  0  0  0  0  0  0
  -10.8352    0.8114    1.9772 C   0  0  0  0  0  0  0  0  0  0  0  0
   -8.1473    0.3299   -0.4134 C   0  0  0  0  0  0  0  0  0  0  0  0
   -6.7547    0.2409   -0.4995 C   0  0  0  0  0  0  0  0  0  0  0  0
    0.2475   -0.8929    1.4696 N   0  0  0  0  0  0  0  0  0  0  0  0
   -0.3052   -0.0457    2.4959 C   0  0  0  0  0  0  0  0  0  0  0  0
    6.4967    0.7140   -0.8524 C   0  0  0  0  0  0  0  0  0  0  0  0
    7.0183    1.3100   -2.0102 C   0  0  0  0  0  0  0  0  0  0  0  0
    8.6956    2.5948   -5.3033 H   0  0  0  0  0  0  0  0  0  0  0  0
    8.0973    3.2496   -3.7756 H   0  0  0  0  0  0  0  0  0  0  0  0
    7.1085    2.0744   -4.7260 H   0  0  0  0  0  0  0  0  0  0  0  0
    9.6733   -0.7377   -2.5178 H   0  0  0  0  0  0  0  0  0  0  0  0
    8.7517   -1.7911   -0.4815 H   0  0  0  0  0  0  0  0  0  0  0  0
    5.6466    0.5136    1.6602 H   0  0  0  0  0  0  0  0  0  0  0  0
    5.7512   -0.9619    2.5955 H   0  0  0  0  0  0  0  0  0  0  0  0
    4.1555   -0.8056   -0.0164 H   0  0  0  0  0  0  0  0  0  0  0  0
    4.2820   -2.1978    1.0548 H   0  0  0  0  0  0  0  0  0  0  0  0
   -2.3958   -1.5126    1.4945 H   0  0  0  0  0  0  0  0  0  0  0  0
   -2.2899   -2.6782    0.1980 H   0  0  0  0  0  0  0  0  0  0  0  0
   -2.2711   -0.9640   -1.5302 H   0  0  0  0  0  0  0  0  0  0  0  0
   -2.0299    0.3294   -0.3473 H   0  0  0  0  0  0  0  0  0  0  0  0
   -4.5234   -1.0489   -1.0033 H   0  0  0  0  0  0  0  0  0  0  0  0
   -6.0166    0.5975    2.8043 H   0  0  0  0  0  0  0  0  0  0  0  0
   -8.4514    0.7505    2.9555 H   0  0  0  0  0  0  0  0  0  0  0  0
  -11.9050    0.8585    1.7518 H   0  0  0  0  0  0  0  0  0  0  0  0
  -10.6803   -0.0119    2.6811 H   0  0  0  0  0  0  0  0  0  0  0  0
  -10.5454    1.7705    2.4194 H   0  0  0  0  0  0  0  0  0  0  0  0
   -8.7480    0.2702   -1.3188 H   0  0  0  0  0  0  0  0  0  0  0  0
   -6.2999    0.1387   -1.4783 H   0  0  0  0  0  0  0  0  0  0  0  0
    0.4796    0.4905    3.0315 H   0  0  0  0  0  0  0  0  0  0  0  0
   -0.8575   -0.6735    3.1995 H   0  0  0  0  0  0  0  0  0  0  0  0
   -0.9729    0.6803    2.0258 H   0  0  0  0  0  0  0  0  0  0  0  0
    5.6007    1.1497   -0.4241 H   0  0  0  0  0  0  0  0  0  0  0  0
    6.5035    2.1777   -2.4094 H   0  0  0  0  0  0  0  0  0  0  0  0
  1  2  1  0
  2  3  1  0
  3  4  2  0
  4  5  1  0
  5  6  2  0
  6  7  1  0
  7  8  1  0
  8  9  1  0
  9 10  1  0
 10 11  1  0
 11 12  2  0
 12 13  1  0
 13 14  2  0
 14 15  1  0
 15 16  1  0
 16 17  1  0
 17 18  1  0
 18 19  2  0
 18 20  1  0
 20 21  2  0
 21 22  1  0
 22 23  2  0
 23 24  1  0
 24 25  1  0
 23 26  1  0
 26 27  2  0
 14 28  1  0
 28 29  1  0
  6 30  1  0
 30 31  2  0
 31  3  1  0
 28 11  1  0
 27 20  1  0
  1 32  1  0
  1 33  1  0
  1 34  1  0
  4 35  1  0
  5 36  1  0
  8 37  1  0
  8 38  1  0
  9 39  1  0
  9 40  1  0
 15 41  1  0
 15 42  1  0
 16 43  1  0
 16 44  1  0
 17 45  1  0
 21 46  1  0
 22 47  1  0
 25 48  1  0
 25 49  1  0
 25 50  1  0
 26 51  1  0
 27 52  1  0
 29 53  1  0
 29 54  1  0
 29 55  1  0
 30 56  1  0
 31 57  1  0
M  END
$$$$
