
     RDKit          3D

 37 39  0  0  0  0  0  0  0  0999 V2000
   -7.4686    2.1484    0.8521 C   0  0  0  0  0  0  0  0  0  0  0  0
   -6.2338    2.7861    0.5437 O   0  0  0  0  0  0  0  0  0  0  0  0
   -5.1388    1.9815    0.3897 C   0  0  0  0  0  0  0  0  0  0  0  0
   -5.1067    0.5977    0.5443 C   0  0  0  0  0  0  0  0  0  0  0  0
   -3.9100   -0.1125    0.3537 C   0  0  0  0  0  0  0  0  0  0  0  0
   -2.7276    0.5471   -0.0098 C   0  0  0  0  0  0  0  0  0  0  0  0
   -1.4497   -0.1367   -0.2454 C   0  0  0  0  0  0  0  0  0  0  0  0
   -0.3019    0.4673   -0.4782 N   0  0  0  0  0  0  0  0  0  0  0  0
    0.6943   -0.4694   -0.6573 C   0  0  0  0  0  0  0  0  0  0  0  0
    1.9893   -0.1005   -0.9074 N   0  0  0  0  0  0  0  0  0  0  0  0
    2.4721    1.1825   -0.8133 C   0  0  0  0  0  0  0  0  0  0  0  0
    1.8417    2.1721   -0.4481 O   0  0  0  0  0  0  0  0  0  0  0  0
    3.9305    1.3164   -1.2267 C   0  0  0  0  0  0  0  0  0  0  0  0
    5.0414    1.0596    0.1888 S   0  0  0  0  0  0  0  0  0  0  0  0
    5.1924   -0.6778    0.1868 C   0  0  0  0  0  0  0  0  0  0  0  0
    4.4082   -1.4523   -0.5340 N   0  0  0  0  0  0  0  0  0  0  0  0
    4.7245   -2.7870   -0.3962 N   0  0  0  0  0  0  0  0  0  0  0  0
    5.7493   -2.9719    0.4141 C   0  0  0  0  0  0  0  0  0  0  0  0
    6.3552   -4.2920    0.7236 C   0  0  0  0  0  0  0  0  0  0  0  0
    6.3785   -1.5218    1.0911 S   0  0  0  0  0  0  0  0  0  0  0  0
    0.3707   -1.7630   -0.6250 N   0  0  0  0  0  0  0  0  0  0  0  0
   -1.2659   -1.8425   -0.3082 S   0  0  0  0  0  0  0  0  0  0  0  0
   -2.7758    1.9434   -0.1594 C   0  0  0  0  0  0  0  0  0  0  0  0
   -3.9664    2.6489    0.0397 C   0  0  0  0  0  0  0  0  0  0  0  0
   -7.7844    1.4922    0.0369 H   0  0  0  0  0  0  0  0  0  0  0  0
   -7.4123    1.5972    1.7982 H   0  0  0  0  0  0  0  0  0  0  0  0
   -8.2266    2.9275    0.9655 H   0  0  0  0  0  0  0  0  0  0  0  0
   -5.9946    0.0342    0.8108 H   0  0  0  0  0  0  0  0  0  0  0  0
   -3.9361   -1.1911    0.4871 H   0  0  0  0  0  0  0  0  0  0  0  0
    2.6272   -0.8858   -1.0254 H   0  0  0  0  0  0  0  0  0  0  0  0
    4.0803    2.3425   -1.5854 H   0  0  0  0  0  0  0  0  0  0  0  0
    4.1687    0.6585   -2.0693 H   0  0  0  0  0  0  0  0  0  0  0  0
    6.8310   -4.3094    1.7098 H   0  0  0  0  0  0  0  0  0  0  0  0
    5.5843   -5.0736    0.7069 H   0  0  0  0  0  0  0  0  0  0  0  0
    7.1122   -4.5372   -0.0335 H   0  0  0  0  0  0  0  0  0  0  0  0
   -1.8780    2.4948   -0.4352 H   0  0  0  0  0  0  0  0  0  0  0  0
   -3.9746    3.7269   -0.0969 H   0  0  0  0  0  0  0  0  0  0  0  0
  1  2  1  0
  2  3  1  0
  3  4  2  0
  4  5  1  0
  5  6  2  0
  6  7  1  0
  7  8  2  0
  8  9  1  0
  9 10  1  0
 10 11  1  0
 11 12  2  0
 11 13  1  0
 13 14  1  0
 14 15  1  0
 15 16  2  0
 16 17  1  0
 17 18  2  0
 18 19  1  0
 18 20  1  0
  9 21  2  0
 21 22  1  0
  6 23  1  0
 23 24  2  0
 24  3  1  0
 22  7  1  0
 20 15  1  0
  1 25  1  0
  1 26  1  0
  1 27  1  0
  4 28  1  0
  5 29  1  0
 10 30  1  0
 13 31  1  0
 13 32  1  0
 19 33  1  0
 19 34  1  0
 19 35  1  0
 23 36  1  0
 24 37  1  0
M  END
$$$$
