
     RDKit          3D

 37 39  0  0  0  0  0  0  0  0999 V2000
    6.0052    0.9704   -0.5996 C   0  0  0  0  0  0  0  0  0  0  0  0
    4.6259    0.9904   -0.9509 O   0  0  0  0  0  0  0  0  0  0  0  0
    3.7658    0.3053   -0.1357 C   0  0  0  0  0  0  0  0  0  0  0  0
    4.1182   -0.3814    1.0340 C   0  0  0  0  0  0  0  0  0  0  0  0
    3.1437   -1.0389    1.7905 C   0  0  0  0  0  0  0  0  0  0  0  0
    1.8266   -0.9981    1.3595 C   0  0  0  0  0  0  0  0  0  0  0  0
    1.4504   -0.3224    0.1821 C   0  0  0  0  0  0  0  0  0  0  0  0
    2.4286    0.3351   -0.5584 C   0  0  0  0  0  0  0  0  0  0  0  0
    0.0501   -0.3707   -0.1100 N   0  0  0  0  0  0  0  0  0  0  0  0
   -0.2177   -0.5346   -1.5428 C   0  0  0  0  0  0  0  0  0  0  0  0
   -0.6186   -1.0920    0.8921 C   0  0  0  0  0  0  0  0  0  0  0  0
   -1.9427   -1.2285    1.0883 C   0  0  0  0  0  0  0  0  0  0  0  0
   -2.9941   -0.5814    0.3054 C   0  0  0  0  0  0  0  0  0  0  0  0
   -3.8784   -1.3844   -0.4270 C   0  0  0  0  0  0  0  0  0  0  0  0
   -4.8753   -0.8009   -1.1975 C   0  0  0  0  0  0  0  0  0  0  0  0
   -4.9829    0.5797   -1.2272 C   0  0  0  0  0  0  0  0  0  0  0  0
   -4.1027    1.3485   -0.4769 C   0  0  0  0  0  0  0  0  0  0  0  0
   -3.1397    0.7741    0.2843 N   0  0  0  0  0  4  0  0  0  0  0  0
   -2.2724    1.6627    1.0896 C   0  0  0  0  0  0  0  0  0  0  0  0
    0.4378   -1.7811    2.1536 S   0  0  0  0  0  0  0  0  0  0  0  0
    6.3995   -0.0511   -0.6070 H   0  0  0  0  0  0  0  0  0  0  0  0
    6.1714    1.4527    0.3693 H   0  0  0  0  0  0  0  0  0  0  0  0
    6.5506    1.5439   -1.3553 H   0  0  0  0  0  0  0  0  0  0  0  0
    5.1455   -0.4217    1.3838 H   0  0  0  0  0  0  0  0  0  0  0  0
    3.4200   -1.5729    2.6949 H   0  0  0  0  0  0  0  0  0  0  0  0
    2.1842    0.8901   -1.4580 H   0  0  0  0  0  0  0  0  0  0  0  0
    0.1072    0.3442   -2.1097 H   0  0  0  0  0  0  0  0  0  0  0  0
   -1.2858   -0.6434   -1.7456 H   0  0  0  0  0  0  0  0  0  0  0  0
    0.2822   -1.4257   -1.9407 H   0  0  0  0  0  0  0  0  0  0  0  0
   -2.3138   -1.8290    1.9179 H   0  0  0  0  0  0  0  0  0  0  0  0
   -3.7837   -2.4695   -0.4092 H   0  0  0  0  0  0  0  0  0  0  0  0
   -5.5605   -1.4212   -1.7740 H   0  0  0  0  0  0  0  0  0  0  0  0
   -5.7542    1.0571   -1.8285 H   0  0  0  0  0  0  0  0  0  0  0  0
   -4.1660    2.4337   -0.4759 H   0  0  0  0  0  0  0  0  0  0  0  0
   -2.0504    1.1954    2.0510 H   0  0  0  0  0  0  0  0  0  0  0  0
   -2.8046    2.5984    1.2855 H   0  0  0  0  0  0  0  0  0  0  0  0
   -1.3694    1.8674    0.5116 H   0  0  0  0  0  0  0  0  0  0  0  0
  1  2  1  0
  2  3  1  0
  3  4  2  0
  4  5  1  0
  5  6  2  0
  6  7  1  0
  7  8  2  0
  7  9  1  0
  9 10  1  0
  9 11  1  0
 11 12  2  3
 12 13  1  0
 13 14  2  0
 14 15  1  0
 15 16  2  0
 16 17  1  0
 17 18  2  0
 18 19  1  0
 11 20  1  0
  8  3  1  0
 18 13  1  0
 20  6  1  0
  1 21  1  0
  1 22  1  0
  1 23  1  0
  4 24  1  0
  5 25  1  0
  8 26  1  0
 10 27  1  0
 10 28  1  0
 10 29  1  0
 12 30  1  0
 14 31  1  0
 15 32  1  0
 16 33  1  0
 17 34  1  0
 19 35  1  0
 19 36  1  0
 19 37  1  0
M  CHG  1  18   1
M  END
$$$$
