
     RDKit          3D

 57 61  0  0  0  0  0  0  0  0999 V2000
   -5.5303   -0.8612   -1.0584 C   0  0  0  0  0  0  0  0  0  0  0  0
   -4.6664   -1.9850   -0.4899 C   0  0  0  0  0  0  0  0  0  0  0  0
   -5.5691   -3.0724    0.1016 C   0  0  0  0  0  0  0  0  0  0  0  0
   -3.7040   -1.4446    0.5745 C   0  0  0  0  0  0  0  0  0  0  0  0
   -3.8730   -1.7091    1.7679 O   0  0  0  0  0  0  0  0  0  0  0  0
   -2.6523   -0.6251    0.1713 N   0  0  0  0  0  0  0  0  0  0  0  0
   -2.2178   -0.4208   -1.2116 C   0  0  0  0  0  0  0  0  0  0  0  0
   -0.6972   -0.3265   -1.2965 C   0  0  0  0  0  0  0  0  0  0  0  0
   -0.1677    0.9027   -0.5098 C   0  0  0  0  0  0  0  0  0  0  0  0
   -1.0463    1.1812    0.7403 C   0  0  0  0  0  0  0  0  0  0  0  0
   -1.8224   -0.0394    1.2198 C   0  0  0  0  0  0  0  0  0  0  0  0
   -0.3932    2.0001   -1.4437 O   0  0  0  0  0  0  0  0  0  0  0  0
    0.3177    3.1484   -1.2648 C   0  0  0  0  0  0  0  0  0  0  0  0
   -0.1161    4.2567   -1.9952 C   0  0  0  0  0  0  0  0  0  0  0  0
    0.5382    5.4824   -1.8608 C   0  0  0  0  0  0  0  0  0  0  0  0
    1.6245    5.5903   -0.9987 C   0  0  0  0  0  0  0  0  0  0  0  0
    2.2467    6.7687   -0.8688 F   0  0  0  0  0  0  0  0  0  0  0  0
    2.0746    4.4946   -0.2747 C   0  0  0  0  0  0  0  0  0  0  0  0
    1.4188    3.2695   -0.4237 C   0  0  0  0  0  0  0  0  0  0  0  0
    1.8802    2.0842    0.3085 C   0  0  0  0  0  0  0  0  0  0  0  0
    2.6423    2.2192    1.2624 O   0  0  0  0  0  0  0  0  0  0  0  0
    1.3438    0.7421   -0.1801 C   0  0  0  0  0  0  0  0  0  0  0  0
    1.6854   -0.3689    0.8029 C   0  0  0  0  0  0  0  0  0  0  0  0
    2.9410   -0.8606    0.1652 C   0  0  0  0  0  0  0  0  0  0  0  0
    3.8702   -1.7803    0.8629 C   0  0  0  0  0  0  0  0  0  0  0  0
    5.0706   -2.1354    0.2346 C   0  0  0  0  0  0  0  0  0  0  0  0
    5.9650   -3.0035    0.8637 C   0  0  0  0  0  0  0  0  0  0  0  0
    5.6642   -3.5221    2.1216 C   0  0  0  0  0  0  0  0  0  0  0  0
    4.4699   -3.1744    2.7516 C   0  0  0  0  0  0  0  0  0  0  0  0
    3.5719   -2.3056    2.1254 C   0  0  0  0  0  0  0  0  0  0  0  0
    3.1281   -0.4508   -1.0494 N   0  0  0  0  0  0  0  0  0  0  0  0
    2.0599    0.4095   -1.3815 O   0  0  0  0  0  0  0  0  0  0  0  0
   -4.9315   -0.0998   -1.5646 H   0  0  0  0  0  0  0  0  0  0  0  0
   -6.2485   -1.2522   -1.7869 H   0  0  0  0  0  0  0  0  0  0  0  0
   -6.0919   -0.3568   -0.2640 H   0  0  0  0  0  0  0  0  0  0  0  0
   -4.0899   -2.4601   -1.2889 H   0  0  0  0  0  0  0  0  0  0  0  0
   -6.2066   -2.6761    0.8999 H   0  0  0  0  0  0  0  0  0  0  0  0
   -6.2186   -3.5003   -0.6694 H   0  0  0  0  0  0  0  0  0  0  0  0
   -4.9708   -3.8859    0.5263 H   0  0  0  0  0  0  0  0  0  0  0  0
   -2.5591   -1.2358   -1.8517 H   0  0  0  0  0  0  0  0  0  0  0  0
   -2.6828    0.5039   -1.5709 H   0  0  0  0  0  0  0  0  0  0  0  0
   -0.2762   -1.2632   -0.9169 H   0  0  0  0  0  0  0  0  0  0  0  0
   -0.4104   -0.2523   -2.3533 H   0  0  0  0  0  0  0  0  0  0  0  0
   -0.4426    1.5650    1.5706 H   0  0  0  0  0  0  0  0  0  0  0  0
   -1.7712    1.9748    0.5120 H   0  0  0  0  0  0  0  0  0  0  0  0
   -2.4556    0.2455    2.0683 H   0  0  0  0  0  0  0  0  0  0  0  0
   -1.1445   -0.8216    1.5775 H   0  0  0  0  0  0  0  0  0  0  0  0
   -0.9680    4.1685   -2.6652 H   0  0  0  0  0  0  0  0  0  0  0  0
    0.2079    6.3523   -2.4206 H   0  0  0  0  0  0  0  0  0  0  0  0
    2.9310    4.5995    0.3850 H   0  0  0  0  0  0  0  0  0  0  0  0
    0.9722   -1.1957    0.8025 H   0  0  0  0  0  0  0  0  0  0  0  0
    1.8348   -0.0278    1.8298 H   0  0  0  0  0  0  0  0  0  0  0  0
    5.3192   -1.7364   -0.7470 H   0  0  0  0  0  0  0  0  0  0  0  0
    6.8960   -3.2725    0.3710 H   0  0  0  0  0  0  0  0  0  0  0  0
    6.3616   -4.1972    2.6116 H   0  0  0  0  0  0  0  0  0  0  0  0
    4.2382   -3.5808    3.7334 H   0  0  0  0  0  0  0  0  0  0  0  0
    2.6502   -2.0586    2.6428 H   0  0  0  0  0  0  0  0  0  0  0  0
  1  2  1  0
  2  3  1  0
  2  4  1  0
  4  5  2  0
  4  6  1  0
  6  7  1  0
  7  8  1  0
  8  9  1  0
  9 10  1  0
 10 11  1  0
  9 12  1  0
 12 13  1  0
 13 14  2  0
 14 15  1  0
 15 16  2  0
 16 17  1  0
 16 18  1  0
 18 19  2  0
 19 20  1  0
 20 21  2  0
 20 22  1  0
 22 23  1  0
 23 24  1  0
 24 25  1  0
 25 26  2  0
 26 27  1  0
 27 28  2  0
 28 29  1  0
 29 30  2  0
 24 31  2  0
 31 32  1  0
 11  6  1  0
 19 13  1  0
 32 22  1  0
 22  9  1  0
 30 25  1  0
  1 33  1  0
  1 34  1  0
  1 35  1  0
  2 36  1  0
  3 37  1  0
  3 38  1  0
  3 39  1  0
  7 40  1  0
  7 41  1  0
  8 42  1  0
  8 43  1  0
 10 44  1  0
 10 45  1  0
 11 46  1  0
 11 47  1  0
 14 48  1  0
 15 49  1  0
 18 50  1  0
 23 51  1  0
 23 52  1  0
 26 53  1  0
 27 54  1  0
 28 55  1  0
 29 56  1  0
 30 57  1  0
M  END
$$$$
