
     RDKit          3D

 58 60  0  0  0  0  0  0  0  0999 V2000
    0.2728   -2.2688   -1.3544 C   0  0  0  0  0  0  0  0  0  0  0  0
   -1.1050   -1.6663   -1.2656 C   0  0  0  0  0  0  0  0  0  0  0  0
   -2.1961   -2.5320   -1.0640 C   0  0  0  0  0  0  0  0  0  0  0  0
   -3.4934   -2.0354   -0.9635 C   0  0  0  0  0  0  0  0  0  0  0  0
   -3.7065   -0.6634   -1.0723 C   0  0  0  0  0  0  0  0  0  0  0  0
   -5.3617   -0.0283   -0.9908 S   0  0  0  0  0  6  0  0  0  0  0  0
   -5.4079    1.2507   -1.6664 O   0  0  0  0  0  0  0  0  0  0  0  0
   -6.2598   -1.0981   -1.3747 O   0  0  0  0  0  0  0  0  0  0  0  0
   -5.5786    0.2564    0.6793 N   0  0  0  0  0  0  0  0  0  0  0  0
   -4.6253    1.2439    1.2907 C   0  0  0  0  0  0  0  0  0  0  0  0
   -5.1726    1.7647    2.6238 C   0  0  0  0  0  0  0  0  0  0  0  0
   -6.4106    2.4762    2.4895 O   0  0  0  0  0  0  0  0  0  0  0  0
   -7.1949    2.0379    1.3712 C   0  0  0  0  0  0  0  0  0  0  0  0
   -7.0032    0.5518    1.0560 C   0  0  0  0  0  0  0  0  0  0  0  0
   -2.6382    0.2122   -1.2895 C   0  0  0  0  0  0  0  0  0  0  0  0
   -1.3280   -0.2738   -1.3552 C   0  0  0  0  0  0  0  0  0  0  0  0
   -0.2239    0.5899   -1.5324 N   0  0  0  0  0  0  0  0  0  0  0  0
   -0.2006    1.9661   -1.3738 C   0  0  0  0  0  0  0  0  0  0  0  0
   -1.1146    2.6597   -0.9358 O   0  0  0  0  0  0  0  0  0  0  0  0
    1.1409    2.5904   -1.7757 C   0  0  0  0  0  0  0  0  0  0  0  0
    2.0930    2.6465   -0.7143 O   0  0  0  0  0  0  0  0  0  0  0  0
    2.7088    1.4670   -0.4265 C   0  0  0  0  0  0  0  0  0  0  0  0
    2.4310    0.3940   -0.9540 O   0  0  0  0  0  0  0  0  0  0  0  0
    3.7268    1.6629    0.6908 C   0  0  0  0  0  0  0  0  0  0  0  0
    4.6279    0.5251    0.7823 N   0  0  0  0  0  0  0  0  0  0  0  0
    5.7171    0.4509   -0.0630 C   0  0  0  0  0  0  0  0  0  0  0  0
    6.0273    1.3538   -0.8312 O   0  0  0  0  0  0  0  0  0  0  0  0
    6.4805   -0.8262   -0.0428 C   0  0  0  0  0  0  0  0  0  0  0  0
    6.5574   -1.6216    1.1077 C   0  0  0  0  0  0  0  0  0  0  0  0
    7.2833   -2.8145    1.0831 C   0  0  0  0  0  0  0  0  0  0  0  0
    7.9360   -3.2119   -0.0840 C   0  0  0  0  0  0  0  0  0  0  0  0
    7.8735   -2.4152   -1.2269 C   0  0  0  0  0  0  0  0  0  0  0  0
    7.1514   -1.2210   -1.2060 C   0  0  0  0  0  0  0  0  0  0  0  0
    0.8791   -1.9531   -0.5000 H   0  0  0  0  0  0  0  0  0  0  0  0
    0.7620   -1.9710   -2.2872 H   0  0  0  0  0  0  0  0  0  0  0  0
    0.2362   -3.3638   -1.3472 H   0  0  0  0  0  0  0  0  0  0  0  0
   -2.0399   -3.6066   -0.9854 H   0  0  0  0  0  0  0  0  0  0  0  0
   -4.3261   -2.7181   -0.8099 H   0  0  0  0  0  0  0  0  0  0  0  0
   -3.6675    0.7456    1.4690 H   0  0  0  0  0  0  0  0  0  0  0  0
   -4.4715    2.0901    0.6125 H   0  0  0  0  0  0  0  0  0  0  0  0
   -4.4525    2.4466    3.0863 H   0  0  0  0  0  0  0  0  0  0  0  0
   -5.3357    0.9377    3.3241 H   0  0  0  0  0  0  0  0  0  0  0  0
   -6.9309    2.6591    0.5075 H   0  0  0  0  0  0  0  0  0  0  0  0
   -8.2436    2.2400    1.6120 H   0  0  0  0  0  0  0  0  0  0  0  0
   -7.2336   -0.0565    1.9392 H   0  0  0  0  0  0  0  0  0  0  0  0
   -7.6988    0.2484    0.2669 H   0  0  0  0  0  0  0  0  0  0  0  0
   -2.8523    1.2700   -1.4128 H   0  0  0  0  0  0  0  0  0  0  0  0
    0.6945    0.1525   -1.6177 H   0  0  0  0  0  0  0  0  0  0  0  0
    1.5591    2.0738   -2.6489 H   0  0  0  0  0  0  0  0  0  0  0  0
    0.9443    3.6190   -2.0981 H   0  0  0  0  0  0  0  0  0  0  0  0
    3.1941    1.7427    1.6421 H   0  0  0  0  0  0  0  0  0  0  0  0
    4.3055    2.5728    0.5045 H   0  0  0  0  0  0  0  0  0  0  0  0
    4.2350   -0.3479    1.1106 H   0  0  0  0  0  0  0  0  0  0  0  0
    6.0836   -1.3143    2.0353 H   0  0  0  0  0  0  0  0  0  0  0  0
    7.3498   -3.4301    1.9770 H   0  0  0  0  0  0  0  0  0  0  0  0
    8.5030   -4.1394   -0.1004 H   0  0  0  0  0  0  0  0  0  0  0  0
    8.3898   -2.7206   -2.1333 H   0  0  0  0  0  0  0  0  0  0  0  0
    7.1096   -0.6007   -2.0987 H   0  0  0  0  0  0  0  0  0  0  0  0
  1  2  1  0
  2  3  2  0
  3  4  1  0
  4  5  2  0
  5  6  1  0
  6  7  2  0
  6  8  2  0
  6  9  1  0
  9 10  1  0
 10 11  1  0
 11 12  1  0
 12 13  1  0
 13 14  1  0
  5 15  1  0
 15 16  2  0
 16 17  1  0
 17 18  1  0
 18 19  2  0
 18 20  1  0
 20 21  1  0
 21 22  1  0
 22 23  2  0
 22 24  1  0
 24 25  1  0
 25 26  1  0
 26 27  2  0
 26 28  1  0
 28 29  2  0
 29 30  1  0
 30 31  2  0
 31 32  1  0
 32 33  2  0
 16  2  1  0
 33 28  1  0
 14  9  1  0
  1 34  1  0
  1 35  1  0
  1 36  1  0
  3 37  1  0
  4 38  1  0
 10 39  1  0
 10 40  1  0
 11 41  1  0
 11 42  1  0
 13 43  1  0
 13 44  1  0
 14 45  1  0
 14 46  1  0
 15 47  1  0
 17 48  1  0
 20 49  1  0
 20 50  1  0
 24 51  1  0
 24 52  1  0
 25 53  1  0
 29 54  1  0
 30 55  1  0
 31 56  1  0
 32 57  1  0
 33 58  1  0
M  END
$$$$
