
     RDKit          3D

 46 48  0  0  0  0  0  0  0  0999 V2000
   -2.1027    3.5029   -0.6732 C   0  0  0  0  0  0  0  0  0  0  0  0
   -1.5458    2.6400    0.1891 C   0  0  0  0  0  0  0  0  0  0  0  0
   -2.3102    1.7732    1.1450 C   0  0  0  0  0  0  0  0  0  0  0  0
   -1.8893    0.3845    1.0913 N   0  0  0  0  0  0  0  0  0  0  0  0
   -0.8488   -0.1942    1.7748 C   0  0  0  0  0  0  0  0  0  0  0  0
    0.2589    0.6811    2.7726 S   0  0  0  0  0  0  0  0  0  0  0  0
    1.5843   -0.5397    3.0060 C   0  0  0  0  0  0  0  0  0  0  0  0
    2.5939   -0.5201    1.8852 C   0  0  0  0  0  0  0  0  0  0  0  0
    3.6554    0.3966    1.8999 C   0  0  0  0  0  0  0  0  0  0  0  0
    4.5941    0.4151    0.8622 C   0  0  0  0  0  0  0  0  0  0  0  0
    4.4825   -0.4830   -0.2076 C   0  0  0  0  0  0  0  0  0  0  0  0
    5.4556   -0.5081   -1.3351 C   0  0  0  0  0  0  0  0  0  0  0  0
    5.3578   -1.2489   -2.2994 O   0  0  0  0  0  0  0  0  0  0  0  0
    6.4427    0.4016   -1.1320 O   0  0  0  0  0  0  0  0  0  0  0  0
    7.3971    0.4669   -2.1892 C   0  0  0  0  0  0  0  0  0  0  0  0
    3.4170   -1.3915   -0.2290 C   0  0  0  0  0  0  0  0  0  0  0  0
    2.4801   -1.4092    0.8105 C   0  0  0  0  0  0  0  0  0  0  0  0
   -0.8469   -1.4912    1.5718 N   0  0  0  0  0  0  0  0  0  0  0  0
   -1.9075   -1.7853    0.7533 N   0  0  0  0  0  0  0  0  0  0  0  0
   -2.5218   -0.6590    0.4516 C   0  0  0  0  0  0  0  0  0  0  0  0
   -3.7003   -0.6035   -0.3529 C   0  0  0  0  0  0  0  0  0  0  0  0
   -3.8075    0.3324   -1.7841 S   0  0  0  0  0  0  0  0  0  0  0  0
   -5.4174   -0.2091   -2.0135 C   0  0  0  0  0  0  0  0  0  0  0  0
   -6.1552    0.1993   -3.0590 N   0  0  0  0  0  0  0  0  0  0  0  0
   -5.8635   -1.0512   -1.1172 N   0  0  0  0  0  0  0  0  0  0  0  0
   -4.8820   -1.3064   -0.1718 C   0  0  0  0  0  0  0  0  0  0  0  0
   -5.1952   -2.2637    0.9219 C   0  0  0  0  0  0  0  0  0  0  0  0
   -1.4809    4.1005   -1.3353 H   0  0  0  0  0  0  0  0  0  0  0  0
   -3.1770    3.6431   -0.7441 H   0  0  0  0  0  0  0  0  0  0  0  0
   -0.4596    2.5618    0.2156 H   0  0  0  0  0  0  0  0  0  0  0  0
   -3.3875    1.8142    0.9615 H   0  0  0  0  0  0  0  0  0  0  0  0
   -2.1622    2.1319    2.1701 H   0  0  0  0  0  0  0  0  0  0  0  0
    1.1796   -1.5477    3.1540 H   0  0  0  0  0  0  0  0  0  0  0  0
    2.0966   -0.2925    3.9432 H   0  0  0  0  0  0  0  0  0  0  0  0
    3.7598    1.1046    2.7205 H   0  0  0  0  0  0  0  0  0  0  0  0
    5.4076    1.1350    0.9052 H   0  0  0  0  0  0  0  0  0  0  0  0
    6.9074    0.6770   -3.1440 H   0  0  0  0  0  0  0  0  0  0  0  0
    8.0920    1.2822   -1.9704 H   0  0  0  0  0  0  0  0  0  0  0  0
    7.9669   -0.4665   -2.2470 H   0  0  0  0  0  0  0  0  0  0  0  0
    3.3092   -2.0933   -1.0535 H   0  0  0  0  0  0  0  0  0  0  0  0
    1.6574   -2.1241    0.7714 H   0  0  0  0  0  0  0  0  0  0  0  0
   -5.6480    0.4859   -3.8869 H   0  0  0  0  0  0  0  0  0  0  0  0
   -6.9493   -0.4015   -3.2637 H   0  0  0  0  0  0  0  0  0  0  0  0
   -4.4886   -3.0978    0.9205 H   0  0  0  0  0  0  0  0  0  0  0  0
   -5.1467   -1.7637    1.8919 H   0  0  0  0  0  0  0  0  0  0  0  0
   -6.2020   -2.6784    0.8036 H   0  0  0  0  0  0  0  0  0  0  0  0
  1  2  2  0
  2  3  1  0
  3  4  1  0
  4  5  1  0
  5  6  1  0
  6  7  1  0
  7  8  1  0
  8  9  2  0
  9 10  1  0
 10 11  2  0
 11 12  1  0
 12 13  2  0
 12 14  1  0
 14 15  1  0
 11 16  1  0
 16 17  2  0
  5 18  2  0
 18 19  1  0
 19 20  2  0
 20 21  1  0
 21 22  1  0
 22 23  1  0
 23 24  1  0
 23 25  2  0
 25 26  1  0
 26 27  1  0
 20  4  1  0
 26 21  2  0
 17  8  1  0
  1 28  1  0
  1 29  1  0
  2 30  1  0
  3 31  1  0
  3 32  1  0
  7 33  1  0
  7 34  1  0
  9 35  1  0
 10 36  1  0
 15 37  1  0
 15 38  1  0
 15 39  1  0
 16 40  1  0
 17 41  1  0
 24 42  1  0
 24 43  1  0
 27 44  1  0
 27 45  1  0
 27 46  1  0
M  END
$$$$
