
     RDKit          3D

 45 47  0  0  0  0  0  0  0  0999 V2000
   -4.3651   -0.3087    1.9688 O   0  0  0  0  0  0  0  0  0  0  0  0
   -3.4935   -0.0243    1.1488 C   0  0  0  0  0  0  0  0  0  0  0  0
   -3.8125    0.6147   -0.1974 C   0  0  0  0  0  0  0  0  0  0  0  0
   -5.2813    0.8774   -0.4380 C   0  0  0  0  0  0  0  0  0  0  0  0
   -6.0915   -0.1039   -1.0282 C   0  0  0  0  0  0  0  0  0  0  0  0
   -7.4510    0.1357   -1.2412 C   0  0  0  0  0  0  0  0  0  0  0  0
   -8.0077    1.3543   -0.8598 C   0  0  0  0  0  0  0  0  0  0  0  0
   -9.6821    1.6496   -1.1247 Cl  0  0  0  0  0  0  0  0  0  0  0  0
   -7.2178    2.3343   -0.2636 C   0  0  0  0  0  0  0  0  0  0  0  0
   -5.8581    2.0958   -0.0500 C   0  0  0  0  0  0  0  0  0  0  0  0
   -2.0788   -0.2959    1.4386 C   0  0  0  0  0  0  0  0  0  0  0  0
   -1.6161   -0.8610    2.6121 C   0  0  0  0  0  0  0  0  0  0  0  0
   -0.2562   -0.9661    2.5419 N   0  0  0  0  0  0  0  0  0  0  0  0
    0.2008   -0.4812    1.3347 C   0  0  0  0  0  0  0  0  0  0  0  0
    1.6144   -0.4874    1.0216 C   0  0  0  0  0  0  0  0  0  0  0  0
    2.4503   -0.9310    1.8027 O   0  0  0  0  0  0  0  0  0  0  0  0
    1.9524    0.0292   -0.2084 N   0  0  0  0  0  0  0  0  0  0  0  0
    3.3299    0.1254   -0.6472 C   0  0  0  0  0  0  0  0  0  0  0  0
    3.8788   -1.2281   -1.0970 C   0  0  0  0  0  0  0  0  0  0  0  0
    5.2543   -1.1225   -1.7540 C   0  0  0  0  0  0  0  0  0  0  0  0
    6.2817   -0.5726   -0.8968 N   0  0  0  0  0  0  0  0  0  0  0  0
    6.7956   -1.1522    0.2281 C   0  0  0  0  0  0  0  0  0  0  0  0
    7.7369   -0.2601    0.6865 C   0  0  0  0  0  0  0  0  0  0  0  0
    7.8140    0.8325   -0.1385 N   0  0  0  0  0  0  0  0  0  0  0  0
    6.9315    0.6132   -1.0865 C   0  0  0  0  0  0  0  0  0  0  0  0
   -0.9204   -0.0587    0.6354 C   0  0  0  0  0  0  0  0  0  0  0  0
   -3.4341   -0.0397   -0.9926 H   0  0  0  0  0  0  0  0  0  0  0  0
   -3.2654    1.5627   -0.2721 H   0  0  0  0  0  0  0  0  0  0  0  0
   -5.6733   -1.0655   -1.3180 H   0  0  0  0  0  0  0  0  0  0  0  0
   -8.0693   -0.6328   -1.6968 H   0  0  0  0  0  0  0  0  0  0  0  0
   -7.6540    3.2810    0.0434 H   0  0  0  0  0  0  0  0  0  0  0  0
   -5.2563    2.8649    0.4295 H   0  0  0  0  0  0  0  0  0  0  0  0
   -2.1532   -1.1945    3.4921 H   0  0  0  0  0  0  0  0  0  0  0  0
    0.3520   -1.3420    3.2610 H   0  0  0  0  0  0  0  0  0  0  0  0
    1.2281    0.3959   -0.8063 H   0  0  0  0  0  0  0  0  0  0  0  0
    3.3498    0.8425   -1.4748 H   0  0  0  0  0  0  0  0  0  0  0  0
    3.9255    0.5349    0.1758 H   0  0  0  0  0  0  0  0  0  0  0  0
    3.9247   -1.9136   -0.2422 H   0  0  0  0  0  0  0  0  0  0  0  0
    3.1847   -1.6812   -1.8161 H   0  0  0  0  0  0  0  0  0  0  0  0
    5.1973   -0.5024   -2.6563 H   0  0  0  0  0  0  0  0  0  0  0  0
    5.5992   -2.1162   -2.0629 H   0  0  0  0  0  0  0  0  0  0  0  0
    6.4591   -2.1076    0.6059 H   0  0  0  0  0  0  0  0  0  0  0  0
    8.3630   -0.3471    1.5651 H   0  0  0  0  0  0  0  0  0  0  0  0
    6.7290    1.2748   -1.9186 H   0  0  0  0  0  0  0  0  0  0  0  0
   -0.9152    0.3774   -0.3544 H   0  0  0  0  0  0  0  0  0  0  0  0
  1  2  2  0
  2  3  1  0
  3  4  1  0
  4  5  2  0
  5  6  1  0
  6  7  2  0
  7  8  1  0
  7  9  1  0
  9 10  2  0
  2 11  1  0
 11 12  2  0
 12 13  1  0
 13 14  1  0
 14 15  1  0
 15 16  2  0
 15 17  1  0
 17 18  1  0
 18 19  1  0
 19 20  1  0
 20 21  1  0
 21 22  1  0
 22 23  2  0
 23 24  1  0
 24 25  2  0
 14 26  2  0
 10  4  1  0
 26 11  1  0
 25 21  1  0
  3 27  1  0
  3 28  1  0
  5 29  1  0
  6 30  1  0
  9 31  1  0
 10 32  1  0
 12 33  1  0
 13 34  1  0
 17 35  1  0
 18 36  1  0
 18 37  1  0
 19 38  1  0
 19 39  1  0
 20 40  1  0
 20 41  1  0
 22 42  1  0
 23 43  1  0
 25 44  1  0
 26 45  1  0
M  END
$$$$
