
     RDKit          3D

 63 67  0  0  0  0  0  0  0  0999 V2000
    6.8974   -0.4518   -4.1275 C   0  0  0  0  0  0  0  0  0  0  0  0
    6.7259   -1.6283   -3.1843 C   0  0  0  0  0  0  0  0  0  0  0  0
    6.1021   -1.1995   -1.9663 O   0  0  0  0  0  0  0  0  0  0  0  0
    4.7364   -1.1765   -1.9744 C   0  0  0  0  0  0  0  0  0  0  0  0
    4.0411   -1.4795   -2.9362 O   0  0  0  0  0  0  0  0  0  0  0  0
    4.1771   -0.7394   -0.7012 C   0  0  0  0  0  0  0  0  0  0  0  0
    2.7972   -0.6390   -0.3602 C   0  0  0  0  0  0  0  0  0  0  0  0
    2.7017   -0.1642    0.9352 C   0  0  0  0  0  0  0  0  0  0  0  0
    1.5518    0.1235    1.7791 C   0  0  0  0  0  0  0  0  0  0  0  0
    0.2449    0.0524    1.3099 N   0  0  0  0  0  0  0  0  0  0  0  0
   -0.8430   -0.2588    2.2605 C   0  0  0  0  0  0  0  0  0  0  0  0
   -2.2342    0.2002    1.7665 C   0  0  0  0  0  0  0  0  0  0  0  0
   -2.4999   -0.1622    0.3641 N   0  0  0  0  0  0  0  0  0  0  0  0
   -3.8314    0.2887   -0.0648 C   0  0  0  0  0  0  0  0  0  0  0  0
   -4.2805   -0.3637   -1.3860 C   0  0  0  0  0  0  0  0  0  0  0  0
   -5.6394    0.1463   -1.8289 C   0  0  0  0  0  0  0  0  0  0  0  0
   -5.6941    1.3835   -2.4974 C   0  0  0  0  0  0  0  0  0  0  0  0
   -6.9103    1.9220   -2.9157 C   0  0  0  0  0  0  0  0  0  0  0  0
   -8.0933    1.2337   -2.6736 C   0  0  0  0  0  0  0  0  0  0  0  0
   -8.0596    0.0053   -2.0131 C   0  0  0  0  0  0  0  0  0  0  0  0
   -6.8416   -0.5553   -1.5777 C   0  0  0  0  0  0  0  0  0  0  0  0
   -6.8635   -1.8969   -0.8749 C   0  0  0  0  0  0  0  0  0  0  0  0
   -6.2592   -2.8786   -1.6004 F   0  0  0  0  0  0  0  0  0  0  0  0
   -8.1229   -2.3556   -0.6168 F   0  0  0  0  0  0  0  0  0  0  0  0
   -6.2338   -1.8733    0.3321 F   0  0  0  0  0  0  0  0  0  0  0  0
   -1.4134    0.3115   -0.5229 C   0  0  0  0  0  0  0  0  0  0  0  0
   -0.1685    0.8965    0.1849 C   0  0  0  0  0  0  0  0  0  0  0  0
    1.7648    0.4521    3.0284 N   0  0  0  0  0  0  0  0  0  0  0  0
    3.0762    0.5754    3.5274 C   0  0  0  0  0  0  0  0  0  0  0  0
    3.2453    0.9500    4.8614 C   0  0  0  0  0  0  0  0  0  0  0  0
    4.5243    1.0997    5.4040 C   0  0  0  0  0  0  0  0  0  0  0  0
    5.6515    0.8753    4.6127 C   0  0  0  0  0  0  0  0  0  0  0  0
    5.5069    0.4991    3.2770 C   0  0  0  0  0  0  0  0  0  0  0  0
    4.2206    0.3542    2.7483 C   0  0  0  0  0  0  0  0  0  0  0  0
    3.9824   -0.0319    1.4195 N   0  0  0  0  0  0  0  0  0  0  0  0
    4.8794   -0.3454    0.4273 C   0  0  0  0  0  0  0  0  0  0  0  0
    5.9283   -0.0224   -4.4007 H   0  0  0  0  0  0  0  0  0  0  0  0
    7.4138   -0.7586   -5.0419 H   0  0  0  0  0  0  0  0  0  0  0  0
    7.4746    0.3453   -3.6463 H   0  0  0  0  0  0  0  0  0  0  0  0
    7.7087   -2.0301   -2.9164 H   0  0  0  0  0  0  0  0  0  0  0  0
    6.1641   -2.4434   -3.6559 H   0  0  0  0  0  0  0  0  0  0  0  0
    1.9650   -0.8956   -1.0040 H   0  0  0  0  0  0  0  0  0  0  0  0
   -0.6695    0.2099    3.2359 H   0  0  0  0  0  0  0  0  0  0  0  0
   -0.8531   -1.3444    2.4146 H   0  0  0  0  0  0  0  0  0  0  0  0
   -2.3199    1.2877    1.8955 H   0  0  0  0  0  0  0  0  0  0  0  0
   -2.9889   -0.2571    2.4182 H   0  0  0  0  0  0  0  0  0  0  0  0
   -4.5685    0.0230    0.7048 H   0  0  0  0  0  0  0  0  0  0  0  0
   -3.8543    1.3842   -0.1450 H   0  0  0  0  0  0  0  0  0  0  0  0
   -3.5601   -0.1581   -2.1896 H   0  0  0  0  0  0  0  0  0  0  0  0
   -4.2892   -1.4554   -1.2820 H   0  0  0  0  0  0  0  0  0  0  0  0
   -4.7792    1.9380   -2.6990 H   0  0  0  0  0  0  0  0  0  0  0  0
   -6.9325    2.8788   -3.4327 H   0  0  0  0  0  0  0  0  0  0  0  0
   -9.0429    1.6510   -3.0015 H   0  0  0  0  0  0  0  0  0  0  0  0
   -8.9990   -0.5203   -1.8380 H   0  0  0  0  0  0  0  0  0  0  0  0
   -1.0977   -0.5483   -1.1266 H   0  0  0  0  0  0  0  0  0  0  0  0
   -1.7707    1.0743   -1.2263 H   0  0  0  0  0  0  0  0  0  0  0  0
    0.6277    1.0145   -0.5561 H   0  0  0  0  0  0  0  0  0  0  0  0
   -0.3927    1.9039    0.5586 H   0  0  0  0  0  0  0  0  0  0  0  0
    2.3691    1.1279    5.4792 H   0  0  0  0  0  0  0  0  0  0  0  0
    4.6383    1.3920    6.4444 H   0  0  0  0  0  0  0  0  0  0  0  0
    6.6447    0.9934    5.0397 H   0  0  0  0  0  0  0  0  0  0  0  0
    6.3983    0.3276    2.6828 H   0  0  0  0  0  0  0  0  0  0  0  0
    5.9466   -0.2875    0.5888 H   0  0  0  0  0  0  0  0  0  0  0  0
  1  2  1  0
  2  3  1  0
  3  4  1  0
  4  5  2  0
  4  6  1  0
  6  7  1  0
  7  8  2  0
  8  9  1  0
  9 10  1  0
 10 11  1  0
 11 12  1  0
 12 13  1  0
 13 14  1  0
 14 15  1  0
 15 16  1  0
 16 17  2  0
 17 18  1  0
 18 19  2  0
 19 20  1  0
 20 21  2  0
 21 22  1  0
 22 23  1  0
 22 24  1  0
 22 25  1  0
 13 26  1  0
 26 27  1  0
  9 28  2  0
 28 29  1  0
 29 30  2  0
 30 31  1  0
 31 32  2  0
 32 33  1  0
 33 34  2  0
 34 35  1  0
 35 36  1  0
 36  6  2  0
 35  8  1  0
 27 10  1  0
 34 29  1  0
 21 16  1  0
  1 37  1  0
  1 38  1  0
  1 39  1  0
  2 40  1  0
  2 41  1  0
  7 42  1  0
 11 43  1  0
 11 44  1  0
 12 45  1  0
 12 46  1  0
 14 47  1  0
 14 48  1  0
 15 49  1  0
 15 50  1  0
 17 51  1  0
 18 52  1  0
 19 53  1  0
 20 54  1  0
 26 55  1  0
 26 56  1  0
 27 57  1  0
 27 58  1  0
 30 59  1  0
 31 60  1  0
 32 61  1  0
 33 62  1  0
 36 63  1  0
M  END
$$$$
