
     RDKit          3D

 32 32  0  0  0  0  0  0  0  0999 V2000
   -4.7679    2.5868   -1.9388 C   0  0  0  0  0  0  0  0  0  0  0  0
   -4.3089    1.6153   -1.4015 C   0  0  0  0  0  0  0  0  0  0  0  0
   -3.7497    0.4259   -0.7373 C   0  0  0  0  0  0  0  0  0  0  0  0
   -2.3487    0.1845   -1.1315 N   0  0  0  0  0  0  0  0  0  0  0  0
   -2.2792   -0.2785   -2.5237 C   0  0  0  0  0  0  0  0  0  0  0  0
   -1.7329   -0.7876   -0.2129 C   0  0  0  0  0  0  0  0  0  0  0  0
   -0.2177   -0.9509   -0.3756 C   0  0  0  0  0  0  0  0  0  0  0  0
    0.5409    0.3699   -0.2590 C   0  0  0  0  0  0  0  0  0  0  0  0
    1.9495    0.1323   -0.3184 O   0  0  0  0  0  0  0  0  0  0  0  0
    2.6585   -0.0201    0.8425 C   0  0  0  0  0  0  0  0  0  0  0  0
    2.0883   -0.2046    2.1062 C   0  0  0  0  0  0  0  0  0  0  0  0
    2.9013   -0.3633    3.2342 C   0  0  0  0  0  0  0  0  0  0  0  0
    4.2877   -0.3441    3.1037 C   0  0  0  0  0  0  0  0  0  0  0  0
    5.2783   -0.5413    4.4960 Cl  0  0  0  0  0  0  0  0  0  0  0  0
    4.8743   -0.1712    1.8555 C   0  0  0  0  0  0  0  0  0  0  0  0
    4.0609   -0.0130    0.7304 C   0  0  0  0  0  0  0  0  0  0  0  0
    4.8397    0.1954   -0.8012 Cl  0  0  0  0  0  0  0  0  0  0  0  0
   -5.1666    3.4515   -2.4169 H   0  0  0  0  0  0  0  0  0  0  0  0
   -3.8025    0.6118    0.3432 H   0  0  0  0  0  0  0  0  0  0  0  0
   -4.3738   -0.4542   -0.9373 H   0  0  0  0  0  0  0  0  0  0  0  0
   -2.7311    0.4460   -3.2098 H   0  0  0  0  0  0  0  0  0  0  0  0
   -2.7836   -1.2417   -2.6622 H   0  0  0  0  0  0  0  0  0  0  0  0
   -1.2408   -0.3827   -2.8538 H   0  0  0  0  0  0  0  0  0  0  0  0
   -1.9034   -0.4608    0.8216 H   0  0  0  0  0  0  0  0  0  0  0  0
   -2.2129   -1.7701   -0.3113 H   0  0  0  0  0  0  0  0  0  0  0  0
    0.1400   -1.6520    0.3883 H   0  0  0  0  0  0  0  0  0  0  0  0
    0.0282   -1.4305   -1.3305 H   0  0  0  0  0  0  0  0  0  0  0  0
    0.3061    1.0006   -1.1240 H   0  0  0  0  0  0  0  0  0  0  0  0
    0.2523    0.9531    0.6227 H   0  0  0  0  0  0  0  0  0  0  0  0
    1.0138   -0.2417    2.2515 H   0  0  0  0  0  0  0  0  0  0  0  0
    2.4440   -0.5048    4.2106 H   0  0  0  0  0  0  0  0  0  0  0  0
    5.9559   -0.1600    1.7549 H   0  0  0  0  0  0  0  0  0  0  0  0
  1  2  3  0
  2  3  1  0
  3  4  1  0
  4  5  1  0
  4  6  1  0
  6  7  1  0
  7  8  1  0
  8  9  1  0
  9 10  1  0
 10 11  2  0
 11 12  1  0
 12 13  2  0
 13 14  1  0
 13 15  1  0
 15 16  2  0
 16 17  1  0
 16 10  1  0
  1 18  1  0
  3 19  1  0
  3 20  1  0
  5 21  1  0
  5 22  1  0
  5 23  1  0
  6 24  1  0
  6 25  1  0
  7 26  1  0
  7 27  1  0
  8 28  1  0
  8 29  1  0
 11 30  1  0
 12 31  1  0
 15 32  1  0
M  END
$$$$
