
     RDKit          3D

 55 58  0  0  0  0  0  0  0  0999 V2000
    4.8690   -2.0833    1.2622 C   0  0  0  0  0  0  0  0  0  0  0  0
    3.6126   -2.2657    0.5826 N   0  0  0  0  0  0  0  0  0  0  0  0
    3.3583   -2.0458   -0.7542 C   0  0  0  0  0  0  0  0  0  0  0  0
    4.3573   -1.5852   -1.7634 C   0  0  0  0  0  0  0  0  0  0  0  0
    4.8962   -0.1968   -1.5050 C   0  0  0  0  0  0  0  0  0  0  0  0
    6.2757    0.0155   -1.3596 C   0  0  0  0  0  0  0  0  0  0  0  0
    6.7756    1.2971   -1.1288 C   0  0  0  0  0  0  0  0  0  0  0  0
    5.9047    2.3818   -1.0494 C   0  0  0  0  0  0  0  0  0  0  0  0
    4.5338    2.1875   -1.2039 C   0  0  0  0  0  0  0  0  0  0  0  0
    4.0312    0.9061   -1.4338 C   0  0  0  0  0  0  0  0  0  0  0  0
    2.0856   -2.3055   -0.9940 N   0  0  0  0  0  0  0  0  0  0  0  0
    1.5008   -2.7009    0.1792 N   0  0  0  0  0  0  0  0  0  0  0  0
    2.4168   -2.6531    1.1196 C   0  0  0  0  0  0  0  0  0  0  0  0
    2.1633   -2.9913    2.7937 S   0  0  0  0  0  0  0  0  0  0  0  0
    0.4620   -3.6215    2.7768 C   0  0  0  0  0  0  0  0  0  0  0  0
   -0.5520   -2.4878    2.7727 C   0  0  0  0  0  0  0  0  0  0  0  0
   -1.0312   -2.0740    3.8259 O   0  0  0  0  0  0  0  0  0  0  0  0
   -0.8525   -2.0304    1.5025 N   0  0  0  0  0  0  0  0  0  0  0  0
   -1.8392   -1.0998    1.1303 C   0  0  0  0  0  0  0  0  0  0  0  0
   -1.8652   -0.6972   -0.2064 C   0  0  0  0  0  0  0  0  0  0  0  0
   -2.8463    0.1913   -0.6699 C   0  0  0  0  0  0  0  0  0  0  0  0
   -3.8297    0.7077    0.1824 C   0  0  0  0  0  0  0  0  0  0  0  0
   -4.8563    1.5607   -0.2453 N   0  0  0  0  0  0  0  0  0  0  0  0
   -5.0585    1.7524   -1.6963 C   0  0  0  0  0  0  0  0  0  0  0  0
   -6.3842    2.4930   -1.9441 C   0  0  0  0  0  0  0  0  0  0  0  0
   -6.4102    3.7592   -1.2655 O   0  0  0  0  0  0  0  0  0  0  0  0
   -6.2647    3.5591    0.1496 C   0  0  0  0  0  0  0  0  0  0  0  0
   -4.9468    2.8429    0.4971 C   0  0  0  0  0  0  0  0  0  0  0  0
   -3.7855    0.2844    1.5206 C   0  0  0  0  0  0  0  0  0  0  0  0
   -2.8054   -0.5981    1.9950 C   0  0  0  0  0  0  0  0  0  0  0  0
    4.9360   -1.0391    1.5841 H   0  0  0  0  0  0  0  0  0  0  0  0
    5.6894   -2.3317    0.5826 H   0  0  0  0  0  0  0  0  0  0  0  0
    4.9325   -2.7526    2.1239 H   0  0  0  0  0  0  0  0  0  0  0  0
    5.1770   -2.3126   -1.8085 H   0  0  0  0  0  0  0  0  0  0  0  0
    3.8974   -1.5901   -2.7598 H   0  0  0  0  0  0  0  0  0  0  0  0
    6.9767   -0.8137   -1.4323 H   0  0  0  0  0  0  0  0  0  0  0  0
    7.8458    1.4537   -1.0187 H   0  0  0  0  0  0  0  0  0  0  0  0
    6.2937    3.3833   -0.8731 H   0  0  0  0  0  0  0  0  0  0  0  0
    3.8567    3.0395   -1.1550 H   0  0  0  0  0  0  0  0  0  0  0  0
    2.9571    0.7755   -1.5604 H   0  0  0  0  0  0  0  0  0  0  0  0
    0.3035   -4.2094    3.6870 H   0  0  0  0  0  0  0  0  0  0  0  0
    0.2902   -4.2990    1.9336 H   0  0  0  0  0  0  0  0  0  0  0  0
   -0.2291   -2.3385    0.7532 H   0  0  0  0  0  0  0  0  0  0  0  0
   -1.1251   -1.0705   -0.9113 H   0  0  0  0  0  0  0  0  0  0  0  0
   -2.8088    0.4693   -1.7183 H   0  0  0  0  0  0  0  0  0  0  0  0
   -4.2320    2.3481   -2.1090 H   0  0  0  0  0  0  0  0  0  0  0  0
   -5.1017    0.7871   -2.2151 H   0  0  0  0  0  0  0  0  0  0  0  0
   -6.5097    2.6869   -3.0151 H   0  0  0  0  0  0  0  0  0  0  0  0
   -7.2366    1.8872   -1.6126 H   0  0  0  0  0  0  0  0  0  0  0  0
   -7.1278    2.9890    0.5162 H   0  0  0  0  0  0  0  0  0  0  0  0
   -6.2889    4.5443    0.6273 H   0  0  0  0  0  0  0  0  0  0  0  0
   -4.0970    3.4762    0.2127 H   0  0  0  0  0  0  0  0  0  0  0  0
   -4.9166    2.6998    1.5812 H   0  0  0  0  0  0  0  0  0  0  0  0
   -4.5507    0.6086    2.2202 H   0  0  0  0  0  0  0  0  0  0  0  0
   -2.8473   -0.8935    3.0385 H   0  0  0  0  0  0  0  0  0  0  0  0
  1  2  1  0
  2  3  1  0
  3  4  1  0
  4  5  1  0
  5  6  2  0
  6  7  1  0
  7  8  2  0
  8  9  1  0
  9 10  2  0
  3 11  2  0
 11 12  1  0
 12 13  2  0
 13 14  1  0
 14 15  1  0
 15 16  1  0
 16 17  2  0
 16 18  1  0
 18 19  1  0
 19 20  2  0
 20 21  1  0
 21 22  2  0
 22 23  1  0
 23 24  1  0
 24 25  1  0
 25 26  1  0
 26 27  1  0
 27 28  1  0
 22 29  1  0
 29 30  2  0
 13  2  1  0
 30 19  1  0
 10  5  1  0
 28 23  1  0
  1 31  1  0
  1 32  1  0
  1 33  1  0
  4 34  1  0
  4 35  1  0
  6 36  1  0
  7 37  1  0
  8 38  1  0
  9 39  1  0
 10 40  1  0
 15 41  1  0
 15 42  1  0
 18 43  1  0
 20 44  1  0
 21 45  1  0
 24 46  1  0
 24 47  1  0
 25 48  1  0
 25 49  1  0
 27 50  1  0
 27 51  1  0
 28 52  1  0
 28 53  1  0
 29 54  1  0
 30 55  1  0
M  END
$$$$
