
     RDKit          3D

 48 51  0  0  0  0  0  0  0  0999 V2000
    6.7399    1.4358   -2.3919 C   0  0  0  0  0  0  0  0  0  0  0  0
    5.9338    0.5247   -1.5613 C   0  0  0  0  0  0  0  0  0  0  0  0
    4.5906    0.2748   -1.4320 C   0  0  0  0  0  0  0  0  0  0  0  0
    4.5032   -0.7466   -0.4436 C   0  0  0  0  0  0  0  0  0  0  0  0
    3.3121   -1.4137    0.1003 C   0  0  0  0  0  0  0  0  0  0  0  0
    3.3611   -2.4277    0.7921 O   0  0  0  0  0  0  0  0  0  0  0  0
    2.1075   -0.8070   -0.2112 N   0  0  0  0  0  0  0  0  0  0  0  0
    0.8659   -1.2876    0.3604 C   0  0  0  0  0  0  0  0  0  0  0  0
    0.7071   -0.7980    1.8203 C   0  0  0  0  0  0  0  0  0  0  0  0
   -0.7580   -0.8443    2.3454 C   0  0  0  0  0  0  0  0  0  0  0  0
   -1.2721   -2.2979    2.3901 C   0  0  0  0  0  0  0  0  0  0  0  0
   -0.7881   -0.2862    3.7811 C   0  0  0  0  0  0  0  0  0  0  0  0
   -1.6853    0.0352    1.4478 C   0  0  0  0  0  0  0  0  0  0  0  0
   -1.3950   -0.1729   -0.0028 C   0  0  0  0  0  0  0  0  0  0  0  0
   -0.2525   -0.7856   -0.4874 C   0  0  0  0  0  0  0  0  0  0  0  0
   -0.4660   -0.8942   -1.8652 C   0  0  0  0  0  0  0  0  0  0  0  0
   -1.6196   -0.3511   -2.2424 N   0  0  0  0  0  0  0  0  0  0  0  0
   -2.1871    0.1401   -1.1011 N   0  0  0  0  0  0  0  0  0  0  0  0
   -3.4204    0.8587   -1.2016 C   0  0  0  0  0  0  0  0  0  0  0  0
   -4.1203    0.8289   -2.4253 C   0  0  0  0  0  0  0  0  0  0  0  0
   -5.3287    1.5140   -2.5765 C   0  0  0  0  0  0  0  0  0  0  0  0
   -5.8387    2.2399   -1.5111 C   0  0  0  0  0  0  0  0  0  0  0  0
   -6.9947    2.9008   -1.6518 F   0  0  0  0  0  0  0  0  0  0  0  0
   -5.1594    2.2974   -0.3012 C   0  0  0  0  0  0  0  0  0  0  0  0
   -3.9485    1.6116   -0.1445 C   0  0  0  0  0  0  0  0  0  0  0  0
    5.7339   -1.0804   -0.0186 N   0  0  0  0  0  0  0  0  0  0  0  0
    6.6191   -0.2840   -0.7147 O   0  0  0  0  0  0  0  0  0  0  0  0
    6.0998    2.1019   -2.9787 H   0  0  0  0  0  0  0  0  0  0  0  0
    7.3901    2.0543   -1.7654 H   0  0  0  0  0  0  0  0  0  0  0  0
    7.3671    0.8673   -3.0854 H   0  0  0  0  0  0  0  0  0  0  0  0
    3.7947    0.7502   -1.9842 H   0  0  0  0  0  0  0  0  0  0  0  0
    2.1131    0.1280   -0.5912 H   0  0  0  0  0  0  0  0  0  0  0  0
    0.8678   -2.3844    0.3410 H   0  0  0  0  0  0  0  0  0  0  0  0
    1.3648   -1.3863    2.4736 H   0  0  0  0  0  0  0  0  0  0  0  0
    1.0675    0.2391    1.8927 H   0  0  0  0  0  0  0  0  0  0  0  0
   -1.3322   -2.7507    1.3957 H   0  0  0  0  0  0  0  0  0  0  0  0
   -0.6143   -2.9266    3.0009 H   0  0  0  0  0  0  0  0  0  0  0  0
   -2.2755   -2.3451    2.8287 H   0  0  0  0  0  0  0  0  0  0  0  0
   -0.4154    0.7436    3.8150 H   0  0  0  0  0  0  0  0  0  0  0  0
   -0.1642   -0.8871    4.4523 H   0  0  0  0  0  0  0  0  0  0  0  0
   -1.8075   -0.2845    4.1830 H   0  0  0  0  0  0  0  0  0  0  0  0
   -2.7308   -0.2002    1.6756 H   0  0  0  0  0  0  0  0  0  0  0  0
   -1.5094    1.0928    1.6811 H   0  0  0  0  0  0  0  0  0  0  0  0
    0.1666   -1.3547   -2.6140 H   0  0  0  0  0  0  0  0  0  0  0  0
   -3.7391    0.2630   -3.2746 H   0  0  0  0  0  0  0  0  0  0  0  0
   -5.8682    1.4834   -3.5177 H   0  0  0  0  0  0  0  0  0  0  0  0
   -5.5715    2.8854    0.5135 H   0  0  0  0  0  0  0  0  0  0  0  0
   -3.4430    1.7258    0.8046 H   0  0  0  0  0  0  0  0  0  0  0  0
  1  2  1  0
  2  3  2  0
  3  4  1  0
  4  5  1  0
  5  6  2  0
  5  7  1  0
  7  8  1  0
  8  9  1  0
  9 10  1  0
 10 11  1  0
 10 12  1  0
 10 13  1  0
 13 14  1  0
 14 15  2  0
 15 16  1  0
 16 17  2  0
 17 18  1  0
 18 19  1  0
 19 20  2  0
 20 21  1  0
 21 22  2  0
 22 23  1  0
 22 24  1  0
 24 25  2  0
  4 26  2  0
 26 27  1  0
 27  2  1  0
 15  8  1  0
 25 19  1  0
 18 14  1  0
  1 28  1  0
  1 29  1  0
  1 30  1  0
  3 31  1  0
  7 32  1  0
  8 33  1  0
  9 34  1  0
  9 35  1  0
 11 36  1  0
 11 37  1  0
 11 38  1  0
 12 39  1  0
 12 40  1  0
 12 41  1  0
 13 42  1  0
 13 43  1  0
 16 44  1  0
 20 45  1  0
 21 46  1  0
 24 47  1  0
 25 48  1  0
M  END
$$$$
