
     RDKit          3D

 54 56  0  0  0  0  0  0  0  0999 V2000
    7.6201   -2.5651   -1.9777 C   0  0  0  0  0  0  0  0  0  0  0  0
    6.4626   -1.8253   -2.3437 O   0  0  0  0  0  0  0  0  0  0  0  0
    5.9600   -0.9617   -1.4099 C   0  0  0  0  0  0  0  0  0  0  0  0
    4.8319   -0.2488   -1.8204 C   0  0  0  0  0  0  0  0  0  0  0  0
    4.2150    0.6670   -0.9648 C   0  0  0  0  0  0  0  0  0  0  0  0
    4.7188    0.8811    0.3224 C   0  0  0  0  0  0  0  0  0  0  0  0
    4.0452    1.8541    1.2573 C   0  0  0  0  0  0  0  0  0  0  0  0
    3.2439    1.1723    2.3751 C   0  0  0  0  0  0  0  0  0  0  0  0
    2.0465    0.3475    1.8937 C   0  0  0  0  0  0  0  0  0  0  0  0
    0.9945    1.1871    1.2761 C   0  0  0  0  0  0  0  0  0  0  0  0
    0.7833    1.4741    0.0103 N   0  0  0  0  0  0  0  0  0  0  0  0
   -0.3164    2.3048   -0.0163 N   0  0  0  0  0  0  0  0  0  0  0  0
   -0.7033    2.4642    1.2316 C   0  0  0  0  0  0  0  0  0  0  0  0
   -2.0611    3.4169    1.7455 S   0  0  0  0  0  0  0  0  0  0  0  0
   -2.8682    3.7469    0.1513 C   0  0  0  0  0  0  0  0  0  0  0  0
   -3.4798    2.5148   -0.5086 C   0  0  0  0  0  0  0  0  0  0  0  0
   -3.6174    2.4848   -1.7297 O   0  0  0  0  0  0  0  0  0  0  0  0
   -3.9221    1.5482    0.3741 N   0  0  0  0  0  0  0  0  0  0  0  0
   -4.5333    0.3045    0.0944 C   0  0  0  0  0  0  0  0  0  0  0  0
   -4.8190   -0.1356   -1.2003 C   0  0  0  0  0  0  0  0  0  0  0  0
   -5.4278   -1.3847   -1.4349 C   0  0  0  0  0  0  0  0  0  0  0  0
   -5.7135   -1.8017   -2.8533 C   0  0  0  0  0  0  0  0  0  0  0  0
   -5.7695   -2.2086   -0.3462 C   0  0  0  0  0  0  0  0  0  0  0  0
   -6.4182   -3.5507   -0.5487 C   0  0  0  0  0  0  0  0  0  0  0  0
   -5.4766   -1.7747    0.9536 C   0  0  0  0  0  0  0  0  0  0  0  0
   -4.8673   -0.5352    1.1693 C   0  0  0  0  0  0  0  0  0  0  0  0
   -4.4992   -0.0336    2.9690 Br  0  0  0  0  0  0  0  0  0  0  0  0
    0.0920    1.7819    2.1144 O   0  0  0  0  0  0  0  0  0  0  0  0
    5.8513    0.1657    0.7313 C   0  0  0  0  0  0  0  0  0  0  0  0
    6.4690   -0.7493   -0.1292 C   0  0  0  0  0  0  0  0  0  0  0  0
    7.4170   -3.2191   -1.1231 H   0  0  0  0  0  0  0  0  0  0  0  0
    8.4665   -1.9001   -1.7753 H   0  0  0  0  0  0  0  0  0  0  0  0
    7.8918   -3.2013   -2.8258 H   0  0  0  0  0  0  0  0  0  0  0  0
    4.4274   -0.4072   -2.8172 H   0  0  0  0  0  0  0  0  0  0  0  0
    3.3357    1.2055   -1.3138 H   0  0  0  0  0  0  0  0  0  0  0  0
    4.8213    2.4847    1.7110 H   0  0  0  0  0  0  0  0  0  0  0  0
    3.4064    2.5435    0.6921 H   0  0  0  0  0  0  0  0  0  0  0  0
    2.8947    1.9471    3.0700 H   0  0  0  0  0  0  0  0  0  0  0  0
    3.9069    0.5151    2.9518 H   0  0  0  0  0  0  0  0  0  0  0  0
    2.3639   -0.4268    1.1875 H   0  0  0  0  0  0  0  0  0  0  0  0
    1.6163   -0.1809    2.7534 H   0  0  0  0  0  0  0  0  0  0  0  0
   -2.1491    4.2034   -0.5366 H   0  0  0  0  0  0  0  0  0  0  0  0
   -3.6773    4.4649    0.3201 H   0  0  0  0  0  0  0  0  0  0  0  0
   -3.7610    1.7312    1.3607 H   0  0  0  0  0  0  0  0  0  0  0  0
   -4.5709    0.4793   -2.0608 H   0  0  0  0  0  0  0  0  0  0  0  0
   -5.2969   -1.0912   -3.5751 H   0  0  0  0  0  0  0  0  0  0  0  0
   -5.2645   -2.7779   -3.0625 H   0  0  0  0  0  0  0  0  0  0  0  0
   -6.7939   -1.8524   -3.0208 H   0  0  0  0  0  0  0  0  0  0  0  0
   -5.7233   -4.2344   -1.0461 H   0  0  0  0  0  0  0  0  0  0  0  0
   -6.7097   -4.0039    0.4049 H   0  0  0  0  0  0  0  0  0  0  0  0
   -7.3268   -3.4510   -1.1512 H   0  0  0  0  0  0  0  0  0  0  0  0
   -5.7251   -2.4084    1.8021 H   0  0  0  0  0  0  0  0  0  0  0  0
    6.2648    0.3171    1.7258 H   0  0  0  0  0  0  0  0  0  0  0  0
    7.3441   -1.2779    0.2328 H   0  0  0  0  0  0  0  0  0  0  0  0
  1  2  1  0
  2  3  1  0
  3  4  2  0
  4  5  1  0
  5  6  2  0
  6  7  1  0
  7  8  1  0
  8  9  1  0
  9 10  1  0
 10 11  2  0
 11 12  1  0
 12 13  2  0
 13 14  1  0
 14 15  1  0
 15 16  1  0
 16 17  2  0
 16 18  1  0
 18 19  1  0
 19 20  2  0
 20 21  1  0
 21 22  1  0
 21 23  2  0
 23 24  1  0
 23 25  1  0
 25 26  2  0
 26 27  1  0
 13 28  1  0
  6 29  1  0
 29 30  2  0
 30  3  1  0
 28 10  1  0
 26 19  1  0
  1 31  1  0
  1 32  1  0
  1 33  1  0
  4 34  1  0
  5 35  1  0
  7 36  1  0
  7 37  1  0
  8 38  1  0
  8 39  1  0
  9 40  1  0
  9 41  1  0
 15 42  1  0
 15 43  1  0
 18 44  1  0
 20 45  1  0
 22 46  1  0
 22 47  1  0
 22 48  1  0
 24 49  1  0
 24 50  1  0
 24 51  1  0
 25 52  1  0
 29 53  1  0
 30 54  1  0
M  END
$$$$
