
     RDKit          3D

 54 57  0  0  0  0  0  0  0  0999 V2000
   -6.0684    2.5803   -2.2811 C   0  0  0  0  0  0  0  0  0  0  0  0
   -5.5872    1.7583   -1.1231 C   0  0  0  0  0  0  0  0  0  0  0  0
   -6.3365    1.6742    0.0500 C   0  0  0  0  0  0  0  0  0  0  0  0
   -5.9049    0.8696    1.1050 C   0  0  0  0  0  0  0  0  0  0  0  0
   -4.7190    0.1209    1.0077 C   0  0  0  0  0  0  0  0  0  0  0  0
   -4.3248   -0.7468    2.1745 C   0  0  0  0  0  0  0  0  0  0  0  0
   -3.9356    0.2079   -0.1663 C   0  0  0  0  0  0  0  0  0  0  0  0
   -2.6596   -0.5058   -0.3377 C   0  0  0  0  0  0  0  0  0  0  0  0
   -1.5739   -0.2871    0.4888 C   0  0  0  0  0  0  0  0  0  0  0  0
   -0.4000   -0.9963    0.2383 C   0  0  0  0  0  0  0  0  0  0  0  0
    0.7418   -0.6994    1.1345 C   0  0  0  0  0  0  0  0  0  0  0  0
    0.5652   -0.8439    2.3365 O   0  0  0  0  0  0  0  0  0  0  0  0
    1.8564   -0.2286    0.4723 N   0  0  0  0  0  0  0  0  0  0  0  0
    3.0894    0.0977    1.0203 C   0  0  0  0  0  0  0  0  0  0  0  0
    3.4085   -0.1158    2.6654 S   0  0  0  0  0  0  0  0  0  0  0  0
    5.0202    0.4116    2.5082 C   0  0  0  0  0  0  0  0  0  0  0  0
    5.8996    0.4335    3.7171 C   0  0  0  0  0  0  0  0  0  0  0  0
    5.3382    0.7431    1.1983 C   0  0  0  0  0  0  0  0  0  0  0  0
    6.7127    1.1508    0.7628 C   0  0  0  0  0  0  0  0  0  0  0  0
    4.1764    0.6157    0.3267 C   0  0  0  0  0  0  0  0  0  0  0  0
    4.0719    0.9257   -1.1010 C   0  0  0  0  0  0  0  0  0  0  0  0
    4.8943    1.9048   -1.5783 N   0  0  0  0  0  0  0  0  0  0  0  0
    3.2383    0.4074   -1.8401 O   0  0  0  0  0  0  0  0  0  0  0  0
   -0.3244   -1.9387   -0.8108 C   0  0  0  0  0  0  0  0  0  0  0  0
    0.8001   -2.7553   -1.0980 C   0  0  0  0  0  0  0  0  0  0  0  0
    0.7854   -3.6503   -2.1660 C   0  0  0  0  0  0  0  0  0  0  0  0
   -0.3503   -3.7516   -2.9556 C   0  0  0  0  0  0  0  0  0  0  0  0
   -1.4663   -2.9640   -2.6651 C   0  0  0  0  0  0  0  0  0  0  0  0
   -1.4789   -2.0666   -1.6059 C   0  0  0  0  0  0  0  0  0  0  0  0
   -2.6016   -1.3623   -1.3858 N   0  0  0  0  0  0  0  0  0  0  0  0
   -4.4039    1.0149   -1.2246 C   0  0  0  0  0  0  0  0  0  0  0  0
   -6.6769    1.9642   -2.9501 H   0  0  0  0  0  0  0  0  0  0  0  0
   -5.2243    2.9902   -2.8456 H   0  0  0  0  0  0  0  0  0  0  0  0
   -6.6701    3.4279   -1.9365 H   0  0  0  0  0  0  0  0  0  0  0  0
   -7.2672    2.2279    0.1500 H   0  0  0  0  0  0  0  0  0  0  0  0
   -6.5122    0.8183    2.0066 H   0  0  0  0  0  0  0  0  0  0  0  0
   -5.1832   -0.9468    2.8254 H   0  0  0  0  0  0  0  0  0  0  0  0
   -3.5551   -0.2507    2.7731 H   0  0  0  0  0  0  0  0  0  0  0  0
   -3.9574   -1.7204    1.8347 H   0  0  0  0  0  0  0  0  0  0  0  0
   -1.6261    0.4268    1.3052 H   0  0  0  0  0  0  0  0  0  0  0  0
    1.7995   -0.1125   -0.5403 H   0  0  0  0  0  0  0  0  0  0  0  0
    5.3266    0.3941    4.6494 H   0  0  0  0  0  0  0  0  0  0  0  0
    6.4967    1.3512    3.7393 H   0  0  0  0  0  0  0  0  0  0  0  0
    6.5827   -0.4220    3.7003 H   0  0  0  0  0  0  0  0  0  0  0  0
    7.4790    0.7662    1.4438 H   0  0  0  0  0  0  0  0  0  0  0  0
    6.7966    2.2417    0.7415 H   0  0  0  0  0  0  0  0  0  0  0  0
    6.9461    0.7537   -0.2298 H   0  0  0  0  0  0  0  0  0  0  0  0
    4.6865    2.2266   -2.5145 H   0  0  0  0  0  0  0  0  0  0  0  0
    5.3031    2.5743   -0.9432 H   0  0  0  0  0  0  0  0  0  0  0  0
    1.6969   -2.7107   -0.4827 H   0  0  0  0  0  0  0  0  0  0  0  0
    1.6562   -4.2665   -2.3750 H   0  0  0  0  0  0  0  0  0  0  0  0
   -0.3783   -4.4457   -3.7914 H   0  0  0  0  0  0  0  0  0  0  0  0
   -2.3584   -3.0582   -3.2810 H   0  0  0  0  0  0  0  0  0  0  0  0
   -3.8238    1.0603   -2.1463 H   0  0  0  0  0  0  0  0  0  0  0  0
  1  2  1  0
  2  3  2  0
  3  4  1  0
  4  5  2  0
  5  6  1  0
  5  7  1  0
  7  8  1  0
  8  9  2  0
  9 10  1  0
 10 11  1  0
 11 12  2  0
 11 13  1  0
 13 14  1  0
 14 15  1  0
 15 16  1  0
 16 17  1  0
 16 18  2  0
 18 19  1  0
 18 20  1  0
 20 21  1  0
 21 22  1  0
 21 23  2  0
 10 24  2  0
 24 25  1  0
 25 26  2  0
 26 27  1  0
 27 28  2  0
 28 29  1  0
 29 30  2  0
  7 31  2  0
 31  2  1  0
 30  8  1  0
 20 14  2  0
 29 24  1  0
  1 32  1  0
  1 33  1  0
  1 34  1  0
  3 35  1  0
  4 36  1  0
  6 37  1  0
  6 38  1  0
  6 39  1  0
  9 40  1  0
 13 41  1  0
 17 42  1  0
 17 43  1  0
 17 44  1  0
 19 45  1  0
 19 46  1  0
 19 47  1  0
 22 48  1  0
 22 49  1  0
 25 50  1  0
 26 51  1  0
 27 52  1  0
 28 53  1  0
 31 54  1  0
M  END
$$$$
