
     RDKit          3D

 51 55  0  0  0  0  0  0  0  0999 V2000
   -2.2716   -1.6168   -1.6612 O   0  0  0  0  0  0  0  0  0  0  0  0
   -2.9508   -0.6202   -1.3578 C   0  0  0  0  0  0  0  0  0  0  0  0
   -4.4772   -0.7974   -1.2999 C   0  0  0  0  0  0  0  0  0  0  0  0
   -5.5075    0.1897   -1.8903 C   0  0  0  0  0  0  0  0  0  0  0  0
   -6.4622   -0.2189   -0.7495 C   0  0  0  0  0  0  0  0  0  0  0  0
   -5.2263   -0.6788    0.0485 C   0  0  0  0  0  0  0  0  0  0  0  0
   -2.3518    0.6021   -1.0510 N   0  0  0  0  0  0  0  0  0  0  0  0
   -3.0147    1.8872   -0.7687 C   0  0  0  0  0  0  0  0  0  0  0  0
   -1.9502    2.8543   -0.2412 C   0  0  0  0  0  0  0  0  0  0  0  0
   -0.6930    2.1543   -0.6382 C   0  0  0  0  0  0  0  0  0  0  0  0
    0.6006    2.6508   -0.5588 C   0  0  0  0  0  0  0  0  0  0  0  0
    1.6488    1.8008   -0.9232 C   0  0  0  0  0  0  0  0  0  0  0  0
    3.3235    2.4016   -0.8519 S   0  0  0  0  0  6  0  0  0  0  0  0
    4.1314    1.5992   -1.7435 O   0  0  0  0  0  0  0  0  0  0  0  0
    3.2701    3.8434   -0.9835 O   0  0  0  0  0  0  0  0  0  0  0  0
    3.7698    2.1004    0.7487 N   0  0  0  0  0  0  0  0  0  0  0  0
    3.6230    0.7926    1.2890 C   0  0  0  0  0  0  0  0  0  0  0  0
    2.7438    0.6052    2.3591 C   0  0  0  0  0  0  0  0  0  0  0  0
    2.5461   -0.6729    2.8854 C   0  0  0  0  0  0  0  0  0  0  0  0
    3.2268   -1.7592    2.3408 C   0  0  0  0  0  0  0  0  0  0  0  0
    4.1326   -1.5647    1.2931 C   0  0  0  0  0  0  0  0  0  0  0  0
    4.3225   -0.2912    0.7586 C   0  0  0  0  0  0  0  0  0  0  0  0
    4.8608   -2.5830    0.7328 O   0  0  0  0  0  0  0  0  0  0  0  0
    4.8371   -3.7583    1.5507 C   0  0  0  0  0  0  0  0  0  0  0  0
    3.4268   -4.0449    2.0392 C   0  0  0  0  0  0  0  0  0  0  0  0
    2.9633   -2.9881    2.8883 O   0  0  0  0  0  0  0  0  0  0  0  0
    1.3977    0.4943   -1.3735 C   0  0  0  0  0  0  0  0  0  0  0  0
    0.0857    0.0100   -1.4334 C   0  0  0  0  0  0  0  0  0  0  0  0
   -0.9564    0.8483   -1.0658 C   0  0  0  0  0  0  0  0  0  0  0  0
   -4.6950   -1.7951   -1.7277 H   0  0  0  0  0  0  0  0  0  0  0  0
   -5.8622   -0.0572   -2.8959 H   0  0  0  0  0  0  0  0  0  0  0  0
   -5.2612    1.2509   -1.8736 H   0  0  0  0  0  0  0  0  0  0  0  0
   -7.0404    0.5928   -0.3008 H   0  0  0  0  0  0  0  0  0  0  0  0
   -7.1412   -1.0366   -1.0170 H   0  0  0  0  0  0  0  0  0  0  0  0
   -4.8382    0.0702    0.7439 H   0  0  0  0  0  0  0  0  0  0  0  0
   -5.3537   -1.6179    0.5955 H   0  0  0  0  0  0  0  0  0  0  0  0
   -3.8372    1.7760   -0.0615 H   0  0  0  0  0  0  0  0  0  0  0  0
   -3.4105    2.2629   -1.7191 H   0  0  0  0  0  0  0  0  0  0  0  0
   -2.0036    2.9368    0.8494 H   0  0  0  0  0  0  0  0  0  0  0  0
   -2.0457    3.8453   -0.6936 H   0  0  0  0  0  0  0  0  0  0  0  0
    0.7876    3.6664   -0.2226 H   0  0  0  0  0  0  0  0  0  0  0  0
    3.5777    2.8957    1.3545 H   0  0  0  0  0  0  0  0  0  0  0  0
    2.1931    1.4405    2.7817 H   0  0  0  0  0  0  0  0  0  0  0  0
    1.8512   -0.8253    3.7066 H   0  0  0  0  0  0  0  0  0  0  0  0
    5.0265   -0.1553   -0.0580 H   0  0  0  0  0  0  0  0  0  0  0  0
    5.2045   -4.5920    0.9442 H   0  0  0  0  0  0  0  0  0  0  0  0
    5.5302   -3.6131    2.3886 H   0  0  0  0  0  0  0  0  0  0  0  0
    2.7255   -4.1539    1.2025 H   0  0  0  0  0  0  0  0  0  0  0  0
    3.4089   -4.9708    2.6225 H   0  0  0  0  0  0  0  0  0  0  0  0
    2.2177   -0.1561   -1.6735 H   0  0  0  0  0  0  0  0  0  0  0  0
   -0.0829   -1.0044   -1.7787 H   0  0  0  0  0  0  0  0  0  0  0  0
  1  2  2  0
  2  3  1  0
  3  4  1  0
  4  5  1  0
  5  6  1  0
  2  7  1  0
  7  8  1  0
  8  9  1  0
  9 10  1  0
 10 11  2  0
 11 12  1  0
 12 13  1  0
 13 14  2  0
 13 15  2  0
 13 16  1  0
 16 17  1  0
 17 18  2  0
 18 19  1  0
 19 20  2  0
 20 21  1  0
 21 22  2  0
 21 23  1  0
 23 24  1  0
 24 25  1  0
 25 26  1  0
 12 27  2  0
 27 28  1  0
 28 29  2  0
  6  3  1  0
 29  7  1  0
 29 10  1  0
 22 17  1  0
 26 20  1  0
  3 30  1  0
  4 31  1  0
  4 32  1  0
  5 33  1  0
  5 34  1  0
  6 35  1  0
  6 36  1  0
  8 37  1  0
  8 38  1  0
  9 39  1  0
  9 40  1  0
 11 41  1  0
 16 42  1  0
 18 43  1  0
 19 44  1  0
 22 45  1  0
 24 46  1  0
 24 47  1  0
 25 48  1  0
 25 49  1  0
 27 50  1  0
 28 51  1  0
M  END
$$$$
