
     RDKit          3D

 60 63  0  0  0  0  0  0  0  0999 V2000
    9.8780   -1.6597   -4.0556 C   0  0  0  0  0  0  0  0  0  0  0  0
    8.4479   -1.6963   -3.5458 C   0  0  0  0  0  0  0  0  0  0  0  0
    8.4723   -1.4171   -2.1474 O   0  0  0  0  0  0  0  0  0  0  0  0
    7.2749   -1.4394   -1.4871 C   0  0  0  0  0  0  0  0  0  0  0  0
    6.0265   -1.6820   -2.0582 C   0  0  0  0  0  0  0  0  0  0  0  0
    4.8759   -1.6784   -1.2614 C   0  0  0  0  0  0  0  0  0  0  0  0
    4.9586   -1.4376    0.1162 C   0  0  0  0  0  0  0  0  0  0  0  0
    3.7133   -1.4106    0.9591 C   0  0  0  0  0  0  0  0  0  0  0  0
    3.0737   -0.1196    0.8911 N   0  0  0  0  0  0  0  0  0  0  0  0
    1.8240    0.0801    1.4419 C   0  0  0  0  0  0  0  0  0  0  0  0
    1.2154   -0.8133    2.0279 O   0  0  0  0  0  0  0  0  0  0  0  0
    1.3104    1.5132    1.2899 C   0  0  0  0  0  0  0  0  0  0  0  0
   -0.1362    1.5597    1.4175 N   0  0  0  0  0  0  0  0  0  0  0  0
   -0.6447    1.9585    2.6585 N   0  0  0  0  0  0  0  0  0  0  0  0
   -1.9291    1.9609    2.8840 C   0  0  0  0  0  0  0  0  0  0  0  0
   -2.4118    2.3779    4.2444 C   0  0  0  0  0  0  0  0  0  0  0  0
   -2.8363    1.5754    1.8297 C   0  0  0  0  0  0  0  0  0  0  0  0
   -4.2159    1.5337    1.7099 C   0  0  0  0  0  0  0  0  0  0  0  0
   -5.2680    2.0187    2.6402 C   0  0  0  0  0  0  0  0  0  0  0  0
   -4.4613    0.9709    0.4504 N   0  0  0  0  0  0  0  0  0  0  0  0
   -5.6740    0.4887   -0.1347 C   0  0  0  0  0  0  0  0  0  0  0  0
   -6.8005    0.1669    0.6297 C   0  0  0  0  0  0  0  0  0  0  0  0
   -7.9640   -0.3081    0.0117 C   0  0  0  0  0  0  0  0  0  0  0  0
   -8.0144   -0.4940   -1.3738 C   0  0  0  0  0  0  0  0  0  0  0  0
   -9.2746   -0.9736   -2.0306 C   0  0  0  0  0  0  0  0  0  0  0  0
   -6.8865   -0.1853   -2.1385 C   0  0  0  0  0  0  0  0  0  0  0  0
   -5.7230    0.2886   -1.5250 C   0  0  0  0  0  0  0  0  0  0  0  0
   -3.3151    0.9026   -0.2808 N   0  0  0  0  0  0  0  0  0  0  0  0
   -2.3373    1.1870    0.5818 C   0  0  0  0  0  0  0  0  0  0  0  0
   -0.9072    1.1603    0.3087 C   0  0  0  0  0  0  0  0  0  0  0  0
   -0.4168    0.8380   -0.7727 O   0  0  0  0  0  0  0  0  0  0  0  0
    6.2119   -1.1813    0.6816 C   0  0  0  0  0  0  0  0  0  0  0  0
    7.3590   -1.1869   -0.1159 C   0  0  0  0  0  0  0  0  0  0  0  0
    9.9136   -1.8662   -5.1286 H   0  0  0  0  0  0  0  0  0  0  0  0
   10.3300   -0.6793   -3.8704 H   0  0  0  0  0  0  0  0  0  0  0  0
   10.4918   -2.4003   -3.5329 H   0  0  0  0  0  0  0  0  0  0  0  0
    8.0296   -2.6934   -3.7290 H   0  0  0  0  0  0  0  0  0  0  0  0
    7.8595   -0.9364   -4.0737 H   0  0  0  0  0  0  0  0  0  0  0  0
    5.9094   -1.8785   -3.1189 H   0  0  0  0  0  0  0  0  0  0  0  0
    3.9087   -1.8672   -1.7237 H   0  0  0  0  0  0  0  0  0  0  0  0
    3.9465   -1.6209    2.0078 H   0  0  0  0  0  0  0  0  0  0  0  0
    3.0082   -2.1810    0.6295 H   0  0  0  0  0  0  0  0  0  0  0  0
    3.5698    0.6440    0.4495 H   0  0  0  0  0  0  0  0  0  0  0  0
    1.5986    1.9044    0.3085 H   0  0  0  0  0  0  0  0  0  0  0  0
    1.7676    2.1349    2.0660 H   0  0  0  0  0  0  0  0  0  0  0  0
   -3.1397    1.6576    4.6262 H   0  0  0  0  0  0  0  0  0  0  0  0
   -2.8685    3.3692    4.1820 H   0  0  0  0  0  0  0  0  0  0  0  0
   -1.5728    2.4280    4.9447 H   0  0  0  0  0  0  0  0  0  0  0  0
   -4.9123    2.8730    3.2226 H   0  0  0  0  0  0  0  0  0  0  0  0
   -6.1529    2.3799    2.1071 H   0  0  0  0  0  0  0  0  0  0  0  0
   -5.5567    1.2316    3.3428 H   0  0  0  0  0  0  0  0  0  0  0  0
   -6.8057    0.2260    1.7105 H   0  0  0  0  0  0  0  0  0  0  0  0
   -8.8302   -0.5480    0.6251 H   0  0  0  0  0  0  0  0  0  0  0  0
   -9.8030   -1.6828   -1.3858 H   0  0  0  0  0  0  0  0  0  0  0  0
   -9.0582   -1.4912   -2.9709 H   0  0  0  0  0  0  0  0  0  0  0  0
   -9.9338   -0.1264   -2.2377 H   0  0  0  0  0  0  0  0  0  0  0  0
   -6.8992   -0.3130   -3.2189 H   0  0  0  0  0  0  0  0  0  0  0  0
   -4.8616    0.5124   -2.1537 H   0  0  0  0  0  0  0  0  0  0  0  0
    6.3070   -0.9802    1.7457 H   0  0  0  0  0  0  0  0  0  0  0  0
    8.3293   -0.9942    0.3357 H   0  0  0  0  0  0  0  0  0  0  0  0
  1  2  1  0
  2  3  1  0
  3  4  1  0
  4  5  2  0
  5  6  1  0
  6  7  2  0
  7  8  1  0
  8  9  1  0
  9 10  1  0
 10 11  2  0
 10 12  1  0
 12 13  1  0
 13 14  1  0
 14 15  2  0
 15 16  1  0
 15 17  1  0
 17 18  2  0
 18 19  1  0
 18 20  1  0
 20 21  1  0
 21 22  2  0
 22 23  1  0
 23 24  2  0
 24 25  1  0
 24 26  1  0
 26 27  2  0
 20 28  1  0
 28 29  2  0
 29 30  1  0
 30 31  2  0
  7 32  1  0
 32 33  2  0
 33  4  1  0
 30 13  1  0
 29 17  1  0
 27 21  1  0
  1 34  1  0
  1 35  1  0
  1 36  1  0
  2 37  1  0
  2 38  1  0
  5 39  1  0
  6 40  1  0
  8 41  1  0
  8 42  1  0
  9 43  1  0
 12 44  1  0
 12 45  1  0
 16 46  1  0
 16 47  1  0
 16 48  1  0
 19 49  1  0
 19 50  1  0
 19 51  1  0
 22 52  1  0
 23 53  1  0
 25 54  1  0
 25 55  1  0
 25 56  1  0
 26 57  1  0
 27 58  1  0
 32 59  1  0
 33 60  1  0
M  END
$$$$
