
     RDKit          3D

 49 52  0  0  0  0  0  0  0  0999 V2000
   -3.9993   -1.7734    2.2335 O   0  0  0  0  0  0  0  0  0  0  0  0
   -3.9236   -0.5948    1.8922 C   0  0  0  0  0  0  0  0  0  0  0  0
   -2.6501    0.0437    1.6043 C   0  0  0  0  0  0  0  0  0  0  0  0
   -2.3035    1.3981    1.4631 C   0  0  0  0  0  0  0  0  0  0  0  0
   -0.9978    1.5825    1.2650 N   0  0  0  0  0  0  0  0  0  0  0  0
   -0.4746    0.3288    1.2031 N   0  0  0  0  0  0  0  0  0  0  0  0
    0.9233    0.1628    0.9713 C   0  0  0  0  0  0  0  0  0  0  0  0
    1.7606    1.2764    1.1983 C   0  0  0  0  0  0  0  0  0  0  0  0
    3.1493    1.1818    1.0517 C   0  0  0  0  0  0  0  0  0  0  0  0
    3.7204   -0.0284    0.6567 C   0  0  0  0  0  0  0  0  0  0  0  0
    5.4862   -0.1451    0.4516 S   0  0  0  0  0  6  0  0  0  0  0  0
    6.0857    0.8523    1.3118 O   0  0  0  0  0  0  0  0  0  0  0  0
    5.8466   -1.5421    0.5522 O   0  0  0  0  0  0  0  0  0  0  0  0
    5.7172    0.3913   -1.1314 N   0  0  0  0  0  0  0  0  0  0  0  0
    4.9659   -0.1996   -2.1848 C   0  0  0  0  0  0  0  0  0  0  0  0
    5.1213   -1.5478   -2.5067 C   0  0  0  0  0  0  0  0  0  0  0  0
    4.3235   -2.1235   -3.4965 C   0  0  0  0  0  0  0  0  0  0  0  0
    3.3712   -1.3517   -4.1620 C   0  0  0  0  0  0  0  0  0  0  0  0
    3.2212   -0.0016   -3.8453 C   0  0  0  0  0  0  0  0  0  0  0  0
    4.0203    0.5770   -2.8580 C   0  0  0  0  0  0  0  0  0  0  0  0
    2.9212   -1.1484    0.4230 C   0  0  0  0  0  0  0  0  0  0  0  0
    1.5279   -1.0352    0.5616 C   0  0  0  0  0  0  0  0  0  0  0  0
    0.7623   -2.1735    0.0985 N   0  0  0  0  0  4  0  0  0  0  0  0
    0.0592   -2.0045   -0.9052 O   0  0  0  0  0  0  0  0  0  0  0  0
    0.8913   -3.2291    0.7294 O   0  0  0  0  0  1  0  0  0  0  0  0
   -1.4408   -0.6131    1.4643 C   0  0  0  0  0  0  0  0  0  0  0  0
   -5.1731    0.1974    1.8563 C   0  0  0  0  0  0  0  0  0  0  0  0
   -6.0079    0.1380    2.9787 C   0  0  0  0  0  0  0  0  0  0  0  0
   -7.2021    0.8465    2.9773 C   0  0  0  0  0  0  0  0  0  0  0  0
   -7.9981    0.8005    4.0530 F   0  0  0  0  0  0  0  0  0  0  0  0
   -7.5867    1.6045    1.8756 C   0  0  0  0  0  0  0  0  0  0  0  0
   -6.7700    1.6482    0.7440 C   0  0  0  0  0  0  0  0  0  0  0  0
   -5.5676    0.9381    0.7336 C   0  0  0  0  0  0  0  0  0  0  0  0
   -4.7874    0.9538   -0.3862 O   0  0  0  0  0  0  0  0  0  0  0  0
   -2.9430    2.2699    1.5182 H   0  0  0  0  0  0  0  0  0  0  0  0
    1.3436    2.2315    1.5217 H   0  0  0  0  0  0  0  0  0  0  0  0
    3.7700    2.0535    1.2534 H   0  0  0  0  0  0  0  0  0  0  0  0
    5.9019    1.3918   -1.1784 H   0  0  0  0  0  0  0  0  0  0  0  0
    5.8635   -2.1582   -1.9968 H   0  0  0  0  0  0  0  0  0  0  0  0
    4.4444   -3.1750   -3.7481 H   0  0  0  0  0  0  0  0  0  0  0  0
    2.7467   -1.8036   -4.9301 H   0  0  0  0  0  0  0  0  0  0  0  0
    2.4792    0.5986   -4.3676 H   0  0  0  0  0  0  0  0  0  0  0  0
    3.8842    1.6270   -2.6155 H   0  0  0  0  0  0  0  0  0  0  0  0
    3.3705   -2.0862    0.0975 H   0  0  0  0  0  0  0  0  0  0  0  0
   -1.2337   -1.6680    1.5648 H   0  0  0  0  0  0  0  0  0  0  0  0
   -5.7393   -0.4583    3.8466 H   0  0  0  0  0  0  0  0  0  0  0  0
   -8.5278    2.1464    1.9028 H   0  0  0  0  0  0  0  0  0  0  0  0
   -7.0894    2.2313   -0.1154 H   0  0  0  0  0  0  0  0  0  0  0  0
   -5.2628    1.3893   -1.1151 H   0  0  0  0  0  0  0  0  0  0  0  0
  1  2  2  0
  2  3  1  0
  3  4  1  0
  4  5  2  0
  5  6  1  0
  6  7  1  0
  7  8  2  0
  8  9  1  0
  9 10  2  0
 10 11  1  0
 11 12  2  0
 11 13  2  0
 11 14  1  0
 14 15  1  0
 15 16  2  0
 16 17  1  0
 17 18  2  0
 18 19  1  0
 19 20  2  0
 10 21  1  0
 21 22  2  0
 22 23  1  0
 23 24  2  0
 23 25  1  0
  6 26  1  0
  2 27  1  0
 27 28  2  0
 28 29  1  0
 29 30  1  0
 29 31  2  0
 31 32  1  0
 32 33  2  0
 33 34  1  0
 26  3  2  0
 33 27  1  0
 22  7  1  0
 20 15  1  0
  4 35  1  0
  8 36  1  0
  9 37  1  0
 14 38  1  0
 16 39  1  0
 17 40  1  0
 18 41  1  0
 19 42  1  0
 20 43  1  0
 21 44  1  0
 26 45  1  0
 28 46  1  0
 31 47  1  0
 32 48  1  0
 34 49  1  0
M  CHG  2  23   1  25  -1
M  END
$$$$
