
     RDKit          3D

 61 66  0  0  0  0  0  0  0  0999 V2000
   10.5066    0.4470   -0.7084 Cl  0  0  0  0  0  0  0  0  0  0  0  0
    8.9353    0.0064   -0.1405 C   0  0  0  0  0  0  0  0  0  0  0  0
    7.9841    1.0216   -0.0055 C   0  0  0  0  0  0  0  0  0  0  0  0
    6.6965    0.7251    0.4481 C   0  0  0  0  0  0  0  0  0  0  0  0
    6.3465   -0.5906    0.7761 C   0  0  0  0  0  0  0  0  0  0  0  0
    4.9487   -0.9177    1.2495 C   0  0  0  0  0  0  0  0  0  0  0  0
    4.0043   -1.2121    0.0707 C   0  0  0  0  0  0  0  0  0  0  0  0
    2.6596   -1.6362    0.4966 N   0  0  0  0  0  0  0  0  0  0  0  0
    1.8397   -2.0829   -0.6561 C   0  0  0  0  0  0  0  0  0  0  0  0
    0.8958   -1.0117   -1.2451 C   0  0  0  0  0  0  0  0  0  0  0  0
   -0.0390   -0.4653   -0.2305 N   0  0  0  0  0  0  0  0  0  0  0  0
   -1.3793   -0.6742   -0.4266 C   0  0  0  0  0  0  0  0  0  0  0  0
   -2.0303   -1.8573   -0.7210 C   0  0  0  0  0  0  0  0  0  0  0  0
   -3.4179   -1.6110   -0.6995 C   0  0  0  0  0  0  0  0  0  0  0  0
   -3.6004   -0.2674   -0.4352 C   0  0  0  0  0  0  0  0  0  0  0  0
   -4.7970    0.5300   -0.2695 C   0  0  0  0  0  0  0  0  0  0  0  0
   -6.1424   -0.0779   -0.4243 C   0  0  0  0  0  0  0  0  0  0  0  0
   -6.4805   -0.7964   -1.5763 C   0  0  0  0  0  0  0  0  0  0  0  0
   -7.7593   -1.3414   -1.7031 C   0  0  0  0  0  0  0  0  0  0  0  0
   -8.7004   -1.1585   -0.6887 C   0  0  0  0  0  0  0  0  0  0  0  0
   -8.3706   -0.4232    0.4504 C   0  0  0  0  0  0  0  0  0  0  0  0
   -7.0939    0.1243    0.5814 C   0  0  0  0  0  0  0  0  0  0  0  0
   -4.7227    1.7908    0.0372 N   0  0  0  0  0  0  0  0  0  0  0  0
   -3.4573    2.4001    0.1394 C   0  0  0  0  0  0  0  0  0  0  0  0
   -3.4223    3.7720    0.4075 C   0  0  0  0  0  0  0  0  0  0  0  0
   -2.2081    4.4545    0.4864 C   0  0  0  0  0  0  0  0  0  0  0  0
   -1.0132    3.7675    0.2871 C   0  0  0  0  0  0  0  0  0  0  0  0
   -1.0276    2.3964    0.0206 C   0  0  0  0  0  0  0  0  0  0  0  0
   -2.2449    1.7104   -0.0376 C   0  0  0  0  0  0  0  0  0  0  0  0
   -2.3506    0.3185   -0.2902 N   0  0  0  0  0  0  0  0  0  0  0  0
    0.4186   -0.6597    1.1718 C   0  0  0  0  0  0  0  0  0  0  0  0
    1.9576   -0.5744    1.2591 C   0  0  0  0  0  0  0  0  0  0  0  0
    7.3035   -1.6063    0.6337 C   0  0  0  0  0  0  0  0  0  0  0  0
    8.5941   -1.3115    0.1793 C   0  0  0  0  0  0  0  0  0  0  0  0
    9.7129   -2.6205    0.0331 Cl  0  0  0  0  0  0  0  0  0  0  0  0
    8.2401    2.0494   -0.2529 H   0  0  0  0  0  0  0  0  0  0  0  0
    5.9693    1.5295    0.5450 H   0  0  0  0  0  0  0  0  0  0  0  0
    4.9878   -1.7814    1.9259 H   0  0  0  0  0  0  0  0  0  0  0  0
    4.5775   -0.0787    1.8506 H   0  0  0  0  0  0  0  0  0  0  0  0
    4.4552   -2.0199   -0.5212 H   0  0  0  0  0  0  0  0  0  0  0  0
    3.9425   -0.3383   -0.5918 H   0  0  0  0  0  0  0  0  0  0  0  0
    2.4701   -2.4938   -1.4546 H   0  0  0  0  0  0  0  0  0  0  0  0
    1.2279   -2.9253   -0.3072 H   0  0  0  0  0  0  0  0  0  0  0  0
    1.4930   -0.1771   -1.6328 H   0  0  0  0  0  0  0  0  0  0  0  0
    0.3602   -1.4313   -2.1059 H   0  0  0  0  0  0  0  0  0  0  0  0
   -1.5510   -2.8145   -0.8756 H   0  0  0  0  0  0  0  0  0  0  0  0
   -4.1955   -2.3497   -0.8429 H   0  0  0  0  0  0  0  0  0  0  0  0
   -5.7631   -0.9188   -2.3834 H   0  0  0  0  0  0  0  0  0  0  0  0
   -8.0263   -1.8998   -2.5969 H   0  0  0  0  0  0  0  0  0  0  0  0
   -9.6974   -1.5804   -0.7912 H   0  0  0  0  0  0  0  0  0  0  0  0
   -9.1092   -0.2704    1.2333 H   0  0  0  0  0  0  0  0  0  0  0  0
   -6.8408    0.7072    1.4639 H   0  0  0  0  0  0  0  0  0  0  0  0
   -4.3566    4.3101    0.5461 H   0  0  0  0  0  0  0  0  0  0  0  0
   -2.1986    5.5217    0.6909 H   0  0  0  0  0  0  0  0  0  0  0  0
   -0.0668    4.3004    0.3315 H   0  0  0  0  0  0  0  0  0  0  0  0
   -0.0805    1.9011   -0.1554 H   0  0  0  0  0  0  0  0  0  0  0  0
   -0.0180    0.1170    1.8107 H   0  0  0  0  0  0  0  0  0  0  0  0
    0.0813   -1.6315    1.5566 H   0  0  0  0  0  0  0  0  0  0  0  0
    2.2549   -0.6443    2.3115 H   0  0  0  0  0  0  0  0  0  0  0  0
    2.2563    0.4190    0.8972 H   0  0  0  0  0  0  0  0  0  0  0  0
    7.0413   -2.6342    0.8788 H   0  0  0  0  0  0  0  0  0  0  0  0
  1  2  1  0
  2  3  2  0
  3  4  1  0
  4  5  2  0
  5  6  1  0
  6  7  1  0
  7  8  1  0
  8  9  1  0
  9 10  1  0
 10 11  1  0
 11 12  1  0
 12 13  2  0
 13 14  1  0
 14 15  2  0
 15 16  1  0
 16 17  1  0
 17 18  2  0
 18 19  1  0
 19 20  2  0
 20 21  1  0
 21 22  2  0
 16 23  2  0
 23 24  1  0
 24 25  2  0
 25 26  1  0
 26 27  2  0
 27 28  1  0
 28 29  2  0
 29 30  1  0
 11 31  1  0
 31 32  1  0
  5 33  1  0
 33 34  2  0
 34 35  1  0
 34  2  1  0
 32  8  1  0
 30 12  1  0
 30 15  1  0
 22 17  1  0
 29 24  1  0
  3 36  1  0
  4 37  1  0
  6 38  1  0
  6 39  1  0
  7 40  1  0
  7 41  1  0
  9 42  1  0
  9 43  1  0
 10 44  1  0
 10 45  1  0
 13 46  1  0
 14 47  1  0
 18 48  1  0
 19 49  1  0
 20 50  1  0
 21 51  1  0
 22 52  1  0
 25 53  1  0
 26 54  1  0
 27 55  1  0
 28 56  1  0
 31 57  1  0
 31 58  1  0
 32 59  1  0
 32 60  1  0
 33 61  1  0
M  END
$$$$
