
     RDKit          3D

 33 35  0  0  0  0  0  0  0  0999 V2000
    5.0317    1.1600   -1.3066 C   0  0  0  0  0  0  0  0  0  0  0  0
    4.3113    0.3475   -0.3540 N   0  0  0  0  0  0  0  0  0  0  0  0
    4.8509   -0.4807    0.5828 C   0  0  0  0  0  0  0  0  0  0  0  0
    3.7762   -1.0395    1.2429 C   0  0  0  0  0  0  0  0  0  0  0  0
    3.8494   -2.0088    2.2818 N   0  0  0  0  0  4  0  0  0  0  0  0
    4.5123   -1.6981    3.2791 O   0  0  0  0  0  0  0  0  0  0  0  0
    3.3090   -3.0980    2.0616 O   0  0  0  0  0  1  0  0  0  0  0  0
    2.6236   -0.4696    0.6628 C   0  0  0  0  0  0  0  0  0  0  0  0
    1.2165   -0.6709    1.0456 C   0  0  0  0  0  0  0  0  0  0  0  0
    0.9203   -1.2865    2.0591 O   0  0  0  0  0  0  0  0  0  0  0  0
    0.3654   -0.0602    0.1419 N   0  0  0  0  0  0  0  0  0  0  0  0
   -1.0183   -0.0276    0.1620 C   0  0  0  0  0  0  0  0  0  0  0  0
   -1.9076   -0.7968    1.4181 S   0  0  0  0  0  0  0  0  0  0  0  0
   -3.3533   -0.3284    0.7307 C   0  0  0  0  0  0  0  0  0  0  0  0
   -3.2143    0.3945   -0.4197 C   0  0  0  0  0  0  0  0  0  0  0  0
   -1.8566    0.5871   -0.7626 C   0  0  0  0  0  0  0  0  0  0  0  0
   -1.3961    1.3040   -1.9115 C   0  0  0  0  0  0  0  0  0  0  0  0
   -1.0043    1.8825   -2.8382 N   0  0  0  0  0  0  0  0  0  0  0  0
   -4.5384    0.7605   -0.9847 C   0  0  0  0  0  0  0  0  0  0  0  0
   -5.5067    0.4320    0.1960 C   0  0  0  0  0  0  0  0  0  0  0  0
   -4.7579   -0.5632    1.1368 C   0  0  0  0  0  0  0  0  0  0  0  0
    2.9627    0.3719   -0.3433 N   0  0  0  0  0  0  0  0  0  0  0  0
    4.5092    1.1247   -2.2666 H   0  0  0  0  0  0  0  0  0  0  0  0
    5.0618    2.1828   -0.9229 H   0  0  0  0  0  0  0  0  0  0  0  0
    6.0452    0.7660   -1.4228 H   0  0  0  0  0  0  0  0  0  0  0  0
    5.9188   -0.6180    0.6952 H   0  0  0  0  0  0  0  0  0  0  0  0
    0.8494    0.4231   -0.6141 H   0  0  0  0  0  0  0  0  0  0  0  0
   -4.7705    0.1361   -1.8541 H   0  0  0  0  0  0  0  0  0  0  0  0
   -4.6035    1.8153   -1.2667 H   0  0  0  0  0  0  0  0  0  0  0  0
   -5.7180    1.3567    0.7494 H   0  0  0  0  0  0  0  0  0  0  0  0
   -6.4640    0.0313   -0.1521 H   0  0  0  0  0  0  0  0  0  0  0  0
   -5.0568   -1.5961    0.9255 H   0  0  0  0  0  0  0  0  0  0  0  0
   -4.9474   -0.3334    2.1886 H   0  0  0  0  0  0  0  0  0  0  0  0
  1  2  1  0
  2  3  1  0
  3  4  2  0
  4  5  1  0
  5  6  2  0
  5  7  1  0
  4  8  1  0
  8  9  1  0
  9 10  2  0
  9 11  1  0
 11 12  1  0
 12 13  1  0
 13 14  1  0
 14 15  2  0
 15 16  1  0
 16 17  1  0
 17 18  3  0
 15 19  1  0
 19 20  1  0
 20 21  1  0
  8 22  2  0
 22  2  1  0
 16 12  2  0
 21 14  1  0
  1 23  1  0
  1 24  1  0
  1 25  1  0
  3 26  1  0
 11 27  1  0
 19 28  1  0
 19 29  1  0
 20 30  1  0
 20 31  1  0
 21 32  1  0
 21 33  1  0
M  CHG  2   5   1   7  -1
M  END
$$$$
