
     RDKit          3D

 37 38  0  0  0  0  0  0  0  0999 V2000
    0.5958   -1.4665   -2.0116 O   0  0  0  0  0  0  0  0  0  0  0  0
    0.5524   -0.9465   -0.9033 C   0  0  0  0  0  0  0  0  0  0  0  0
   -0.6791   -1.0299   -0.0131 C   0  0  0  0  0  0  0  0  0  0  0  0
   -1.8491   -1.7331   -0.7030 C   0  0  0  0  0  0  0  0  0  0  0  0
   -3.0599   -1.9208    0.2166 C   0  0  0  0  0  0  0  0  0  0  0  0
   -3.6732   -0.6260    0.6906 C   0  0  0  0  0  0  0  0  0  0  0  0
   -4.3120    0.2334   -0.2138 C   0  0  0  0  0  0  0  0  0  0  0  0
   -4.8711    1.4348    0.2246 C   0  0  0  0  0  0  0  0  0  0  0  0
   -4.8005    1.7875    1.5707 C   0  0  0  0  0  0  0  0  0  0  0  0
   -4.1730    0.9383    2.4798 C   0  0  0  0  0  0  0  0  0  0  0  0
   -3.6127   -0.2634    2.0431 C   0  0  0  0  0  0  0  0  0  0  0  0
    1.5714   -0.2348   -0.2872 N   0  0  0  0  0  0  0  0  0  0  0  0
    2.8571    0.0425   -0.7969 C   0  0  0  0  0  0  0  0  0  0  0  0
    3.3124   -0.3884   -2.0464 C   0  0  0  0  0  0  0  0  0  0  0  0
    4.6037   -0.0756   -2.4879 C   0  0  0  0  0  0  0  0  0  0  0  0
    5.4592    0.6737   -1.6839 C   0  0  0  0  0  0  0  0  0  0  0  0
    5.0093    1.1071   -0.4329 C   0  0  0  0  0  0  0  0  0  0  0  0
    5.8998    1.8968    0.4257 N   0  0  0  0  0  4  0  0  0  0  0  0
    5.4658    2.2528    1.5311 O   0  0  0  0  0  0  0  0  0  0  0  0
    7.0319    2.1610   -0.0027 O   0  0  0  0  0  1  0  0  0  0  0  0
    3.7153    0.7957    0.0133 C   0  0  0  0  0  0  0  0  0  0  0  0
   -0.4023   -1.5741    0.8977 H   0  0  0  0  0  0  0  0  0  0  0  0
   -0.9627   -0.0088    0.2665 H   0  0  0  0  0  0  0  0  0  0  0  0
   -1.5251   -2.7232   -1.0482 H   0  0  0  0  0  0  0  0  0  0  0  0
   -2.1343   -1.1732   -1.6024 H   0  0  0  0  0  0  0  0  0  0  0  0
   -2.7703   -2.5378    1.0766 H   0  0  0  0  0  0  0  0  0  0  0  0
   -3.8320   -2.4918   -0.3148 H   0  0  0  0  0  0  0  0  0  0  0  0
   -4.3801   -0.0295   -1.2673 H   0  0  0  0  0  0  0  0  0  0  0  0
   -5.3646    2.0940   -0.4849 H   0  0  0  0  0  0  0  0  0  0  0  0
   -5.2387    2.7218    1.9115 H   0  0  0  0  0  0  0  0  0  0  0  0
   -4.1234    1.2104    3.5309 H   0  0  0  0  0  0  0  0  0  0  0  0
   -3.1307   -0.9155    2.7678 H   0  0  0  0  0  0  0  0  0  0  0  0
    1.3628    0.1389    0.6313 H   0  0  0  0  0  0  0  0  0  0  0  0
    2.6840   -0.9755   -2.7105 H   0  0  0  0  0  0  0  0  0  0  0  0
    4.9357   -0.4219   -3.4646 H   0  0  0  0  0  0  0  0  0  0  0  0
    6.4592    0.9075   -2.0430 H   0  0  0  0  0  0  0  0  0  0  0  0
    3.3788    1.1401    0.9886 H   0  0  0  0  0  0  0  0  0  0  0  0
  1  2  2  0
  2  3  1  0
  3  4  1  0
  4  5  1  0
  5  6  1  0
  6  7  2  0
  7  8  1  0
  8  9  2  0
  9 10  1  0
 10 11  2  0
  2 12  1  0
 12 13  1  0
 13 14  2  0
 14 15  1  0
 15 16  2  0
 16 17  1  0
 17 18  1  0
 18 19  2  0
 18 20  1  0
 17 21  2  0
 11  6  1  0
 21 13  1  0
  3 22  1  0
  3 23  1  0
  4 24  1  0
  4 25  1  0
  5 26  1  0
  5 27  1  0
  7 28  1  0
  8 29  1  0
  9 30  1  0
 10 31  1  0
 11 32  1  0
 12 33  1  0
 14 34  1  0
 15 35  1  0
 16 36  1  0
 21 37  1  0
M  CHG  2  18   1  20  -1
M  END
$$$$
