
     RDKit          3D

 40 41  0  0  0  0  0  0  0  0999 V2000
    7.7121   -0.3965    0.3510 C   0  0  0  0  0  0  0  0  0  0  0  0
    6.7423   -1.3433    0.7814 O   0  0  0  0  0  0  0  0  0  0  0  0
    5.4341   -0.9488    0.7459 C   0  0  0  0  0  0  0  0  0  0  0  0
    4.5244   -1.8990    1.2119 C   0  0  0  0  0  0  0  0  0  0  0  0
    3.1531   -1.6268    1.2309 C   0  0  0  0  0  0  0  0  0  0  0  0
    2.6683   -0.3904    0.7912 C   0  0  0  0  0  0  0  0  0  0  0  0
    1.2175   -0.1545    0.7941 C   0  0  0  0  0  0  0  0  0  0  0  0
    0.6579    1.0410    1.0390 C   0  0  0  0  0  0  0  0  0  0  0  0
   -0.8125    1.2616    1.0859 C   0  0  0  0  0  0  0  0  0  0  0  0
   -1.2620    2.0399    1.9162 O   0  0  0  0  0  0  0  0  0  0  0  0
   -1.5121    0.5919    0.1030 N   0  0  0  0  0  0  0  0  0  0  0  0
   -2.8780    0.5627   -0.1249 C   0  0  0  0  0  0  0  0  0  0  0  0
   -3.7478    1.1599    0.6974 C   0  0  0  0  0  0  0  0  0  0  0  0
   -5.1915    1.1089    0.4452 C   0  0  0  0  0  0  0  0  0  0  0  0
   -5.9577    1.6110    1.2639 O   0  0  0  0  0  0  0  0  0  0  0  0
   -5.5824    0.4816   -0.7131 N   0  0  0  0  0  0  0  0  0  0  0  0
   -6.9997    0.4148   -1.0147 C   0  0  0  0  0  0  0  0  0  0  0  0
   -4.7160   -0.1975   -1.5539 C   0  0  0  0  0  0  0  0  0  0  0  0
   -5.1321   -0.8332   -2.5257 O   0  0  0  0  0  0  0  0  0  0  0  0
   -3.3545   -0.1276   -1.2367 N   0  0  0  0  0  0  0  0  0  0  0  0
   -2.4417   -0.8228   -2.1401 C   0  0  0  0  0  0  0  0  0  0  0  0
    3.5834    0.5543    0.3095 C   0  0  0  0  0  0  0  0  0  0  0  0
    4.9577    0.2796    0.2914 C   0  0  0  0  0  0  0  0  0  0  0  0
    8.6992   -0.8564    0.4590 H   0  0  0  0  0  0  0  0  0  0  0  0
    7.5756   -0.1455   -0.7061 H   0  0  0  0  0  0  0  0  0  0  0  0
    7.6928    0.5018    0.9769 H   0  0  0  0  0  0  0  0  0  0  0  0
    4.8868   -2.8614    1.5658 H   0  0  0  0  0  0  0  0  0  0  0  0
    2.4747   -2.3906    1.6047 H   0  0  0  0  0  0  0  0  0  0  0  0
    0.6035   -1.0369    0.6304 H   0  0  0  0  0  0  0  0  0  0  0  0
    1.2436    1.9129    1.3124 H   0  0  0  0  0  0  0  0  0  0  0  0
   -0.9401    0.1024   -0.5666 H   0  0  0  0  0  0  0  0  0  0  0  0
   -3.4755    1.7009    1.5934 H   0  0  0  0  0  0  0  0  0  0  0  0
   -7.1627    0.5621   -2.0871 H   0  0  0  0  0  0  0  0  0  0  0  0
   -7.5698    1.1694   -0.4659 H   0  0  0  0  0  0  0  0  0  0  0  0
   -7.3651   -0.5797   -0.7390 H   0  0  0  0  0  0  0  0  0  0  0  0
   -2.9573   -1.3257   -2.9625 H   0  0  0  0  0  0  0  0  0  0  0  0
   -1.7480   -0.0980   -2.5786 H   0  0  0  0  0  0  0  0  0  0  0  0
   -1.8902   -1.5846   -1.5793 H   0  0  0  0  0  0  0  0  0  0  0  0
    3.2448    1.5163   -0.0678 H   0  0  0  0  0  0  0  0  0  0  0  0
    5.6249    1.0461   -0.0885 H   0  0  0  0  0  0  0  0  0  0  0  0
  1  2  1  0
  2  3  1  0
  3  4  2  0
  4  5  1  0
  5  6  2  0
  6  7  1  0
  7  8  2  3
  8  9  1  0
  9 10  2  0
  9 11  1  0
 11 12  1  0
 12 13  2  0
 13 14  1  0
 14 15  2  0
 14 16  1  0
 16 17  1  0
 16 18  1  0
 18 19  2  0
 18 20  1  0
 20 21  1  0
  6 22  1  0
 22 23  2  0
 23  3  1  0
 20 12  1  0
  1 24  1  0
  1 25  1  0
  1 26  1  0
  4 27  1  0
  5 28  1  0
  7 29  1  0
  8 30  1  0
 11 31  1  0
 13 32  1  0
 17 33  1  0
 17 34  1  0
 17 35  1  0
 21 36  1  0
 21 37  1  0
 21 38  1  0
 22 39  1  0
 23 40  1  0
M  END
$$$$
