
     RDKit          3D

 68 69  0  0  0  0  0  0  0  0999 V2000
   -4.6658    0.9365    1.7600 C   0  0  0  0  0  0  0  0  0  0  0  0
   -3.9296    0.2094    0.7855 O   0  0  0  0  0  0  0  0  0  0  0  0
   -3.3165   -0.9493    1.3518 C   0  0  0  0  0  0  0  0  0  0  0  0
   -2.5533   -1.7443    0.2843 C   0  0  0  0  0  0  0  0  0  0  0  0
   -1.3170   -1.1171   -0.2360 N   0  0  0  0  0  0  0  0  0  0  0  0
   -1.2784   -0.8121   -1.5992 C   0  0  0  0  0  0  0  0  0  0  0  0
   -2.2605   -0.9423   -2.3334 O   0  0  0  0  0  0  0  0  0  0  0  0
    0.0409   -0.3276   -2.1800 C   0  0  0  0  0  0  0  0  0  0  0  0
   -0.0839    0.0308   -3.6583 C   0  0  0  0  0  0  0  0  0  0  0  0
    1.2657    0.3635   -4.2624 C   0  0  0  0  0  0  0  0  0  0  0  0
    2.2850    0.4440   -3.5854 O   0  0  0  0  0  0  0  0  0  0  0  0
    1.1843    0.5574   -5.6223 N   0  0  0  0  0  0  0  0  0  0  0  0
    2.2503    0.8255   -6.4511 C   0  0  0  0  0  0  0  0  0  0  0  0
    3.6161    0.9895   -6.1334 C   0  0  0  0  0  0  0  0  0  0  0  0
    4.2277    1.2141   -7.3416 C   0  0  0  0  0  0  0  0  0  0  0  0
    5.6190    1.4475   -7.7617 C   0  0  0  0  0  0  0  0  0  0  0  0
    3.2909    1.1934   -8.3249 O   0  0  0  0  0  0  0  0  0  0  0  0
    2.0483    0.9547   -7.7674 N   0  0  0  0  0  0  0  0  0  0  0  0
   -0.1344   -0.9766    0.6605 C   0  0  0  0  0  0  0  0  0  0  0  0
   -0.0447   -2.1013    1.7391 C   0  0  0  0  0  0  0  0  0  0  0  0
    0.2939   -3.2436    1.4285 O   0  0  0  0  0  0  0  0  0  0  0  0
   -0.4791   -1.7730    3.0118 N   0  0  0  0  0  0  0  0  0  0  0  0
   -0.4714   -2.6884    4.1642 C   0  0  0  0  0  0  0  0  0  0  0  0
   -1.3195   -3.9425    3.8911 C   0  0  0  0  0  0  0  0  0  0  0  0
   -1.0982   -1.9481    5.3612 C   0  0  0  0  0  0  0  0  0  0  0  0
    0.9669   -3.0836    4.5306 C   0  0  0  0  0  0  0  0  0  0  0  0
    0.0928    0.4397    1.2031 C   0  0  0  0  0  0  0  0  0  0  0  0
    1.2786    0.7220    1.9040 C   0  0  0  0  0  0  0  0  0  0  0  0
    1.5246    1.9997    2.4138 C   0  0  0  0  0  0  0  0  0  0  0  0
    0.6080    3.0323    2.2197 C   0  0  0  0  0  0  0  0  0  0  0  0
    0.9687    4.2321    2.7657 O   0  0  0  0  0  0  0  0  0  0  0  0
    0.1812    5.3608    2.4037 C   0  0  0  0  0  0  0  0  0  0  0  0
   -0.5632    2.7727    1.5135 C   0  0  0  0  0  0  0  0  0  0  0  0
   -0.8128    1.4917    1.0047 C   0  0  0  0  0  0  0  0  0  0  0  0
   -4.0020    1.2843    2.5568 H   0  0  0  0  0  0  0  0  0  0  0  0
   -5.4651    0.3163    2.1785 H   0  0  0  0  0  0  0  0  0  0  0  0
   -5.1168    1.8066    1.2792 H   0  0  0  0  0  0  0  0  0  0  0  0
   -4.1029   -1.5917    1.7654 H   0  0  0  0  0  0  0  0  0  0  0  0
   -2.6610   -0.6442    2.1694 H   0  0  0  0  0  0  0  0  0  0  0  0
   -3.2449   -1.9382   -0.5433 H   0  0  0  0  0  0  0  0  0  0  0  0
   -2.2820   -2.7281    0.6827 H   0  0  0  0  0  0  0  0  0  0  0  0
    0.3908    0.5476   -1.6253 H   0  0  0  0  0  0  0  0  0  0  0  0
    0.7753   -1.1346   -2.0757 H   0  0  0  0  0  0  0  0  0  0  0  0
   -0.7474    0.8947   -3.7834 H   0  0  0  0  0  0  0  0  0  0  0  0
   -0.5106   -0.8116   -4.2169 H   0  0  0  0  0  0  0  0  0  0  0  0
    0.2991    0.4729   -6.1036 H   0  0  0  0  0  0  0  0  0  0  0  0
    4.0950    0.9425   -5.1668 H   0  0  0  0  0  0  0  0  0  0  0  0
    6.0633    0.5190   -8.1318 H   0  0  0  0  0  0  0  0  0  0  0  0
    5.6677    2.1946   -8.5590 H   0  0  0  0  0  0  0  0  0  0  0  0
    6.2265    1.8064   -6.9247 H   0  0  0  0  0  0  0  0  0  0  0  0
    0.7515   -1.1658    0.0415 H   0  0  0  0  0  0  0  0  0  0  0  0
   -0.5871   -0.7858    3.2206 H   0  0  0  0  0  0  0  0  0  0  0  0
   -0.8986   -4.5630    3.0940 H   0  0  0  0  0  0  0  0  0  0  0  0
   -2.3362   -3.6671    3.5900 H   0  0  0  0  0  0  0  0  0  0  0  0
   -1.3914   -4.5762    4.7841 H   0  0  0  0  0  0  0  0  0  0  0  0
   -1.1147   -2.5793    6.2560 H   0  0  0  0  0  0  0  0  0  0  0  0
   -2.1297   -1.6471    5.1418 H   0  0  0  0  0  0  0  0  0  0  0  0
   -0.5409   -1.0351    5.6038 H   0  0  0  0  0  0  0  0  0  0  0  0
    1.4728   -3.6053    3.7089 H   0  0  0  0  0  0  0  0  0  0  0  0
    1.5671   -2.1950    4.7675 H   0  0  0  0  0  0  0  0  0  0  0  0
    0.9866   -3.7445    5.4056 H   0  0  0  0  0  0  0  0  0  0  0  0
    2.0311   -0.0504    2.0540 H   0  0  0  0  0  0  0  0  0  0  0  0
    2.4473    2.1962    2.9536 H   0  0  0  0  0  0  0  0  0  0  0  0
   -0.8272    5.2880    2.8256 H   0  0  0  0  0  0  0  0  0  0  0  0
    0.1452    5.4908    1.3162 H   0  0  0  0  0  0  0  0  0  0  0  0
    0.6574    6.2491    2.8289 H   0  0  0  0  0  0  0  0  0  0  0  0
   -1.3064    3.5423    1.3341 H   0  0  0  0  0  0  0  0  0  0  0  0
   -1.7264    1.3440    0.4326 H   0  0  0  0  0  0  0  0  0  0  0  0
  1  2  1  0
  2  3  1  0
  3  4  1  0
  4  5  1  0
  5  6  1  0
  6  7  2  0
  6  8  1  0
  8  9  1  0
  9 10  1  0
 10 11  2  0
 10 12  1  0
 12 13  1  0
 13 14  1  0
 14 15  2  0
 15 16  1  0
 15 17  1  0
 17 18  1  0
  5 19  1  0
 19 20  1  0
 20 21  2  0
 20 22  1  0
 22 23  1  0
 23 24  1  0
 23 25  1  0
 23 26  1  0
 19 27  1  0
 27 28  2  0
 28 29  1  0
 29 30  2  0
 30 31  1  0
 31 32  1  0
 30 33  1  0
 33 34  2  0
 18 13  2  0
 34 27  1  0
  1 35  1  0
  1 36  1  0
  1 37  1  0
  3 38  1  0
  3 39  1  0
  4 40  1  0
  4 41  1  0
  8 42  1  0
  8 43  1  0
  9 44  1  0
  9 45  1  0
 12 46  1  0
 14 47  1  0
 16 48  1  0
 16 49  1  0
 16 50  1  0
 19 51  1  0
 22 52  1  0
 24 53  1  0
 24 54  1  0
 24 55  1  0
 25 56  1  0
 25 57  1  0
 25 58  1  0
 26 59  1  0
 26 60  1  0
 26 61  1  0
 28 62  1  0
 29 63  1  0
 32 64  1  0
 32 65  1  0
 32 66  1  0
 33 67  1  0
 34 68  1  0
M  END
$$$$
