
     RDKit          3D

 58 63  0  0  0  0  0  0  0  0999 V2000
    6.1719    3.6752   -0.2870 C   0  0  0  0  0  0  0  0  0  0  0  0
    5.5814    2.3081   -0.3082 C   0  0  0  0  0  0  0  0  0  0  0  0
    5.9943    1.1859    0.3787 C   0  0  0  0  0  0  0  0  0  0  0  0
    5.1870    0.0494    0.0863 C   0  0  0  0  0  0  0  0  0  0  0  0
    4.1665    0.3415   -0.7998 C   0  0  0  0  0  0  0  0  0  0  0  0
    3.1392   -0.5298   -1.3507 C   0  0  0  0  0  0  0  0  0  0  0  0
    2.7985   -0.4812   -2.5336 O   0  0  0  0  0  0  0  0  0  0  0  0
    2.5342   -1.4554   -0.4781 N   0  0  0  0  0  0  0  0  0  0  0  0
    1.5968   -2.4087   -1.0558 C   0  0  0  0  0  0  0  0  0  0  0  0
    0.1817   -1.8298   -1.0541 C   0  0  0  0  0  0  0  0  0  0  0  0
   -0.2549   -1.3804    0.3676 C   0  0  0  0  0  0  0  0  0  0  0  0
    0.8503   -0.4848    1.0040 C   0  0  0  0  0  0  0  0  0  0  0  0
    2.2379   -1.1270    0.9144 C   0  0  0  0  0  0  0  0  0  0  0  0
   -0.2807   -2.5494    1.2303 O   0  0  0  0  0  0  0  0  0  0  0  0
   -1.3990   -3.3271    1.2190 C   0  0  0  0  0  0  0  0  0  0  0  0
   -1.2866   -4.5671    1.8480 C   0  0  0  0  0  0  0  0  0  0  0  0
   -2.3732   -5.4448    1.8692 C   0  0  0  0  0  0  0  0  0  0  0  0
   -3.5737   -5.0776    1.2624 C   0  0  0  0  0  0  0  0  0  0  0  0
   -4.9074   -6.1628    1.2855 Cl  0  0  0  0  0  0  0  0  0  0  0  0
   -3.6991   -3.8381    0.6418 C   0  0  0  0  0  0  0  0  0  0  0  0
   -2.6071   -2.9635    0.6347 C   0  0  0  0  0  0  0  0  0  0  0  0
   -2.7173   -1.6403    0.0053 C   0  0  0  0  0  0  0  0  0  0  0  0
   -3.6544   -1.4051   -0.7532 O   0  0  0  0  0  0  0  0  0  0  0  0
   -1.6228   -0.6403    0.3552 C   0  0  0  0  0  0  0  0  0  0  0  0
   -1.6887    0.5856   -0.5457 C   0  0  0  0  0  0  0  0  0  0  0  0
   -2.4072    1.5171    0.3672 C   0  0  0  0  0  0  0  0  0  0  0  0
   -2.9262    2.8262   -0.0976 C   0  0  0  0  0  0  0  0  0  0  0  0
   -2.7098    3.2775   -1.4056 C   0  0  0  0  0  0  0  0  0  0  0  0
   -3.2043    4.5224   -1.8076 C   0  0  0  0  0  0  0  0  0  0  0  0
   -3.9110    5.3160   -0.9051 C   0  0  0  0  0  0  0  0  0  0  0  0
   -4.5142    6.8460   -1.4042 Cl  0  0  0  0  0  0  0  0  0  0  0  0
   -4.1296    4.8765    0.3988 C   0  0  0  0  0  0  0  0  0  0  0  0
   -3.6383    3.6327    0.8023 C   0  0  0  0  0  0  0  0  0  0  0  0
   -2.5095    1.1134    1.5925 N   0  0  0  0  0  0  0  0  0  0  0  0
   -1.9150   -0.1619    1.6802 O   0  0  0  0  0  0  0  0  0  0  0  0
    4.2278    1.9777   -1.3010 S   0  0  0  0  0  0  0  0  0  0  0  0
    6.7643    3.8500   -1.1903 H   0  0  0  0  0  0  0  0  0  0  0  0
    6.8306    3.8000    0.5795 H   0  0  0  0  0  0  0  0  0  0  0  0
    5.3951    4.4439   -0.2262 H   0  0  0  0  0  0  0  0  0  0  0  0
    6.8448    1.1750    1.0517 H   0  0  0  0  0  0  0  0  0  0  0  0
    5.3499   -0.9383    0.5029 H   0  0  0  0  0  0  0  0  0  0  0  0
    1.8966   -2.6674   -2.0774 H   0  0  0  0  0  0  0  0  0  0  0  0
    1.6447   -3.3309   -0.4651 H   0  0  0  0  0  0  0  0  0  0  0  0
    0.1466   -0.9793   -1.7445 H   0  0  0  0  0  0  0  0  0  0  0  0
   -0.4959   -2.5944   -1.4502 H   0  0  0  0  0  0  0  0  0  0  0  0
    0.8924    0.4919    0.5110 H   0  0  0  0  0  0  0  0  0  0  0  0
    0.6316   -0.3075    2.0642 H   0  0  0  0  0  0  0  0  0  0  0  0
    2.9694   -0.4374    1.3398 H   0  0  0  0  0  0  0  0  0  0  0  0
    2.2858   -2.0533    1.4994 H   0  0  0  0  0  0  0  0  0  0  0  0
   -0.3501   -4.8555    2.3191 H   0  0  0  0  0  0  0  0  0  0  0  0
   -2.2763   -6.4109    2.3580 H   0  0  0  0  0  0  0  0  0  0  0  0
   -4.6380   -3.5478    0.1762 H   0  0  0  0  0  0  0  0  0  0  0  0
   -0.7127    1.0187   -0.7752 H   0  0  0  0  0  0  0  0  0  0  0  0
   -2.2281    0.4248   -1.4820 H   0  0  0  0  0  0  0  0  0  0  0  0
   -2.1595    2.6842   -2.1303 H   0  0  0  0  0  0  0  0  0  0  0  0
   -3.0338    4.8669   -2.8250 H   0  0  0  0  0  0  0  0  0  0  0  0
   -4.6791    5.4939    1.1052 H   0  0  0  0  0  0  0  0  0  0  0  0
   -3.8160    3.2973    1.8228 H   0  0  0  0  0  0  0  0  0  0  0  0
  1  2  1  0
  2  3  2  0
  3  4  1  0
  4  5  2  0
  5  6  1  0
  6  7  2  0
  6  8  1  0
  8  9  1  0
  9 10  1  0
 10 11  1  0
 11 12  1  0
 12 13  1  0
 11 14  1  0
 14 15  1  0
 15 16  2  0
 16 17  1  0
 17 18  2  0
 18 19  1  0
 18 20  1  0
 20 21  2  0
 21 22  1  0
 22 23  2  0
 22 24  1  0
 24 25  1  0
 25 26  1  0
 26 27  1  0
 27 28  2  0
 28 29  1  0
 29 30  2  0
 30 31  1  0
 30 32  1  0
 32 33  2  0
 26 34  2  0
 34 35  1  0
  5 36  1  0
 36  2  1  0
 13  8  1  0
 21 15  1  0
 35 24  1  0
 24 11  1  0
 33 27  1  0
  1 37  1  0
  1 38  1  0
  1 39  1  0
  3 40  1  0
  4 41  1  0
  9 42  1  0
  9 43  1  0
 10 44  1  0
 10 45  1  0
 12 46  1  0
 12 47  1  0
 13 48  1  0
 13 49  1  0
 16 50  1  0
 17 51  1  0
 20 52  1  0
 25 53  1  0
 25 54  1  0
 28 55  1  0
 29 56  1  0
 32 57  1  0
 33 58  1  0
M  END
$$$$
