
     RDKit          3D

 46 48  0  0  0  0  0  0  0  0999 V2000
   -3.1192    1.5561    1.0224 C   0  0  0  0  0  0  0  0  0  0  0  0
   -2.8623    0.5843   -0.1145 C   0  0  0  0  0  0  0  0  0  0  0  0
   -2.7353   -0.8065    0.4200 N   0  0  0  0  0  4  0  0  0  0  0  0
   -1.4901   -1.3070    0.6861 C   0  0  0  0  0  0  0  0  0  0  0  0
   -0.2933   -0.4663    0.5572 C   0  0  0  0  0  0  0  0  0  0  0  0
    0.6777   -0.7277   -0.3329 C   0  0  0  0  0  0  0  0  0  0  0  0
    1.8621    0.1246   -0.4950 C   0  0  0  0  0  0  0  0  0  0  0  0
    2.5470    0.6740    0.5877 C   0  0  0  0  0  0  0  0  0  0  0  0
    3.6814    1.4762    0.3839 C   0  0  0  0  0  0  0  0  0  0  0  0
    4.1928    1.7491   -0.8963 C   0  0  0  0  0  0  0  0  0  0  0  0
    5.3059    2.5713   -1.0930 N   0  0  0  0  0  0  0  0  0  0  0  0
    5.9563    2.5956   -2.4037 C   0  0  0  0  0  0  0  0  0  0  0  0
    6.1750    2.8832    0.0422 C   0  0  0  0  0  0  0  0  0  0  0  0
    3.4867    1.1753   -1.9670 C   0  0  0  0  0  0  0  0  0  0  0  0
    2.3524    0.3704   -1.7762 C   0  0  0  0  0  0  0  0  0  0  0  0
   -1.3286   -2.6224    1.1232 C   0  0  0  0  0  0  0  0  0  0  0  0
   -2.4303   -3.4389    1.2920 C   0  0  0  0  0  0  0  0  0  0  0  0
   -3.6985   -2.9338    1.0363 C   0  0  0  0  0  0  0  0  0  0  0  0
   -4.8192   -3.7579    1.2183 C   0  0  0  0  0  0  0  0  0  0  0  0
   -6.1021   -3.2750    0.9786 C   0  0  0  0  0  0  0  0  0  0  0  0
   -6.2780   -1.9641    0.5584 C   0  0  0  0  0  0  0  0  0  0  0  0
   -5.1694   -1.1311    0.3712 C   0  0  0  0  0  0  0  0  0  0  0  0
   -3.8553   -1.5894    0.5969 C   0  0  0  0  0  0  0  0  0  0  0  0
   -2.3059    1.5386    1.7538 H   0  0  0  0  0  0  0  0  0  0  0  0
   -3.2056    2.5757    0.6346 H   0  0  0  0  0  0  0  0  0  0  0  0
   -4.0434    1.3179    1.5568 H   0  0  0  0  0  0  0  0  0  0  0  0
   -1.9555    0.8528   -0.6635 H   0  0  0  0  0  0  0  0  0  0  0  0
   -3.6580    0.6049   -0.8643 H   0  0  0  0  0  0  0  0  0  0  0  0
   -0.2388    0.3985    1.2131 H   0  0  0  0  0  0  0  0  0  0  0  0
    0.6189   -1.5766   -1.0127 H   0  0  0  0  0  0  0  0  0  0  0  0
    2.2283    0.4886    1.6101 H   0  0  0  0  0  0  0  0  0  0  0  0
    4.1583    1.8834    1.2709 H   0  0  0  0  0  0  0  0  0  0  0  0
    6.3314    1.6025   -2.6744 H   0  0  0  0  0  0  0  0  0  0  0  0
    5.2715    2.9554   -3.1790 H   0  0  0  0  0  0  0  0  0  0  0  0
    6.8080    3.2851   -2.4132 H   0  0  0  0  0  0  0  0  0  0  0  0
    7.0084    3.5280   -0.2586 H   0  0  0  0  0  0  0  0  0  0  0  0
    6.6018    1.9706    0.4726 H   0  0  0  0  0  0  0  0  0  0  0  0
    5.6322    3.4370    0.8157 H   0  0  0  0  0  0  0  0  0  0  0  0
    3.8022    1.3399   -2.9934 H   0  0  0  0  0  0  0  0  0  0  0  0
    1.8617   -0.0457   -2.6532 H   0  0  0  0  0  0  0  0  0  0  0  0
   -0.3366   -3.0164    1.3425 H   0  0  0  0  0  0  0  0  0  0  0  0
   -2.2880   -4.4642    1.6328 H   0  0  0  0  0  0  0  0  0  0  0  0
   -4.7079   -4.7897    1.5525 H   0  0  0  0  0  0  0  0  0  0  0  0
   -6.9653   -3.9232    1.1245 H   0  0  0  0  0  0  0  0  0  0  0  0
   -7.2841   -1.5869    0.3779 H   0  0  0  0  0  0  0  0  0  0  0  0
   -5.3894   -0.1165    0.0543 H   0  0  0  0  0  0  0  0  0  0  0  0
  1  2  1  0
  2  3  1  0
  3  4  2  0
  4  5  1  0
  5  6  2  3
  6  7  1  0
  7  8  2  0
  8  9  1  0
  9 10  2  0
 10 11  1  0
 11 12  1  0
 11 13  1  0
 10 14  1  0
 14 15  2  0
  4 16  1  0
 16 17  2  0
 17 18  1  0
 18 19  2  0
 19 20  1  0
 20 21  2  0
 21 22  1  0
 22 23  2  0
 23  3  1  0
 15  7  1  0
 23 18  1  0
  1 24  1  0
  1 25  1  0
  1 26  1  0
  2 27  1  0
  2 28  1  0
  5 29  1  0
  6 30  1  0
  8 31  1  0
  9 32  1  0
 12 33  1  0
 12 34  1  0
 12 35  1  0
 13 36  1  0
 13 37  1  0
 13 38  1  0
 14 39  1  0
 15 40  1  0
 16 41  1  0
 17 42  1  0
 19 43  1  0
 20 44  1  0
 21 45  1  0
 22 46  1  0
M  CHG  1   3   1
M  END
$$$$
