
     RDKit          3D

 56 61  0  0  0  0  0  0  0  0999 V2000
    8.3908    0.3385    0.5333 C   0  0  0  0  0  0  0  0  0  0  0  0
    6.9106    0.1310    0.3899 C   0  0  0  0  0  0  0  0  0  0  0  0
    6.0846    0.0463    1.5140 C   0  0  0  0  0  0  0  0  0  0  0  0
    4.7043   -0.1258    1.3696 C   0  0  0  0  0  0  0  0  0  0  0  0
    4.1330   -0.2026    0.0950 C   0  0  0  0  0  0  0  0  0  0  0  0
    2.5811   -0.3907   -0.0584 C   0  0  0  0  0  0  0  0  0  0  0  0
    1.6661   -0.5853    0.9705 C   0  0  0  0  0  0  0  0  0  0  0  0
    0.3940   -0.7410    0.4200 N   0  0  0  0  0  4  0  0  0  0  0  0
   -0.8778   -0.8971    1.1495 C   0  0  0  0  0  0  0  0  0  0  0  0
   -1.6612    0.4340    1.1314 C   0  0  0  0  0  0  0  0  0  0  0  0
   -1.0218    1.4816    1.2607 O   0  0  0  0  0  0  0  0  0  0  0  0
   -3.0232    0.3370    0.7954 N   0  0  0  0  0  0  0  0  0  0  0  0
   -3.7018    1.4041    0.0969 C   0  0  0  0  0  0  0  0  0  0  0  0
   -3.3423    2.7496    0.2922 C   0  0  0  0  0  0  0  0  0  0  0  0
   -3.9843    3.7880   -0.3914 C   0  0  0  0  0  0  0  0  0  0  0  0
   -5.0005    3.5055   -1.2941 C   0  0  0  0  0  0  0  0  0  0  0  0
   -5.3759    2.1835   -1.5110 C   0  0  0  0  0  0  0  0  0  0  0  0
   -4.7379    1.1386   -0.8213 C   0  0  0  0  0  0  0  0  0  0  0  0
   -5.2251   -0.5222   -1.2340 S   0  0  0  0  0  0  0  0  0  0  0  0
   -4.8407   -1.2971    0.3119 C   0  0  0  0  0  0  0  0  0  0  0  0
   -5.5663   -2.4400    0.6761 C   0  0  0  0  0  0  0  0  0  0  0  0
   -5.3052   -3.0918    1.8788 C   0  0  0  0  0  0  0  0  0  0  0  0
   -4.3256   -2.5981    2.7308 C   0  0  0  0  0  0  0  0  0  0  0  0
   -3.5906   -1.4669    2.3680 C   0  0  0  0  0  0  0  0  0  0  0  0
   -3.8145   -0.8149    1.1388 C   0  0  0  0  0  0  0  0  0  0  0  0
    0.5095   -0.5904   -0.8942 C   0  0  0  0  0  0  0  0  0  0  0  0
    1.7897   -0.4005   -1.1945 N   0  0  0  0  0  0  0  0  0  0  0  0
    1.9868   -0.1914   -2.6215 C   0  0  0  0  0  0  0  0  0  0  0  0
    0.5449    0.0172   -3.1619 C   0  0  0  0  0  0  0  0  0  0  0  0
   -0.3811   -0.5666   -2.0770 C   0  0  0  0  0  0  0  0  0  0  0  0
    4.9540   -0.1151   -1.0294 C   0  0  0  0  0  0  0  0  0  0  0  0
    6.3342    0.0542   -0.8814 C   0  0  0  0  0  0  0  0  0  0  0  0
    8.7203    0.1713    1.5646 H   0  0  0  0  0  0  0  0  0  0  0  0
    8.6540    1.3626    0.2503 H   0  0  0  0  0  0  0  0  0  0  0  0
    8.9377   -0.3637   -0.1054 H   0  0  0  0  0  0  0  0  0  0  0  0
    6.5124    0.1170    2.5135 H   0  0  0  0  0  0  0  0  0  0  0  0
    4.1073   -0.1830    2.2749 H   0  0  0  0  0  0  0  0  0  0  0  0
    1.7614   -0.6373    2.0422 H   0  0  0  0  0  0  0  0  0  0  0  0
   -1.4155   -1.7076    0.6513 H   0  0  0  0  0  0  0  0  0  0  0  0
   -0.6620   -1.1763    2.1853 H   0  0  0  0  0  0  0  0  0  0  0  0
   -2.5900    3.0421    1.0195 H   0  0  0  0  0  0  0  0  0  0  0  0
   -3.6946    4.8205   -0.2048 H   0  0  0  0  0  0  0  0  0  0  0  0
   -5.5039    4.3118   -1.8229 H   0  0  0  0  0  0  0  0  0  0  0  0
   -6.1713    1.9736   -2.2243 H   0  0  0  0  0  0  0  0  0  0  0  0
   -6.3512   -2.8268    0.0276 H   0  0  0  0  0  0  0  0  0  0  0  0
   -5.8848   -3.9693    2.1594 H   0  0  0  0  0  0  0  0  0  0  0  0
   -4.1499   -3.0826    3.6906 H   0  0  0  0  0  0  0  0  0  0  0  0
   -2.8851   -1.0744    3.0972 H   0  0  0  0  0  0  0  0  0  0  0  0
    2.6053    0.6890   -2.8089 H   0  0  0  0  0  0  0  0  0  0  0  0
    2.4428   -1.0892   -3.0490 H   0  0  0  0  0  0  0  0  0  0  0  0
    0.3904   -0.4371   -4.1435 H   0  0  0  0  0  0  0  0  0  0  0  0
    0.3537    1.0924   -3.2550 H   0  0  0  0  0  0  0  0  0  0  0  0
   -0.6634   -1.6025   -2.2763 H   0  0  0  0  0  0  0  0  0  0  0  0
   -1.2476    0.0602   -1.8643 H   0  0  0  0  0  0  0  0  0  0  0  0
    4.5631   -0.1872   -2.0363 H   0  0  0  0  0  0  0  0  0  0  0  0
    6.9631    0.1250   -1.7677 H   0  0  0  0  0  0  0  0  0  0  0  0
  1  2  1  0
  2  3  2  0
  3  4  1  0
  4  5  2  0
  5  6  1  0
  6  7  2  0
  7  8  1  0
  8  9  1  0
  9 10  1  0
 10 11  2  0
 10 12  1  0
 12 13  1  0
 13 14  2  0
 14 15  1  0
 15 16  2  0
 16 17  1  0
 17 18  2  0
 18 19  1  0
 19 20  1  0
 20 21  2  0
 21 22  1  0
 22 23  2  0
 23 24  1  0
 24 25  2  0
  8 26  2  0
 26 27  1  0
 27 28  1  0
 28 29  1  0
 29 30  1  0
  5 31  1  0
 31 32  2  0
 32  2  1  0
 27  6  1  0
 25 12  1  0
 30 26  1  0
 18 13  1  0
 25 20  1  0
  1 33  1  0
  1 34  1  0
  1 35  1  0
  3 36  1  0
  4 37  1  0
  7 38  1  0
  9 39  1  0
  9 40  1  0
 14 41  1  0
 15 42  1  0
 16 43  1  0
 17 44  1  0
 21 45  1  0
 22 46  1  0
 23 47  1  0
 24 48  1  0
 28 49  1  0
 28 50  1  0
 29 51  1  0
 29 52  1  0
 30 53  1  0
 30 54  1  0
 31 55  1  0
 32 56  1  0
M  CHG  1   8   1
M  END
$$$$
