
     RDKit          3D

 38 39  0  0  0  0  0  0  0  0999 V2000
   -5.8345    1.3670    1.6708 C   0  0  0  0  0  0  0  0  0  0  0  0
   -4.6797    1.2030    1.0120 C   0  0  0  0  0  0  0  0  0  0  0  0
   -3.3597    1.7635    1.4606 C   0  0  0  0  0  0  0  0  0  0  0  0
   -2.3222    0.6868    1.6718 C   0  0  0  0  0  0  0  0  0  0  0  0
   -2.2834   -0.0340    2.8693 C   0  0  0  0  0  0  0  0  0  0  0  0
   -1.3402   -1.0427    3.0482 C   0  0  0  0  0  0  0  0  0  0  0  0
   -0.4345   -1.3432    2.0304 C   0  0  0  0  0  0  0  0  0  0  0  0
    0.4280   -2.3739    2.2954 O   0  0  0  0  0  0  0  0  0  0  0  0
   -0.4209   -0.6333    0.8161 C   0  0  0  0  0  0  0  0  0  0  0  0
    0.5693   -0.8573   -0.2675 C   0  0  0  0  0  0  0  0  0  0  0  0
    1.3007    0.2363   -0.7762 C   0  0  0  0  0  0  0  0  0  0  0  0
    2.2226    0.0942   -1.8278 C   0  0  0  0  0  0  0  0  0  0  0  0
    3.0013    1.2862   -2.3327 C   0  0  0  0  0  0  0  0  0  0  0  0
    4.3754    1.3645   -1.7301 C   0  0  0  0  0  0  0  0  0  0  0  0
    5.5137    1.3529   -2.4363 C   0  0  0  0  0  0  0  0  0  0  0  0
    2.4328   -1.1745   -2.3775 C   0  0  0  0  0  0  0  0  0  0  0  0
    1.7344   -2.2769   -1.8894 C   0  0  0  0  0  0  0  0  0  0  0  0
    0.8185   -2.1131   -0.8475 C   0  0  0  0  0  0  0  0  0  0  0  0
    0.1729   -3.2193   -0.3564 O   0  0  0  0  0  0  0  0  0  0  0  0
   -1.3964    0.3756    0.6597 C   0  0  0  0  0  0  0  0  0  0  0  0
   -6.7549    0.9329    1.2920 H   0  0  0  0  0  0  0  0  0  0  0  0
   -5.8892    1.9284    2.5982 H   0  0  0  0  0  0  0  0  0  0  0  0
   -4.6782    0.6300    0.0867 H   0  0  0  0  0  0  0  0  0  0  0  0
   -3.0044    2.4753    0.7050 H   0  0  0  0  0  0  0  0  0  0  0  0
   -3.4676    2.3431    2.3864 H   0  0  0  0  0  0  0  0  0  0  0  0
   -2.9940    0.1791    3.6643 H   0  0  0  0  0  0  0  0  0  0  0  0
   -1.3161   -1.6085    3.9753 H   0  0  0  0  0  0  0  0  0  0  0  0
    0.6264   -2.7830    1.4308 H   0  0  0  0  0  0  0  0  0  0  0  0
    1.1567    1.2219   -0.3338 H   0  0  0  0  0  0  0  0  0  0  0  0
    3.0491    1.2429   -3.4284 H   0  0  0  0  0  0  0  0  0  0  0  0
    2.4593    2.2101   -2.0953 H   0  0  0  0  0  0  0  0  0  0  0  0
    4.4296    1.4402   -0.6455 H   0  0  0  0  0  0  0  0  0  0  0  0
    5.5151    1.2812   -3.5193 H   0  0  0  0  0  0  0  0  0  0  0  0
    6.4757    1.4138   -1.9363 H   0  0  0  0  0  0  0  0  0  0  0  0
    3.1554   -1.3098   -3.1795 H   0  0  0  0  0  0  0  0  0  0  0  0
    1.9294   -3.2550   -2.3186 H   0  0  0  0  0  0  0  0  0  0  0  0
    0.2488   -3.9358   -1.0103 H   0  0  0  0  0  0  0  0  0  0  0  0
   -1.4391    0.9315   -0.2763 H   0  0  0  0  0  0  0  0  0  0  0  0
  1  2  2  0
  2  3  1  0
  3  4  1  0
  4  5  2  0
  5  6  1  0
  6  7  2  0
  7  8  1  0
  7  9  1  0
  9 10  1  0
 10 11  2  0
 11 12  1  0
 12 13  1  0
 13 14  1  0
 14 15  2  0
 12 16  2  0
 16 17  1  0
 17 18  2  0
 18 19  1  0
  9 20  2  0
 20  4  1  0
 18 10  1  0
  1 21  1  0
  1 22  1  0
  2 23  1  0
  3 24  1  0
  3 25  1  0
  5 26  1  0
  6 27  1  0
  8 28  1  0
 11 29  1  0
 13 30  1  0
 13 31  1  0
 14 32  1  0
 15 33  1  0
 15 34  1  0
 16 35  1  0
 17 36  1  0
 19 37  1  0
 20 38  1  0
M  END
$$$$
