
     RDKit          3D

 32 33  0  0  0  0  0  0  0  0999 V2000
    5.5633   -0.4197   -0.0232 C   0  0  0  0  0  0  0  0  0  0  0  0
    4.1607   -0.8306   -0.4357 C   0  0  0  0  0  0  0  0  0  0  0  0
    2.9343    0.1415    0.4849 S   0  0  0  0  0  0  0  0  0  0  0  0
    1.4280   -0.4609   -0.1338 C   0  0  0  0  0  0  0  0  0  0  0  0
    1.1287   -1.4432   -1.0476 C   0  0  0  0  0  0  0  0  0  0  0  0
   -0.2238   -1.5718   -1.2058 N   0  0  0  0  0  0  0  0  0  0  0  0
   -0.7722   -0.6682   -0.4148 C   0  0  0  0  0  0  0  0  0  0  0  0
   -2.2112   -0.4690   -0.2628 C   0  0  0  0  0  0  0  0  0  0  0  0
   -2.8429    0.6552   -0.8075 C   0  0  0  0  0  0  0  0  0  0  0  0
   -4.2181    0.8376   -0.6470 C   0  0  0  0  0  0  0  0  0  0  0  0
   -4.9705   -0.1073    0.0499 C   0  0  0  0  0  0  0  0  0  0  0  0
   -4.3519   -1.2394    0.5789 C   0  0  0  0  0  0  0  0  0  0  0  0
   -2.9771   -1.4223    0.4186 C   0  0  0  0  0  0  0  0  0  0  0  0
    0.2073    0.0317    0.2735 N   0  0  0  0  0  0  0  0  0  0  0  0
   -0.0353    1.0400    1.2922 C   0  0  0  0  0  0  0  0  0  0  0  0
    0.0671    2.4604    0.7608 C   0  0  0  0  0  0  0  0  0  0  0  0
    5.7370   -0.5958    1.0438 H   0  0  0  0  0  0  0  0  0  0  0  0
    5.7526    0.6376   -0.2379 H   0  0  0  0  0  0  0  0  0  0  0  0
    6.3015   -1.0070   -0.5795 H   0  0  0  0  0  0  0  0  0  0  0  0
    4.0306   -0.6630   -1.5097 H   0  0  0  0  0  0  0  0  0  0  0  0
    4.0151   -1.8956   -0.2286 H   0  0  0  0  0  0  0  0  0  0  0  0
    1.8085   -2.0761   -1.6014 H   0  0  0  0  0  0  0  0  0  0  0  0
   -2.2705    1.3847   -1.3749 H   0  0  0  0  0  0  0  0  0  0  0  0
   -4.7038    1.7105   -1.0754 H   0  0  0  0  0  0  0  0  0  0  0  0
   -6.0421    0.0316    0.1690 H   0  0  0  0  0  0  0  0  0  0  0  0
   -4.9399   -1.9845    1.1083 H   0  0  0  0  0  0  0  0  0  0  0  0
   -2.5019   -2.3148    0.8204 H   0  0  0  0  0  0  0  0  0  0  0  0
   -1.0281    0.8699    1.7213 H   0  0  0  0  0  0  0  0  0  0  0  0
    0.6773    0.8795    2.1082 H   0  0  0  0  0  0  0  0  0  0  0  0
   -0.6516    2.6394   -0.0441 H   0  0  0  0  0  0  0  0  0  0  0  0
    1.0648    2.6715    0.3639 H   0  0  0  0  0  0  0  0  0  0  0  0
   -0.1359    3.1778    1.5620 H   0  0  0  0  0  0  0  0  0  0  0  0
  1  2  1  0
  2  3  1  0
  3  4  1  0
  4  5  2  0
  5  6  1  0
  6  7  2  0
  7  8  1  0
  8  9  2  0
  9 10  1  0
 10 11  2  0
 11 12  1  0
 12 13  2  0
  7 14  1  0
 14 15  1  0
 15 16  1  0
 14  4  1  0
 13  8  1  0
  1 17  1  0
  1 18  1  0
  1 19  1  0
  2 20  1  0
  2 21  1  0
  5 22  1  0
  9 23  1  0
 10 24  1  0
 11 25  1  0
 12 26  1  0
 13 27  1  0
 15 28  1  0
 15 29  1  0
 16 30  1  0
 16 31  1  0
 16 32  1  0
M  END
$$$$
