
     RDKit          3D

 60 65  0  0  0  0  0  0  0  0999 V2000
   -0.5900   -1.0284    3.1962 O   0  0  0  0  0  0  0  0  0  0  0  0
    0.3634   -1.2038    2.4471 C   0  0  0  0  0  0  0  0  0  0  0  0
    0.2143   -1.5218    1.1001 N   0  0  0  0  0  0  0  0  0  0  0  0
    1.2705   -1.7379    0.2232 C   0  0  0  0  0  0  0  0  0  0  0  0
    0.9406   -2.0333   -1.2404 C   0  0  0  0  0  0  0  0  0  0  0  0
    0.5290   -0.7525   -1.9797 C   0  0  0  0  0  0  0  0  0  0  0  0
   -0.9491   -0.4131   -1.8335 C   0  0  0  0  0  0  0  0  0  0  0  0
   -1.8389   -1.5863   -2.0577 N   0  0  0  0  0  0  0  0  0  0  0  0
   -3.1001   -1.7947   -0.9233 S   0  0  0  0  0  6  0  0  0  0  0  0
   -2.4461   -1.8299    0.3706 O   0  0  0  0  0  0  0  0  0  0  0  0
   -3.9487   -2.8760   -1.3694 O   0  0  0  0  0  0  0  0  0  0  0  0
   -4.0161   -0.2873   -1.0722 C   0  0  0  0  0  0  0  0  0  0  0  0
   -4.7091   -0.0318   -2.2612 C   0  0  0  0  0  0  0  0  0  0  0  0
   -5.4338    1.1531   -2.3925 C   0  0  0  0  0  0  0  0  0  0  0  0
   -5.4660    2.0669   -1.3392 C   0  0  0  0  0  0  0  0  0  0  0  0
   -4.7539    1.8110   -0.1605 C   0  0  0  0  0  0  0  0  0  0  0  0
   -4.0419    0.6233   -0.0132 C   0  0  0  0  0  0  0  0  0  0  0  0
   -4.7161    2.6823    0.8971 O   0  0  0  0  0  0  0  0  0  0  0  0
   -5.1886    3.9821    0.5251 C   0  0  0  0  0  0  0  0  0  0  0  0
   -6.4637    3.8764   -0.2943 C   0  0  0  0  0  0  0  0  0  0  0  0
   -6.2130    3.2006   -1.5324 O   0  0  0  0  0  0  0  0  0  0  0  0
   -1.1393   -2.8373   -2.4415 C   0  0  0  0  0  0  0  0  0  0  0  0
   -0.0540   -3.1837   -1.4307 C   0  0  0  0  0  0  0  0  0  0  0  0
    2.5291   -1.6524    0.5646 N   0  0  0  0  0  0  0  0  0  0  0  0
    2.7034   -1.3356    1.8704 C   0  0  0  0  0  0  0  0  0  0  0  0
    1.7460   -1.1061    2.8269 C   0  0  0  0  0  0  0  0  0  0  0  0
    2.3240   -0.8147    4.0238 N   0  0  0  0  0  0  0  0  0  0  0  0
    3.6446   -0.8521    3.8458 N   0  0  0  0  0  0  0  0  0  0  0  0
    3.8764   -1.1512    2.5441 N   0  0  0  0  0  0  0  0  0  0  0  0
    5.2270   -1.2841    2.0421 C   0  0  0  0  0  0  0  0  0  0  0  0
    5.7142    0.0010    1.4207 C   0  0  0  0  0  0  0  0  0  0  0  0
    5.5848    0.2219    0.0393 C   0  0  0  0  0  0  0  0  0  0  0  0
    6.0231    1.4178   -0.5355 C   0  0  0  0  0  0  0  0  0  0  0  0
    6.5912    2.4064    0.2651 C   0  0  0  0  0  0  0  0  0  0  0  0
    6.7116    2.1942    1.6333 C   0  0  0  0  0  0  0  0  0  0  0  0
    7.2539    3.1473    2.4021 F   0  0  0  0  0  0  0  0  0  0  0  0
    6.2779    1.0084    2.2173 C   0  0  0  0  0  0  0  0  0  0  0  0
   -0.7579   -1.6528    0.8246 H   0  0  0  0  0  0  0  0  0  0  0  0
    1.8905   -2.3555   -1.6931 H   0  0  0  0  0  0  0  0  0  0  0  0
    0.7544   -0.8793   -3.0473 H   0  0  0  0  0  0  0  0  0  0  0  0
    1.1320    0.1006   -1.6447 H   0  0  0  0  0  0  0  0  0  0  0  0
   -1.2190    0.3579   -2.5644 H   0  0  0  0  0  0  0  0  0  0  0  0
   -1.1124    0.0265   -0.8448 H   0  0  0  0  0  0  0  0  0  0  0  0
   -4.6923   -0.7514   -3.0772 H   0  0  0  0  0  0  0  0  0  0  0  0
   -5.9842    1.3591   -3.3070 H   0  0  0  0  0  0  0  0  0  0  0  0
   -3.5116    0.4262    0.9156 H   0  0  0  0  0  0  0  0  0  0  0  0
   -5.3749    4.5432    1.4461 H   0  0  0  0  0  0  0  0  0  0  0  0
   -4.3948    4.4940   -0.0327 H   0  0  0  0  0  0  0  0  0  0  0  0
   -7.2465    3.3323    0.2484 H   0  0  0  0  0  0  0  0  0  0  0  0
   -6.8442    4.8743   -0.5332 H   0  0  0  0  0  0  0  0  0  0  0  0
   -1.8465   -3.6678   -2.5381 H   0  0  0  0  0  0  0  0  0  0  0  0
   -0.7112   -2.7049   -3.4429 H   0  0  0  0  0  0  0  0  0  0  0  0
   -0.5062   -3.4938   -0.4829 H   0  0  0  0  0  0  0  0  0  0  0  0
    0.4884   -4.0671   -1.7915 H   0  0  0  0  0  0  0  0  0  0  0  0
    5.2409   -2.1044    1.3152 H   0  0  0  0  0  0  0  0  0  0  0  0
    5.8753   -1.5848    2.8735 H   0  0  0  0  0  0  0  0  0  0  0  0
    5.1326   -0.5369   -0.5981 H   0  0  0  0  0  0  0  0  0  0  0  0
    5.9183    1.5788   -1.6056 H   0  0  0  0  0  0  0  0  0  0  0  0
    6.9356    3.3411   -0.1651 H   0  0  0  0  0  0  0  0  0  0  0  0
    6.3774    0.8859    3.2930 H   0  0  0  0  0  0  0  0  0  0  0  0
  1  2  2  0
  2  3  1  0
  3  4  1  0
  4  5  1  0
  5  6  1  0
  6  7  1  0
  7  8  1  0
  8  9  1  0
  9 10  2  0
  9 11  2  0
  9 12  1  0
 12 13  2  0
 13 14  1  0
 14 15  2  0
 15 16  1  0
 16 17  2  0
 16 18  1  0
 18 19  1  0
 19 20  1  0
 20 21  1  0
  8 22  1  0
 22 23  1  0
  4 24  2  0
 24 25  1  0
 25 26  2  0
 26 27  1  0
 27 28  2  0
 28 29  1  0
 29 30  1  0
 30 31  1  0
 31 32  2  0
 32 33  1  0
 33 34  2  0
 34 35  1  0
 35 36  1  0
 35 37  2  0
 26  2  1  0
 37 31  1  0
 23  5  1  0
 29 25  1  0
 17 12  1  0
 21 15  1  0
  3 38  1  0
  5 39  1  0
  6 40  1  0
  6 41  1  0
  7 42  1  0
  7 43  1  0
 13 44  1  0
 14 45  1  0
 17 46  1  0
 19 47  1  0
 19 48  1  0
 20 49  1  0
 20 50  1  0
 22 51  1  0
 22 52  1  0
 23 53  1  0
 23 54  1  0
 30 55  1  0
 30 56  1  0
 32 57  1  0
 33 58  1  0
 34 59  1  0
 37 60  1  0
M  END
$$$$
