
     RDKit          3D

 58 62  0  0  0  0  0  0  0  0999 V2000
    7.7231   -0.8239    2.4264 C   0  0  0  0  0  0  0  0  0  0  0  0
    6.6378   -0.3895    3.2302 O   0  0  0  0  0  0  0  0  0  0  0  0
    5.5003    0.0313    2.5894 C   0  0  0  0  0  0  0  0  0  0  0  0
    5.3374    0.0534    1.2018 C   0  0  0  0  0  0  0  0  0  0  0  0
    4.1350    0.4919    0.6404 C   0  0  0  0  0  0  0  0  0  0  0  0
    3.0762    0.9217    1.4505 C   0  0  0  0  0  0  0  0  0  0  0  0
    1.8294    1.3592    0.8292 C   0  0  0  0  0  0  0  0  0  0  0  0
    1.4645    1.3036   -0.4380 N   0  0  0  0  0  0  0  0  0  0  0  0
    0.1816    1.8177   -0.4539 C   0  0  0  0  0  0  0  0  0  0  0  0
   -0.5725    1.8925   -1.7339 C   0  0  0  0  0  0  0  0  0  0  0  0
   -1.9238    1.3677   -1.6123 N   0  0  0  0  0  0  0  0  0  0  0  0
   -2.3008    0.0497   -1.5232 C   0  0  0  0  0  0  0  0  0  0  0  0
   -1.1635   -1.2559   -1.5225 S   0  0  0  0  0  0  0  0  0  0  0  0
   -2.2196   -2.6861   -1.1722 C   0  0  0  0  0  0  0  0  0  0  0  0
   -2.6562   -3.4018   -2.4257 C   0  0  0  0  0  0  0  0  0  0  0  0
   -3.8649   -3.0690   -3.0582 C   0  0  0  0  0  0  0  0  0  0  0  0
   -4.2638   -3.7241   -4.2266 C   0  0  0  0  0  0  0  0  0  0  0  0
   -3.4558   -4.7179   -4.7763 C   0  0  0  0  0  0  0  0  0  0  0  0
   -2.2547   -5.0460   -4.1541 C   0  0  0  0  0  0  0  0  0  0  0  0
   -1.4738   -5.9972   -4.6831 F   0  0  0  0  0  0  0  0  0  0  0  0
   -1.8476   -4.3984   -2.9934 C   0  0  0  0  0  0  0  0  0  0  0  0
   -3.6036   -0.0798   -1.4196 N   0  0  0  0  0  0  0  0  0  0  0  0
   -4.1027    1.1954   -1.4705 C   0  0  0  0  0  0  0  0  0  0  0  0
   -5.4272    1.6273   -1.4082 C   0  0  0  0  0  0  0  0  0  0  0  0
   -5.6151    2.9965   -1.4763 C   0  0  0  0  0  0  0  0  0  0  0  0
   -4.6204    3.9093   -1.6021 N   0  0  0  0  0  0  0  0  0  0  0  0
   -3.3364    3.4878   -1.6712 C   0  0  0  0  0  0  0  0  0  0  0  0
   -3.0770    2.1262   -1.5994 C   0  0  0  0  0  0  0  0  0  0  0  0
   -0.1607    2.2123    0.8238 C   0  0  0  0  0  0  0  0  0  0  0  0
   -1.3403    2.8382    1.4513 C   0  0  0  0  0  0  0  0  0  0  0  0
    0.8856    1.9104    1.6503 O   0  0  0  0  0  0  0  0  0  0  0  0
    3.2456    0.9023    2.8436 C   0  0  0  0  0  0  0  0  0  0  0  0
    4.4438    0.4577    3.4183 C   0  0  0  0  0  0  0  0  0  0  0  0
    4.6804    0.4019    4.7699 O   0  0  0  0  0  0  0  0  0  0  0  0
    3.6111    0.7332    5.6430 C   0  0  0  0  0  0  0  0  0  0  0  0
    8.0939   -0.0130    1.7912 H   0  0  0  0  0  0  0  0  0  0  0  0
    8.5358   -1.1211    3.0957 H   0  0  0  0  0  0  0  0  0  0  0  0
    7.4470   -1.6990    1.8305 H   0  0  0  0  0  0  0  0  0  0  0  0
    6.1229   -0.2684    0.5266 H   0  0  0  0  0  0  0  0  0  0  0  0
    4.0264    0.4964   -0.4434 H   0  0  0  0  0  0  0  0  0  0  0  0
   -0.0694    1.3295   -2.5276 H   0  0  0  0  0  0  0  0  0  0  0  0
   -0.6280    2.9323   -2.0685 H   0  0  0  0  0  0  0  0  0  0  0  0
   -1.6341   -3.3794   -0.5599 H   0  0  0  0  0  0  0  0  0  0  0  0
   -3.0829   -2.4142   -0.5536 H   0  0  0  0  0  0  0  0  0  0  0  0
   -4.5016   -2.2872   -2.6448 H   0  0  0  0  0  0  0  0  0  0  0  0
   -5.1990   -3.4559   -4.7056 H   0  0  0  0  0  0  0  0  0  0  0  0
   -3.7512   -5.2332   -5.6877 H   0  0  0  0  0  0  0  0  0  0  0  0
   -0.8991   -4.6751   -2.5460 H   0  0  0  0  0  0  0  0  0  0  0  0
   -6.2517    0.9347   -1.3097 H   0  0  0  0  0  0  0  0  0  0  0  0
   -6.6178    3.4149   -1.4290 H   0  0  0  0  0  0  0  0  0  0  0  0
   -2.5765    4.2521   -1.7650 H   0  0  0  0  0  0  0  0  0  0  0  0
   -2.1990    2.1617    1.4147 H   0  0  0  0  0  0  0  0  0  0  0  0
   -1.6018    3.7660    0.9337 H   0  0  0  0  0  0  0  0  0  0  0  0
   -1.1480    3.0843    2.5024 H   0  0  0  0  0  0  0  0  0  0  0  0
    2.4228    1.2319    3.4677 H   0  0  0  0  0  0  0  0  0  0  0  0
    3.9590    0.5898    6.6719 H   0  0  0  0  0  0  0  0  0  0  0  0
    2.7538    0.0706    5.4887 H   0  0  0  0  0  0  0  0  0  0  0  0
    3.3274    1.7849    5.5320 H   0  0  0  0  0  0  0  0  0  0  0  0
  1  2  1  0
  2  3  1  0
  3  4  2  0
  4  5  1  0
  5  6  2  0
  6  7  1  0
  7  8  2  0
  8  9  1  0
  9 10  1  0
 10 11  1  0
 11 12  1  0
 12 13  1  0
 13 14  1  0
 14 15  1  0
 15 16  2  0
 16 17  1  0
 17 18  2  0
 18 19  1  0
 19 20  1  0
 19 21  2  0
 12 22  2  0
 22 23  1  0
 23 24  2  0
 24 25  1  0
 25 26  2  0
 26 27  1  0
 27 28  2  0
  9 29  2  0
 29 30  1  0
 29 31  1  0
  6 32  1  0
 32 33  2  0
 33 34  1  0
 34 35  1  0
 33  3  1  0
 31  7  1  0
 28 11  1  0
 21 15  1  0
 28 23  1  0
  1 36  1  0
  1 37  1  0
  1 38  1  0
  4 39  1  0
  5 40  1  0
 10 41  1  0
 10 42  1  0
 14 43  1  0
 14 44  1  0
 16 45  1  0
 17 46  1  0
 18 47  1  0
 21 48  1  0
 24 49  1  0
 25 50  1  0
 27 51  1  0
 30 52  1  0
 30 53  1  0
 30 54  1  0
 32 55  1  0
 35 56  1  0
 35 57  1  0
 35 58  1  0
M  END
$$$$
