
     RDKit          3D

 36 35  0  0  0  0  0  0  0  0999 V2000
    2.7018   -2.9224   -2.4563 C   0  0  0  0  0  0  0  0  0  0  0  0
    1.6381   -2.2774   -1.5775 C   0  0  0  0  0  0  0  0  0  0  0  0
    1.9339   -0.8640   -1.2759 N   0  0  0  0  0  0  0  0  0  0  0  0
    2.8337   -0.6608   -0.1241 C   0  0  0  0  0  0  0  0  0  0  0  0
    2.0860   -0.6493    1.1991 C   0  0  0  0  0  0  0  0  0  0  0  0
    1.4513    0.1831   -2.0935 C   0  0  0  0  0  0  0  0  0  0  0  0
    0.6671   -0.0429   -3.5765 S   0  0  0  0  0  0  0  0  0  0  0  0
    1.7711    1.8410   -1.5351 S   0  0  0  0  0  0  0  0  0  0  0  0
   -0.1179    2.6500   -1.2975 S   0  0  0  0  0  0  0  0  0  0  0  0
   -0.4824    2.2682    0.3976 C   0  0  0  0  0  0  0  0  0  0  0  0
    0.2169    3.2376    1.5932 S   0  0  0  0  0  0  0  0  0  0  0  0
   -1.3639    1.1897    0.6378 N   0  0  0  0  0  0  0  0  0  0  0  0
   -1.6403    0.7164    2.0077 C   0  0  0  0  0  0  0  0  0  0  0  0
   -2.8556    1.3731    2.6438 C   0  0  0  0  0  0  0  0  0  0  0  0
   -2.1573    0.5406   -0.4229 C   0  0  0  0  0  0  0  0  0  0  0  0
   -3.3717    1.3522   -0.8534 C   0  0  0  0  0  0  0  0  0  0  0  0
    3.6811   -2.9109   -1.9676 H   0  0  0  0  0  0  0  0  0  0  0  0
    2.4400   -3.9654   -2.6611 H   0  0  0  0  0  0  0  0  0  0  0  0
    2.8056   -2.4030   -3.4135 H   0  0  0  0  0  0  0  0  0  0  0  0
    0.6580   -2.3661   -2.0557 H   0  0  0  0  0  0  0  0  0  0  0  0
    1.5610   -2.8263   -0.6322 H   0  0  0  0  0  0  0  0  0  0  0  0
    3.5715   -1.4710   -0.1170 H   0  0  0  0  0  0  0  0  0  0  0  0
    3.4111    0.2602   -0.2337 H   0  0  0  0  0  0  0  0  0  0  0  0
    2.7843   -0.5027    2.0286 H   0  0  0  0  0  0  0  0  0  0  0  0
    1.3491    0.1536    1.2291 H   0  0  0  0  0  0  0  0  0  0  0  0
    1.5549   -1.5910    1.3666 H   0  0  0  0  0  0  0  0  0  0  0  0
   -1.7746   -0.3714    1.9787 H   0  0  0  0  0  0  0  0  0  0  0  0
   -0.7659    0.8833    2.6437 H   0  0  0  0  0  0  0  0  0  0  0  0
   -2.7954    2.4646    2.6041 H   0  0  0  0  0  0  0  0  0  0  0  0
   -3.7778    1.0674    2.1423 H   0  0  0  0  0  0  0  0  0  0  0  0
   -2.9383    1.0721    3.6931 H   0  0  0  0  0  0  0  0  0  0  0  0
   -2.4838   -0.4448   -0.0713 H   0  0  0  0  0  0  0  0  0  0  0  0
   -1.5217    0.3470   -1.2883 H   0  0  0  0  0  0  0  0  0  0  0  0
   -3.0943    2.3454   -1.2168 H   0  0  0  0  0  0  0  0  0  0  0  0
   -3.9002    0.8334   -1.6593 H   0  0  0  0  0  0  0  0  0  0  0  0
   -4.0752    1.4906   -0.0288 H   0  0  0  0  0  0  0  0  0  0  0  0
  1  2  1  0
  2  3  1  0
  3  4  1  0
  4  5  1  0
  3  6  1  0
  6  7  2  0
  6  8  1  0
  8  9  1  0
  9 10  1  0
 10 11  2  0
 10 12  1  0
 12 13  1  0
 13 14  1  0
 12 15  1  0
 15 16  1  0
  1 17  1  0
  1 18  1  0
  1 19  1  0
  2 20  1  0
  2 21  1  0
  4 22  1  0
  4 23  1  0
  5 24  1  0
  5 25  1  0
  5 26  1  0
 13 27  1  0
 13 28  1  0
 14 29  1  0
 14 30  1  0
 14 31  1  0
 15 32  1  0
 15 33  1  0
 16 34  1  0
 16 35  1  0
 16 36  1  0
M  END
$$$$
