
     RDKit          3D

 61 66  0  0  0  0  0  0  0  0999 V2000
    2.2111    3.8491   -2.3001 F   0  0  0  0  0  0  0  0  0  0  0  0
    3.5100    3.4603   -2.4309 C   0  0  0  0  0  0  0  0  0  0  0  0
    3.5854    2.8121   -3.6266 F   0  0  0  0  0  0  0  0  0  0  0  0
    4.2311    4.6057   -2.5832 F   0  0  0  0  0  0  0  0  0  0  0  0
    3.9772    2.6241   -1.2643 C   0  0  0  0  0  0  0  0  0  0  0  0
    4.2105    3.2254   -0.0198 C   0  0  0  0  0  0  0  0  0  0  0  0
    4.6335    2.4596    1.0655 C   0  0  0  0  0  0  0  0  0  0  0  0
    4.8156    1.0842    0.9229 C   0  0  0  0  0  0  0  0  0  0  0  0
    4.5711    0.4511   -0.3039 C   0  0  0  0  0  0  0  0  0  0  0  0
    4.7630   -1.0465   -0.4509 C   0  0  0  0  0  0  0  0  0  0  0  0
    3.5904   -1.8908   -0.2129 N   0  0  0  0  0  0  0  0  0  0  0  0
    2.4783   -1.7307   -1.1604 C   0  0  0  0  0  0  0  0  0  0  0  0
    1.2268   -1.0266   -0.5892 C   0  0  0  0  0  0  0  0  0  0  0  0
    0.7315   -1.6796    0.6319 N   0  0  0  0  0  0  0  0  0  0  0  0
   -0.6242   -1.8716    0.8732 C   0  0  0  0  0  0  0  0  0  0  0  0
   -0.9856   -2.9698    1.4930 N   0  0  0  0  0  0  0  0  0  0  0  0
   -2.3427   -3.2543    1.7334 C   0  0  0  0  0  0  0  0  0  0  0  0
   -2.6658   -4.4466    2.3859 C   0  0  0  0  0  0  0  0  0  0  0  0
   -3.9986   -4.7854    2.6369 C   0  0  0  0  0  0  0  0  0  0  0  0
   -5.0256   -3.9310    2.2347 C   0  0  0  0  0  0  0  0  0  0  0  0
   -4.7256   -2.7340    1.5829 C   0  0  0  0  0  0  0  0  0  0  0  0
   -3.3867   -2.4081    1.3391 C   0  0  0  0  0  0  0  0  0  0  0  0
   -2.9940   -1.2169    0.7063 N   0  0  0  0  0  0  0  0  0  0  0  0
   -3.7733   -0.1856    0.2392 C   0  0  0  0  0  0  0  0  0  0  0  0
   -2.9431    0.8134   -0.2315 C   0  0  0  0  0  0  0  0  0  0  0  0
   -3.4180    2.0823   -0.7606 C   0  0  0  0  0  0  0  0  0  0  0  0
   -4.5769    2.1499   -1.5450 C   0  0  0  0  0  0  0  0  0  0  0  0
   -5.0223    3.3741   -2.0507 C   0  0  0  0  0  0  0  0  0  0  0  0
   -4.3110    4.5416   -1.7803 C   0  0  0  0  0  0  0  0  0  0  0  0
   -3.1548    4.4863   -1.0054 C   0  0  0  0  0  0  0  0  0  0  0  0
   -2.7096    3.2619   -0.4987 C   0  0  0  0  0  0  0  0  0  0  0  0
   -1.6126    0.3533   -0.0391 C   0  0  0  0  0  0  0  0  0  0  0  0
   -1.6643   -0.9235    0.4925 C   0  0  0  0  0  0  0  0  0  0  0  0
    1.7174   -2.5180    1.3376 C   0  0  0  0  0  0  0  0  0  0  0  0
    3.1369   -1.9331    1.1856 C   0  0  0  0  0  0  0  0  0  0  0  0
    4.1614    1.2367   -1.3938 C   0  0  0  0  0  0  0  0  0  0  0  0
    4.0692    4.2985    0.1056 H   0  0  0  0  0  0  0  0  0  0  0  0
    4.8220    2.9337    2.0253 H   0  0  0  0  0  0  0  0  0  0  0  0
    5.1503    0.5042    1.7813 H   0  0  0  0  0  0  0  0  0  0  0  0
    5.1532   -1.2516   -1.4569 H   0  0  0  0  0  0  0  0  0  0  0  0
    5.5734   -1.3664    0.2173 H   0  0  0  0  0  0  0  0  0  0  0  0
    2.7952   -1.2376   -2.0861 H   0  0  0  0  0  0  0  0  0  0  0  0
    2.1787   -2.7416   -1.4696 H   0  0  0  0  0  0  0  0  0  0  0  0
    1.4638    0.0176   -0.3599 H   0  0  0  0  0  0  0  0  0  0  0  0
    0.4604   -1.0379   -1.3721 H   0  0  0  0  0  0  0  0  0  0  0  0
   -1.8681   -5.1160    2.6978 H   0  0  0  0  0  0  0  0  0  0  0  0
   -4.2331   -5.7167    3.1464 H   0  0  0  0  0  0  0  0  0  0  0  0
   -6.0613   -4.1989    2.4312 H   0  0  0  0  0  0  0  0  0  0  0  0
   -5.5413   -2.0839    1.2847 H   0  0  0  0  0  0  0  0  0  0  0  0
   -4.8515   -0.2209    0.3060 H   0  0  0  0  0  0  0  0  0  0  0  0
   -5.1346    1.2495   -1.7829 H   0  0  0  0  0  0  0  0  0  0  0  0
   -5.9214    3.4140   -2.6593 H   0  0  0  0  0  0  0  0  0  0  0  0
   -4.6568    5.4949   -2.1725 H   0  0  0  0  0  0  0  0  0  0  0  0
   -2.5985    5.3968   -0.7917 H   0  0  0  0  0  0  0  0  0  0  0  0
   -1.8120    3.2437    0.1136 H   0  0  0  0  0  0  0  0  0  0  0  0
   -0.7150    0.9040   -0.2755 H   0  0  0  0  0  0  0  0  0  0  0  0
    1.4754   -2.5572    2.4062 H   0  0  0  0  0  0  0  0  0  0  0  0
    1.6867   -3.5426    0.9471 H   0  0  0  0  0  0  0  0  0  0  0  0
    3.8389   -2.5379    1.7701 H   0  0  0  0  0  0  0  0  0  0  0  0
    3.1203   -0.9316    1.6283 H   0  0  0  0  0  0  0  0  0  0  0  0
    3.9896    0.7652   -2.3607 H   0  0  0  0  0  0  0  0  0  0  0  0
  1  2  1  0
  2  3  1  0
  2  4  1  0
  2  5  1  0
  5  6  2  0
  6  7  1  0
  7  8  2  0
  8  9  1  0
  9 10  1  0
 10 11  1  0
 11 12  1  0
 12 13  1  0
 13 14  1  0
 14 15  1  0
 15 16  2  0
 16 17  1  0
 17 18  2  0
 18 19  1  0
 19 20  2  0
 20 21  1  0
 21 22  2  0
 22 23  1  0
 23 24  1  0
 24 25  2  0
 25 26  1  0
 26 27  2  0
 27 28  1  0
 28 29  2  0
 29 30  1  0
 30 31  2  0
 25 32  1  0
 32 33  2  0
 14 34  1  0
 34 35  1  0
  9 36  2  0
 36  5  1  0
 35 11  1  0
 33 15  1  0
 22 17  1  0
 33 23  1  0
 31 26  1  0
  6 37  1  0
  7 38  1  0
  8 39  1  0
 10 40  1  0
 10 41  1  0
 12 42  1  0
 12 43  1  0
 13 44  1  0
 13 45  1  0
 18 46  1  0
 19 47  1  0
 20 48  1  0
 21 49  1  0
 24 50  1  0
 27 51  1  0
 28 52  1  0
 29 53  1  0
 30 54  1  0
 31 55  1  0
 32 56  1  0
 34 57  1  0
 34 58  1  0
 35 59  1  0
 35 60  1  0
 36 61  1  0
M  END
$$$$
