
     RDKit          3D

 38 39  0  0  0  0  0  0  0  0999 V2000
    0.1209   -3.2826    1.3180 O   0  0  0  0  0  0  0  0  0  0  0  0
    0.0769   -2.0615    1.2343 C   0  0  0  0  0  0  0  0  0  0  0  0
   -1.2307   -1.3781    1.0886 C   0  0  0  0  0  0  0  0  0  0  0  0
   -1.4751   -0.1330    1.5247 C   0  0  0  0  0  0  0  0  0  0  0  0
   -2.7794    0.5172    1.3318 C   0  0  0  0  0  0  0  0  0  0  0  0
   -3.9210   -0.0709    1.9001 C   0  0  0  0  0  0  0  0  0  0  0  0
   -5.1778    0.5322    1.7773 C   0  0  0  0  0  0  0  0  0  0  0  0
   -5.3184    1.7383    1.0920 C   0  0  0  0  0  0  0  0  0  0  0  0
   -4.2017    2.3469    0.5231 C   0  0  0  0  0  0  0  0  0  0  0  0
   -2.9448    1.7329    0.6438 C   0  0  0  0  0  0  0  0  0  0  0  0
   -1.8108    2.4016    0.0182 N   0  0  0  0  0  4  0  0  0  0  0  0
   -1.0537    1.7204   -0.6878 O   0  0  0  0  0  0  0  0  0  0  0  0
   -1.6899    3.6168    0.2263 O   0  0  0  0  0  1  0  0  0  0  0  0
    1.1763   -1.2446    1.1824 N   0  0  0  0  0  0  0  0  0  0  0  0
    2.5176   -1.7945    1.0970 C   0  0  0  0  0  0  0  0  0  0  0  0
    2.9085   -2.1791   -0.3348 C   0  0  0  0  0  0  0  0  0  0  0  0
    3.0512   -0.9727   -1.2365 C   0  0  0  0  0  0  0  0  0  0  0  0
    4.2745   -0.2898   -1.3197 C   0  0  0  0  0  0  0  0  0  0  0  0
    4.3957    0.8414   -2.1279 C   0  0  0  0  0  0  0  0  0  0  0  0
    3.2952    1.2932   -2.8463 C   0  0  0  0  0  0  0  0  0  0  0  0
    3.4138    2.3814   -3.6183 F   0  0  0  0  0  0  0  0  0  0  0  0
    2.0747    0.6339   -2.7739 C   0  0  0  0  0  0  0  0  0  0  0  0
    1.9522   -0.5011   -1.9717 C   0  0  0  0  0  0  0  0  0  0  0  0
   -1.9975   -1.9912    0.6254 H   0  0  0  0  0  0  0  0  0  0  0  0
   -0.7109    0.4619    2.0179 H   0  0  0  0  0  0  0  0  0  0  0  0
   -3.8428   -1.0041    2.4571 H   0  0  0  0  0  0  0  0  0  0  0  0
   -6.0493    0.0593    2.2262 H   0  0  0  0  0  0  0  0  0  0  0  0
   -6.2980    2.2034    1.0048 H   0  0  0  0  0  0  0  0  0  0  0  0
   -4.3162    3.2892   -0.0094 H   0  0  0  0  0  0  0  0  0  0  0  0
    1.0566   -0.2891    0.8687 H   0  0  0  0  0  0  0  0  0  0  0  0
    3.2004   -1.0403    1.5032 H   0  0  0  0  0  0  0  0  0  0  0  0
    2.5724   -2.6810    1.7386 H   0  0  0  0  0  0  0  0  0  0  0  0
    2.1743   -2.8722   -0.7641 H   0  0  0  0  0  0  0  0  0  0  0  0
    3.8623   -2.7212   -0.3154 H   0  0  0  0  0  0  0  0  0  0  0  0
    5.1387   -0.6348   -0.7564 H   0  0  0  0  0  0  0  0  0  0  0  0
    5.3383    1.3741   -2.2001 H   0  0  0  0  0  0  0  0  0  0  0  0
    1.2254    1.0087   -3.3362 H   0  0  0  0  0  0  0  0  0  0  0  0
    0.9923   -1.0108   -1.9177 H   0  0  0  0  0  0  0  0  0  0  0  0
  1  2  2  0
  2  3  1  0
  3  4  2  3
  4  5  1  0
  5  6  2  0
  6  7  1  0
  7  8  2  0
  8  9  1  0
  9 10  2  0
 10 11  1  0
 11 12  2  0
 11 13  1  0
  2 14  1  0
 14 15  1  0
 15 16  1  0
 16 17  1  0
 17 18  2  0
 18 19  1  0
 19 20  2  0
 20 21  1  0
 20 22  1  0
 22 23  2  0
 10  5  1  0
 23 17  1  0
  3 24  1  0
  4 25  1  0
  6 26  1  0
  7 27  1  0
  8 28  1  0
  9 29  1  0
 14 30  1  0
 15 31  1  0
 15 32  1  0
 16 33  1  0
 16 34  1  0
 18 35  1  0
 19 36  1  0
 22 37  1  0
 23 38  1  0
M  CHG  2  11   1  13  -1
M  END
$$$$
