
     RDKit          3D

 37 39  0  0  0  0  0  0  0  0999 V2000
    7.0715   -0.9423   -0.3556 C   0  0  0  0  0  0  0  0  0  0  0  0
    6.9039    0.5493   -0.0988 C   0  0  0  0  0  0  0  0  0  0  0  0
    6.1754    0.8587    1.2106 C   0  0  0  0  0  0  0  0  0  0  0  0
    4.7410    0.4406    1.1924 C   0  0  0  0  0  0  0  0  0  0  0  0
    4.2887   -0.7013    1.6671 N   0  0  0  0  0  0  0  0  0  0  0  0
    2.9189   -0.8220    1.5183 N   0  0  0  0  0  0  0  0  0  0  0  0
    2.3971    0.2327    0.9455 C   0  0  0  0  0  0  0  0  0  0  0  0
    1.1014    0.5226    0.6159 N   0  0  0  0  0  0  0  0  0  0  0  0
    0.0650   -0.3573    0.8727 C   0  0  0  0  0  0  0  0  0  0  0  0
    0.1703   -1.4569    1.4029 O   0  0  0  0  0  0  0  0  0  0  0  0
   -1.2816    0.2120    0.4049 C   0  0  0  0  0  0  0  0  0  0  0  0
   -2.3507   -0.6830    0.6624 O   0  0  0  0  0  0  0  0  0  0  0  0
   -3.6076   -0.2913    0.2909 C   0  0  0  0  0  0  0  0  0  0  0  0
   -3.9407    0.9285   -0.3283 C   0  0  0  0  0  0  0  0  0  0  0  0
   -5.2698    1.2190   -0.6633 C   0  0  0  0  0  0  0  0  0  0  0  0
   -6.2298    0.2766   -0.3677 C   0  0  0  0  0  0  0  0  0  0  0  0
   -5.9088   -0.9143    0.2363 C   0  0  0  0  0  0  0  0  0  0  0  0
   -4.6100   -1.2259    0.5766 C   0  0  0  0  0  0  0  0  0  0  0  0
   -6.9980   -1.7022    0.4405 O   0  0  0  0  0  0  0  0  0  0  0  0
   -8.0418   -0.8695   -0.1048 C   0  0  0  0  0  0  0  0  0  0  0  0
   -7.5606    0.3900   -0.6203 O   0  0  0  0  0  0  0  0  0  0  0  0
    3.5159    1.4582    0.5385 S   0  0  0  0  0  0  0  0  0  0  0  0
    7.6638   -1.1029   -1.2621 H   0  0  0  0  0  0  0  0  0  0  0  0
    7.5894   -1.4284    0.4773 H   0  0  0  0  0  0  0  0  0  0  0  0
    6.1054   -1.4360   -0.4977 H   0  0  0  0  0  0  0  0  0  0  0  0
    7.9004    1.0054   -0.0573 H   0  0  0  0  0  0  0  0  0  0  0  0
    6.3816    1.0056   -0.9480 H   0  0  0  0  0  0  0  0  0  0  0  0
    6.2425    1.9353    1.4111 H   0  0  0  0  0  0  0  0  0  0  0  0
    6.6849    0.3597    2.0441 H   0  0  0  0  0  0  0  0  0  0  0  0
    0.9367    1.4134    0.1739 H   0  0  0  0  0  0  0  0  0  0  0  0
   -1.1993    0.3968   -0.6733 H   0  0  0  0  0  0  0  0  0  0  0  0
   -1.4421    1.1528    0.9460 H   0  0  0  0  0  0  0  0  0  0  0  0
   -3.1888    1.6741   -0.5633 H   0  0  0  0  0  0  0  0  0  0  0  0
   -5.5387    2.1547   -1.1404 H   0  0  0  0  0  0  0  0  0  0  0  0
   -4.3713   -2.1707    1.0534 H   0  0  0  0  0  0  0  0  0  0  0  0
   -8.7770   -0.6677    0.6827 H   0  0  0  0  0  0  0  0  0  0  0  0
   -8.5370   -1.4142   -0.9169 H   0  0  0  0  0  0  0  0  0  0  0  0
  1  2  1  0
  2  3  1  0
  3  4  1  0
  4  5  2  0
  5  6  1  0
  6  7  2  0
  7  8  1  0
  8  9  1  0
  9 10  2  0
  9 11  1  0
 11 12  1  0
 12 13  1  0
 13 14  2  0
 14 15  1  0
 15 16  2  0
 16 17  1  0
 17 18  2  0
 17 19  1  0
 19 20  1  0
 20 21  1  0
  7 22  1  0
 22  4  1  0
 18 13  1  0
 21 16  1  0
  1 23  1  0
  1 24  1  0
  1 25  1  0
  2 26  1  0
  2 27  1  0
  3 28  1  0
  3 29  1  0
  8 30  1  0
 11 31  1  0
 11 32  1  0
 14 33  1  0
 15 34  1  0
 18 35  1  0
 20 36  1  0
 20 37  1  0
M  END
$$$$
