
     RDKit          3D

 31 32  0  0  0  0  0  0  0  0999 V2000
   -3.4023    1.9498   -0.8665 C   0  0  0  0  0  0  0  0  0  0  0  0
   -3.2476    0.6850   -0.0639 C   0  0  0  0  0  0  0  0  0  0  0  0
   -4.2603    0.1359    0.3774 O   0  0  0  0  0  0  0  0  0  0  0  0
   -1.9017    0.1317    0.1812 C   0  0  0  0  0  0  0  0  0  0  0  0
   -1.6475   -0.8799    1.1034 C   0  0  0  0  0  0  0  0  0  0  0  0
   -2.5630   -1.6231    2.0131 C   0  0  0  0  0  0  0  0  0  0  0  0
   -0.3058   -1.1460    1.0910 N   0  0  0  0  0  0  0  0  0  0  0  0
    0.3374   -0.3376    0.1898 C   0  0  0  0  0  0  0  0  0  0  0  0
    1.7852   -0.4119    0.0093 C   0  0  0  0  0  0  0  0  0  0  0  0
    2.5871    0.7084    0.2569 C   0  0  0  0  0  0  0  0  0  0  0  0
    3.9723    0.6356    0.0957 C   0  0  0  0  0  0  0  0  0  0  0  0
    4.5650   -0.5576   -0.3142 C   0  0  0  0  0  0  0  0  0  0  0  0
    3.7743   -1.6784   -0.5635 C   0  0  0  0  0  0  0  0  0  0  0  0
    2.3889   -1.6066   -0.4013 C   0  0  0  0  0  0  0  0  0  0  0  0
   -0.6262    0.4619   -0.4169 C   0  0  0  0  0  0  0  0  0  0  0  0
   -0.3577    1.4495   -1.5030 C   0  0  0  0  0  0  0  0  0  0  0  0
   -3.2190    1.7497   -1.9239 H   0  0  0  0  0  0  0  0  0  0  0  0
   -4.4274    2.3198   -0.7624 H   0  0  0  0  0  0  0  0  0  0  0  0
   -2.7327    2.7262   -0.4899 H   0  0  0  0  0  0  0  0  0  0  0  0
   -2.0125   -2.3098    2.6647 H   0  0  0  0  0  0  0  0  0  0  0  0
   -3.1154   -0.9283    2.6535 H   0  0  0  0  0  0  0  0  0  0  0  0
   -3.2799   -2.2140    1.4342 H   0  0  0  0  0  0  0  0  0  0  0  0
    0.1589   -1.8262    1.6779 H   0  0  0  0  0  0  0  0  0  0  0  0
    2.1360    1.6422    0.5841 H   0  0  0  0  0  0  0  0  0  0  0  0
    4.5876    1.5099    0.2914 H   0  0  0  0  0  0  0  0  0  0  0  0
    5.6431   -0.6135   -0.4413 H   0  0  0  0  0  0  0  0  0  0  0  0
    4.2352   -2.6075   -0.8885 H   0  0  0  0  0  0  0  0  0  0  0  0
    1.7830   -2.4845   -0.6126 H   0  0  0  0  0  0  0  0  0  0  0  0
   -0.4748    2.4712   -1.1301 H   0  0  0  0  0  0  0  0  0  0  0  0
   -1.0376    1.2921   -2.3450 H   0  0  0  0  0  0  0  0  0  0  0  0
    0.6575    1.3562   -1.9006 H   0  0  0  0  0  0  0  0  0  0  0  0
  1  2  1  0
  2  3  2  0
  2  4  1  0
  4  5  2  0
  5  6  1  0
  5  7  1  0
  7  8  1  0
  8  9  1  0
  9 10  2  0
 10 11  1  0
 11 12  2  0
 12 13  1  0
 13 14  2  0
  8 15  2  0
 15 16  1  0
 15  4  1  0
 14  9  1  0
  1 17  1  0
  1 18  1  0
  1 19  1  0
  6 20  1  0
  6 21  1  0
  6 22  1  0
  7 23  1  0
 10 24  1  0
 11 25  1  0
 12 26  1  0
 13 27  1  0
 14 28  1  0
 16 29  1  0
 16 30  1  0
 16 31  1  0
M  END
$$$$
