
     RDKit          3D

 45 44  0  0  0  0  0  0  0  0999 V2000
    3.8100   -4.7423    2.3506 C   0  0  0  0  0  0  0  0  0  0  0  0
    3.5939   -3.8417    1.1453 C   0  0  0  0  0  0  0  0  0  0  0  0
    2.9721   -2.5059    1.5482 C   0  0  0  0  0  0  0  0  0  0  0  0
    2.7510   -1.6090    0.3357 C   0  0  0  0  0  0  0  0  0  0  0  0
    2.1603   -0.3482    0.7181 N   0  0  0  0  0  0  0  0  0  0  0  0
    2.0927    0.6830   -0.1700 C   0  0  0  0  0  0  0  0  0  0  0  0
    2.6806    0.7470   -1.2390 O   0  0  0  0  0  0  0  0  0  0  0  0
    1.2345    1.6179    0.3077 O   0  0  0  0  0  0  0  0  0  0  0  0
    0.9151    2.6718   -0.6143 C   0  0  0  0  0  0  0  0  0  0  0  0
   -0.1622    2.2163   -1.6246 C   0  0  0  0  0  0  0  0  0  0  0  0
   -0.3205    3.2676   -2.7333 C   0  0  0  0  0  0  0  0  0  0  0  0
   -1.2546    2.8110   -3.8469 C   0  0  0  0  0  0  0  0  0  0  0  0
   -1.4407    1.9935   -0.9522 N   0  0  0  0  0  0  0  0  0  0  0  0
   -1.7457    0.8463   -0.2854 C   0  0  0  0  0  0  0  0  0  0  0  0
   -1.0794   -0.1766   -0.2722 O   0  0  0  0  0  0  0  0  0  0  0  0
   -2.9151    1.0305    0.3742 O   0  0  0  0  0  0  0  0  0  0  0  0
   -3.3973   -0.0925    1.1341 C   0  0  0  0  0  0  0  0  0  0  0  0
   -4.3019    0.4612    2.2285 C   0  0  0  0  0  0  0  0  0  0  0  0
   -4.1721   -1.0337    0.2188 C   0  0  0  0  0  0  0  0  0  0  0  0
    4.4834   -4.2736    3.0750 H   0  0  0  0  0  0  0  0  0  0  0  0
    4.2546   -5.6924    2.0385 H   0  0  0  0  0  0  0  0  0  0  0  0
    2.8620   -4.9597    2.8530 H   0  0  0  0  0  0  0  0  0  0  0  0
    2.9437   -4.3533    0.4264 H   0  0  0  0  0  0  0  0  0  0  0  0
    4.5555   -3.6699    0.6478 H   0  0  0  0  0  0  0  0  0  0  0  0
    2.0156   -2.6801    2.0568 H   0  0  0  0  0  0  0  0  0  0  0  0
    3.6222   -1.9953    2.2695 H   0  0  0  0  0  0  0  0  0  0  0  0
    3.6987   -1.4126   -0.1790 H   0  0  0  0  0  0  0  0  0  0  0  0
    2.0746   -2.0859   -0.3830 H   0  0  0  0  0  0  0  0  0  0  0  0
    1.3712   -0.3529    1.3513 H   0  0  0  0  0  0  0  0  0  0  0  0
    0.5422    3.5123   -0.0173 H   0  0  0  0  0  0  0  0  0  0  0  0
    1.8243    3.0209   -1.1189 H   0  0  0  0  0  0  0  0  0  0  0  0
    0.1398    1.2602   -2.0686 H   0  0  0  0  0  0  0  0  0  0  0  0
   -0.6993    4.2076   -2.3133 H   0  0  0  0  0  0  0  0  0  0  0  0
    0.6596    3.4839   -3.1752 H   0  0  0  0  0  0  0  0  0  0  0  0
   -1.2989    3.5695   -4.6349 H   0  0  0  0  0  0  0  0  0  0  0  0
   -2.2723    2.6532   -3.4770 H   0  0  0  0  0  0  0  0  0  0  0  0
   -0.9018    1.8769   -4.2957 H   0  0  0  0  0  0  0  0  0  0  0  0
   -2.0425    2.7760   -0.7377 H   0  0  0  0  0  0  0  0  0  0  0  0
   -2.5628   -0.6220    1.6102 H   0  0  0  0  0  0  0  0  0  0  0  0
   -5.1306    1.0368    1.8014 H   0  0  0  0  0  0  0  0  0  0  0  0
   -4.7136   -0.3409    2.8484 H   0  0  0  0  0  0  0  0  0  0  0  0
   -3.7420    1.1476    2.8731 H   0  0  0  0  0  0  0  0  0  0  0  0
   -3.5234   -1.4374   -0.5652 H   0  0  0  0  0  0  0  0  0  0  0  0
   -4.5954   -1.8722    0.7801 H   0  0  0  0  0  0  0  0  0  0  0  0
   -4.9857   -0.5038   -0.2889 H   0  0  0  0  0  0  0  0  0  0  0  0
  1  2  1  0
  2  3  1  0
  3  4  1  0
  4  5  1  0
  5  6  1  0
  6  7  2  0
  6  8  1  0
  8  9  1  0
  9 10  1  0
 10 11  1  0
 11 12  1  0
 10 13  1  0
 13 14  1  0
 14 15  2  0
 14 16  1  0
 16 17  1  0
 17 18  1  0
 17 19  1  0
  1 20  1  0
  1 21  1  0
  1 22  1  0
  2 23  1  0
  2 24  1  0
  3 25  1  0
  3 26  1  0
  4 27  1  0
  4 28  1  0
  5 29  1  0
  9 30  1  0
  9 31  1  0
 10 32  1  0
 11 33  1  0
 11 34  1  0
 12 35  1  0
 12 36  1  0
 12 37  1  0
 13 38  1  0
 17 39  1  0
 18 40  1  0
 18 41  1  0
 18 42  1  0
 19 43  1  0
 19 44  1  0
 19 45  1  0
M  END
$$$$
