
     RDKit          3D

 61 65  0  0  0  0  0  0  0  0999 V2000
   -9.2080   -0.0783    0.4553 C   0  0  0  0  0  0  0  0  0  0  0  0
   -8.3330    1.0318    0.3078 O   0  0  0  0  0  0  0  0  0  0  0  0
   -6.9856    0.7985    0.4414 C   0  0  0  0  0  0  0  0  0  0  0  0
   -6.4076   -0.4742    0.5013 C   0  0  0  0  0  0  0  0  0  0  0  0
   -5.0226   -0.6169    0.6429 C   0  0  0  0  0  0  0  0  0  0  0  0
   -4.1920    0.5082    0.7246 C   0  0  0  0  0  0  0  0  0  0  0  0
   -2.7479    0.3939    0.9056 C   0  0  0  0  0  0  0  0  0  0  0  0
   -1.8717    1.3438    1.1623 N   0  0  0  0  0  0  0  0  0  0  0  0
   -0.6648    0.6828    1.2684 C   0  0  0  0  0  0  0  0  0  0  0  0
    0.5703    1.4315    1.6129 C   0  0  0  0  0  0  0  0  0  0  0  0
    1.4762    1.5386    0.4818 N   0  0  0  0  0  0  0  0  0  0  0  0
    2.7357    1.0054    0.3622 C   0  0  0  0  0  0  0  0  0  0  0  0
    3.4428   -0.0354    1.5539 S   0  0  0  0  0  0  0  0  0  0  0  0
    5.2104    0.1033    1.1724 C   0  0  0  0  0  0  0  0  0  0  0  0
    5.7278   -1.0612    0.3706 C   0  0  0  0  0  0  0  0  0  0  0  0
    5.7584   -1.0063   -1.0274 C   0  0  0  0  0  0  0  0  0  0  0  0
    6.2481   -2.0811   -1.7741 C   0  0  0  0  0  0  0  0  0  0  0  0
    6.7009   -3.2391   -1.1362 C   0  0  0  0  0  0  0  0  0  0  0  0
    7.2596   -4.3838   -1.9314 C   0  0  0  0  0  0  0  0  0  0  0  0
    6.6746   -3.2955    0.2641 C   0  0  0  0  0  0  0  0  0  0  0  0
    6.1840   -2.2216    1.0106 C   0  0  0  0  0  0  0  0  0  0  0  0
    3.3296    1.3932   -0.7443 N   0  0  0  0  0  0  0  0  0  0  0  0
    2.4175    2.1867   -1.3902 C   0  0  0  0  0  0  0  0  0  0  0  0
    2.5222    2.8400   -2.6175 C   0  0  0  0  0  0  0  0  0  0  0  0
    1.4168    3.5795   -3.0020 C   0  0  0  0  0  0  0  0  0  0  0  0
    0.2809    3.7026   -2.2787 N   0  0  0  0  0  0  0  0  0  0  0  0
    0.1774    3.0649   -1.0875 C   0  0  0  0  0  0  0  0  0  0  0  0
    1.2512    2.3041   -0.6461 C   0  0  0  0  0  0  0  0  0  0  0  0
   -0.8634   -0.6635    1.0502 C   0  0  0  0  0  0  0  0  0  0  0  0
    0.0043   -1.8532    1.0282 C   0  0  0  0  0  0  0  0  0  0  0  0
   -2.1977   -0.8578    0.8215 O   0  0  0  0  0  0  0  0  0  0  0  0
   -4.7756    1.7853    0.6480 C   0  0  0  0  0  0  0  0  0  0  0  0
   -6.1603    1.9408    0.5063 C   0  0  0  0  0  0  0  0  0  0  0  0
   -6.8018    3.1543    0.4337 O   0  0  0  0  0  0  0  0  0  0  0  0
   -6.0050    4.3305    0.4856 C   0  0  0  0  0  0  0  0  0  0  0  0
  -10.2352    0.3013    0.4247 H   0  0  0  0  0  0  0  0  0  0  0  0
   -9.0899   -0.7872   -0.3724 H   0  0  0  0  0  0  0  0  0  0  0  0
   -9.0666   -0.5747    1.4229 H   0  0  0  0  0  0  0  0  0  0  0  0
   -7.0076   -1.3795    0.4394 H   0  0  0  0  0  0  0  0  0  0  0  0
   -4.6030   -1.6194    0.6957 H   0  0  0  0  0  0  0  0  0  0  0  0
    1.0750    0.9630    2.4600 H   0  0  0  0  0  0  0  0  0  0  0  0
    0.3273    2.4556    1.9213 H   0  0  0  0  0  0  0  0  0  0  0  0
    5.4483    1.0531    0.6768 H   0  0  0  0  0  0  0  0  0  0  0  0
    5.7444    0.1393    2.1312 H   0  0  0  0  0  0  0  0  0  0  0  0
    5.4015   -0.1194   -1.5481 H   0  0  0  0  0  0  0  0  0  0  0  0
    6.2732   -2.0043   -2.8576 H   0  0  0  0  0  0  0  0  0  0  0  0
    8.3530   -4.3159   -1.9665 H   0  0  0  0  0  0  0  0  0  0  0  0
    6.9747   -5.3418   -1.4806 H   0  0  0  0  0  0  0  0  0  0  0  0
    6.8738   -4.3812   -2.9549 H   0  0  0  0  0  0  0  0  0  0  0  0
    7.0353   -4.1812    0.7851 H   0  0  0  0  0  0  0  0  0  0  0  0
    6.1632   -2.3004    2.0980 H   0  0  0  0  0  0  0  0  0  0  0  0
    3.4067    2.7664   -3.2271 H   0  0  0  0  0  0  0  0  0  0  0  0
    1.4128    4.1185   -3.9482 H   0  0  0  0  0  0  0  0  0  0  0  0
   -0.7578    3.1775   -0.5439 H   0  0  0  0  0  0  0  0  0  0  0  0
    0.6671   -1.8599    1.8977 H   0  0  0  0  0  0  0  0  0  0  0  0
    0.6219   -1.8652    0.1238 H   0  0  0  0  0  0  0  0  0  0  0  0
   -0.5902   -2.7734    1.0502 H   0  0  0  0  0  0  0  0  0  0  0  0
   -4.1183    2.6502    0.7038 H   0  0  0  0  0  0  0  0  0  0  0  0
   -5.3170    4.3854   -0.3702 H   0  0  0  0  0  0  0  0  0  0  0  0
   -6.6808    5.1938    0.4290 H   0  0  0  0  0  0  0  0  0  0  0  0
   -5.4637    4.4017    1.4337 H   0  0  0  0  0  0  0  0  0  0  0  0
  1  2  1  0
  2  3  1  0
  3  4  2  0
  4  5  1  0
  5  6  2  0
  6  7  1  0
  7  8  2  0
  8  9  1  0
  9 10  1  0
 10 11  1  0
 11 12  1  0
 12 13  1  0
 13 14  1  0
 14 15  1  0
 15 16  2  0
 16 17  1  0
 17 18  2  0
 18 19  1  0
 18 20  1  0
 20 21  2  0
 12 22  2  0
 22 23  1  0
 23 24  2  0
 24 25  1  0
 25 26  2  0
 26 27  1  0
 27 28  2  0
  9 29  2  0
 29 30  1  0
 29 31  1  0
  6 32  1  0
 32 33  2  0
 33 34  1  0
 34 35  1  0
 33  3  1  0
 31  7  1  0
 28 11  1  0
 21 15  1  0
 28 23  1  0
  1 36  1  0
  1 37  1  0
  1 38  1  0
  4 39  1  0
  5 40  1  0
 10 41  1  0
 10 42  1  0
 14 43  1  0
 14 44  1  0
 16 45  1  0
 17 46  1  0
 19 47  1  0
 19 48  1  0
 19 49  1  0
 20 50  1  0
 21 51  1  0
 24 52  1  0
 25 53  1  0
 27 54  1  0
 30 55  1  0
 30 56  1  0
 30 57  1  0
 32 58  1  0
 35 59  1  0
 35 60  1  0
 35 61  1  0
M  END
$$$$
