
     RDKit          3D

 39 40  0  0  0  0  0  0  0  0999 V2000
   -2.1541   -0.6798   -0.6706 O   0  0  0  0  0  0  0  0  0  0  0  0
   -1.5817    0.0066    0.1729 C   0  0  0  0  0  0  0  0  0  0  0  0
   -2.3284    0.7703    1.2188 C   0  0  0  0  0  0  0  0  0  0  0  0
   -3.6083    1.1708    1.1663 C   0  0  0  0  0  0  0  0  0  0  0  0
   -4.5723    1.0044    0.0735 C   0  0  0  0  0  0  0  0  0  0  0  0
   -4.3093    1.4695   -1.2214 C   0  0  0  0  0  0  0  0  0  0  0  0
   -5.2670    1.3389   -2.2315 C   0  0  0  0  0  0  0  0  0  0  0  0
   -6.4950    0.7554   -1.9385 C   0  0  0  0  0  0  0  0  0  0  0  0
   -7.4574    0.6084   -2.8931 O   0  0  0  0  0  0  0  0  0  0  0  0
   -6.7800    0.3047   -0.6559 C   0  0  0  0  0  0  0  0  0  0  0  0
   -5.8205    0.4322    0.3508 C   0  0  0  0  0  0  0  0  0  0  0  0
   -0.0791    0.1448    0.1585 C   0  0  0  0  0  0  0  0  0  0  0  0
    0.6208   -0.5434    1.3021 C   0  0  0  0  0  0  0  0  0  0  0  0
    0.0359   -0.8819    2.3306 O   0  0  0  0  0  0  0  0  0  0  0  0
    2.0888   -0.7919    1.2289 C   0  0  0  0  0  0  0  0  0  0  0  0
    2.8908   -0.3563    0.2461 C   0  0  0  0  0  0  0  0  0  0  0  0
    4.3386   -0.6123    0.2174 C   0  0  0  0  0  0  0  0  0  0  0  0
    4.8872   -1.8485    0.5894 C   0  0  0  0  0  0  0  0  0  0  0  0
    6.2670   -2.0660    0.5209 C   0  0  0  0  0  0  0  0  0  0  0  0
    7.0982   -1.0476    0.0690 C   0  0  0  0  0  0  0  0  0  0  0  0
    8.4481   -1.2149   -0.0148 O   0  0  0  0  0  0  0  0  0  0  0  0
    6.5729    0.1782   -0.3186 C   0  0  0  0  0  0  0  0  0  0  0  0
    5.1945    0.3941   -0.2504 C   0  0  0  0  0  0  0  0  0  0  0  0
   -1.7527    1.0009    2.1109 H   0  0  0  0  0  0  0  0  0  0  0  0
   -4.0169    1.6833    2.0363 H   0  0  0  0  0  0  0  0  0  0  0  0
   -3.3535    1.9290   -1.4574 H   0  0  0  0  0  0  0  0  0  0  0  0
   -5.0355    1.6950   -3.2297 H   0  0  0  0  0  0  0  0  0  0  0  0
   -7.0918    0.9012   -3.7436 H   0  0  0  0  0  0  0  0  0  0  0  0
   -7.7427   -0.1490   -0.4399 H   0  0  0  0  0  0  0  0  0  0  0  0
   -6.0526    0.0710    1.3498 H   0  0  0  0  0  0  0  0  0  0  0  0
    0.1758    1.2102    0.1657 H   0  0  0  0  0  0  0  0  0  0  0  0
    0.2682   -0.2825   -0.7892 H   0  0  0  0  0  0  0  0  0  0  0  0
    2.4755   -1.3532    2.0751 H   0  0  0  0  0  0  0  0  0  0  0  0
    2.5159    0.2382   -0.5820 H   0  0  0  0  0  0  0  0  0  0  0  0
    4.2482   -2.6617    0.9260 H   0  0  0  0  0  0  0  0  0  0  0  0
    6.6673   -3.0306    0.8167 H   0  0  0  0  0  0  0  0  0  0  0  0
    8.6704   -2.1112    0.2865 H   0  0  0  0  0  0  0  0  0  0  0  0
    7.2335    0.9639   -0.6745 H   0  0  0  0  0  0  0  0  0  0  0  0
    4.8010    1.3599   -0.5588 H   0  0  0  0  0  0  0  0  0  0  0  0
  1  2  2  0
  2  3  1  0
  3  4  2  3
  4  5  1  0
  5  6  2  0
  6  7  1  0
  7  8  2  0
  8  9  1  0
  8 10  1  0
 10 11  2  0
  2 12  1  0
 12 13  1  0
 13 14  2  0
 13 15  1  0
 15 16  2  3
 16 17  1  0
 17 18  2  0
 18 19  1  0
 19 20  2  0
 20 21  1  0
 20 22  1  0
 22 23  2  0
 11  5  1  0
 23 17  1  0
  3 24  1  0
  4 25  1  0
  6 26  1  0
  7 27  1  0
  9 28  1  0
 10 29  1  0
 11 30  1  0
 12 31  1  0
 12 32  1  0
 15 33  1  0
 16 34  1  0
 18 35  1  0
 19 36  1  0
 21 37  1  0
 22 38  1  0
 23 39  1  0
M  END
$$$$
