
     RDKit          3D

 39 40  0  0  0  0  0  0  0  0999 V2000
    5.8326   -1.3111    3.8685 C   0  0  0  0  0  0  0  0  0  0  0  0
    4.7665   -1.0898    2.8361 C   0  0  0  0  0  0  0  0  0  0  0  0
    4.8428    0.0013    1.9618 C   0  0  0  0  0  0  0  0  0  0  0  0
    3.8345    0.2292    1.0204 C   0  0  0  0  0  0  0  0  0  0  0  0
    2.7308   -0.6297    0.9489 C   0  0  0  0  0  0  0  0  0  0  0  0
    1.6296   -0.4339   -0.0319 C   0  0  0  0  0  0  0  0  0  0  0  0
    0.6029   -1.0958   -0.0379 O   0  0  0  0  0  0  0  0  0  0  0  0
    1.9429    0.5468   -0.9155 O   0  0  0  0  0  0  0  0  0  0  0  0
    0.8974    0.8440   -1.8388 C   0  0  0  0  0  0  0  0  0  0  0  0
   -0.2656    1.6063   -1.1962 C   0  0  0  0  0  0  0  0  0  0  0  0
   -0.1354    2.3126   -0.1989 O   0  0  0  0  0  0  0  0  0  0  0  0
   -1.4692    1.4507   -1.8518 N   0  0  0  0  0  0  0  0  0  0  0  0
   -2.6945    1.9859   -1.2825 C   0  0  0  0  0  0  0  0  0  0  0  0
   -3.9264    1.7120   -2.1516 C   0  0  0  0  0  0  0  0  0  0  0  0
   -4.3205    0.3099   -2.1385 N   0  0  0  0  0  0  0  0  0  0  0  0
   -5.3084   -0.1958   -1.3295 C   0  0  0  0  0  0  0  0  0  0  0  0
   -5.9939    0.6523   -0.5135 O   0  0  0  0  0  0  0  0  0  0  0  0
   -5.4876   -1.5181   -1.4308 C   0  0  0  0  0  0  0  0  0  0  0  0
   -4.3833   -2.2178   -2.5762 S   0  0  0  0  0  0  0  0  0  0  0  0
   -3.6394   -0.6402   -2.8816 C   0  0  0  0  0  0  0  0  0  0  0  0
   -2.6678   -0.4664   -3.6021 O   0  0  0  0  0  0  0  0  0  0  0  0
    2.6436   -1.7102    1.8356 C   0  0  0  0  0  0  0  0  0  0  0  0
    3.6531   -1.9359    2.7751 C   0  0  0  0  0  0  0  0  0  0  0  0
    5.9356   -2.3762    4.1012 H   0  0  0  0  0  0  0  0  0  0  0  0
    6.8054   -0.9627    3.5060 H   0  0  0  0  0  0  0  0  0  0  0  0
    5.5823   -0.7706    4.7864 H   0  0  0  0  0  0  0  0  0  0  0  0
    5.6882    0.6848    2.0092 H   0  0  0  0  0  0  0  0  0  0  0  0
    3.9190    1.0865    0.3571 H   0  0  0  0  0  0  0  0  0  0  0  0
    0.5486   -0.0719   -2.3305 H   0  0  0  0  0  0  0  0  0  0  0  0
    1.3203    1.4906   -2.6151 H   0  0  0  0  0  0  0  0  0  0  0  0
   -1.5461    0.7015   -2.5396 H   0  0  0  0  0  0  0  0  0  0  0  0
   -2.8188    1.5586   -0.2808 H   0  0  0  0  0  0  0  0  0  0  0  0
   -2.5548    3.0670   -1.1697 H   0  0  0  0  0  0  0  0  0  0  0  0
   -4.7656    2.3323   -1.8188 H   0  0  0  0  0  0  0  0  0  0  0  0
   -3.7104    1.9899   -3.1908 H   0  0  0  0  0  0  0  0  0  0  0  0
   -6.6319    0.1313    0.0038 H   0  0  0  0  0  0  0  0  0  0  0  0
   -6.2057   -2.1111   -0.8841 H   0  0  0  0  0  0  0  0  0  0  0  0
    1.7863   -2.3797    1.8009 H   0  0  0  0  0  0  0  0  0  0  0  0
    3.5627   -2.7767    3.4597 H   0  0  0  0  0  0  0  0  0  0  0  0
  1  2  1  0
  2  3  2  0
  3  4  1  0
  4  5  2  0
  5  6  1  0
  6  7  2  0
  6  8  1  0
  8  9  1  0
  9 10  1  0
 10 11  2  0
 10 12  1  0
 12 13  1  0
 13 14  1  0
 14 15  1  0
 15 16  1  0
 16 17  1  0
 16 18  2  0
 18 19  1  0
 19 20  1  0
 20 21  2  0
  5 22  1  0
 22 23  2  0
 23  2  1  0
 20 15  1  0
  1 24  1  0
  1 25  1  0
  1 26  1  0
  3 27  1  0
  4 28  1  0
  9 29  1  0
  9 30  1  0
 12 31  1  0
 13 32  1  0
 13 33  1  0
 14 34  1  0
 14 35  1  0
 17 36  1  0
 18 37  1  0
 22 38  1  0
 23 39  1  0
M  END
$$$$
