
     RDKit          3D

 40 42  0  0  0  0  0  0  0  0999 V2000
    3.7088   -1.4386   -1.7090 N   0  0  0  0  0  0  0  0  0  0  0  0
    4.0222   -0.2292   -0.9598 C   0  0  0  0  0  0  0  0  0  0  0  0
    3.1099   -0.0663    0.2562 C   0  0  0  0  0  0  0  0  0  0  0  0
    1.6411    0.1530   -0.1233 C   0  0  0  0  0  0  0  0  0  0  0  0
    0.7707    0.3331    1.1299 C   0  0  0  0  0  0  0  0  0  0  0  0
   -0.6518    0.6079    0.7905 N   0  0  0  0  0  0  0  0  0  0  0  0
   -0.8895    1.9437    0.3578 C   0  0  0  0  0  0  0  0  0  0  0  0
   -0.4900    3.0297    1.1632 C   0  0  0  0  0  0  0  0  0  0  0  0
   -0.7171    4.3533    0.7770 C   0  0  0  0  0  0  0  0  0  0  0  0
   -1.3638    4.6226   -0.4215 C   0  0  0  0  0  0  0  0  0  0  0  0
   -1.7927    3.5672   -1.2235 C   0  0  0  0  0  0  0  0  0  0  0  0
   -1.5723    2.2339   -0.8382 C   0  0  0  0  0  0  0  0  0  0  0  0
   -2.1516    0.9673   -1.9483 S   0  0  0  0  0  0  0  0  0  0  0  0
   -2.0855   -0.4793   -0.9119 C   0  0  0  0  0  0  0  0  0  0  0  0
   -2.7699   -1.6181   -1.3662 C   0  0  0  0  0  0  0  0  0  0  0  0
   -2.7613   -2.8008   -0.6277 C   0  0  0  0  0  0  0  0  0  0  0  0
   -2.0774   -2.8614    0.5886 C   0  0  0  0  0  0  0  0  0  0  0  0
   -2.0529   -4.1291    1.4045 C   0  0  0  0  0  0  0  0  0  0  0  0
   -2.1127   -3.8987    2.7460 F   0  0  0  0  0  0  0  0  0  0  0  0
   -3.0869   -4.9714    1.1267 F   0  0  0  0  0  0  0  0  0  0  0  0
   -0.9170   -4.8521    1.2015 F   0  0  0  0  0  0  0  0  0  0  0  0
   -1.3831   -1.7218    1.0316 C   0  0  0  0  0  0  0  0  0  0  0  0
   -1.3560   -0.5227    0.2900 C   0  0  0  0  0  0  0  0  0  0  0  0
    4.3504   -1.5268   -2.4962 H   0  0  0  0  0  0  0  0  0  0  0  0
    3.8597   -2.2594   -1.1244 H   0  0  0  0  0  0  0  0  0  0  0  0
    5.0649   -0.2754   -0.6270 H   0  0  0  0  0  0  0  0  0  0  0  0
    3.9266    0.6403   -1.6191 H   0  0  0  0  0  0  0  0  0  0  0  0
    3.4620    0.7940    0.8388 H   0  0  0  0  0  0  0  0  0  0  0  0
    3.1982   -0.9450    0.9076 H   0  0  0  0  0  0  0  0  0  0  0  0
    1.2751   -0.6991   -0.7074 H   0  0  0  0  0  0  0  0  0  0  0  0
    1.5631    1.0367   -0.7680 H   0  0  0  0  0  0  0  0  0  0  0  0
    1.1921    1.1336    1.7486 H   0  0  0  0  0  0  0  0  0  0  0  0
    0.8602   -0.5578    1.7620 H   0  0  0  0  0  0  0  0  0  0  0  0
   -0.0238    2.8548    2.1290 H   0  0  0  0  0  0  0  0  0  0  0  0
   -0.3988    5.1691    1.4209 H   0  0  0  0  0  0  0  0  0  0  0  0
   -1.5452    5.6490   -0.7287 H   0  0  0  0  0  0  0  0  0  0  0  0
   -2.3062    3.7902   -2.1563 H   0  0  0  0  0  0  0  0  0  0  0  0
   -3.3170   -1.5888   -2.3068 H   0  0  0  0  0  0  0  0  0  0  0  0
   -3.2994   -3.6693   -1.0045 H   0  0  0  0  0  0  0  0  0  0  0  0
   -0.8828   -1.7685    1.9974 H   0  0  0  0  0  0  0  0  0  0  0  0
  1  2  1  0
  2  3  1  0
  3  4  1  0
  4  5  1  0
  5  6  1  0
  6  7  1  0
  7  8  2  0
  8  9  1  0
  9 10  2  0
 10 11  1  0
 11 12  2  0
 12 13  1  0
 13 14  1  0
 14 15  2  0
 15 16  1  0
 16 17  2  0
 17 18  1  0
 18 19  1  0
 18 20  1  0
 18 21  1  0
 17 22  1  0
 22 23  2  0
 23  6  1  0
 12  7  1  0
 23 14  1  0
  1 24  1  0
  1 25  1  0
  2 26  1  0
  2 27  1  0
  3 28  1  0
  3 29  1  0
  4 30  1  0
  4 31  1  0
  5 32  1  0
  5 33  1  0
  8 34  1  0
  9 35  1  0
 10 36  1  0
 11 37  1  0
 15 38  1  0
 16 39  1  0
 22 40  1  0
M  END
$$$$
