
     RDKit          3D

 52 55  0  0  0  0  0  0  0  0999 V2000
    7.5736   -0.3969   -0.7603 C   0  0  0  0  0  0  0  0  0  0  0  0
    6.1721   -0.1180   -0.3688 C   0  0  0  0  0  0  0  0  0  0  0  0
    5.3455   -0.8559    0.5030 C   0  0  0  0  0  0  0  0  0  0  0  0
    4.1251   -0.2041    0.5094 C   0  0  0  0  0  0  0  0  0  0  0  0
    2.9354   -0.5760    1.2307 C   0  0  0  0  0  0  0  0  0  0  0  0
    2.9592   -1.0534    2.3599 O   0  0  0  0  0  0  0  0  0  0  0  0
    1.7623   -0.4057    0.5332 N   0  0  0  0  0  0  0  0  0  0  0  0
    0.4805   -0.7442    1.1196 C   0  0  0  0  0  0  0  0  0  0  0  0
    0.0130    0.3787    2.0775 C   0  0  0  0  0  0  0  0  0  0  0  0
   -1.5145    0.3618    2.3768 C   0  0  0  0  0  0  0  0  0  0  0  0
   -1.8540    1.5544    3.2911 C   0  0  0  0  0  0  0  0  0  0  0  0
   -1.9074   -0.9323    3.1183 C   0  0  0  0  0  0  0  0  0  0  0  0
   -2.3282    0.5011    1.0514 C   0  0  0  0  0  0  0  0  0  0  0  0
   -1.7630   -0.3658   -0.0259 C   0  0  0  0  0  0  0  0  0  0  0  0
   -0.5044   -0.9400    0.0173 C   0  0  0  0  0  0  0  0  0  0  0  0
   -0.4602   -1.7779   -1.1022 C   0  0  0  0  0  0  0  0  0  0  0  0
   -1.5696   -1.7061   -1.8317 N   0  0  0  0  0  0  0  0  0  0  0  0
   -2.3673   -0.7945   -1.2015 N   0  0  0  0  0  0  0  0  0  0  0  0
   -3.6131   -0.4384   -1.8044 C   0  0  0  0  0  0  0  0  0  0  0  0
   -4.0815   -1.2009   -2.8935 C   0  0  0  0  0  0  0  0  0  0  0  0
   -5.2936   -0.8942   -3.5207 C   0  0  0  0  0  0  0  0  0  0  0  0
   -6.0489    0.1843   -3.0744 C   0  0  0  0  0  0  0  0  0  0  0  0
   -5.5805    0.9467   -2.0125 C   0  0  0  0  0  0  0  0  0  0  0  0
   -6.2980    1.9977   -1.5931 F   0  0  0  0  0  0  0  0  0  0  0  0
   -4.3748    0.6519   -1.3767 C   0  0  0  0  0  0  0  0  0  0  0  0
    4.3239    0.9109   -0.2659 N   0  0  0  0  0  0  0  0  0  0  0  0
    3.4339    2.0340   -0.4531 C   0  0  0  0  0  0  0  0  0  0  0  0
    5.5325    0.9484   -0.8595 N   0  0  0  0  0  0  0  0  0  0  0  0
    7.6427   -0.5733   -1.8385 H   0  0  0  0  0  0  0  0  0  0  0  0
    8.2201    0.4490   -0.5047 H   0  0  0  0  0  0  0  0  0  0  0  0
    7.9581   -1.2838   -0.2463 H   0  0  0  0  0  0  0  0  0  0  0  0
    5.5882   -1.7610    1.0434 H   0  0  0  0  0  0  0  0  0  0  0  0
    1.7983   -0.1664   -0.4474 H   0  0  0  0  0  0  0  0  0  0  0  0
    0.5838   -1.6826    1.6783 H   0  0  0  0  0  0  0  0  0  0  0  0
    0.5853    0.3183    3.0127 H   0  0  0  0  0  0  0  0  0  0  0  0
    0.2674    1.3545    1.6372 H   0  0  0  0  0  0  0  0  0  0  0  0
   -1.3175    1.4875    4.2443 H   0  0  0  0  0  0  0  0  0  0  0  0
   -2.9267    1.5900    3.5120 H   0  0  0  0  0  0  0  0  0  0  0  0
   -1.5793    2.5057    2.8218 H   0  0  0  0  0  0  0  0  0  0  0  0
   -1.7437   -1.8280    2.5115 H   0  0  0  0  0  0  0  0  0  0  0  0
   -2.9677   -0.9181    3.3958 H   0  0  0  0  0  0  0  0  0  0  0  0
   -1.3258   -1.0465    4.0402 H   0  0  0  0  0  0  0  0  0  0  0  0
   -3.3763    0.2488    1.2477 H   0  0  0  0  0  0  0  0  0  0  0  0
   -2.2805    1.5428    0.7101 H   0  0  0  0  0  0  0  0  0  0  0  0
    0.3302   -2.4487   -1.4161 H   0  0  0  0  0  0  0  0  0  0  0  0
   -3.5120   -2.0531   -3.2640 H   0  0  0  0  0  0  0  0  0  0  0  0
   -5.6410   -1.4988   -4.3549 H   0  0  0  0  0  0  0  0  0  0  0  0
   -6.9905    0.4400   -3.5492 H   0  0  0  0  0  0  0  0  0  0  0  0
   -4.0700    1.3224   -0.5870 H   0  0  0  0  0  0  0  0  0  0  0  0
    2.7826    1.8150   -1.3023 H   0  0  0  0  0  0  0  0  0  0  0  0
    2.8501    2.1899    0.4570 H   0  0  0  0  0  0  0  0  0  0  0  0
    4.0264    2.9307   -0.6550 H   0  0  0  0  0  0  0  0  0  0  0  0
  1  2  1  0
  2  3  1  0
  3  4  2  0
  4  5  1  0
  5  6  2  0
  5  7  1  0
  7  8  1  0
  8  9  1  0
  9 10  1  0
 10 11  1  0
 10 12  1  0
 10 13  1  0
 13 14  1  0
 14 15  2  0
 15 16  1  0
 16 17  2  0
 17 18  1  0
 18 19  1  0
 19 20  2  0
 20 21  1  0
 21 22  2  0
 22 23  1  0
 23 24  1  0
 23 25  2  0
  4 26  1  0
 26 27  1  0
 26 28  1  0
 28  2  2  0
 15  8  1  0
 25 19  1  0
 18 14  1  0
  1 29  1  0
  1 30  1  0
  1 31  1  0
  3 32  1  0
  7 33  1  0
  8 34  1  0
  9 35  1  0
  9 36  1  0
 11 37  1  0
 11 38  1  0
 11 39  1  0
 12 40  1  0
 12 41  1  0
 12 42  1  0
 13 43  1  0
 13 44  1  0
 16 45  1  0
 20 46  1  0
 21 47  1  0
 22 48  1  0
 25 49  1  0
 27 50  1  0
 27 51  1  0
 27 52  1  0
M  END
$$$$
