
     RDKit          3D

 47 50  0  0  0  0  0  0  0  0999 V2000
   -0.2880   -0.6593    2.6595 C   0  0  0  0  0  0  0  0  0  0  0  0
   -0.3507   -0.9294    1.1832 C   0  0  0  0  0  0  0  0  0  0  0  0
    0.4900   -1.7881    0.6743 N   0  0  0  0  0  0  0  0  0  0  0  0
    0.4783   -2.0876   -0.6959 N   0  0  0  0  0  0  0  0  0  0  0  0
    1.4709   -3.0602   -1.1530 C   0  0  0  0  0  0  0  0  0  0  0  0
    2.8381   -2.4283   -1.4240 C   0  0  0  0  0  0  0  0  0  0  0  0
    3.7264   -3.0333   -2.0212 O   0  0  0  0  0  0  0  0  0  0  0  0
    3.0238   -1.1846   -0.8624 N   0  0  0  0  0  0  0  0  0  0  0  0
    4.3125   -0.5386   -0.8245 C   0  0  0  0  0  0  0  0  0  0  0  0
    4.9436   -0.8379    0.4984 C   0  0  0  0  0  0  0  0  0  0  0  0
    5.7351   -1.9182    0.8388 C   0  0  0  0  0  0  0  0  0  0  0  0
    6.1553   -1.8758    2.1988 C   0  0  0  0  0  0  0  0  0  0  0  0
    5.6690   -0.7665    2.8537 C   0  0  0  0  0  0  0  0  0  0  0  0
    4.7089    0.2133    1.8325 S   0  0  0  0  0  0  0  0  0  0  0  0
   -0.3587   -1.4779   -1.6524 C   0  0  0  0  0  0  0  0  0  0  0  0
   -0.3060   -1.7214   -2.8550 O   0  0  0  0  0  0  0  0  0  0  0  0
   -1.2905   -0.5289   -1.0565 C   0  0  0  0  0  0  0  0  0  0  0  0
   -2.2350    0.1606   -1.6981 N   0  0  0  0  0  0  0  0  0  0  0  0
   -2.7949    0.9637   -0.7523 N   0  0  0  0  0  0  0  0  0  0  0  0
   -3.7025    1.9848   -1.1746 C   0  0  0  0  0  0  0  0  0  0  0  0
   -4.0294    3.0811   -0.3676 C   0  0  0  0  0  0  0  0  0  0  0  0
   -4.9168    4.0597   -0.8300 C   0  0  0  0  0  0  0  0  0  0  0  0
   -5.4740    3.9607   -2.1026 C   0  0  0  0  0  0  0  0  0  0  0  0
   -5.1365    2.8896   -2.9241 C   0  0  0  0  0  0  0  0  0  0  0  0
   -4.2505    1.9109   -2.4676 C   0  0  0  0  0  0  0  0  0  0  0  0
   -2.3386    0.6185    0.5268 C   0  0  0  0  0  0  0  0  0  0  0  0
   -2.9428    1.0953    1.7977 C   0  0  0  0  0  0  0  0  0  0  0  0
   -1.2957   -0.2686    0.3178 C   0  0  0  0  0  0  0  0  0  0  0  0
    0.6323   -1.0742    3.0822 H   0  0  0  0  0  0  0  0  0  0  0  0
   -0.3022    0.4167    2.8495 H   0  0  0  0  0  0  0  0  0  0  0  0
   -1.1404   -1.1332    3.1527 H   0  0  0  0  0  0  0  0  0  0  0  0
    1.1264   -3.5392   -2.0752 H   0  0  0  0  0  0  0  0  0  0  0  0
    1.5897   -3.8260   -0.3792 H   0  0  0  0  0  0  0  0  0  0  0  0
    2.3325   -0.9074   -0.1727 H   0  0  0  0  0  0  0  0  0  0  0  0
    4.1477    0.5353   -0.9594 H   0  0  0  0  0  0  0  0  0  0  0  0
    4.9444   -0.8918   -1.6462 H   0  0  0  0  0  0  0  0  0  0  0  0
    5.9929   -2.7050    0.1377 H   0  0  0  0  0  0  0  0  0  0  0  0
    6.7817   -2.6228    2.6711 H   0  0  0  0  0  0  0  0  0  0  0  0
    5.8305   -0.4843    3.8851 H   0  0  0  0  0  0  0  0  0  0  0  0
   -3.5829    3.2416    0.6058 H   0  0  0  0  0  0  0  0  0  0  0  0
   -5.1626    4.9106   -0.1989 H   0  0  0  0  0  0  0  0  0  0  0  0
   -6.1598    4.7248   -2.4592 H   0  0  0  0  0  0  0  0  0  0  0  0
   -5.5578    2.8134   -3.9235 H   0  0  0  0  0  0  0  0  0  0  0  0
   -4.0039    1.0848   -3.1338 H   0  0  0  0  0  0  0  0  0  0  0  0
   -2.8458    0.3410    2.5841 H   0  0  0  0  0  0  0  0  0  0  0  0
   -4.0171    1.2755    1.6984 H   0  0  0  0  0  0  0  0  0  0  0  0
   -2.4472    2.0064    2.1459 H   0  0  0  0  0  0  0  0  0  0  0  0
  1  2  1  0
  2  3  2  0
  3  4  1  0
  4  5  1  0
  5  6  1  0
  6  7  2  0
  6  8  1  0
  8  9  1  0
  9 10  1  0
 10 11  2  0
 11 12  1  0
 12 13  2  0
 13 14  1  0
  4 15  1  0
 15 16  2  0
 15 17  1  0
 17 18  2  0
 18 19  1  0
 19 20  1  0
 20 21  2  0
 21 22  1  0
 22 23  2  0
 23 24  1  0
 24 25  2  0
 19 26  1  0
 26 27  1  0
 26 28  2  0
 28  2  1  0
 14 10  1  0
 28 17  1  0
 25 20  1  0
  1 29  1  0
  1 30  1  0
  1 31  1  0
  5 32  1  0
  5 33  1  0
  8 34  1  0
  9 35  1  0
  9 36  1  0
 11 37  1  0
 12 38  1  0
 13 39  1  0
 21 40  1  0
 22 41  1  0
 23 42  1  0
 24 43  1  0
 25 44  1  0
 27 45  1  0
 27 46  1  0
 27 47  1  0
M  END
$$$$
