
     RDKit          3D

 60 64  0  0  0  0  0  0  0  0999 V2000
   -4.8476   -1.8084   -1.7152 C   0  0  0  0  0  0  0  0  0  0  0  0
   -3.9458   -1.5437   -0.5461 C   0  0  0  0  0  0  0  0  0  0  0  0
   -4.4812   -1.1102    0.6721 C   0  0  0  0  0  0  0  0  0  0  0  0
   -3.6515   -0.8864    1.7733 C   0  0  0  0  0  0  0  0  0  0  0  0
   -2.2693   -1.0973    1.6760 C   0  0  0  0  0  0  0  0  0  0  0  0
   -1.3609   -0.8482    2.8553 C   0  0  0  0  0  0  0  0  0  0  0  0
   -1.3248    0.5495    3.2382 N   0  0  0  0  0  0  0  0  0  0  0  0
   -1.7340    0.9390    4.4713 N   0  0  0  0  0  0  0  0  0  0  0  0
   -1.5548    2.2569    4.5628 N   0  0  0  0  0  0  0  0  0  0  0  0
   -1.0212    2.6748    3.3838 C   0  0  0  0  0  0  0  0  0  0  0  0
   -0.6396    3.9857    2.9333 C   0  0  0  0  0  0  0  0  0  0  0  0
   -0.7261    5.0229    3.5807 O   0  0  0  0  0  0  0  0  0  0  0  0
   -0.1443    3.9685    1.6345 N   0  0  0  0  0  0  0  0  0  0  0  0
   -0.0362    2.8212    0.8555 C   0  0  0  0  0  0  0  0  0  0  0  0
    0.5088    3.0398   -0.5472 C   0  0  0  0  0  0  0  0  0  0  0  0
   -0.4398    2.4232   -1.5868 C   0  0  0  0  0  0  0  0  0  0  0  0
    0.0518    1.0595   -2.0576 C   0  0  0  0  0  0  0  0  0  0  0  0
    1.3681    1.2159   -2.7122 N   0  0  0  0  0  0  0  0  0  0  0  0
    1.9962   -0.1291   -3.5360 S   0  0  0  0  0  6  0  0  0  0  0  0
    0.9149   -0.7502   -4.2722 O   0  0  0  0  0  0  0  0  0  0  0  0
    3.2160    0.2782   -4.2010 O   0  0  0  0  0  0  0  0  0  0  0  0
    2.4458   -1.2370   -2.2155 C   0  0  0  0  0  0  0  0  0  0  0  0
    3.7194   -1.1617   -1.6472 C   0  0  0  0  0  0  0  0  0  0  0  0
    4.0736   -2.0497   -0.6296 C   0  0  0  0  0  0  0  0  0  0  0  0
    3.1681   -3.0238   -0.1892 C   0  0  0  0  0  0  0  0  0  0  0  0
    3.5440   -3.9873    0.8976 C   0  0  0  0  0  0  0  0  0  0  0  0
    1.9046   -3.1089   -0.7898 C   0  0  0  0  0  0  0  0  0  0  0  0
    1.5436   -2.2229   -1.8053 C   0  0  0  0  0  0  0  0  0  0  0  0
    2.3196    2.1534   -2.0762 C   0  0  0  0  0  0  0  0  0  0  0  0
    1.9297    2.4671   -0.6380 C   0  0  0  0  0  0  0  0  0  0  0  0
   -0.3528    1.6241    1.2662 N   0  0  0  0  0  0  0  0  0  0  0  0
   -0.8496    1.6145    2.5273 C   0  0  0  0  0  0  0  0  0  0  0  0
   -1.7392   -1.5495    0.4599 C   0  0  0  0  0  0  0  0  0  0  0  0
   -2.5699   -1.7736   -0.6403 C   0  0  0  0  0  0  0  0  0  0  0  0
   -4.2862   -1.8063   -2.6554 H   0  0  0  0  0  0  0  0  0  0  0  0
   -5.6159   -1.0324   -1.7925 H   0  0  0  0  0  0  0  0  0  0  0  0
   -5.3330   -2.7825   -1.6015 H   0  0  0  0  0  0  0  0  0  0  0  0
   -5.5515   -0.9411    0.7703 H   0  0  0  0  0  0  0  0  0  0  0  0
   -4.0931   -0.5413    2.7070 H   0  0  0  0  0  0  0  0  0  0  0  0
   -0.3274   -1.1431    2.6395 H   0  0  0  0  0  0  0  0  0  0  0  0
   -1.6990   -1.4385    3.7152 H   0  0  0  0  0  0  0  0  0  0  0  0
    0.1177    4.8747    1.2744 H   0  0  0  0  0  0  0  0  0  0  0  0
    0.5525    4.1197   -0.7386 H   0  0  0  0  0  0  0  0  0  0  0  0
   -0.4942    3.0957   -2.4535 H   0  0  0  0  0  0  0  0  0  0  0  0
   -1.4609    2.3386   -1.1975 H   0  0  0  0  0  0  0  0  0  0  0  0
    0.1240    0.3624   -1.2182 H   0  0  0  0  0  0  0  0  0  0  0  0
   -0.6725    0.6609   -2.7751 H   0  0  0  0  0  0  0  0  0  0  0  0
    4.4426   -0.4273   -1.9948 H   0  0  0  0  0  0  0  0  0  0  0  0
    5.0672   -1.9837   -0.1904 H   0  0  0  0  0  0  0  0  0  0  0  0
    2.8419   -3.9041    1.7327 H   0  0  0  0  0  0  0  0  0  0  0  0
    3.5283   -5.0130    0.5138 H   0  0  0  0  0  0  0  0  0  0  0  0
    4.5496   -3.7862    1.2833 H   0  0  0  0  0  0  0  0  0  0  0  0
    1.1999   -3.8753   -0.4745 H   0  0  0  0  0  0  0  0  0  0  0  0
    0.5670   -2.3113   -2.2751 H   0  0  0  0  0  0  0  0  0  0  0  0
    2.3287    3.0744   -2.6704 H   0  0  0  0  0  0  0  0  0  0  0  0
    3.3414    1.7636   -2.0878 H   0  0  0  0  0  0  0  0  0  0  0  0
    2.6397    3.1847   -0.2087 H   0  0  0  0  0  0  0  0  0  0  0  0
    2.0243    1.5542   -0.0353 H   0  0  0  0  0  0  0  0  0  0  0  0
   -0.6705   -1.7227    0.3595 H   0  0  0  0  0  0  0  0  0  0  0  0
   -2.1362   -2.1263   -1.5734 H   0  0  0  0  0  0  0  0  0  0  0  0
  1  2  1  0
  2  3  2  0
  3  4  1  0
  4  5  2  0
  5  6  1  0
  6  7  1  0
  7  8  1  0
  8  9  2  0
  9 10  1  0
 10 11  1  0
 11 12  2  0
 11 13  1  0
 13 14  1  0
 14 15  1  0
 15 16  1  0
 16 17  1  0
 17 18  1  0
 18 19  1  0
 19 20  2  0
 19 21  2  0
 19 22  1  0
 22 23  2  0
 23 24  1  0
 24 25  2  0
 25 26  1  0
 25 27  1  0
 27 28  2  0
 18 29  1  0
 29 30  1  0
 14 31  2  0
 31 32  1  0
  5 33  1  0
 33 34  2  0
 34  2  1  0
 32  7  1  0
 32 10  2  0
 30 15  1  0
 28 22  1  0
  1 35  1  0
  1 36  1  0
  1 37  1  0
  3 38  1  0
  4 39  1  0
  6 40  1  0
  6 41  1  0
 13 42  1  0
 15 43  1  0
 16 44  1  0
 16 45  1  0
 17 46  1  0
 17 47  1  0
 23 48  1  0
 24 49  1  0
 26 50  1  0
 26 51  1  0
 26 52  1  0
 27 53  1  0
 28 54  1  0
 29 55  1  0
 29 56  1  0
 30 57  1  0
 30 58  1  0
 33 59  1  0
 34 60  1  0
M  END
$$$$
