
     RDKit          3D

 35 37  0  0  0  0  0  0  0  0999 V2000
    6.4726   -0.5465    0.6694 C   0  0  0  0  0  0  0  0  0  0  0  0
    5.0706   -0.1354    1.0150 C   0  0  0  0  0  0  0  0  0  0  0  0
    4.8282    0.6750    2.1345 C   0  0  0  0  0  0  0  0  0  0  0  0
    3.5370    1.1028    2.4703 C   0  0  0  0  0  0  0  0  0  0  0  0
    2.5039    0.6916    1.6279 C   0  0  0  0  0  0  0  0  0  0  0  0
    1.1508    0.9156    1.6475 N   0  0  0  0  0  0  0  0  0  0  0  0
    0.5801    0.2763    0.5637 C   0  0  0  0  0  0  0  0  0  0  0  0
   -0.8322    0.3515    0.3469 C   0  0  0  0  0  0  0  0  0  0  0  0
   -1.6642    1.1266    1.2118 C   0  0  0  0  0  0  0  0  0  0  0  0
   -2.2749    1.7925    1.9404 N   0  0  0  0  0  0  0  0  0  0  0  0
   -1.3402   -0.3414   -0.6942 C   0  0  0  0  0  0  0  0  0  0  0  0
   -2.7548   -0.4158   -1.0872 C   0  0  0  0  0  0  0  0  0  0  0  0
   -3.3748   -1.6748   -1.1360 C   0  0  0  0  0  0  0  0  0  0  0  0
   -4.7118   -1.7931   -1.5224 C   0  0  0  0  0  0  0  0  0  0  0  0
   -5.4198   -0.6518   -1.8643 C   0  0  0  0  0  0  0  0  0  0  0  0
   -6.7268   -0.7663   -2.2410 O   0  0  0  0  0  0  0  0  0  0  0  0
   -4.8128    0.6007   -1.8296 C   0  0  0  0  0  0  0  0  0  0  0  0
   -5.5722    1.6826   -2.1823 O   0  0  0  0  0  0  0  0  0  0  0  0
   -3.4800    0.7291   -1.4505 C   0  0  0  0  0  0  0  0  0  0  0  0
    1.5157   -0.3421   -0.1369 N   0  0  0  0  0  0  0  0  0  0  0  0
    2.7042   -0.0973    0.5050 C   0  0  0  0  0  0  0  0  0  0  0  0
    4.0031   -0.5168    0.1827 C   0  0  0  0  0  0  0  0  0  0  0  0
    7.0781   -0.6666    1.5739 H   0  0  0  0  0  0  0  0  0  0  0  0
    6.9369    0.2102    0.0296 H   0  0  0  0  0  0  0  0  0  0  0  0
    6.4801   -1.5074    0.1442 H   0  0  0  0  0  0  0  0  0  0  0  0
    5.6599    0.9840    2.7666 H   0  0  0  0  0  0  0  0  0  0  0  0
    3.3601    1.7246    3.3411 H   0  0  0  0  0  0  0  0  0  0  0  0
    0.6664    1.4603    2.3476 H   0  0  0  0  0  0  0  0  0  0  0  0
   -0.6785   -0.9438   -1.3186 H   0  0  0  0  0  0  0  0  0  0  0  0
   -2.8228   -2.5743   -0.8702 H   0  0  0  0  0  0  0  0  0  0  0  0
   -5.1944   -2.7651   -1.5565 H   0  0  0  0  0  0  0  0  0  0  0  0
   -7.0086    0.1509   -2.4302 H   0  0  0  0  0  0  0  0  0  0  0  0
   -5.0378    2.4855   -2.0550 H   0  0  0  0  0  0  0  0  0  0  0  0
   -3.0039    1.7046   -1.4440 H   0  0  0  0  0  0  0  0  0  0  0  0
    4.1628   -1.1280   -0.6992 H   0  0  0  0  0  0  0  0  0  0  0  0
  1  2  1  0
  2  3  2  0
  3  4  1  0
  4  5  2  0
  5  6  1  0
  6  7  1  0
  7  8  1  0
  8  9  1  0
  9 10  3  0
  8 11  2  3
 11 12  1  0
 12 13  2  0
 13 14  1  0
 14 15  2  0
 15 16  1  0
 15 17  1  0
 17 18  1  0
 17 19  2  0
  7 20  2  0
 20 21  1  0
 21 22  2  0
 22  2  1  0
 21  5  1  0
 19 12  1  0
  1 23  1  0
  1 24  1  0
  1 25  1  0
  3 26  1  0
  4 27  1  0
  6 28  1  0
 11 29  1  0
 13 30  1  0
 14 31  1  0
 16 32  1  0
 18 33  1  0
 19 34  1  0
 22 35  1  0
M  END
$$$$
