
     RDKit          3D

 47 50  0  0  0  0  0  0  0  0999 V2000
   -6.2511    1.6768   -1.8175 C   0  0  0  0  0  0  0  0  0  0  0  0
   -6.3662    0.4098   -0.9828 C   0  0  0  0  0  0  0  0  0  0  0  0
   -5.0625   -0.3850   -0.9551 C   0  0  0  0  0  0  0  0  0  0  0  0
   -4.0556    0.4062   -0.3099 O   0  0  0  0  0  0  0  0  0  0  0  0
   -2.8132   -0.1465   -0.4722 C   0  0  0  0  0  0  0  0  0  0  0  0
   -1.9105    0.5566   -1.2686 C   0  0  0  0  0  0  0  0  0  0  0  0
   -0.6268    0.0492   -1.4898 C   0  0  0  0  0  0  0  0  0  0  0  0
   -0.2286   -1.1543   -0.8970 C   0  0  0  0  0  0  0  0  0  0  0  0
    1.0940   -1.7430   -1.1364 C   0  0  0  0  0  0  0  0  0  0  0  0
    2.2903   -1.1840   -0.8969 C   0  0  0  0  0  0  0  0  0  0  0  0
    3.7879   -2.0647   -1.2306 S   0  0  0  0  0  0  0  0  0  0  0  0
    4.6964   -0.7224   -0.6769 C   0  0  0  0  0  0  0  0  0  0  0  0
    5.9635   -0.4466   -0.5658 N   0  0  0  0  0  0  0  0  0  0  0  0
    5.9184    0.8477   -0.0650 C   0  0  0  0  0  0  0  0  0  0  0  0
    7.2160    1.6680    0.2329 C   0  0  0  0  0  0  0  0  0  0  0  0
    8.5094    1.2077    0.0733 C   0  0  0  0  0  0  0  0  0  0  0  0
    9.3697    2.2683    0.4494 C   0  0  0  0  0  0  0  0  0  0  0  0
    8.5499    3.3136    0.8057 C   0  0  0  0  0  0  0  0  0  0  0  0
    7.2463    2.9571    0.6871 O   0  0  0  0  0  0  0  0  0  0  0  0
    4.6808    1.3430    0.1338 N   0  0  0  0  0  0  0  0  0  0  0  0
    3.9288    0.3050   -0.2669 N   0  0  0  0  0  0  0  0  0  0  0  0
    2.5565    0.1791   -0.3260 C   0  0  0  0  0  0  0  0  0  0  0  0
    1.7914    1.0545    0.0286 O   0  0  0  0  0  0  0  0  0  0  0  0
   -1.1381   -1.8511   -0.0905 C   0  0  0  0  0  0  0  0  0  0  0  0
   -2.4117   -1.3306    0.1513 C   0  0  0  0  0  0  0  0  0  0  0  0
   -3.2275   -2.0593    0.9757 O   0  0  0  0  0  0  0  0  0  0  0  0
   -3.4620   -1.3677    2.2106 C   0  0  0  0  0  0  0  0  0  0  0  0
   -4.1044   -2.3482    3.1752 C   0  0  0  0  0  0  0  0  0  0  0  0
   -7.2066    2.2127   -1.8333 H   0  0  0  0  0  0  0  0  0  0  0  0
   -5.4946    2.3548   -1.4078 H   0  0  0  0  0  0  0  0  0  0  0  0
   -5.9761    1.4413   -2.8512 H   0  0  0  0  0  0  0  0  0  0  0  0
   -6.6457    0.6904    0.0394 H   0  0  0  0  0  0  0  0  0  0  0  0
   -7.1654   -0.2233   -1.3859 H   0  0  0  0  0  0  0  0  0  0  0  0
   -4.7619   -0.6382   -1.9801 H   0  0  0  0  0  0  0  0  0  0  0  0
   -5.2303   -1.3104   -0.3959 H   0  0  0  0  0  0  0  0  0  0  0  0
   -2.2073    1.4970   -1.7226 H   0  0  0  0  0  0  0  0  0  0  0  0
    0.0538    0.6132   -2.1239 H   0  0  0  0  0  0  0  0  0  0  0  0
    1.0481   -2.7584   -1.5279 H   0  0  0  0  0  0  0  0  0  0  0  0
    8.7893    0.2206   -0.2684 H   0  0  0  0  0  0  0  0  0  0  0  0
   10.4507    2.2735    0.4523 H   0  0  0  0  0  0  0  0  0  0  0  0
    8.7276    4.3241    1.1475 H   0  0  0  0  0  0  0  0  0  0  0  0
   -0.8607   -2.7932    0.3734 H   0  0  0  0  0  0  0  0  0  0  0  0
   -2.5178   -1.0073    2.6387 H   0  0  0  0  0  0  0  0  0  0  0  0
   -4.1402   -0.5205    2.0567 H   0  0  0  0  0  0  0  0  0  0  0  0
   -3.4594   -3.2209    3.3207 H   0  0  0  0  0  0  0  0  0  0  0  0
   -4.2915   -1.8767    4.1449 H   0  0  0  0  0  0  0  0  0  0  0  0
   -5.0527   -2.7179    2.7723 H   0  0  0  0  0  0  0  0  0  0  0  0
  1  2  1  0
  2  3  1  0
  3  4  1  0
  4  5  1  0
  5  6  2  0
  6  7  1  0
  7  8  2  0
  8  9  1  0
  9 10  2  3
 10 11  1  0
 11 12  1  0
 12 13  2  0
 13 14  1  0
 14 15  1  0
 15 16  2  0
 16 17  1  0
 17 18  2  0
 18 19  1  0
 14 20  2  0
 20 21  1  0
 21 22  1  0
 22 23  2  0
  8 24  1  0
 24 25  2  0
 25 26  1  0
 26 27  1  0
 27 28  1  0
 25  5  1  0
 22 10  1  0
 21 12  1  0
 19 15  1  0
  1 29  1  0
  1 30  1  0
  1 31  1  0
  2 32  1  0
  2 33  1  0
  3 34  1  0
  3 35  1  0
  6 36  1  0
  7 37  1  0
  9 38  1  0
 16 39  1  0
 17 40  1  0
 18 41  1  0
 24 42  1  0
 27 43  1  0
 27 44  1  0
 28 45  1  0
 28 46  1  0
 28 47  1  0
M  END
$$$$
