
     RDKit          3D

 37 39  0  0  0  0  0  0  0  0999 V2000
   -0.2135   -0.1079    4.8710 C   0  0  0  0  0  0  0  0  0  0  0  0
    1.3112   -0.4755    3.9623 S   0  0  0  0  0  0  0  0  0  0  0  0
    0.7241   -0.3523    2.2781 C   0  0  0  0  0  0  0  0  0  0  0  0
    1.5591   -0.7575    1.2583 C   0  0  0  0  0  0  0  0  0  0  0  0
    1.0938   -0.6357   -0.0359 C   0  0  0  0  0  0  0  0  0  0  0  0
    1.8675   -1.0334   -1.1194 N   0  0  0  0  0  0  0  0  0  0  0  0
    1.2193   -1.0005   -2.4413 C   0  0  0  0  0  0  0  0  0  0  0  0
    2.1846   -1.5646   -3.4953 C   0  0  0  0  0  0  0  0  0  0  0  0
    3.4146   -0.8311   -3.6112 O   0  0  0  0  0  0  0  0  0  0  0  0
    3.7451   -0.0850   -2.4323 C   0  0  0  0  0  0  0  0  0  0  0  0
    3.3175   -0.7709   -1.1229 C   0  0  0  0  0  0  0  0  0  0  0  0
   -0.1436   -0.1666   -0.2673 N   0  0  0  0  0  0  0  0  0  0  0  0
   -0.8996    0.1914    0.7875 C   0  0  0  0  0  0  0  0  0  0  0  0
   -2.2236    0.7536    0.4968 C   0  0  0  0  0  0  0  0  0  0  0  0
   -2.3454    1.7349   -0.5122 C   0  0  0  0  0  0  0  0  0  0  0  0
   -3.5751    2.3208   -0.8240 C   0  0  0  0  0  0  0  0  0  0  0  0
   -4.7192    1.9351   -0.1361 C   0  0  0  0  0  0  0  0  0  0  0  0
   -4.6323    0.9595    0.8552 C   0  0  0  0  0  0  0  0  0  0  0  0
   -3.3986    0.3696    1.1690 C   0  0  0  0  0  0  0  0  0  0  0  0
   -3.4264   -0.8777    2.3718 Cl  0  0  0  0  0  0  0  0  0  0  0  0
   -0.5005    0.1441    2.0637 N   0  0  0  0  0  0  0  0  0  0  0  0
   -0.5681    0.9019    4.6467 H   0  0  0  0  0  0  0  0  0  0  0  0
   -0.9920   -0.8367    4.6305 H   0  0  0  0  0  0  0  0  0  0  0  0
   -0.0088   -0.1674    5.9435 H   0  0  0  0  0  0  0  0  0  0  0  0
    2.5325   -1.1766    1.4738 H   0  0  0  0  0  0  0  0  0  0  0  0
    0.3075   -1.6095   -2.4372 H   0  0  0  0  0  0  0  0  0  0  0  0
    0.9549    0.0315   -2.7050 H   0  0  0  0  0  0  0  0  0  0  0  0
    2.4446   -2.6021   -3.2548 H   0  0  0  0  0  0  0  0  0  0  0  0
    1.7094   -1.5661   -4.4813 H   0  0  0  0  0  0  0  0  0  0  0  0
    3.2752    0.9021   -2.5173 H   0  0  0  0  0  0  0  0  0  0  0  0
    4.8286    0.0710   -2.4362 H   0  0  0  0  0  0  0  0  0  0  0  0
    3.8334   -1.7334   -1.0292 H   0  0  0  0  0  0  0  0  0  0  0  0
    3.6311   -0.1331   -0.2889 H   0  0  0  0  0  0  0  0  0  0  0  0
   -1.4595    2.0524   -1.0622 H   0  0  0  0  0  0  0  0  0  0  0  0
   -3.6344    3.0768   -1.6033 H   0  0  0  0  0  0  0  0  0  0  0  0
   -5.6791    2.3863   -0.3745 H   0  0  0  0  0  0  0  0  0  0  0  0
   -5.5344    0.6525    1.3795 H   0  0  0  0  0  0  0  0  0  0  0  0
  1  2  1  0
  2  3  1  0
  3  4  2  0
  4  5  1  0
  5  6  1  0
  6  7  1  0
  7  8  1  0
  8  9  1  0
  9 10  1  0
 10 11  1  0
  5 12  2  0
 12 13  1  0
 13 14  1  0
 14 15  2  0
 15 16  1  0
 16 17  2  0
 17 18  1  0
 18 19  2  0
 19 20  1  0
 13 21  2  0
 21  3  1  0
 11  6  1  0
 19 14  1  0
  1 22  1  0
  1 23  1  0
  1 24  1  0
  4 25  1  0
  7 26  1  0
  7 27  1  0
  8 28  1  0
  8 29  1  0
 10 30  1  0
 10 31  1  0
 11 32  1  0
 11 33  1  0
 15 34  1  0
 16 35  1  0
 17 36  1  0
 18 37  1  0
M  END
$$$$
