
     RDKit          3D

 35 37  0  0  0  0  0  0  0  0999 V2000
    7.3774    1.0488   -1.1910 C   0  0  0  0  0  0  0  0  0  0  0  0
    6.0110    0.8618   -0.8118 O   0  0  0  0  0  0  0  0  0  0  0  0
    5.3114   -0.0248   -1.5608 C   0  0  0  0  0  0  0  0  0  0  0  0
    5.7463   -0.6921   -2.4859 O   0  0  0  0  0  0  0  0  0  0  0  0
    3.8907   -0.0658   -1.1213 C   0  0  0  0  0  0  0  0  0  0  0  0
    3.4630    0.4828    0.0948 C   0  0  0  0  0  0  0  0  0  0  0  0
    2.1142    0.4153    0.4636 C   0  0  0  0  0  0  0  0  0  0  0  0
    1.1723   -0.1811   -0.3866 C   0  0  0  0  0  0  0  0  0  0  0  0
   -0.2516   -0.2972   -0.0330 C   0  0  0  0  0  0  0  0  0  0  0  0
   -1.0759    0.6810    0.4050 C   0  0  0  0  0  0  0  0  0  0  0  0
   -0.6340    2.0313    0.5633 C   0  0  0  0  0  0  0  0  0  0  0  0
   -0.2724    3.1209    0.7361 N   0  0  0  0  0  0  0  0  0  0  0  0
   -2.4496    0.3363    0.6527 C   0  0  0  0  0  0  0  0  0  0  0  0
   -3.1127   -0.6510    0.0746 N   0  0  0  0  0  0  0  0  0  0  0  0
   -4.4195   -0.7152    0.5250 C   0  0  0  0  0  0  0  0  0  0  0  0
   -5.3977   -1.6359    0.0975 C   0  0  0  0  0  0  0  0  0  0  0  0
   -6.6847   -1.5832    0.6443 C   0  0  0  0  0  0  0  0  0  0  0  0
   -7.0020   -0.6360    1.6099 C   0  0  0  0  0  0  0  0  0  0  0  0
   -6.0464    0.2845    2.0535 C   0  0  0  0  0  0  0  0  0  0  0  0
   -4.7590    0.2271    1.4957 C   0  0  0  0  0  0  0  0  0  0  0  0
   -3.3864    1.2047    1.8295 S   0  0  0  0  0  0  0  0  0  0  0  0
    1.6088   -0.7470   -1.5930 C   0  0  0  0  0  0  0  0  0  0  0  0
    2.9572   -0.6899   -1.9590 C   0  0  0  0  0  0  0  0  0  0  0  0
    7.5666    0.8287   -2.2463 H   0  0  0  0  0  0  0  0  0  0  0  0
    8.0105    0.4252   -0.5567 H   0  0  0  0  0  0  0  0  0  0  0  0
    7.6330    2.0961   -1.0128 H   0  0  0  0  0  0  0  0  0  0  0  0
    4.1696    0.9576    0.7720 H   0  0  0  0  0  0  0  0  0  0  0  0
    1.8212    0.8317    1.4265 H   0  0  0  0  0  0  0  0  0  0  0  0
   -0.6516   -1.2999   -0.1838 H   0  0  0  0  0  0  0  0  0  0  0  0
   -5.1474   -2.3697   -0.6643 H   0  0  0  0  0  0  0  0  0  0  0  0
   -7.4413   -2.2890    0.3049 H   0  0  0  0  0  0  0  0  0  0  0  0
   -8.0072   -0.6043    2.0231 H   0  0  0  0  0  0  0  0  0  0  0  0
   -6.2951    1.0220    2.8126 H   0  0  0  0  0  0  0  0  0  0  0  0
    0.9045   -1.2384   -2.2641 H   0  0  0  0  0  0  0  0  0  0  0  0
    3.2767   -1.1351   -2.9016 H   0  0  0  0  0  0  0  0  0  0  0  0
  1  2  1  0
  2  3  1  0
  3  4  2  0
  3  5  1  0
  5  6  2  0
  6  7  1  0
  7  8  2  0
  8  9  1  0
  9 10  2  3
 10 11  1  0
 11 12  3  0
 10 13  1  0
 13 14  2  0
 14 15  1  0
 15 16  2  0
 16 17  1  0
 17 18  2  0
 18 19  1  0
 19 20  2  0
 20 21  1  0
  8 22  1  0
 22 23  2  0
 23  5  1  0
 21 13  1  0
 20 15  1  0
  1 24  1  0
  1 25  1  0
  1 26  1  0
  6 27  1  0
  7 28  1  0
  9 29  1  0
 16 30  1  0
 17 31  1  0
 18 32  1  0
 19 33  1  0
 22 34  1  0
 23 35  1  0
M  END
$$$$
