
     RDKit          3D

 38 40  0  0  0  0  0  0  0  0999 V2000
    0.4172    1.5460    1.5957 O   0  0  0  0  0  0  0  0  0  0  0  0
    0.3788    1.1481    0.4333 C   0  0  0  0  0  0  0  0  0  0  0  0
    1.4711    1.2051   -0.3907 N   0  0  0  0  0  0  0  0  0  0  0  0
    2.7405    1.7039    0.0939 C   0  0  0  0  0  0  0  0  0  0  0  0
    3.6350    0.5727    0.5390 C   0  0  0  0  0  0  0  0  0  0  0  0
    4.5958    0.0348   -0.3303 C   0  0  0  0  0  0  0  0  0  0  0  0
    5.4045   -1.0280    0.0801 C   0  0  0  0  0  0  0  0  0  0  0  0
    5.2521   -1.5624    1.3581 C   0  0  0  0  0  0  0  0  0  0  0  0
    6.2474   -2.8732    1.8597 Cl  0  0  0  0  0  0  0  0  0  0  0  0
    4.2971   -1.0447    2.2294 C   0  0  0  0  0  0  0  0  0  0  0  0
    3.4893    0.0182    1.8198 C   0  0  0  0  0  0  0  0  0  0  0  0
   -0.7719    0.6268   -0.1347 N   0  0  0  0  0  0  0  0  0  0  0  0
   -0.8935    0.1094   -1.4977 C   0  0  0  0  0  0  0  0  0  0  0  0
   -2.2591    0.4174   -2.1076 C   0  0  0  0  0  0  0  0  0  0  0  0
   -3.3698   -0.0558   -1.2133 C   0  0  0  0  0  0  0  0  0  0  0  0
   -4.6157   -0.4067   -1.7497 C   0  0  0  0  0  0  0  0  0  0  0  0
   -5.6512   -0.8193   -0.9123 C   0  0  0  0  0  0  0  0  0  0  0  0
   -5.4532   -0.8730    0.4649 C   0  0  0  0  0  0  0  0  0  0  0  0
   -4.2200   -0.5097    1.0066 C   0  0  0  0  0  0  0  0  0  0  0  0
   -3.1677   -0.0953    0.1754 C   0  0  0  0  0  0  0  0  0  0  0  0
   -1.8525    0.3112    0.7991 C   0  0  0  0  0  0  0  0  0  0  0  0
    1.5425    0.4653   -1.0683 H   0  0  0  0  0  0  0  0  0  0  0  0
    2.5974    2.4233    0.9080 H   0  0  0  0  0  0  0  0  0  0  0  0
    3.2075    2.2465   -0.7356 H   0  0  0  0  0  0  0  0  0  0  0  0
    4.7232    0.4417   -1.3311 H   0  0  0  0  0  0  0  0  0  0  0  0
    6.1490   -1.4338   -0.5996 H   0  0  0  0  0  0  0  0  0  0  0  0
    4.1726   -1.4620    3.2249 H   0  0  0  0  0  0  0  0  0  0  0  0
    2.7379    0.4134    2.5030 H   0  0  0  0  0  0  0  0  0  0  0  0
   -0.7206   -0.9728   -1.4475 H   0  0  0  0  0  0  0  0  0  0  0  0
   -0.1273    0.5376   -2.1499 H   0  0  0  0  0  0  0  0  0  0  0  0
   -2.3269   -0.0646   -3.0897 H   0  0  0  0  0  0  0  0  0  0  0  0
   -2.3699    1.4989   -2.2529 H   0  0  0  0  0  0  0  0  0  0  0  0
   -4.7863   -0.3596   -2.8227 H   0  0  0  0  0  0  0  0  0  0  0  0
   -6.6145   -1.0941   -1.3338 H   0  0  0  0  0  0  0  0  0  0  0  0
   -6.2612   -1.1909    1.1186 H   0  0  0  0  0  0  0  0  0  0  0  0
   -4.0828   -0.5457    2.0855 H   0  0  0  0  0  0  0  0  0  0  0  0
   -2.0219    1.1833    1.4426 H   0  0  0  0  0  0  0  0  0  0  0  0
   -1.4928   -0.5119    1.4300 H   0  0  0  0  0  0  0  0  0  0  0  0
  1  2  2  0
  2  3  1  0
  3  4  1  0
  4  5  1  0
  5  6  2  0
  6  7  1  0
  7  8  2  0
  8  9  1  0
  8 10  1  0
 10 11  2  0
  2 12  1  0
 12 13  1  0
 13 14  1  0
 14 15  1  0
 15 16  2  0
 16 17  1  0
 17 18  2  0
 18 19  1  0
 19 20  2  0
 20 21  1  0
 11  5  1  0
 21 12  1  0
 20 15  1  0
  3 22  1  0
  4 23  1  0
  4 24  1  0
  6 25  1  0
  7 26  1  0
 10 27  1  0
 11 28  1  0
 13 29  1  0
 13 30  1  0
 14 31  1  0
 14 32  1  0
 16 33  1  0
 17 34  1  0
 18 35  1  0
 19 36  1  0
 21 37  1  0
 21 38  1  0
M  END
$$$$
