
     RDKit          3D

 31 33  0  0  0  0  0  0  0  0999 V2000
   -1.6108    3.3208    1.0857 N   0  0  0  0  0  0  0  0  0  0  0  0
   -2.2304    2.2878    0.4375 C   0  0  0  0  0  0  0  0  0  0  0  0
   -3.3668    2.3984    0.0027 O   0  0  0  0  0  0  0  0  0  0  0  0
   -1.4477    1.0348    0.3100 C   0  0  0  0  0  0  0  0  0  0  0  0
   -0.1298    1.1431   -0.1442 C   0  0  0  0  0  0  0  0  0  0  0  0
    0.6236   -0.0097   -0.2856 C   0  0  0  0  0  0  0  0  0  0  0  0
    2.0234   -0.0079   -0.7628 C   0  0  0  0  0  0  0  0  0  0  0  0
    2.8993    1.0675   -0.5212 C   0  0  0  0  0  0  0  0  0  0  0  0
    4.2192    1.0515   -0.9861 C   0  0  0  0  0  0  0  0  0  0  0  0
    4.6950   -0.0434   -1.7009 C   0  0  0  0  0  0  0  0  0  0  0  0
    3.8548   -1.1241   -1.9470 C   0  0  0  0  0  0  0  0  0  0  0  0
    2.5369   -1.1051   -1.4806 C   0  0  0  0  0  0  0  0  0  0  0  0
    0.1009   -1.2273   -0.0005 N   0  0  0  0  0  0  0  0  0  0  0  0
   -1.1669   -1.3349    0.4270 C   0  0  0  0  0  0  0  0  0  0  0  0
   -1.6525   -2.6056    0.7067 C   0  0  0  0  0  0  0  0  0  0  0  0
   -2.9547   -2.8172    1.1651 C   0  0  0  0  0  0  0  0  0  0  0  0
   -3.7934   -1.7292    1.3497 C   0  0  0  0  0  0  0  0  0  0  0  0
   -5.5561   -1.9938    1.9745 Br  0  0  0  0  0  0  0  0  0  0  0  0
   -3.3351   -0.4426    1.0774 C   0  0  0  0  0  0  0  0  0  0  0  0
   -2.0132   -0.2252    0.6071 C   0  0  0  0  0  0  0  0  0  0  0  0
   -0.7811    3.1868    1.6472 H   0  0  0  0  0  0  0  0  0  0  0  0
   -2.1794    4.1375    1.2745 H   0  0  0  0  0  0  0  0  0  0  0  0
    0.2758    2.1107   -0.4197 H   0  0  0  0  0  0  0  0  0  0  0  0
    2.5734    1.9324    0.0511 H   0  0  0  0  0  0  0  0  0  0  0  0
    4.8764    1.8935   -0.7840 H   0  0  0  0  0  0  0  0  0  0  0  0
    5.7203   -0.0574   -2.0610 H   0  0  0  0  0  0  0  0  0  0  0  0
    4.2202   -1.9855   -2.4999 H   0  0  0  0  0  0  0  0  0  0  0  0
    1.8984   -1.9639   -1.6851 H   0  0  0  0  0  0  0  0  0  0  0  0
   -0.9944   -3.4609    0.5646 H   0  0  0  0  0  0  0  0  0  0  0  0
   -3.2942   -3.8286    1.3715 H   0  0  0  0  0  0  0  0  0  0  0  0
   -4.0111    0.3972    1.2265 H   0  0  0  0  0  0  0  0  0  0  0  0
  1  2  1  0
  2  3  2  0
  2  4  1  0
  4  5  2  0
  5  6  1  0
  6  7  1  0
  7  8  2  0
  8  9  1  0
  9 10  2  0
 10 11  1  0
 11 12  2  0
  6 13  2  0
 13 14  1  0
 14 15  2  0
 15 16  1  0
 16 17  2  0
 17 18  1  0
 17 19  1  0
 19 20  2  0
 20  4  1  0
 12  7  1  0
 20 14  1  0
  1 21  1  0
  1 22  1  0
  5 23  1  0
  8 24  1  0
  9 25  1  0
 10 26  1  0
 11 27  1  0
 12 28  1  0
 15 29  1  0
 16 30  1  0
 19 31  1  0
M  END
$$$$
