
     RDKit          3D

 57 61  0  0  0  0  0  0  0  0999 V2000
    4.1674   -3.0690   -3.7574 O   0  0  0  0  0  0  0  0  0  0  0  0
    3.5835   -2.2055   -3.1144 C   0  0  0  0  0  0  0  0  0  0  0  0
    2.2270   -2.2987   -2.8208 N   0  0  0  0  0  0  0  0  0  0  0  0
    1.5109   -1.3305   -2.1230 C   0  0  0  0  0  0  0  0  0  0  0  0
    0.0342   -1.6323   -1.9141 C   0  0  0  0  0  0  0  0  0  0  0  0
   -0.8231   -0.5287   -2.5517 C   0  0  0  0  0  0  0  0  0  0  0  0
   -1.1713    0.5620   -1.5441 C   0  0  0  0  0  0  0  0  0  0  0  0
   -1.9774    0.0032   -0.4243 N   0  0  0  0  0  0  0  0  0  0  0  0
   -2.1839    1.0892    0.8688 S   0  0  0  0  0  6  0  0  0  0  0  0
   -2.4628    2.4117    0.3568 O   0  0  0  0  0  0  0  0  0  0  0  0
   -1.0755    0.8646    1.7767 O   0  0  0  0  0  0  0  0  0  0  0  0
   -3.6747    0.5121    1.6588 C   0  0  0  0  0  0  0  0  0  0  0  0
   -3.6274    0.3323    3.0517 C   0  0  0  0  0  0  0  0  0  0  0  0
   -4.7455   -0.1302    3.7414 C   0  0  0  0  0  0  0  0  0  0  0  0
   -5.9136   -0.4180    3.0475 C   0  0  0  0  0  0  0  0  0  0  0  0
   -5.9646   -0.2400    1.6639 C   0  0  0  0  0  0  0  0  0  0  0  0
   -4.8517    0.2375    0.9388 C   0  0  0  0  0  0  0  0  0  0  0  0
   -4.9862    0.3661   -0.5618 C   0  0  0  0  0  0  0  0  0  0  0  0
   -4.5328   -0.7407   -1.2146 F   0  0  0  0  0  0  0  0  0  0  0  0
   -4.3621    1.4327   -1.1175 F   0  0  0  0  0  0  0  0  0  0  0  0
   -6.2925    0.4862   -0.9521 F   0  0  0  0  0  0  0  0  0  0  0  0
   -1.6841   -1.4139   -0.0706 C   0  0  0  0  0  0  0  0  0  0  0  0
   -0.2519   -1.7957   -0.4130 C   0  0  0  0  0  0  0  0  0  0  0  0
    2.0309   -0.2277   -1.6589 N   0  0  0  0  0  0  0  0  0  0  0  0
    3.3603   -0.1310   -1.9000 C   0  0  0  0  0  0  0  0  0  0  0  0
    4.1720   -1.0071   -2.5800 C   0  0  0  0  0  0  0  0  0  0  0  0
    5.4540   -0.5495   -2.6062 N   0  0  0  0  0  0  0  0  0  0  0  0
    5.4773    0.6032   -1.9336 N   0  0  0  0  0  0  0  0  0  0  0  0
    4.2193    0.8451   -1.4841 N   0  0  0  0  0  0  0  0  0  0  0  0
    3.9189    2.0177   -0.6875 C   0  0  0  0  0  0  0  0  0  0  0  0
    3.7875    1.6698    0.7749 C   0  0  0  0  0  0  0  0  0  0  0  0
    2.5200    1.5243    1.3650 C   0  0  0  0  0  0  0  0  0  0  0  0
    2.3956    1.1778    2.7127 C   0  0  0  0  0  0  0  0  0  0  0  0
    3.5353    0.9704    3.4853 C   0  0  0  0  0  0  0  0  0  0  0  0
    4.7899    1.1100    2.9037 C   0  0  0  0  0  0  0  0  0  0  0  0
    5.8866    0.9084    3.6472 F   0  0  0  0  0  0  0  0  0  0  0  0
    4.9272    1.4540    1.5621 C   0  0  0  0  0  0  0  0  0  0  0  0
    1.7794   -3.1320   -3.1730 H   0  0  0  0  0  0  0  0  0  0  0  0
   -0.2059   -2.5757   -2.4230 H   0  0  0  0  0  0  0  0  0  0  0  0
   -1.7542   -0.9753   -2.9265 H   0  0  0  0  0  0  0  0  0  0  0  0
   -0.3181   -0.0862   -3.4190 H   0  0  0  0  0  0  0  0  0  0  0  0
   -1.7675    1.3290   -2.0524 H   0  0  0  0  0  0  0  0  0  0  0  0
   -0.2638    1.0383   -1.1570 H   0  0  0  0  0  0  0  0  0  0  0  0
   -2.7198    0.5555    3.6102 H   0  0  0  0  0  0  0  0  0  0  0  0
   -4.7049   -0.2651    4.8195 H   0  0  0  0  0  0  0  0  0  0  0  0
   -6.7889   -0.7812    3.5825 H   0  0  0  0  0  0  0  0  0  0  0  0
   -6.8935   -0.4774    1.1449 H   0  0  0  0  0  0  0  0  0  0  0  0
   -1.8681   -1.6034    0.9922 H   0  0  0  0  0  0  0  0  0  0  0  0
   -2.3866   -2.0531   -0.6194 H   0  0  0  0  0  0  0  0  0  0  0  0
    0.4339   -1.1905    0.1942 H   0  0  0  0  0  0  0  0  0  0  0  0
   -0.0668   -2.8381   -0.1250 H   0  0  0  0  0  0  0  0  0  0  0  0
    4.7142    2.7568   -0.8396 H   0  0  0  0  0  0  0  0  0  0  0  0
    2.9920    2.4554   -1.0777 H   0  0  0  0  0  0  0  0  0  0  0  0
    1.6141    1.6719    0.7783 H   0  0  0  0  0  0  0  0  0  0  0  0
    1.4066    1.0689    3.1532 H   0  0  0  0  0  0  0  0  0  0  0  0
    3.4543    0.7010    4.5329 H   0  0  0  0  0  0  0  0  0  0  0  0
    5.9270    1.5411    1.1410 H   0  0  0  0  0  0  0  0  0  0  0  0
  1  2  2  0
  2  3  1  0
  3  4  1  0
  4  5  1  0
  5  6  1  0
  6  7  1  0
  7  8  1  0
  8  9  1  0
  9 10  2  0
  9 11  2  0
  9 12  1  0
 12 13  2  0
 13 14  1  0
 14 15  2  0
 15 16  1  0
 16 17  2  0
 17 18  1  0
 18 19  1  0
 18 20  1  0
 18 21  1  0
  8 22  1  0
 22 23  1  0
  4 24  2  0
 24 25  1  0
 25 26  2  0
 26 27  1  0
 27 28  2  0
 28 29  1  0
 29 30  1  0
 30 31  1  0
 31 32  2  0
 32 33  1  0
 33 34  2  0
 34 35  1  0
 35 36  1  0
 35 37  2  0
 26  2  1  0
 37 31  1  0
 23  5  1  0
 29 25  1  0
 17 12  1  0
  3 38  1  0
  5 39  1  0
  6 40  1  0
  6 41  1  0
  7 42  1  0
  7 43  1  0
 13 44  1  0
 14 45  1  0
 15 46  1  0
 16 47  1  0
 22 48  1  0
 22 49  1  0
 23 50  1  0
 23 51  1  0
 30 52  1  0
 30 53  1  0
 32 54  1  0
 33 55  1  0
 34 56  1  0
 37 57  1  0
M  END
$$$$
