
     RDKit          3D

 44 46  0  0  0  0  0  0  0  0999 V2000
   -1.5620    3.0387   -1.1506 C   0  0  0  0  0  0  0  0  0  0  0  0
   -2.4885    2.3254   -0.1625 C   0  0  0  0  0  0  0  0  0  0  0  0
   -3.9541    2.6504   -0.4597 C   0  0  0  0  0  0  0  0  0  0  0  0
   -2.2312    0.8277   -0.1495 C   0  0  0  0  0  0  0  0  0  0  0  0
   -1.7552    0.2140    1.0214 C   0  0  0  0  0  0  0  0  0  0  0  0
   -1.4975   -1.1576    1.0556 C   0  0  0  0  0  0  0  0  0  0  0  0
   -1.7014   -1.9237   -0.0935 C   0  0  0  0  0  0  0  0  0  0  0  0
   -1.3684   -3.6699   -0.0649 S   0  0  0  0  0  6  0  0  0  0  0  0
   -1.3589   -4.1075    1.3143 O   0  0  0  0  0  0  0  0  0  0  0  0
   -2.2343   -4.2941   -1.0433 O   0  0  0  0  0  0  0  0  0  0  0  0
    0.1965   -3.7628   -0.6985 N   0  0  0  0  0  0  0  0  0  0  0  0
    1.2424   -3.0286   -0.0733 C   0  0  0  0  0  0  0  0  0  0  0  0
    1.6817   -3.3721    1.2028 C   0  0  0  0  0  0  0  0  0  0  0  0
    2.6949   -2.6318    1.8090 C   0  0  0  0  0  0  0  0  0  0  0  0
    3.2552   -1.5421    1.1444 C   0  0  0  0  0  0  0  0  0  0  0  0
    4.2426   -0.8779    1.8187 O   0  0  0  0  0  0  0  0  0  0  0  0
    2.8196   -1.1790   -0.1379 C   0  0  0  0  0  0  0  0  0  0  0  0
    3.5384    0.1459   -1.0968 S   0  0  0  0  0  0  0  0  0  0  0  0
    3.1736    1.5484   -0.1340 C   0  0  0  0  0  0  0  0  0  0  0  0
    2.3144    2.5332   -0.5285 N   0  0  0  0  0  0  0  0  0  0  0  0
    2.3663    3.3871    0.4665 C   0  0  0  0  0  0  0  0  0  0  0  0
    3.2299    2.9313    1.4118 N   0  0  0  0  0  0  0  0  0  0  0  0
    3.7717    1.7558    1.0470 N   0  0  0  0  0  0  0  0  0  0  0  0
    1.8086   -1.9411   -0.7433 C   0  0  0  0  0  0  0  0  0  0  0  0
   -2.1905   -1.3380   -1.2630 C   0  0  0  0  0  0  0  0  0  0  0  0
   -2.4495    0.0342   -1.2881 C   0  0  0  0  0  0  0  0  0  0  0  0
   -0.5120    2.8079   -0.9402 H   0  0  0  0  0  0  0  0  0  0  0  0
   -1.6843    4.1247   -1.0794 H   0  0  0  0  0  0  0  0  0  0  0  0
   -1.7652    2.7466   -2.1874 H   0  0  0  0  0  0  0  0  0  0  0  0
   -2.2664    2.7268    0.8359 H   0  0  0  0  0  0  0  0  0  0  0  0
   -4.1252    3.7295   -0.3880 H   0  0  0  0  0  0  0  0  0  0  0  0
   -4.2501    2.3334   -1.4661 H   0  0  0  0  0  0  0  0  0  0  0  0
   -4.6213    2.1587    0.2561 H   0  0  0  0  0  0  0  0  0  0  0  0
   -1.5801    0.8031    1.9189 H   0  0  0  0  0  0  0  0  0  0  0  0
   -1.1330   -1.6143    1.9729 H   0  0  0  0  0  0  0  0  0  0  0  0
    0.1895   -3.8125   -1.7160 H   0  0  0  0  0  0  0  0  0  0  0  0
    1.2515   -4.2217    1.7287 H   0  0  0  0  0  0  0  0  0  0  0  0
    3.0482   -2.9019    2.8010 H   0  0  0  0  0  0  0  0  0  0  0  0
    4.3304    0.0192    1.4303 H   0  0  0  0  0  0  0  0  0  0  0  0
    1.8224    4.3170    0.5530 H   0  0  0  0  0  0  0  0  0  0  0  0
    3.4875    3.3516    2.2980 H   0  0  0  0  0  0  0  0  0  0  0  0
    1.4603   -1.6802   -1.7398 H   0  0  0  0  0  0  0  0  0  0  0  0
   -2.3746   -1.9361   -2.1526 H   0  0  0  0  0  0  0  0  0  0  0  0
   -2.8216    0.4820   -2.2073 H   0  0  0  0  0  0  0  0  0  0  0  0
  1  2  1  0
  2  3  1  0
  2  4  1  0
  4  5  2  0
  5  6  1  0
  6  7  2  0
  7  8  1  0
  8  9  2  0
  8 10  2  0
  8 11  1  0
 11 12  1  0
 12 13  2  0
 13 14  1  0
 14 15  2  0
 15 16  1  0
 15 17  1  0
 17 18  1  0
 18 19  1  0
 19 20  1  0
 20 21  2  0
 21 22  1  0
 22 23  1  0
 17 24  2  0
  7 25  1  0
 25 26  2  0
 26  4  1  0
 24 12  1  0
 23 19  2  0
  1 27  1  0
  1 28  1  0
  1 29  1  0
  2 30  1  0
  3 31  1  0
  3 32  1  0
  3 33  1  0
  5 34  1  0
  6 35  1  0
 11 36  1  0
 13 37  1  0
 14 38  1  0
 16 39  1  0
 21 40  1  0
 22 41  1  0
 24 42  1  0
 25 43  1  0
 26 44  1  0
M  END
$$$$
