
     RDKit          3D

 55 58  0  0  0  0  0  0  0  0999 V2000
    3.9354   -3.0654    3.1911 C   0  0  0  0  0  0  0  0  0  0  0  0
    4.5931   -3.1951    1.8305 C   0  0  0  0  0  0  0  0  0  0  0  0
    4.9180   -1.8963    1.3110 O   0  0  0  0  0  0  0  0  0  0  0  0
    3.9299   -1.2630    0.6316 C   0  0  0  0  0  0  0  0  0  0  0  0
    2.8057   -1.7046    0.4374 O   0  0  0  0  0  0  0  0  0  0  0  0
    4.3793    0.0749    0.1368 C   0  0  0  0  0  0  0  0  0  0  0  0
    5.7048    0.4953    0.3576 C   0  0  0  0  0  0  0  0  0  0  0  0
    6.1422    1.7363   -0.1014 C   0  0  0  0  0  0  0  0  0  0  0  0
    5.2628    2.5664   -0.7852 C   0  0  0  0  0  0  0  0  0  0  0  0
    3.9438    2.1625   -1.0124 C   0  0  0  0  0  0  0  0  0  0  0  0
    3.4792    0.9211   -0.5584 C   0  0  0  0  0  0  0  0  0  0  0  0
    2.1441    0.4948   -0.7798 N   0  0  0  0  0  0  0  0  0  0  0  0
    1.1188    1.1673   -1.4082 C   0  0  0  0  0  0  0  0  0  0  0  0
    1.1457    2.3010   -1.8710 O   0  0  0  0  0  0  0  0  0  0  0  0
   -0.1501    0.3797   -1.4390 C   0  0  0  0  0  0  0  0  0  0  0  0
   -1.2014    0.9808   -0.8628 C   0  0  0  0  0  0  0  0  0  0  0  0
   -2.4573    0.3915   -0.7138 N   0  0  0  0  0  0  0  0  0  0  0  0
   -3.5383    1.1269   -0.0871 C   0  0  0  0  0  0  0  0  0  0  0  0
   -3.5942    2.5289   -0.1621 C   0  0  0  0  0  0  0  0  0  0  0  0
   -4.6274    3.2499    0.4505 C   0  0  0  0  0  0  0  0  0  0  0  0
   -5.6332    2.5946    1.1566 C   0  0  0  0  0  0  0  0  0  0  0  0
   -6.5799    3.4136    1.7045 O   0  0  0  0  0  0  0  0  0  0  0  0
   -7.6461    2.7829    2.4028 C   0  0  0  0  0  0  0  0  0  0  0  0
   -5.5943    1.2071    1.2452 C   0  0  0  0  0  0  0  0  0  0  0  0
   -4.5589    0.4855    0.6298 C   0  0  0  0  0  0  0  0  0  0  0  0
   -2.6757   -0.9312   -1.1764 C   0  0  0  0  0  0  0  0  0  0  0  0
   -3.7371   -1.5513   -1.1193 O   0  0  0  0  0  0  0  0  0  0  0  0
   -1.5301   -1.6202   -1.8418 C   0  0  0  0  0  0  0  0  0  0  0  0
   -1.7105   -2.9185   -2.3470 C   0  0  0  0  0  0  0  0  0  0  0  0
   -0.6729   -3.5636   -3.0169 C   0  0  0  0  0  0  0  0  0  0  0  0
    0.5426   -2.9114   -3.1959 C   0  0  0  0  0  0  0  0  0  0  0  0
    0.7263   -1.6197   -2.6947 C   0  0  0  0  0  0  0  0  0  0  0  0
   -0.3014   -0.9664   -1.9951 C   0  0  0  0  0  0  0  0  0  0  0  0
    2.9887   -2.5207    3.1200 H   0  0  0  0  0  0  0  0  0  0  0  0
    3.7396   -4.0512    3.6223 H   0  0  0  0  0  0  0  0  0  0  0  0
    4.5762   -2.5007    3.8760 H   0  0  0  0  0  0  0  0  0  0  0  0
    5.5348   -3.7456    1.9271 H   0  0  0  0  0  0  0  0  0  0  0  0
    3.9630   -3.7561    1.1311 H   0  0  0  0  0  0  0  0  0  0  0  0
    6.4144   -0.1362    0.8876 H   0  0  0  0  0  0  0  0  0  0  0  0
    7.1672    2.0541    0.0737 H   0  0  0  0  0  0  0  0  0  0  0  0
    5.5976    3.5366   -1.1466 H   0  0  0  0  0  0  0  0  0  0  0  0
    3.3010    2.8507   -1.5533 H   0  0  0  0  0  0  0  0  0  0  0  0
    1.9197   -0.4284   -0.3989 H   0  0  0  0  0  0  0  0  0  0  0  0
   -1.0721    1.9695   -0.4294 H   0  0  0  0  0  0  0  0  0  0  0  0
   -2.8667    3.0961   -0.7362 H   0  0  0  0  0  0  0  0  0  0  0  0
   -4.6502    4.3336    0.3631 H   0  0  0  0  0  0  0  0  0  0  0  0
   -8.2189    2.1251    1.7405 H   0  0  0  0  0  0  0  0  0  0  0  0
   -7.2762    2.2388    3.2783 H   0  0  0  0  0  0  0  0  0  0  0  0
   -8.3219    3.5662    2.7594 H   0  0  0  0  0  0  0  0  0  0  0  0
   -6.3476    0.6448    1.7869 H   0  0  0  0  0  0  0  0  0  0  0  0
   -4.5628   -0.5936    0.7607 H   0  0  0  0  0  0  0  0  0  0  0  0
   -2.6658   -3.4263   -2.2276 H   0  0  0  0  0  0  0  0  0  0  0  0
   -0.8191   -4.5675   -3.4080 H   0  0  0  0  0  0  0  0  0  0  0  0
    1.3506   -3.4058   -3.7307 H   0  0  0  0  0  0  0  0  0  0  0  0
    1.6853   -1.1374   -2.8713 H   0  0  0  0  0  0  0  0  0  0  0  0
  1  2  1  0
  2  3  1  0
  3  4  1  0
  4  5  2  0
  4  6  1  0
  6  7  2  0
  7  8  1  0
  8  9  2  0
  9 10  1  0
 10 11  2  0
 11 12  1  0
 12 13  1  0
 13 14  2  0
 13 15  1  0
 15 16  2  0
 16 17  1  0
 17 18  1  0
 18 19  2  0
 19 20  1  0
 20 21  2  0
 21 22  1  0
 22 23  1  0
 21 24  1  0
 24 25  2  0
 17 26  1  0
 26 27  2  0
 26 28  1  0
 28 29  2  0
 29 30  1  0
 30 31  2  0
 31 32  1  0
 32 33  2  0
 11  6  1  0
 33 15  1  0
 25 18  1  0
 33 28  1  0
  1 34  1  0
  1 35  1  0
  1 36  1  0
  2 37  1  0
  2 38  1  0
  7 39  1  0
  8 40  1  0
  9 41  1  0
 10 42  1  0
 12 43  1  0
 16 44  1  0
 19 45  1  0
 20 46  1  0
 23 47  1  0
 23 48  1  0
 23 49  1  0
 24 50  1  0
 25 51  1  0
 29 52  1  0
 30 53  1  0
 31 54  1  0
 32 55  1  0
M  END
$$$$
