
     RDKit          3D

 44 45  0  0  0  0  0  0  0  0999 V2000
   -5.8164    0.3314    2.6453 C   0  0  0  0  0  0  0  0  0  0  0  0
   -6.6631   -0.5691    1.7581 C   0  0  0  0  0  0  0  0  0  0  0  0
   -5.8329   -1.5972    0.9960 C   0  0  0  0  0  0  0  0  0  0  0  0
   -4.9856   -0.9372    0.0422 O   0  0  0  0  0  0  0  0  0  0  0  0
   -3.6573   -0.9311    0.3084 C   0  0  0  0  0  0  0  0  0  0  0  0
   -3.1121   -1.4268    1.2818 O   0  0  0  0  0  0  0  0  0  0  0  0
   -2.9130   -0.2145   -0.7624 C   0  0  0  0  0  0  0  0  0  0  0  0
   -3.5503    0.3572   -1.8688 C   0  0  0  0  0  0  0  0  0  0  0  0
   -2.7964    1.0174   -2.8385 C   0  0  0  0  0  0  0  0  0  0  0  0
   -1.4071    1.1109   -2.7103 C   0  0  0  0  0  0  0  0  0  0  0  0
   -0.7571    0.5462   -1.6122 C   0  0  0  0  0  0  0  0  0  0  0  0
    0.6341    0.5974   -1.4105 N   0  0  0  0  0  0  0  0  0  0  0  0
    1.5957    1.1845   -2.2122 C   0  0  0  0  0  0  0  0  0  0  0  0
    1.4042    1.7802   -3.2688 O   0  0  0  0  0  0  0  0  0  0  0  0
    3.0152    1.0308   -1.6547 C   0  0  0  0  0  0  0  0  0  0  0  0
    3.0168    0.3097   -0.4235 O   0  0  0  0  0  0  0  0  0  0  0  0
    4.2286    0.1064    0.1763 C   0  0  0  0  0  0  0  0  0  0  0  0
    4.1689   -0.6053    1.3799 C   0  0  0  0  0  0  0  0  0  0  0  0
    5.3308   -0.8872    2.1035 C   0  0  0  0  0  0  0  0  0  0  0  0
    6.5658   -0.4498    1.6135 C   0  0  0  0  0  0  0  0  0  0  0  0
    7.7936   -0.7398    2.3646 N   0  0  0  0  0  4  0  0  0  0  0  0
    7.6854   -1.3732    3.4241 O   0  0  0  0  0  0  0  0  0  0  0  0
    8.8657   -0.3335    1.8941 O   0  0  0  0  0  1  0  0  0  0  0  0
    6.6377    0.2633    0.4101 C   0  0  0  0  0  0  0  0  0  0  0  0
    5.4663    0.5395   -0.3058 C   0  0  0  0  0  0  0  0  0  0  0  0
   -1.5180   -0.1158   -0.6410 C   0  0  0  0  0  0  0  0  0  0  0  0
   -6.4589    1.0114    3.2137 H   0  0  0  0  0  0  0  0  0  0  0  0
   -5.2317   -0.2582    3.3585 H   0  0  0  0  0  0  0  0  0  0  0  0
   -5.1272    0.9410    2.0531 H   0  0  0  0  0  0  0  0  0  0  0  0
   -7.2109    0.0604    1.0472 H   0  0  0  0  0  0  0  0  0  0  0  0
   -7.4011   -1.0907    2.3776 H   0  0  0  0  0  0  0  0  0  0  0  0
   -6.5031   -2.2471    0.4230 H   0  0  0  0  0  0  0  0  0  0  0  0
   -5.2748   -2.2422    1.6840 H   0  0  0  0  0  0  0  0  0  0  0  0
   -4.6289    0.2979   -1.9900 H   0  0  0  0  0  0  0  0  0  0  0  0
   -3.2881    1.4632   -3.7003 H   0  0  0  0  0  0  0  0  0  0  0  0
   -0.8610    1.6343   -3.4896 H   0  0  0  0  0  0  0  0  0  0  0  0
    0.9977    0.1506   -0.5725 H   0  0  0  0  0  0  0  0  0  0  0  0
    3.4087    2.0420   -1.4995 H   0  0  0  0  0  0  0  0  0  0  0  0
    3.5979    0.4895   -2.4090 H   0  0  0  0  0  0  0  0  0  0  0  0
    3.2077   -0.9454    1.7607 H   0  0  0  0  0  0  0  0  0  0  0  0
    5.2538   -1.4424    3.0361 H   0  0  0  0  0  0  0  0  0  0  0  0
    7.5917    0.6100    0.0164 H   0  0  0  0  0  0  0  0  0  0  0  0
    5.5602    1.0945   -1.2346 H   0  0  0  0  0  0  0  0  0  0  0  0
   -1.0315   -0.5632    0.2237 H   0  0  0  0  0  0  0  0  0  0  0  0
  1  2  1  0
  2  3  1  0
  3  4  1  0
  4  5  1  0
  5  6  2  0
  5  7  1  0
  7  8  2  0
  8  9  1  0
  9 10  2  0
 10 11  1  0
 11 12  1  0
 12 13  1  0
 13 14  2  0
 13 15  1  0
 15 16  1  0
 16 17  1  0
 17 18  2  0
 18 19  1  0
 19 20  2  0
 20 21  1  0
 21 22  2  0
 21 23  1  0
 20 24  1  0
 24 25  2  0
 11 26  2  0
 26  7  1  0
 25 17  1  0
  1 27  1  0
  1 28  1  0
  1 29  1  0
  2 30  1  0
  2 31  1  0
  3 32  1  0
  3 33  1  0
  8 34  1  0
  9 35  1  0
 10 36  1  0
 12 37  1  0
 15 38  1  0
 15 39  1  0
 18 40  1  0
 19 41  1  0
 24 42  1  0
 25 43  1  0
 26 44  1  0
M  CHG  2  21   1  23  -1
M  END
$$$$
