
     RDKit          3D

 34 34  0  0  0  0  0  0  0  0999 V2000
    4.9497    0.6777   -1.9342 C   0  0  0  0  0  0  0  0  0  0  0  0
    4.1234   -0.0964   -0.9191 C   0  0  0  0  0  0  0  0  0  0  0  0
    4.1146    0.6009    0.4430 C   0  0  0  0  0  0  0  0  0  0  0  0
    3.3215   -0.1823    1.4874 C   0  0  0  0  0  0  0  0  0  0  0  0
    1.9547   -0.3486    1.0810 O   0  0  0  0  0  0  0  0  0  0  0  0
    1.1186    0.6736    1.3867 C   0  0  0  0  0  0  0  0  0  0  0  0
    1.4220    1.7001    1.9740 O   0  0  0  0  0  0  0  0  0  0  0  0
   -0.2582    0.3867    0.8999 C   0  0  0  0  0  0  0  0  0  0  0  0
   -1.2585    1.3340    1.1448 C   0  0  0  0  0  0  0  0  0  0  0  0
   -2.5677    1.1096    0.7048 C   0  0  0  0  0  0  0  0  0  0  0  0
   -2.8994   -0.0627    0.0139 C   0  0  0  0  0  0  0  0  0  0  0  0
   -4.2404   -0.2105   -0.3951 N   0  0  0  0  0  0  0  0  0  0  0  0
   -4.8006   -1.2762   -1.0767 C   0  0  0  0  0  0  0  0  0  0  0  0
   -6.2731   -1.0751   -1.3358 C   0  0  0  0  0  0  0  0  0  0  0  0
   -4.2351   -2.3024   -1.4356 O   0  0  0  0  0  0  0  0  0  0  0  0
   -1.8990   -1.0055   -0.2301 C   0  0  0  0  0  0  0  0  0  0  0  0
   -0.5863   -0.7847    0.2090 C   0  0  0  0  0  0  0  0  0  0  0  0
    4.5433    1.6827   -2.0861 H   0  0  0  0  0  0  0  0  0  0  0  0
    4.9464    0.1604   -2.8986 H   0  0  0  0  0  0  0  0  0  0  0  0
    5.9889    0.7731   -1.6036 H   0  0  0  0  0  0  0  0  0  0  0  0
    4.5355   -1.1069   -0.8160 H   0  0  0  0  0  0  0  0  0  0  0  0
    3.1004   -0.1999   -1.2984 H   0  0  0  0  0  0  0  0  0  0  0  0
    5.1432    0.7287    0.8001 H   0  0  0  0  0  0  0  0  0  0  0  0
    3.6818    1.6012    0.3250 H   0  0  0  0  0  0  0  0  0  0  0  0
    3.7449   -1.1858    1.6053 H   0  0  0  0  0  0  0  0  0  0  0  0
    3.3807    0.3022    2.4692 H   0  0  0  0  0  0  0  0  0  0  0  0
   -1.0238    2.2527    1.6798 H   0  0  0  0  0  0  0  0  0  0  0  0
   -3.3191    1.8673    0.9128 H   0  0  0  0  0  0  0  0  0  0  0  0
   -4.8632    0.5503   -0.1539 H   0  0  0  0  0  0  0  0  0  0  0  0
   -6.4821   -0.0368   -1.6091 H   0  0  0  0  0  0  0  0  0  0  0  0
   -6.8388   -1.3419   -0.4393 H   0  0  0  0  0  0  0  0  0  0  0  0
   -6.5870   -1.7141   -2.1664 H   0  0  0  0  0  0  0  0  0  0  0  0
   -2.1033   -1.9297   -0.7626 H   0  0  0  0  0  0  0  0  0  0  0  0
    0.1658   -1.5418   -0.0005 H   0  0  0  0  0  0  0  0  0  0  0  0
  1  2  1  0
  2  3  1  0
  3  4  1  0
  4  5  1  0
  5  6  1  0
  6  7  2  0
  6  8  1  0
  8  9  2  0
  9 10  1  0
 10 11  2  0
 11 12  1  0
 12 13  1  0
 13 14  1  0
 13 15  2  0
 11 16  1  0
 16 17  2  0
 17  8  1  0
  1 18  1  0
  1 19  1  0
  1 20  1  0
  2 21  1  0
  2 22  1  0
  3 23  1  0
  3 24  1  0
  4 25  1  0
  4 26  1  0
  9 27  1  0
 10 28  1  0
 12 29  1  0
 14 30  1  0
 14 31  1  0
 14 32  1  0
 16 33  1  0
 17 34  1  0
M  END
$$$$
