
     RDKit          3D

 35 35  0  0  0  0  0  0  0  0999 V2000
   -3.5147    1.0856    0.6548 C   0  0  0  0  0  0  0  0  0  0  0  0
   -3.2498   -0.1540   -0.2085 C   0  0  0  0  0  0  0  0  0  0  0  0
   -4.5826   -0.7478   -0.6891 C   0  0  0  0  0  0  0  0  0  0  0  0
   -2.3121    0.0509   -1.3338 N   0  0  0  0  0  0  0  0  0  0  0  0
   -2.7730    1.0298   -2.3223 C   0  0  0  0  0  0  0  0  0  0  0  0
   -0.9326    0.3786   -0.9233 C   0  0  0  0  0  0  0  0  0  0  0  0
   -0.2416   -0.6620   -0.0294 C   0  0  0  0  0  0  0  0  0  0  0  0
    1.1372   -0.2810    0.1213 O   0  0  0  0  0  0  0  0  0  0  0  0
    1.8548   -1.1161    0.9132 C   0  0  0  0  0  0  0  0  0  0  0  0
    1.4425   -2.0973    1.5048 O   0  0  0  0  0  0  0  0  0  0  0  0
    3.2481   -0.6330    0.9525 C   0  0  0  0  0  0  0  0  0  0  0  0
    3.4813    0.6909    1.3595 C   0  0  0  0  0  0  0  0  0  0  0  0
    4.7851    1.1810    1.4394 C   0  0  0  0  0  0  0  0  0  0  0  0
    5.8588    0.3537    1.1160 C   0  0  0  0  0  0  0  0  0  0  0  0
    5.6315   -0.9631    0.7094 C   0  0  0  0  0  0  0  0  0  0  0  0
    4.3263   -1.4622    0.6265 C   0  0  0  0  0  0  0  0  0  0  0  0
    4.1133   -3.2460    0.0138 Br  0  0  0  0  0  0  0  0  0  0  0  0
   -4.1730    0.8299    1.4929 H   0  0  0  0  0  0  0  0  0  0  0  0
   -2.5907    1.4847    1.0840 H   0  0  0  0  0  0  0  0  0  0  0  0
   -4.0045    1.8834    0.0875 H   0  0  0  0  0  0  0  0  0  0  0  0
   -2.8260   -0.9242    0.4464 H   0  0  0  0  0  0  0  0  0  0  0  0
   -4.4157   -1.6176   -1.3340 H   0  0  0  0  0  0  0  0  0  0  0  0
   -5.1773   -1.0858    0.1673 H   0  0  0  0  0  0  0  0  0  0  0  0
   -5.1884   -0.0199   -1.2380 H   0  0  0  0  0  0  0  0  0  0  0  0
   -3.7485    0.7604   -2.7373 H   0  0  0  0  0  0  0  0  0  0  0  0
   -2.0879    1.0576   -3.1779 H   0  0  0  0  0  0  0  0  0  0  0  0
   -2.8343    2.0430   -1.9113 H   0  0  0  0  0  0  0  0  0  0  0  0
   -0.8837    1.3610   -0.4359 H   0  0  0  0  0  0  0  0  0  0  0  0
   -0.3121    0.4780   -1.8249 H   0  0  0  0  0  0  0  0  0  0  0  0
   -0.2918   -1.6527   -0.4963 H   0  0  0  0  0  0  0  0  0  0  0  0
   -0.7080   -0.6920    0.9612 H   0  0  0  0  0  0  0  0  0  0  0  0
    2.6483    1.3396    1.6217 H   0  0  0  0  0  0  0  0  0  0  0  0
    4.9636    2.2059    1.7565 H   0  0  0  0  0  0  0  0  0  0  0  0
    6.8762    0.7337    1.1783 H   0  0  0  0  0  0  0  0  0  0  0  0
    6.4814   -1.5928    0.4549 H   0  0  0  0  0  0  0  0  0  0  0  0
  1  2  1  0
  2  3  1  0
  2  4  1  0
  4  5  1  0
  4  6  1  0
  6  7  1  0
  7  8  1  0
  8  9  1  0
  9 10  2  0
  9 11  1  0
 11 12  2  0
 12 13  1  0
 13 14  2  0
 14 15  1  0
 15 16  2  0
 16 17  1  0
 16 11  1  0
  1 18  1  0
  1 19  1  0
  1 20  1  0
  2 21  1  0
  3 22  1  0
  3 23  1  0
  3 24  1  0
  5 25  1  0
  5 26  1  0
  5 27  1  0
  6 28  1  0
  6 29  1  0
  7 30  1  0
  7 31  1  0
 12 32  1  0
 13 33  1  0
 14 34  1  0
 15 35  1  0
M  END
$$$$
