
     RDKit          3D

 65 68  0  0  0  0  0  0  0  0999 V2000
    9.7248   -0.7764    3.0490 C   0  0  0  0  0  0  0  0  0  0  0  0
    8.5798   -1.0089    2.1530 C   0  0  0  0  0  0  0  0  0  0  0  0
    7.2616   -0.6268    2.1608 C   0  0  0  0  0  0  0  0  0  0  0  0
    6.7165   -1.2038    0.9934 C   0  0  0  0  0  0  0  0  0  0  0  0
    5.4311   -1.1438    0.5040 N   0  0  0  0  0  0  0  0  0  0  0  0
    4.3844   -0.4739    1.0960 C   0  0  0  0  0  0  0  0  0  0  0  0
    4.4418    0.1692    2.1389 O   0  0  0  0  0  0  0  0  0  0  0  0
    3.1053   -0.6145    0.2966 C   0  0  0  0  0  0  0  0  0  0  0  0
    1.9376    0.1060    0.9646 C   0  0  0  0  0  0  0  0  0  0  0  0
    0.6502   -0.0784    0.1807 C   0  0  0  0  0  0  0  0  0  0  0  0
    0.6854   -0.5802   -0.9441 O   0  0  0  0  0  0  0  0  0  0  0  0
   -0.5334    0.3417    0.7804 N   0  0  0  0  0  0  0  0  0  0  0  0
   -0.5614    1.2611    1.9205 C   0  0  0  0  0  0  0  0  0  0  0  0
   -1.3330    0.6712    3.0661 C   0  0  0  0  0  0  0  0  0  0  0  0
   -2.5546    1.0767    3.5717 C   0  0  0  0  0  0  0  0  0  0  0  0
   -2.9776    0.2817    4.6758 C   0  0  0  0  0  0  0  0  0  0  0  0
   -2.0613   -0.6970    4.9862 C   0  0  0  0  0  0  0  0  0  0  0  0
   -0.6988   -0.6515    3.9559 S   0  0  0  0  0  0  0  0  0  0  0  0
   -1.7956    0.1870    0.0262 C   0  0  0  0  0  0  0  0  0  0  0  0
   -1.8662    1.1523   -1.1929 C   0  0  0  0  0  0  0  0  0  0  0  0
   -1.1420    2.1458   -1.2894 O   0  0  0  0  0  0  0  0  0  0  0  0
   -2.8930    0.9139   -2.0898 N   0  0  0  0  0  0  0  0  0  0  0  0
   -3.1323    1.7776   -3.2239 C   0  0  0  0  0  0  0  0  0  0  0  0
   -3.8668    3.0692   -2.8456 C   0  0  0  0  0  0  0  0  0  0  0  0
   -4.8315    3.3623   -3.9963 C   0  0  0  0  0  0  0  0  0  0  0  0
   -4.5360    2.3194   -5.0656 C   0  0  0  0  0  0  0  0  0  0  0  0
   -4.0261    1.1275   -4.2746 C   0  0  0  0  0  0  0  0  0  0  0  0
   -2.1991   -1.2704   -0.2058 C   0  0  0  0  0  0  0  0  0  0  0  0
   -1.8665   -1.9734   -1.3746 C   0  0  0  0  0  0  0  0  0  0  0  0
   -2.2589   -3.3022   -1.5508 C   0  0  0  0  0  0  0  0  0  0  0  0
   -2.9852   -3.9538   -0.5581 C   0  0  0  0  0  0  0  0  0  0  0  0
   -3.3132   -3.2799    0.6148 C   0  0  0  0  0  0  0  0  0  0  0  0
   -2.9205   -1.9515    0.7912 C   0  0  0  0  0  0  0  0  0  0  0  0
    7.6471   -1.8919    0.3223 N   0  0  0  0  0  0  0  0  0  0  0  0
    8.8149   -1.7693    1.0523 O   0  0  0  0  0  0  0  0  0  0  0  0
    9.9983   -1.7000    3.5675 H   0  0  0  0  0  0  0  0  0  0  0  0
    9.4855   -0.0203    3.8024 H   0  0  0  0  0  0  0  0  0  0  0  0
   10.5941   -0.4279    2.4834 H   0  0  0  0  0  0  0  0  0  0  0  0
    6.7692   -0.0190    2.9045 H   0  0  0  0  0  0  0  0  0  0  0  0
    5.2956   -1.6475   -0.3622 H   0  0  0  0  0  0  0  0  0  0  0  0
    2.8777   -1.6825    0.1925 H   0  0  0  0  0  0  0  0  0  0  0  0
    3.2793   -0.2051   -0.7059 H   0  0  0  0  0  0  0  0  0  0  0  0
    1.8019   -0.2856    1.9780 H   0  0  0  0  0  0  0  0  0  0  0  0
    2.1628    1.1770    1.0205 H   0  0  0  0  0  0  0  0  0  0  0  0
    0.4387    1.5324    2.2649 H   0  0  0  0  0  0  0  0  0  0  0  0
   -1.0263    2.1961    1.5846 H   0  0  0  0  0  0  0  0  0  0  0  0
   -3.1227    1.9068    3.1677 H   0  0  0  0  0  0  0  0  0  0  0  0
   -3.9041    0.4241    5.2189 H   0  0  0  0  0  0  0  0  0  0  0  0
   -2.1203   -1.4352    5.7743 H   0  0  0  0  0  0  0  0  0  0  0  0
   -2.5944    0.5928    0.6649 H   0  0  0  0  0  0  0  0  0  0  0  0
   -3.5207    0.1354   -1.9236 H   0  0  0  0  0  0  0  0  0  0  0  0
   -2.1645    2.0346   -3.6742 H   0  0  0  0  0  0  0  0  0  0  0  0
   -3.1557    3.8910   -2.7070 H   0  0  0  0  0  0  0  0  0  0  0  0
   -4.4252    2.9662   -1.9077 H   0  0  0  0  0  0  0  0  0  0  0  0
   -5.8647    3.2574   -3.6447 H   0  0  0  0  0  0  0  0  0  0  0  0
   -4.7161    4.3806   -4.3800 H   0  0  0  0  0  0  0  0  0  0  0  0
   -3.7548    2.6862   -5.7419 H   0  0  0  0  0  0  0  0  0  0  0  0
   -5.4186    2.0775   -5.6647 H   0  0  0  0  0  0  0  0  0  0  0  0
   -4.8645    0.5943   -3.8091 H   0  0  0  0  0  0  0  0  0  0  0  0
   -3.4802    0.4141   -4.8994 H   0  0  0  0  0  0  0  0  0  0  0  0
   -1.2810   -1.4963   -2.1597 H   0  0  0  0  0  0  0  0  0  0  0  0
   -1.9843   -3.8303   -2.4606 H   0  0  0  0  0  0  0  0  0  0  0  0
   -3.2830   -4.9901   -0.6937 H   0  0  0  0  0  0  0  0  0  0  0  0
   -3.8680   -3.7899    1.3978 H   0  0  0  0  0  0  0  0  0  0  0  0
   -3.1814   -1.4519    1.7215 H   0  0  0  0  0  0  0  0  0  0  0  0
  1  2  1  0
  2  3  2  0
  3  4  1  0
  4  5  1  0
  5  6  1  0
  6  7  2  0
  6  8  1  0
  8  9  1  0
  9 10  1  0
 10 11  2  0
 10 12  1  0
 12 13  1  0
 13 14  1  0
 14 15  2  0
 15 16  1  0
 16 17  2  0
 17 18  1  0
 12 19  1  0
 19 20  1  0
 20 21  2  0
 20 22  1  0
 22 23  1  0
 23 24  1  0
 24 25  1  0
 25 26  1  0
 26 27  1  0
 19 28  1  0
 28 29  2  0
 29 30  1  0
 30 31  2  0
 31 32  1  0
 32 33  2  0
  4 34  2  0
 34 35  1  0
 35  2  1  0
 18 14  1  0
 27 23  1  0
 33 28  1  0
  1 36  1  0
  1 37  1  0
  1 38  1  0
  3 39  1  0
  5 40  1  0
  8 41  1  0
  8 42  1  0
  9 43  1  0
  9 44  1  0
 13 45  1  0
 13 46  1  0
 15 47  1  0
 16 48  1  0
 17 49  1  0
 19 50  1  0
 22 51  1  0
 23 52  1  0
 24 53  1  0
 24 54  1  0
 25 55  1  0
 25 56  1  0
 26 57  1  0
 26 58  1  0
 27 59  1  0
 27 60  1  0
 29 61  1  0
 30 62  1  0
 31 63  1  0
 32 64  1  0
 33 65  1  0
M  END
$$$$
