
     RDKit          3D

 42 41  0  0  0  0  0  0  0  0999 V2000
   -4.7697   -1.9238    2.0314 C   0  0  0  0  0  0  0  0  0  0  0  0
   -4.7546   -0.4265    2.1868 C   0  0  0  0  0  0  0  0  0  0  0  0
   -6.0252    0.1445    2.7644 C   0  0  0  0  0  0  0  0  0  0  0  0
   -3.7284    0.3828    1.8588 C   0  0  0  0  0  0  0  0  0  0  0  0
   -2.3843   -0.0018    1.2988 C   0  0  0  0  0  0  0  0  0  0  0  0
   -2.2295    0.4776   -0.1490 C   0  0  0  0  0  0  0  0  0  0  0  0
   -0.8773    0.1223   -0.7419 C   0  0  0  0  0  0  0  0  0  0  0  0
   -0.7198   -1.3159   -1.1634 C   0  0  0  0  0  0  0  0  0  0  0  0
    0.0793    1.0632   -0.8674 C   0  0  0  0  0  0  0  0  0  0  0  0
    1.4565    0.8933   -1.4533 C   0  0  0  0  0  0  0  0  0  0  0  0
    2.4742    0.4389   -0.3954 C   0  0  0  0  0  0  0  0  0  0  0  0
    3.9076    0.2001   -0.8566 C   0  0  0  0  0  0  0  0  0  0  0  0
    4.7234   -0.5842    0.1451 C   0  0  0  0  0  0  0  0  0  0  0  0
    4.4035    0.6550   -2.0261 C   0  0  0  0  0  0  0  0  0  0  0  0
    5.7743    0.4471   -2.5875 C   0  0  0  0  0  0  0  0  0  0  0  0
    6.5118    1.6460   -2.4088 O   0  0  0  0  0  0  0  0  0  0  0  0
   -5.6373   -2.2322    1.4363 H   0  0  0  0  0  0  0  0  0  0  0  0
   -3.8830   -2.3218    1.5319 H   0  0  0  0  0  0  0  0  0  0  0  0
   -4.8390   -2.3983    3.0178 H   0  0  0  0  0  0  0  0  0  0  0  0
   -6.2180   -0.2867    3.7516 H   0  0  0  0  0  0  0  0  0  0  0  0
   -6.8753   -0.0849    2.1120 H   0  0  0  0  0  0  0  0  0  0  0  0
   -5.9788    1.2324    2.8802 H   0  0  0  0  0  0  0  0  0  0  0  0
   -3.8454    1.4548    2.0216 H   0  0  0  0  0  0  0  0  0  0  0  0
   -2.2123   -1.0790    1.3653 H   0  0  0  0  0  0  0  0  0  0  0  0
   -1.6114    0.4622    1.9256 H   0  0  0  0  0  0  0  0  0  0  0  0
   -3.0193    0.0461   -0.7774 H   0  0  0  0  0  0  0  0  0  0  0  0
   -2.3829    1.5647   -0.1879 H   0  0  0  0  0  0  0  0  0  0  0  0
    0.2207   -1.5132   -1.6832 H   0  0  0  0  0  0  0  0  0  0  0  0
   -0.7483   -1.9717   -0.2874 H   0  0  0  0  0  0  0  0  0  0  0  0
   -1.5309   -1.6059   -1.8414 H   0  0  0  0  0  0  0  0  0  0  0  0
   -0.1343    2.0747   -0.5171 H   0  0  0  0  0  0  0  0  0  0  0  0
    1.4352    0.1865   -2.2911 H   0  0  0  0  0  0  0  0  0  0  0  0
    1.7526    1.8585   -1.8764 H   0  0  0  0  0  0  0  0  0  0  0  0
    2.5014    1.1737    0.4211 H   0  0  0  0  0  0  0  0  0  0  0  0
    2.1047   -0.4998    0.0436 H   0  0  0  0  0  0  0  0  0  0  0  0
    4.4078   -1.6336    0.1448 H   0  0  0  0  0  0  0  0  0  0  0  0
    4.5761   -0.1820    1.1548 H   0  0  0  0  0  0  0  0  0  0  0  0
    5.7980   -0.5490   -0.0501 H   0  0  0  0  0  0  0  0  0  0  0  0
    3.7716    1.2492   -2.6836 H   0  0  0  0  0  0  0  0  0  0  0  0
    6.3190   -0.3817   -2.1286 H   0  0  0  0  0  0  0  0  0  0  0  0
    5.7070    0.2341   -3.6610 H   0  0  0  0  0  0  0  0  0  0  0  0
    6.4802    1.8439   -1.4571 H   0  0  0  0  0  0  0  0  0  0  0  0
  1  2  1  0
  2  3  1  0
  2  4  2  3
  4  5  1  0
  5  6  1  0
  6  7  1  0
  7  8  1  0
  7  9  2  3
  9 10  1  0
 10 11  1  0
 11 12  1  0
 12 13  1  0
 12 14  2  3
 14 15  1  0
 15 16  1  0
  1 17  1  0
  1 18  1  0
  1 19  1  0
  3 20  1  0
  3 21  1  0
  3 22  1  0
  4 23  1  0
  5 24  1  0
  5 25  1  0
  6 26  1  0
  6 27  1  0
  8 28  1  0
  8 29  1  0
  8 30  1  0
  9 31  1  0
 10 32  1  0
 10 33  1  0
 11 34  1  0
 11 35  1  0
 13 36  1  0
 13 37  1  0
 13 38  1  0
 14 39  1  0
 15 40  1  0
 15 41  1  0
 16 42  1  0
M  END
$$$$
