
     RDKit          3D

 39 42  0  0  0  0  0  0  0  0999 V2000
    5.9763   -1.0186   -1.1872 C   0  0  0  0  0  0  0  0  0  0  0  0
    5.7347   -1.3687    0.1524 C   0  0  0  0  0  0  0  0  0  0  0  0
    4.4975   -1.1077    0.7508 C   0  0  0  0  0  0  0  0  0  0  0  0
    3.5150   -0.4955   -0.0088 C   0  0  0  0  0  0  0  0  0  0  0  0
    3.7644   -0.1465   -1.3541 C   0  0  0  0  0  0  0  0  0  0  0  0
    4.9863   -0.4012   -1.9543 C   0  0  0  0  0  0  0  0  0  0  0  0
    2.5398    0.5054   -1.9626 C   0  0  0  0  0  0  0  0  0  0  0  0
    1.5635    0.4852   -0.8035 C   0  0  0  0  0  0  0  0  0  0  0  0
    0.2601    0.9569   -0.7748 C   0  0  0  0  0  0  0  0  0  0  0  0
   -0.4719    0.8300    0.4165 C   0  0  0  0  0  0  0  0  0  0  0  0
   -1.8931    1.3536    0.4973 C   0  0  0  0  0  0  0  0  0  0  0  0
   -2.8492    0.3719    1.0311 N   0  0  0  0  0  0  0  0  0  0  0  0
   -4.1196    1.0363    1.3927 C   0  0  0  0  0  0  0  0  0  0  0  0
   -5.2919    0.0460    1.4256 C   0  0  0  0  0  0  0  0  0  0  0  0
   -5.5663   -0.5208    0.1368 O   0  0  0  0  0  0  0  0  0  0  0  0
   -4.3999   -0.6266   -0.6912 C   0  0  0  0  0  0  0  0  0  0  0  0
   -3.0942   -0.7590    0.1089 C   0  0  0  0  0  0  0  0  0  0  0  0
    0.1376    0.2441    1.5506 C   0  0  0  0  0  0  0  0  0  0  0  0
    1.4540   -0.2293    1.5111 C   0  0  0  0  0  0  0  0  0  0  0  0
    2.1620   -0.1062    0.3292 C   0  0  0  0  0  0  0  0  0  0  0  0
    6.9465   -1.2321   -1.6297 H   0  0  0  0  0  0  0  0  0  0  0  0
    6.5206   -1.8489    0.7308 H   0  0  0  0  0  0  0  0  0  0  0  0
    4.3208   -1.3819    1.7851 H   0  0  0  0  0  0  0  0  0  0  0  0
    5.1733   -0.1313   -2.9881 H   0  0  0  0  0  0  0  0  0  0  0  0
    2.7590    1.5334   -2.2655 H   0  0  0  0  0  0  0  0  0  0  0  0
    2.1598   -0.0892   -2.7984 H   0  0  0  0  0  0  0  0  0  0  0  0
   -0.1780    1.4113   -1.6579 H   0  0  0  0  0  0  0  0  0  0  0  0
   -1.8579    2.2330    1.1547 H   0  0  0  0  0  0  0  0  0  0  0  0
   -2.2247    1.7113   -0.4864 H   0  0  0  0  0  0  0  0  0  0  0  0
   -4.3605    1.8230    0.6651 H   0  0  0  0  0  0  0  0  0  0  0  0
   -4.0078    1.5085    2.3748 H   0  0  0  0  0  0  0  0  0  0  0  0
   -6.2031    0.5520    1.7604 H   0  0  0  0  0  0  0  0  0  0  0  0
   -5.0971   -0.7722    2.1289 H   0  0  0  0  0  0  0  0  0  0  0  0
   -4.5358   -1.5017   -1.3348 H   0  0  0  0  0  0  0  0  0  0  0  0
   -4.3654    0.2536   -1.3437 H   0  0  0  0  0  0  0  0  0  0  0  0
   -2.2572   -0.9274   -0.5775 H   0  0  0  0  0  0  0  0  0  0  0  0
   -3.1643   -1.6614    0.7296 H   0  0  0  0  0  0  0  0  0  0  0  0
   -0.4313    0.1509    2.4746 H   0  0  0  0  0  0  0  0  0  0  0  0
    1.8982   -0.6804    2.3915 H   0  0  0  0  0  0  0  0  0  0  0  0
  1  2  2  0
  2  3  1  0
  3  4  2  0
  4  5  1  0
  5  6  2  0
  5  7  1  0
  7  8  1  0
  8  9  2  0
  9 10  1  0
 10 11  1  0
 11 12  1  0
 12 13  1  0
 13 14  1  0
 14 15  1  0
 15 16  1  0
 16 17  1  0
 10 18  2  0
 18 19  1  0
 19 20  2  0
  6  1  1  0
 20  8  1  0
 20  4  1  0
 17 12  1  0
  1 21  1  0
  2 22  1  0
  3 23  1  0
  6 24  1  0
  7 25  1  0
  7 26  1  0
  9 27  1  0
 11 28  1  0
 11 29  1  0
 13 30  1  0
 13 31  1  0
 14 32  1  0
 14 33  1  0
 16 34  1  0
 16 35  1  0
 17 36  1  0
 17 37  1  0
 18 38  1  0
 19 39  1  0
M  END
$$$$
