
     RDKit          3D

 42 41  0  0  0  0  0  0  0  0999 V2000
   -4.8373    1.3119    2.1380 C   0  0  0  0  0  0  0  0  0  0  0  0
   -5.1125    0.4989    0.9032 C   0  0  0  0  0  0  0  0  0  0  0  0
   -6.5709    0.1985    0.6720 C   0  0  0  0  0  0  0  0  0  0  0  0
   -4.1744    0.0449    0.0496 C   0  0  0  0  0  0  0  0  0  0  0  0
   -2.6877    0.2756    0.1073 C   0  0  0  0  0  0  0  0  0  0  0  0
   -1.9469   -0.9780    0.5854 C   0  0  0  0  0  0  0  0  0  0  0  0
   -0.4409   -0.7891    0.6189 C   0  0  0  0  0  0  0  0  0  0  0  0
    0.0823   -0.0431    1.8174 C   0  0  0  0  0  0  0  0  0  0  0  0
    0.3282   -1.2903   -0.3685 C   0  0  0  0  0  0  0  0  0  0  0  0
    1.8290   -1.2467   -0.4761 C   0  0  0  0  0  0  0  0  0  0  0  0
    2.2902   -0.1538   -1.4469 C   0  0  0  0  0  0  0  0  0  0  0  0
    3.8041   -0.0717   -1.5545 C   0  0  0  0  0  0  0  0  0  0  0  0
    4.4403   -1.1410   -2.4020 C   0  0  0  0  0  0  0  0  0  0  0  0
    4.4702    0.9216   -0.9309 C   0  0  0  0  0  0  0  0  0  0  0  0
    5.9382    1.1996   -0.9188 C   0  0  0  0  0  0  0  0  0  0  0  0
    6.4059    1.0369    0.4114 O   0  0  0  0  0  0  0  0  0  0  0  0
   -3.7732    1.4089    2.3666 H   0  0  0  0  0  0  0  0  0  0  0  0
   -5.2512    2.3197    2.0232 H   0  0  0  0  0  0  0  0  0  0  0  0
   -5.3074    0.8445    3.0101 H   0  0  0  0  0  0  0  0  0  0  0  0
   -6.9792   -0.3720    1.5130 H   0  0  0  0  0  0  0  0  0  0  0  0
   -6.7359   -0.3875   -0.2383 H   0  0  0  0  0  0  0  0  0  0  0  0
   -7.1383    1.1299    0.5740 H   0  0  0  0  0  0  0  0  0  0  0  0
   -4.4960   -0.5495   -0.8056 H   0  0  0  0  0  0  0  0  0  0  0  0
   -2.4419    1.1351    0.7372 H   0  0  0  0  0  0  0  0  0  0  0  0
   -2.3483    0.5442   -0.9016 H   0  0  0  0  0  0  0  0  0  0  0  0
   -2.2042   -1.8231   -0.0678 H   0  0  0  0  0  0  0  0  0  0  0  0
   -2.2932   -1.2642    1.5875 H   0  0  0  0  0  0  0  0  0  0  0  0
   -0.4389    0.9121    1.9350 H   0  0  0  0  0  0  0  0  0  0  0  0
    1.1471    0.1903    1.7493 H   0  0  0  0  0  0  0  0  0  0  0  0
   -0.0756   -0.6351    2.7250 H   0  0  0  0  0  0  0  0  0  0  0  0
   -0.1610   -1.8077   -1.1947 H   0  0  0  0  0  0  0  0  0  0  0  0
    2.2972   -1.1067    0.5034 H   0  0  0  0  0  0  0  0  0  0  0  0
    2.1662   -2.2307   -0.8244 H   0  0  0  0  0  0  0  0  0  0  0  0
    1.8839    0.8127   -1.1204 H   0  0  0  0  0  0  0  0  0  0  0  0
    1.8691   -0.3297   -2.4452 H   0  0  0  0  0  0  0  0  0  0  0  0
    5.5236   -1.0396   -2.4895 H   0  0  0  0  0  0  0  0  0  0  0  0
    4.0287   -1.1113   -3.4165 H   0  0  0  0  0  0  0  0  0  0  0  0
    4.2439   -2.1309   -1.9787 H   0  0  0  0  0  0  0  0  0  0  0  0
    3.8962    1.6419   -0.3465 H   0  0  0  0  0  0  0  0  0  0  0  0
    6.5233    0.5498   -1.5720 H   0  0  0  0  0  0  0  0  0  0  0  0
    6.1235    2.2337   -1.2251 H   0  0  0  0  0  0  0  0  0  0  0  0
    6.1237    0.1504    0.6966 H   0  0  0  0  0  0  0  0  0  0  0  0
  1  2  1  0
  2  3  1  0
  2  4  2  3
  4  5  1  0
  5  6  1  0
  6  7  1  0
  7  8  1  0
  7  9  2  3
  9 10  1  0
 10 11  1  0
 11 12  1  0
 12 13  1  0
 12 14  2  3
 14 15  1  0
 15 16  1  0
  1 17  1  0
  1 18  1  0
  1 19  1  0
  3 20  1  0
  3 21  1  0
  3 22  1  0
  4 23  1  0
  5 24  1  0
  5 25  1  0
  6 26  1  0
  6 27  1  0
  8 28  1  0
  8 29  1  0
  8 30  1  0
  9 31  1  0
 10 32  1  0
 10 33  1  0
 11 34  1  0
 11 35  1  0
 13 36  1  0
 13 37  1  0
 13 38  1  0
 14 39  1  0
 15 40  1  0
 15 41  1  0
 16 42  1  0
M  END
$$$$
