
     RDKit          3D

 40 42  0  0  0  0  0  0  0  0999 V2000
   -4.0062   -2.0170   -1.4201 C   0  0  0  0  0  0  0  0  0  0  0  0
   -4.7933   -0.9718   -0.6753 C   0  0  0  0  0  0  0  0  0  0  0  0
   -6.1975   -1.0607   -0.6943 C   0  0  0  0  0  0  0  0  0  0  0  0
   -6.9823   -0.1254   -0.0247 C   0  0  0  0  0  0  0  0  0  0  0  0
   -6.3733    0.9091    0.6737 C   0  0  0  0  0  0  0  0  0  0  0  0
   -4.9798    1.0114    0.7022 C   0  0  0  0  0  0  0  0  0  0  0  0
   -4.1739    0.0840    0.0313 C   0  0  0  0  0  0  0  0  0  0  0  0
   -2.7599    0.1572    0.0474 N   0  0  0  0  0  0  0  0  0  0  0  0
   -1.9673    1.1449    0.6040 C   0  0  0  0  0  0  0  0  0  0  0  0
   -2.3390    2.1890    1.1255 O   0  0  0  0  0  0  0  0  0  0  0  0
   -0.4995    0.9010    0.4997 C   0  0  0  0  0  0  0  0  0  0  0  0
    0.3508    1.9976    0.3321 C   0  0  0  0  0  0  0  0  0  0  0  0
    1.7327    1.8073    0.2296 C   0  0  0  0  0  0  0  0  0  0  0  0
    2.2865    0.5218    0.2995 C   0  0  0  0  0  0  0  0  0  0  0  0
    3.6893    0.4225    0.1851 N   0  0  0  0  0  0  0  0  0  0  0  0
    4.4652   -0.7307    0.1709 C   0  0  0  0  0  0  0  0  0  0  0  0
    4.0053   -1.8675    0.2287 O   0  0  0  0  0  0  0  0  0  0  0  0
    5.8987   -0.4797    0.0669 C   0  0  0  0  0  0  0  0  0  0  0  0
    6.6761    0.6688    0.0550 C   0  0  0  0  0  0  0  0  0  0  0  0
    8.0267    0.2559   -0.0695 C   0  0  0  0  0  0  0  0  0  0  0  0
    8.0018   -1.1152   -0.1248 C   0  0  0  0  0  0  0  0  0  0  0  0
    6.7276   -1.5687   -0.0426 O   0  0  0  0  0  0  0  0  0  0  0  0
    1.4332   -0.5678    0.4894 C   0  0  0  0  0  0  0  0  0  0  0  0
    0.0481   -0.3824    0.5947 C   0  0  0  0  0  0  0  0  0  0  0  0
   -3.4021   -1.5502   -2.2048 H   0  0  0  0  0  0  0  0  0  0  0  0
   -4.6614   -2.7493   -1.9041 H   0  0  0  0  0  0  0  0  0  0  0  0
   -3.3560   -2.5657   -0.7311 H   0  0  0  0  0  0  0  0  0  0  0  0
   -6.6913   -1.8655   -1.2350 H   0  0  0  0  0  0  0  0  0  0  0  0
   -8.0659   -0.2048   -0.0467 H   0  0  0  0  0  0  0  0  0  0  0  0
   -6.9774    1.6422    1.2019 H   0  0  0  0  0  0  0  0  0  0  0  0
   -4.5528    1.8329    1.2686 H   0  0  0  0  0  0  0  0  0  0  0  0
   -2.2784   -0.5657   -0.4670 H   0  0  0  0  0  0  0  0  0  0  0  0
   -0.0614    3.0038    0.2795 H   0  0  0  0  0  0  0  0  0  0  0  0
    2.3633    2.6826    0.0949 H   0  0  0  0  0  0  0  0  0  0  0  0
    4.1785    1.2985    0.0779 H   0  0  0  0  0  0  0  0  0  0  0  0
    6.3297    1.6890    0.1324 H   0  0  0  0  0  0  0  0  0  0  0  0
    8.9091    0.8794   -0.1105 H   0  0  0  0  0  0  0  0  0  0  0  0
    8.7633   -1.8778   -0.2156 H   0  0  0  0  0  0  0  0  0  0  0  0
    1.8110   -1.5822    0.5775 H   0  0  0  0  0  0  0  0  0  0  0  0
   -0.5782   -1.2507    0.7824 H   0  0  0  0  0  0  0  0  0  0  0  0
  1  2  1  0
  2  3  2  0
  3  4  1  0
  4  5  2  0
  5  6  1  0
  6  7  2  0
  7  8  1  0
  8  9  1  0
  9 10  2  0
  9 11  1  0
 11 12  2  0
 12 13  1  0
 13 14  2  0
 14 15  1  0
 15 16  1  0
 16 17  2  0
 16 18  1  0
 18 19  2  0
 19 20  1  0
 20 21  2  0
 21 22  1  0
 14 23  1  0
 23 24  2  0
  7  2  1  0
 24 11  1  0
 22 18  1  0
  1 25  1  0
  1 26  1  0
  1 27  1  0
  3 28  1  0
  4 29  1  0
  5 30  1  0
  6 31  1  0
  8 32  1  0
 12 33  1  0
 13 34  1  0
 15 35  1  0
 19 36  1  0
 20 37  1  0
 21 38  1  0
 23 39  1  0
 24 40  1  0
M  END
$$$$
