
     RDKit          3D

 96 98  0  0  0  0  0  0  0  0999 V2000
    3.9882   -4.7833   -3.3500 C   0  0  0  0  0  0  0  0  0  0  0  0
    3.1267   -4.5721   -2.1137 C   0  0  0  0  0  0  0  0  0  0  0  0
    2.8802   -3.0862   -1.8504 C   0  0  0  0  0  0  0  0  0  0  0  0
    2.1117   -2.8102   -0.5451 C   0  0  0  0  0  0  0  0  0  0  0  0
    0.6674   -3.3200   -0.6041 C   0  0  0  0  0  0  0  0  0  0  0  0
   -0.0381   -3.1663    0.7292 C   0  0  0  0  0  0  0  0  0  0  0  0
    0.5011   -2.7536    1.7467 O   0  0  0  0  0  0  0  0  0  0  0  0
   -1.3801   -3.5009    0.6722 N   0  0  0  0  0  0  0  0  0  0  0  0
   -2.2880   -3.1886    1.7871 C   0  0  0  0  0  0  0  0  0  0  0  0
   -3.3295   -4.2948    2.0241 C   0  0  0  0  0  0  0  0  0  0  0  0
   -4.1053   -4.8104    0.7918 C   0  0  0  0  0  0  0  0  0  0  0  0
   -5.0364   -5.9484    1.2215 C   0  0  0  0  0  0  0  0  0  0  0  0
   -4.9159   -3.7263    0.0834 C   0  0  0  0  0  0  0  0  0  0  0  0
   -2.9293   -1.7812    1.6545 C   0  0  0  0  0  0  0  0  0  0  0  0
   -3.7986   -1.3582    2.4102 O   0  0  0  0  0  0  0  0  0  0  0  0
   -2.4010   -1.0206    0.6402 N   0  0  0  0  0  0  0  0  0  0  0  0
   -2.6241    0.4147    0.5067 C   0  0  0  0  0  0  0  0  0  0  0  0
   -3.9609    0.7200   -0.1787 C   0  0  0  0  0  0  0  0  0  0  0  0
   -4.3485    2.1780   -0.1055 C   0  0  0  0  0  0  0  0  0  0  0  0
   -4.7713    2.7360    1.1089 C   0  0  0  0  0  0  0  0  0  0  0  0
   -5.1008    4.0896    1.1869 C   0  0  0  0  0  0  0  0  0  0  0  0
   -5.0165    4.8952    0.0536 C   0  0  0  0  0  0  0  0  0  0  0  0
   -4.6053    4.3484   -1.1599 C   0  0  0  0  0  0  0  0  0  0  0  0
   -4.2733    2.9954   -1.2409 C   0  0  0  0  0  0  0  0  0  0  0  0
   -1.4290    0.9090   -0.3346 C   0  0  0  0  0  0  0  0  0  0  0  0
   -0.7668    0.1422   -1.0420 O   0  0  0  0  0  0  0  0  0  0  0  0
   -1.1321    2.2439   -0.2344 N   0  0  0  0  0  0  0  0  0  0  0  0
    0.0458    2.8139   -0.8932 C   0  0  0  0  0  0  0  0  0  0  0  0
   -0.1534    4.3277   -1.0683 C   0  0  0  0  0  0  0  0  0  0  0  0
    0.7351    5.0228   -2.1220 C   0  0  0  0  0  0  0  0  0  0  0  0
    0.4712    4.5033   -3.5375 C   0  0  0  0  0  0  0  0  0  0  0  0
    2.2264    4.9545   -1.7987 C   0  0  0  0  0  0  0  0  0  0  0  0
    1.2529    2.4690    0.0082 C   0  0  0  0  0  0  0  0  0  0  0  0
    1.6325    3.1906    0.9263 O   0  0  0  0  0  0  0  0  0  0  0  0
    1.8143    1.2324   -0.2563 N   0  0  0  0  0  0  0  0  0  0  0  0
    2.8829    0.6809    0.5966 C   0  0  0  0  0  0  0  0  0  0  0  0
    4.2117    1.4351    0.3764 C   0  0  0  0  0  0  0  0  0  0  0  0
    5.0380    1.5593    1.6375 C   0  0  0  0  0  0  0  0  0  0  0  0
    6.1015    0.6850    1.8910 C   0  0  0  0  0  0  0  0  0  0  0  0
    6.8456    0.7964    3.0672 C   0  0  0  0  0  0  0  0  0  0  0  0
    6.5354    1.7836    3.9998 C   0  0  0  0  0  0  0  0  0  0  0  0
    5.4795    2.6606    3.7577 C   0  0  0  0  0  0  0  0  0  0  0  0
    4.7337    2.5485    2.5833 C   0  0  0  0  0  0  0  0  0  0  0  0
    3.0967   -0.8269    0.3469 C   0  0  0  0  0  0  0  0  0  0  0  0
    4.0542   -1.4718    0.7566 O   0  0  0  0  0  0  0  0  0  0  0  0
    2.0615   -1.3708   -0.3668 O   0  0  0  0  0  0  0  0  0  0  0  0
    4.1455   -5.8530   -3.5220 H   0  0  0  0  0  0  0  0  0  0  0  0
    3.5079   -4.3633   -4.2401 H   0  0  0  0  0  0  0  0  0  0  0  0
    4.9683   -4.3098   -3.2325 H   0  0  0  0  0  0  0  0  0  0  0  0
    2.1780   -5.0983   -2.2616 H   0  0  0  0  0  0  0  0  0  0  0  0
    3.6234   -5.0256   -1.2475 H   0  0  0  0  0  0  0  0  0  0  0  0
    2.3392   -2.6388   -2.6956 H   0  0  0  0  0  0  0  0  0  0  0  0
    3.8446   -2.5631   -1.8113 H   0  0  0  0  0  0  0  0  0  0  0  0
    2.6234   -3.2863    0.3014 H   0  0  0  0  0  0  0  0  0  0  0  0
    0.1016   -2.7546   -1.3536 H   0  0  0  0  0  0  0  0  0  0  0  0
    0.6322   -4.3823   -0.8637 H   0  0  0  0  0  0  0  0  0  0  0  0
   -1.7985   -3.6502   -0.2360 H   0  0  0  0  0  0  0  0  0  0  0  0
   -1.6806   -3.1199    2.6999 H   0  0  0  0  0  0  0  0  0  0  0  0
   -2.7981   -5.1536    2.4591 H   0  0  0  0  0  0  0  0  0  0  0  0
   -4.0461   -3.9626    2.7871 H   0  0  0  0  0  0  0  0  0  0  0  0
   -3.3936   -5.2328    0.0721 H   0  0  0  0  0  0  0  0  0  0  0  0
   -5.5588   -6.3718    0.3573 H   0  0  0  0  0  0  0  0  0  0  0  0
   -5.7908   -5.5960    1.9335 H   0  0  0  0  0  0  0  0  0  0  0  0
   -4.4709   -6.7579    1.6957 H   0  0  0  0  0  0  0  0  0  0  0  0
   -4.2632   -2.9940   -0.3997 H   0  0  0  0  0  0  0  0  0  0  0  0
   -5.5400   -4.1612   -0.7058 H   0  0  0  0  0  0  0  0  0  0  0  0
   -5.5748   -3.2011    0.7832 H   0  0  0  0  0  0  0  0  0  0  0  0
   -1.5672   -1.3731    0.1845 H   0  0  0  0  0  0  0  0  0  0  0  0
   -2.5627    0.8559    1.5088 H   0  0  0  0  0  0  0  0  0  0  0  0
   -3.9268    0.3977   -1.2274 H   0  0  0  0  0  0  0  0  0  0  0  0
   -4.7688    0.1340    0.2791 H   0  0  0  0  0  0  0  0  0  0  0  0
   -4.8548    2.1165    2.0004 H   0  0  0  0  0  0  0  0  0  0  0  0
   -5.4315    4.5131    2.1316 H   0  0  0  0  0  0  0  0  0  0  0  0
   -5.2810    5.9475    0.1137 H   0  0  0  0  0  0  0  0  0  0  0  0
   -4.5441    4.9762   -2.0445 H   0  0  0  0  0  0  0  0  0  0  0  0
   -3.9502    2.5875   -2.1962 H   0  0  0  0  0  0  0  0  0  0  0  0
   -1.5450    2.7741    0.5279 H   0  0  0  0  0  0  0  0  0  0  0  0
    0.1672    2.3211   -1.8632 H   0  0  0  0  0  0  0  0  0  0  0  0
   -1.1980    4.5126   -1.3548 H   0  0  0  0  0  0  0  0  0  0  0  0
   -0.0203    4.8389   -0.1058 H   0  0  0  0  0  0  0  0  0  0  0  0
    0.4519    6.0844   -2.1121 H   0  0  0  0  0  0  0  0  0  0  0  0
   -0.5991    4.5255   -3.7687 H   0  0  0  0  0  0  0  0  0  0  0  0
    0.8319    3.4778   -3.6720 H   0  0  0  0  0  0  0  0  0  0  0  0
    0.9811    5.1314   -4.2763 H   0  0  0  0  0  0  0  0  0  0  0  0
    2.4250    5.3248   -0.7880 H   0  0  0  0  0  0  0  0  0  0  0  0
    2.7969    5.5752   -2.4976 H   0  0  0  0  0  0  0  0  0  0  0  0
    2.6170    3.9345   -1.8775 H   0  0  0  0  0  0  0  0  0  0  0  0
    1.2034    0.5532   -0.7154 H   0  0  0  0  0  0  0  0  0  0  0  0
    2.5288    0.7791    1.6309 H   0  0  0  0  0  0  0  0  0  0  0  0
    4.0339    2.4529    0.0017 H   0  0  0  0  0  0  0  0  0  0  0  0
    4.8073    0.9491   -0.4081 H   0  0  0  0  0  0  0  0  0  0  0  0
    6.3511   -0.1003    1.1807 H   0  0  0  0  0  0  0  0  0  0  0  0
    7.6633    0.1066    3.2568 H   0  0  0  0  0  0  0  0  0  0  0  0
    7.1137    1.8689    4.9150 H   0  0  0  0  0  0  0  0  0  0  0  0
    5.2307    3.4294    4.4837 H   0  0  0  0  0  0  0  0  0  0  0  0
    3.9077    3.2364    2.4106 H   0  0  0  0  0  0  0  0  0  0  0  0
  1  2  1  0
  2  3  1  0
  3  4  1  0
  4  5  1  0
  5  6  1  0
  6  7  2  0
  6  8  1  0
  8  9  1  0
  9 10  1  0
 10 11  1  0
 11 12  1  0
 11 13  1  0
  9 14  1  0
 14 15  2  0
 14 16  1  0
 16 17  1  0
 17 18  1  0
 18 19  1  0
 19 20  2  0
 20 21  1  0
 21 22  2  0
 22 23  1  0
 23 24  2  0
 17 25  1  0
 25 26  2  0
 25 27  1  0
 27 28  1  0
 28 29  1  0
 29 30  1  0
 30 31  1  0
 30 32  1  0
 28 33  1  0
 33 34  2  0
 33 35  1  0
 35 36  1  0
 36 37  1  0
 37 38  1  0
 38 39  2  0
 39 40  1  0
 40 41  2  0
 41 42  1  0
 42 43  2  0
 36 44  1  0
 44 45  2  0
 44 46  1  0
 46  4  1  0
 24 19  1  0
 43 38  1  0
  1 47  1  0
  1 48  1  0
  1 49  1  0
  2 50  1  0
  2 51  1  0
  3 52  1  0
  3 53  1  0
  4 54  1  0
  5 55  1  0
  5 56  1  0
  8 57  1  0
  9 58  1  0
 10 59  1  0
 10 60  1  0
 11 61  1  0
 12 62  1  0
 12 63  1  0
 12 64  1  0
 13 65  1  0
 13 66  1  0
 13 67  1  0
 16 68  1  0
 17 69  1  0
 18 70  1  0
 18 71  1  0
 20 72  1  0
 21 73  1  0
 22 74  1  0
 23 75  1  0
 24 76  1  0
 27 77  1  0
 28 78  1  0
 29 79  1  0
 29 80  1  0
 30 81  1  0
 31 82  1  0
 31 83  1  0
 31 84  1  0
 32 85  1  0
 32 86  1  0
 32 87  1  0
 35 88  1  0
 36 89  1  0
 37 90  1  0
 37 91  1  0
 39 92  1  0
 40 93  1  0
 41 94  1  0
 42 95  1  0
 43 96  1  0
M  END
$$$$
