
     RDKit          3D

 44 44  0  0  0  0  0  0  0  0999 V2000
   -5.7929    1.5665    0.9130 C   0  0  0  0  0  0  0  0  0  0  0  0
   -5.2776    0.4840   -0.0247 C   0  0  0  0  0  0  0  0  0  0  0  0
   -3.8853    0.7416   -0.4130 N   0  0  0  0  0  0  0  0  0  0  0  0
   -3.6990    1.5196   -1.6458 C   0  0  0  0  0  0  0  0  0  0  0  0
   -3.5710    0.6050   -2.8557 C   0  0  0  0  0  0  0  0  0  0  0  0
   -2.8070    0.2804    0.3366 C   0  0  0  0  0  0  0  0  0  0  0  0
   -2.9721   -0.3488    1.5819 C   0  0  0  0  0  0  0  0  0  0  0  0
   -1.8885   -0.8128    2.3395 C   0  0  0  0  0  0  0  0  0  0  0  0
   -0.5875   -0.6635    1.8721 C   0  0  0  0  0  0  0  0  0  0  0  0
   -0.3747   -0.0493    0.6451 C   0  0  0  0  0  0  0  0  0  0  0  0
    0.8402    0.1671    0.0529 O   0  0  0  0  0  0  0  0  0  0  0  0
    1.9919   -0.3006    0.7416 C   0  0  0  0  0  0  0  0  0  0  0  0
    3.2720    0.0028   -0.0501 C   0  0  0  0  0  0  0  0  0  0  0  0
    3.2497    0.5872   -1.1353 O   0  0  0  0  0  0  0  0  0  0  0  0
    4.4838   -0.4166    0.5088 N   0  0  0  0  0  0  0  0  0  0  0  0
    4.5969   -1.2924    1.6674 C   0  0  0  0  0  0  0  0  0  0  0  0
    5.7072   -0.1793   -0.2667 C   0  0  0  0  0  0  0  0  0  0  0  0
    5.8970   -1.1855   -1.4017 C   0  0  0  0  0  0  0  0  0  0  0  0
    7.1835   -0.9642   -2.0694 C   0  0  0  0  0  0  0  0  0  0  0  0
    8.2136   -0.7994   -2.5775 N   0  0  0  0  0  0  0  0  0  0  0  0
   -1.4746    0.4110   -0.0980 C   0  0  0  0  0  0  0  0  0  0  0  0
   -6.8373    1.3719    1.1765 H   0  0  0  0  0  0  0  0  0  0  0  0
   -5.2124    1.6115    1.8393 H   0  0  0  0  0  0  0  0  0  0  0  0
   -5.7406    2.5532    0.4410 H   0  0  0  0  0  0  0  0  0  0  0  0
   -5.9135    0.4705   -0.9192 H   0  0  0  0  0  0  0  0  0  0  0  0
   -5.4002   -0.5104    0.4189 H   0  0  0  0  0  0  0  0  0  0  0  0
   -4.5645    2.1767   -1.8004 H   0  0  0  0  0  0  0  0  0  0  0  0
   -2.8432    2.2001   -1.5744 H   0  0  0  0  0  0  0  0  0  0  0  0
   -2.7068   -0.0609   -2.7724 H   0  0  0  0  0  0  0  0  0  0  0  0
   -3.4545    1.1992   -3.7674 H   0  0  0  0  0  0  0  0  0  0  0  0
   -4.4617   -0.0215   -2.9708 H   0  0  0  0  0  0  0  0  0  0  0  0
   -3.9589   -0.4879    2.0117 H   0  0  0  0  0  0  0  0  0  0  0  0
   -2.0710   -1.2888    3.2995 H   0  0  0  0  0  0  0  0  0  0  0  0
    0.2244   -1.0328    2.4868 H   0  0  0  0  0  0  0  0  0  0  0  0
    1.9264   -1.3881    0.8622 H   0  0  0  0  0  0  0  0  0  0  0  0
    2.0748    0.2091    1.7084 H   0  0  0  0  0  0  0  0  0  0  0  0
    5.4425   -0.9679    2.2807 H   0  0  0  0  0  0  0  0  0  0  0  0
    3.6998   -1.2784    2.2873 H   0  0  0  0  0  0  0  0  0  0  0  0
    4.7689   -2.3137    1.3160 H   0  0  0  0  0  0  0  0  0  0  0  0
    5.6631    0.8367   -0.6805 H   0  0  0  0  0  0  0  0  0  0  0  0
    6.5611   -0.1944    0.4220 H   0  0  0  0  0  0  0  0  0  0  0  0
    5.0815   -1.1046   -2.1286 H   0  0  0  0  0  0  0  0  0  0  0  0
    5.8622   -2.2066   -1.0046 H   0  0  0  0  0  0  0  0  0  0  0  0
   -1.2460    0.8744   -1.0532 H   0  0  0  0  0  0  0  0  0  0  0  0
  1  2  1  0
  2  3  1  0
  3  4  1  0
  4  5  1  0
  3  6  1  0
  6  7  2  0
  7  8  1  0
  8  9  2  0
  9 10  1  0
 10 11  1  0
 11 12  1  0
 12 13  1  0
 13 14  2  0
 13 15  1  0
 15 16  1  0
 15 17  1  0
 17 18  1  0
 18 19  1  0
 19 20  3  0
 10 21  2  0
 21  6  1  0
  1 22  1  0
  1 23  1  0
  1 24  1  0
  2 25  1  0
  2 26  1  0
  4 27  1  0
  4 28  1  0
  5 29  1  0
  5 30  1  0
  5 31  1  0
  7 32  1  0
  8 33  1  0
  9 34  1  0
 12 35  1  0
 12 36  1  0
 16 37  1  0
 16 38  1  0
 16 39  1  0
 17 40  1  0
 17 41  1  0
 18 42  1  0
 18 43  1  0
 21 44  1  0
M  END
$$$$
