
     RDKit          3D

 39 41  0  0  0  0  0  0  0  0999 V2000
    3.9290   -0.8818   -1.5403 C   0  0  0  0  0  0  0  0  0  0  0  0
    3.3864   -0.0738   -0.4462 N   0  0  0  0  0  0  0  0  0  0  0  0
    4.4826    0.5714    0.2815 C   0  0  0  0  0  0  0  0  0  0  0  0
    2.5710   -0.8811    0.4841 C   0  0  0  0  0  0  0  0  0  0  0  0
    1.2489   -1.4167   -0.1023 C   0  0  0  0  0  0  0  0  0  0  0  0
    0.3394   -0.3247   -0.6098 C   0  0  0  0  0  0  0  0  0  0  0  0
   -0.8791    0.0650   -0.1700 C   0  0  0  0  0  0  0  0  0  0  0  0
   -1.6227    1.0505   -1.0056 C   0  0  0  0  0  0  0  0  0  0  0  0
   -1.0185    2.2214   -1.4914 C   0  0  0  0  0  0  0  0  0  0  0  0
   -1.7454    3.1251   -2.2687 C   0  0  0  0  0  0  0  0  0  0  0  0
   -3.0836    2.8742   -2.5621 C   0  0  0  0  0  0  0  0  0  0  0  0
   -3.7023    1.7242   -2.0697 C   0  0  0  0  0  0  0  0  0  0  0  0
   -2.9839    0.8151   -1.2824 C   0  0  0  0  0  0  0  0  0  0  0  0
   -3.8411   -0.6330   -0.6589 S   0  0  0  0  0  0  0  0  0  0  0  0
   -2.9203   -0.9411    0.8484 C   0  0  0  0  0  0  0  0  0  0  0  0
   -3.5920   -1.5424    1.9215 C   0  0  0  0  0  0  0  0  0  0  0  0
   -2.9379   -1.7445    3.1378 C   0  0  0  0  0  0  0  0  0  0  0  0
   -1.6173   -1.3304    3.2865 C   0  0  0  0  0  0  0  0  0  0  0  0
   -0.8194   -1.5479    4.7956 Cl  0  0  0  0  0  0  0  0  0  0  0  0
   -0.9359   -0.7369    2.2247 C   0  0  0  0  0  0  0  0  0  0  0  0
   -1.5663   -0.5729    0.9826 C   0  0  0  0  0  0  0  0  0  0  0  0
    3.1305   -1.2844   -2.1710 H   0  0  0  0  0  0  0  0  0  0  0  0
    4.5514   -0.2660   -2.1998 H   0  0  0  0  0  0  0  0  0  0  0  0
    4.5391   -1.7159   -1.1753 H   0  0  0  0  0  0  0  0  0  0  0  0
    4.0909    1.2277    1.0667 H   0  0  0  0  0  0  0  0  0  0  0  0
    5.0695    1.2078   -0.3904 H   0  0  0  0  0  0  0  0  0  0  0  0
    5.1574   -0.1578    0.7444 H   0  0  0  0  0  0  0  0  0  0  0  0
    3.1569   -1.7275    0.8664 H   0  0  0  0  0  0  0  0  0  0  0  0
    2.3134   -0.2632    1.3544 H   0  0  0  0  0  0  0  0  0  0  0  0
    1.4557   -2.1005   -0.9342 H   0  0  0  0  0  0  0  0  0  0  0  0
    0.7574   -2.0384    0.6516 H   0  0  0  0  0  0  0  0  0  0  0  0
    0.7468    0.1495   -1.5043 H   0  0  0  0  0  0  0  0  0  0  0  0
    0.0220    2.4412   -1.2618 H   0  0  0  0  0  0  0  0  0  0  0  0
   -1.2654    4.0259   -2.6431 H   0  0  0  0  0  0  0  0  0  0  0  0
   -3.6488    3.5771   -3.1689 H   0  0  0  0  0  0  0  0  0  0  0  0
   -4.7503    1.5462   -2.2990 H   0  0  0  0  0  0  0  0  0  0  0  0
   -4.6327   -1.8427    1.8217 H   0  0  0  0  0  0  0  0  0  0  0  0
   -3.4689   -2.2065    3.9658 H   0  0  0  0  0  0  0  0  0  0  0  0
    0.0836   -0.3921    2.3701 H   0  0  0  0  0  0  0  0  0  0  0  0
  1  2  1  0
  2  3  1  0
  2  4  1  0
  4  5  1  0
  5  6  1  0
  6  7  2  3
  7  8  1  0
  8  9  2  0
  9 10  1  0
 10 11  2  0
 11 12  1  0
 12 13  2  0
 13 14  1  0
 14 15  1  0
 15 16  2  0
 16 17  1  0
 17 18  2  0
 18 19  1  0
 18 20  1  0
 20 21  2  0
 21  7  1  0
 13  8  1  0
 21 15  1  0
  1 22  1  0
  1 23  1  0
  1 24  1  0
  3 25  1  0
  3 26  1  0
  3 27  1  0
  4 28  1  0
  4 29  1  0
  5 30  1  0
  5 31  1  0
  6 32  1  0
  9 33  1  0
 10 34  1  0
 11 35  1  0
 12 36  1  0
 16 37  1  0
 17 38  1  0
 20 39  1  0
M  END
$$$$
