
     RDKit          3D

 61 65  0  0  0  0  0  0  0  0999 V2000
    0.9014   -1.5156    4.4944 C   0  0  0  0  0  0  0  0  0  0  0  0
    1.6976   -0.7297    3.4961 C   0  0  0  0  0  0  0  0  0  0  0  0
    2.5201    0.3172    3.9052 C   0  0  0  0  0  0  0  0  0  0  0  0
    3.2458    1.0494    2.9610 C   0  0  0  0  0  0  0  0  0  0  0  0
    3.1646    0.7832    1.6014 C   0  0  0  0  0  0  0  0  0  0  0  0
    3.9073    1.5205    0.7574 N   0  0  0  0  0  0  0  0  0  0  0  0
    3.8712    1.2748   -0.5773 C   0  0  0  0  0  0  0  0  0  0  0  0
    4.7789    2.0971   -1.4064 C   0  0  0  0  0  0  0  0  0  0  0  0
    5.9977    2.5666   -0.8797 C   0  0  0  0  0  0  0  0  0  0  0  0
    6.8835    3.3257   -1.6492 C   0  0  0  0  0  0  0  0  0  0  0  0
    6.5672    3.6412   -2.9668 C   0  0  0  0  0  0  0  0  0  0  0  0
    5.3644    3.2023   -3.5111 C   0  0  0  0  0  0  0  0  0  0  0  0
    4.4802    2.4406   -2.7392 C   0  0  0  0  0  0  0  0  0  0  0  0
    3.0465    0.2962   -1.1030 C   0  0  0  0  0  0  0  0  0  0  0  0
    2.2505   -0.4410   -0.2264 C   0  0  0  0  0  0  0  0  0  0  0  0
    1.3861   -1.4707   -0.8302 C   0  0  0  0  0  0  0  0  0  0  0  0
    1.9334   -2.4418   -1.3452 O   0  0  0  0  0  0  0  0  0  0  0  0
    0.0092   -1.2967   -0.8068 N   0  0  0  0  0  0  0  0  0  0  0  0
   -0.7101   -0.0882   -0.3847 C   0  0  0  0  0  0  0  0  0  0  0  0
   -1.9026   -0.4185    0.5319 C   0  0  0  0  0  0  0  0  0  0  0  0
   -2.6731   -1.6047    0.0673 N   0  0  0  0  0  0  0  0  0  0  0  0
   -4.2498   -1.7913    0.6216 S   0  0  0  0  0  6  0  0  0  0  0  0
   -4.7240   -3.0948    0.2151 O   0  0  0  0  0  0  0  0  0  0  0  0
   -4.2903   -1.3643    2.0023 O   0  0  0  0  0  0  0  0  0  0  0  0
   -5.2667   -0.6952   -0.2105 C   0  0  0  0  0  0  0  0  0  0  0  0
   -5.7414    0.5607    0.2350 C   0  0  0  0  0  0  0  0  0  0  0  0
   -5.5358    1.2542    1.5295 C   0  0  0  0  0  0  0  0  0  0  0  0
   -6.4944    1.1449   -0.7096 N   0  0  0  0  0  0  0  0  0  0  0  0
   -6.5466    0.2541   -1.7637 O   0  0  0  0  0  0  0  0  0  0  0  0
   -5.8174   -0.8549   -1.4616 C   0  0  0  0  0  0  0  0  0  0  0  0
   -5.8032   -1.9136   -2.4896 C   0  0  0  0  0  0  0  0  0  0  0  0
   -2.3234   -2.0949   -1.2834 C   0  0  0  0  0  0  0  0  0  0  0  0
   -0.8157   -2.3804   -1.3509 C   0  0  0  0  0  0  0  0  0  0  0  0
    2.3122   -0.2441    1.1678 C   0  0  0  0  0  0  0  0  0  0  0  0
    1.5928   -1.0015    2.1281 C   0  0  0  0  0  0  0  0  0  0  0  0
   -0.1015   -1.0874    4.5930 H   0  0  0  0  0  0  0  0  0  0  0  0
    1.3860   -1.5088    5.4767 H   0  0  0  0  0  0  0  0  0  0  0  0
    0.8136   -2.5617    4.1829 H   0  0  0  0  0  0  0  0  0  0  0  0
    2.6175    0.5665    4.9600 H   0  0  0  0  0  0  0  0  0  0  0  0
    3.8999    1.8507    3.2996 H   0  0  0  0  0  0  0  0  0  0  0  0
    6.2686    2.3298    0.1484 H   0  0  0  0  0  0  0  0  0  0  0  0
    7.8199    3.6670   -1.2169 H   0  0  0  0  0  0  0  0  0  0  0  0
    7.2546    4.2309   -3.5663 H   0  0  0  0  0  0  0  0  0  0  0  0
    5.1111    3.4541   -4.5381 H   0  0  0  0  0  0  0  0  0  0  0  0
    3.5429    2.1317   -3.1952 H   0  0  0  0  0  0  0  0  0  0  0  0
    3.0318    0.0743   -2.1647 H   0  0  0  0  0  0  0  0  0  0  0  0
   -1.0725    0.3896   -1.3033 H   0  0  0  0  0  0  0  0  0  0  0  0
   -0.0549    0.6367    0.1000 H   0  0  0  0  0  0  0  0  0  0  0  0
   -1.5289   -0.6503    1.5353 H   0  0  0  0  0  0  0  0  0  0  0  0
   -2.5461    0.4629    0.5984 H   0  0  0  0  0  0  0  0  0  0  0  0
   -4.4694    1.3512    1.7558 H   0  0  0  0  0  0  0  0  0  0  0  0
   -5.9625    2.2620    1.5183 H   0  0  0  0  0  0  0  0  0  0  0  0
   -6.0211    0.7001    2.3372 H   0  0  0  0  0  0  0  0  0  0  0  0
   -6.5364   -1.7097   -3.2776 H   0  0  0  0  0  0  0  0  0  0  0  0
   -4.8185   -1.9819   -2.9585 H   0  0  0  0  0  0  0  0  0  0  0  0
   -6.0515   -2.8859   -2.0545 H   0  0  0  0  0  0  0  0  0  0  0  0
   -2.8642   -3.0113   -1.5319 H   0  0  0  0  0  0  0  0  0  0  0  0
   -2.5918   -1.3312   -2.0197 H   0  0  0  0  0  0  0  0  0  0  0  0
   -0.5168   -2.5572   -2.3920 H   0  0  0  0  0  0  0  0  0  0  0  0
   -0.5773   -3.2869   -0.7788 H   0  0  0  0  0  0  0  0  0  0  0  0
    0.9512   -1.8219    1.8064 H   0  0  0  0  0  0  0  0  0  0  0  0
  1  2  1  0
  2  3  2  0
  3  4  1  0
  4  5  2  0
  5  6  1  0
  6  7  2  0
  7  8  1  0
  8  9  2  0
  9 10  1  0
 10 11  2  0
 11 12  1  0
 12 13  2  0
  7 14  1  0
 14 15  2  0
 15 16  1  0
 16 17  2  0
 16 18  1  0
 18 19  1  0
 19 20  1  0
 20 21  1  0
 21 22  1  0
 22 23  2  0
 22 24  2  0
 22 25  1  0
 25 26  1  0
 26 27  1  0
 26 28  2  0
 28 29  1  0
 29 30  1  0
 30 31  1  0
 21 32  1  0
 32 33  1  0
 15 34  1  0
 34 35  2  0
 35  2  1  0
 34  5  1  0
 13  8  1  0
 33 18  1  0
 30 25  2  0
  1 36  1  0
  1 37  1  0
  1 38  1  0
  3 39  1  0
  4 40  1  0
  9 41  1  0
 10 42  1  0
 11 43  1  0
 12 44  1  0
 13 45  1  0
 14 46  1  0
 19 47  1  0
 19 48  1  0
 20 49  1  0
 20 50  1  0
 27 51  1  0
 27 52  1  0
 27 53  1  0
 31 54  1  0
 31 55  1  0
 31 56  1  0
 32 57  1  0
 32 58  1  0
 33 59  1  0
 33 60  1  0
 35 61  1  0
M  END
$$$$
