
     RDKit          3D

 36 37  0  0  0  0  0  0  0  0999 V2000
   -2.0579    0.3893    1.4307 O   0  0  0  0  0  0  0  0  0  0  0  0
   -1.0929    0.8006    0.7869 C   0  0  0  0  0  0  0  0  0  0  0  0
   -0.1968    1.9437    1.2687 C   0  0  0  0  0  0  0  0  0  0  0  0
    1.1128    1.9497    0.6960 O   0  0  0  0  0  0  0  0  0  0  0  0
    1.9608    1.0466    1.2461 C   0  0  0  0  0  0  0  0  0  0  0  0
    1.7108    0.2321    2.1135 O   0  0  0  0  0  0  0  0  0  0  0  0
    3.2698    1.2047    0.6010 C   0  0  0  0  0  0  0  0  0  0  0  0
    4.0757    2.2789    1.0012 C   0  0  0  0  0  0  0  0  0  0  0  0
    5.3326    2.4536    0.4225 C   0  0  0  0  0  0  0  0  0  0  0  0
    5.7824    1.5590   -0.5492 C   0  0  0  0  0  0  0  0  0  0  0  0
    4.9776    0.4879   -0.9467 C   0  0  0  0  0  0  0  0  0  0  0  0
    3.7168    0.3063   -0.3713 C   0  0  0  0  0  0  0  0  0  0  0  0
    2.6618   -1.1486   -0.9771 Br  0  0  0  0  0  0  0  0  0  0  0  0
   -0.7931    0.3192   -0.4729 N   0  0  0  0  0  0  0  0  0  0  0  0
   -1.4470   -0.8788   -0.9674 C   0  0  0  0  0  0  0  0  0  0  0  0
   -2.9412   -0.6745   -1.2609 C   0  0  0  0  0  0  0  0  0  0  0  0
   -3.7256   -1.8361   -0.8976 N   0  0  0  0  0  0  0  0  0  0  0  0
   -4.3563   -2.0209    0.3101 C   0  0  0  0  0  0  0  0  0  0  0  0
   -4.2926   -1.0987    1.3118 O   0  0  0  0  0  0  0  0  0  0  0  0
   -5.0308   -3.1699    0.4112 C   0  0  0  0  0  0  0  0  0  0  0  0
   -4.8829   -4.1265   -1.0296 S   0  0  0  0  0  0  0  0  0  0  0  0
   -3.8557   -2.8966   -1.7842 C   0  0  0  0  0  0  0  0  0  0  0  0
   -3.3580   -3.0084   -2.8930 O   0  0  0  0  0  0  0  0  0  0  0  0
   -0.1374    1.9218    2.3634 H   0  0  0  0  0  0  0  0  0  0  0  0
   -0.6821    2.8826    0.9821 H   0  0  0  0  0  0  0  0  0  0  0  0
    3.7310    2.9734    1.7640 H   0  0  0  0  0  0  0  0  0  0  0  0
    5.9644    3.2839    0.7309 H   0  0  0  0  0  0  0  0  0  0  0  0
    6.7642    1.6946   -0.9983 H   0  0  0  0  0  0  0  0  0  0  0  0
    5.3455   -0.1988   -1.7062 H   0  0  0  0  0  0  0  0  0  0  0  0
    0.1201    0.5522   -0.8477 H   0  0  0  0  0  0  0  0  0  0  0  0
   -1.2915   -1.6639   -0.2175 H   0  0  0  0  0  0  0  0  0  0  0  0
   -0.9246   -1.1854   -1.8801 H   0  0  0  0  0  0  0  0  0  0  0  0
   -3.3599    0.2099   -0.7686 H   0  0  0  0  0  0  0  0  0  0  0  0
   -3.0613   -0.4959   -2.3372 H   0  0  0  0  0  0  0  0  0  0  0  0
   -3.4487   -0.6004    1.2535 H   0  0  0  0  0  0  0  0  0  0  0  0
   -5.5902   -3.4867    1.2799 H   0  0  0  0  0  0  0  0  0  0  0  0
  1  2  2  0
  2  3  1  0
  3  4  1  0
  4  5  1  0
  5  6  2  0
  5  7  1  0
  7  8  2  0
  8  9  1  0
  9 10  2  0
 10 11  1  0
 11 12  2  0
 12 13  1  0
  2 14  1  0
 14 15  1  0
 15 16  1  0
 16 17  1  0
 17 18  1  0
 18 19  1  0
 18 20  2  0
 20 21  1  0
 21 22  1  0
 22 23  2  0
 12  7  1  0
 22 17  1  0
  3 24  1  0
  3 25  1  0
  8 26  1  0
  9 27  1  0
 10 28  1  0
 11 29  1  0
 14 30  1  0
 15 31  1  0
 15 32  1  0
 16 33  1  0
 16 34  1  0
 19 35  1  0
 20 36  1  0
M  END
$$$$
