
     RDKit          3D

 58 61  0  0  0  0  0  0  0  0999 V2000
   -5.0702    5.5397   -0.7989 C   0  0  0  0  0  0  0  0  0  0  0  0
   -4.0034    4.6003   -0.7911 O   0  0  0  0  0  0  0  0  0  0  0  0
   -4.0703    3.5931    0.1326 C   0  0  0  0  0  0  0  0  0  0  0  0
   -5.0733    3.4153    1.0758 C   0  0  0  0  0  0  0  0  0  0  0  0
   -5.0285    2.3403    1.9711 C   0  0  0  0  0  0  0  0  0  0  0  0
   -3.9505    1.4366    1.9093 C   0  0  0  0  0  0  0  0  0  0  0  0
   -3.6998    0.0611    2.9077 S   0  0  0  0  0  0  0  0  0  0  0  0
   -2.2392   -0.3504    2.1211 C   0  0  0  0  0  0  0  0  0  0  0  0
   -1.4951   -1.5221    2.6016 C   0  0  0  0  0  0  0  0  0  0  0  0
   -0.4682   -1.3259    3.5401 C   0  0  0  0  0  0  0  0  0  0  0  0
    0.2730   -2.4056    4.0158 C   0  0  0  0  0  0  0  0  0  0  0  0
   -0.0044   -3.6896    3.5561 C   0  0  0  0  0  0  0  0  0  0  0  0
   -1.0204   -3.8987    2.6184 C   0  0  0  0  0  0  0  0  0  0  0  0
   -1.7717   -2.8225    2.1307 C   0  0  0  0  0  0  0  0  0  0  0  0
   -2.7775   -2.9360    1.2034 O   0  0  0  0  0  0  0  0  0  0  0  0
   -3.0450   -4.2287    0.6779 C   0  0  0  0  0  0  0  0  0  0  0  0
   -1.9340    0.5415    1.1064 C   0  0  0  0  0  0  0  0  0  0  0  0
   -0.7248    0.4024    0.3037 C   0  0  0  0  0  0  0  0  0  0  0  0
    0.3396    1.2922    0.4815 C   0  0  0  0  0  0  0  0  0  0  0  0
    1.5007    1.1698   -0.2908 C   0  0  0  0  0  0  0  0  0  0  0  0
    1.6033    0.1588   -1.2471 C   0  0  0  0  0  0  0  0  0  0  0  0
    2.6727   -0.0686   -2.0677 O   0  0  0  0  0  0  0  0  0  0  0  0
    3.8165    0.7690   -1.8992 C   0  0  0  0  0  0  0  0  0  0  0  0
    4.9109    0.3608   -2.9059 C   0  0  0  0  0  0  0  0  0  0  0  0
    5.4645   -1.0001   -2.7380 N   0  0  0  0  0  0  0  0  0  0  0  0
    6.3681   -1.3155   -3.8459 C   0  0  0  0  0  0  0  0  0  0  0  0
    6.1571   -1.1676   -1.4616 C   0  0  0  0  0  0  0  0  0  0  0  0
    0.5356   -0.7250   -1.4254 C   0  0  0  0  0  0  0  0  0  0  0  0
   -0.6249   -0.6063   -0.6574 C   0  0  0  0  0  0  0  0  0  0  0  0
   -2.9243    1.5870    0.9757 C   0  0  0  0  0  0  0  0  0  0  0  0
   -3.0050    2.6863    0.0807 C   0  0  0  0  0  0  0  0  0  0  0  0
   -4.8710    6.2652   -1.5935 H   0  0  0  0  0  0  0  0  0  0  0  0
   -6.0243    5.0526   -1.0246 H   0  0  0  0  0  0  0  0  0  0  0  0
   -5.1198    6.0879    0.1474 H   0  0  0  0  0  0  0  0  0  0  0  0
   -5.9160    4.0950    1.1489 H   0  0  0  0  0  0  0  0  0  0  0  0
   -5.8179    2.2058    2.7054 H   0  0  0  0  0  0  0  0  0  0  0  0
   -0.2438   -0.3243    3.9006 H   0  0  0  0  0  0  0  0  0  0  0  0
    1.0657   -2.2438    4.7414 H   0  0  0  0  0  0  0  0  0  0  0  0
    0.5735   -4.5335    3.9248 H   0  0  0  0  0  0  0  0  0  0  0  0
   -1.1978   -4.9165    2.2874 H   0  0  0  0  0  0  0  0  0  0  0  0
   -3.8542   -4.1313   -0.0523 H   0  0  0  0  0  0  0  0  0  0  0  0
   -3.3868   -4.9113    1.4630 H   0  0  0  0  0  0  0  0  0  0  0  0
   -2.1714   -4.6305    0.1538 H   0  0  0  0  0  0  0  0  0  0  0  0
    0.2725    2.0848    1.2233 H   0  0  0  0  0  0  0  0  0  0  0  0
    2.3014    1.8806   -0.1200 H   0  0  0  0  0  0  0  0  0  0  0  0
    4.1941    0.7099   -0.8729 H   0  0  0  0  0  0  0  0  0  0  0  0
    3.5374    1.8080   -2.1143 H   0  0  0  0  0  0  0  0  0  0  0  0
    4.4606    0.4213   -3.9050 H   0  0  0  0  0  0  0  0  0  0  0  0
    5.7191    1.1023   -2.8661 H   0  0  0  0  0  0  0  0  0  0  0  0
    7.2313   -0.6405   -3.8795 H   0  0  0  0  0  0  0  0  0  0  0  0
    5.8415   -1.2518   -4.8050 H   0  0  0  0  0  0  0  0  0  0  0  0
    6.7371   -2.3442   -3.7624 H   0  0  0  0  0  0  0  0  0  0  0  0
    6.5961   -2.1694   -1.3885 H   0  0  0  0  0  0  0  0  0  0  0  0
    6.9593   -0.4331   -1.3279 H   0  0  0  0  0  0  0  0  0  0  0  0
    5.4623   -1.0845   -0.6203 H   0  0  0  0  0  0  0  0  0  0  0  0
    0.6099   -1.5143   -2.1692 H   0  0  0  0  0  0  0  0  0  0  0  0
   -1.4446   -1.3036   -0.8130 H   0  0  0  0  0  0  0  0  0  0  0  0
   -2.2255    2.8275   -0.6650 H   0  0  0  0  0  0  0  0  0  0  0  0
  1  2  1  0
  2  3  1  0
  3  4  2  0
  4  5  1  0
  5  6  2  0
  6  7  1  0
  7  8  1  0
  8  9  1  0
  9 10  2  0
 10 11  1  0
 11 12  2  0
 12 13  1  0
 13 14  2  0
 14 15  1  0
 15 16  1  0
  8 17  2  0
 17 18  1  0
 18 19  2  0
 19 20  1  0
 20 21  2  0
 21 22  1  0
 22 23  1  0
 23 24  1  0
 24 25  1  0
 25 26  1  0
 25 27  1  0
 21 28  1  0
 28 29  2  0
 17 30  1  0
 30 31  2  0
 31  3  1  0
 30  6  1  0
 14  9  1  0
 29 18  1  0
  1 32  1  0
  1 33  1  0
  1 34  1  0
  4 35  1  0
  5 36  1  0
 10 37  1  0
 11 38  1  0
 12 39  1  0
 13 40  1  0
 16 41  1  0
 16 42  1  0
 16 43  1  0
 19 44  1  0
 20 45  1  0
 23 46  1  0
 23 47  1  0
 24 48  1  0
 24 49  1  0
 26 50  1  0
 26 51  1  0
 26 52  1  0
 27 53  1  0
 27 54  1  0
 27 55  1  0
 28 56  1  0
 29 57  1  0
 31 58  1  0
M  END
$$$$
