
     RDKit          3D

 68 69  0  0  0  0  0  0  0  0999 V2000
   -1.9024    0.5447    5.0265 C   0  0  0  0  0  0  0  0  0  0  0  0
   -1.8141   -0.0089    3.7227 O   0  0  0  0  0  0  0  0  0  0  0  0
   -0.4623   -0.2510    3.3354 C   0  0  0  0  0  0  0  0  0  0  0  0
   -0.4190   -0.6892    1.8646 C   0  0  0  0  0  0  0  0  0  0  0  0
   -0.2655    0.4304    0.9128 N   0  0  0  0  0  0  0  0  0  0  0  0
    0.9930    1.0100    0.8214 C   0  0  0  0  0  0  0  0  0  0  0  0
    1.9068    0.6865    1.5841 O   0  0  0  0  0  0  0  0  0  0  0  0
    1.2253    2.0778   -0.2373 C   0  0  0  0  0  0  0  0  0  0  0  0
    2.7183    2.2735   -0.4897 C   0  0  0  0  0  0  0  0  0  0  0  0
    3.3090    1.0517   -1.1771 C   0  0  0  0  0  0  0  0  0  0  0  0
    2.5995    0.1679   -1.6525 O   0  0  0  0  0  0  0  0  0  0  0  0
    4.6824    1.0969   -1.2241 N   0  0  0  0  0  0  0  0  0  0  0  0
    5.4880    0.1520   -1.8192 C   0  0  0  0  0  0  0  0  0  0  0  0
    5.1324   -1.0205   -2.5211 C   0  0  0  0  0  0  0  0  0  0  0  0
    6.3309   -1.5732   -2.8984 C   0  0  0  0  0  0  0  0  0  0  0  0
    6.7181   -2.7800   -3.6481 C   0  0  0  0  0  0  0  0  0  0  0  0
    7.3440   -0.7839   -2.4546 O   0  0  0  0  0  0  0  0  0  0  0  0
    6.8172    0.3000   -1.7765 N   0  0  0  0  0  0  0  0  0  0  0  0
   -1.4091    0.7521    0.0174 C   0  0  0  0  0  0  0  0  0  0  0  0
   -1.5926   -0.2832   -1.1394 C   0  0  0  0  0  0  0  0  0  0  0  0
   -2.5564   -0.2503   -1.9024 O   0  0  0  0  0  0  0  0  0  0  0  0
   -0.5575   -1.1928   -1.2840 N   0  0  0  0  0  0  0  0  0  0  0  0
   -0.4582   -2.2002   -2.3507 C   0  0  0  0  0  0  0  0  0  0  0  0
   -1.6821   -3.1332   -2.3521 C   0  0  0  0  0  0  0  0  0  0  0  0
   -0.3014   -1.5257   -3.7216 C   0  0  0  0  0  0  0  0  0  0  0  0
    0.7917   -3.0606   -2.0796 C   0  0  0  0  0  0  0  0  0  0  0  0
   -2.6737    1.1035    0.7958 C   0  0  0  0  0  0  0  0  0  0  0  0
   -3.7864    0.2565    0.8714 C   0  0  0  0  0  0  0  0  0  0  0  0
   -4.9195    0.6354    1.5984 C   0  0  0  0  0  0  0  0  0  0  0  0
   -4.9640    1.8562    2.2742 C   0  0  0  0  0  0  0  0  0  0  0  0
   -6.1332    2.1016    2.9408 O   0  0  0  0  0  0  0  0  0  0  0  0
   -6.1812    3.2787    3.7369 C   0  0  0  0  0  0  0  0  0  0  0  0
   -3.8592    2.7014    2.2189 C   0  0  0  0  0  0  0  0  0  0  0  0
   -2.7260    2.3272    1.4882 C   0  0  0  0  0  0  0  0  0  0  0  0
   -2.9585    0.6296    5.2945 H   0  0  0  0  0  0  0  0  0  0  0  0
   -1.4577    1.5450    5.0401 H   0  0  0  0  0  0  0  0  0  0  0  0
   -1.4016   -0.0984    5.7576 H   0  0  0  0  0  0  0  0  0  0  0  0
    0.1416    0.6459    3.5096 H   0  0  0  0  0  0  0  0  0  0  0  0
   -0.0767   -1.0633    3.9622 H   0  0  0  0  0  0  0  0  0  0  0  0
   -1.3053   -1.2763    1.6009 H   0  0  0  0  0  0  0  0  0  0  0  0
    0.4537   -1.3402    1.7259 H   0  0  0  0  0  0  0  0  0  0  0  0
    0.7847    3.0129    0.1255 H   0  0  0  0  0  0  0  0  0  0  0  0
    0.7458    1.8009   -1.1808 H   0  0  0  0  0  0  0  0  0  0  0  0
    2.8631    3.1325   -1.1534 H   0  0  0  0  0  0  0  0  0  0  0  0
    3.2592    2.4691    0.4425 H   0  0  0  0  0  0  0  0  0  0  0  0
    5.1935    1.8446   -0.7737 H   0  0  0  0  0  0  0  0  0  0  0  0
    4.1469   -1.4104   -2.7265 H   0  0  0  0  0  0  0  0  0  0  0  0
    7.2485   -2.5076   -4.5654 H   0  0  0  0  0  0  0  0  0  0  0  0
    5.8370   -3.3674   -3.9238 H   0  0  0  0  0  0  0  0  0  0  0  0
    7.3754   -3.4140   -3.0451 H   0  0  0  0  0  0  0  0  0  0  0  0
   -1.1727    1.6714   -0.5291 H   0  0  0  0  0  0  0  0  0  0  0  0
    0.3085   -0.9591   -0.8080 H   0  0  0  0  0  0  0  0  0  0  0  0
   -2.6030   -2.6072   -2.6237 H   0  0  0  0  0  0  0  0  0  0  0  0
   -1.5545   -3.9515   -3.0711 H   0  0  0  0  0  0  0  0  0  0  0  0
   -1.8387   -3.5758   -1.3607 H   0  0  0  0  0  0  0  0  0  0  0  0
   -1.1737   -0.9169   -3.9797 H   0  0  0  0  0  0  0  0  0  0  0  0
    0.5723   -0.8642   -3.7371 H   0  0  0  0  0  0  0  0  0  0  0  0
   -0.1734   -2.2689   -4.5168 H   0  0  0  0  0  0  0  0  0  0  0  0
    0.9180   -3.8359   -2.8453 H   0  0  0  0  0  0  0  0  0  0  0  0
    0.7246   -3.5576   -1.1040 H   0  0  0  0  0  0  0  0  0  0  0  0
    1.7015   -2.4501   -2.0703 H   0  0  0  0  0  0  0  0  0  0  0  0
   -3.7971   -0.7056    0.3647 H   0  0  0  0  0  0  0  0  0  0  0  0
   -5.7757   -0.0336    1.6400 H   0  0  0  0  0  0  0  0  0  0  0  0
   -6.0722    4.1791    3.1245 H   0  0  0  0  0  0  0  0  0  0  0  0
   -5.4268    3.2435    4.5287 H   0  0  0  0  0  0  0  0  0  0  0  0
   -7.1652    3.3217    4.2151 H   0  0  0  0  0  0  0  0  0  0  0  0
   -3.8423    3.6582    2.7294 H   0  0  0  0  0  0  0  0  0  0  0  0
   -1.8716    2.9985    1.4717 H   0  0  0  0  0  0  0  0  0  0  0  0
  1  2  1  0
  2  3  1  0
  3  4  1  0
  4  5  1  0
  5  6  1  0
  6  7  2  0
  6  8  1  0
  8  9  1  0
  9 10  1  0
 10 11  2  0
 10 12  1  0
 12 13  1  0
 13 14  1  0
 14 15  2  0
 15 16  1  0
 15 17  1  0
 17 18  1  0
  5 19  1  0
 19 20  1  0
 20 21  2  0
 20 22  1  0
 22 23  1  0
 23 24  1  0
 23 25  1  0
 23 26  1  0
 19 27  1  0
 27 28  2  0
 28 29  1  0
 29 30  2  0
 30 31  1  0
 31 32  1  0
 30 33  1  0
 33 34  2  0
 18 13  2  0
 34 27  1  0
  1 35  1  0
  1 36  1  0
  1 37  1  0
  3 38  1  0
  3 39  1  0
  4 40  1  0
  4 41  1  0
  8 42  1  0
  8 43  1  0
  9 44  1  0
  9 45  1  0
 12 46  1  0
 14 47  1  0
 16 48  1  0
 16 49  1  0
 16 50  1  0
 19 51  1  0
 22 52  1  0
 24 53  1  0
 24 54  1  0
 24 55  1  0
 25 56  1  0
 25 57  1  0
 25 58  1  0
 26 59  1  0
 26 60  1  0
 26 61  1  0
 28 62  1  0
 29 63  1  0
 32 64  1  0
 32 65  1  0
 32 66  1  0
 33 67  1  0
 34 68  1  0
M  END
$$$$
