
     RDKit          3D

 51 53  0  0  0  0  0  0  0  0999 V2000
   -9.0389   -0.7330   -1.2612 C   0  0  0  0  0  0  0  0  0  0  0  0
   -7.5952   -0.3798   -1.0629 C   0  0  0  0  0  0  0  0  0  0  0  0
   -6.7074   -1.2960   -0.4929 C   0  0  0  0  0  0  0  0  0  0  0  0
   -5.3694   -0.9477   -0.2829 C   0  0  0  0  0  0  0  0  0  0  0  0
   -4.8978    0.3239   -0.6288 C   0  0  0  0  0  0  0  0  0  0  0  0
   -3.5389    0.5928   -0.3858 N   0  0  0  0  0  0  0  0  0  0  0  0
   -2.8373    1.7572   -0.6364 C   0  0  0  0  0  0  0  0  0  0  0  0
   -3.2809    2.7922   -1.1266 O   0  0  0  0  0  0  0  0  0  0  0  0
   -1.3607    1.6623   -0.2375 C   0  0  0  0  0  0  0  0  0  0  0  0
   -1.0529    0.3933    0.3364 O   0  0  0  0  0  0  0  0  0  0  0  0
    0.2374    0.1915    0.7396 C   0  0  0  0  0  0  0  0  0  0  0  0
    1.2869    1.1031    0.6233 C   0  0  0  0  0  0  0  0  0  0  0  0
    2.5682    0.7635    1.0758 C   0  0  0  0  0  0  0  0  0  0  0  0
    2.8066   -0.4848    1.6580 C   0  0  0  0  0  0  0  0  0  0  0  0
    4.1230   -0.8872    2.0754 N   0  0  0  0  0  0  0  0  0  0  0  0
    4.9362    0.1027    2.8073 C   0  0  0  0  0  0  0  0  0  0  0  0
    4.9796   -1.9191    1.0066 S   0  0  0  0  0  6  0  0  0  0  0  0
    6.2653   -2.2212    1.6042 O   0  0  0  0  0  0  0  0  0  0  0  0
    4.1089   -2.9876    0.5604 O   0  0  0  0  0  0  0  0  0  0  0  0
    5.2959   -0.8750   -0.4078 C   0  0  0  0  0  0  0  0  0  0  0  0
    4.3761   -0.8478   -1.4642 C   0  0  0  0  0  0  0  0  0  0  0  0
    4.6343   -0.0491   -2.5784 C   0  0  0  0  0  0  0  0  0  0  0  0
    5.8097    0.6945   -2.6330 C   0  0  0  0  0  0  0  0  0  0  0  0
    6.0536    1.4612   -3.7033 F   0  0  0  0  0  0  0  0  0  0  0  0
    6.7393    0.6507   -1.5975 C   0  0  0  0  0  0  0  0  0  0  0  0
    6.4887   -0.1446   -0.4786 C   0  0  0  0  0  0  0  0  0  0  0  0
    1.7596   -1.3998    1.7596 C   0  0  0  0  0  0  0  0  0  0  0  0
    0.4822   -1.0605    1.3077 C   0  0  0  0  0  0  0  0  0  0  0  0
   -5.7874    1.2427   -1.1843 C   0  0  0  0  0  0  0  0  0  0  0  0
   -7.1271    0.8952   -1.3950 C   0  0  0  0  0  0  0  0  0  0  0  0
   -9.1672   -1.8146   -1.3750 H   0  0  0  0  0  0  0  0  0  0  0  0
   -9.6277   -0.3973   -0.4020 H   0  0  0  0  0  0  0  0  0  0  0  0
   -9.4325   -0.2624   -2.1683 H   0  0  0  0  0  0  0  0  0  0  0  0
   -7.0493   -2.2885   -0.2089 H   0  0  0  0  0  0  0  0  0  0  0  0
   -4.7047   -1.6866    0.1569 H   0  0  0  0  0  0  0  0  0  0  0  0
   -2.9878   -0.1546    0.0265 H   0  0  0  0  0  0  0  0  0  0  0  0
   -0.7739    1.8149   -1.1508 H   0  0  0  0  0  0  0  0  0  0  0  0
   -1.1745    2.4600    0.4910 H   0  0  0  0  0  0  0  0  0  0  0  0
    1.1502    2.0846    0.1802 H   0  0  0  0  0  0  0  0  0  0  0  0
    3.3705    1.4855    0.9539 H   0  0  0  0  0  0  0  0  0  0  0  0
    4.3194    0.6295    3.5438 H   0  0  0  0  0  0  0  0  0  0  0  0
    5.7317   -0.3972    3.3679 H   0  0  0  0  0  0  0  0  0  0  0  0
    5.3787    0.8413    2.1337 H   0  0  0  0  0  0  0  0  0  0  0  0
    3.4641   -1.4406   -1.4239 H   0  0  0  0  0  0  0  0  0  0  0  0
    3.9332   -0.0074   -3.4065 H   0  0  0  0  0  0  0  0  0  0  0  0
    7.6554    1.2283   -1.6753 H   0  0  0  0  0  0  0  0  0  0  0  0
    7.2231   -0.1957    0.3222 H   0  0  0  0  0  0  0  0  0  0  0  0
    1.9320   -2.3846    2.1881 H   0  0  0  0  0  0  0  0  0  0  0  0
   -0.3231   -1.7856    1.3970 H   0  0  0  0  0  0  0  0  0  0  0  0
   -5.4740    2.2432   -1.4641 H   0  0  0  0  0  0  0  0  0  0  0  0
   -7.8013    1.6339   -1.8234 H   0  0  0  0  0  0  0  0  0  0  0  0
  1  2  1  0
  2  3  2  0
  3  4  1  0
  4  5  2  0
  5  6  1  0
  6  7  1  0
  7  8  2  0
  7  9  1  0
  9 10  1  0
 10 11  1  0
 11 12  2  0
 12 13  1  0
 13 14  2  0
 14 15  1  0
 15 16  1  0
 15 17  1  0
 17 18  2  0
 17 19  2  0
 17 20  1  0
 20 21  2  0
 21 22  1  0
 22 23  2  0
 23 24  1  0
 23 25  1  0
 25 26  2  0
 14 27  1  0
 27 28  2  0
  5 29  1  0
 29 30  2  0
 30  2  1  0
 28 11  1  0
 26 20  1  0
  1 31  1  0
  1 32  1  0
  1 33  1  0
  3 34  1  0
  4 35  1  0
  6 36  1  0
  9 37  1  0
  9 38  1  0
 12 39  1  0
 13 40  1  0
 16 41  1  0
 16 42  1  0
 16 43  1  0
 21 44  1  0
 22 45  1  0
 25 46  1  0
 26 47  1  0
 27 48  1  0
 28 49  1  0
 29 50  1  0
 30 51  1  0
M  END
$$$$
