
     RDKit          3D

 35 36  0  0  0  0  0  0  0  0999 V2000
    2.6698   -2.3342   -0.9442 C   0  0  0  0  0  0  0  0  0  0  0  0
    2.5194   -1.4708    0.2156 N   0  0  0  0  0  0  0  0  0  0  0  0
    1.2037   -0.8428    0.3589 C   0  0  0  0  0  0  0  0  0  0  0  0
    0.6079   -0.1921   -0.8995 C   0  0  0  0  0  0  0  0  0  0  0  0
   -0.6948    0.5470   -0.5902 C   0  0  0  0  0  0  0  0  0  0  0  0
   -1.6582   -0.3927   -0.1213 O   0  0  0  0  0  0  0  0  0  0  0  0
   -2.8901    0.0749    0.2514 C   0  0  0  0  0  0  0  0  0  0  0  0
   -3.3009    1.4072    0.1373 C   0  0  0  0  0  0  0  0  0  0  0  0
   -4.5845    1.7881    0.5441 C   0  0  0  0  0  0  0  0  0  0  0  0
   -5.4622    0.8399    1.0648 C   0  0  0  0  0  0  0  0  0  0  0  0
   -7.0377    1.3185    1.5618 Cl  0  0  0  0  0  0  0  0  0  0  0  0
   -5.0728   -0.4895    1.1840 C   0  0  0  0  0  0  0  0  0  0  0  0
   -3.7912   -0.8683    0.7774 C   0  0  0  0  0  0  0  0  0  0  0  0
   -3.3509   -2.5334    0.9453 Cl  0  0  0  0  0  0  0  0  0  0  0  0
    3.6699   -0.6086    0.4828 C   0  0  0  0  0  0  0  0  0  0  0  0
    3.8820    0.5037   -0.4931 C   0  0  0  0  0  0  0  0  0  0  0  0
    3.4673    1.9209   -0.1846 C   0  0  0  0  0  0  0  0  0  0  0  0
    4.8275    1.4931   -0.0513 O   0  0  0  0  0  0  0  0  0  0  0  0
    1.8488   -3.0581   -0.9951 H   0  0  0  0  0  0  0  0  0  0  0  0
    2.6946   -1.7774   -1.8864 H   0  0  0  0  0  0  0  0  0  0  0  0
    3.5935   -2.9192   -0.8729 H   0  0  0  0  0  0  0  0  0  0  0  0
    0.5120   -1.6239    0.7005 H   0  0  0  0  0  0  0  0  0  0  0  0
    1.2314   -0.1123    1.1776 H   0  0  0  0  0  0  0  0  0  0  0  0
    1.3104    0.5160   -1.3466 H   0  0  0  0  0  0  0  0  0  0  0  0
    0.4000   -0.9690   -1.6451 H   0  0  0  0  0  0  0  0  0  0  0  0
   -0.5074    1.3161    0.1688 H   0  0  0  0  0  0  0  0  0  0  0  0
   -1.0552    1.0184   -1.5123 H   0  0  0  0  0  0  0  0  0  0  0  0
   -2.6504    2.1762   -0.2666 H   0  0  0  0  0  0  0  0  0  0  0  0
   -4.8923    2.8270    0.4503 H   0  0  0  0  0  0  0  0  0  0  0  0
   -5.7591   -1.2274    1.5898 H   0  0  0  0  0  0  0  0  0  0  0  0
    4.5783   -1.2241    0.5068 H   0  0  0  0  0  0  0  0  0  0  0  0
    3.5783   -0.2064    1.5003 H   0  0  0  0  0  0  0  0  0  0  0  0
    3.9697    0.1802   -1.5202 H   0  0  0  0  0  0  0  0  0  0  0  0
    3.2297    2.5765   -1.0126 H   0  0  0  0  0  0  0  0  0  0  0  0
    2.9137    2.1190    0.7244 H   0  0  0  0  0  0  0  0  0  0  0  0
  1  2  1  0
  2  3  1  0
  3  4  1  0
  4  5  1  0
  5  6  1  0
  6  7  1  0
  7  8  2  0
  8  9  1  0
  9 10  2  0
 10 11  1  0
 10 12  1  0
 12 13  2  0
 13 14  1  0
  2 15  1  0
 15 16  1  0
 16 17  1  0
 17 18  1  0
 13  7  1  0
 18 16  1  0
  1 19  1  0
  1 20  1  0
  1 21  1  0
  3 22  1  0
  3 23  1  0
  4 24  1  0
  4 25  1  0
  5 26  1  0
  5 27  1  0
  8 28  1  0
  9 29  1  0
 12 30  1  0
 15 31  1  0
 15 32  1  0
 16 33  1  0
 17 34  1  0
 17 35  1  0
M  END
$$$$
