
     RDKit          3D

 52 54  0  0  0  0  0  0  0  0999 V2000
    6.1288   -2.3352    0.4186 C   0  0  0  0  0  0  0  0  0  0  0  0
    4.7584   -1.7839    0.6817 C   0  0  0  0  0  0  0  0  0  0  0  0
    4.0124   -2.2325    1.7806 C   0  0  0  0  0  0  0  0  0  0  0  0
    2.7177   -1.7496    2.0186 C   0  0  0  0  0  0  0  0  0  0  0  0
    1.9488   -2.2496    3.2085 C   0  0  0  0  0  0  0  0  0  0  0  0
    2.1880   -0.7832    1.1490 C   0  0  0  0  0  0  0  0  0  0  0  0
    0.9224   -0.3028    1.3684 O   0  0  0  0  0  0  0  0  0  0  0  0
    0.9648    0.8772    2.1845 C   0  0  0  0  0  0  0  0  0  0  0  0
   -0.4070    1.5547    2.1859 C   0  0  0  0  0  0  0  0  0  0  0  0
   -0.7712    2.2493    3.1313 O   0  0  0  0  0  0  0  0  0  0  0  0
   -1.0995    1.3288    1.0162 N   0  0  0  0  0  0  0  0  0  0  0  0
   -2.3658    1.7929    0.6145 C   0  0  0  0  0  0  0  0  0  0  0  0
   -3.1653    2.6203    1.4062 C   0  0  0  0  0  0  0  0  0  0  0  0
   -4.3866    3.0833    0.9186 C   0  0  0  0  0  0  0  0  0  0  0  0
   -4.8067    2.7252   -0.3591 C   0  0  0  0  0  0  0  0  0  0  0  0
   -4.0117    1.8950   -1.1550 C   0  0  0  0  0  0  0  0  0  0  0  0
   -2.7874    1.4020   -0.6867 C   0  0  0  0  0  0  0  0  0  0  0  0
   -1.9606    0.5494   -1.4426 N   0  0  0  0  0  0  0  0  0  0  0  0
   -1.8005    0.7977   -2.8906 C   0  0  0  0  0  0  0  0  0  0  0  0
   -2.7402   -0.0543   -3.7606 C   0  0  0  0  0  0  0  0  0  0  0  0
   -2.6984   -1.4441   -3.4048 O   0  0  0  0  0  0  0  0  0  0  0  0
   -3.0654   -1.6120   -2.0260 C   0  0  0  0  0  0  0  0  0  0  0  0
   -2.0781   -0.8900   -1.0989 C   0  0  0  0  0  0  0  0  0  0  0  0
    2.8880   -0.3728    0.0029 C   0  0  0  0  0  0  0  0  0  0  0  0
    2.3049    0.6074   -0.9738 C   0  0  0  0  0  0  0  0  0  0  0  0
    4.1821   -0.8693   -0.2088 C   0  0  0  0  0  0  0  0  0  0  0  0
    6.0607   -3.2091   -0.2378 H   0  0  0  0  0  0  0  0  0  0  0  0
    6.7665   -1.5818   -0.0572 H   0  0  0  0  0  0  0  0  0  0  0  0
    6.6188   -2.6314    1.3524 H   0  0  0  0  0  0  0  0  0  0  0  0
    4.4409   -2.9753    2.4520 H   0  0  0  0  0  0  0  0  0  0  0  0
    2.3293   -3.2197    3.5455 H   0  0  0  0  0  0  0  0  0  0  0  0
    2.0371   -1.5416    4.0378 H   0  0  0  0  0  0  0  0  0  0  0  0
    0.8908   -2.3901    2.9625 H   0  0  0  0  0  0  0  0  0  0  0  0
    1.2090    0.6065    3.2177 H   0  0  0  0  0  0  0  0  0  0  0  0
    1.6900    1.6079    1.8021 H   0  0  0  0  0  0  0  0  0  0  0  0
   -0.6444    0.7410    0.3208 H   0  0  0  0  0  0  0  0  0  0  0  0
   -2.8573    2.9268    2.4007 H   0  0  0  0  0  0  0  0  0  0  0  0
   -5.0038    3.7312    1.5362 H   0  0  0  0  0  0  0  0  0  0  0  0
   -5.7570    3.0919   -0.7394 H   0  0  0  0  0  0  0  0  0  0  0  0
   -4.3835    1.6368   -2.1385 H   0  0  0  0  0  0  0  0  0  0  0  0
   -0.7677    0.5215   -3.1400 H   0  0  0  0  0  0  0  0  0  0  0  0
   -1.9049    1.8639   -3.1325 H   0  0  0  0  0  0  0  0  0  0  0  0
   -3.7775    0.2885   -3.7031 H   0  0  0  0  0  0  0  0  0  0  0  0
   -2.4367    0.0271   -4.8096 H   0  0  0  0  0  0  0  0  0  0  0  0
   -4.0907   -1.2524   -1.8801 H   0  0  0  0  0  0  0  0  0  0  0  0
   -3.0548   -2.6857   -1.8119 H   0  0  0  0  0  0  0  0  0  0  0  0
   -2.3659   -1.0454   -0.0520 H   0  0  0  0  0  0  0  0  0  0  0  0
   -1.0830   -1.3343   -1.2288 H   0  0  0  0  0  0  0  0  0  0  0  0
    1.2341    0.4294   -1.1160 H   0  0  0  0  0  0  0  0  0  0  0  0
    2.7743    0.5067   -1.9576 H   0  0  0  0  0  0  0  0  0  0  0  0
    2.4573    1.6294   -0.6204 H   0  0  0  0  0  0  0  0  0  0  0  0
    4.7463   -0.5455   -1.0811 H   0  0  0  0  0  0  0  0  0  0  0  0
  1  2  1  0
  2  3  2  0
  3  4  1  0
  4  5  1  0
  4  6  2  0
  6  7  1  0
  7  8  1  0
  8  9  1  0
  9 10  2  0
  9 11  1  0
 11 12  1  0
 12 13  2  0
 13 14  1  0
 14 15  2  0
 15 16  1  0
 16 17  2  0
 17 18  1  0
 18 19  1  0
 19 20  1  0
 20 21  1  0
 21 22  1  0
 22 23  1  0
  6 24  1  0
 24 25  1  0
 24 26  2  0
 26  2  1  0
 17 12  1  0
 23 18  1  0
  1 27  1  0
  1 28  1  0
  1 29  1  0
  3 30  1  0
  5 31  1  0
  5 32  1  0
  5 33  1  0
  8 34  1  0
  8 35  1  0
 11 36  1  0
 13 37  1  0
 14 38  1  0
 15 39  1  0
 16 40  1  0
 19 41  1  0
 19 42  1  0
 20 43  1  0
 20 44  1  0
 22 45  1  0
 22 46  1  0
 23 47  1  0
 23 48  1  0
 25 49  1  0
 25 50  1  0
 25 51  1  0
 26 52  1  0
M  END
$$$$
