
     RDKit          3D

 56 58  0  0  0  0  0  0  0  0999 V2000
    9.3767    1.6239    1.1081 C   0  0  0  0  0  0  0  0  0  0  0  0
    8.7233    0.3616    1.1566 O   0  0  0  0  0  0  0  0  0  0  0  0
    7.7701    0.1222    0.2054 C   0  0  0  0  0  0  0  0  0  0  0  0
    7.4243    0.9738   -0.8439 C   0  0  0  0  0  0  0  0  0  0  0  0
    6.4238    0.6045   -1.7510 C   0  0  0  0  0  0  0  0  0  0  0  0
    5.7619   -0.6241   -1.6253 C   0  0  0  0  0  0  0  0  0  0  0  0
    4.6620   -1.0090   -2.5798 C   0  0  0  0  0  0  0  0  0  0  0  0
    3.3898   -0.5249   -2.1137 N   0  0  0  0  0  0  0  0  0  0  0  0
    2.5442   -1.2935   -1.3508 C   0  0  0  0  0  0  0  0  0  0  0  0
    2.6650   -2.4859   -1.1043 O   0  0  0  0  0  0  0  0  0  0  0  0
    1.3526   -0.4985   -0.7691 C   0  0  0  0  0  0  0  0  0  0  0  0
    1.2154    0.6857   -1.0445 O   0  0  0  0  0  0  0  0  0  0  0  0
    0.5378   -1.2472    0.0492 N   0  0  0  0  0  0  0  0  0  0  0  0
   -0.7209   -0.7358    0.5656 C   0  0  0  0  0  0  0  0  0  0  0  0
   -1.9319   -1.0522   -0.3558 C   0  0  0  0  0  0  0  0  0  0  0  0
   -1.6949   -0.5582   -1.6879 O   0  0  0  0  0  0  0  0  0  0  0  0
   -2.1751    0.7893   -1.6927 C   0  0  0  0  0  0  0  0  0  0  0  0
   -3.3915    0.7698   -0.7892 C   0  0  0  0  0  0  0  0  0  0  0  0
   -3.2065   -0.4304    0.0420 N   0  0  0  0  0  0  0  0  0  0  0  0
   -3.5848   -0.3687    1.6695 S   0  0  0  0  0  6  0  0  0  0  0  0
   -3.4143   -1.6988    2.2124 O   0  0  0  0  0  0  0  0  0  0  0  0
   -2.8836    0.7641    2.2349 O   0  0  0  0  0  0  0  0  0  0  0  0
   -5.3203   -0.0082    1.6480 C   0  0  0  0  0  0  0  0  0  0  0  0
   -6.2132   -0.9973    1.2287 C   0  0  0  0  0  0  0  0  0  0  0  0
   -7.5815   -0.7242    1.2105 C   0  0  0  0  0  0  0  0  0  0  0  0
   -8.0599    0.5331    1.6039 C   0  0  0  0  0  0  0  0  0  0  0  0
   -9.5342    0.8147    1.6192 C   0  0  0  0  0  0  0  0  0  0  0  0
   -7.1527    1.5076    2.0440 C   0  0  0  0  0  0  0  0  0  0  0  0
   -5.7827    1.2413    2.0657 C   0  0  0  0  0  0  0  0  0  0  0  0
    6.1082   -1.4705   -0.5655 C   0  0  0  0  0  0  0  0  0  0  0  0
    7.1079   -1.0997    0.3370 C   0  0  0  0  0  0  0  0  0  0  0  0
    9.9534    1.7341    0.1834 H   0  0  0  0  0  0  0  0  0  0  0  0
   10.0789    1.6689    1.9459 H   0  0  0  0  0  0  0  0  0  0  0  0
    8.6617    2.4446    1.2291 H   0  0  0  0  0  0  0  0  0  0  0  0
    7.9109    1.9330   -0.9853 H   0  0  0  0  0  0  0  0  0  0  0  0
    6.1642    1.2876   -2.5567 H   0  0  0  0  0  0  0  0  0  0  0  0
    4.8434   -0.5669   -3.5663 H   0  0  0  0  0  0  0  0  0  0  0  0
    4.6305   -2.0968   -2.7111 H   0  0  0  0  0  0  0  0  0  0  0  0
    3.2001    0.4731   -2.1181 H   0  0  0  0  0  0  0  0  0  0  0  0
    0.7581   -2.2379    0.1192 H   0  0  0  0  0  0  0  0  0  0  0  0
   -0.6161    0.3462    0.7009 H   0  0  0  0  0  0  0  0  0  0  0  0
   -0.8526   -1.1893    1.5520 H   0  0  0  0  0  0  0  0  0  0  0  0
   -2.0598   -2.1370   -0.4373 H   0  0  0  0  0  0  0  0  0  0  0  0
   -2.4132    1.0990   -2.7141 H   0  0  0  0  0  0  0  0  0  0  0  0
   -1.3951    1.4506   -1.3023 H   0  0  0  0  0  0  0  0  0  0  0  0
   -4.3057    0.6421   -1.3782 H   0  0  0  0  0  0  0  0  0  0  0  0
   -3.4724    1.7000   -0.2209 H   0  0  0  0  0  0  0  0  0  0  0  0
   -5.8506   -1.9761    0.9223 H   0  0  0  0  0  0  0  0  0  0  0  0
   -8.2742   -1.5003    0.8917 H   0  0  0  0  0  0  0  0  0  0  0  0
  -10.0618    0.1881    0.8924 H   0  0  0  0  0  0  0  0  0  0  0  0
   -9.7323    1.8582    1.3528 H   0  0  0  0  0  0  0  0  0  0  0  0
   -9.9420    0.6177    2.6154 H   0  0  0  0  0  0  0  0  0  0  0  0
   -7.5117    2.4797    2.3771 H   0  0  0  0  0  0  0  0  0  0  0  0
   -5.0923    2.0062    2.4131 H   0  0  0  0  0  0  0  0  0  0  0  0
    5.5960   -2.4218   -0.4320 H   0  0  0  0  0  0  0  0  0  0  0  0
    7.3679   -1.7676    1.1551 H   0  0  0  0  0  0  0  0  0  0  0  0
  1  2  1  0
  2  3  1  0
  3  4  2  0
  4  5  1  0
  5  6  2  0
  6  7  1  0
  7  8  1  0
  8  9  1  0
  9 10  2  0
  9 11  1  0
 11 12  2  0
 11 13  1  0
 13 14  1  0
 14 15  1  0
 15 16  1  0
 16 17  1  0
 17 18  1  0
 18 19  1  0
 19 20  1  0
 20 21  2  0
 20 22  2  0
 20 23  1  0
 23 24  2  0
 24 25  1  0
 25 26  2  0
 26 27  1  0
 26 28  1  0
 28 29  2  0
  6 30  1  0
 30 31  2  0
 31  3  1  0
 19 15  1  0
 29 23  1  0
  1 32  1  0
  1 33  1  0
  1 34  1  0
  4 35  1  0
  5 36  1  0
  7 37  1  0
  7 38  1  0
  8 39  1  0
 13 40  1  0
 14 41  1  0
 14 42  1  0
 15 43  1  0
 17 44  1  0
 17 45  1  0
 18 46  1  0
 18 47  1  0
 24 48  1  0
 25 49  1  0
 27 50  1  0
 27 51  1  0
 27 52  1  0
 28 53  1  0
 29 54  1  0
 30 55  1  0
 31 56  1  0
M  END
$$$$
