
     RDKit          3D

 44 46  0  0  0  0  0  0  0  0999 V2000
   -4.2415    2.2227   -2.5262 C   0  0  0  0  0  0  0  0  0  0  0  0
   -3.1103    2.2210   -1.4952 C   0  0  0  0  0  0  0  0  0  0  0  0
   -1.9426    3.0932   -1.9633 C   0  0  0  0  0  0  0  0  0  0  0  0
   -2.6513    0.8101   -1.1673 C   0  0  0  0  0  0  0  0  0  0  0  0
   -2.7658    0.3314    0.1481 C   0  0  0  0  0  0  0  0  0  0  0  0
   -2.3400   -0.9559    0.4790 C   0  0  0  0  0  0  0  0  0  0  0  0
   -1.7807   -1.7694   -0.5080 C   0  0  0  0  0  0  0  0  0  0  0  0
   -1.2051   -3.3991   -0.0907 S   0  0  0  0  0  6  0  0  0  0  0  0
   -1.8209   -3.7920    1.1590 O   0  0  0  0  0  0  0  0  0  0  0  0
   -1.3248   -4.2214   -1.2768 O   0  0  0  0  0  0  0  0  0  0  0  0
    0.4535   -3.1620    0.1522 N   0  0  0  0  0  0  0  0  0  0  0  0
    0.8712   -2.1745    1.0884 C   0  0  0  0  0  0  0  0  0  0  0  0
    0.6625   -2.3653    2.4533 C   0  0  0  0  0  0  0  0  0  0  0  0
    1.0279   -1.3709    3.3612 C   0  0  0  0  0  0  0  0  0  0  0  0
    1.5951   -0.1838    2.8952 C   0  0  0  0  0  0  0  0  0  0  0  0
    1.9420    0.7921    3.7898 O   0  0  0  0  0  0  0  0  0  0  0  0
    1.8063    0.0195    1.5239 C   0  0  0  0  0  0  0  0  0  0  0  0
    2.5003    1.5366    0.8868 S   0  0  0  0  0  0  0  0  0  0  0  0
    4.2022    1.1532    0.8378 C   0  0  0  0  0  0  0  0  0  0  0  0
    4.7103   -0.1206    0.9016 N   0  0  0  0  0  0  0  0  0  0  0  0
    6.0049    0.0694    0.8135 C   0  0  0  0  0  0  0  0  0  0  0  0
    6.2590    1.3967    0.6848 N   0  0  0  0  0  0  0  0  0  0  0  0
    5.1244    2.1104    0.6785 N   0  0  0  0  0  0  0  0  0  0  0  0
    1.4358   -0.9867    0.6219 C   0  0  0  0  0  0  0  0  0  0  0  0
   -1.6793   -1.3225   -1.8270 C   0  0  0  0  0  0  0  0  0  0  0  0
   -2.1094   -0.0344   -2.1505 C   0  0  0  0  0  0  0  0  0  0  0  0
   -4.6163    3.2398   -2.6841 H   0  0  0  0  0  0  0  0  0  0  0  0
   -5.0807    1.6050   -2.1874 H   0  0  0  0  0  0  0  0  0  0  0  0
   -3.9129    1.8360   -3.4970 H   0  0  0  0  0  0  0  0  0  0  0  0
   -3.5089    2.6798   -0.5805 H   0  0  0  0  0  0  0  0  0  0  0  0
   -2.2713    4.1269   -2.1156 H   0  0  0  0  0  0  0  0  0  0  0  0
   -1.1385    3.1033   -1.2189 H   0  0  0  0  0  0  0  0  0  0  0  0
   -1.5180    2.7367   -2.9080 H   0  0  0  0  0  0  0  0  0  0  0  0
   -3.1863    0.9626    0.9289 H   0  0  0  0  0  0  0  0  0  0  0  0
   -2.4347   -1.3071    1.5041 H   0  0  0  0  0  0  0  0  0  0  0  0
    0.9729   -3.2292   -0.7218 H   0  0  0  0  0  0  0  0  0  0  0  0
    0.2183   -3.2890    2.8179 H   0  0  0  0  0  0  0  0  0  0  0  0
    0.8588   -1.5380    4.4206 H   0  0  0  0  0  0  0  0  0  0  0  0
    1.7700    0.4773    4.6915 H   0  0  0  0  0  0  0  0  0  0  0  0
    6.7759   -0.6872    0.8349 H   0  0  0  0  0  0  0  0  0  0  0  0
    7.1481    1.8751    0.5939 H   0  0  0  0  0  0  0  0  0  0  0  0
    1.5853   -0.8339   -0.4433 H   0  0  0  0  0  0  0  0  0  0  0  0
   -1.2681   -1.9629   -2.6037 H   0  0  0  0  0  0  0  0  0  0  0  0
   -2.0175    0.3071   -3.1796 H   0  0  0  0  0  0  0  0  0  0  0  0
  1  2  1  0
  2  3  1  0
  2  4  1  0
  4  5  2  0
  5  6  1  0
  6  7  2  0
  7  8  1  0
  8  9  2  0
  8 10  2  0
  8 11  1  0
 11 12  1  0
 12 13  2  0
 13 14  1  0
 14 15  2  0
 15 16  1  0
 15 17  1  0
 17 18  1  0
 18 19  1  0
 19 20  1  0
 20 21  2  0
 21 22  1  0
 22 23  1  0
 17 24  2  0
  7 25  1  0
 25 26  2  0
 26  4  1  0
 24 12  1  0
 23 19  2  0
  1 27  1  0
  1 28  1  0
  1 29  1  0
  2 30  1  0
  3 31  1  0
  3 32  1  0
  3 33  1  0
  5 34  1  0
  6 35  1  0
 11 36  1  0
 13 37  1  0
 14 38  1  0
 16 39  1  0
 21 40  1  0
 22 41  1  0
 24 42  1  0
 25 43  1  0
 26 44  1  0
M  END
$$$$
