
     RDKit          3D

 56 58  0  0  0  0  0  0  0  0999 V2000
   -6.3623    2.9695    0.4776 C   0  0  0  0  0  0  0  0  0  0  0  0
   -6.4595    1.8590   -0.5588 C   0  0  0  0  0  0  0  0  0  0  0  0
   -5.8120    0.6298   -0.0760 N   0  0  0  0  0  0  0  0  0  0  0  0
   -6.6996   -0.3242    0.6053 C   0  0  0  0  0  0  0  0  0  0  0  0
   -7.2753   -1.3343   -0.3770 C   0  0  0  0  0  0  0  0  0  0  0  0
   -4.4589    0.3795   -0.2682 C   0  0  0  0  0  0  0  0  0  0  0  0
   -3.5878    1.3330   -0.8211 C   0  0  0  0  0  0  0  0  0  0  0  0
   -2.2184    1.0880   -1.0148 C   0  0  0  0  0  0  0  0  0  0  0  0
   -1.6551   -0.1316   -0.6468 C   0  0  0  0  0  0  0  0  0  0  0  0
   -0.2233   -0.3580   -0.8787 C   0  0  0  0  0  0  0  0  0  0  0  0
    0.5607   -1.0353   -0.0249 C   0  0  0  0  0  0  0  0  0  0  0  0
    1.9951   -1.2224   -0.2676 C   0  0  0  0  0  0  0  0  0  0  0  0
    2.3778   -2.1100   -1.2735 C   0  0  0  0  0  0  0  0  0  0  0  0
    3.7173   -2.3274   -1.5342 C   0  0  0  0  0  0  0  0  0  0  0  0
    4.6750   -1.6474   -0.7927 C   0  0  0  0  0  0  0  0  0  0  0  0
    6.0352   -1.8578   -1.0598 C   0  0  0  0  0  0  0  0  0  0  0  0
    7.0191   -1.1800   -0.3401 C   0  0  0  0  0  0  0  0  0  0  0  0
    6.6512   -0.2814    0.6516 C   0  0  0  0  0  0  0  0  0  0  0  0
    7.5012    0.4547    1.4277 O   0  0  0  0  0  0  0  0  0  0  0  0
    8.8989    0.2804    1.2094 C   0  0  0  0  0  0  0  0  0  0  0  0
    5.2938   -0.0670    0.9250 C   0  0  0  0  0  0  0  0  0  0  0  0
    4.2753   -0.7404    0.2259 C   0  0  0  0  0  0  0  0  0  0  0  0
    2.9320   -0.5570    0.4737 N   0  0  0  0  0  4  0  0  0  0  0  0
    2.4814    0.3822    1.5477 C   0  0  0  0  0  0  0  0  0  0  0  0
    2.3906    1.7934    0.9973 C   0  0  0  0  0  0  0  0  0  0  0  0
   -2.4962   -1.1062   -0.1143 C   0  0  0  0  0  0  0  0  0  0  0  0
   -3.8642   -0.8468    0.0729 C   0  0  0  0  0  0  0  0  0  0  0  0
   -6.8652    3.8711    0.1137 H   0  0  0  0  0  0  0  0  0  0  0  0
   -5.3226    3.2276    0.7000 H   0  0  0  0  0  0  0  0  0  0  0  0
   -6.8379    2.6721    1.4180 H   0  0  0  0  0  0  0  0  0  0  0  0
   -7.5212    1.6643   -0.7579 H   0  0  0  0  0  0  0  0  0  0  0  0
   -6.0508    2.1835   -1.5222 H   0  0  0  0  0  0  0  0  0  0  0  0
   -7.5321    0.2163    1.0739 H   0  0  0  0  0  0  0  0  0  0  0  0
   -6.1933   -0.8290    1.4356 H   0  0  0  0  0  0  0  0  0  0  0  0
   -6.4904   -1.9248   -0.8588 H   0  0  0  0  0  0  0  0  0  0  0  0
   -7.8452   -0.8339   -1.1669 H   0  0  0  0  0  0  0  0  0  0  0  0
   -7.9484   -2.0238    0.1420 H   0  0  0  0  0  0  0  0  0  0  0  0
   -3.9506    2.3128   -1.1174 H   0  0  0  0  0  0  0  0  0  0  0  0
   -1.6109    1.8770   -1.4521 H   0  0  0  0  0  0  0  0  0  0  0  0
    0.1772    0.0922   -1.7862 H   0  0  0  0  0  0  0  0  0  0  0  0
    0.1665   -1.4698    0.8905 H   0  0  0  0  0  0  0  0  0  0  0  0
    1.6277   -2.6426   -1.8575 H   0  0  0  0  0  0  0  0  0  0  0  0
    4.0013   -3.0259   -2.3209 H   0  0  0  0  0  0  0  0  0  0  0  0
    6.3509   -2.5535   -1.8379 H   0  0  0  0  0  0  0  0  0  0  0  0
    8.0602   -1.3745   -0.5837 H   0  0  0  0  0  0  0  0  0  0  0  0
    9.2029   -0.7517    1.4122 H   0  0  0  0  0  0  0  0  0  0  0  0
    9.1786    0.5839    0.1953 H   0  0  0  0  0  0  0  0  0  0  0  0
    9.4299    0.9297    1.9119 H   0  0  0  0  0  0  0  0  0  0  0  0
    5.0815    0.6594    1.7037 H   0  0  0  0  0  0  0  0  0  0  0  0
    1.5176    0.0556    1.9461 H   0  0  0  0  0  0  0  0  0  0  0  0
    3.1687    0.3103    2.3947 H   0  0  0  0  0  0  0  0  0  0  0  0
    1.6771    1.8531    0.1700 H   0  0  0  0  0  0  0  0  0  0  0  0
    2.0609    2.4832    1.7802 H   0  0  0  0  0  0  0  0  0  0  0  0
    3.3568    2.1434    0.6223 H   0  0  0  0  0  0  0  0  0  0  0  0
   -2.1221   -2.0911    0.1517 H   0  0  0  0  0  0  0  0  0  0  0  0
   -4.4589   -1.6574    0.4836 H   0  0  0  0  0  0  0  0  0  0  0  0
  1  2  1  0
  2  3  1  0
  3  4  1  0
  4  5  1  0
  3  6  1  0
  6  7  2  0
  7  8  1  0
  8  9  2  0
  9 10  1  0
 10 11  2  3
 11 12  1  0
 12 13  2  0
 13 14  1  0
 14 15  2  0
 15 16  1  0
 16 17  2  0
 17 18  1  0
 18 19  1  0
 19 20  1  0
 18 21  2  0
 21 22  1  0
 22 23  2  0
 23 24  1  0
 24 25  1  0
  9 26  1  0
 26 27  2  0
 27  6  1  0
 23 12  1  0
 22 15  1  0
  1 28  1  0
  1 29  1  0
  1 30  1  0
  2 31  1  0
  2 32  1  0
  4 33  1  0
  4 34  1  0
  5 35  1  0
  5 36  1  0
  5 37  1  0
  7 38  1  0
  8 39  1  0
 10 40  1  0
 11 41  1  0
 13 42  1  0
 14 43  1  0
 16 44  1  0
 17 45  1  0
 20 46  1  0
 20 47  1  0
 20 48  1  0
 21 49  1  0
 24 50  1  0
 24 51  1  0
 25 52  1  0
 25 53  1  0
 25 54  1  0
 26 55  1  0
 27 56  1  0
M  CHG  1  23   1
M  END
$$$$
