
     RDKit          3D

 60 62  0  0  0  0  0  0  0  0999 V2000
   -3.3697    2.0374    2.7108 C   0  0  0  0  0  0  0  0  0  0  0  0
   -2.8808    2.1367    1.2949 C   0  0  0  0  0  0  0  0  0  0  0  0
   -1.5103    2.1567    1.0338 C   0  0  0  0  0  0  0  0  0  0  0  0
   -1.0466    2.1914   -0.2791 C   0  0  0  0  0  0  0  0  0  0  0  0
   -1.9491    2.1828   -1.3548 C   0  0  0  0  0  0  0  0  0  0  0  0
   -1.2415    2.1703   -2.9994 S   0  0  0  0  0  6  0  0  0  0  0  0
    0.1308    2.6253   -2.9062 O   0  0  0  0  0  0  0  0  0  0  0  0
   -2.1582    2.8097   -3.9182 O   0  0  0  0  0  0  0  0  0  0  0  0
   -1.2348    0.5291   -3.4157 N   0  0  0  0  0  0  0  0  0  0  0  0
   -0.7103   -0.4329   -2.4946 C   0  0  0  0  0  0  0  0  0  0  0  0
    0.6463   -0.3406   -2.1518 C   0  0  0  0  0  0  0  0  0  0  0  0
    1.2073   -1.1877   -1.1942 C   0  0  0  0  0  0  0  0  0  0  0  0
    2.6510   -1.0542   -0.7096 C   0  0  0  0  0  0  0  0  0  0  0  0
    2.7080   -0.6149    0.7429 C   0  0  0  0  0  0  0  0  0  0  0  0
    1.9503    0.1947    1.2631 O   0  0  0  0  0  0  0  0  0  0  0  0
    3.7600   -1.2146    1.3702 O   0  0  0  0  0  0  0  0  0  0  0  0
    3.8840   -0.9627    2.7838 C   0  0  0  0  0  0  0  0  0  0  0  0
    4.6964    0.3054    3.0133 C   0  0  0  0  0  0  0  0  0  0  0  0
    4.5826   -2.1701    3.3938 C   0  0  0  0  0  0  0  0  0  0  0  0
    3.5457   -0.2212   -1.5987 C   0  0  0  0  0  0  0  0  0  0  0  0
    4.0025   -0.7122   -2.6403 O   0  0  0  0  0  0  0  0  0  0  0  0
    3.8084    1.2168   -1.1794 C   0  0  0  0  0  0  0  0  0  0  0  0
    4.5007    1.9173   -2.1137 F   0  0  0  0  0  0  0  0  0  0  0  0
    4.5490    1.2928   -0.0399 F   0  0  0  0  0  0  0  0  0  0  0  0
    2.6616    1.9060   -0.9471 F   0  0  0  0  0  0  0  0  0  0  0  0
    0.3781   -2.1720   -0.6296 C   0  0  0  0  0  0  0  0  0  0  0  0
    0.9847   -3.0297    0.2581 O   0  0  0  0  0  0  0  0  0  0  0  0
   -0.9983   -2.2937   -0.9443 C   0  0  0  0  0  0  0  0  0  0  0  0
   -1.8474   -3.2373   -0.3190 C   0  0  0  0  0  0  0  0  0  0  0  0
   -3.2011   -3.3362   -0.6405 C   0  0  0  0  0  0  0  0  0  0  0  0
   -3.7437   -2.4888   -1.5892 C   0  0  0  0  0  0  0  0  0  0  0  0
   -2.9339   -1.5362   -2.2064 C   0  0  0  0  0  0  0  0  0  0  0  0
   -1.5550   -1.4092   -1.9014 C   0  0  0  0  0  0  0  0  0  0  0  0
   -3.3359    2.1854   -1.1167 C   0  0  0  0  0  0  0  0  0  0  0  0
   -4.3686    2.2392   -2.2060 C   0  0  0  0  0  0  0  0  0  0  0  0
   -3.7803    2.1520    0.2201 C   0  0  0  0  0  0  0  0  0  0  0  0
   -3.3043    0.9998    3.0517 H   0  0  0  0  0  0  0  0  0  0  0  0
   -2.7658    2.6640    3.3712 H   0  0  0  0  0  0  0  0  0  0  0  0
   -4.4051    2.3726    2.7997 H   0  0  0  0  0  0  0  0  0  0  0  0
   -0.7880    2.1352    1.8491 H   0  0  0  0  0  0  0  0  0  0  0  0
    0.0287    2.2081   -0.4489 H   0  0  0  0  0  0  0  0  0  0  0  0
   -2.0322    0.2760   -3.9944 H   0  0  0  0  0  0  0  0  0  0  0  0
    1.2521    0.4153   -2.6489 H   0  0  0  0  0  0  0  0  0  0  0  0
    3.0835   -2.0661   -0.7532 H   0  0  0  0  0  0  0  0  0  0  0  0
    2.8926   -0.8678    3.2437 H   0  0  0  0  0  0  0  0  0  0  0  0
    4.8176    0.5107    4.0821 H   0  0  0  0  0  0  0  0  0  0  0  0
    4.2118    1.1703    2.5500 H   0  0  0  0  0  0  0  0  0  0  0  0
    5.6865    0.2202    2.5570 H   0  0  0  0  0  0  0  0  0  0  0  0
    4.0057   -3.0812    3.2007 H   0  0  0  0  0  0  0  0  0  0  0  0
    4.7040   -2.0535    4.4752 H   0  0  0  0  0  0  0  0  0  0  0  0
    5.5684   -2.3235    2.9430 H   0  0  0  0  0  0  0  0  0  0  0  0
    0.5599   -3.9018    0.1717 H   0  0  0  0  0  0  0  0  0  0  0  0
   -1.4727   -3.8987    0.4559 H   0  0  0  0  0  0  0  0  0  0  0  0
   -3.8286   -4.0689   -0.1428 H   0  0  0  0  0  0  0  0  0  0  0  0
   -4.7973   -2.5576   -1.8455 H   0  0  0  0  0  0  0  0  0  0  0  0
   -3.4094   -0.8851   -2.9334 H   0  0  0  0  0  0  0  0  0  0  0  0
   -5.3852    2.1623   -1.8007 H   0  0  0  0  0  0  0  0  0  0  0  0
   -4.2421    1.4049   -2.9045 H   0  0  0  0  0  0  0  0  0  0  0  0
   -4.3137    3.1946   -2.7369 H   0  0  0  0  0  0  0  0  0  0  0  0
   -4.8479    2.1352    0.4322 H   0  0  0  0  0  0  0  0  0  0  0  0
  1  2  1  0
  2  3  2  0
  3  4  1  0
  4  5  2  0
  5  6  1  0
  6  7  2  0
  6  8  2  0
  6  9  1  0
  9 10  1  0
 10 11  2  0
 11 12  1  0
 12 13  1  0
 13 14  1  0
 14 15  2  0
 14 16  1  0
 16 17  1  0
 17 18  1  0
 17 19  1  0
 13 20  1  0
 20 21  2  0
 20 22  1  0
 22 23  1  0
 22 24  1  0
 22 25  1  0
 12 26  2  0
 26 27  1  0
 26 28  1  0
 28 29  2  0
 29 30  1  0
 30 31  2  0
 31 32  1  0
 32 33  2  0
  5 34  1  0
 34 35  1  0
 34 36  2  0
 36  2  1  0
 33 10  1  0
 33 28  1  0
  1 37  1  0
  1 38  1  0
  1 39  1  0
  3 40  1  0
  4 41  1  0
  9 42  1  0
 11 43  1  0
 13 44  1  0
 17 45  1  0
 18 46  1  0
 18 47  1  0
 18 48  1  0
 19 49  1  0
 19 50  1  0
 19 51  1  0
 27 52  1  0
 29 53  1  0
 30 54  1  0
 31 55  1  0
 32 56  1  0
 35 57  1  0
 35 58  1  0
 35 59  1  0
 36 60  1  0
M  END
$$$$
