
     RDKit          3D

 54 57  0  0  0  0  0  0  0  0999 V2000
   -6.7144    2.0600   -0.2405 C   0  0  0  0  0  0  0  0  0  0  0  0
   -5.5741    1.2035    0.2227 C   0  0  0  0  0  0  0  0  0  0  0  0
   -5.6269    0.5563    1.4571 C   0  0  0  0  0  0  0  0  0  0  0  0
   -4.5827   -0.2762    1.8614 C   0  0  0  0  0  0  0  0  0  0  0  0
   -3.4652   -0.4898    1.0357 C   0  0  0  0  0  0  0  0  0  0  0  0
   -2.3836   -1.4180    1.5244 C   0  0  0  0  0  0  0  0  0  0  0  0
   -3.3855    0.1725   -0.2116 C   0  0  0  0  0  0  0  0  0  0  0  0
   -2.2332    0.0432   -1.1176 C   0  0  0  0  0  0  0  0  0  0  0  0
   -0.9599    0.4347   -0.7477 C   0  0  0  0  0  0  0  0  0  0  0  0
    0.0782    0.2672   -1.6658 C   0  0  0  0  0  0  0  0  0  0  0  0
    1.4438    0.6673   -1.2373 C   0  0  0  0  0  0  0  0  0  0  0  0
    2.0591    1.4661   -1.9293 O   0  0  0  0  0  0  0  0  0  0  0  0
    1.8391    0.0653   -0.0592 N   0  0  0  0  0  0  0  0  0  0  0  0
    3.0502    0.2074    0.6029 C   0  0  0  0  0  0  0  0  0  0  0  0
    4.2998    1.1489   -0.0313 S   0  0  0  0  0  0  0  0  0  0  0  0
    5.3598    0.7459    1.2394 C   0  0  0  0  0  0  0  0  0  0  0  0
    6.7522    1.2910    1.2274 C   0  0  0  0  0  0  0  0  0  0  0  0
    4.7710   -0.1060    2.1648 C   0  0  0  0  0  0  0  0  0  0  0  0
    5.5070   -0.6784    3.3380 C   0  0  0  0  0  0  0  0  0  0  0  0
    3.3791   -0.3738    1.8223 C   0  0  0  0  0  0  0  0  0  0  0  0
    2.3867   -1.1575    2.5643 C   0  0  0  0  0  0  0  0  0  0  0  0
    2.5617   -1.2580    3.9139 N   0  0  0  0  0  0  0  0  0  0  0  0
    1.3849   -1.6410    2.0403 O   0  0  0  0  0  0  0  0  0  0  0  0
   -0.1690   -0.2577   -2.9531 C   0  0  0  0  0  0  0  0  0  0  0  0
    0.8167   -0.4663   -3.9513 C   0  0  0  0  0  0  0  0  0  0  0  0
    0.4814   -0.9952   -5.1965 C   0  0  0  0  0  0  0  0  0  0  0  0
   -0.8384   -1.3276   -5.4633 C   0  0  0  0  0  0  0  0  0  0  0  0
   -1.8122   -1.1298   -4.4820 C   0  0  0  0  0  0  0  0  0  0  0  0
   -1.5045   -0.6046   -3.2337 C   0  0  0  0  0  0  0  0  0  0  0  0
   -2.5020   -0.4586   -2.3451 N   0  0  0  0  0  0  0  0  0  0  0  0
   -4.4625    0.9942   -0.6039 C   0  0  0  0  0  0  0  0  0  0  0  0
   -7.4464    1.4496   -0.7780 H   0  0  0  0  0  0  0  0  0  0  0  0
   -6.3611    2.8560   -0.9046 H   0  0  0  0  0  0  0  0  0  0  0  0
   -7.2101    2.5426    0.6085 H   0  0  0  0  0  0  0  0  0  0  0  0
   -6.4858    0.6888    2.1110 H   0  0  0  0  0  0  0  0  0  0  0  0
   -4.6537   -0.7733    2.8269 H   0  0  0  0  0  0  0  0  0  0  0  0
   -2.0194   -2.0604    0.7163 H   0  0  0  0  0  0  0  0  0  0  0  0
   -1.5513   -0.8423    1.9404 H   0  0  0  0  0  0  0  0  0  0  0  0
   -2.7603   -2.0849    2.3079 H   0  0  0  0  0  0  0  0  0  0  0  0
   -0.7825    0.8763    0.2274 H   0  0  0  0  0  0  0  0  0  0  0  0
    1.2045   -0.6038    0.3767 H   0  0  0  0  0  0  0  0  0  0  0  0
    7.0053    1.7076    2.2082 H   0  0  0  0  0  0  0  0  0  0  0  0
    7.4662    0.4930    0.9972 H   0  0  0  0  0  0  0  0  0  0  0  0
    6.8841    2.0878    0.4879 H   0  0  0  0  0  0  0  0  0  0  0  0
    6.5884   -0.6859    3.1687 H   0  0  0  0  0  0  0  0  0  0  0  0
    5.2100   -1.7153    3.5201 H   0  0  0  0  0  0  0  0  0  0  0  0
    5.3120   -0.0844    4.2361 H   0  0  0  0  0  0  0  0  0  0  0  0
    1.7832   -1.6517    4.4254 H   0  0  0  0  0  0  0  0  0  0  0  0
    3.1381   -0.5887    4.4018 H   0  0  0  0  0  0  0  0  0  0  0  0
    1.8582   -0.2068   -3.7665 H   0  0  0  0  0  0  0  0  0  0  0  0
    1.2492   -1.1417   -5.9515 H   0  0  0  0  0  0  0  0  0  0  0  0
   -1.1166   -1.7392   -6.4299 H   0  0  0  0  0  0  0  0  0  0  0  0
   -2.8450   -1.3959   -4.6970 H   0  0  0  0  0  0  0  0  0  0  0  0
   -4.4231    1.4816   -1.5783 H   0  0  0  0  0  0  0  0  0  0  0  0
  1  2  1  0
  2  3  2  0
  3  4  1  0
  4  5  2  0
  5  6  1  0
  5  7  1  0
  7  8  1  0
  8  9  2  0
  9 10  1  0
 10 11  1  0
 11 12  2  0
 11 13  1  0
 13 14  1  0
 14 15  1  0
 15 16  1  0
 16 17  1  0
 16 18  2  0
 18 19  1  0
 18 20  1  0
 20 21  1  0
 21 22  1  0
 21 23  2  0
 10 24  2  0
 24 25  1  0
 25 26  2  0
 26 27  1  0
 27 28  2  0
 28 29  1  0
 29 30  2  0
  7 31  2  0
 31  2  1  0
 30  8  1  0
 20 14  2  0
 29 24  1  0
  1 32  1  0
  1 33  1  0
  1 34  1  0
  3 35  1  0
  4 36  1  0
  6 37  1  0
  6 38  1  0
  6 39  1  0
  9 40  1  0
 13 41  1  0
 17 42  1  0
 17 43  1  0
 17 44  1  0
 19 45  1  0
 19 46  1  0
 19 47  1  0
 22 48  1  0
 22 49  1  0
 25 50  1  0
 26 51  1  0
 27 52  1  0
 28 53  1  0
 31 54  1  0
M  END
$$$$
