
     RDKit          3D

 48 51  0  0  0  0  0  0  0  0999 V2000
   -1.4342    0.3344    1.7777 C   0  0  0  0  0  0  0  0  0  0  0  0
   -0.5936   -0.8409    1.2951 C   0  0  0  0  0  0  0  0  0  0  0  0
   -0.8908   -1.2420   -0.0623 N   0  0  0  0  0  0  0  0  0  0  0  0
   -2.0627   -1.8094   -0.4949 C   0  0  0  0  0  0  0  0  0  0  0  0
   -3.2244   -2.5584    0.5426 S   0  0  0  0  0  0  0  0  0  0  0  0
   -4.7724   -2.0678   -0.2776 C   0  0  0  0  0  0  0  0  0  0  0  0
   -5.1327   -0.6272    0.0022 C   0  0  0  0  0  0  0  0  0  0  0  0
   -5.7768   -0.2729    1.1997 C   0  0  0  0  0  0  0  0  0  0  0  0
   -6.0835    1.0619    1.4682 C   0  0  0  0  0  0  0  0  0  0  0  0
   -5.7449    2.0429    0.5441 C   0  0  0  0  0  0  0  0  0  0  0  0
   -6.0359    3.3238    0.8064 F   0  0  0  0  0  0  0  0  0  0  0  0
   -5.1058    1.7154   -0.6450 C   0  0  0  0  0  0  0  0  0  0  0  0
   -4.7991    0.3816   -0.9168 C   0  0  0  0  0  0  0  0  0  0  0  0
   -2.1697   -1.6724   -1.7935 N   0  0  0  0  0  0  0  0  0  0  0  0
   -1.0300   -1.0545   -2.2347 N   0  0  0  0  0  0  0  0  0  0  0  0
   -0.2069   -0.9092   -1.2107 C   0  0  0  0  0  0  0  0  0  0  0  0
    1.2558   -0.4187   -1.4488 C   0  0  0  0  0  0  0  0  0  0  0  0
    1.6808    0.1405   -2.6633 C   0  0  0  0  0  0  0  0  0  0  0  0
    2.9686    0.4640   -2.6494 N   0  0  0  0  0  0  0  0  0  0  0  0
    3.3928    0.1737   -1.3888 N   0  0  0  0  0  0  0  0  0  0  0  0
    4.7014    0.6088   -1.0050 C   0  0  0  0  0  0  0  0  0  0  0  0
    5.6146    0.9693   -2.0131 C   0  0  0  0  0  0  0  0  0  0  0  0
    6.9012    1.4071   -1.6903 C   0  0  0  0  0  0  0  0  0  0  0  0
    7.2883    1.5057   -0.3580 C   0  0  0  0  0  0  0  0  0  0  0  0
    6.3853    1.1777    0.6501 C   0  0  0  0  0  0  0  0  0  0  0  0
    5.0947    0.7378    0.3319 C   0  0  0  0  0  0  0  0  0  0  0  0
    2.4122   -0.5227   -0.6935 C   0  0  0  0  0  0  0  0  0  0  0  0
    2.7260   -1.3452    0.4786 C   0  0  0  0  0  0  0  0  0  0  0  0
    2.6686   -0.6332    1.6320 F   0  0  0  0  0  0  0  0  0  0  0  0
    1.8397   -2.3656    0.6265 F   0  0  0  0  0  0  0  0  0  0  0  0
    3.9493   -1.9220    0.4213 F   0  0  0  0  0  0  0  0  0  0  0  0
   -1.1113    0.6414    2.7776 H   0  0  0  0  0  0  0  0  0  0  0  0
   -2.4969    0.0850    1.8341 H   0  0  0  0  0  0  0  0  0  0  0  0
   -1.3288    1.1937    1.1067 H   0  0  0  0  0  0  0  0  0  0  0  0
    0.4449   -0.5300    1.3433 H   0  0  0  0  0  0  0  0  0  0  0  0
   -0.7086   -1.7131    1.9462 H   0  0  0  0  0  0  0  0  0  0  0  0
   -5.5729   -2.7141    0.1011 H   0  0  0  0  0  0  0  0  0  0  0  0
   -4.7208   -2.2578   -1.3557 H   0  0  0  0  0  0  0  0  0  0  0  0
   -6.0384   -1.0357    1.9302 H   0  0  0  0  0  0  0  0  0  0  0  0
   -6.5814    1.3426    2.3907 H   0  0  0  0  0  0  0  0  0  0  0  0
   -4.8485    2.4975   -1.3521 H   0  0  0  0  0  0  0  0  0  0  0  0
   -4.2908    0.1328   -1.8479 H   0  0  0  0  0  0  0  0  0  0  0  0
    1.0984    0.3242   -3.5590 H   0  0  0  0  0  0  0  0  0  0  0  0
    5.3431    0.9019   -3.0660 H   0  0  0  0  0  0  0  0  0  0  0  0
    7.5975    1.6716   -2.4822 H   0  0  0  0  0  0  0  0  0  0  0  0
    8.2884    1.8482   -0.1052 H   0  0  0  0  0  0  0  0  0  0  0  0
    6.6824    1.2758    1.6919 H   0  0  0  0  0  0  0  0  0  0  0  0
    4.4279    0.5536    1.1638 H   0  0  0  0  0  0  0  0  0  0  0  0
  1  2  1  0
  2  3  1  0
  3  4  1  0
  4  5  1  0
  5  6  1  0
  6  7  1  0
  7  8  2  0
  8  9  1  0
  9 10  2  0
 10 11  1  0
 10 12  1  0
 12 13  2  0
  4 14  2  0
 14 15  1  0
 15 16  2  0
 16 17  1  0
 17 18  1  0
 18 19  2  0
 19 20  1  0
 20 21  1  0
 21 22  2  0
 22 23  1  0
 23 24  2  0
 24 25  1  0
 25 26  2  0
 20 27  1  0
 27 28  1  0
 28 29  1  0
 28 30  1  0
 28 31  1  0
 16  3  1  0
 27 17  2  0
 13  7  1  0
 26 21  1  0
  1 32  1  0
  1 33  1  0
  1 34  1  0
  2 35  1  0
  2 36  1  0
  6 37  1  0
  6 38  1  0
  8 39  1  0
  9 40  1  0
 12 41  1  0
 13 42  1  0
 18 43  1  0
 22 44  1  0
 23 45  1  0
 24 46  1  0
 25 47  1  0
 26 48  1  0
M  END
$$$$
