
     RDKit          3D

 85 88  0  0  0  0  0  0  0  0999 V2000
    7.1382   -6.2582    1.2595 C   0  0  0  0  0  0  0  0  0  0  0  0
    5.7252   -6.2274    1.4599 O   0  0  0  0  0  0  0  0  0  0  0  0
    5.0536   -5.1689    0.9145 C   0  0  0  0  0  0  0  0  0  0  0  0
    3.6915   -5.1215    1.2114 C   0  0  0  0  0  0  0  0  0  0  0  0
    2.8990   -4.0684    0.7488 C   0  0  0  0  0  0  0  0  0  0  0  0
    3.4580   -3.0456   -0.0196 C   0  0  0  0  0  0  0  0  0  0  0  0
    2.6304   -1.9644   -0.3480 N   0  0  0  0  0  0  0  0  0  0  0  0
    2.9221   -0.8836   -1.1690 C   0  0  0  0  0  0  0  0  0  0  0  0
    3.8187   -0.8551   -2.0028 O   0  0  0  0  0  0  0  0  0  0  0  0
    2.0744    0.1638   -0.8581 N   0  0  0  0  0  0  0  0  0  0  0  0
    1.9428    1.4155   -1.4860 C   0  0  0  0  0  0  0  0  0  0  0  0
    2.4360    1.6404   -2.7783 C   0  0  0  0  0  0  0  0  0  0  0  0
    2.3266    2.8958   -3.3802 C   0  0  0  0  0  0  0  0  0  0  0  0
    1.7115    3.9388   -2.6928 C   0  0  0  0  0  0  0  0  0  0  0  0
    1.1914    3.7234   -1.4046 C   0  0  0  0  0  0  0  0  0  0  0  0
    1.2909    2.4628   -0.8041 C   0  0  0  0  0  0  0  0  0  0  0  0
    0.9029    2.3347    0.5130 O   0  0  0  0  0  0  0  0  0  0  0  0
   -0.3383    1.6326    0.6925 C   0  0  0  0  0  0  0  0  0  0  0  0
   -0.1362    0.7930    1.9938 C   0  0  0  0  0  0  0  0  0  0  0  0
   -1.0223   -0.3609    2.1136 N   0  0  0  0  0  0  0  0  0  0  0  0
   -1.5585   -0.6508    3.4372 C   0  0  0  0  0  0  0  0  0  0  0  0
   -0.9474   -1.3319    1.1339 C   0  0  0  0  0  0  0  0  0  0  0  0
    0.0097   -1.4377    0.3697 O   0  0  0  0  0  0  0  0  0  0  0  0
   -2.0921   -2.0860    1.0294 N   0  0  0  0  0  0  0  0  0  0  0  0
   -2.3887   -2.7867   -0.2182 C   0  0  0  0  0  0  0  0  0  0  0  0
   -3.4891   -3.8397    0.0004 C   0  0  0  0  0  0  0  0  0  0  0  0
   -4.3471   -4.0946   -1.2417 C   0  0  0  0  0  0  0  0  0  0  0  0
   -3.5725   -3.8904   -2.5297 C   0  0  0  0  0  0  0  0  0  0  0  0
   -3.0548   -2.4594   -2.6621 C   0  0  0  0  0  0  0  0  0  0  0  0
   -2.7843   -1.7855   -1.3151 C   0  0  0  0  0  0  0  0  0  0  0  0
   -1.5087    2.6363    0.8430 C   0  0  0  0  0  0  0  0  0  0  0  0
   -2.8654    1.9270    0.8920 C   0  0  0  0  0  0  0  0  0  0  0  0
   -1.5461    3.6940   -0.2796 C   0  0  0  0  0  0  0  0  0  0  0  0
   -0.6178    4.8123   -0.0591 N   0  0  0  0  0  0  0  0  0  0  0  0
   -1.1078    6.0491    0.6037 C   0  0  0  0  0  0  0  0  0  0  0  0
   -2.0129    6.8488   -0.3409 C   0  0  0  0  0  0  0  0  0  0  0  0
   -1.7583    5.8385    1.9836 C   0  0  0  0  0  0  0  0  0  0  0  0
   -3.0478    5.2236    1.9210 O   0  0  0  0  0  0  0  0  0  0  0  0
    0.6275    4.9003   -0.7035 C   0  0  0  0  0  0  0  0  0  0  0  0
    1.2927    5.9341   -0.7468 O   0  0  0  0  0  0  0  0  0  0  0  0
    4.8154   -3.1023   -0.3384 C   0  0  0  0  0  0  0  0  0  0  0  0
    5.6108   -4.1619    0.1279 C   0  0  0  0  0  0  0  0  0  0  0  0
    7.5339   -7.1395    1.7787 H   0  0  0  0  0  0  0  0  0  0  0  0
    7.6167   -5.3731    1.6859 H   0  0  0  0  0  0  0  0  0  0  0  0
    7.3786   -6.3618    0.1975 H   0  0  0  0  0  0  0  0  0  0  0  0
    3.2489   -5.8938    1.8360 H   0  0  0  0  0  0  0  0  0  0  0  0
    1.8456   -4.0493    1.0164 H   0  0  0  0  0  0  0  0  0  0  0  0
    1.6683   -1.9904   -0.0271 H   0  0  0  0  0  0  0  0  0  0  0  0
    1.6065    0.0446    0.0280 H   0  0  0  0  0  0  0  0  0  0  0  0
    2.9429    0.8495   -3.3324 H   0  0  0  0  0  0  0  0  0  0  0  0
    2.7403    3.0567   -4.3714 H   0  0  0  0  0  0  0  0  0  0  0  0
    1.6613    4.9288   -3.1474 H   0  0  0  0  0  0  0  0  0  0  0  0
   -0.5377    0.9718   -0.1660 H   0  0  0  0  0  0  0  0  0  0  0  0
    0.8914    0.4135    2.0552 H   0  0  0  0  0  0  0  0  0  0  0  0
   -0.2681    1.4374    2.8747 H   0  0  0  0  0  0  0  0  0  0  0  0
   -2.3626    0.0584    3.6563 H   0  0  0  0  0  0  0  0  0  0  0  0
   -1.9345   -1.6795    3.5003 H   0  0  0  0  0  0  0  0  0  0  0  0
   -0.7613   -0.5396    4.1857 H   0  0  0  0  0  0  0  0  0  0  0  0
   -2.8902   -1.6423    1.4688 H   0  0  0  0  0  0  0  0  0  0  0  0
   -1.4709   -3.3021   -0.5304 H   0  0  0  0  0  0  0  0  0  0  0  0
   -4.1522   -3.5478    0.8312 H   0  0  0  0  0  0  0  0  0  0  0  0
   -3.0155   -4.7730    0.3202 H   0  0  0  0  0  0  0  0  0  0  0  0
   -5.2075   -3.4081   -1.2302 H   0  0  0  0  0  0  0  0  0  0  0  0
   -4.7521   -5.1112   -1.2096 H   0  0  0  0  0  0  0  0  0  0  0  0
   -4.2072   -4.1228   -3.3935 H   0  0  0  0  0  0  0  0  0  0  0  0
   -2.7290   -4.5908   -2.5626 H   0  0  0  0  0  0  0  0  0  0  0  0
   -2.1341   -2.4632   -3.2687 H   0  0  0  0  0  0  0  0  0  0  0  0
   -3.7902   -1.8525   -3.2152 H   0  0  0  0  0  0  0  0  0  0  0  0
   -3.6839   -1.2354   -0.9995 H   0  0  0  0  0  0  0  0  0  0  0  0
   -2.0079   -1.0259   -1.4425 H   0  0  0  0  0  0  0  0  0  0  0  0
   -1.3567    3.1668    1.7918 H   0  0  0  0  0  0  0  0  0  0  0  0
   -3.6999    2.6418    0.8881 H   0  0  0  0  0  0  0  0  0  0  0  0
   -2.9754    1.3416    1.8036 H   0  0  0  0  0  0  0  0  0  0  0  0
   -3.0048    1.2632    0.0317 H   0  0  0  0  0  0  0  0  0  0  0  0
   -1.3430    3.2201   -1.2446 H   0  0  0  0  0  0  0  0  0  0  0  0
   -2.5493    4.1159   -0.3837 H   0  0  0  0  0  0  0  0  0  0  0  0
   -0.2231    6.6758    0.7987 H   0  0  0  0  0  0  0  0  0  0  0  0
   -2.9354    6.3097   -0.5757 H   0  0  0  0  0  0  0  0  0  0  0  0
   -1.4958    7.0606   -1.2823 H   0  0  0  0  0  0  0  0  0  0  0  0
   -2.2957    7.8047    0.1098 H   0  0  0  0  0  0  0  0  0  0  0  0
   -1.8852    6.8034    2.4891 H   0  0  0  0  0  0  0  0  0  0  0  0
   -1.1197    5.2220    2.6215 H   0  0  0  0  0  0  0  0  0  0  0  0
   -3.6736    5.8991    1.6121 H   0  0  0  0  0  0  0  0  0  0  0  0
    5.2962   -2.3186   -0.9216 H   0  0  0  0  0  0  0  0  0  0  0  0
    6.6586   -4.1489   -0.1472 H   0  0  0  0  0  0  0  0  0  0  0  0
  1  2  1  0
  2  3  1  0
  3  4  2  0
  4  5  1  0
  5  6  2  0
  6  7  1  0
  7  8  1  0
  8  9  2  0
  8 10  1  0
 10 11  1  0
 11 12  2  0
 12 13  1  0
 13 14  2  0
 14 15  1  0
 15 16  2  0
 16 17  1  0
 17 18  1  0
 18 19  1  0
 19 20  1  0
 20 21  1  0
 20 22  1  0
 22 23  2  0
 22 24  1  0
 24 25  1  0
 25 26  1  0
 26 27  1  0
 27 28  1  0
 28 29  1  0
 29 30  1  0
 18 31  1  0
 31 32  1  0
 31 33  1  0
 33 34  1  0
 34 35  1  0
 35 36  1  0
 35 37  1  0
 37 38  1  0
 34 39  1  0
 39 40  2  0
  6 41  1  0
 41 42  2  0
 42  3  1  0
 16 11  1  0
 30 25  1  0
 39 15  1  0
  1 43  1  0
  1 44  1  0
  1 45  1  0
  4 46  1  0
  5 47  1  0
  7 48  1  0
 10 49  1  0
 12 50  1  0
 13 51  1  0
 14 52  1  0
 18 53  1  0
 19 54  1  0
 19 55  1  0
 21 56  1  0
 21 57  1  0
 21 58  1  0
 24 59  1  0
 25 60  1  0
 26 61  1  0
 26 62  1  0
 27 63  1  0
 27 64  1  0
 28 65  1  0
 28 66  1  0
 29 67  1  0
 29 68  1  0
 30 69  1  0
 30 70  1  0
 31 71  1  0
 32 72  1  0
 32 73  1  0
 32 74  1  0
 33 75  1  0
 33 76  1  0
 35 77  1  0
 36 78  1  0
 36 79  1  0
 36 80  1  0
 37 81  1  0
 37 82  1  0
 38 83  1  0
 41 84  1  0
 42 85  1  0
M  END
$$$$
