
     RDKit          3D

 49 51  0  0  0  0  0  0  0  0999 V2000
   -0.6232    6.1780   -0.3773 C   0  0  0  0  0  0  0  0  0  0  0  0
    0.5023    5.6035    0.2711 O   0  0  0  0  0  0  0  0  0  0  0  0
    0.8899    4.3450   -0.1177 C   0  0  0  0  0  0  0  0  0  0  0  0
    0.2025    3.5617   -1.0535 C   0  0  0  0  0  0  0  0  0  0  0  0
    0.6664    2.2873   -1.3832 C   0  0  0  0  0  0  0  0  0  0  0  0
    1.8153    1.7939   -0.7649 C   0  0  0  0  0  0  0  0  0  0  0  0
    2.4098    0.1738   -1.1736 S   0  0  0  0  0  6  0  0  0  0  0  0
    3.8566    0.2278   -1.1552 O   0  0  0  0  0  0  0  0  0  0  0  0
    1.6969   -0.3118   -2.3348 O   0  0  0  0  0  0  0  0  0  0  0  0
    1.9614   -0.7369    0.1800 N   0  0  0  0  0  0  0  0  0  0  0  0
    0.6058   -1.1550    0.2818 C   0  0  0  0  0  0  0  0  0  0  0  0
   -0.3046   -0.3470    0.9506 C   0  0  0  0  0  0  0  0  0  0  0  0
   -1.6458   -0.7126    0.9836 C   0  0  0  0  0  0  0  0  0  0  0  0
   -2.0750   -1.8934    0.3557 C   0  0  0  0  0  0  0  0  0  0  0  0
   -1.1474   -2.7567   -0.2655 C   0  0  0  0  0  0  0  0  0  0  0  0
    0.1877   -2.3380   -0.3352 C   0  0  0  0  0  0  0  0  0  0  0  0
   -1.6050   -3.9815   -0.8545 N   0  0  0  0  0  0  0  0  0  0  0  0
   -0.8546   -5.1382   -1.0917 C   0  0  0  0  0  0  0  0  0  0  0  0
    0.4806   -5.3263   -0.4150 C   0  0  0  0  0  0  0  0  0  0  0  0
   -1.2903   -6.0642   -1.7862 O   0  0  0  0  0  0  0  0  0  0  0  0
   -3.0354   -4.1297   -1.1437 C   0  0  0  0  0  0  0  0  0  0  0  0
   -3.8786   -2.8788   -0.9673 C   0  0  0  0  0  0  0  0  0  0  0  0
   -3.5414   -2.2297    0.3599 C   0  0  0  0  0  0  0  0  0  0  0  0
    2.5230    2.5664    0.1610 C   0  0  0  0  0  0  0  0  0  0  0  0
    2.0627    3.8442    0.4901 C   0  0  0  0  0  0  0  0  0  0  0  0
    2.6741    4.6753    1.3961 O   0  0  0  0  0  0  0  0  0  0  0  0
    3.9437    4.2824    1.8989 C   0  0  0  0  0  0  0  0  0  0  0  0
   -1.5332    5.6069   -0.1661 H   0  0  0  0  0  0  0  0  0  0  0  0
   -0.4548    6.2717   -1.4552 H   0  0  0  0  0  0  0  0  0  0  0  0
   -0.7631    7.1857    0.0257 H   0  0  0  0  0  0  0  0  0  0  0  0
   -0.6987    3.9153   -1.5438 H   0  0  0  0  0  0  0  0  0  0  0  0
    0.1240    1.6884   -2.1122 H   0  0  0  0  0  0  0  0  0  0  0  0
    2.6846   -1.4179    0.4100 H   0  0  0  0  0  0  0  0  0  0  0  0
    0.0154    0.5712    1.4356 H   0  0  0  0  0  0  0  0  0  0  0  0
   -2.3604   -0.0646    1.4870 H   0  0  0  0  0  0  0  0  0  0  0  0
    0.9143   -2.8846   -0.9243 H   0  0  0  0  0  0  0  0  0  0  0  0
    0.6177   -6.3947   -0.2139 H   0  0  0  0  0  0  0  0  0  0  0  0
    1.2875   -5.0024   -1.0756 H   0  0  0  0  0  0  0  0  0  0  0  0
    0.5268   -4.8236    0.5530 H   0  0  0  0  0  0  0  0  0  0  0  0
   -3.1493   -4.4920   -2.1731 H   0  0  0  0  0  0  0  0  0  0  0  0
   -3.4145   -4.9238   -0.4863 H   0  0  0  0  0  0  0  0  0  0  0  0
   -3.6795   -2.1803   -1.7907 H   0  0  0  0  0  0  0  0  0  0  0  0
   -4.9430   -3.1342   -1.0113 H   0  0  0  0  0  0  0  0  0  0  0  0
   -4.1480   -1.3248    0.4803 H   0  0  0  0  0  0  0  0  0  0  0  0
   -3.7616   -2.8988    1.1998 H   0  0  0  0  0  0  0  0  0  0  0  0
    3.4175    2.1499    0.6128 H   0  0  0  0  0  0  0  0  0  0  0  0
    3.8585    3.3853    2.5206 H   0  0  0  0  0  0  0  0  0  0  0  0
    4.6650    4.1359    1.0880 H   0  0  0  0  0  0  0  0  0  0  0  0
    4.3170    5.0918    2.5336 H   0  0  0  0  0  0  0  0  0  0  0  0
  1  2  1  0
  2  3  1  0
  3  4  2  0
  4  5  1  0
  5  6  2  0
  6  7  1  0
  7  8  2  0
  7  9  2  0
  7 10  1  0
 10 11  1  0
 11 12  2  0
 12 13  1  0
 13 14  2  0
 14 15  1  0
 15 16  2  0
 15 17  1  0
 17 18  1  0
 18 19  1  0
 18 20  2  0
 17 21  1  0
 21 22  1  0
 22 23  1  0
  6 24  1  0
 24 25  2  0
 25 26  1  0
 26 27  1  0
 25  3  1  0
 16 11  1  0
 23 14  1  0
  1 28  1  0
  1 29  1  0
  1 30  1  0
  4 31  1  0
  5 32  1  0
 10 33  1  0
 12 34  1  0
 13 35  1  0
 16 36  1  0
 19 37  1  0
 19 38  1  0
 19 39  1  0
 21 40  1  0
 21 41  1  0
 22 42  1  0
 22 43  1  0
 23 44  1  0
 23 45  1  0
 24 46  1  0
 27 47  1  0
 27 48  1  0
 27 49  1  0
M  END
$$$$
