
     RDKit          3D

 36 37  0  0  0  0  0  0  0  0999 V2000
    6.9046    0.1435    0.2072 C   0  0  0  0  0  0  0  0  0  0  0  0
    5.5309   -0.0661   -0.1221 O   0  0  0  0  0  0  0  0  0  0  0  0
    4.6629    0.5068    0.7500 C   0  0  0  0  0  0  0  0  0  0  0  0
    4.9707    1.1520    1.7401 O   0  0  0  0  0  0  0  0  0  0  0  0
    3.2559    0.2450    0.3404 C   0  0  0  0  0  0  0  0  0  0  0  0
    2.9303   -0.4992   -0.8013 C   0  0  0  0  0  0  0  0  0  0  0  0
    1.5911   -0.7174   -1.1436 C   0  0  0  0  0  0  0  0  0  0  0  0
    0.5562   -0.1966   -0.3523 C   0  0  0  0  0  0  0  0  0  0  0  0
   -0.8936   -0.4308   -0.7198 C   0  0  0  0  0  0  0  0  0  0  0  0
   -1.5137   -1.1380    0.3519 O   0  0  0  0  0  0  0  0  0  0  0  0
   -2.8887   -1.3829    0.0762 C   0  0  0  0  0  0  0  0  0  0  0  0
   -3.6399   -0.0690   -0.1824 C   0  0  0  0  0  0  0  0  0  0  0  0
   -5.0753   -0.3592   -0.6357 C   0  0  0  0  0  0  0  0  0  0  0  0
   -3.6749    0.7731    1.1071 C   0  0  0  0  0  0  0  0  0  0  0  0
   -2.8805    0.6921   -1.2786 C   0  0  0  0  0  0  0  0  0  0  0  0
   -1.5058    0.8383   -0.9385 O   0  0  0  0  0  0  0  0  0  0  0  0
    0.8918    0.5479    0.7900 C   0  0  0  0  0  0  0  0  0  0  0  0
    2.2280    0.7674    1.1343 C   0  0  0  0  0  0  0  0  0  0  0  0
    7.1371   -0.2971    1.1818 H   0  0  0  0  0  0  0  0  0  0  0  0
    7.5144   -0.3545   -0.5517 H   0  0  0  0  0  0  0  0  0  0  0  0
    7.1431    1.2117    0.1967 H   0  0  0  0  0  0  0  0  0  0  0  0
    3.7081   -0.9166   -1.4358 H   0  0  0  0  0  0  0  0  0  0  0  0
    1.3633   -1.2983   -2.0347 H   0  0  0  0  0  0  0  0  0  0  0  0
   -0.9501   -1.0304   -1.6384 H   0  0  0  0  0  0  0  0  0  0  0  0
   -3.3122   -1.9118    0.9374 H   0  0  0  0  0  0  0  0  0  0  0  0
   -2.9606   -2.0618   -0.7831 H   0  0  0  0  0  0  0  0  0  0  0  0
   -5.6274   -0.9138    0.1313 H   0  0  0  0  0  0  0  0  0  0  0  0
   -5.6215    0.5691   -0.8369 H   0  0  0  0  0  0  0  0  0  0  0  0
   -5.0882   -0.9582   -1.5531 H   0  0  0  0  0  0  0  0  0  0  0  0
   -4.1959    1.7228    0.9408 H   0  0  0  0  0  0  0  0  0  0  0  0
   -4.2018    0.2418    1.9078 H   0  0  0  0  0  0  0  0  0  0  0  0
   -2.6699    1.0082    1.4732 H   0  0  0  0  0  0  0  0  0  0  0  0
   -2.9517    0.1788   -2.2461 H   0  0  0  0  0  0  0  0  0  0  0  0
   -3.2979    1.6956   -1.4180 H   0  0  0  0  0  0  0  0  0  0  0  0
    0.1006    0.9592    1.4150 H   0  0  0  0  0  0  0  0  0  0  0  0
    2.4605    1.3480    2.0249 H   0  0  0  0  0  0  0  0  0  0  0  0
  1  2  1  0
  2  3  1  0
  3  4  2  0
  3  5  1  0
  5  6  2  0
  6  7  1  0
  7  8  2  0
  8  9  1  0
  9 10  1  0
 10 11  1  0
 11 12  1  0
 12 13  1  0
 12 14  1  0
 12 15  1  0
 15 16  1  0
  8 17  1  0
 17 18  2  0
 18  5  1  0
 16  9  1  0
  1 19  1  0
  1 20  1  0
  1 21  1  0
  6 22  1  0
  7 23  1  0
  9 24  1  0
 11 25  1  0
 11 26  1  0
 13 27  1  0
 13 28  1  0
 13 29  1  0
 14 30  1  0
 14 31  1  0
 14 32  1  0
 15 33  1  0
 15 34  1  0
 17 35  1  0
 18 36  1  0
M  END
$$$$
