
     RDKit          3D

 45 44  0  0  0  0  0  0  0  0999 V2000
    5.7857   -3.9286   -1.0822 C   0  0  0  0  0  0  0  0  0  0  0  0
    5.8991   -3.5245    0.3796 C   0  0  0  0  0  0  0  0  0  0  0  0
    5.2157   -2.1941    0.6982 C   0  0  0  0  0  0  0  0  0  0  0  0
    3.7018   -2.2338    0.5161 C   0  0  0  0  0  0  0  0  0  0  0  0
    3.0950   -0.9867    0.9226 N   0  0  0  0  0  0  0  0  0  0  0  0
    1.7606   -0.8912    1.1765 C   0  0  0  0  0  0  0  0  0  0  0  0
    0.9814   -1.8271    1.2523 O   0  0  0  0  0  0  0  0  0  0  0  0
    1.4317    0.4165    1.3085 O   0  0  0  0  0  0  0  0  0  0  0  0
    0.0438    0.6771    1.5674 C   0  0  0  0  0  0  0  0  0  0  0  0
   -0.8007    0.6787    0.2789 C   0  0  0  0  0  0  0  0  0  0  0  0
   -0.2068    1.5587   -0.8408 C   0  0  0  0  0  0  0  0  0  0  0  0
   -0.0540    3.0292   -0.4732 C   0  0  0  0  0  0  0  0  0  0  0  0
   -2.1785    1.0576    0.5684 N   0  0  0  0  0  0  0  0  0  0  0  0
   -3.2255    0.6937   -0.2223 C   0  0  0  0  0  0  0  0  0  0  0  0
   -3.1679   -0.0685   -1.1735 O   0  0  0  0  0  0  0  0  0  0  0  0
   -4.3377    1.3357    0.2098 O   0  0  0  0  0  0  0  0  0  0  0  0
   -5.5459    1.0676   -0.5257 C   0  0  0  0  0  0  0  0  0  0  0  0
   -5.6131    1.9785   -1.7465 C   0  0  0  0  0  0  0  0  0  0  0  0
   -6.7137    1.3404    0.4147 C   0  0  0  0  0  0  0  0  0  0  0  0
    6.1678   -3.1405   -1.7387 H   0  0  0  0  0  0  0  0  0  0  0  0
    4.7491   -4.1396   -1.3608 H   0  0  0  0  0  0  0  0  0  0  0  0
    6.3694   -4.8361   -1.2672 H   0  0  0  0  0  0  0  0  0  0  0  0
    5.4829   -4.3184    1.0107 H   0  0  0  0  0  0  0  0  0  0  0  0
    6.9618   -3.4399    0.6365 H   0  0  0  0  0  0  0  0  0  0  0  0
    5.4446   -1.9269    1.7378 H   0  0  0  0  0  0  0  0  0  0  0  0
    5.6440   -1.3984    0.0758 H   0  0  0  0  0  0  0  0  0  0  0  0
    3.2620   -3.0498    1.1005 H   0  0  0  0  0  0  0  0  0  0  0  0
    3.4334   -2.3909   -0.5337 H   0  0  0  0  0  0  0  0  0  0  0  0
    3.5468   -0.1096    0.7049 H   0  0  0  0  0  0  0  0  0  0  0  0
   -0.0079    1.6562    2.0577 H   0  0  0  0  0  0  0  0  0  0  0  0
   -0.3565   -0.0378    2.2983 H   0  0  0  0  0  0  0  0  0  0  0  0
   -0.8237   -0.3449   -0.1164 H   0  0  0  0  0  0  0  0  0  0  0  0
   -0.8428    1.4919   -1.7323 H   0  0  0  0  0  0  0  0  0  0  0  0
    0.7741    1.1662   -1.1344 H   0  0  0  0  0  0  0  0  0  0  0  0
   -1.0122    3.4709   -0.1832 H   0  0  0  0  0  0  0  0  0  0  0  0
    0.3260    3.5904   -1.3331 H   0  0  0  0  0  0  0  0  0  0  0  0
    0.6547    3.1660    0.3487 H   0  0  0  0  0  0  0  0  0  0  0  0
   -2.3801    1.8096    1.2127 H   0  0  0  0  0  0  0  0  0  0  0  0
   -5.5857    0.0147   -0.8307 H   0  0  0  0  0  0  0  0  0  0  0  0
   -5.5394    3.0317   -1.4535 H   0  0  0  0  0  0  0  0  0  0  0  0
   -6.5462    1.8319   -2.2991 H   0  0  0  0  0  0  0  0  0  0  0  0
   -4.7769    1.7837   -2.4259 H   0  0  0  0  0  0  0  0  0  0  0  0
   -6.6953    2.3747    0.7759 H   0  0  0  0  0  0  0  0  0  0  0  0
   -6.6477    0.6976    1.2992 H   0  0  0  0  0  0  0  0  0  0  0  0
   -7.6732    1.1572   -0.0784 H   0  0  0  0  0  0  0  0  0  0  0  0
  1  2  1  0
  2  3  1  0
  3  4  1  0
  4  5  1  0
  5  6  1  0
  6  7  2  0
  6  8  1  0
  8  9  1  0
  9 10  1  0
 10 11  1  0
 11 12  1  0
 10 13  1  0
 13 14  1  0
 14 15  2  0
 14 16  1  0
 16 17  1  0
 17 18  1  0
 17 19  1  0
  1 20  1  0
  1 21  1  0
  1 22  1  0
  2 23  1  0
  2 24  1  0
  3 25  1  0
  3 26  1  0
  4 27  1  0
  4 28  1  0
  5 29  1  0
  9 30  1  0
  9 31  1  0
 10 32  1  0
 11 33  1  0
 11 34  1  0
 12 35  1  0
 12 36  1  0
 12 37  1  0
 13 38  1  0
 17 39  1  0
 18 40  1  0
 18 41  1  0
 18 42  1  0
 19 43  1  0
 19 44  1  0
 19 45  1  0
M  END
$$$$
