
     RDKit          3D

 96101  0  0  0  0  0  0  0  0999 V2000
   -4.7467    3.4440    0.9185 C   0  0  0  0  0  0  0  0  0  0  0  0
   -4.4750    2.4411   -0.1679 C   0  0  0  0  0  0  0  0  0  0  0  0
   -4.3549    1.1163    0.0617 C   0  0  0  0  0  0  0  0  0  0  0  0
   -4.3198    0.4149    1.4028 C   0  0  0  0  0  0  0  0  0  0  0  0
   -3.2708   -0.7195    1.5080 C   0  0  2  0  0  0  0  0  0  0  0  0
   -1.8764   -0.2915    1.0568 C   0  0  0  0  0  0  0  0  0  0  0  0
   -0.8986   -1.4667    1.0577 C   0  0  1  0  0  0  0  0  0  0  0  0
   -1.4969   -2.6386    0.2885 C   0  0  0  0  0  0  0  0  0  0  0  0
   -2.8909   -2.9917    0.8155 C   0  0  1  0  0  0  0  0  0  0  0  0
   -3.4902   -4.0864   -0.0798 C   0  0  0  0  0  0  0  0  0  0  0  0
   -4.7956   -4.6301    0.4885 C   0  0  0  0  0  0  0  0  0  0  0  0
   -4.6014   -5.0713    1.9438 C   0  0  2  0  0  0  0  0  0  0  0  0
   -5.9261   -5.5675    2.5201 C   0  0  0  0  0  0  0  0  0  0  0  0
   -3.9860   -3.9124    2.7506 C   0  0  1  0  0  0  0  0  0  0  0  0
   -3.6462   -4.3056    4.1854 C   0  0  0  0  0  0  0  0  0  0  0  0
   -2.7551   -3.4801    2.1519 O   0  0  0  0  0  0  0  0  0  0  0  0
   -3.7359   -1.8381    0.7396 O   0  0  0  0  0  0  0  0  0  0  0  0
    0.3031   -1.0667    0.3606 O   0  0  0  0  0  0  0  0  0  0  0  0
    1.2406   -0.3992    1.0855 C   0  0  0  0  0  0  0  0  0  0  0  0
    1.2400   -0.2832    2.3070 O   0  0  0  0  0  0  0  0  0  0  0  0
    2.2537    0.2841    0.1771 C   0  0  0  0  0  0  0  0  0  0  0  0
    3.6528   -0.2230    0.4438 C   0  0  0  0  0  0  0  0  0  0  0  0
    4.7045    0.4328   -0.0874 C   0  0  0  0  0  0  0  0  0  0  0  0
    6.1233   -0.0445    0.0432 C   0  0  0  0  0  0  0  0  0  0  0  0
    6.6397   -0.2853   -1.2638 O   0  0  0  0  0  0  0  0  0  0  0  0
    7.9118   -0.7581   -1.2790 C   0  0  0  0  0  0  0  0  0  0  0  0
    8.5964   -0.9665   -0.2851 O   0  0  0  0  0  0  0  0  0  0  0  0
    8.3468   -0.9779   -2.6354 C   0  0  0  0  0  0  0  0  0  0  0  0
    7.6962   -0.7777   -3.8434 C   0  0  0  0  0  0  0  0  0  0  0  0
    8.5804   -1.1511   -4.8838 C   0  0  0  0  0  0  0  0  0  0  0  0
    9.7486   -1.5760   -4.2943 C   0  0  0  0  0  0  0  0  0  0  0  0
    9.5986   -1.4676   -2.9379 N   0  0  0  0  0  0  0  0  0  0  0  0
    4.4698    1.7274   -0.8317 C   0  0  1  0  0  0  0  0  0  0  0  0
    3.9678    1.4035   -2.1315 O   0  0  0  0  0  0  0  0  0  0  0  0
    3.4526    2.6161   -0.0705 C   0  0  1  0  0  0  0  0  0  0  0  0
    4.1522    3.2600    1.1444 C   0  0  0  0  0  0  0  0  0  0  0  0
    3.0708    3.7228   -0.9469 O   0  0  0  0  0  0  0  0  0  0  0  0
    1.6452    3.8866   -0.8401 C   0  0  0  0  0  0  0  0  0  0  0  0
    1.1494    2.4975   -0.6386 C   0  0  0  0  0  0  0  0  0  0  0  0
    0.0994    1.9311   -1.2538 C   0  0  0  0  0  0  0  0  0  0  0  0
   -0.9375    2.6136   -1.9866 C   0  0  0  0  0  0  0  0  0  0  0  0
   -1.8614    3.3246   -1.3252 C   0  0  0  0  0  0  0  0  0  0  0  0
   -3.1324    3.8729   -1.9284 C   0  0  2  0  0  0  0  0  0  0  0  0
   -3.3250    5.3358   -1.5178 C   0  0  0  0  0  0  0  0  0  0  0  0
   -4.3685    2.9895   -1.5868 C   0  0  0  0  0  0  0  0  0  0  0  0
    2.1362    1.8386    0.2979 C   0  0  1  0  0  0  0  0  0  0  0  0
    1.7161    2.2900    1.6057 O   0  0  0  0  0  0  0  0  0  0  0  0
   -5.2457    2.9929    1.7828 H   0  0  0  0  0  0  0  0  0  0  0  0
   -5.4173    4.2291    0.5544 H   0  0  0  0  0  0  0  0  0  0  0  0
   -3.8140    3.9041    1.2596 H   0  0  0  0  0  0  0  0  0  0  0  0
   -4.2283    0.4485   -0.7923 H   0  0  0  0  0  0  0  0  0  0  0  0
   -4.1176    1.1323    2.2060 H   0  0  0  0  0  0  0  0  0  0  0  0
   -5.3152   -0.0116    1.5777 H   0  0  0  0  0  0  0  0  0  0  0  0
   -3.2353   -1.0209    2.5626 H   0  0  0  0  0  0  0  0  0  0  0  0
   -1.4983    0.5271    1.6806 H   0  0  0  0  0  0  0  0  0  0  0  0
   -1.9193    0.1006    0.0339 H   0  0  0  0  0  0  0  0  0  0  0  0
   -0.6623   -1.7782    2.0832 H   0  0  0  0  0  0  0  0  0  0  0  0
   -1.5499   -2.3732   -0.7759 H   0  0  0  0  0  0  0  0  0  0  0  0
   -0.8155   -3.4956    0.3655 H   0  0  0  0  0  0  0  0  0  0  0  0
   -3.6787   -3.7015   -1.0877 H   0  0  0  0  0  0  0  0  0  0  0  0
   -2.7833   -4.9204   -0.1672 H   0  0  0  0  0  0  0  0  0  0  0  0
   -5.5774   -3.8625    0.4276 H   0  0  0  0  0  0  0  0  0  0  0  0
   -5.1342   -5.4751   -0.1219 H   0  0  0  0  0  0  0  0  0  0  0  0
   -3.8914   -5.9088    1.9411 H   0  0  0  0  0  0  0  0  0  0  0  0
   -6.6533   -4.7520    2.5963 H   0  0  0  0  0  0  0  0  0  0  0  0
   -5.7934   -6.0017    3.5155 H   0  0  0  0  0  0  0  0  0  0  0  0
   -6.3577   -6.3482    1.8832 H   0  0  0  0  0  0  0  0  0  0  0  0
   -4.6781   -3.0621    2.7874 H   0  0  0  0  0  0  0  0  0  0  0  0
   -4.5395   -4.5503    4.7656 H   0  0  0  0  0  0  0  0  0  0  0  0
   -2.9648   -5.1631    4.2077 H   0  0  0  0  0  0  0  0  0  0  0  0
   -3.1288   -3.4827    4.6915 H   0  0  0  0  0  0  0  0  0  0  0  0
    2.0332   -0.0313   -0.8535 H   0  0  0  0  0  0  0  0  0  0  0  0
    3.7860   -1.1642    0.9737 H   0  0  0  0  0  0  0  0  0  0  0  0
    6.1677   -0.9699    0.6309 H   0  0  0  0  0  0  0  0  0  0  0  0
    6.7224    0.7245    0.5448 H   0  0  0  0  0  0  0  0  0  0  0  0
    6.6870   -0.3963   -3.9567 H   0  0  0  0  0  0  0  0  0  0  0  0
    8.3845   -1.1148   -5.9477 H   0  0  0  0  0  0  0  0  0  0  0  0
   10.6722   -1.9424   -4.7224 H   0  0  0  0  0  0  0  0  0  0  0  0
   10.2942   -1.7080   -2.2427 H   0  0  0  0  0  0  0  0  0  0  0  0
    5.4068    2.2753   -0.9862 H   0  0  0  0  0  0  0  0  0  0  0  0
    3.6564    2.2527   -2.4999 H   0  0  0  0  0  0  0  0  0  0  0  0
    4.4412    2.5168    1.8928 H   0  0  0  0  0  0  0  0  0  0  0  0
    3.5150    4.0120    1.6237 H   0  0  0  0  0  0  0  0  0  0  0  0
    5.0531    3.7990    0.8296 H   0  0  0  0  0  0  0  0  0  0  0  0
    1.2866    4.3623   -1.7564 H   0  0  0  0  0  0  0  0  0  0  0  0
    1.4228    4.5331    0.0155 H   0  0  0  0  0  0  0  0  0  0  0  0
   -0.0970    0.8693   -1.1525 H   0  0  0  0  0  0  0  0  0  0  0  0
   -1.0419    2.3935   -3.0448 H   0  0  0  0  0  0  0  0  0  0  0  0
   -1.7569    3.4518   -0.2473 H   0  0  0  0  0  0  0  0  0  0  0  0
   -3.0376    3.8697   -3.0232 H   0  0  0  0  0  0  0  0  0  0  0  0
   -2.5045    5.9537   -1.9029 H   0  0  0  0  0  0  0  0  0  0  0  0
   -3.3492    5.4669   -0.4312 H   0  0  0  0  0  0  0  0  0  0  0  0
   -4.2581    5.7364   -1.9308 H   0  0  0  0  0  0  0  0  0  0  0  0
   -5.2898    3.5370   -1.8228 H   0  0  0  0  0  0  0  0  0  0  0  0
   -4.3591    2.1426   -2.2892 H   0  0  0  0  0  0  0  0  0  0  0  0
    1.5594    1.5365    2.2092 H   0  0  0  0  0  0  0  0  0  0  0  0
  1  2  1  0
  2  3  2  0
  3  4  1  0
  4  5  1  0
  5  6  1  0
  6  7  1  0
  7  8  1  0
  8  9  1  0
  9 10  1  0
 10 11  1  0
 11 12  1  0
 12 13  1  0
 12 14  1  0
 14 15  1  0
 14 16  1  0
  9 17  1  1
  7 18  1  0
 18 19  1  0
 19 20  2  0
 19 21  1  0
 21 22  1  0
 22 23  2  0
 23 24  1  0
 24 25  1  0
 25 26  1  0
 26 27  2  0
 26 28  1  0
 28 29  2  0
 29 30  1  0
 30 31  2  0
 31 32  1  0
 23 33  1  0
 33 34  1  0
 33 35  1  0
 35 36  1  1
 35 37  1  0
 37 38  1  0
 38 39  1  0
 39 40  2  0
 40 41  1  0
 41 42  2  0
 42 43  1  0
 43 44  1  0
 43 45  1  0
 39 46  1  0
 46 47  1  1
 45  2  1  0
 17  5  1  0
 46 21  1  0
 16  9  1  0
 32 28  1  0
 46 35  1  0
  1 48  1  0
  1 49  1  0
  1 50  1  0
  3 51  1  0
  4 52  1  0
  4 53  1  0
  5 54  1  1
  6 55  1  0
  6 56  1  0
  7 57  1  1
  8 58  1  0
  8 59  1  0
 10 60  1  0
 10 61  1  0
 11 62  1  0
 11 63  1  0
 12 64  1  6
 13 65  1  0
 13 66  1  0
 13 67  1  0
 14 68  1  1
 15 69  1  0
 15 70  1  0
 15 71  1  0
 21 72  1  0
 22 73  1  0
 24 74  1  0
 24 75  1  0
 29 76  1  0
 30 77  1  0
 31 78  1  0
 32 79  1  0
 33 80  1  6
 34 81  1  0
 36 82  1  0
 36 83  1  0
 36 84  1  0
 38 85  1  0
 38 86  1  0
 40 87  1  0
 41 88  1  0
 42 89  1  0
 43 90  1  6
 44 91  1  0
 44 92  1  0
 44 93  1  0
 45 94  1  0
 45 95  1  0
 47 96  1  0
M  END
$$$$
