
     RDKit          3D

 63 66  0  0  0  0  0  0  0  0999 V2000
   -6.4197    0.4190   -2.0733 C   0  0  0  0  0  0  0  0  0  0  0  0
   -4.9533    0.6215   -1.8088 C   0  0  0  0  0  0  0  0  0  0  0  0
   -4.2932    1.6644   -2.4737 C   0  0  0  0  0  0  0  0  0  0  0  0
   -2.9285    1.8946   -2.2757 C   0  0  0  0  0  0  0  0  0  0  0  0
   -2.1828    1.0863   -1.4126 C   0  0  0  0  0  0  0  0  0  0  0  0
   -0.8083    1.3775   -1.2920 N   0  0  0  0  0  0  0  0  0  0  0  0
    0.1396    0.6657   -0.5827 C   0  0  0  0  0  0  0  0  0  0  0  0
   -0.0219   -0.3561    0.0685 O   0  0  0  0  0  0  0  0  0  0  0  0
    1.5099    1.2300   -0.6603 C   0  0  0  0  0  0  0  0  0  0  0  0
    1.7380    2.5967   -0.4404 C   0  0  0  0  0  0  0  0  0  0  0  0
    3.0370    3.1048   -0.5024 C   0  0  0  0  0  0  0  0  0  0  0  0
    4.1061    2.2515   -0.7756 C   0  0  0  0  0  0  0  0  0  0  0  0
    3.8716    0.8853   -0.9735 C   0  0  0  0  0  0  0  0  0  0  0  0
    5.2461   -0.1773   -1.3653 S   0  0  0  0  0  6  0  0  0  0  0  0
    4.7069   -1.4250   -1.8693 O   0  0  0  0  0  0  0  0  0  0  0  0
    6.1580    0.6156   -2.1649 O   0  0  0  0  0  0  0  0  0  0  0  0
    5.9378   -0.4576    0.1798 N   0  0  0  0  0  0  0  0  0  0  0  0
    5.0917   -1.2383    1.1163 C   0  0  0  0  0  0  0  0  0  0  0  0
    7.3079   -0.9034    0.1306 C   0  0  0  0  0  0  0  0  0  0  0  0
    8.2576   -0.1554    0.8302 C   0  0  0  0  0  0  0  0  0  0  0  0
    9.5892   -0.5710    0.8642 C   0  0  0  0  0  0  0  0  0  0  0  0
    9.9689   -1.7453    0.2142 C   0  0  0  0  0  0  0  0  0  0  0  0
    9.0172   -2.5075   -0.4640 C   0  0  0  0  0  0  0  0  0  0  0  0
    7.6846   -2.0932   -0.5000 C   0  0  0  0  0  0  0  0  0  0  0  0
    2.5762    0.3659   -0.9232 C   0  0  0  0  0  0  0  0  0  0  0  0
   -2.8285    0.0564   -0.7296 C   0  0  0  0  0  0  0  0  0  0  0  0
   -4.2044   -0.1714   -0.9178 C   0  0  0  0  0  0  0  0  0  0  0  0
   -4.9571   -1.4933    0.0192 S   0  0  0  0  0  6  0  0  0  0  0  0
   -5.5738   -2.4050   -0.9203 O   0  0  0  0  0  0  0  0  0  0  0  0
   -4.0143   -1.9701    1.0101 O   0  0  0  0  0  0  0  0  0  0  0  0
   -6.1938   -0.7002    0.8897 N   0  0  0  0  0  0  0  0  0  0  0  0
   -7.2051   -1.6514    1.4572 C   0  0  0  0  0  0  0  0  0  0  0  0
   -8.0422   -0.9540    2.5319 C   0  0  0  0  0  0  0  0  0  0  0  0
   -7.2648   -0.5215    3.6596 O   0  0  0  0  0  0  0  0  0  0  0  0
   -5.8964   -0.2340    3.3296 C   0  0  0  0  0  0  0  0  0  0  0  0
   -5.7321    0.3034    1.9054 C   0  0  0  0  0  0  0  0  0  0  0  0
   -6.6318   -0.6147   -2.3573 H   0  0  0  0  0  0  0  0  0  0  0  0
   -6.7604    1.0418   -2.9094 H   0  0  0  0  0  0  0  0  0  0  0  0
   -7.0153    0.7006   -1.2004 H   0  0  0  0  0  0  0  0  0  0  0  0
   -4.8363    2.3076   -3.1648 H   0  0  0  0  0  0  0  0  0  0  0  0
   -2.4591    2.7094   -2.8219 H   0  0  0  0  0  0  0  0  0  0  0  0
   -0.4701    2.1499   -1.8531 H   0  0  0  0  0  0  0  0  0  0  0  0
    0.9171    3.2655   -0.1941 H   0  0  0  0  0  0  0  0  0  0  0  0
    3.2183    4.1637   -0.3314 H   0  0  0  0  0  0  0  0  0  0  0  0
    5.1176    2.6503   -0.8322 H   0  0  0  0  0  0  0  0  0  0  0  0
    4.8262   -2.2146    0.6991 H   0  0  0  0  0  0  0  0  0  0  0  0
    5.6259   -1.4082    2.0589 H   0  0  0  0  0  0  0  0  0  0  0  0
    4.1835   -0.6832    1.3668 H   0  0  0  0  0  0  0  0  0  0  0  0
    7.9641    0.7574    1.3415 H   0  0  0  0  0  0  0  0  0  0  0  0
   10.3307    0.0195    1.3964 H   0  0  0  0  0  0  0  0  0  0  0  0
   11.0071   -2.0678    0.2386 H   0  0  0  0  0  0  0  0  0  0  0  0
    9.3129   -3.4257   -0.9664 H   0  0  0  0  0  0  0  0  0  0  0  0
    6.9541   -2.7044   -1.0219 H   0  0  0  0  0  0  0  0  0  0  0  0
    2.3908   -0.6944   -1.0883 H   0  0  0  0  0  0  0  0  0  0  0  0
   -2.2807   -0.5873   -0.0475 H   0  0  0  0  0  0  0  0  0  0  0  0
   -6.6951   -2.5155    1.8991 H   0  0  0  0  0  0  0  0  0  0  0  0
   -7.8569   -1.9953    0.6472 H   0  0  0  0  0  0  0  0  0  0  0  0
   -8.8153   -1.6321    2.9079 H   0  0  0  0  0  0  0  0  0  0  0  0
   -8.5497   -0.0738    2.1206 H   0  0  0  0  0  0  0  0  0  0  0  0
   -5.3125   -1.1494    3.4784 H   0  0  0  0  0  0  0  0  0  0  0  0
   -5.5376    0.5049    4.0540 H   0  0  0  0  0  0  0  0  0  0  0  0
   -6.3537    1.1965    1.7718 H   0  0  0  0  0  0  0  0  0  0  0  0
   -4.6981    0.6080    1.7274 H   0  0  0  0  0  0  0  0  0  0  0  0
  1  2  1  0
  2  3  2  0
  3  4  1  0
  4  5  2  0
  5  6  1  0
  6  7  1  0
  7  8  2  0
  7  9  1  0
  9 10  2  0
 10 11  1  0
 11 12  2  0
 12 13  1  0
 13 14  1  0
 14 15  2  0
 14 16  2  0
 14 17  1  0
 17 18  1  0
 17 19  1  0
 19 20  2  0
 20 21  1  0
 21 22  2  0
 22 23  1  0
 23 24  2  0
 13 25  2  0
  5 26  1  0
 26 27  2  0
 27 28  1  0
 28 29  2  0
 28 30  2  0
 28 31  1  0
 31 32  1  0
 32 33  1  0
 33 34  1  0
 34 35  1  0
 35 36  1  0
 27  2  1  0
 36 31  1  0
 25  9  1  0
 24 19  1  0
  1 37  1  0
  1 38  1  0
  1 39  1  0
  3 40  1  0
  4 41  1  0
  6 42  1  0
 10 43  1  0
 11 44  1  0
 12 45  1  0
 18 46  1  0
 18 47  1  0
 18 48  1  0
 20 49  1  0
 21 50  1  0
 22 51  1  0
 23 52  1  0
 24 53  1  0
 25 54  1  0
 26 55  1  0
 32 56  1  0
 32 57  1  0
 33 58  1  0
 33 59  1  0
 35 60  1  0
 35 61  1  0
 36 62  1  0
 36 63  1  0
M  END
$$$$
