
     RDKit          3D

 57 60  0  0  0  0  0  0  0  0999 V2000
   -8.5638    1.5296    0.4730 C   0  0  0  0  0  0  0  0  0  0  0  0
   -7.5714    1.1611    1.4263 O   0  0  0  0  0  0  0  0  0  0  0  0
   -6.4043    0.6402    0.9346 C   0  0  0  0  0  0  0  0  0  0  0  0
   -6.1149    0.4072   -0.4082 C   0  0  0  0  0  0  0  0  0  0  0  0
   -4.8866   -0.1525   -0.7767 C   0  0  0  0  0  0  0  0  0  0  0  0
   -3.9410   -0.4843    0.1939 C   0  0  0  0  0  0  0  0  0  0  0  0
   -2.6941   -1.0861   -0.0955 N   0  0  0  0  0  0  0  0  0  0  0  0
   -2.2196   -1.5142   -1.3202 C   0  0  0  0  0  0  0  0  0  0  0  0
   -2.7799   -1.3758   -2.4077 O   0  0  0  0  0  0  0  0  0  0  0  0
   -0.8850   -2.2261   -1.2206 C   0  0  0  0  0  0  0  0  0  0  0  0
    0.2359   -1.3027   -1.2809 N   0  0  0  0  0  0  0  0  0  0  0  0
    0.9597   -0.8963   -0.1908 C   0  0  0  0  0  0  0  0  0  0  0  0
    1.9895   -0.0931   -0.6447 C   0  0  0  0  0  0  0  0  0  0  0  0
    3.2051    0.6431    0.3483 S   0  0  0  0  0  6  0  0  0  0  0  0
    2.7945    0.3097    1.6996 O   0  0  0  0  0  0  0  0  0  0  0  0
    3.2797    2.0086   -0.1341 O   0  0  0  0  0  0  0  0  0  0  0  0
    4.6829   -0.2639   -0.0921 C   0  0  0  0  0  0  0  0  0  0  0  0
    5.8208    0.1990    0.7797 C   0  0  0  0  0  0  0  0  0  0  0  0
    6.6271    1.2783    0.3861 C   0  0  0  0  0  0  0  0  0  0  0  0
    7.6737    1.7118    1.1999 C   0  0  0  0  0  0  0  0  0  0  0  0
    7.9211    1.0751    2.4142 C   0  0  0  0  0  0  0  0  0  0  0  0
    7.1217    0.0074    2.8191 C   0  0  0  0  0  0  0  0  0  0  0  0
    6.0747   -0.4286    2.0069 C   0  0  0  0  0  0  0  0  0  0  0  0
    1.8863    0.0043   -2.0621 C   0  0  0  0  0  0  0  0  0  0  0  0
    2.6198    0.6653   -3.0741 C   0  0  0  0  0  0  0  0  0  0  0  0
    2.2291    0.5409   -4.4123 C   0  0  0  0  0  0  0  0  0  0  0  0
    1.1203   -0.2250   -4.7568 C   0  0  0  0  0  0  0  0  0  0  0  0
    0.3743   -0.8898   -3.7782 C   0  0  0  0  0  0  0  0  0  0  0  0
    0.7771   -0.7688   -2.4359 C   0  0  0  0  0  0  0  0  0  0  0  0
   -4.2238   -0.2340    1.5534 C   0  0  0  0  0  0  0  0  0  0  0  0
   -3.2302   -0.5880    2.4402 O   0  0  0  0  0  0  0  0  0  0  0  0
   -3.4396   -0.2495    3.8055 C   0  0  0  0  0  0  0  0  0  0  0  0
   -5.4535    0.3269    1.9113 C   0  0  0  0  0  0  0  0  0  0  0  0
   -8.1848    2.2968   -0.2126 H   0  0  0  0  0  0  0  0  0  0  0  0
   -9.4158    1.9588    1.0162 H   0  0  0  0  0  0  0  0  0  0  0  0
   -8.9209    0.6577   -0.0829 H   0  0  0  0  0  0  0  0  0  0  0  0
   -6.8214    0.6388   -1.1982 H   0  0  0  0  0  0  0  0  0  0  0  0
   -4.6996   -0.3100   -1.8333 H   0  0  0  0  0  0  0  0  0  0  0  0
   -2.1296   -1.2490    0.7349 H   0  0  0  0  0  0  0  0  0  0  0  0
   -0.8222   -2.7892   -0.2794 H   0  0  0  0  0  0  0  0  0  0  0  0
   -0.7856   -2.9508   -2.0382 H   0  0  0  0  0  0  0  0  0  0  0  0
    0.7052   -1.2062    0.8159 H   0  0  0  0  0  0  0  0  0  0  0  0
    4.4867   -1.3301    0.0486 H   0  0  0  0  0  0  0  0  0  0  0  0
    4.9065   -0.0842   -1.1469 H   0  0  0  0  0  0  0  0  0  0  0  0
    6.4418    1.7888   -0.5601 H   0  0  0  0  0  0  0  0  0  0  0  0
    8.2924    2.5501    0.8901 H   0  0  0  0  0  0  0  0  0  0  0  0
    8.7354    1.4147    3.0490 H   0  0  0  0  0  0  0  0  0  0  0  0
    7.3113   -0.4849    3.7695 H   0  0  0  0  0  0  0  0  0  0  0  0
    5.4538   -1.2561    2.3432 H   0  0  0  0  0  0  0  0  0  0  0  0
    3.4733    1.2941   -2.8264 H   0  0  0  0  0  0  0  0  0  0  0  0
    2.7883    1.0622   -5.1848 H   0  0  0  0  0  0  0  0  0  0  0  0
    0.8155   -0.2890   -5.7985 H   0  0  0  0  0  0  0  0  0  0  0  0
   -0.5081   -1.4619   -4.0577 H   0  0  0  0  0  0  0  0  0  0  0  0
   -2.5432   -0.5427    4.3640 H   0  0  0  0  0  0  0  0  0  0  0  0
   -4.2835   -0.8062    4.2221 H   0  0  0  0  0  0  0  0  0  0  0  0
   -3.5677    0.8332    3.9297 H   0  0  0  0  0  0  0  0  0  0  0  0
   -5.7130    0.5353    2.9463 H   0  0  0  0  0  0  0  0  0  0  0  0
  1  2  1  0
  2  3  1  0
  3  4  2  0
  4  5  1  0
  5  6  2  0
  6  7  1  0
  7  8  1  0
  8  9  2  0
  8 10  1  0
 10 11  1  0
 11 12  1  0
 12 13  2  0
 13 14  1  0
 14 15  2  0
 14 16  2  0
 14 17  1  0
 17 18  1  0
 18 19  2  0
 19 20  1  0
 20 21  2  0
 21 22  1  0
 22 23  2  0
 13 24  1  0
 24 25  2  0
 25 26  1  0
 26 27  2  0
 27 28  1  0
 28 29  2  0
  6 30  1  0
 30 31  1  0
 31 32  1  0
 30 33  2  0
 33  3  1  0
 29 11  1  0
 23 18  1  0
 29 24  1  0
  1 34  1  0
  1 35  1  0
  1 36  1  0
  4 37  1  0
  5 38  1  0
  7 39  1  0
 10 40  1  0
 10 41  1  0
 12 42  1  0
 17 43  1  0
 17 44  1  0
 19 45  1  0
 20 46  1  0
 21 47  1  0
 22 48  1  0
 23 49  1  0
 25 50  1  0
 26 51  1  0
 27 52  1  0
 28 53  1  0
 32 54  1  0
 32 55  1  0
 32 56  1  0
 33 57  1  0
M  END
$$$$
