
     RDKit          3D

 47 48  0  0  0  0  0  0  0  0999 V2000
   -4.3453    2.1531    1.4108 C   0  0  0  0  0  0  0  0  0  0  0  0
   -4.6567    0.6877    1.1365 C   0  0  0  0  0  0  0  0  0  0  0  0
   -3.5614   -0.1935    1.5734 N   0  0  0  0  0  0  0  0  0  0  0  0
   -3.8456   -1.0477    2.7368 C   0  0  0  0  0  0  0  0  0  0  0  0
   -3.5873   -0.3104    4.0419 C   0  0  0  0  0  0  0  0  0  0  0  0
   -2.3376   -0.2453    0.9130 C   0  0  0  0  0  0  0  0  0  0  0  0
   -1.1989   -0.8169    1.5006 C   0  0  0  0  0  0  0  0  0  0  0  0
    0.0391   -0.8695    0.8465 C   0  0  0  0  0  0  0  0  0  0  0  0
    0.1892   -0.3376   -0.4354 C   0  0  0  0  0  0  0  0  0  0  0  0
    1.4826   -0.4137   -1.1381 C   0  0  0  0  0  0  0  0  0  0  0  0
    2.6573   -0.1067   -0.5662 C   0  0  0  0  0  0  0  0  0  0  0  0
    3.9146   -0.1301   -1.3183 C   0  0  0  0  0  0  0  0  0  0  0  0
    4.0892    0.7130   -2.4243 C   0  0  0  0  0  0  0  0  0  0  0  0
    5.2909    0.7127   -3.1200 C   0  0  0  0  0  0  0  0  0  0  0  0
    6.3103   -0.1272   -2.7028 C   0  0  0  0  0  0  0  0  0  0  0  0
    6.1082   -0.9504   -1.6024 C   0  0  0  0  0  0  0  0  0  0  0  0
    4.9324   -0.9467   -0.9293 N   0  0  0  0  0  4  0  0  0  0  0  0
    4.7653   -1.8660    0.2136 C   0  0  0  0  0  0  0  0  0  0  0  0
   -0.9315    0.2291   -1.0647 C   0  0  0  0  0  0  0  0  0  0  0  0
   -0.7242    0.7230   -2.3318 O   0  0  0  0  0  0  0  0  0  0  0  0
   -1.8394    1.2956   -3.0057 C   0  0  0  0  0  0  0  0  0  0  0  0
   -2.1628    0.2705   -0.3860 C   0  0  0  0  0  0  0  0  0  0  0  0
   -3.4758    2.5008    0.8455 H   0  0  0  0  0  0  0  0  0  0  0  0
   -4.1398    2.3220    2.4725 H   0  0  0  0  0  0  0  0  0  0  0  0
   -5.1987    2.7775    1.1277 H   0  0  0  0  0  0  0  0  0  0  0  0
   -4.8960    0.5281    0.0795 H   0  0  0  0  0  0  0  0  0  0  0  0
   -5.5790    0.4382    1.6760 H   0  0  0  0  0  0  0  0  0  0  0  0
   -3.2735   -1.9822    2.7041 H   0  0  0  0  0  0  0  0  0  0  0  0
   -4.8952   -1.3672    2.7133 H   0  0  0  0  0  0  0  0  0  0  0  0
   -2.5586    0.0574    4.1035 H   0  0  0  0  0  0  0  0  0  0  0  0
   -4.2560    0.5497    4.1472 H   0  0  0  0  0  0  0  0  0  0  0  0
   -3.7631   -0.9764    4.8925 H   0  0  0  0  0  0  0  0  0  0  0  0
   -1.2407   -1.2279    2.5052 H   0  0  0  0  0  0  0  0  0  0  0  0
    0.8706   -1.3407    1.3617 H   0  0  0  0  0  0  0  0  0  0  0  0
    1.4120   -0.6918   -2.1893 H   0  0  0  0  0  0  0  0  0  0  0  0
    2.7159    0.2084    0.4721 H   0  0  0  0  0  0  0  0  0  0  0  0
    3.2871    1.3788   -2.7417 H   0  0  0  0  0  0  0  0  0  0  0  0
    5.4292    1.3670   -3.9795 H   0  0  0  0  0  0  0  0  0  0  0  0
    7.2601   -0.1419   -3.2338 H   0  0  0  0  0  0  0  0  0  0  0  0
    6.8896   -1.6212   -1.2552 H   0  0  0  0  0  0  0  0  0  0  0  0
    3.8993   -2.5044    0.0201 H   0  0  0  0  0  0  0  0  0  0  0  0
    5.6539   -2.4928    0.3237 H   0  0  0  0  0  0  0  0  0  0  0  0
    4.6314   -1.2647    1.1165 H   0  0  0  0  0  0  0  0  0  0  0  0
   -2.6304    0.5545   -3.1602 H   0  0  0  0  0  0  0  0  0  0  0  0
   -1.4981    1.6266   -3.9913 H   0  0  0  0  0  0  0  0  0  0  0  0
   -2.2140    2.1750   -2.4718 H   0  0  0  0  0  0  0  0  0  0  0  0
   -3.0189    0.7044   -0.8863 H   0  0  0  0  0  0  0  0  0  0  0  0
  1  2  1  0
  2  3  1  0
  3  4  1  0
  4  5  1  0
  3  6  1  0
  6  7  2  0
  7  8  1  0
  8  9  2  0
  9 10  1  0
 10 11  2  3
 11 12  1  0
 12 13  2  0
 13 14  1  0
 14 15  2  0
 15 16  1  0
 16 17  2  0
 17 18  1  0
  9 19  1  0
 19 20  1  0
 20 21  1  0
 19 22  2  0
 22  6  1  0
 17 12  1  0
  1 23  1  0
  1 24  1  0
  1 25  1  0
  2 26  1  0
  2 27  1  0
  4 28  1  0
  4 29  1  0
  5 30  1  0
  5 31  1  0
  5 32  1  0
  7 33  1  0
  8 34  1  0
 10 35  1  0
 11 36  1  0
 13 37  1  0
 14 38  1  0
 15 39  1  0
 16 40  1  0
 18 41  1  0
 18 42  1  0
 18 43  1  0
 21 44  1  0
 21 45  1  0
 21 46  1  0
 22 47  1  0
M  CHG  1  17   1
M  END
$$$$
