
     RDKit          3D

 55 58  0  0  0  0  0  0  0  0999 V2000
    5.3347   -0.8237   -3.4682 C   0  0  0  0  0  0  0  0  0  0  0  0
    5.1251    0.5561   -2.8734 C   0  0  0  0  0  0  0  0  0  0  0  0
    5.2105    0.4950   -1.4412 O   0  0  0  0  0  0  0  0  0  0  0  0
    4.0625    0.1845   -0.7900 C   0  0  0  0  0  0  0  0  0  0  0  0
    2.9851   -0.0469   -1.3214 O   0  0  0  0  0  0  0  0  0  0  0  0
    4.2684    0.1460    0.6908 C   0  0  0  0  0  0  0  0  0  0  0  0
    5.5415    0.4136    1.2293 C   0  0  0  0  0  0  0  0  0  0  0  0
    5.7526    0.3750    2.6063 C   0  0  0  0  0  0  0  0  0  0  0  0
    4.6974    0.0683    3.4564 C   0  0  0  0  0  0  0  0  0  0  0  0
    3.4277   -0.1994    2.9364 C   0  0  0  0  0  0  0  0  0  0  0  0
    3.1893   -0.1641    1.5562 C   0  0  0  0  0  0  0  0  0  0  0  0
    1.9077   -0.4340    1.0107 N   0  0  0  0  0  0  0  0  0  0  0  0
    0.7370   -0.7357    1.6713 C   0  0  0  0  0  0  0  0  0  0  0  0
    0.5577   -0.7882    2.8817 O   0  0  0  0  0  0  0  0  0  0  0  0
   -0.4087   -0.9553    0.7383 C   0  0  0  0  0  0  0  0  0  0  0  0
   -1.4617   -0.1493    0.9396 C   0  0  0  0  0  0  0  0  0  0  0  0
   -2.6025   -0.1337    0.1364 N   0  0  0  0  0  0  0  0  0  0  0  0
   -3.6963    0.7680    0.4407 C   0  0  0  0  0  0  0  0  0  0  0  0
   -4.5372    1.2833   -0.5566 C   0  0  0  0  0  0  0  0  0  0  0  0
   -5.5848    2.1681   -0.2542 C   0  0  0  0  0  0  0  0  0  0  0  0
   -5.8169    2.5599    1.0599 C   0  0  0  0  0  0  0  0  0  0  0  0
   -6.7969    3.4098    1.4892 O   0  0  0  0  0  0  0  0  0  0  0  0
   -7.6891    3.9100    0.5012 C   0  0  0  0  0  0  0  0  0  0  0  0
   -4.9915    2.0603    2.0642 C   0  0  0  0  0  0  0  0  0  0  0  0
   -3.9462    1.1781    1.7613 C   0  0  0  0  0  0  0  0  0  0  0  0
   -2.6903   -1.0021   -0.9814 C   0  0  0  0  0  0  0  0  0  0  0  0
   -3.6457   -1.0957   -1.7511 O   0  0  0  0  0  0  0  0  0  0  0  0
   -1.5420   -1.9260   -1.2210 C   0  0  0  0  0  0  0  0  0  0  0  0
   -1.5995   -2.8268   -2.2973 C   0  0  0  0  0  0  0  0  0  0  0  0
   -0.5632   -3.7330   -2.5132 C   0  0  0  0  0  0  0  0  0  0  0  0
    0.5270   -3.7517   -1.6495 C   0  0  0  0  0  0  0  0  0  0  0  0
    0.5881   -2.8575   -0.5773 C   0  0  0  0  0  0  0  0  0  0  0  0
   -0.4365   -1.9214   -0.3616 C   0  0  0  0  0  0  0  0  0  0  0  0
    4.5514   -1.5153   -3.1424 H   0  0  0  0  0  0  0  0  0  0  0  0
    6.2893   -1.2441   -3.1358 H   0  0  0  0  0  0  0  0  0  0  0  0
    5.3296   -0.7800   -4.5610 H   0  0  0  0  0  0  0  0  0  0  0  0
    4.1734    0.9928   -3.1969 H   0  0  0  0  0  0  0  0  0  0  0  0
    5.9201    1.2282   -3.2126 H   0  0  0  0  0  0  0  0  0  0  0  0
    6.3850    0.6546    0.5862 H   0  0  0  0  0  0  0  0  0  0  0  0
    6.7388    0.5832    3.0145 H   0  0  0  0  0  0  0  0  0  0  0  0
    4.8553    0.0357    4.5323 H   0  0  0  0  0  0  0  0  0  0  0  0
    2.6407   -0.4345    3.6469 H   0  0  0  0  0  0  0  0  0  0  0  0
    1.8536   -0.3712   -0.0094 H   0  0  0  0  0  0  0  0  0  0  0  0
   -1.4197    0.5831    1.7419 H   0  0  0  0  0  0  0  0  0  0  0  0
   -4.3834    1.0396   -1.6044 H   0  0  0  0  0  0  0  0  0  0  0  0
   -6.1919    2.5301   -1.0772 H   0  0  0  0  0  0  0  0  0  0  0  0
   -8.4187    4.5519    1.0042 H   0  0  0  0  0  0  0  0  0  0  0  0
   -7.1584    4.5227   -0.2350 H   0  0  0  0  0  0  0  0  0  0  0  0
   -8.2394    3.0966    0.0167 H   0  0  0  0  0  0  0  0  0  0  0  0
   -5.1672    2.3490    3.0979 H   0  0  0  0  0  0  0  0  0  0  0  0
   -3.3688    0.7893    2.5955 H   0  0  0  0  0  0  0  0  0  0  0  0
   -2.4593   -2.8305   -2.9649 H   0  0  0  0  0  0  0  0  0  0  0  0
   -0.6143   -4.4296   -3.3463 H   0  0  0  0  0  0  0  0  0  0  0  0
    1.3316   -4.4667   -1.8061 H   0  0  0  0  0  0  0  0  0  0  0  0
    1.4488   -2.9166    0.0856 H   0  0  0  0  0  0  0  0  0  0  0  0
  1  2  1  0
  2  3  1  0
  3  4  1  0
  4  5  2  0
  4  6  1  0
  6  7  2  0
  7  8  1  0
  8  9  2  0
  9 10  1  0
 10 11  2  0
 11 12  1  0
 12 13  1  0
 13 14  2  0
 13 15  1  0
 15 16  2  0
 16 17  1  0
 17 18  1  0
 18 19  2  0
 19 20  1  0
 20 21  2  0
 21 22  1  0
 22 23  1  0
 21 24  1  0
 24 25  2  0
 17 26  1  0
 26 27  2  0
 26 28  1  0
 28 29  2  0
 29 30  1  0
 30 31  2  0
 31 32  1  0
 32 33  2  0
 11  6  1  0
 33 15  1  0
 25 18  1  0
 33 28  1  0
  1 34  1  0
  1 35  1  0
  1 36  1  0
  2 37  1  0
  2 38  1  0
  7 39  1  0
  8 40  1  0
  9 41  1  0
 10 42  1  0
 12 43  1  0
 16 44  1  0
 19 45  1  0
 20 46  1  0
 23 47  1  0
 23 48  1  0
 23 49  1  0
 24 50  1  0
 25 51  1  0
 29 52  1  0
 30 53  1  0
 31 54  1  0
 32 55  1  0
M  END
$$$$
