
     RDKit          3D

 49 52  0  0  0  0  0  0  0  0999 V2000
   -1.3787    4.4872    1.3854 O   0  0  0  0  0  0  0  0  0  0  0  0
   -1.9714    3.4315    1.2573 C   0  0  0  0  0  0  0  0  0  0  0  0
   -2.5654    2.8350    2.3053 O   0  0  0  0  0  0  0  0  0  0  0  0
   -2.2258    2.7284   -0.0189 C   0  0  0  0  0  0  0  0  0  0  0  0
   -2.5640    3.5720   -1.0954 C   0  0  0  0  0  0  0  0  0  0  0  0
   -2.9560    3.0393   -2.3193 C   0  0  0  0  0  0  0  0  0  0  0  0
   -3.0368    1.6605   -2.4661 C   0  0  0  0  0  0  0  0  0  0  0  0
   -2.6853    0.8173   -1.4001 C   0  0  0  0  0  0  0  0  0  0  0  0
   -2.8296   -0.6448   -1.5819 C   0  0  0  0  0  0  0  0  0  0  0  0
   -3.1468   -1.1178   -2.6692 O   0  0  0  0  0  0  0  0  0  0  0  0
   -2.6200   -1.5261   -0.4170 C   0  0  0  0  0  0  0  0  0  0  0  0
   -2.9216   -2.8911   -0.5149 C   0  0  0  0  0  0  0  0  0  0  0  0
   -2.7342   -3.7232    0.5858 C   0  0  0  0  0  0  0  0  0  0  0  0
   -2.2557   -3.1902    1.7798 C   0  0  0  0  0  0  0  0  0  0  0  0
   -1.9486   -1.8282    1.8694 C   0  0  0  0  0  0  0  0  0  0  0  0
   -2.1042   -0.9751    0.7646 C   0  0  0  0  0  0  0  0  0  0  0  0
   -1.7812    0.4081    0.8367 N   0  0  0  0  0  0  0  0  0  0  0  0
   -0.3777    0.6497    1.3054 C   0  0  0  0  0  0  0  0  0  0  0  0
    0.6939    0.2193    0.2753 C   0  0  0  0  0  0  0  0  0  0  0  0
    0.7922    1.1932   -0.7761 O   0  0  0  0  0  0  0  0  0  0  0  0
    2.0778    0.1006    0.9513 C   0  0  0  0  0  0  0  0  0  0  0  0
    3.1410   -0.1448   -0.0401 N   0  0  0  0  0  0  0  0  0  0  0  0
    3.0832   -1.4838   -0.6374 C   0  0  0  0  0  0  0  0  0  0  0  0
    4.4635   -1.6537   -1.2567 C   0  0  0  0  0  0  0  0  0  0  0  0
    5.3667   -0.6901   -0.4959 C   0  0  0  0  0  0  0  0  0  0  0  0
    4.4742   -0.0686    0.5656 C   0  0  0  0  0  0  0  0  0  0  0  0
   -2.2158    1.3229   -0.1692 C   0  0  0  0  0  0  0  0  0  0  0  0
   -2.3919    3.4391    3.0555 H   0  0  0  0  0  0  0  0  0  0  0  0
   -2.5408    4.6535   -0.9692 H   0  0  0  0  0  0  0  0  0  0  0  0
   -3.2210    3.6948   -3.1448 H   0  0  0  0  0  0  0  0  0  0  0  0
   -3.3741    1.2372   -3.4103 H   0  0  0  0  0  0  0  0  0  0  0  0
   -3.3089   -3.3004   -1.4455 H   0  0  0  0  0  0  0  0  0  0  0  0
   -2.9757   -4.7808    0.5152 H   0  0  0  0  0  0  0  0  0  0  0  0
   -2.1324   -3.8319    2.6490 H   0  0  0  0  0  0  0  0  0  0  0  0
   -1.6178   -1.4367    2.8276 H   0  0  0  0  0  0  0  0  0  0  0  0
   -0.2127    0.1209    2.2511 H   0  0  0  0  0  0  0  0  0  0  0  0
   -0.2209    1.7041    1.5497 H   0  0  0  0  0  0  0  0  0  0  0  0
    0.4269   -0.7357   -0.1883 H   0  0  0  0  0  0  0  0  0  0  0  0
    1.6804    1.0500   -1.1650 H   0  0  0  0  0  0  0  0  0  0  0  0
    2.0609   -0.6765    1.7255 H   0  0  0  0  0  0  0  0  0  0  0  0
    2.2951    1.0567    1.4454 H   0  0  0  0  0  0  0  0  0  0  0  0
    2.9209   -2.2585    0.1228 H   0  0  0  0  0  0  0  0  0  0  0  0
    2.2989   -1.5691   -1.3957 H   0  0  0  0  0  0  0  0  0  0  0  0
    4.8133   -2.6876   -1.1712 H   0  0  0  0  0  0  0  0  0  0  0  0
    4.4509   -1.3900   -2.3206 H   0  0  0  0  0  0  0  0  0  0  0  0
    6.2269   -1.2016   -0.0525 H   0  0  0  0  0  0  0  0  0  0  0  0
    5.7480    0.0777   -1.1795 H   0  0  0  0  0  0  0  0  0  0  0  0
    4.5317   -0.6552    1.4916 H   0  0  0  0  0  0  0  0  0  0  0  0
    4.7689    0.9624    0.7852 H   0  0  0  0  0  0  0  0  0  0  0  0
  1  2  2  0
  2  3  1  0
  2  4  1  0
  4  5  2  0
  5  6  1  0
  6  7  2  0
  7  8  1  0
  8  9  1  0
  9 10  2  0
  9 11  1  0
 11 12  2  0
 12 13  1  0
 13 14  2  0
 14 15  1  0
 15 16  2  0
 16 17  1  0
 17 18  1  0
 18 19  1  0
 19 20  1  0
 19 21  1  0
 21 22  1  0
 22 23  1  0
 23 24  1  0
 24 25  1  0
 25 26  1  0
 17 27  1  0
 27  4  1  0
 27  8  2  0
 16 11  1  0
 26 22  1  0
  3 28  1  0
  5 29  1  0
  6 30  1  0
  7 31  1  0
 12 32  1  0
 13 33  1  0
 14 34  1  0
 15 35  1  0
 18 36  1  0
 18 37  1  0
 19 38  1  0
 20 39  1  0
 21 40  1  0
 21 41  1  0
 23 42  1  0
 23 43  1  0
 24 44  1  0
 24 45  1  0
 25 46  1  0
 25 47  1  0
 26 48  1  0
 26 49  1  0
M  END
$$$$
