
     RDKit          3D

 59 64  0  0  0  0  0  0  0  0999 V2000
    2.1687   -1.1079    1.6829 C   0  0  0  0  0  0  0  0  0  0  0  0
    2.0537    0.1231    0.9718 O   0  0  0  0  0  0  0  0  0  0  0  0
    2.9515    0.2803   -0.0621 C   0  0  0  0  0  0  0  0  0  0  0  0
    4.2978   -0.1007    0.0525 C   0  0  0  0  0  0  0  0  0  0  0  0
    5.1635    0.1513   -1.0330 C   0  0  0  0  0  0  0  0  0  0  0  0
    4.6436    0.7632   -2.1674 C   0  0  0  0  0  0  0  0  0  0  0  0
    3.3127    1.1599   -2.3103 C   0  0  0  0  0  0  0  0  0  0  0  0
    2.4603    0.9163   -1.2257 C   0  0  0  0  0  0  0  0  0  0  0  0
    1.0971    1.2959   -1.2111 N   0  0  0  0  0  0  0  0  0  0  0  0
    0.3531    1.8475   -2.2345 C   0  0  0  0  0  0  0  0  0  0  0  0
    0.7282    2.0096   -3.3928 O   0  0  0  0  0  0  0  0  0  0  0  0
   -1.0344    2.2926   -1.8024 C   0  0  0  0  0  0  0  0  0  0  0  0
   -2.2232    0.9281   -1.9223 S   0  0  0  0  0  0  0  0  0  0  0  0
   -2.1634    0.3356   -0.3005 C   0  0  0  0  0  0  0  0  0  0  0  0
   -1.0833    0.2698    0.4366 N   0  0  0  0  0  0  0  0  0  0  0  0
   -1.4474   -0.2104    1.6667 N   0  0  0  0  0  0  0  0  0  0  0  0
   -2.7521   -0.4179    1.6662 C   0  0  0  0  0  0  0  0  0  0  0  0
   -3.5379   -0.8930    2.8501 C   0  0  0  0  0  0  0  0  0  0  0  0
   -4.2287   -2.2182    2.6623 C   0  0  0  0  0  0  0  0  0  0  0  0
   -5.5743   -2.5026    2.8079 C   0  0  0  0  0  0  0  0  0  0  0  0
   -5.8730   -3.8726    2.5461 C   0  0  0  0  0  0  0  0  0  0  0  0
   -4.7452   -4.5969    2.2250 C   0  0  0  0  0  0  0  0  0  0  0  0
   -3.3344   -3.6319    2.2691 S   0  0  0  0  0  0  0  0  0  0  0  0
   -3.2519   -0.0733    0.4245 N   0  0  0  0  0  0  0  0  0  0  0  0
   -4.6345   -0.1249   -0.0200 C   0  0  0  0  0  0  0  0  0  0  0  0
   -5.3602    1.1210    0.3548 C   0  0  0  0  0  0  0  0  0  0  0  0
   -6.1961    1.4713    1.4016 C   0  0  0  0  0  0  0  0  0  0  0  0
   -6.5737    2.8279    1.1856 C   0  0  0  0  0  0  0  0  0  0  0  0
   -5.9595    3.2141    0.0182 C   0  0  0  0  0  0  0  0  0  0  0  0
   -5.2218    2.1848   -0.4949 O   0  0  0  0  0  0  0  0  0  0  0  0
    5.6182    0.9344   -3.1079 O   0  0  0  0  0  0  0  0  0  0  0  0
    6.7685    0.4255   -2.5890 C   0  0  0  0  0  0  0  0  0  0  0  0
    8.0005    0.3969   -3.2434 C   0  0  0  0  0  0  0  0  0  0  0  0
    9.0667   -0.1758   -2.5420 C   0  0  0  0  0  0  0  0  0  0  0  0
    8.8908   -0.6811   -1.2491 C   0  0  0  0  0  0  0  0  0  0  0  0
    7.6371   -0.6359   -0.6142 C   0  0  0  0  0  0  0  0  0  0  0  0
    6.5494   -0.0679   -1.3056 C   0  0  0  0  0  0  0  0  0  0  0  0
    2.2936   -1.9613    1.0049 H   0  0  0  0  0  0  0  0  0  0  0  0
    2.9906   -1.0607    2.4035 H   0  0  0  0  0  0  0  0  0  0  0  0
    1.2431   -1.2608    2.2472 H   0  0  0  0  0  0  0  0  0  0  0  0
    4.6886   -0.5503    0.9577 H   0  0  0  0  0  0  0  0  0  0  0  0
    2.9965    1.6471   -3.2237 H   0  0  0  0  0  0  0  0  0  0  0  0
    0.6014    1.0406   -0.3491 H   0  0  0  0  0  0  0  0  0  0  0  0
   -1.3562    3.0945   -2.4763 H   0  0  0  0  0  0  0  0  0  0  0  0
   -1.0026    2.7251   -0.7953 H   0  0  0  0  0  0  0  0  0  0  0  0
   -2.8643   -0.9751    3.7150 H   0  0  0  0  0  0  0  0  0  0  0  0
   -4.2737   -0.1243    3.1198 H   0  0  0  0  0  0  0  0  0  0  0  0
   -6.3167   -1.7635    3.0861 H   0  0  0  0  0  0  0  0  0  0  0  0
   -6.8642   -4.3077    2.5919 H   0  0  0  0  0  0  0  0  0  0  0  0
   -4.6783   -5.6496    1.9784 H   0  0  0  0  0  0  0  0  0  0  0  0
   -5.1179   -1.0058    0.4157 H   0  0  0  0  0  0  0  0  0  0  0  0
   -4.6504   -0.2812   -1.1075 H   0  0  0  0  0  0  0  0  0  0  0  0
   -6.4999    0.8357    2.2235 H   0  0  0  0  0  0  0  0  0  0  0  0
   -7.2211    3.4473    1.8020 H   0  0  0  0  0  0  0  0  0  0  0  0
   -5.9426    4.1384   -0.5510 H   0  0  0  0  0  0  0  0  0  0  0  0
    8.1126    0.7794   -4.2499 H   0  0  0  0  0  0  0  0  0  0  0  0
   10.0454   -0.2367   -3.0170 H   0  0  0  0  0  0  0  0  0  0  0  0
    9.7370   -1.1246   -0.7272 H   0  0  0  0  0  0  0  0  0  0  0  0
    7.5130   -1.0449    0.3863 H   0  0  0  0  0  0  0  0  0  0  0  0
  1  2  1  0
  2  3  1  0
  3  4  2  0
  4  5  1  0
  5  6  2  0
  6  7  1  0
  7  8  2  0
  8  9  1  0
  9 10  1  0
 10 11  2  0
 10 12  1  0
 12 13  1  0
 13 14  1  0
 14 15  2  0
 15 16  1  0
 16 17  2  0
 17 18  1  0
 18 19  1  0
 19 20  2  0
 20 21  1  0
 21 22  2  0
 22 23  1  0
 17 24  1  0
 24 25  1  0
 25 26  1  0
 26 27  2  0
 27 28  1  0
 28 29  2  0
 29 30  1  0
  6 31  1  0
 31 32  1  0
 32 33  2  0
 33 34  1  0
 34 35  2  0
 35 36  1  0
 36 37  2  0
  8  3  1  0
 24 14  1  0
 30 26  1  0
 37 32  1  0
 37  5  1  0
 23 19  1  0
  1 38  1  0
  1 39  1  0
  1 40  1  0
  4 41  1  0
  7 42  1  0
  9 43  1  0
 12 44  1  0
 12 45  1  0
 18 46  1  0
 18 47  1  0
 20 48  1  0
 21 49  1  0
 22 50  1  0
 25 51  1  0
 25 52  1  0
 27 53  1  0
 28 54  1  0
 29 55  1  0
 33 56  1  0
 34 57  1  0
 35 58  1  0
 36 59  1  0
M  END
$$$$
