
     RDKit          3D

 48 50  0  0  0  0  0  0  0  0999 V2000
    9.3089   -0.7553    1.3833 C   0  0  0  0  0  0  0  0  0  0  0  0
    8.2042    0.0476    0.8015 C   0  0  0  0  0  0  0  0  0  0  0  0
    8.2762    1.3499    0.3410 C   0  0  0  0  0  0  0  0  0  0  0  0
    6.7366    1.8563   -0.2239 S   0  0  0  0  0  0  0  0  0  0  0  0
    6.1137    0.3115    0.1553 C   0  0  0  0  0  0  0  0  0  0  0  0
    4.7866    0.1639   -0.1349 N   0  0  0  0  0  0  0  0  0  0  0  0
    4.0971   -1.0011    0.1237 C   0  0  0  0  0  0  0  0  0  0  0  0
    4.5333   -2.0336    0.6189 O   0  0  0  0  0  0  0  0  0  0  0  0
    2.6220   -0.8824   -0.1917 C   0  0  0  0  0  0  0  0  0  0  0  0
    1.9035   -0.3884    1.0583 C   0  0  0  0  0  0  0  0  0  0  0  0
    0.4395   -0.2590    0.8374 N   0  0  0  0  0  0  0  0  0  0  0  0
   -0.0603    1.1951    0.1182 S   0  0  0  0  0  6  0  0  0  0  0  0
    0.4382    1.2402   -1.2377 O   0  0  0  0  0  0  0  0  0  0  0  0
    0.2372    2.2413    1.0727 O   0  0  0  0  0  0  0  0  0  0  0  0
   -1.8184    0.9766    0.0603 C   0  0  0  0  0  0  0  0  0  0  0  0
   -2.6480    1.7611    0.8603 C   0  0  0  0  0  0  0  0  0  0  0  0
   -4.0359    1.5955    0.7912 C   0  0  0  0  0  0  0  0  0  0  0  0
   -4.6089    0.6391   -0.0633 C   0  0  0  0  0  0  0  0  0  0  0  0
   -3.7573   -0.1467   -0.8455 C   0  0  0  0  0  0  0  0  0  0  0  0
   -2.3643    0.0205   -0.7980 C   0  0  0  0  0  0  0  0  0  0  0  0
   -4.3350   -1.1492   -1.7522 C   0  0  0  0  0  0  0  0  0  0  0  0
   -3.5846   -1.7962   -2.4801 O   0  0  0  0  0  0  0  0  0  0  0  0
   -5.7137   -1.2933   -1.7297 N   0  0  0  0  0  0  0  0  0  0  0  0
   -6.2973   -2.2522   -2.6535 C   0  0  0  0  0  0  0  0  0  0  0  0
   -6.5877   -0.4921   -1.0094 C   0  0  0  0  0  0  0  0  0  0  0  0
   -7.8111   -0.6051   -1.1250 O   0  0  0  0  0  0  0  0  0  0  0  0
   -6.0142    0.4580   -0.1636 N   0  0  0  0  0  0  0  0  0  0  0  0
   -6.9074    1.3186    0.6028 C   0  0  0  0  0  0  0  0  0  0  0  0
    6.9550   -0.5400    0.6788 N   0  0  0  0  0  0  0  0  0  0  0  0
    9.4439   -1.6826    0.8167 H   0  0  0  0  0  0  0  0  0  0  0  0
   10.2552   -0.2046    1.3669 H   0  0  0  0  0  0  0  0  0  0  0  0
    9.0788   -1.0114    2.4214 H   0  0  0  0  0  0  0  0  0  0  0  0
    9.1311    2.0114    0.3245 H   0  0  0  0  0  0  0  0  0  0  0  0
    4.3216    0.9703   -0.5290 H   0  0  0  0  0  0  0  0  0  0  0  0
    2.2456   -1.8617   -0.5073 H   0  0  0  0  0  0  0  0  0  0  0  0
    2.4865   -0.2085   -1.0436 H   0  0  0  0  0  0  0  0  0  0  0  0
    2.3208    0.5636    1.4257 H   0  0  0  0  0  0  0  0  0  0  0  0
    2.0459   -1.1106    1.8802 H   0  0  0  0  0  0  0  0  0  0  0  0
   -0.0753   -0.4056    1.7087 H   0  0  0  0  0  0  0  0  0  0  0  0
   -2.2332    2.5150    1.5271 H   0  0  0  0  0  0  0  0  0  0  0  0
   -4.6478    2.2473    1.4104 H   0  0  0  0  0  0  0  0  0  0  0  0
   -1.7175   -0.5773   -1.4339 H   0  0  0  0  0  0  0  0  0  0  0  0
   -5.6224   -3.0971   -2.8274 H   0  0  0  0  0  0  0  0  0  0  0  0
   -7.2518   -2.6326   -2.2749 H   0  0  0  0  0  0  0  0  0  0  0  0
   -6.4724   -1.7308   -3.5977 H   0  0  0  0  0  0  0  0  0  0  0  0
   -6.6951    1.2070    1.6719 H   0  0  0  0  0  0  0  0  0  0  0  0
   -7.9602    1.0677    0.4490 H   0  0  0  0  0  0  0  0  0  0  0  0
   -6.7615    2.3597    0.2938 H   0  0  0  0  0  0  0  0  0  0  0  0
  1  2  1  0
  2  3  2  0
  3  4  1  0
  4  5  1  0
  5  6  1  0
  6  7  1  0
  7  8  2  0
  7  9  1  0
  9 10  1  0
 10 11  1  0
 11 12  1  0
 12 13  2  0
 12 14  2  0
 12 15  1  0
 15 16  2  0
 16 17  1  0
 17 18  2  0
 18 19  1  0
 19 20  2  0
 19 21  1  0
 21 22  2  0
 21 23  1  0
 23 24  1  0
 23 25  1  0
 25 26  2  0
 25 27  1  0
 27 28  1  0
  5 29  2  0
 29  2  1  0
 20 15  1  0
 27 18  1  0
  1 30  1  0
  1 31  1  0
  1 32  1  0
  3 33  1  0
  6 34  1  0
  9 35  1  0
  9 36  1  0
 10 37  1  0
 10 38  1  0
 11 39  1  0
 16 40  1  0
 17 41  1  0
 20 42  1  0
 24 43  1  0
 24 44  1  0
 24 45  1  0
 28 46  1  0
 28 47  1  0
 28 48  1  0
M  END
$$$$
