
     RDKit          3D

 96101  0  0  0  0  0  0  0  0999 V2000
   -4.4483    3.4822    1.9217 C   0  0  0  0  0  0  0  0  0  0  0  0
   -4.5399    2.5863    0.7197 C   0  0  0  0  0  0  0  0  0  0  0  0
   -4.4957    1.2397    0.7742 C   0  0  0  0  0  0  0  0  0  0  0  0
   -4.2100    0.3654    1.9703 C   0  0  0  0  0  0  0  0  0  0  0  0
   -3.0476   -0.6212    1.7231 C   0  0  2  0  0  0  0  0  0  0  0  0
   -1.7763    0.0754    1.2421 C   0  0  0  0  0  0  0  0  0  0  0  0
   -0.6827   -0.9546    0.9808 C   0  0  1  0  0  0  0  0  0  0  0  0
   -1.2064   -2.0143    0.0116 C   0  0  0  0  0  0  0  0  0  0  0  0
   -2.5167   -2.6304    0.5160 C   0  0  1  0  0  0  0  0  0  0  0  0
   -3.0859   -3.5557   -0.5700 C   0  0  0  0  0  0  0  0  0  0  0  0
   -4.3055   -4.3182   -0.0614 C   0  0  0  0  0  0  0  0  0  0  0  0
   -3.9752   -5.0501    1.2450 C   0  0  2  0  0  0  0  0  0  0  0  0
   -5.2275   -5.7377    1.7864 C   0  0  0  0  0  0  0  0  0  0  0  0
   -3.3598   -4.0641    2.2551 C   0  0  1  0  0  0  0  0  0  0  0  0
   -2.8564   -4.7593    3.5190 C   0  0  0  0  0  0  0  0  0  0  0  0
   -2.2243   -3.3961    1.6876 O   0  0  0  0  0  0  0  0  0  0  0  0
   -3.4766   -1.5991    0.7660 O   0  0  0  0  0  0  0  0  0  0  0  0
    0.4685   -0.3439    0.3578 O   0  0  0  0  0  0  0  0  0  0  0  0
    1.2500    0.4312    1.1621 C   0  0  0  0  0  0  0  0  0  0  0  0
    0.9937    0.7017    2.3296 O   0  0  0  0  0  0  0  0  0  0  0  0
    2.5230    0.8845    0.4567 C   0  0  0  0  0  0  0  0  0  0  0  0
    3.2467   -0.3256   -0.0856 C   0  0  0  0  0  0  0  0  0  0  0  0
    3.9215   -0.3502   -1.2453 C   0  0  0  0  0  0  0  0  0  0  0  0
    4.7115   -1.5667   -1.6587 C   0  0  0  0  0  0  0  0  0  0  0  0
    6.1067   -1.2452   -1.6695 O   0  0  0  0  0  0  0  0  0  0  0  0
    6.8306   -1.6863   -0.6091 C   0  0  0  0  0  0  0  0  0  0  0  0
    6.3924   -2.3040    0.3524 O   0  0  0  0  0  0  0  0  0  0  0  0
    8.2174   -1.3277   -0.7763 C   0  0  0  0  0  0  0  0  0  0  0  0
    8.8635   -0.6235   -1.7805 C   0  0  0  0  0  0  0  0  0  0  0  0
   10.2396   -0.5587   -1.4542 C   0  0  0  0  0  0  0  0  0  0  0  0
   10.4077   -1.2216   -0.2615 C   0  0  0  0  0  0  0  0  0  0  0  0
    9.1816   -1.6767    0.1440 N   0  0  0  0  0  0  0  0  0  0  0  0
    3.9791    0.8642   -2.1283 C   0  0  1  0  0  0  0  0  0  0  0  0
    4.0097    0.4323   -3.4969 O   0  0  0  0  0  0  0  0  0  0  0  0
    2.7887    1.8449   -1.9630 C   0  0  1  0  0  0  0  0  0  0  0  0
    3.1225    3.1349   -2.7563 C   0  0  0  0  0  0  0  0  0  0  0  0
    1.6197    1.2550   -2.6002 O   0  0  0  0  0  0  0  0  0  0  0  0
    0.4658    1.9105   -2.0488 C   0  0  0  0  0  0  0  0  0  0  0  0
    0.9020    2.5331   -0.7551 C   0  0  0  0  0  0  0  0  0  0  0  0
    0.2078    3.4152   -0.0106 C   0  0  0  0  0  0  0  0  0  0  0  0
   -1.0746    4.0299   -0.2923 C   0  0  0  0  0  0  0  0  0  0  0  0
   -2.1498    3.4686   -0.8699 C   0  0  0  0  0  0  0  0  0  0  0  0
   -3.4976    4.1330   -1.1227 C   0  0  2  0  0  0  0  0  0  0  0  0
   -3.6144    5.5838   -0.6359 C   0  0  0  0  0  0  0  0  0  0  0  0
   -4.6962    3.2745   -0.6267 C   0  0  0  0  0  0  0  0  0  0  0  0
    2.3402    2.1018   -0.4979 C   0  0  1  0  0  0  0  0  0  0  0  0
    3.0928    3.1957    0.0557 O   0  0  0  0  0  0  0  0  0  0  0  0
   -4.6563    2.9648    2.8610 H   0  0  0  0  0  0  0  0  0  0  0  0
   -5.1854    4.2871    1.8518 H   0  0  0  0  0  0  0  0  0  0  0  0
   -3.4529    3.9235    1.9980 H   0  0  0  0  0  0  0  0  0  0  0  0
   -4.6151    0.6770   -0.1528 H   0  0  0  0  0  0  0  0  0  0  0  0
   -3.9677    0.9617    2.8555 H   0  0  0  0  0  0  0  0  0  0  0  0
   -5.1213   -0.2031    2.1920 H   0  0  0  0  0  0  0  0  0  0  0  0
   -2.8528   -1.1329    2.6752 H   0  0  0  0  0  0  0  0  0  0  0  0
   -1.9526    0.6159    0.3056 H   0  0  0  0  0  0  0  0  0  0  0  0
   -1.4587    0.8239    1.9748 H   0  0  0  0  0  0  0  0  0  0  0  0
   -0.3702   -1.4383    1.9149 H   0  0  0  0  0  0  0  0  0  0  0  0
   -0.4367   -2.7845   -0.1267 H   0  0  0  0  0  0  0  0  0  0  0  0
   -1.3583   -1.5439   -0.9689 H   0  0  0  0  0  0  0  0  0  0  0  0
   -2.3242   -4.2868   -0.8723 H   0  0  0  0  0  0  0  0  0  0  0  0
   -3.3761   -2.9773   -1.4563 H   0  0  0  0  0  0  0  0  0  0  0  0
   -4.6300   -5.0351   -0.8237 H   0  0  0  0  0  0  0  0  0  0  0  0
   -5.1407   -3.6217    0.0947 H   0  0  0  0  0  0  0  0  0  0  0  0
   -3.2292   -5.8216    1.0086 H   0  0  0  0  0  0  0  0  0  0  0  0
   -5.6880   -6.3693    1.0189 H   0  0  0  0  0  0  0  0  0  0  0  0
   -4.9921   -6.3823    2.6391 H   0  0  0  0  0  0  0  0  0  0  0  0
   -5.9751   -5.0039    2.1108 H   0  0  0  0  0  0  0  0  0  0  0  0
   -4.1012   -3.3122    2.5564 H   0  0  0  0  0  0  0  0  0  0  0  0
   -2.1291   -5.5431    3.2732 H   0  0  0  0  0  0  0  0  0  0  0  0
   -3.6729   -5.2057    4.0946 H   0  0  0  0  0  0  0  0  0  0  0  0
   -2.3372   -4.0436    4.1677 H   0  0  0  0  0  0  0  0  0  0  0  0
    3.1677    1.2166    1.2857 H   0  0  0  0  0  0  0  0  0  0  0  0
    3.2671   -1.2036    0.5608 H   0  0  0  0  0  0  0  0  0  0  0  0
    4.4310   -1.8762   -2.6716 H   0  0  0  0  0  0  0  0  0  0  0  0
    4.4964   -2.4347   -1.0220 H   0  0  0  0  0  0  0  0  0  0  0  0
    8.3871   -0.2014   -2.6593 H   0  0  0  0  0  0  0  0  0  0  0  0
   11.0211   -0.0772   -2.0302 H   0  0  0  0  0  0  0  0  0  0  0  0
   11.2911   -1.4068    0.3354 H   0  0  0  0  0  0  0  0  0  0  0  0
    8.9934   -2.1992    0.9913 H   0  0  0  0  0  0  0  0  0  0  0  0
    4.9273    1.3789   -1.9245 H   0  0  0  0  0  0  0  0  0  0  0  0
    3.0744    0.2526   -3.7292 H   0  0  0  0  0  0  0  0  0  0  0  0
    2.3230    3.8797   -2.6959 H   0  0  0  0  0  0  0  0  0  0  0  0
    4.0424    3.6019   -2.3910 H   0  0  0  0  0  0  0  0  0  0  0  0
    3.2478    2.9166   -3.8230 H   0  0  0  0  0  0  0  0  0  0  0  0
    0.1193    2.6546   -2.7723 H   0  0  0  0  0  0  0  0  0  0  0  0
   -0.3041    1.1491   -1.9049 H   0  0  0  0  0  0  0  0  0  0  0  0
    0.6743    3.8001    0.8993 H   0  0  0  0  0  0  0  0  0  0  0  0
   -1.1336    5.0587    0.0624 H   0  0  0  0  0  0  0  0  0  0  0  0
   -2.1045    2.4323   -1.1989 H   0  0  0  0  0  0  0  0  0  0  0  0
   -3.6009    4.1812   -2.2183 H   0  0  0  0  0  0  0  0  0  0  0  0
   -2.8667    6.2186   -1.1240 H   0  0  0  0  0  0  0  0  0  0  0  0
   -3.4802    5.6755    0.4456 H   0  0  0  0  0  0  0  0  0  0  0  0
   -4.5972    5.9990   -0.8882 H   0  0  0  0  0  0  0  0  0  0  0  0
   -5.6102    3.8810   -0.6065 H   0  0  0  0  0  0  0  0  0  0  0  0
   -4.8855    2.5131   -1.3973 H   0  0  0  0  0  0  0  0  0  0  0  0
    2.7279    4.0282   -0.2899 H   0  0  0  0  0  0  0  0  0  0  0  0
  1  2  1  0
  2  3  2  0
  3  4  1  0
  4  5  1  0
  5  6  1  0
  6  7  1  0
  7  8  1  0
  8  9  1  0
  9 10  1  0
 10 11  1  0
 11 12  1  0
 12 13  1  0
 12 14  1  0
 14 15  1  0
 14 16  1  0
  9 17  1  1
  7 18  1  0
 18 19  1  0
 19 20  2  0
 19 21  1  0
 21 22  1  0
 22 23  2  0
 23 24  1  0
 24 25  1  0
 25 26  1  0
 26 27  2  0
 26 28  1  0
 28 29  2  0
 29 30  1  0
 30 31  2  0
 31 32  1  0
 23 33  1  0
 33 34  1  0
 33 35  1  0
 35 36  1  6
 35 37  1  0
 37 38  1  0
 38 39  1  0
 39 40  2  0
 40 41  1  0
 41 42  2  0
 42 43  1  0
 43 44  1  0
 43 45  1  0
 39 46  1  0
 46 47  1  1
 45  2  1  0
 17  5  1  0
 46 21  1  0
 16  9  1  0
 32 28  1  0
 46 35  1  0
  1 48  1  0
  1 49  1  0
  1 50  1  0
  3 51  1  0
  4 52  1  0
  4 53  1  0
  5 54  1  1
  6 55  1  0
  6 56  1  0
  7 57  1  1
  8 58  1  0
  8 59  1  0
 10 60  1  0
 10 61  1  0
 11 62  1  0
 11 63  1  0
 12 64  1  6
 13 65  1  0
 13 66  1  0
 13 67  1  0
 14 68  1  1
 15 69  1  0
 15 70  1  0
 15 71  1  0
 21 72  1  0
 22 73  1  0
 24 74  1  0
 24 75  1  0
 29 76  1  0
 30 77  1  0
 31 78  1  0
 32 79  1  0
 33 80  1  1
 34 81  1  0
 36 82  1  0
 36 83  1  0
 36 84  1  0
 38 85  1  0
 38 86  1  0
 40 87  1  0
 41 88  1  0
 42 89  1  0
 43 90  1  6
 44 91  1  0
 44 92  1  0
 44 93  1  0
 45 94  1  0
 45 95  1  0
 47 96  1  0
M  END
$$$$
