
     RDKit          3D

 56 61  0  0  0  0  0  0  0  0999 V2000
    5.9304   -0.7032    0.1898 C   0  0  0  0  0  0  0  0  0  0  0  0
    4.6224   -0.4800   -0.5084 C   0  0  0  0  0  0  0  0  0  0  0  0
    4.5656   -0.0966   -1.8625 C   0  0  0  0  0  0  0  0  0  0  0  0
    6.0090    0.1456   -2.7861 Cl  0  0  0  0  0  0  0  0  0  0  0  0
    3.3373    0.1018   -2.5242 C   0  0  0  0  0  0  0  0  0  0  0  0
    2.1268   -0.0787   -1.8551 C   0  0  0  0  0  0  0  0  0  0  0  0
    2.1704   -0.4534   -0.5226 C   0  0  0  0  0  0  0  0  0  0  0  0
    3.3988   -0.6554    0.1262 C   0  0  0  0  0  0  0  0  0  0  0  0
    3.1697   -1.0513    1.4433 N   0  0  0  0  0  0  0  0  0  0  0  0
    1.8068   -1.1577    1.7237 C   0  0  0  0  0  0  0  0  0  0  0  0
    1.3354   -1.5576    2.7771 O   0  0  0  0  0  0  0  0  0  0  0  0
    1.0526   -0.7215    0.4421 C   0  0  0  0  0  0  0  0  0  0  0  0
    0.0701   -1.7461   -0.0148 N   0  0  0  0  0  0  0  0  0  0  0  0
   -1.3212   -1.2638    0.2929 C   0  0  2  0  0  0  0  0  0  0  0  0
   -2.2798   -1.5818   -0.8638 C   0  0  0  0  0  0  0  0  0  0  0  0
   -2.6048   -3.0545   -0.9673 C   0  0  0  0  0  0  0  0  0  0  0  0
   -3.6407   -3.6111   -0.2045 C   0  0  0  0  0  0  0  0  0  0  0  0
   -3.9257   -4.9749   -0.2892 C   0  0  0  0  0  0  0  0  0  0  0  0
   -3.1777   -5.7942   -1.1327 C   0  0  0  0  0  0  0  0  0  0  0  0
   -2.1429   -5.2513   -1.8919 C   0  0  0  0  0  0  0  0  0  0  0  0
   -1.8564   -3.8883   -1.8091 C   0  0  0  0  0  0  0  0  0  0  0  0
   -1.1120    0.1874    0.5205 C   0  0  0  0  0  0  0  0  0  0  0  0
    0.2432    0.4966    0.6105 C   0  0  0  0  0  0  0  0  0  0  0  0
    0.3763    1.8448    0.8276 C   0  0  0  0  0  0  0  0  0  0  0  0
    1.4781    2.5877    0.9074 O   0  0  0  0  0  0  0  0  0  0  0  0
   -0.9241    2.3926    0.8993 N   0  0  0  0  0  0  0  0  0  0  0  0
   -1.2568    3.7765    1.1136 C   0  0  0  0  0  0  0  0  0  0  0  0
   -2.4862    4.2949    0.6731 C   0  0  0  0  0  0  0  0  0  0  0  0
   -2.8084    5.6404    0.8791 C   0  0  0  0  0  0  0  0  0  0  0  0
   -1.9062    6.4720    1.5262 C   0  0  0  0  0  0  0  0  0  0  0  0
   -2.2163    7.7600    1.7232 F   0  0  0  0  0  0  0  0  0  0  0  0
   -0.6863    5.9842    1.9714 C   0  0  0  0  0  0  0  0  0  0  0  0
   -0.3604    4.6396    1.7655 C   0  0  0  0  0  0  0  0  0  0  0  0
   -1.8396    1.3303    0.7258 C   0  0  0  0  0  0  0  0  0  0  0  0
   -3.1569    1.4908    0.8260 O   0  0  0  0  0  0  0  0  0  0  0  0
    6.5586    0.1911    0.1208 H   0  0  0  0  0  0  0  0  0  0  0  0
    5.8048   -0.9174    1.2547 H   0  0  0  0  0  0  0  0  0  0  0  0
    6.4568   -1.5534   -0.2559 H   0  0  0  0  0  0  0  0  0  0  0  0
    3.3252    0.3958   -3.5722 H   0  0  0  0  0  0  0  0  0  0  0  0
    1.1786    0.0679   -2.3649 H   0  0  0  0  0  0  0  0  0  0  0  0
    3.8730   -1.3040    2.1218 H   0  0  0  0  0  0  0  0  0  0  0  0
    0.2237   -2.6073    0.5100 H   0  0  0  0  0  0  0  0  0  0  0  0
   -1.6607   -1.7255    1.2292 H   0  0  0  0  0  0  0  0  0  0  0  0
   -1.8699   -1.2245   -1.8189 H   0  0  0  0  0  0  0  0  0  0  0  0
   -3.2215   -1.0317   -0.7386 H   0  0  0  0  0  0  0  0  0  0  0  0
   -4.2348   -2.9885    0.4600 H   0  0  0  0  0  0  0  0  0  0  0  0
   -4.7320   -5.3995    0.3033 H   0  0  0  0  0  0  0  0  0  0  0  0
   -3.4005   -6.8559   -1.1980 H   0  0  0  0  0  0  0  0  0  0  0  0
   -1.5572   -5.8897   -2.5480 H   0  0  0  0  0  0  0  0  0  0  0  0
   -1.0403   -3.4786   -2.4011 H   0  0  0  0  0  0  0  0  0  0  0  0
    2.2454    2.0239    0.7074 H   0  0  0  0  0  0  0  0  0  0  0  0
   -3.2032    3.6846    0.1324 H   0  0  0  0  0  0  0  0  0  0  0  0
   -3.7554    6.0406    0.5317 H   0  0  0  0  0  0  0  0  0  0  0  0
    0.0043    6.6473    2.4823 H   0  0  0  0  0  0  0  0  0  0  0  0
    0.5879    4.2878    2.1603 H   0  0  0  0  0  0  0  0  0  0  0  0
   -3.5735    0.6130    0.8063 H   0  0  0  0  0  0  0  0  0  0  0  0
  1  2  1  0
  2  3  2  0
  3  4  1  0
  3  5  1  0
  5  6  2  0
  6  7  1  0
  7  8  2  0
  8  9  1  0
  9 10  1  0
 10 11  2  0
 10 12  1  0
 12 13  1  0
 13 14  1  0
 14 15  1  0
 15 16  1  0
 16 17  2  0
 17 18  1  0
 18 19  2  0
 19 20  1  0
 20 21  2  0
 14 22  1  0
 22 23  1  0
 23 24  2  0
 24 25  1  0
 24 26  1  0
 26 27  1  0
 27 28  2  0
 28 29  1  0
 29 30  2  0
 30 31  1  0
 30 32  1  0
 32 33  2  0
 26 34  1  0
 34 35  1  0
  8  2  1  0
 23 12  1  0
 33 27  1  0
 12  7  1  0
 21 16  1  0
 34 22  2  0
  1 36  1  0
  1 37  1  0
  1 38  1  0
  5 39  1  0
  6 40  1  0
  9 41  1  0
 13 42  1  0
 14 43  1  1
 15 44  1  0
 15 45  1  0
 17 46  1  0
 18 47  1  0
 19 48  1  0
 20 49  1  0
 21 50  1  0
 25 51  1  0
 28 52  1  0
 29 53  1  0
 32 54  1  0
 33 55  1  0
 35 56  1  0
M  END
$$$$
