
     RDKit          3D

 48 51  0  0  0  0  0  0  0  0999 V2000
    7.6570    1.5686   -1.0547 C   0  0  0  0  0  0  0  0  0  0  0  0
    6.2785    1.0628   -0.9298 C   0  0  0  0  0  0  0  0  0  0  0  0
    5.7269   -0.1352   -0.5494 C   0  0  0  0  0  0  0  0  0  0  0  0
    4.3282    0.0661   -0.6526 C   0  0  0  0  0  0  0  0  0  0  0  0
    3.2625   -0.8934   -0.3555 C   0  0  0  0  0  0  0  0  0  0  0  0
    3.4885   -2.0394    0.0227 O   0  0  0  0  0  0  0  0  0  0  0  0
    1.9929   -0.3878   -0.5212 N   0  0  0  0  0  0  0  0  0  0  0  0
    0.8114   -1.1222   -0.1349 C   0  0  0  0  0  0  0  0  0  0  0  0
    0.6277   -1.0977    1.4015 C   0  0  0  0  0  0  0  0  0  0  0  0
   -0.8151   -1.4518    1.8683 C   0  0  0  0  0  0  0  0  0  0  0  0
   -1.1706   -2.9010    1.4790 C   0  0  0  0  0  0  0  0  0  0  0  0
   -0.8784   -1.3433    3.4037 C   0  0  0  0  0  0  0  0  0  0  0  0
   -1.8466   -0.4537    1.2539 C   0  0  0  0  0  0  0  0  0  0  0  0
   -1.5556   -0.1844   -0.1861 C   0  0  0  0  0  0  0  0  0  0  0  0
   -0.3631   -0.5045   -0.8125 C   0  0  0  0  0  0  0  0  0  0  0  0
   -0.5785   -0.2000   -2.1603 C   0  0  0  0  0  0  0  0  0  0  0  0
   -1.7879    0.3088   -2.3770 N   0  0  0  0  0  0  0  0  0  0  0  0
   -2.3786    0.3907   -1.1483 N   0  0  0  0  0  0  0  0  0  0  0  0
   -3.6573    1.0270   -1.0433 C   0  0  0  0  0  0  0  0  0  0  0  0
   -4.3327    1.3843   -2.2300 C   0  0  0  0  0  0  0  0  0  0  0  0
   -5.5709    2.0299   -2.1856 C   0  0  0  0  0  0  0  0  0  0  0  0
   -6.1404    2.3252   -0.9559 C   0  0  0  0  0  0  0  0  0  0  0  0
   -7.3226    2.9514   -0.9069 F   0  0  0  0  0  0  0  0  0  0  0  0
   -5.4929    1.9886    0.2264 C   0  0  0  0  0  0  0  0  0  0  0  0
   -4.2506    1.3438    0.1863 C   0  0  0  0  0  0  0  0  0  0  0  0
    4.0579    1.3165   -1.0706 N   0  0  0  0  0  0  0  0  0  0  0  0
    5.2844    1.9330   -1.2429 O   0  0  0  0  0  0  0  0  0  0  0  0
    8.3770    0.7447   -1.0574 H   0  0  0  0  0  0  0  0  0  0  0  0
    7.7831    2.1297   -1.9861 H   0  0  0  0  0  0  0  0  0  0  0  0
    7.8972    2.2303   -0.2178 H   0  0  0  0  0  0  0  0  0  0  0  0
    6.2422   -1.0314   -0.2371 H   0  0  0  0  0  0  0  0  0  0  0  0
    1.9253    0.6052   -0.7249 H   0  0  0  0  0  0  0  0  0  0  0  0
    0.9209   -2.1602   -0.4713 H   0  0  0  0  0  0  0  0  0  0  0  0
    0.8771   -0.0944    1.7777 H   0  0  0  0  0  0  0  0  0  0  0  0
    1.3550   -1.7774    1.8646 H   0  0  0  0  0  0  0  0  0  0  0  0
   -0.4337   -3.6056    1.8821 H   0  0  0  0  0  0  0  0  0  0  0  0
   -2.1516   -3.1841    1.8773 H   0  0  0  0  0  0  0  0  0  0  0  0
   -1.2074   -3.0447    0.3945 H   0  0  0  0  0  0  0  0  0  0  0  0
   -1.8869   -1.5595    3.7749 H   0  0  0  0  0  0  0  0  0  0  0  0
   -0.6088   -0.3359    3.7400 H   0  0  0  0  0  0  0  0  0  0  0  0
   -0.1881   -2.0486    3.8787 H   0  0  0  0  0  0  0  0  0  0  0  0
   -2.8558   -0.8639    1.3764 H   0  0  0  0  0  0  0  0  0  0  0  0
   -1.7900    0.4977    1.7979 H   0  0  0  0  0  0  0  0  0  0  0  0
    0.0920   -0.3357   -3.0000 H   0  0  0  0  0  0  0  0  0  0  0  0
   -3.9046    1.1619   -3.2067 H   0  0  0  0  0  0  0  0  0  0  0  0
   -6.0859    2.3061   -3.1013 H   0  0  0  0  0  0  0  0  0  0  0  0
   -5.9534    2.2417    1.1763 H   0  0  0  0  0  0  0  0  0  0  0  0
   -3.7777    1.1421    1.1377 H   0  0  0  0  0  0  0  0  0  0  0  0
  1  2  1  0
  2  3  2  0
  3  4  1  0
  4  5  1  0
  5  6  2  0
  5  7  1  0
  7  8  1  0
  8  9  1  0
  9 10  1  0
 10 11  1  0
 10 12  1  0
 10 13  1  0
 13 14  1  0
 14 15  2  0
 15 16  1  0
 16 17  2  0
 17 18  1  0
 18 19  1  0
 19 20  2  0
 20 21  1  0
 21 22  2  0
 22 23  1  0
 22 24  1  0
 24 25  2  0
  4 26  2  0
 26 27  1  0
 27  2  1  0
 15  8  1  0
 25 19  1  0
 18 14  1  0
  1 28  1  0
  1 29  1  0
  1 30  1  0
  3 31  1  0
  7 32  1  0
  8 33  1  0
  9 34  1  0
  9 35  1  0
 11 36  1  0
 11 37  1  0
 11 38  1  0
 12 39  1  0
 12 40  1  0
 12 41  1  0
 13 42  1  0
 13 43  1  0
 16 44  1  0
 20 45  1  0
 21 46  1  0
 24 47  1  0
 25 48  1  0
M  END
$$$$
