
     RDKit          3D

 37 39  0  0  0  0  0  0  0  0999 V2000
    5.3953    0.3972   -0.3906 N   0  0  0  0  0  0  0  0  0  0  0  0
    4.1178    0.3820    0.3102 C   0  0  0  0  0  0  0  0  0  0  0  0
    2.9790    0.1604   -0.6830 C   0  0  0  0  0  0  0  0  0  0  0  0
    1.6228    0.1478    0.0243 C   0  0  0  0  0  0  0  0  0  0  0  0
    0.4789   -0.0520   -0.9811 C   0  0  0  0  0  0  0  0  0  0  0  0
   -0.8393   -0.0870   -0.3062 N   0  0  0  0  0  0  0  0  0  0  0  0
   -1.3398   -1.3671    0.0760 C   0  0  0  0  0  0  0  0  0  0  0  0
   -0.5121   -2.5120    0.1435 C   0  0  0  0  0  0  0  0  0  0  0  0
   -0.9911   -3.7705    0.5290 C   0  0  0  0  0  0  0  0  0  0  0  0
   -2.3236   -3.9297    0.8669 C   0  0  0  0  0  0  0  0  0  0  0  0
   -3.1681   -2.8273    0.8195 C   0  0  0  0  0  0  0  0  0  0  0  0
   -2.6898   -1.5584    0.4343 C   0  0  0  0  0  0  0  0  0  0  0  0
   -3.9084   -0.2665    0.4024 S   0  0  0  0  0  0  0  0  0  0  0  0
   -2.9169    1.1844    0.1466 C   0  0  0  0  0  0  0  0  0  0  0  0
   -3.6036    2.4096    0.2713 C   0  0  0  0  0  0  0  0  0  0  0  0
   -2.9506    3.6207    0.0755 C   0  0  0  0  0  0  0  0  0  0  0  0
   -1.6049    3.6079   -0.2462 C   0  0  0  0  0  0  0  0  0  0  0  0
   -0.7714    5.0954   -0.4850 Cl  0  0  0  0  0  0  0  0  0  0  0  0
   -0.9154    2.3975   -0.3747 C   0  0  0  0  0  0  0  0  0  0  0  0
   -1.5467    1.1460   -0.1888 C   0  0  0  0  0  0  0  0  0  0  0  0
    5.5644   -0.5097   -0.8241 H   0  0  0  0  0  0  0  0  0  0  0  0
    6.1488    0.5342    0.2826 H   0  0  0  0  0  0  0  0  0  0  0  0
    3.9837    1.3371    0.8292 H   0  0  0  0  0  0  0  0  0  0  0  0
    4.1254   -0.4110    1.0659 H   0  0  0  0  0  0  0  0  0  0  0  0
    2.9884    0.9546   -1.4403 H   0  0  0  0  0  0  0  0  0  0  0  0
    3.1238   -0.7912   -1.2101 H   0  0  0  0  0  0  0  0  0  0  0  0
    1.4901    1.0858    0.5749 H   0  0  0  0  0  0  0  0  0  0  0  0
    1.6144   -0.6455    0.7801 H   0  0  0  0  0  0  0  0  0  0  0  0
    0.5079    0.7293   -1.7516 H   0  0  0  0  0  0  0  0  0  0  0  0
    0.6445   -0.9622   -1.5720 H   0  0  0  0  0  0  0  0  0  0  0  0
    0.5467   -2.4635   -0.0873 H   0  0  0  0  0  0  0  0  0  0  0  0
   -0.3141   -4.6202    0.5665 H   0  0  0  0  0  0  0  0  0  0  0  0
   -2.7057   -4.9012    1.1669 H   0  0  0  0  0  0  0  0  0  0  0  0
   -4.2151   -2.9606    1.0858 H   0  0  0  0  0  0  0  0  0  0  0  0
   -4.6627    2.4219    0.5232 H   0  0  0  0  0  0  0  0  0  0  0  0
   -3.4934    4.5558    0.1765 H   0  0  0  0  0  0  0  0  0  0  0  0
    0.1407    2.4681   -0.6102 H   0  0  0  0  0  0  0  0  0  0  0  0
  1  2  1  0
  2  3  1  0
  3  4  1  0
  4  5  1  0
  5  6  1  0
  6  7  1  0
  7  8  2  0
  8  9  1  0
  9 10  2  0
 10 11  1  0
 11 12  2  0
 12 13  1  0
 13 14  1  0
 14 15  2  0
 15 16  1  0
 16 17  2  0
 17 18  1  0
 17 19  1  0
 19 20  2  0
 20  6  1  0
 12  7  1  0
 20 14  1  0
  1 21  1  0
  1 22  1  0
  2 23  1  0
  2 24  1  0
  3 25  1  0
  3 26  1  0
  4 27  1  0
  4 28  1  0
  5 29  1  0
  5 30  1  0
  8 31  1  0
  9 32  1  0
 10 33  1  0
 11 34  1  0
 15 35  1  0
 16 36  1  0
 19 37  1  0
M  END
$$$$
