
     RDKit          3D

 57 62  0  0  0  0  0  0  0  0999 V2000
    7.6330    0.5296   -1.2342 C   0  0  0  0  0  0  0  0  0  0  0  0
    6.6096   -0.1377   -0.3810 C   0  0  0  0  0  0  0  0  0  0  0  0
    6.6024   -1.4303    0.0990 C   0  0  0  0  0  0  0  0  0  0  0  0
    5.4536   -1.6999    0.8975 C   0  0  0  0  0  0  0  0  0  0  0  0
    4.5939   -0.6204    0.9688 C   0  0  0  0  0  0  0  0  0  0  0  0
    3.3597   -0.5382    1.7365 C   0  0  0  0  0  0  0  0  0  0  0  0
    3.3034   -0.9671    2.8907 O   0  0  0  0  0  0  0  0  0  0  0  0
    2.2122    0.0023    1.1330 N   0  0  0  0  0  0  0  0  0  0  0  0
    2.0241    0.0957   -0.3133 C   0  0  0  0  0  0  0  0  0  0  0  0
    0.5734   -0.1791   -0.7029 C   0  0  0  0  0  0  0  0  0  0  0  0
   -0.3814    0.8708   -0.0780 C   0  0  0  0  0  0  0  0  0  0  0  0
    0.0656    1.2150    1.3758 C   0  0  0  0  0  0  0  0  0  0  0  0
    1.0407    0.2062    1.9737 C   0  0  0  0  0  0  0  0  0  0  0  0
   -0.1878    2.1264   -0.7943 O   0  0  0  0  0  0  0  0  0  0  0  0
   -0.8449    2.2998   -1.9768 C   0  0  0  0  0  0  0  0  0  0  0  0
   -0.4499    3.3958   -2.7434 C   0  0  0  0  0  0  0  0  0  0  0  0
   -1.0471    3.6350   -3.9838 C   0  0  0  0  0  0  0  0  0  0  0  0
   -2.0410    2.7763   -4.4542 C   0  0  0  0  0  0  0  0  0  0  0  0
   -2.7660    3.0699   -5.9857 Cl  0  0  0  0  0  0  0  0  0  0  0  0
   -2.4505    1.6860   -3.6918 C   0  0  0  0  0  0  0  0  0  0  0  0
   -1.8533    1.4643   -2.4474 C   0  0  0  0  0  0  0  0  0  0  0  0
   -2.2739    0.3367   -1.6059 C   0  0  0  0  0  0  0  0  0  0  0  0
   -2.8927   -0.6016   -2.0997 O   0  0  0  0  0  0  0  0  0  0  0  0
   -1.8702    0.4244   -0.1393 C   0  0  0  0  0  0  0  0  0  0  0  0
   -2.2022   -0.8580    0.6076 C   0  0  0  0  0  0  0  0  0  0  0  0
   -3.5559   -0.4824    1.1094 C   0  0  0  0  0  0  0  0  0  0  0  0
   -4.4936   -1.4785    1.6610 C   0  0  0  0  0  0  0  0  0  0  0  0
   -4.1615   -2.8261    1.8063 C   0  0  0  0  0  0  0  0  0  0  0  0
   -5.1006   -3.7077    2.3410 C   0  0  0  0  0  0  0  0  0  0  0  0
   -6.3388   -3.2097    2.7141 C   0  0  0  0  0  0  0  0  0  0  0  0
   -6.6906   -1.9128    2.5903 N   0  0  0  0  0  0  0  0  0  0  0  0
   -5.7613   -1.0751    2.0654 C   0  0  0  0  0  0  0  0  0  0  0  0
   -3.8198    0.7840    1.0557 N   0  0  0  0  0  0  0  0  0  0  0  0
   -2.7078    1.4248    0.4668 O   0  0  0  0  0  0  0  0  0  0  0  0
    5.2385    0.7379    0.1488 S   0  0  0  0  0  0  0  0  0  0  0  0
    8.0849    1.3766   -0.7076 H   0  0  0  0  0  0  0  0  0  0  0  0
    7.1856    0.8940   -2.1648 H   0  0  0  0  0  0  0  0  0  0  0  0
    8.4354   -0.1669   -1.4992 H   0  0  0  0  0  0  0  0  0  0  0  0
    7.3913   -2.1470   -0.0971 H   0  0  0  0  0  0  0  0  0  0  0  0
    5.2587   -2.6424    1.3963 H   0  0  0  0  0  0  0  0  0  0  0  0
    2.6711   -0.6253   -0.8227 H   0  0  0  0  0  0  0  0  0  0  0  0
    2.3176    1.1041   -0.6245 H   0  0  0  0  0  0  0  0  0  0  0  0
    0.3057   -1.1900   -0.3727 H   0  0  0  0  0  0  0  0  0  0  0  0
    0.5088   -0.1701   -1.7968 H   0  0  0  0  0  0  0  0  0  0  0  0
    0.5525    2.2003    1.3901 H   0  0  0  0  0  0  0  0  0  0  0  0
   -0.7943    1.3082    2.0484 H   0  0  0  0  0  0  0  0  0  0  0  0
    1.3605    0.5504    2.9644 H   0  0  0  0  0  0  0  0  0  0  0  0
    0.5643   -0.7701    2.1144 H   0  0  0  0  0  0  0  0  0  0  0  0
    0.3278    4.0633   -2.3792 H   0  0  0  0  0  0  0  0  0  0  0  0
   -0.7321    4.4901   -4.5772 H   0  0  0  0  0  0  0  0  0  0  0  0
   -3.2322    1.0217   -4.0529 H   0  0  0  0  0  0  0  0  0  0  0  0
   -1.5667   -1.0292    1.4791 H   0  0  0  0  0  0  0  0  0  0  0  0
   -2.2105   -1.7526   -0.0187 H   0  0  0  0  0  0  0  0  0  0  0  0
   -3.1900   -3.2119    1.5159 H   0  0  0  0  0  0  0  0  0  0  0  0
   -4.8726   -4.7611    2.4642 H   0  0  0  0  0  0  0  0  0  0  0  0
   -7.1020   -3.8588    3.1347 H   0  0  0  0  0  0  0  0  0  0  0  0
   -6.0831   -0.0397    1.9799 H   0  0  0  0  0  0  0  0  0  0  0  0
  1  2  1  0
  2  3  2  0
  3  4  1  0
  4  5  2  0
  5  6  1  0
  6  7  2  0
  6  8  1  0
  8  9  1  0
  9 10  1  0
 10 11  1  0
 11 12  1  0
 12 13  1  0
 11 14  1  0
 14 15  1  0
 15 16  2  0
 16 17  1  0
 17 18  2  0
 18 19  1  0
 18 20  1  0
 20 21  2  0
 21 22  1  0
 22 23  2  0
 22 24  1  0
 24 25  1  0
 25 26  1  0
 26 27  1  0
 27 28  2  0
 28 29  1  0
 29 30  2  0
 30 31  1  0
 31 32  2  0
 26 33  2  0
 33 34  1  0
  5 35  1  0
 35  2  1  0
 13  8  1  0
 21 15  1  0
 34 24  1  0
 24 11  1  0
 32 27  1  0
  1 36  1  0
  1 37  1  0
  1 38  1  0
  3 39  1  0
  4 40  1  0
  9 41  1  0
  9 42  1  0
 10 43  1  0
 10 44  1  0
 12 45  1  0
 12 46  1  0
 13 47  1  0
 13 48  1  0
 16 49  1  0
 17 50  1  0
 20 51  1  0
 25 52  1  0
 25 53  1  0
 28 54  1  0
 29 55  1  0
 30 56  1  0
 32 57  1  0
M  END
$$$$
