
     RDKit          3D

 51 54  0  0  0  0  0  0  0  0999 V2000
   -2.1972   -4.8273    0.1982 C   0  0  0  0  0  0  0  0  0  0  0  0
   -1.3066   -4.2504    1.1450 O   0  0  0  0  0  0  0  0  0  0  0  0
   -0.9707   -2.9305    0.9858 C   0  0  0  0  0  0  0  0  0  0  0  0
   -1.3740   -2.1356   -0.0855 C   0  0  0  0  0  0  0  0  0  0  0  0
   -0.9729   -0.7927   -0.1625 C   0  0  0  0  0  0  0  0  0  0  0  0
   -1.4155    0.0223   -1.3034 C   0  0  0  0  0  0  0  0  0  0  0  0
   -2.1096   -0.4957   -2.1764 O   0  0  0  0  0  0  0  0  0  0  0  0
   -1.0104    1.3470   -1.3212 N   0  0  0  0  0  0  0  0  0  0  0  0
   -1.4924    2.1760   -2.4179 C   0  0  0  0  0  0  0  0  0  0  0  0
   -2.8215    2.7461   -2.0589 C   0  0  0  0  0  0  0  0  0  0  0  0
   -4.1109    2.2567   -2.1214 C   0  0  0  0  0  0  0  0  0  0  0  0
   -4.9523    3.2823   -1.6275 C   0  0  0  0  0  0  0  0  0  0  0  0
   -4.1260    4.3300   -1.2977 C   0  0  0  0  0  0  0  0  0  0  0  0
   -2.8315    4.0146   -1.5575 O   0  0  0  0  0  0  0  0  0  0  0  0
   -0.1745    1.9344   -0.3858 C   0  0  0  0  0  0  0  0  0  0  0  0
    0.2268    3.0938   -0.5043 O   0  0  0  0  0  0  0  0  0  0  0  0
    0.2289    1.1428    0.6867 N   0  0  0  0  0  0  0  0  0  0  0  0
    1.1099    1.7525    1.6920 C   0  0  0  0  0  0  0  0  0  0  0  0
    2.5549    1.2553    1.6892 C   0  0  0  0  0  0  0  0  0  0  0  0
    3.2487    1.2751    2.7058 O   0  0  0  0  0  0  0  0  0  0  0  0
    3.1693    0.7681    0.4353 C   0  0  0  0  0  0  0  0  0  0  0  0
    3.1571    1.5468   -0.7245 C   0  0  0  0  0  0  0  0  0  0  0  0
    3.7417    1.0561   -1.8924 C   0  0  0  0  0  0  0  0  0  0  0  0
    4.3490   -0.2014   -1.8946 C   0  0  0  0  0  0  0  0  0  0  0  0
    4.3757   -0.9617   -0.7260 C   0  0  0  0  0  0  0  0  0  0  0  0
    5.2112   -2.6585   -0.7302 Br  0  0  0  0  0  0  0  0  0  0  0  0
    3.7954   -0.4825    0.4460 C   0  0  0  0  0  0  0  0  0  0  0  0
   -0.1708   -0.2188    0.8182 C   0  0  0  0  0  0  0  0  0  0  0  0
    0.2259   -1.0244    1.8999 C   0  0  0  0  0  0  0  0  0  0  0  0
   -0.1567   -2.3712    1.9857 C   0  0  0  0  0  0  0  0  0  0  0  0
    0.2038   -3.2145    3.0072 O   0  0  0  0  0  0  0  0  0  0  0  0
    1.1259   -2.7375    3.9778 C   0  0  0  0  0  0  0  0  0  0  0  0
   -3.1555   -4.2968    0.1819 H   0  0  0  0  0  0  0  0  0  0  0  0
   -1.7439   -4.8603   -0.7990 H   0  0  0  0  0  0  0  0  0  0  0  0
   -2.3948   -5.8583    0.5084 H   0  0  0  0  0  0  0  0  0  0  0  0
   -1.9989   -2.5351   -0.8780 H   0  0  0  0  0  0  0  0  0  0  0  0
   -1.5838    1.5744   -3.3298 H   0  0  0  0  0  0  0  0  0  0  0  0
   -0.7823    2.9801   -2.6398 H   0  0  0  0  0  0  0  0  0  0  0  0
   -4.3999    1.2759   -2.4758 H   0  0  0  0  0  0  0  0  0  0  0  0
   -6.0281    3.2609   -1.5235 H   0  0  0  0  0  0  0  0  0  0  0  0
   -4.2926    5.3171   -0.8884 H   0  0  0  0  0  0  0  0  0  0  0  0
    1.1517    2.8405    1.5722 H   0  0  0  0  0  0  0  0  0  0  0  0
    0.6730    1.5760    2.6816 H   0  0  0  0  0  0  0  0  0  0  0  0
    2.7171    2.5417   -0.7294 H   0  0  0  0  0  0  0  0  0  0  0  0
    3.7359    1.6583   -2.7986 H   0  0  0  0  0  0  0  0  0  0  0  0
    4.8067   -0.5743   -2.8085 H   0  0  0  0  0  0  0  0  0  0  0  0
    3.8259   -1.0705    1.3599 H   0  0  0  0  0  0  0  0  0  0  0  0
    0.8350   -0.6106    2.6931 H   0  0  0  0  0  0  0  0  0  0  0  0
    0.6877   -1.9274    4.5683 H   0  0  0  0  0  0  0  0  0  0  0  0
    1.3497   -3.5623    4.6606 H   0  0  0  0  0  0  0  0  0  0  0  0
    2.0667   -2.4266    3.5128 H   0  0  0  0  0  0  0  0  0  0  0  0
  1  2  1  0
  2  3  1  0
  3  4  2  0
  4  5  1  0
  5  6  1  0
  6  7  2  0
  6  8  1  0
  8  9  1  0
  9 10  1  0
 10 11  2  0
 11 12  1  0
 12 13  2  0
 13 14  1  0
  8 15  1  0
 15 16  2  0
 15 17  1  0
 17 18  1  0
 18 19  1  0
 19 20  2  0
 19 21  1  0
 21 22  2  0
 22 23  1  0
 23 24  2  0
 24 25  1  0
 25 26  1  0
 25 27  2  0
 17 28  1  0
 28 29  1  0
 29 30  2  0
 30 31  1  0
 31 32  1  0
 30  3  1  0
 28  5  2  0
 14 10  1  0
 27 21  1  0
  1 33  1  0
  1 34  1  0
  1 35  1  0
  4 36  1  0
  9 37  1  0
  9 38  1  0
 11 39  1  0
 12 40  1  0
 13 41  1  0
 18 42  1  0
 18 43  1  0
 22 44  1  0
 23 45  1  0
 24 46  1  0
 27 47  1  0
 29 48  1  0
 32 49  1  0
 32 50  1  0
 32 51  1  0
M  END
$$$$
