
     RDKit          3D

 43 45  0  0  0  0  0  0  0  0999 V2000
   -1.2503   -2.9852    2.1228 C   0  0  0  0  0  0  0  0  0  0  0  0
   -1.2534   -1.8367    1.1605 C   0  0  0  0  0  0  0  0  0  0  0  0
   -0.0779   -1.4219    0.5748 C   0  0  0  0  0  0  0  0  0  0  0  0
   -0.1513   -0.3485   -0.2892 C   0  0  0  0  0  0  0  0  0  0  0  0
    0.9846    0.1433   -0.9531 N   0  0  0  0  0  0  0  0  0  0  0  0
    2.2072   -0.0519   -0.4006 N   0  0  0  0  0  0  0  0  0  0  0  0
    3.1725    0.5779   -0.9829 C   0  0  0  0  0  0  0  0  0  0  0  0
    4.5693    0.4832   -0.5144 C   0  0  0  0  0  0  0  0  0  0  0  0
    5.5153    1.2641   -1.1940 C   0  0  0  0  0  0  0  0  0  0  0  0
    6.8613    1.2406   -0.8107 C   0  0  0  0  0  0  0  0  0  0  0  0
    7.2787    0.4405    0.2540 C   0  0  0  0  0  0  0  0  0  0  0  0
    6.3526   -0.3441    0.9385 C   0  0  0  0  0  0  0  0  0  0  0  0
    5.0063   -0.3157    0.5457 C   0  0  0  0  0  0  0  0  0  0  0  0
    4.0980   -1.1630    1.2836 N   0  0  0  0  0  4  0  0  0  0  0  0
    3.6408   -0.7063    2.3403 O   0  0  0  0  0  0  0  0  0  0  0  0
    3.9283   -2.3121    0.8524 O   0  0  0  0  0  1  0  0  0  0  0  0
   -1.3120    0.2643   -0.5669 N   0  0  0  0  0  0  0  0  0  0  0  0
   -2.4254   -0.1983    0.0434 C   0  0  0  0  0  0  0  0  0  0  0  0
   -3.6773    0.4644   -0.2499 N   0  0  0  0  0  0  0  0  0  0  0  0
   -3.7203    1.5334   -1.1078 N   0  0  0  0  0  0  0  0  0  0  0  0
   -5.0021    1.8989   -1.1551 C   0  0  0  0  0  0  0  0  0  0  0  0
   -5.4166    3.0460   -1.9975 C   0  0  0  0  0  0  0  0  0  0  0  0
   -5.8087    1.0873   -0.3388 C   0  0  0  0  0  0  0  0  0  0  0  0
   -4.9521    0.1711    0.2358 C   0  0  0  0  0  0  0  0  0  0  0  0
   -5.2617   -0.9296    1.1832 C   0  0  0  0  0  0  0  0  0  0  0  0
   -2.4334   -1.2386    0.9064 N   0  0  0  0  0  0  0  0  0  0  0  0
   -0.6305   -2.7471    2.9927 H   0  0  0  0  0  0  0  0  0  0  0  0
   -0.8603   -3.8853    1.6377 H   0  0  0  0  0  0  0  0  0  0  0  0
   -2.2645   -3.2007    2.4749 H   0  0  0  0  0  0  0  0  0  0  0  0
    0.8654   -1.9116    0.7825 H   0  0  0  0  0  0  0  0  0  0  0  0
    0.7376    1.0056   -1.4373 H   0  0  0  0  0  0  0  0  0  0  0  0
    2.9846    1.2191   -1.8641 H   0  0  0  0  0  0  0  0  0  0  0  0
    5.2207    1.9011   -2.0260 H   0  0  0  0  0  0  0  0  0  0  0  0
    7.5878    1.8500   -1.3459 H   0  0  0  0  0  0  0  0  0  0  0  0
    8.3267    0.4281    0.5471 H   0  0  0  0  0  0  0  0  0  0  0  0
    6.6786   -0.9704    1.7667 H   0  0  0  0  0  0  0  0  0  0  0  0
   -6.5069    3.1032   -2.0773 H   0  0  0  0  0  0  0  0  0  0  0  0
   -5.0089    2.9528   -3.0097 H   0  0  0  0  0  0  0  0  0  0  0  0
   -5.0567    3.9850   -1.5653 H   0  0  0  0  0  0  0  0  0  0  0  0
   -6.8770    1.1561   -0.1860 H   0  0  0  0  0  0  0  0  0  0  0  0
   -4.9936   -1.9021    0.7587 H   0  0  0  0  0  0  0  0  0  0  0  0
   -4.7405   -0.7895    2.1351 H   0  0  0  0  0  0  0  0  0  0  0  0
   -6.3348   -0.9575    1.4027 H   0  0  0  0  0  0  0  0  0  0  0  0
  1  2  1  0
  2  3  2  0
  3  4  1  0
  4  5  1  0
  5  6  1  0
  6  7  2  3
  7  8  1  0
  8  9  2  0
  9 10  1  0
 10 11  2  0
 11 12  1  0
 12 13  2  0
 13 14  1  0
 14 15  2  0
 14 16  1  0
  4 17  2  0
 17 18  1  0
 18 19  1  0
 19 20  1  0
 20 21  2  0
 21 22  1  0
 21 23  1  0
 23 24  2  0
 24 25  1  0
 18 26  2  0
 26  2  1  0
 13  8  1  0
 24 19  1  0
  1 27  1  0
  1 28  1  0
  1 29  1  0
  3 30  1  0
  5 31  1  0
  7 32  1  0
  9 33  1  0
 10 34  1  0
 11 35  1  0
 12 36  1  0
 22 37  1  0
 22 38  1  0
 22 39  1  0
 23 40  1  0
 25 41  1  0
 25 42  1  0
 25 43  1  0
M  CHG  2  14   1  16  -1
M  END
$$$$
