
     RDKit          3D

 35 36  0  0  0  0  0  0  0  0999 V2000
    3.9756   -2.4541    0.0779 C   0  0  0  0  0  0  0  0  0  0  0  0
    3.5929   -1.0467    0.4247 C   0  0  0  0  0  0  0  0  0  0  0  0
    4.4111   -0.2846    1.2491 C   0  0  0  0  0  0  0  0  0  0  0  0
    4.0234    1.0151    1.5484 C   0  0  0  0  0  0  0  0  0  0  0  0
    2.8354    1.5148    1.0203 C   0  0  0  0  0  0  0  0  0  0  0  0
    2.0708    0.6930    0.2069 C   0  0  0  0  0  0  0  0  0  0  0  0
    0.8678    1.0751   -0.3805 N   0  0  0  0  0  0  0  0  0  0  0  0
    0.1850    2.2613   -0.2589 C   0  0  0  0  0  0  0  0  0  0  0  0
    0.5300    3.2376    0.4019 O   0  0  0  0  0  0  0  0  0  0  0  0
   -1.0978    2.2978   -1.0976 C   0  0  0  0  0  0  0  0  0  0  0  0
   -1.6474    1.0261   -1.4130 O   0  0  0  0  0  0  0  0  0  0  0  0
   -2.4038    0.3868   -0.4647 C   0  0  0  0  0  0  0  0  0  0  0  0
   -2.5964    0.8333    0.8465 C   0  0  0  0  0  0  0  0  0  0  0  0
   -3.3782    0.0930    1.7372 C   0  0  0  0  0  0  0  0  0  0  0  0
   -3.9703   -1.0972    1.3273 C   0  0  0  0  0  0  0  0  0  0  0  0
   -3.7805   -1.5530    0.0245 C   0  0  0  0  0  0  0  0  0  0  0  0
   -2.9975   -0.8199   -0.8800 C   0  0  0  0  0  0  0  0  0  0  0  0
   -2.8018   -1.3339   -2.2800 C   0  0  0  0  0  0  0  0  0  0  0  0
    2.4361   -0.5718   -0.0962 N   0  0  0  0  0  0  0  0  0  0  0  0
    3.2267   -2.9115   -0.5767 H   0  0  0  0  0  0  0  0  0  0  0  0
    4.9376   -2.4668   -0.4438 H   0  0  0  0  0  0  0  0  0  0  0  0
    4.0501   -3.0604    0.9860 H   0  0  0  0  0  0  0  0  0  0  0  0
    5.3329   -0.6908    1.6523 H   0  0  0  0  0  0  0  0  0  0  0  0
    4.6393    1.6396    2.1892 H   0  0  0  0  0  0  0  0  0  0  0  0
    2.5410    2.5295    1.2578 H   0  0  0  0  0  0  0  0  0  0  0  0
    0.4380    0.3320   -0.9203 H   0  0  0  0  0  0  0  0  0  0  0  0
   -0.8269    2.7687   -2.0499 H   0  0  0  0  0  0  0  0  0  0  0  0
   -1.8410    2.9527   -0.6282 H   0  0  0  0  0  0  0  0  0  0  0  0
   -2.1502    1.7491    1.2203 H   0  0  0  0  0  0  0  0  0  0  0  0
   -3.5209    0.4471    2.7553 H   0  0  0  0  0  0  0  0  0  0  0  0
   -4.5768   -1.6721    2.0222 H   0  0  0  0  0  0  0  0  0  0  0  0
   -4.2463   -2.4870   -0.2820 H   0  0  0  0  0  0  0  0  0  0  0  0
   -3.1856   -0.6104   -3.0065 H   0  0  0  0  0  0  0  0  0  0  0  0
   -3.3332   -2.2780   -2.4401 H   0  0  0  0  0  0  0  0  0  0  0  0
   -1.7392   -1.5146   -2.4719 H   0  0  0  0  0  0  0  0  0  0  0  0
  1  2  1  0
  2  3  2  0
  3  4  1  0
  4  5  2  0
  5  6  1  0
  6  7  1  0
  7  8  1  0
  8  9  2  0
  8 10  1  0
 10 11  1  0
 11 12  1  0
 12 13  2  0
 13 14  1  0
 14 15  2  0
 15 16  1  0
 16 17  2  0
 17 18  1  0
  6 19  2  0
 19  2  1  0
 17 12  1  0
  1 20  1  0
  1 21  1  0
  1 22  1  0
  3 23  1  0
  4 24  1  0
  5 25  1  0
  7 26  1  0
 10 27  1  0
 10 28  1  0
 13 29  1  0
 14 30  1  0
 15 31  1  0
 16 32  1  0
 18 33  1  0
 18 34  1  0
 18 35  1  0
M  END
$$$$
