
     RDKit          3D

102104  0  0  0  0  0  0  0  0999 V2000
    7.3165    2.7477    2.1508 C   0  0  0  0  0  0  0  0  0  0  0  0
    7.6538    1.7095    1.0918 C   0  0  0  0  0  0  0  0  0  0  0  0
    6.7778    1.8033   -0.1595 C   0  0  0  0  0  0  0  0  0  0  0  0
    5.3047    1.4764    0.1028 C   0  0  0  0  0  0  0  0  0  0  0  0
    4.5089    1.4539   -1.2087 C   0  0  0  0  0  0  0  0  0  0  0  0
    3.0169    1.1062   -1.0502 C   0  0  0  0  0  0  0  0  0  0  0  0
    2.2682    2.1269   -0.1803 C   0  0  0  0  0  0  0  0  0  0  0  0
    0.8684    2.4152   -0.6897 C   0  0  0  0  0  0  0  0  0  0  0  0
    0.5285    2.2645   -1.8578 O   0  0  0  0  0  0  0  0  0  0  0  0
    0.0395    2.9806    0.2585 N   0  0  0  0  0  0  0  0  0  0  0  0
   -1.3641    3.2385   -0.0443 C   0  0  0  0  0  0  0  0  0  0  0  0
   -1.8151    4.6294    0.4273 C   0  0  0  0  0  0  0  0  0  0  0  0
   -1.3510    5.8360   -0.4155 C   0  0  0  0  0  0  0  0  0  0  0  0
    0.1560    6.0731   -0.3474 C   0  0  0  0  0  0  0  0  0  0  0  0
   -1.8149    5.7507   -1.8693 C   0  0  0  0  0  0  0  0  0  0  0  0
   -2.2001    2.1799    0.7030 C   0  0  0  0  0  0  0  0  0  0  0  0
   -1.9137    1.7826    1.8315 O   0  0  0  0  0  0  0  0  0  0  0  0
   -3.3191    1.7494    0.0314 N   0  0  0  0  0  0  0  0  0  0  0  0
   -4.2537    0.7596    0.5859 C   0  0  0  0  0  0  0  0  0  0  0  0
   -5.6854    0.9561    0.0435 C   0  0  0  0  0  0  0  0  0  0  0  0
   -5.7863    1.1989   -1.4487 C   0  0  0  0  0  0  0  0  0  0  0  0
   -5.8094    2.5085   -1.9528 C   0  0  0  0  0  0  0  0  0  0  0  0
   -5.8603    2.7392   -3.3286 C   0  0  0  0  0  0  0  0  0  0  0  0
   -5.8978    1.6651   -4.2150 C   0  0  0  0  0  0  0  0  0  0  0  0
   -5.8862    0.3611   -3.7253 C   0  0  0  0  0  0  0  0  0  0  0  0
   -5.8313    0.1280   -2.3499 C   0  0  0  0  0  0  0  0  0  0  0  0
   -3.7377   -0.6900    0.4056 C   0  0  0  0  0  0  0  0  0  0  0  0
   -4.4195   -1.6096   -0.0374 O   0  0  0  0  0  0  0  0  0  0  0  0
   -2.4677   -0.8990    0.8932 N   0  0  0  0  0  0  0  0  0  0  0  0
   -1.8150   -2.2035    0.8785 C   0  0  0  0  0  0  0  0  0  0  0  0
   -2.2888   -3.0788    2.0526 C   0  0  0  0  0  0  0  0  0  0  0  0
   -2.5054   -4.5748    1.7396 C   0  0  0  0  0  0  0  0  0  0  0  0
   -1.2425   -5.2721    1.2426 C   0  0  0  0  0  0  0  0  0  0  0  0
   -3.6617   -4.8019    0.7638 C   0  0  0  0  0  0  0  0  0  0  0  0
   -0.3100   -1.8985    0.9983 C   0  0  0  0  0  0  0  0  0  0  0  0
    0.1333   -1.0465    1.7668 O   0  0  0  0  0  0  0  0  0  0  0  0
    0.5083   -2.6348    0.1674 N   0  0  0  0  0  0  0  0  0  0  0  0
    1.9278   -2.2740    0.0777 C   0  0  0  0  0  0  0  0  0  0  0  0
    2.7871   -3.4046   -0.4973 C   0  0  0  0  0  0  0  0  0  0  0  0
    2.7879   -4.6527    0.3545 C   0  0  0  0  0  0  0  0  0  0  0  0
    2.2618   -5.8520   -0.1453 C   0  0  0  0  0  0  0  0  0  0  0  0
    2.2539   -7.0044    0.6416 C   0  0  0  0  0  0  0  0  0  0  0  0
    2.7723   -6.9702    1.9342 C   0  0  0  0  0  0  0  0  0  0  0  0
    3.3053   -5.7865    2.4392 C   0  0  0  0  0  0  0  0  0  0  0  0
    3.3175   -4.6338    1.6526 C   0  0  0  0  0  0  0  0  0  0  0  0
    2.0220   -1.0673   -0.8555 C   0  0  0  0  0  0  0  0  0  0  0  0
    1.3456   -0.9378   -1.8683 O   0  0  0  0  0  0  0  0  0  0  0  0
    2.9466   -0.1829   -0.3964 O   0  0  0  0  0  0  0  0  0  0  0  0
    8.0363    2.6890    2.9738 H   0  0  0  0  0  0  0  0  0  0  0  0
    7.3580    3.7604    1.7366 H   0  0  0  0  0  0  0  0  0  0  0  0
    6.3200    2.5867    2.5727 H   0  0  0  0  0  0  0  0  0  0  0  0
    7.5763    0.7061    1.5275 H   0  0  0  0  0  0  0  0  0  0  0  0
    8.6997    1.8455    0.7904 H   0  0  0  0  0  0  0  0  0  0  0  0
    6.8620    2.8060   -0.5958 H   0  0  0  0  0  0  0  0  0  0  0  0
    7.1739    1.1024   -0.9049 H   0  0  0  0  0  0  0  0  0  0  0  0
    5.2337    0.5023    0.5992 H   0  0  0  0  0  0  0  0  0  0  0  0
    4.8782    2.2217    0.7810 H   0  0  0  0  0  0  0  0  0  0  0  0
    4.6051    2.4225   -1.7145 H   0  0  0  0  0  0  0  0  0  0  0  0
    4.9633    0.7007   -1.8658 H   0  0  0  0  0  0  0  0  0  0  0  0
    2.6024    1.0500   -2.0627 H   0  0  0  0  0  0  0  0  0  0  0  0
    2.2102    1.7797    0.8574 H   0  0  0  0  0  0  0  0  0  0  0  0
    2.7828    3.0957   -0.1949 H   0  0  0  0  0  0  0  0  0  0  0  0
    0.2528    2.8022    1.2357 H   0  0  0  0  0  0  0  0  0  0  0  0
   -1.5477    3.1196   -1.1164 H   0  0  0  0  0  0  0  0  0  0  0  0
   -1.4974    4.7825    1.4683 H   0  0  0  0  0  0  0  0  0  0  0  0
   -2.9140    4.6523    0.4510 H   0  0  0  0  0  0  0  0  0  0  0  0
   -1.8318    6.7207    0.0242 H   0  0  0  0  0  0  0  0  0  0  0  0
    0.7176    5.3207   -0.9079 H   0  0  0  0  0  0  0  0  0  0  0  0
    0.5078    6.0711    0.6896 H   0  0  0  0  0  0  0  0  0  0  0  0
    0.4058    7.0478   -0.7791 H   0  0  0  0  0  0  0  0  0  0  0  0
   -2.8912    5.5587   -1.9256 H   0  0  0  0  0  0  0  0  0  0  0  0
   -1.2942    4.9596   -2.4180 H   0  0  0  0  0  0  0  0  0  0  0  0
   -1.6177    6.6935   -2.3899 H   0  0  0  0  0  0  0  0  0  0  0  0
   -3.2998    1.8176   -0.9821 H   0  0  0  0  0  0  0  0  0  0  0  0
   -4.2962    0.9111    1.6731 H   0  0  0  0  0  0  0  0  0  0  0  0
   -6.3258    0.1070    0.3133 H   0  0  0  0  0  0  0  0  0  0  0  0
   -6.1277    1.8218    0.5553 H   0  0  0  0  0  0  0  0  0  0  0  0
   -5.7820    3.3590   -1.2750 H   0  0  0  0  0  0  0  0  0  0  0  0
   -5.8748    3.7565   -3.7104 H   0  0  0  0  0  0  0  0  0  0  0  0
   -5.9391    1.8435   -5.2861 H   0  0  0  0  0  0  0  0  0  0  0  0
   -5.9185   -0.4791   -4.4157 H   0  0  0  0  0  0  0  0  0  0  0  0
   -5.8279   -0.9000   -1.9918 H   0  0  0  0  0  0  0  0  0  0  0  0
   -2.0179   -0.1545    1.4346 H   0  0  0  0  0  0  0  0  0  0  0  0
   -2.0293   -2.6658   -0.0895 H   0  0  0  0  0  0  0  0  0  0  0  0
   -3.2369   -2.6902    2.4485 H   0  0  0  0  0  0  0  0  0  0  0  0
   -1.5739   -3.0056    2.8833 H   0  0  0  0  0  0  0  0  0  0  0  0
   -2.7865   -5.0542    2.6878 H   0  0  0  0  0  0  0  0  0  0  0  0
   -0.3998   -5.0789    1.9137 H   0  0  0  0  0  0  0  0  0  0  0  0
   -0.9689   -4.9509    0.2337 H   0  0  0  0  0  0  0  0  0  0  0  0
   -1.3943   -6.3561    1.2057 H   0  0  0  0  0  0  0  0  0  0  0  0
   -4.5730   -4.3108    1.1206 H   0  0  0  0  0  0  0  0  0  0  0  0
   -3.8771   -5.8718    0.6706 H   0  0  0  0  0  0  0  0  0  0  0  0
   -3.4380   -4.4216   -0.2377 H   0  0  0  0  0  0  0  0  0  0  0  0
    0.0823   -2.9676   -0.6900 H   0  0  0  0  0  0  0  0  0  0  0  0
    2.2732   -1.9811    1.0766 H   0  0  0  0  0  0  0  0  0  0  0  0
    2.4456   -3.6514   -1.5116 H   0  0  0  0  0  0  0  0  0  0  0  0
    3.8255   -3.0657   -0.6100 H   0  0  0  0  0  0  0  0  0  0  0  0
    1.8498   -5.8991   -1.1507 H   0  0  0  0  0  0  0  0  0  0  0  0
    1.8403   -7.9290    0.2479 H   0  0  0  0  0  0  0  0  0  0  0  0
    2.7593   -7.8657    2.5492 H   0  0  0  0  0  0  0  0  0  0  0  0
    3.7088   -5.7593    3.4485 H   0  0  0  0  0  0  0  0  0  0  0  0
    3.7391   -3.7200    2.0650 H   0  0  0  0  0  0  0  0  0  0  0  0
  1  2  1  0
  2  3  1  0
  3  4  1  0
  4  5  1  0
  5  6  1  0
  6  7  1  0
  7  8  1  0
  8  9  2  0
  8 10  1  0
 10 11  1  0
 11 12  1  0
 12 13  1  0
 13 14  1  0
 13 15  1  0
 11 16  1  0
 16 17  2  0
 16 18  1  0
 18 19  1  0
 19 20  1  0
 20 21  1  0
 21 22  2  0
 22 23  1  0
 23 24  2  0
 24 25  1  0
 25 26  2  0
 19 27  1  0
 27 28  2  0
 27 29  1  0
 29 30  1  0
 30 31  1  0
 31 32  1  0
 32 33  1  0
 32 34  1  0
 30 35  1  0
 35 36  2  0
 35 37  1  0
 37 38  1  0
 38 39  1  0
 39 40  1  0
 40 41  2  0
 41 42  1  0
 42 43  2  0
 43 44  1  0
 44 45  2  0
 38 46  1  0
 46 47  2  0
 46 48  1  0
 48  6  1  0
 26 21  1  0
 45 40  1  0
  1 49  1  0
  1 50  1  0
  1 51  1  0
  2 52  1  0
  2 53  1  0
  3 54  1  0
  3 55  1  0
  4 56  1  0
  4 57  1  0
  5 58  1  0
  5 59  1  0
  6 60  1  0
  7 61  1  0
  7 62  1  0
 10 63  1  0
 11 64  1  0
 12 65  1  0
 12 66  1  0
 13 67  1  0
 14 68  1  0
 14 69  1  0
 14 70  1  0
 15 71  1  0
 15 72  1  0
 15 73  1  0
 18 74  1  0
 19 75  1  0
 20 76  1  0
 20 77  1  0
 22 78  1  0
 23 79  1  0
 24 80  1  0
 25 81  1  0
 26 82  1  0
 29 83  1  0
 30 84  1  0
 31 85  1  0
 31 86  1  0
 32 87  1  0
 33 88  1  0
 33 89  1  0
 33 90  1  0
 34 91  1  0
 34 92  1  0
 34 93  1  0
 37 94  1  0
 38 95  1  0
 39 96  1  0
 39 97  1  0
 41 98  1  0
 42 99  1  0
 43100  1  0
 44101  1  0
 45102  1  0
M  END
$$$$
