
     RDKit          3D

 42 44  0  0  0  0  0  0  0  0999 V2000
   -4.9654   -0.5024    1.7840 C   0  0  0  0  0  0  0  0  0  0  0  0
   -4.0716   -1.2839    0.8213 C   0  0  0  0  0  0  0  0  0  0  0  0
   -4.8383   -1.8029   -0.3949 C   0  0  0  0  0  0  0  0  0  0  0  0
   -2.8595   -0.5487    0.4527 N   0  0  0  0  0  0  0  0  0  0  0  0
   -1.5970   -0.9791    0.7930 C   0  0  0  0  0  0  0  0  0  0  0  0
   -0.6812   -0.0861    0.2869 C   0  0  0  0  0  0  0  0  0  0  0  0
    0.7271   -0.2577    0.4531 C   0  0  0  0  0  0  0  0  0  0  0  0
    1.6592    0.0786   -0.4543 C   0  0  0  0  0  0  0  0  0  0  0  0
    3.1010   -0.1155   -0.2673 C   0  0  0  0  0  0  0  0  0  0  0  0
    3.9815    0.8577   -0.7364 C   0  0  0  0  0  0  0  0  0  0  0  0
    5.3524    0.6774   -0.5902 C   0  0  0  0  0  0  0  0  0  0  0  0
    5.8415   -0.4424   -0.0129 N   0  0  0  0  0  4  0  0  0  0  0  0
    7.2969   -0.6071    0.1407 C   0  0  0  0  0  0  0  0  0  0  0  0
    5.0081   -1.4047    0.4411 C   0  0  0  0  0  0  0  0  0  0  0  0
    3.6301   -1.2649    0.3176 C   0  0  0  0  0  0  0  0  0  0  0  0
   -1.4101    0.9601   -0.3552 C   0  0  0  0  0  0  0  0  0  0  0  0
   -1.0489    2.1639   -1.0037 C   0  0  0  0  0  0  0  0  0  0  0  0
   -2.0335    2.9937   -1.5471 C   0  0  0  0  0  0  0  0  0  0  0  0
   -3.3736    2.6474   -1.4488 C   0  0  0  0  0  0  0  0  0  0  0  0
   -3.7644    1.4735   -0.7997 C   0  0  0  0  0  0  0  0  0  0  0  0
   -2.7731    0.6402   -0.2502 C   0  0  0  0  0  0  0  0  0  0  0  0
   -5.4273    0.3676    1.3094 H   0  0  0  0  0  0  0  0  0  0  0  0
   -5.7734   -1.1403    2.1583 H   0  0  0  0  0  0  0  0  0  0  0  0
   -4.3921   -0.1456    2.6468 H   0  0  0  0  0  0  0  0  0  0  0  0
   -3.7232   -2.1696    1.3701 H   0  0  0  0  0  0  0  0  0  0  0  0
   -4.1757   -2.3620   -1.0648 H   0  0  0  0  0  0  0  0  0  0  0  0
   -5.2932   -0.9957   -0.9754 H   0  0  0  0  0  0  0  0  0  0  0  0
   -5.6434   -2.4758   -0.0804 H   0  0  0  0  0  0  0  0  0  0  0  0
   -1.4589   -1.8950    1.3531 H   0  0  0  0  0  0  0  0  0  0  0  0
    1.0310   -0.7210    1.3893 H   0  0  0  0  0  0  0  0  0  0  0  0
    1.3577    0.5237   -1.4006 H   0  0  0  0  0  0  0  0  0  0  0  0
    3.6074    1.7655   -1.2071 H   0  0  0  0  0  0  0  0  0  0  0  0
    6.0648    1.4232   -0.9320 H   0  0  0  0  0  0  0  0  0  0  0  0
    7.5742   -0.1783    1.1068 H   0  0  0  0  0  0  0  0  0  0  0  0
    7.5434   -1.6713    0.1013 H   0  0  0  0  0  0  0  0  0  0  0  0
    7.8049   -0.0883   -0.6763 H   0  0  0  0  0  0  0  0  0  0  0  0
    5.4525   -2.2843    0.8985 H   0  0  0  0  0  0  0  0  0  0  0  0
    2.9799   -2.0628    0.6713 H   0  0  0  0  0  0  0  0  0  0  0  0
   -0.0085    2.4618   -1.0754 H   0  0  0  0  0  0  0  0  0  0  0  0
   -1.7492    3.9173   -2.0447 H   0  0  0  0  0  0  0  0  0  0  0  0
   -4.1325    3.3008   -1.8741 H   0  0  0  0  0  0  0  0  0  0  0  0
   -4.8194    1.2330   -0.7274 H   0  0  0  0  0  0  0  0  0  0  0  0
  1  2  1  0
  2  3  1  0
  2  4  1  0
  4  5  1  0
  5  6  2  0
  6  7  1  0
  7  8  2  3
  8  9  1  0
  9 10  2  0
 10 11  1  0
 11 12  2  0
 12 13  1  0
 12 14  1  0
 14 15  2  0
  6 16  1  0
 16 17  2  0
 17 18  1  0
 18 19  2  0
 19 20  1  0
 20 21  2  0
 21  4  1  0
 15  9  1  0
 21 16  1  0
  1 22  1  0
  1 23  1  0
  1 24  1  0
  2 25  1  0
  3 26  1  0
  3 27  1  0
  3 28  1  0
  5 29  1  0
  7 30  1  0
  8 31  1  0
 10 32  1  0
 11 33  1  0
 13 34  1  0
 13 35  1  0
 13 36  1  0
 14 37  1  0
 15 38  1  0
 17 39  1  0
 18 40  1  0
 19 41  1  0
 20 42  1  0
M  CHG  1  12   1
M  END
$$$$
