
     RDKit          3D

 51 54  0  0  0  0  0  0  0  0999 V2000
    6.4381   -0.4667   -3.2814 N   0  0  0  0  0  0  0  0  0  0  0  0
    7.1006   -0.0878   -1.7870 S   0  0  0  0  0  6  0  0  0  0  0  0
    7.8269   -1.2628   -1.3649 O   0  0  0  0  0  0  0  0  0  0  0  0
    7.7384    1.1979   -1.9499 O   0  0  0  0  0  0  0  0  0  0  0  0
    5.6579    0.0977   -0.7828 C   0  0  0  0  0  0  0  0  0  0  0  0
    5.0654    1.3542   -0.6455 C   0  0  0  0  0  0  0  0  0  0  0  0
    3.9368    1.5042    0.1680 C   0  0  0  0  0  0  0  0  0  0  0  0
    3.4029    0.4072    0.8496 C   0  0  0  0  0  0  0  0  0  0  0  0
    2.2781    0.4784    1.6946 N   0  0  0  0  0  0  0  0  0  0  0  0
    1.3849    1.5222    1.8247 C   0  0  0  0  0  0  0  0  0  0  0  0
    1.4227    2.5796    1.1961 O   0  0  0  0  0  0  0  0  0  0  0  0
    0.3132    1.3360    2.8919 C   0  0  0  0  0  0  0  0  0  0  0  0
   -0.2041   -0.3747    3.2011 S   0  0  0  0  0  0  0  0  0  0  0  0
   -0.6107   -0.9147    1.6036 C   0  0  0  0  0  0  0  0  0  0  0  0
    0.1692   -1.7215    0.9245 N   0  0  0  0  0  0  0  0  0  0  0  0
   -0.3446   -1.8319   -0.3361 N   0  0  0  0  0  0  0  0  0  0  0  0
   -1.4463   -1.1055   -0.4047 C   0  0  0  0  0  0  0  0  0  0  0  0
   -2.3822   -1.1080   -1.5717 C   0  0  0  0  0  0  0  0  0  0  0  0
   -3.7232   -1.7193   -1.2652 C   0  0  0  0  0  0  0  0  0  0  0  0
   -4.9572   -1.0993   -1.2116 C   0  0  0  0  0  0  0  0  0  0  0  0
   -6.0079   -2.0043   -0.8852 C   0  0  0  0  0  0  0  0  0  0  0  0
   -5.5464   -3.2891   -0.7147 C   0  0  0  0  0  0  0  0  0  0  0  0
   -3.8579   -3.4012   -0.9501 S   0  0  0  0  0  0  0  0  0  0  0  0
   -1.6486   -0.4601    0.8106 N   0  0  0  0  0  0  0  0  0  0  0  0
   -2.6731    0.4575    1.1466 C   0  0  0  0  0  0  0  0  0  0  0  0
   -2.9654    1.5224    0.2856 C   0  0  0  0  0  0  0  0  0  0  0  0
   -3.9668    2.4333    0.6257 C   0  0  0  0  0  0  0  0  0  0  0  0
   -4.6758    2.2822    1.8167 C   0  0  0  0  0  0  0  0  0  0  0  0
   -4.3820    1.2241    2.6758 C   0  0  0  0  0  0  0  0  0  0  0  0
   -3.3781    0.3121    2.3474 C   0  0  0  0  0  0  0  0  0  0  0  0
    4.0199   -0.8448    0.7157 C   0  0  0  0  0  0  0  0  0  0  0  0
    5.1464   -1.0037   -0.0961 C   0  0  0  0  0  0  0  0  0  0  0  0
    6.7268   -1.4037   -3.5628 H   0  0  0  0  0  0  0  0  0  0  0  0
    6.6687    0.2605   -3.9584 H   0  0  0  0  0  0  0  0  0  0  0  0
    5.4707    2.2212   -1.1625 H   0  0  0  0  0  0  0  0  0  0  0  0
    3.5046    2.4961    0.2586 H   0  0  0  0  0  0  0  0  0  0  0  0
    2.0045   -0.3958    2.1359 H   0  0  0  0  0  0  0  0  0  0  0  0
    0.7029    1.7504    3.8273 H   0  0  0  0  0  0  0  0  0  0  0  0
   -0.5640    1.9246    2.6066 H   0  0  0  0  0  0  0  0  0  0  0  0
   -1.9199   -1.6747   -2.3913 H   0  0  0  0  0  0  0  0  0  0  0  0
   -2.5080   -0.0939   -1.9637 H   0  0  0  0  0  0  0  0  0  0  0  0
   -5.1053   -0.0412   -1.3904 H   0  0  0  0  0  0  0  0  0  0  0  0
   -7.0499   -1.7272   -0.7839 H   0  0  0  0  0  0  0  0  0  0  0  0
   -6.1195   -4.1723   -0.4675 H   0  0  0  0  0  0  0  0  0  0  0  0
   -2.3974    1.6952   -0.6251 H   0  0  0  0  0  0  0  0  0  0  0  0
   -4.1876    3.2705   -0.0327 H   0  0  0  0  0  0  0  0  0  0  0  0
   -5.4561    2.9931    2.0785 H   0  0  0  0  0  0  0  0  0  0  0  0
   -4.9409    1.1062    3.6014 H   0  0  0  0  0  0  0  0  0  0  0  0
   -3.1932   -0.5220    3.0212 H   0  0  0  0  0  0  0  0  0  0  0  0
    3.6226   -1.7170    1.2310 H   0  0  0  0  0  0  0  0  0  0  0  0
    5.6098   -1.9833   -0.1880 H   0  0  0  0  0  0  0  0  0  0  0  0
  1  2  1  0
  2  3  2  0
  2  4  2  0
  2  5  1  0
  5  6  2  0
  6  7  1  0
  7  8  2  0
  8  9  1  0
  9 10  1  0
 10 11  2  0
 10 12  1  0
 12 13  1  0
 13 14  1  0
 14 15  2  0
 15 16  1  0
 16 17  2  0
 17 18  1  0
 18 19  1  0
 19 20  2  0
 20 21  1  0
 21 22  2  0
 22 23  1  0
 17 24  1  0
 24 25  1  0
 25 26  2  0
 26 27  1  0
 27 28  2  0
 28 29  1  0
 29 30  2  0
  8 31  1  0
 31 32  2  0
 32  5  1  0
 24 14  1  0
 30 25  1  0
 23 19  1  0
  1 33  1  0
  1 34  1  0
  6 35  1  0
  7 36  1  0
  9 37  1  0
 12 38  1  0
 12 39  1  0
 18 40  1  0
 18 41  1  0
 20 42  1  0
 21 43  1  0
 22 44  1  0
 26 45  1  0
 27 46  1  0
 28 47  1  0
 29 48  1  0
 30 49  1  0
 31 50  1  0
 32 51  1  0
M  END
$$$$
