
     RDKit          3D

 32 33  0  0  0  0  0  0  0  0999 V2000
   -4.5989    0.6257    0.2726 C   0  0  0  0  0  0  0  0  0  0  0  0
   -3.5256    0.4953   -0.7972 C   0  0  0  0  0  0  0  0  0  0  0  0
   -3.0076   -0.9355   -0.9681 C   0  0  0  0  0  0  0  0  0  0  0  0
   -2.2122   -1.4865    0.2221 C   0  0  0  0  0  0  0  0  0  0  0  0
   -0.9452   -0.7855    0.4369 N   0  0  0  0  0  0  0  0  0  0  0  0
   -0.8122    0.1523    1.4123 C   0  0  0  0  0  0  0  0  0  0  0  0
   -1.6298    0.5527    2.2150 O   0  0  0  0  0  0  0  0  0  0  0  0
    0.6298    0.6392    1.3332 C   0  0  0  0  0  0  0  0  0  0  0  0
    1.0629    1.5097    2.0633 O   0  0  0  0  0  0  0  0  0  0  0  0
    1.2052   -0.0671    0.3062 N   0  0  0  0  0  0  0  0  0  0  0  0
    2.5558    0.1566   -0.1025 C   0  0  0  0  0  0  0  0  0  0  0  0
    2.9608    0.0435   -1.4403 C   0  0  0  0  0  0  0  0  0  0  0  0
    4.2879    0.2769   -1.8215 C   0  0  0  0  0  0  0  0  0  0  0  0
    5.2357    0.6399   -0.8718 C   0  0  0  0  0  0  0  0  0  0  0  0
    4.8546    0.7793    0.4572 C   0  0  0  0  0  0  0  0  0  0  0  0
    3.5278    0.5459    0.8353 C   0  0  0  0  0  0  0  0  0  0  0  0
    0.2690   -0.9715   -0.2130 C   0  0  0  0  0  0  0  0  0  0  0  0
    0.5197   -2.1782   -1.3545 S   0  0  0  0  0  0  0  0  0  0  0  0
   -4.2108    0.3945    1.2678 H   0  0  0  0  0  0  0  0  0  0  0  0
   -4.9825    1.6508    0.2957 H   0  0  0  0  0  0  0  0  0  0  0  0
   -5.4398   -0.0443    0.0672 H   0  0  0  0  0  0  0  0  0  0  0  0
   -2.6996    1.1808   -0.5793 H   0  0  0  0  0  0  0  0  0  0  0  0
   -3.9548    0.8208   -1.7527 H   0  0  0  0  0  0  0  0  0  0  0  0
   -3.8594   -1.6009   -1.1559 H   0  0  0  0  0  0  0  0  0  0  0  0
   -2.3866   -0.9656   -1.8707 H   0  0  0  0  0  0  0  0  0  0  0  0
   -1.9987   -2.5463    0.0469 H   0  0  0  0  0  0  0  0  0  0  0  0
   -2.8119   -1.4364    1.1371 H   0  0  0  0  0  0  0  0  0  0  0  0
    2.2547   -0.1777   -2.2346 H   0  0  0  0  0  0  0  0  0  0  0  0
    4.5743    0.1852   -2.8666 H   0  0  0  0  0  0  0  0  0  0  0  0
    6.2654    0.8230   -1.1678 H   0  0  0  0  0  0  0  0  0  0  0  0
    5.5871    1.0701    1.2065 H   0  0  0  0  0  0  0  0  0  0  0  0
    3.2852    0.6532    1.8906 H   0  0  0  0  0  0  0  0  0  0  0  0
  1  2  1  0
  2  3  1  0
  3  4  1  0
  4  5  1  0
  5  6  1  0
  6  7  2  0
  6  8  1  0
  8  9  2  0
  8 10  1  0
 10 11  1  0
 11 12  2  0
 12 13  1  0
 13 14  2  0
 14 15  1  0
 15 16  2  0
 10 17  1  0
 17 18  2  0
 17  5  1  0
 16 11  1  0
  1 19  1  0
  1 20  1  0
  1 21  1  0
  2 22  1  0
  2 23  1  0
  3 24  1  0
  3 25  1  0
  4 26  1  0
  4 27  1  0
 12 28  1  0
 13 29  1  0
 14 30  1  0
 15 31  1  0
 16 32  1  0
M  END
$$$$
