
     RDKit          3D

 46 48  0  0  0  0  0  0  0  0999 V2000
    2.3271    1.3295   -3.7568 C   0  0  0  0  0  0  0  0  0  0  0  0
    2.3251   -0.0977   -3.2340 C   0  0  0  0  0  0  0  0  0  0  0  0
    2.6675   -0.2086   -1.7369 N   0  0  0  0  0  4  0  0  0  0  0  0
    2.6356   -1.6974   -1.3535 C   0  0  0  0  0  0  0  0  0  0  0  0
    4.0993    0.2830   -1.4828 C   0  0  0  0  0  0  0  0  0  0  0  0
    1.7175    0.5966   -0.8187 C   0  0  0  0  0  0  0  0  0  0  0  0
    0.2302    0.2795   -1.0235 C   0  0  0  0  0  0  0  0  0  0  0  0
   -0.6339    0.9694    0.0033 C   0  0  0  0  0  0  0  0  0  0  0  0
   -1.3551    0.4175    1.0076 C   0  0  0  0  0  0  0  0  0  0  0  0
   -2.3348    1.2901    1.7130 C   0  0  0  0  0  0  0  0  0  0  0  0
   -1.9846    2.5504    2.2217 C   0  0  0  0  0  0  0  0  0  0  0  0
   -2.9345    3.3364    2.8770 C   0  0  0  0  0  0  0  0  0  0  0  0
   -4.2377    2.8703    3.0365 C   0  0  0  0  0  0  0  0  0  0  0  0
   -4.5943    1.6114    2.5516 C   0  0  0  0  0  0  0  0  0  0  0  0
   -3.6481    0.8114    1.9003 C   0  0  0  0  0  0  0  0  0  0  0  0
   -4.1590   -0.8078    1.3154 S   0  0  0  0  0  0  0  0  0  0  0  0
   -2.6086   -1.7009    1.4022 C   0  0  0  0  0  0  0  0  0  0  0  0
   -2.6447   -3.0837    1.6263 C   0  0  0  0  0  0  0  0  0  0  0  0
   -1.4582   -3.8101    1.7516 C   0  0  0  0  0  0  0  0  0  0  0  0
   -0.2368   -3.1485    1.6780 C   0  0  0  0  0  0  0  0  0  0  0  0
    1.2345   -4.0264    1.8316 Cl  0  0  0  0  0  0  0  0  0  0  0  0
   -0.1873   -1.7722    1.4619 C   0  0  0  0  0  0  0  0  0  0  0  0
   -1.3694   -1.0443    1.2714 C   0  0  0  0  0  0  0  0  0  0  0  0
    1.5991    1.9618   -3.2422 H   0  0  0  0  0  0  0  0  0  0  0  0
    2.0595    1.3274   -4.8190 H   0  0  0  0  0  0  0  0  0  0  0  0
    3.3129    1.7953   -3.6758 H   0  0  0  0  0  0  0  0  0  0  0  0
    3.0657   -0.6970   -3.7766 H   0  0  0  0  0  0  0  0  0  0  0  0
    1.3436   -0.5605   -3.3821 H   0  0  0  0  0  0  0  0  0  0  0  0
    2.8252   -1.7829   -0.2799 H   0  0  0  0  0  0  0  0  0  0  0  0
    3.4161   -2.2140   -1.9205 H   0  0  0  0  0  0  0  0  0  0  0  0
    1.6578   -2.1110   -1.6099 H   0  0  0  0  0  0  0  0  0  0  0  0
    4.7732   -0.2404   -2.1673 H   0  0  0  0  0  0  0  0  0  0  0  0
    4.1390    1.3622   -1.6493 H   0  0  0  0  0  0  0  0  0  0  0  0
    4.3599    0.0590   -0.4437 H   0  0  0  0  0  0  0  0  0  0  0  0
    2.0271    0.3805    0.2110 H   0  0  0  0  0  0  0  0  0  0  0  0
    1.9119    1.6596   -1.0036 H   0  0  0  0  0  0  0  0  0  0  0  0
    0.0462   -0.7963   -1.0317 H   0  0  0  0  0  0  0  0  0  0  0  0
   -0.0940    0.6379   -2.0076 H   0  0  0  0  0  0  0  0  0  0  0  0
   -0.7473    2.0395   -0.1841 H   0  0  0  0  0  0  0  0  0  0  0  0
   -0.9710    2.9294    2.1249 H   0  0  0  0  0  0  0  0  0  0  0  0
   -2.6586    4.3130    3.2687 H   0  0  0  0  0  0  0  0  0  0  0  0
   -4.9771    3.4837    3.5469 H   0  0  0  0  0  0  0  0  0  0  0  0
   -5.6137    1.2585    2.6936 H   0  0  0  0  0  0  0  0  0  0  0  0
   -3.5975   -3.6026    1.7178 H   0  0  0  0  0  0  0  0  0  0  0  0
   -1.5002   -4.8827    1.9263 H   0  0  0  0  0  0  0  0  0  0  0  0
    0.7723   -1.2681    1.4607 H   0  0  0  0  0  0  0  0  0  0  0  0
  1  2  1  0
  2  3  1  0
  3  4  1  0
  3  5  1  0
  3  6  1  0
  6  7  1  0
  7  8  1  0
  8  9  2  3
  9 10  1  0
 10 11  2  0
 11 12  1  0
 12 13  2  0
 13 14  1  0
 14 15  2  0
 15 16  1  0
 16 17  1  0
 17 18  2  0
 18 19  1  0
 19 20  2  0
 20 21  1  0
 20 22  1  0
 22 23  2  0
 23  9  1  0
 15 10  1  0
 23 17  1  0
  1 24  1  0
  1 25  1  0
  1 26  1  0
  2 27  1  0
  2 28  1  0
  4 29  1  0
  4 30  1  0
  4 31  1  0
  5 32  1  0
  5 33  1  0
  5 34  1  0
  6 35  1  0
  6 36  1  0
  7 37  1  0
  7 38  1  0
  8 39  1  0
 11 40  1  0
 12 41  1  0
 13 42  1  0
 14 43  1  0
 18 44  1  0
 19 45  1  0
 22 46  1  0
M  CHG  1   3   1
M  END
$$$$
