
     RDKit          3D

 58 62  0  0  0  0  0  0  0  0999 V2000
    6.9996    3.9231   -0.3671 C   0  0  0  0  0  0  0  0  0  0  0  0
    6.7956    2.5175   -0.2791 O   0  0  0  0  0  0  0  0  0  0  0  0
    5.5207    2.0965   -0.0166 C   0  0  0  0  0  0  0  0  0  0  0  0
    4.3872    2.9068    0.0637 C   0  0  0  0  0  0  0  0  0  0  0  0
    3.1374    2.3418    0.3449 C   0  0  0  0  0  0  0  0  0  0  0  0
    3.0076    0.9613    0.5508 C   0  0  0  0  0  0  0  0  0  0  0  0
    1.6592    0.3526    0.8460 C   0  0  0  0  0  0  0  0  0  0  0  0
    1.0105   -0.2446   -0.4092 C   0  0  0  0  0  0  0  0  0  0  0  0
   -0.3495   -0.7255   -0.0984 N   0  0  0  0  0  0  0  0  0  0  0  0
   -1.4299    0.1709   -0.0443 C   0  0  0  0  0  0  0  0  0  0  0  0
   -1.3818    1.4188   -0.4087 N   0  0  0  0  0  0  0  0  0  0  0  0
   -2.7559   -0.3122    0.4552 C   0  0  0  0  0  0  0  0  0  0  0  0
   -3.9381    0.5575    0.6197 C   0  0  0  0  0  0  0  0  0  0  0  0
   -4.2794    0.9732    1.7239 O   0  0  0  0  0  0  0  0  0  0  0  0
   -4.5971    0.8119   -0.5613 N   0  0  0  0  0  0  0  0  0  0  0  0
   -5.6356    1.8128   -0.6394 C   0  0  0  0  0  0  0  0  0  0  0  0
   -5.0700    3.0320   -1.2716 C   0  0  0  0  0  0  0  0  0  0  0  0
   -4.0729    3.9119   -0.9014 C   0  0  0  0  0  0  0  0  0  0  0  0
   -3.9839    4.8720   -1.9397 C   0  0  0  0  0  0  0  0  0  0  0  0
   -4.9274    4.5161   -2.8769 C   0  0  0  0  0  0  0  0  0  0  0  0
   -5.5904    3.3974   -2.4822 O   0  0  0  0  0  0  0  0  0  0  0  0
   -2.8615   -1.6090    0.7833 C   0  0  0  0  0  0  0  0  0  0  0  0
   -1.7378   -2.5240    0.6646 C   0  0  0  0  0  0  0  0  0  0  0  0
   -1.9320   -3.9662    0.9937 C   0  0  0  0  0  0  0  0  0  0  0  0
   -3.0447   -4.3749    1.3352 O   0  0  0  0  0  0  0  0  0  0  0  0
   -0.8127   -4.7717    0.8742 N   0  0  0  0  0  0  0  0  0  0  0  0
   -0.9147   -6.1330    1.1462 C   0  0  0  0  0  0  0  0  0  0  0  0
    0.1387   -6.9530    1.0425 C   0  0  0  0  0  0  0  0  0  0  0  0
    1.4183   -6.4281    0.6447 C   0  0  0  0  0  0  0  0  0  0  0  0
    1.5616   -5.1246    0.3742 C   0  0  0  0  0  0  0  0  0  0  0  0
    0.3874   -4.2115    0.4776 C   0  0  0  0  0  0  0  0  0  0  0  0
    0.5523   -2.9593    0.1917 N   0  0  0  0  0  0  0  0  0  0  0  0
   -0.5173   -2.0946    0.2622 C   0  0  0  0  0  0  0  0  0  0  0  0
    4.1457    0.1524    0.4585 C   0  0  0  0  0  0  0  0  0  0  0  0
    5.3905    0.7189    0.1773 C   0  0  0  0  0  0  0  0  0  0  0  0
    6.4487    4.3480   -1.2146 H   0  0  0  0  0  0  0  0  0  0  0  0
    8.0665    4.0949   -0.5452 H   0  0  0  0  0  0  0  0  0  0  0  0
    6.7307    4.4230    0.5715 H   0  0  0  0  0  0  0  0  0  0  0  0
    4.4384    3.9806   -0.0853 H   0  0  0  0  0  0  0  0  0  0  0  0
    2.2671    2.9935    0.4082 H   0  0  0  0  0  0  0  0  0  0  0  0
    1.7721   -0.4181    1.6199 H   0  0  0  0  0  0  0  0  0  0  0  0
    1.0068    1.1157    1.2883 H   0  0  0  0  0  0  0  0  0  0  0  0
    0.9852    0.4871   -1.2254 H   0  0  0  0  0  0  0  0  0  0  0  0
    1.6386   -1.0514   -0.8090 H   0  0  0  0  0  0  0  0  0  0  0  0
   -0.4607    1.6892   -0.7453 H   0  0  0  0  0  0  0  0  0  0  0  0
   -4.1421    0.5580   -1.4312 H   0  0  0  0  0  0  0  0  0  0  0  0
   -6.4412    1.3941   -1.2536 H   0  0  0  0  0  0  0  0  0  0  0  0
   -6.0371    2.0425    0.3520 H   0  0  0  0  0  0  0  0  0  0  0  0
   -3.4793    3.8515    0.0037 H   0  0  0  0  0  0  0  0  0  0  0  0
   -3.3109    5.7164   -2.0000 H   0  0  0  0  0  0  0  0  0  0  0  0
   -5.2340    4.9302   -3.8305 H   0  0  0  0  0  0  0  0  0  0  0  0
   -3.8003   -2.0068    1.1647 H   0  0  0  0  0  0  0  0  0  0  0  0
   -1.8907   -6.5071    1.4475 H   0  0  0  0  0  0  0  0  0  0  0  0
    0.0494   -8.0136    1.2570 H   0  0  0  0  0  0  0  0  0  0  0  0
    2.2603   -7.1097    0.5744 H   0  0  0  0  0  0  0  0  0  0  0  0
    2.5076   -4.6905    0.0735 H   0  0  0  0  0  0  0  0  0  0  0  0
    4.0750   -0.9220    0.6106 H   0  0  0  0  0  0  0  0  0  0  0  0
    6.2698    0.0815    0.1141 H   0  0  0  0  0  0  0  0  0  0  0  0
  1  2  1  0
  2  3  1  0
  3  4  2  0
  4  5  1  0
  5  6  2  0
  6  7  1  0
  7  8  1  0
  8  9  1  0
  9 10  1  0
 10 11  2  3
 10 12  1  0
 12 13  1  0
 13 14  2  0
 13 15  1  0
 15 16  1  0
 16 17  1  0
 17 18  2  0
 18 19  1  0
 19 20  2  0
 20 21  1  0
 12 22  2  0
 22 23  1  0
 23 24  1  0
 24 25  2  0
 24 26  1  0
 26 27  1  0
 27 28  2  0
 28 29  1  0
 29 30  2  0
 30 31  1  0
 31 32  2  0
 32 33  1  0
  6 34  1  0
 34 35  2  0
 35  3  1  0
 33  9  1  0
 21 17  1  0
 33 23  2  0
 31 26  1  0
  1 36  1  0
  1 37  1  0
  1 38  1  0
  4 39  1  0
  5 40  1  0
  7 41  1  0
  7 42  1  0
  8 43  1  0
  8 44  1  0
 11 45  1  0
 15 46  1  0
 16 47  1  0
 16 48  1  0
 18 49  1  0
 19 50  1  0
 20 51  1  0
 22 52  1  0
 27 53  1  0
 28 54  1  0
 29 55  1  0
 30 56  1  0
 34 57  1  0
 35 58  1  0
M  END
$$$$
