
     RDKit          3D

 36 39  0  0  0  0  0  0  0  0999 V2000
   -7.1312    0.4538    1.1877 C   0  0  0  0  0  0  0  0  0  0  0  0
   -6.0129   -0.0901    0.3491 C   0  0  0  0  0  0  0  0  0  0  0  0
   -5.8350   -1.2795    0.1255 O   0  0  0  0  0  0  0  0  0  0  0  0
   -5.2435    0.9734   -0.1116 O   0  0  0  0  0  0  0  0  0  0  0  0
   -4.1514    0.6194   -0.9130 C   0  0  0  0  0  0  0  0  0  0  0  0
   -4.1253    1.1076   -2.2173 C   0  0  0  0  0  0  0  0  0  0  0  0
   -3.0341    0.8152   -3.0331 C   0  0  0  0  0  0  0  0  0  0  0  0
   -1.9733    0.0530   -2.5356 C   0  0  0  0  0  0  0  0  0  0  0  0
   -1.9921   -0.4126   -1.2135 C   0  0  0  0  0  0  0  0  0  0  0  0
   -0.8880   -1.2150   -0.6798 C   0  0  0  0  0  0  0  0  0  0  0  0
    0.3423   -0.7614   -0.4016 C   0  0  0  0  0  0  0  0  0  0  0  0
    0.9334    0.8798   -0.5904 S   0  0  0  0  0  0  0  0  0  0  0  0
    2.4606    0.3909    0.0167 C   0  0  0  0  0  0  0  0  0  0  0  0
    3.5987    0.9775    0.2459 N   0  0  0  0  0  0  0  0  0  0  0  0
    4.3583   -0.0742    0.7373 C   0  0  0  0  0  0  0  0  0  0  0  0
    5.8487    0.1087    1.1752 C   0  0  0  0  0  0  0  0  0  0  0  0
    6.6729   -0.8828    1.6733 C   0  0  0  0  0  0  0  0  0  0  0  0
    7.9263   -0.2784    1.9359 C   0  0  0  0  0  0  0  0  0  0  0  0
    7.7919    1.0431    1.5830 C   0  0  0  0  0  0  0  0  0  0  0  0
    6.5392    1.2881    1.1216 O   0  0  0  0  0  0  0  0  0  0  0  0
    3.7189   -1.2617    0.8090 N   0  0  0  0  0  0  0  0  0  0  0  0
    2.5084   -0.9164    0.3377 N   0  0  0  0  0  0  0  0  0  0  0  0
    1.3797   -1.6850    0.1521 C   0  0  0  0  0  0  0  0  0  0  0  0
    1.3098   -2.8729    0.4082 O   0  0  0  0  0  0  0  0  0  0  0  0
   -3.0890   -0.1234   -0.3963 C   0  0  0  0  0  0  0  0  0  0  0  0
   -7.7427   -0.3746    1.5568 H   0  0  0  0  0  0  0  0  0  0  0  0
   -6.7224    0.9937    2.0455 H   0  0  0  0  0  0  0  0  0  0  0  0
   -7.7622    1.1102    0.5834 H   0  0  0  0  0  0  0  0  0  0  0  0
   -4.9478    1.7054   -2.5986 H   0  0  0  0  0  0  0  0  0  0  0  0
   -3.0075    1.1797   -4.0569 H   0  0  0  0  0  0  0  0  0  0  0  0
   -1.1342   -0.1726   -3.1902 H   0  0  0  0  0  0  0  0  0  0  0  0
   -1.1402   -2.2588   -0.4925 H   0  0  0  0  0  0  0  0  0  0  0  0
    6.3932   -1.9166    1.8252 H   0  0  0  0  0  0  0  0  0  0  0  0
    8.8158   -0.7470    2.3326 H   0  0  0  0  0  0  0  0  0  0  0  0
    8.4577    1.8950    1.5982 H   0  0  0  0  0  0  0  0  0  0  0  0
   -3.1233   -0.4773    0.6303 H   0  0  0  0  0  0  0  0  0  0  0  0
  1  2  1  0
  2  3  2  0
  2  4  1  0
  4  5  1  0
  5  6  2  0
  6  7  1  0
  7  8  2  0
  8  9  1  0
  9 10  1  0
 10 11  2  3
 11 12  1  0
 12 13  1  0
 13 14  2  0
 14 15  1  0
 15 16  1  0
 16 17  2  0
 17 18  1  0
 18 19  2  0
 19 20  1  0
 15 21  2  0
 21 22  1  0
 22 23  1  0
 23 24  2  0
  9 25  2  0
 25  5  1  0
 23 11  1  0
 22 13  1  0
 20 16  1  0
  1 26  1  0
  1 27  1  0
  1 28  1  0
  6 29  1  0
  7 30  1  0
  8 31  1  0
 10 32  1  0
 17 33  1  0
 18 34  1  0
 19 35  1  0
 25 36  1  0
M  END
$$$$
