
     RDKit          3D

 41 43  0  0  0  0  0  0  0  0999 V2000
   -1.8540   -0.9863   -2.5627 O   0  0  0  0  0  0  0  0  0  0  0  0
   -1.6151   -0.5865   -1.4294 C   0  0  0  0  0  0  0  0  0  0  0  0
   -2.5390   -0.2674   -0.4542 N   0  0  0  0  0  0  0  0  0  0  0  0
   -3.9522   -0.2492   -0.5448 C   0  0  0  0  0  0  0  0  0  0  0  0
   -4.6147   -0.4781   -1.7599 C   0  0  0  0  0  0  0  0  0  0  0  0
   -6.0108   -0.4551   -1.8410 C   0  0  0  0  0  0  0  0  0  0  0  0
   -6.7579   -0.1989   -0.7022 C   0  0  0  0  0  0  0  0  0  0  0  0
   -8.1191   -0.1675   -0.7362 O   0  0  0  0  0  0  0  0  0  0  0  0
   -6.1333    0.0368    0.5142 C   0  0  0  0  0  0  0  0  0  0  0  0
   -4.7304    0.0171    0.6071 C   0  0  0  0  0  0  0  0  0  0  0  0
   -4.1804    0.2850    1.9662 C   0  0  0  0  0  0  0  0  0  0  0  0
   -4.8360    0.4795    2.9740 O   0  0  0  0  0  0  0  0  0  0  0  0
   -2.8331    0.3080    2.0320 O   0  0  0  0  0  0  0  0  0  0  0  0
   -0.1880   -0.4607   -1.0120 C   0  0  0  0  0  0  0  0  0  0  0  0
    0.2392    0.5135   -0.1033 C   0  0  0  0  0  0  0  0  0  0  0  0
    1.5897    0.5953    0.2613 C   0  0  0  0  0  0  0  0  0  0  0  0
    2.5281   -0.2841   -0.2829 C   0  0  0  0  0  0  0  0  0  0  0  0
    3.8983   -0.2672    0.0326 N   0  0  0  0  0  0  0  0  0  0  0  0
    4.5684    0.5576    0.9193 C   0  0  0  0  0  0  0  0  0  0  0  0
    4.0525    1.4345    1.6045 O   0  0  0  0  0  0  0  0  0  0  0  0
    5.9929    0.2769    0.9713 C   0  0  0  0  0  0  0  0  0  0  0  0
    7.0090    0.8563    1.7078 C   0  0  0  0  0  0  0  0  0  0  0  0
    8.2032    0.1823    1.3578 C   0  0  0  0  0  0  0  0  0  0  0  0
    7.8486   -0.7678    0.4300 C   0  0  0  0  0  0  0  0  0  0  0  0
    6.5132   -0.7226    0.1863 O   0  0  0  0  0  0  0  0  0  0  0  0
    2.0989   -1.2437   -1.2082 C   0  0  0  0  0  0  0  0  0  0  0  0
    0.7518   -1.3300   -1.5745 C   0  0  0  0  0  0  0  0  0  0  0  0
   -2.1837   -0.0821    0.4830 H   0  0  0  0  0  0  0  0  0  0  0  0
   -4.0677   -0.6750   -2.6773 H   0  0  0  0  0  0  0  0  0  0  0  0
   -6.4853   -0.6383   -2.8006 H   0  0  0  0  0  0  0  0  0  0  0  0
   -8.4160   -0.3528   -1.6428 H   0  0  0  0  0  0  0  0  0  0  0  0
   -6.7453    0.2368    1.3918 H   0  0  0  0  0  0  0  0  0  0  0  0
   -2.6729    0.4910    2.9858 H   0  0  0  0  0  0  0  0  0  0  0  0
   -0.4542    1.2385    0.3147 H   0  0  0  0  0  0  0  0  0  0  0  0
    1.8758    1.3698    0.9667 H   0  0  0  0  0  0  0  0  0  0  0  0
    4.4904   -0.9437   -0.4386 H   0  0  0  0  0  0  0  0  0  0  0  0
    6.8873    1.6696    2.4110 H   0  0  0  0  0  0  0  0  0  0  0  0
    9.1996    0.3664    1.7349 H   0  0  0  0  0  0  0  0  0  0  0  0
    8.4010   -1.5153   -0.1231 H   0  0  0  0  0  0  0  0  0  0  0  0
    2.8038   -1.9376   -1.6600 H   0  0  0  0  0  0  0  0  0  0  0  0
    0.4376   -2.0796   -2.2985 H   0  0  0  0  0  0  0  0  0  0  0  0
  1  2  2  0
  2  3  1  0
  3  4  1  0
  4  5  2  0
  5  6  1  0
  6  7  2  0
  7  8  1  0
  7  9  1  0
  9 10  2  0
 10 11  1  0
 11 12  2  0
 11 13  1  0
  2 14  1  0
 14 15  2  0
 15 16  1  0
 16 17  2  0
 17 18  1  0
 18 19  1  0
 19 20  2  0
 19 21  1  0
 21 22  2  0
 22 23  1  0
 23 24  2  0
 24 25  1  0
 17 26  1  0
 26 27  2  0
 10  4  1  0
 27 14  1  0
 25 21  1  0
  3 28  1  0
  5 29  1  0
  6 30  1  0
  8 31  1  0
  9 32  1  0
 13 33  1  0
 15 34  1  0
 16 35  1  0
 18 36  1  0
 22 37  1  0
 23 38  1  0
 24 39  1  0
 26 40  1  0
 27 41  1  0
M  END
$$$$
