
     RDKit          3D

 49 53  0  0  0  0  0  0  0  0999 V2000
    6.1749    0.9986    2.4256 C   0  0  0  0  0  0  0  0  0  0  0  0
    5.1126    0.8348    1.3849 C   0  0  0  0  0  0  0  0  0  0  0  0
    5.4428    1.3085   -0.2195 S   0  0  0  0  0  0  0  0  0  0  0  0
    3.8960    0.8533   -0.7486 C   0  0  0  0  0  0  0  0  0  0  0  0
    3.5662    1.0148   -2.0413 N   0  0  0  0  0  0  0  0  0  0  0  0
    2.3246    0.6193   -2.3082 C   0  0  0  0  0  0  0  0  0  0  0  0
    1.4396    0.1071   -1.4468 N   0  0  0  0  0  0  0  0  0  0  0  0
    1.8089   -0.0483   -0.1611 C   0  0  0  0  0  0  0  0  0  0  0  0
    0.6208   -0.7129    0.9670 S   0  0  0  0  0  0  0  0  0  0  0  0
   -0.2912   -1.9327   -0.0693 C   0  0  0  0  0  0  0  0  0  0  0  0
    0.6404   -2.9763   -0.6827 C   0  0  0  0  0  0  0  0  0  0  0  0
   -1.1991   -1.2498   -1.1192 C   0  0  0  0  0  0  0  0  0  0  0  0
   -1.1375   -1.5428   -2.3166 O   0  0  0  0  0  0  0  0  0  0  0  0
   -2.1279   -0.3370   -0.5863 N   0  0  0  0  0  0  0  0  0  0  0  0
   -2.1875    1.0227   -1.0674 C   0  0  0  0  0  0  0  0  0  0  0  0
   -1.5197    1.3950   -2.2518 C   0  0  0  0  0  0  0  0  0  0  0  0
   -1.5487    2.7055   -2.7430 C   0  0  0  0  0  0  0  0  0  0  0  0
   -2.2384    3.6895   -2.0527 C   0  0  0  0  0  0  0  0  0  0  0  0
   -2.8854    3.3596   -0.8666 C   0  0  0  0  0  0  0  0  0  0  0  0
   -2.8616    2.0418   -0.3709 C   0  0  0  0  0  0  0  0  0  0  0  0
   -3.6288    1.7892    1.2098 S   0  0  0  0  0  0  0  0  0  0  0  0
   -3.9053    0.0441    1.1329 C   0  0  0  0  0  0  0  0  0  0  0  0
   -4.9022   -0.4767    1.9779 C   0  0  0  0  0  0  0  0  0  0  0  0
   -5.1967   -1.8369    1.9856 C   0  0  0  0  0  0  0  0  0  0  0  0
   -4.5014   -2.6887    1.1409 C   0  0  0  0  0  0  0  0  0  0  0  0
   -3.5036   -2.1779    0.3056 C   0  0  0  0  0  0  0  0  0  0  0  0
   -3.1653   -0.8058    0.2990 C   0  0  0  0  0  0  0  0  0  0  0  0
    3.0969    0.3363    0.2641 C   0  0  0  0  0  0  0  0  0  0  0  0
    3.8271    0.3253    1.5315 C   0  0  0  0  0  0  0  0  0  0  0  0
    3.2792   -0.1658    2.8378 C   0  0  0  0  0  0  0  0  0  0  0  0
    7.0776    1.4781    2.0326 H   0  0  0  0  0  0  0  0  0  0  0  0
    6.4632    0.0205    2.8255 H   0  0  0  0  0  0  0  0  0  0  0  0
    5.8053    1.6153    3.2519 H   0  0  0  0  0  0  0  0  0  0  0  0
    1.9929    0.7222   -3.3365 H   0  0  0  0  0  0  0  0  0  0  0  0
   -0.9280   -2.4727    0.6355 H   0  0  0  0  0  0  0  0  0  0  0  0
    0.0518   -3.7671   -1.1622 H   0  0  0  0  0  0  0  0  0  0  0  0
    1.2664   -3.4522    0.0800 H   0  0  0  0  0  0  0  0  0  0  0  0
    1.2921   -2.5598   -1.4560 H   0  0  0  0  0  0  0  0  0  0  0  0
   -0.9686    0.6697   -2.8435 H   0  0  0  0  0  0  0  0  0  0  0  0
   -1.0302    2.9471   -3.6674 H   0  0  0  0  0  0  0  0  0  0  0  0
   -2.2623    4.7103   -2.4256 H   0  0  0  0  0  0  0  0  0  0  0  0
   -3.4016    4.1444   -0.3169 H   0  0  0  0  0  0  0  0  0  0  0  0
   -5.4649    0.1846    2.6345 H   0  0  0  0  0  0  0  0  0  0  0  0
   -5.9761   -2.2241    2.6373 H   0  0  0  0  0  0  0  0  0  0  0  0
   -4.7409   -3.7489    1.1161 H   0  0  0  0  0  0  0  0  0  0  0  0
   -3.0248   -2.8794   -0.3756 H   0  0  0  0  0  0  0  0  0  0  0  0
    2.4169    0.4363    3.1410 H   0  0  0  0  0  0  0  0  0  0  0  0
    4.0173   -0.1013    3.6435 H   0  0  0  0  0  0  0  0  0  0  0  0
    2.9843   -1.2165    2.7602 H   0  0  0  0  0  0  0  0  0  0  0  0
  1  2  1  0
  2  3  1  0
  3  4  1  0
  4  5  2  0
  5  6  1  0
  6  7  2  0
  7  8  1  0
  8  9  1  0
  9 10  1  0
 10 11  1  0
 10 12  1  0
 12 13  2  0
 12 14  1  0
 14 15  1  0
 15 16  2  0
 16 17  1  0
 17 18  2  0
 18 19  1  0
 19 20  2  0
 20 21  1  0
 21 22  1  0
 22 23  2  0
 23 24  1  0
 24 25  2  0
 25 26  1  0
 26 27  2  0
  8 28  2  0
 28 29  1  0
 29 30  1  0
 29  2  2  0
 28  4  1  0
 27 14  1  0
 20 15  1  0
 27 22  1  0
  1 31  1  0
  1 32  1  0
  1 33  1  0
  6 34  1  0
 10 35  1  0
 11 36  1  0
 11 37  1  0
 11 38  1  0
 16 39  1  0
 17 40  1  0
 18 41  1  0
 19 42  1  0
 23 43  1  0
 24 44  1  0
 25 45  1  0
 26 46  1  0
 30 47  1  0
 30 48  1  0
 30 49  1  0
M  END
$$$$
