
     RDKit          3D

 54 57  0  0  0  0  0  0  0  0999 V2000
   -6.6414   -1.8463    1.2078 C   0  0  0  0  0  0  0  0  0  0  0  0
   -5.9159   -0.6322    0.7103 C   0  0  0  0  0  0  0  0  0  0  0  0
   -6.4699    0.6388    0.8598 C   0  0  0  0  0  0  0  0  0  0  0  0
   -5.7809    1.7646    0.4076 C   0  0  0  0  0  0  0  0  0  0  0  0
   -4.5165    1.6469   -0.1956 C   0  0  0  0  0  0  0  0  0  0  0  0
   -3.8402    2.9010   -0.6850 C   0  0  0  0  0  0  0  0  0  0  0  0
   -3.9163    0.3717   -0.3101 C   0  0  0  0  0  0  0  0  0  0  0  0
   -2.5721    0.1615   -0.8724 C   0  0  0  0  0  0  0  0  0  0  0  0
   -1.4413    0.7287   -0.3162 C   0  0  0  0  0  0  0  0  0  0  0  0
   -0.2080    0.4578   -0.9072 C   0  0  0  0  0  0  0  0  0  0  0  0
    0.9736    1.0650   -0.2513 C   0  0  0  0  0  0  0  0  0  0  0  0
    0.9771    2.2808   -0.1137 O   0  0  0  0  0  0  0  0  0  0  0  0
    1.9023    0.1410    0.1801 N   0  0  0  0  0  0  0  0  0  0  0  0
    3.1241    0.3925    0.7892 C   0  0  0  0  0  0  0  0  0  0  0  0
    3.6800    1.9687    1.0348 S   0  0  0  0  0  0  0  0  0  0  0  0
    5.1497    1.4359    1.7105 C   0  0  0  0  0  0  0  0  0  0  0  0
    6.1596    2.4486    2.1459 C   0  0  0  0  0  0  0  0  0  0  0  0
    5.2400    0.0510    1.7440 C   0  0  0  0  0  0  0  0  0  0  0  0
    6.4621   -0.6833    2.2048 C   0  0  0  0  0  0  0  0  0  0  0  0
    4.0140   -0.5679    1.2547 C   0  0  0  0  0  0  0  0  0  0  0  0
    3.6795   -1.9922    1.1837 C   0  0  0  0  0  0  0  0  0  0  0  0
    4.2623   -2.8065    2.1111 N   0  0  0  0  0  0  0  0  0  0  0  0
    2.8556   -2.4486    0.3947 O   0  0  0  0  0  0  0  0  0  0  0  0
   -0.1117   -0.3481   -2.0629 C   0  0  0  0  0  0  0  0  0  0  0  0
    1.0863   -0.6217   -2.7725 C   0  0  0  0  0  0  0  0  0  0  0  0
    1.0839   -1.4419   -3.8991 C   0  0  0  0  0  0  0  0  0  0  0  0
   -0.1104   -1.9922   -4.3398 C   0  0  0  0  0  0  0  0  0  0  0  0
   -1.2949   -1.7102   -3.6561 C   0  0  0  0  0  0  0  0  0  0  0  0
   -1.3208   -0.8946   -2.5329 C   0  0  0  0  0  0  0  0  0  0  0  0
   -2.5071   -0.6602   -1.9476 N   0  0  0  0  0  0  0  0  0  0  0  0
   -4.6425   -0.7517    0.1383 C   0  0  0  0  0  0  0  0  0  0  0  0
   -6.4075   -2.7205    0.5912 H   0  0  0  0  0  0  0  0  0  0  0  0
   -7.7258   -1.6997    1.1640 H   0  0  0  0  0  0  0  0  0  0  0  0
   -6.3548   -2.0555    2.2430 H   0  0  0  0  0  0  0  0  0  0  0  0
   -7.4474    0.7630    1.3201 H   0  0  0  0  0  0  0  0  0  0  0  0
   -6.2442    2.7427    0.5212 H   0  0  0  0  0  0  0  0  0  0  0  0
   -4.5656    3.7094   -0.8291 H   0  0  0  0  0  0  0  0  0  0  0  0
   -3.0962    3.2393    0.0423 H   0  0  0  0  0  0  0  0  0  0  0  0
   -3.3598    2.7369   -1.6549 H   0  0  0  0  0  0  0  0  0  0  0  0
   -1.5063    1.3591    0.5653 H   0  0  0  0  0  0  0  0  0  0  0  0
    1.6991   -0.8484    0.0322 H   0  0  0  0  0  0  0  0  0  0  0  0
    6.9656    2.5168    1.4080 H   0  0  0  0  0  0  0  0  0  0  0  0
    5.7233    3.4457    2.2677 H   0  0  0  0  0  0  0  0  0  0  0  0
    6.5967    2.1637    3.1087 H   0  0  0  0  0  0  0  0  0  0  0  0
    6.6298   -1.5844    1.6070 H   0  0  0  0  0  0  0  0  0  0  0  0
    7.3614   -0.0668    2.1039 H   0  0  0  0  0  0  0  0  0  0  0  0
    6.3620   -0.9647    3.2576 H   0  0  0  0  0  0  0  0  0  0  0  0
    3.8873   -3.7446    2.1604 H   0  0  0  0  0  0  0  0  0  0  0  0
    4.6327   -2.4150    2.9646 H   0  0  0  0  0  0  0  0  0  0  0  0
    2.0342   -0.1870   -2.4606 H   0  0  0  0  0  0  0  0  0  0  0  0
    2.0108   -1.6445   -4.4298 H   0  0  0  0  0  0  0  0  0  0  0  0
   -0.1294   -2.6328   -5.2176 H   0  0  0  0  0  0  0  0  0  0  0  0
   -2.2302   -2.1351   -4.0152 H   0  0  0  0  0  0  0  0  0  0  0  0
   -4.1958   -1.7407    0.0350 H   0  0  0  0  0  0  0  0  0  0  0  0
  1  2  1  0
  2  3  2  0
  3  4  1  0
  4  5  2  0
  5  6  1  0
  5  7  1  0
  7  8  1  0
  8  9  2  0
  9 10  1  0
 10 11  1  0
 11 12  2  0
 11 13  1  0
 13 14  1  0
 14 15  1  0
 15 16  1  0
 16 17  1  0
 16 18  2  0
 18 19  1  0
 18 20  1  0
 20 21  1  0
 21 22  1  0
 21 23  2  0
 10 24  2  0
 24 25  1  0
 25 26  2  0
 26 27  1  0
 27 28  2  0
 28 29  1  0
 29 30  2  0
  7 31  2  0
 31  2  1  0
 30  8  1  0
 20 14  2  0
 29 24  1  0
  1 32  1  0
  1 33  1  0
  1 34  1  0
  3 35  1  0
  4 36  1  0
  6 37  1  0
  6 38  1  0
  6 39  1  0
  9 40  1  0
 13 41  1  0
 17 42  1  0
 17 43  1  0
 17 44  1  0
 19 45  1  0
 19 46  1  0
 19 47  1  0
 22 48  1  0
 22 49  1  0
 25 50  1  0
 26 51  1  0
 27 52  1  0
 28 53  1  0
 31 54  1  0
M  END
$$$$
