
     RDKit          3D

 53 54  0  0  0  0  0  0  0  0999 V2000
   -7.7150   -2.0844    0.8904 C   0  0  0  0  0  0  0  0  0  0  0  0
   -6.4140   -1.3003    0.8716 C   0  0  0  0  0  0  0  0  0  0  0  0
   -5.8542   -1.3047   -0.4904 N   0  0  0  0  0  0  0  0  0  0  0  0
   -6.1511   -0.1452   -1.3495 C   0  0  0  0  0  0  0  0  0  0  0  0
   -5.3948    1.1054   -0.9394 C   0  0  0  0  0  0  0  0  0  0  0  0
   -4.6317   -2.3949   -0.8941 S   0  0  0  0  0  6  0  0  0  0  0  0
   -4.7849   -3.5794   -0.0758 O   0  0  0  0  0  0  0  0  0  0  0  0
   -4.5653   -2.4876   -2.3377 O   0  0  0  0  0  0  0  0  0  0  0  0
   -3.1433   -1.5796   -0.3479 C   0  0  0  0  0  0  0  0  0  0  0  0
   -2.7723   -1.6456    0.9980 C   0  0  0  0  0  0  0  0  0  0  0  0
   -1.5871   -1.0359    1.4182 C   0  0  0  0  0  0  0  0  0  0  0  0
   -0.7608   -0.3761    0.4957 C   0  0  0  0  0  0  0  0  0  0  0  0
    0.4895    0.2543    1.0003 C   0  0  0  0  0  0  0  0  0  0  0  0
    0.8471    0.2036    2.1668 O   0  0  0  0  0  0  0  0  0  0  0  0
    1.1409    0.9002    0.0015 O   0  0  0  0  0  0  0  0  0  0  0  0
    2.4161    1.4118    0.3840 C   0  0  0  0  0  0  0  0  0  0  0  0
    3.4859    0.3222    0.4913 C   0  0  0  0  0  0  0  0  0  0  0  0
    3.3765   -0.7788   -0.0431 O   0  0  0  0  0  0  0  0  0  0  0  0
    4.5945    0.6957    1.2248 N   0  0  0  0  0  0  0  0  0  0  0  0
    5.7578   -0.1692    1.3111 C   0  0  0  0  0  0  0  0  0  0  0  0
    6.6341   -0.1140    0.0523 C   0  0  0  0  0  0  0  0  0  0  0  0
    7.2610    1.1870   -0.1350 N   0  0  0  0  0  0  0  0  0  0  0  0
    6.8006    2.1519   -0.9969 C   0  0  0  0  0  0  0  0  0  0  0  0
    5.6791    1.9107   -1.7310 O   0  0  0  0  0  0  0  0  0  0  0  0
    7.5328    3.2715   -1.0191 C   0  0  0  0  0  0  0  0  0  0  0  0
    8.8689    3.1735    0.0870 S   0  0  0  0  0  0  0  0  0  0  0  0
    8.3913    1.5396    0.5854 C   0  0  0  0  0  0  0  0  0  0  0  0
    8.9807    0.8876    1.4307 O   0  0  0  0  0  0  0  0  0  0  0  0
   -1.1258   -0.3448   -0.8583 C   0  0  0  0  0  0  0  0  0  0  0  0
   -2.3121   -0.9520   -1.2819 C   0  0  0  0  0  0  0  0  0  0  0  0
   -8.1397   -2.0920    1.8991 H   0  0  0  0  0  0  0  0  0  0  0  0
   -8.4527   -1.6411    0.2134 H   0  0  0  0  0  0  0  0  0  0  0  0
   -7.5573   -3.1222    0.5787 H   0  0  0  0  0  0  0  0  0  0  0  0
   -6.5999   -0.2777    1.2139 H   0  0  0  0  0  0  0  0  0  0  0  0
   -5.7121   -1.7362    1.5878 H   0  0  0  0  0  0  0  0  0  0  0  0
   -7.2291    0.0519   -1.3088 H   0  0  0  0  0  0  0  0  0  0  0  0
   -5.9352   -0.3787   -2.3969 H   0  0  0  0  0  0  0  0  0  0  0  0
   -5.6897    1.9448   -1.5777 H   0  0  0  0  0  0  0  0  0  0  0  0
   -4.3159    0.9788   -1.0426 H   0  0  0  0  0  0  0  0  0  0  0  0
   -5.6000    1.3882    0.0968 H   0  0  0  0  0  0  0  0  0  0  0  0
   -3.3851   -2.1803    1.7198 H   0  0  0  0  0  0  0  0  0  0  0  0
   -1.3011   -1.0901    2.4678 H   0  0  0  0  0  0  0  0  0  0  0  0
    2.7361    2.1060   -0.4006 H   0  0  0  0  0  0  0  0  0  0  0  0
    2.3445    1.9830    1.3172 H   0  0  0  0  0  0  0  0  0  0  0  0
    4.7028    1.6618    1.5030 H   0  0  0  0  0  0  0  0  0  0  0  0
    6.3213    0.1412    2.1971 H   0  0  0  0  0  0  0  0  0  0  0  0
    5.4148   -1.1976    1.4701 H   0  0  0  0  0  0  0  0  0  0  0  0
    7.4358   -0.8549    0.1593 H   0  0  0  0  0  0  0  0  0  0  0  0
    6.0644   -0.3857   -0.8430 H   0  0  0  0  0  0  0  0  0  0  0  0
    5.5724    2.6300   -2.3764 H   0  0  0  0  0  0  0  0  0  0  0  0
    7.3465    4.1471   -1.6231 H   0  0  0  0  0  0  0  0  0  0  0  0
   -0.4892    0.1359   -1.5977 H   0  0  0  0  0  0  0  0  0  0  0  0
   -2.5758   -0.9347   -2.3376 H   0  0  0  0  0  0  0  0  0  0  0  0
  1  2  1  0
  2  3  1  0
  3  4  1  0
  4  5  1  0
  3  6  1  0
  6  7  2  0
  6  8  2  0
  6  9  1  0
  9 10  2  0
 10 11  1  0
 11 12  2  0
 12 13  1  0
 13 14  2  0
 13 15  1  0
 15 16  1  0
 16 17  1  0
 17 18  2  0
 17 19  1  0
 19 20  1  0
 20 21  1  0
 21 22  1  0
 22 23  1  0
 23 24  1  0
 23 25  2  0
 25 26  1  0
 26 27  1  0
 27 28  2  0
 12 29  1  0
 29 30  2  0
 30  9  1  0
 27 22  1  0
  1 31  1  0
  1 32  1  0
  1 33  1  0
  2 34  1  0
  2 35  1  0
  4 36  1  0
  4 37  1  0
  5 38  1  0
  5 39  1  0
  5 40  1  0
 10 41  1  0
 11 42  1  0
 16 43  1  0
 16 44  1  0
 19 45  1  0
 20 46  1  0
 20 47  1  0
 21 48  1  0
 21 49  1  0
 24 50  1  0
 25 51  1  0
 29 52  1  0
 30 53  1  0
M  END
$$$$
