
     RDKit          3D

 49 52  0  0  0  0  0  0  0  0999 V2000
    1.0288    1.9130   -2.1152 O   0  0  0  0  0  0  0  0  0  0  0  0
    0.3700    2.1389   -1.1202 C   0  0  0  0  0  0  0  0  0  0  0  0
    0.8958    2.4264    0.0816 O   0  0  0  0  0  0  0  0  0  0  0  0
   -1.0963    2.1410   -1.0288 C   0  0  0  0  0  0  0  0  0  0  0  0
   -1.6197    3.4409   -1.2236 C   0  0  0  0  0  0  0  0  0  0  0  0
   -2.9789    3.6833   -1.1279 C   0  0  0  0  0  0  0  0  0  0  0  0
   -3.8187    2.6268   -0.8251 C   0  0  0  0  0  0  0  0  0  0  0  0
   -3.3004    1.3281   -0.6353 C   0  0  0  0  0  0  0  0  0  0  0  0
   -4.2809    0.2771   -0.2987 C   0  0  0  0  0  0  0  0  0  0  0  0
   -5.4759    0.5437   -0.2015 O   0  0  0  0  0  0  0  0  0  0  0  0
   -3.8100   -1.0951   -0.0732 C   0  0  0  0  0  0  0  0  0  0  0  0
   -4.7583   -2.0749    0.2735 C   0  0  0  0  0  0  0  0  0  0  0  0
   -4.3604   -3.3870    0.4863 C   0  0  0  0  0  0  0  0  0  0  0  0
   -3.0198   -3.7134    0.3510 C   0  0  0  0  0  0  0  0  0  0  0  0
   -2.0819   -2.7292    0.0033 C   0  0  0  0  0  0  0  0  0  0  0  0
   -2.4449   -1.3856   -0.2215 C   0  0  0  0  0  0  0  0  0  0  0  0
   -1.5256   -0.3498   -0.5642 N   0  0  0  0  0  0  0  0  0  0  0  0
   -0.1515   -0.7780   -0.9435 C   0  0  0  0  0  0  0  0  0  0  0  0
    0.8326   -0.6623    0.2475 C   0  0  0  0  0  0  0  0  0  0  0  0
    0.7219   -1.7972    1.1226 O   0  0  0  0  0  0  0  0  0  0  0  0
    2.3037   -0.5544   -0.2375 C   0  0  0  0  0  0  0  0  0  0  0  0
    3.0158    0.6086    0.3682 N   0  0  0  0  0  0  0  0  0  0  0  0
    3.3162    0.3727    1.7957 C   0  0  0  0  0  0  0  0  0  0  0  0
    4.6023   -0.4399    1.8366 C   0  0  0  0  0  0  0  0  0  0  0  0
    5.2735   -0.1928    0.4936 C   0  0  0  0  0  0  0  0  0  0  0  0
    4.3525    0.7712   -0.2379 C   0  0  0  0  0  0  0  0  0  0  0  0
   -1.9218    1.0151   -0.7496 C   0  0  0  0  0  0  0  0  0  0  0  0
    1.8477    2.1496    0.0408 H   0  0  0  0  0  0  0  0  0  0  0  0
   -0.9484    4.2715   -1.4404 H   0  0  0  0  0  0  0  0  0  0  0  0
   -3.3778    4.6833   -1.2737 H   0  0  0  0  0  0  0  0  0  0  0  0
   -4.8887    2.8094   -0.7328 H   0  0  0  0  0  0  0  0  0  0  0  0
   -5.8090   -1.8095    0.3749 H   0  0  0  0  0  0  0  0  0  0  0  0
   -5.0906   -4.1459    0.7538 H   0  0  0  0  0  0  0  0  0  0  0  0
   -2.6915   -4.7376    0.5151 H   0  0  0  0  0  0  0  0  0  0  0  0
   -1.0556   -3.0747   -0.0729 H   0  0  0  0  0  0  0  0  0  0  0  0
    0.1696   -0.2092   -1.8160 H   0  0  0  0  0  0  0  0  0  0  0  0
   -0.1362   -1.8015   -1.3345 H   0  0  0  0  0  0  0  0  0  0  0  0
    0.5682    0.1986    0.8667 H   0  0  0  0  0  0  0  0  0  0  0  0
   -0.1142   -1.6753    1.6107 H   0  0  0  0  0  0  0  0  0  0  0  0
    2.3105   -0.4039   -1.3233 H   0  0  0  0  0  0  0  0  0  0  0  0
    2.8370   -1.4942   -0.0474 H   0  0  0  0  0  0  0  0  0  0  0  0
    3.4870    1.3466    2.2718 H   0  0  0  0  0  0  0  0  0  0  0  0
    2.5038   -0.1044    2.3523 H   0  0  0  0  0  0  0  0  0  0  0  0
    5.2420   -0.1325    2.6701 H   0  0  0  0  0  0  0  0  0  0  0  0
    4.3864   -1.5078    1.9552 H   0  0  0  0  0  0  0  0  0  0  0  0
    6.2784    0.2243    0.6133 H   0  0  0  0  0  0  0  0  0  0  0  0
    5.3653   -1.1365   -0.0563 H   0  0  0  0  0  0  0  0  0  0  0  0
    4.6862    1.8015   -0.0608 H   0  0  0  0  0  0  0  0  0  0  0  0
    4.3616    0.6214   -1.3230 H   0  0  0  0  0  0  0  0  0  0  0  0
  1  2  2  0
  2  3  1  0
  2  4  1  0
  4  5  2  0
  5  6  1  0
  6  7  2  0
  7  8  1  0
  8  9  1  0
  9 10  2  0
  9 11  1  0
 11 12  2  0
 12 13  1  0
 13 14  2  0
 14 15  1  0
 15 16  2  0
 16 17  1  0
 17 18  1  0
 18 19  1  0
 19 20  1  0
 19 21  1  0
 21 22  1  0
 22 23  1  0
 23 24  1  0
 24 25  1  0
 25 26  1  0
 17 27  1  0
 27  4  1  0
 27  8  2  0
 16 11  1  0
 26 22  1  0
  3 28  1  0
  5 29  1  0
  6 30  1  0
  7 31  1  0
 12 32  1  0
 13 33  1  0
 14 34  1  0
 15 35  1  0
 18 36  1  0
 18 37  1  0
 19 38  1  0
 20 39  1  0
 21 40  1  0
 21 41  1  0
 23 42  1  0
 23 43  1  0
 24 44  1  0
 24 45  1  0
 25 46  1  0
 25 47  1  0
 26 48  1  0
 26 49  1  0
M  END
$$$$
