
     RDKit          3D

 47 51  0  0  0  0  0  0  0  0999 V2000
   -1.1146   -1.1502   -3.2952 C   0  0  0  0  0  0  0  0  0  0  0  0
   -1.8648   -0.3177   -2.3024 C   0  0  0  0  0  0  0  0  0  0  0  0
   -3.1391   -0.0891   -2.4988 N   0  0  0  0  0  0  0  0  0  0  0  0
   -3.7907    0.6802   -1.5755 C   0  0  0  0  0  0  0  0  0  0  0  0
   -5.4499    1.0689   -1.7168 S   0  0  0  0  0  0  0  0  0  0  0  0
   -5.4260    1.9739   -0.2668 C   0  0  0  0  0  0  0  0  0  0  0  0
   -4.1802    1.9988    0.3358 C   0  0  0  0  0  0  0  0  0  0  0  0
   -3.2646    1.2532   -0.4371 C   0  0  0  0  0  0  0  0  0  0  0  0
   -1.7755    0.9551   -0.2491 C   0  0  0  0  0  0  0  0  0  0  0  0
   -0.9566    1.3287    0.6986 N   0  0  0  0  0  0  0  0  0  0  0  0
    0.2698    0.7962    0.3883 N   0  0  0  0  0  0  0  0  0  0  0  0
    0.1550    0.1145   -0.7352 C   0  0  0  0  0  0  0  0  0  0  0  0
    1.4685   -0.7366   -1.4694 S   0  0  0  0  0  0  0  0  0  0  0  0
    2.8780    0.0140   -0.6004 C   0  0  0  0  0  0  0  0  0  0  0  0
    4.1618   -0.5831   -1.1448 C   0  0  0  0  0  0  0  0  0  0  0  0
    4.6597   -0.2256   -2.2095 O   0  0  0  0  0  0  0  0  0  0  0  0
    4.7152   -1.5637   -0.3524 N   0  0  0  0  0  0  0  0  0  0  0  0
    5.8495   -2.3256   -0.8201 C   0  0  0  0  0  0  0  0  0  0  0  0
    6.3907   -3.1134    0.3121 C   0  0  0  0  0  0  0  0  0  0  0  0
    7.6206   -3.1577    0.9342 C   0  0  0  0  0  0  0  0  0  0  0  0
    7.5128   -4.1250    1.9633 C   0  0  0  0  0  0  0  0  0  0  0  0
    6.2281   -4.6087    1.9044 C   0  0  0  0  0  0  0  0  0  0  0  0
    5.5371   -4.0001    0.9062 O   0  0  0  0  0  0  0  0  0  0  0  0
   -1.1417    0.1797   -1.1976 N   0  0  0  0  0  0  0  0  0  0  0  0
   -3.9282    2.7137    1.6260 C   0  0  0  0  0  0  0  0  0  0  0  0
   -5.0499    3.7165    1.9439 C   0  0  0  0  0  0  0  0  0  0  0  0
   -6.4410    3.1087    1.7080 C   0  0  0  0  0  0  0  0  0  0  0  0
   -6.6421    2.6823    0.2450 C   0  0  0  0  0  0  0  0  0  0  0  0
   -0.7310   -2.0575   -2.8221 H   0  0  0  0  0  0  0  0  0  0  0  0
   -1.7893   -1.4602   -4.1013 H   0  0  0  0  0  0  0  0  0  0  0  0
   -0.3083   -0.5695   -3.7499 H   0  0  0  0  0  0  0  0  0  0  0  0
    2.9053    1.0969   -0.7640 H   0  0  0  0  0  0  0  0  0  0  0  0
    2.8045   -0.1693    0.4769 H   0  0  0  0  0  0  0  0  0  0  0  0
    4.1433   -2.0003    0.3610 H   0  0  0  0  0  0  0  0  0  0  0  0
    6.6024   -1.6436   -1.2284 H   0  0  0  0  0  0  0  0  0  0  0  0
    5.5099   -2.9875   -1.6235 H   0  0  0  0  0  0  0  0  0  0  0  0
    8.4870   -2.5629    0.6769 H   0  0  0  0  0  0  0  0  0  0  0  0
    8.2773   -4.4324    2.6618 H   0  0  0  0  0  0  0  0  0  0  0  0
    5.6807   -5.3503    2.4693 H   0  0  0  0  0  0  0  0  0  0  0  0
   -2.9676    3.2400    1.5961 H   0  0  0  0  0  0  0  0  0  0  0  0
   -3.8709    1.9688    2.4296 H   0  0  0  0  0  0  0  0  0  0  0  0
   -4.9361    4.6069    1.3120 H   0  0  0  0  0  0  0  0  0  0  0  0
   -4.9579    4.0483    2.9843 H   0  0  0  0  0  0  0  0  0  0  0  0
   -7.2174    3.8302    1.9873 H   0  0  0  0  0  0  0  0  0  0  0  0
   -6.5653    2.2367    2.3634 H   0  0  0  0  0  0  0  0  0  0  0  0
   -7.5301    2.0454    0.1705 H   0  0  0  0  0  0  0  0  0  0  0  0
   -6.8185    3.5723   -0.3705 H   0  0  0  0  0  0  0  0  0  0  0  0
  1  2  1  0
  2  3  2  0
  3  4  1  0
  4  5  1  0
  5  6  1  0
  6  7  2  0
  7  8  1  0
  8  9  1  0
  9 10  2  0
 10 11  1  0
 11 12  2  0
 12 13  1  0
 13 14  1  0
 14 15  1  0
 15 16  2  0
 15 17  1  0
 17 18  1  0
 18 19  1  0
 19 20  2  0
 20 21  1  0
 21 22  2  0
 22 23  1  0
 12 24  1  0
  7 25  1  0
 25 26  1  0
 26 27  1  0
 27 28  1  0
 24  2  1  0
  8  4  2  0
 24  9  1  0
 28  6  1  0
 23 19  1  0
  1 29  1  0
  1 30  1  0
  1 31  1  0
 14 32  1  0
 14 33  1  0
 17 34  1  0
 18 35  1  0
 18 36  1  0
 20 37  1  0
 21 38  1  0
 22 39  1  0
 25 40  1  0
 25 41  1  0
 26 42  1  0
 26 43  1  0
 27 44  1  0
 27 45  1  0
 28 46  1  0
 28 47  1  0
M  END
$$$$
