
     RDKit          3D

 37 37  0  0  0  0  0  0  0  0999 V2000
   -3.9013   -2.8199   -2.6916 C   0  0  0  0  0  0  0  0  0  0  0  0
   -3.3545   -1.5498   -2.3341 O   0  0  0  0  0  0  0  0  0  0  0  0
   -2.1945   -1.6237   -1.6256 C   0  0  0  0  0  0  0  0  0  0  0  0
   -1.6309   -2.6623   -1.2954 O   0  0  0  0  0  0  0  0  0  0  0  0
   -1.6899   -0.2259   -1.2618 C   0  0  0  0  0  0  0  0  0  0  0  0
   -2.5461    0.3977   -0.1489 C   0  0  0  0  0  0  0  0  0  0  0  0
   -2.4423   -0.3483    1.1819 C   0  0  0  0  0  0  0  0  0  0  0  0
   -3.5376    0.3674    2.4537 S   0  0  0  0  0  0  0  0  0  0  0  0
   -2.6434    1.9062    2.7910 C   0  0  0  0  0  0  0  0  0  0  0  0
   -0.2729   -0.3209   -0.9147 N   0  0  0  0  0  0  0  0  0  0  0  0
    0.5303    0.7752   -0.8046 C   0  0  0  0  0  0  0  0  0  0  0  0
    0.1511    1.9214   -0.9972 O   0  0  0  0  0  0  0  0  0  0  0  0
    1.8014    0.4349   -0.4355 N   0  0  0  0  0  0  0  0  0  0  0  0
    2.8143    1.4634   -0.3744 C   0  0  0  0  0  0  0  0  0  0  0  0
    4.0500    0.8680    0.2167 C   0  0  0  0  0  0  0  0  0  0  0  0
    4.3839    0.7415    1.5515 C   0  0  0  0  0  0  0  0  0  0  0  0
    5.6498    0.1151    1.7375 C   0  0  0  0  0  0  0  0  0  0  0  0
    6.2406   -0.2174    0.5393 C   0  0  0  0  0  0  0  0  0  0  0  0
    5.2713    0.2224   -0.7986 S   0  0  0  0  0  0  0  0  0  0  0  0
   -3.2037   -3.3717   -3.3295 H   0  0  0  0  0  0  0  0  0  0  0  0
   -4.1471   -3.3968   -1.7945 H   0  0  0  0  0  0  0  0  0  0  0  0
   -4.8223   -2.6459   -3.2547 H   0  0  0  0  0  0  0  0  0  0  0  0
   -1.7499    0.3976   -2.1627 H   0  0  0  0  0  0  0  0  0  0  0  0
   -2.2394    1.4407   -0.0140 H   0  0  0  0  0  0  0  0  0  0  0  0
   -3.5938    0.4181   -0.4759 H   0  0  0  0  0  0  0  0  0  0  0  0
   -2.7485   -1.3915    1.0562 H   0  0  0  0  0  0  0  0  0  0  0  0
   -1.4167   -0.3536    1.5641 H   0  0  0  0  0  0  0  0  0  0  0  0
   -2.6986    2.5832    1.9355 H   0  0  0  0  0  0  0  0  0  0  0  0
   -3.1045    2.4035    3.6488 H   0  0  0  0  0  0  0  0  0  0  0  0
   -1.5982    1.6981    3.0338 H   0  0  0  0  0  0  0  0  0  0  0  0
    0.0548   -1.2009   -0.5344 H   0  0  0  0  0  0  0  0  0  0  0  0
    2.1136   -0.4684   -0.7600 H   0  0  0  0  0  0  0  0  0  0  0  0
    2.9818    1.8489   -1.3866 H   0  0  0  0  0  0  0  0  0  0  0  0
    2.4474    2.2921    0.2420 H   0  0  0  0  0  0  0  0  0  0  0  0
    3.7454    1.0822    2.3584 H   0  0  0  0  0  0  0  0  0  0  0  0
    6.1039   -0.0816    2.7010 H   0  0  0  0  0  0  0  0  0  0  0  0
    7.1964   -0.6988    0.3832 H   0  0  0  0  0  0  0  0  0  0  0  0
  1  2  1  0
  2  3  1  0
  3  4  2  0
  3  5  1  0
  5  6  1  0
  6  7  1  0
  7  8  1  0
  8  9  1  0
  5 10  1  0
 10 11  1  0
 11 12  2  0
 11 13  1  0
 13 14  1  0
 14 15  1  0
 15 16  2  0
 16 17  1  0
 17 18  2  0
 18 19  1  0
 19 15  1  0
  1 20  1  0
  1 21  1  0
  1 22  1  0
  5 23  1  0
  6 24  1  0
  6 25  1  0
  7 26  1  0
  7 27  1  0
  9 28  1  0
  9 29  1  0
  9 30  1  0
 10 31  1  0
 13 32  1  0
 14 33  1  0
 14 34  1  0
 16 35  1  0
 17 36  1  0
 18 37  1  0
M  END
$$$$
