
     RDKit          3D

 46 48  0  0  0  0  0  0  0  0999 V2000
   -3.8243    2.1028    1.1596 O   0  0  0  0  0  0  0  0  0  0  0  0
   -3.2314    1.0726    0.8676 C   0  0  0  0  0  0  0  0  0  0  0  0
   -3.7990   -0.1321    0.4927 N   0  0  0  0  0  0  0  0  0  0  0  0
   -5.1716   -0.3993    0.2934 C   0  0  0  0  0  0  0  0  0  0  0  0
   -5.5294   -1.7208   -0.0006 C   0  0  0  0  0  0  0  0  0  0  0  0
   -6.8659   -2.0539   -0.2144 C   0  0  0  0  0  0  0  0  0  0  0  0
   -7.1868   -3.3240   -0.4931 F   0  0  0  0  0  0  0  0  0  0  0  0
   -7.8645   -1.0970   -0.1452 C   0  0  0  0  0  0  0  0  0  0  0  0
   -7.5061    0.2109    0.1423 C   0  0  0  0  0  0  0  0  0  0  0  0
   -8.4589    1.1501    0.2085 F   0  0  0  0  0  0  0  0  0  0  0  0
   -6.1754    0.5692    0.3604 C   0  0  0  0  0  0  0  0  0  0  0  0
   -1.7441    1.0717    0.9576 C   0  0  0  0  0  0  0  0  0  0  0  0
   -0.9507    0.3371    0.0736 C   0  0  0  0  0  0  0  0  0  0  0  0
    0.4478    0.3668    0.1848 C   0  0  0  0  0  0  0  0  0  0  0  0
    1.1026    1.1073    1.1838 C   0  0  0  0  0  0  0  0  0  0  0  0
    2.4983    1.1934    1.2341 N   0  0  0  0  0  0  0  0  0  0  0  0
    3.3763    0.2081    0.6006 C   0  0  0  0  0  0  0  0  0  0  0  0
    3.8268    0.6920   -0.7817 C   0  0  0  0  0  0  0  0  0  0  0  0
    4.7203   -0.3167   -1.4602 C   0  0  0  0  0  0  0  0  0  0  0  0
    6.1012   -0.3156   -1.2209 C   0  0  0  0  0  0  0  0  0  0  0  0
    6.9245   -1.2634   -1.8303 C   0  0  0  0  0  0  0  0  0  0  0  0
    6.3760   -2.2212   -2.6809 C   0  0  0  0  0  0  0  0  0  0  0  0
    5.0037   -2.2326   -2.9232 C   0  0  0  0  0  0  0  0  0  0  0  0
    4.1780   -1.2860   -2.3147 C   0  0  0  0  0  0  0  0  0  0  0  0
    0.2709    1.8828    2.0284 C   0  0  0  0  0  0  0  0  0  0  0  0
    0.8511    2.7327    3.0699 N   0  0  0  0  0  4  0  0  0  0  0  0
    0.2747    3.7989    3.3270 O   0  0  0  0  0  0  0  0  0  0  0  0
    1.8707    2.3228    3.6478 O   0  0  0  0  0  1  0  0  0  0  0  0
   -1.1319    1.8664    1.9269 C   0  0  0  0  0  0  0  0  0  0  0  0
   -3.1815   -0.9303    0.4171 H   0  0  0  0  0  0  0  0  0  0  0  0
   -4.7883   -2.5110   -0.0668 H   0  0  0  0  0  0  0  0  0  0  0  0
   -8.9013   -1.3620   -0.3128 H   0  0  0  0  0  0  0  0  0  0  0  0
   -5.9667    1.6117    0.5749 H   0  0  0  0  0  0  0  0  0  0  0  0
   -1.3946   -0.2332   -0.7390 H   0  0  0  0  0  0  0  0  0  0  0  0
    1.0154   -0.1993   -0.5495 H   0  0  0  0  0  0  0  0  0  0  0  0
    2.8388    1.4628    2.1650 H   0  0  0  0  0  0  0  0  0  0  0  0
    4.2614    0.0911    1.2392 H   0  0  0  0  0  0  0  0  0  0  0  0
    2.9122   -0.7849    0.5598 H   0  0  0  0  0  0  0  0  0  0  0  0
    4.3587    1.6481   -0.6893 H   0  0  0  0  0  0  0  0  0  0  0  0
    2.9627    0.9033   -1.4234 H   0  0  0  0  0  0  0  0  0  0  0  0
    6.5455    0.4259   -0.5603 H   0  0  0  0  0  0  0  0  0  0  0  0
    7.9952   -1.2534   -1.6426 H   0  0  0  0  0  0  0  0  0  0  0  0
    7.0187   -2.9575   -3.1565 H   0  0  0  0  0  0  0  0  0  0  0  0
    4.5772   -2.9787   -3.5888 H   0  0  0  0  0  0  0  0  0  0  0  0
    3.1098   -1.3082   -2.5166 H   0  0  0  0  0  0  0  0  0  0  0  0
   -1.7465    2.4687    2.5957 H   0  0  0  0  0  0  0  0  0  0  0  0
  1  2  2  0
  2  3  1  0
  3  4  1  0
  4  5  2  0
  5  6  1  0
  6  7  1  0
  6  8  2  0
  8  9  1  0
  9 10  1  0
  9 11  2  0
  2 12  1  0
 12 13  2  0
 13 14  1  0
 14 15  2  0
 15 16  1  0
 16 17  1  0
 17 18  1  0
 18 19  1  0
 19 20  2  0
 20 21  1  0
 21 22  2  0
 22 23  1  0
 23 24  2  0
 15 25  1  0
 25 26  1  0
 26 27  2  0
 26 28  1  0
 25 29  2  0
 11  4  1  0
 29 12  1  0
 24 19  1  0
  3 30  1  0
  5 31  1  0
  8 32  1  0
 11 33  1  0
 13 34  1  0
 14 35  1  0
 16 36  1  0
 17 37  1  0
 17 38  1  0
 18 39  1  0
 18 40  1  0
 20 41  1  0
 21 42  1  0
 22 43  1  0
 23 44  1  0
 24 45  1  0
 29 46  1  0
M  CHG  2  26   1  28  -1
M  END
$$$$
