
     RDKit          3D

 48 50  0  0  0  0  0  0  0  0999 V2000
    8.2090    0.2471   -1.0805 C   0  0  0  0  0  0  0  0  0  0  0  0
    7.1030   -0.4233   -0.3513 C   0  0  0  0  0  0  0  0  0  0  0  0
    6.9650   -1.7793   -0.1157 C   0  0  0  0  0  0  0  0  0  0  0  0
    5.5272   -2.0758    0.7725 S   0  0  0  0  0  0  0  0  0  0  0  0
    5.2083   -0.3994    0.7701 C   0  0  0  0  0  0  0  0  0  0  0  0
    4.0487   -0.0574    1.4021 N   0  0  0  0  0  0  0  0  0  0  0  0
    3.5941    1.2388    1.4755 C   0  0  0  0  0  0  0  0  0  0  0  0
    4.1426    2.2506    1.0525 O   0  0  0  0  0  0  0  0  0  0  0  0
    2.2353    1.3344    2.1337 C   0  0  0  0  0  0  0  0  0  0  0  0
    1.1350    1.0427    1.1256 C   0  0  0  0  0  0  0  0  0  0  0  0
    1.0932   -0.3878    0.7956 N   0  0  0  0  0  0  0  0  0  0  0  0
    0.0046   -1.4147    1.5433 S   0  0  0  0  0  6  0  0  0  0  0  0
    0.2105   -2.7242    0.9703 O   0  0  0  0  0  0  0  0  0  0  0  0
    0.1025   -1.1756    2.9658 O   0  0  0  0  0  0  0  0  0  0  0  0
   -1.5648   -0.8188    0.9765 C   0  0  0  0  0  0  0  0  0  0  0  0
   -2.4826   -0.2774    1.8740 C   0  0  0  0  0  0  0  0  0  0  0  0
   -3.7216    0.1773    1.4062 C   0  0  0  0  0  0  0  0  0  0  0  0
   -4.0563    0.0952    0.0432 C   0  0  0  0  0  0  0  0  0  0  0  0
   -3.1208   -0.4532   -0.8332 C   0  0  0  0  0  0  0  0  0  0  0  0
   -1.8765   -0.9148   -0.3789 C   0  0  0  0  0  0  0  0  0  0  0  0
   -3.4431   -0.5464   -2.2648 C   0  0  0  0  0  0  0  0  0  0  0  0
   -2.5691   -0.9136   -3.0471 O   0  0  0  0  0  0  0  0  0  0  0  0
   -4.7271   -0.1867   -2.6388 N   0  0  0  0  0  0  0  0  0  0  0  0
   -5.0773   -0.3141   -4.0419 C   0  0  0  0  0  0  0  0  0  0  0  0
   -5.6520    0.4333   -1.8052 C   0  0  0  0  0  0  0  0  0  0  0  0
   -6.7258    0.8569   -2.2395 O   0  0  0  0  0  0  0  0  0  0  0  0
   -5.3018    0.5541   -0.4616 N   0  0  0  0  0  0  0  0  0  0  0  0
   -6.2693    1.1573    0.4467 C   0  0  0  0  0  0  0  0  0  0  0  0
    6.0829    0.3587    0.1638 N   0  0  0  0  0  0  0  0  0  0  0  0
    7.8118    0.9846   -1.7850 H   0  0  0  0  0  0  0  0  0  0  0  0
    8.8076   -0.4748   -1.6457 H   0  0  0  0  0  0  0  0  0  0  0  0
    8.8674    0.7591   -0.3720 H   0  0  0  0  0  0  0  0  0  0  0  0
    7.6204   -2.5849   -0.4127 H   0  0  0  0  0  0  0  0  0  0  0  0
    3.4952   -0.8150    1.7760 H   0  0  0  0  0  0  0  0  0  0  0  0
    2.1262    2.3537    2.5191 H   0  0  0  0  0  0  0  0  0  0  0  0
    2.1923    0.6609    2.9974 H   0  0  0  0  0  0  0  0  0  0  0  0
    0.1727    1.3703    1.5333 H   0  0  0  0  0  0  0  0  0  0  0  0
    1.2955    1.6025    0.1963 H   0  0  0  0  0  0  0  0  0  0  0  0
    1.4359   -0.6963   -0.1165 H   0  0  0  0  0  0  0  0  0  0  0  0
   -2.2518   -0.2090    2.9357 H   0  0  0  0  0  0  0  0  0  0  0  0
   -4.4114    0.5887    2.1380 H   0  0  0  0  0  0  0  0  0  0  0  0
   -1.1658   -1.3534   -1.0780 H   0  0  0  0  0  0  0  0  0  0  0  0
   -4.4879   -1.0947   -4.5303 H   0  0  0  0  0  0  0  0  0  0  0  0
   -6.1381   -0.5564   -4.1535 H   0  0  0  0  0  0  0  0  0  0  0  0
   -4.8803    0.6439   -4.5351 H   0  0  0  0  0  0  0  0  0  0  0  0
   -7.1710    1.4966   -0.0722 H   0  0  0  0  0  0  0  0  0  0  0  0
   -5.8193    2.0261    0.9350 H   0  0  0  0  0  0  0  0  0  0  0  0
   -6.5731    0.4138    1.1888 H   0  0  0  0  0  0  0  0  0  0  0  0
  1  2  1  0
  2  3  2  0
  3  4  1  0
  4  5  1  0
  5  6  1  0
  6  7  1  0
  7  8  2  0
  7  9  1  0
  9 10  1  0
 10 11  1  0
 11 12  1  0
 12 13  2  0
 12 14  2  0
 12 15  1  0
 15 16  2  0
 16 17  1  0
 17 18  2  0
 18 19  1  0
 19 20  2  0
 19 21  1  0
 21 22  2  0
 21 23  1  0
 23 24  1  0
 23 25  1  0
 25 26  2  0
 25 27  1  0
 27 28  1  0
  5 29  2  0
 29  2  1  0
 20 15  1  0
 27 18  1  0
  1 30  1  0
  1 31  1  0
  1 32  1  0
  3 33  1  0
  6 34  1  0
  9 35  1  0
  9 36  1  0
 10 37  1  0
 10 38  1  0
 11 39  1  0
 16 40  1  0
 17 41  1  0
 20 42  1  0
 24 43  1  0
 24 44  1  0
 24 45  1  0
 28 46  1  0
 28 47  1  0
 28 48  1  0
M  END
$$$$
