
     RDKit          3D

 45 47  0  0  0  0  0  0  0  0999 V2000
   -7.1149    1.7768    0.1244 C   0  0  0  0  0  0  0  0  0  0  0  0
   -6.9135    0.3406   -0.3256 C   0  0  0  0  0  0  0  0  0  0  0  0
   -5.9897   -0.3259    0.5304 O   0  0  0  0  0  0  0  0  0  0  0  0
   -4.6664   -0.3837    0.1749 C   0  0  0  0  0  0  0  0  0  0  0  0
   -4.0738    0.4119   -0.8094 C   0  0  0  0  0  0  0  0  0  0  0  0
   -2.7101    0.2913   -1.0913 C   0  0  0  0  0  0  0  0  0  0  0  0
   -1.9205   -0.6193   -0.3867 C   0  0  0  0  0  0  0  0  0  0  0  0
   -0.4974   -0.7395   -0.7211 C   0  0  0  0  0  0  0  0  0  0  0  0
    0.5305   -0.4467    0.0871 C   0  0  0  0  0  0  0  0  0  0  0  0
    0.4760    0.1437    1.7078 S   0  0  0  0  0  0  0  0  0  0  0  0
    2.2308    0.2400    1.8426 C   0  0  0  0  0  0  0  0  0  0  0  0
    3.0216    0.7118    3.2334 S   0  0  0  0  0  0  0  0  0  0  0  0
    2.7836   -0.1749    0.6488 N   0  0  0  0  0  0  0  0  0  0  0  0
    4.1702   -0.1378    0.4031 N   0  0  0  0  0  0  0  0  0  0  0  0
    4.6507    1.0240   -0.1795 C   0  0  0  0  0  0  0  0  0  0  0  0
    3.9819    2.0442   -0.3106 O   0  0  0  0  0  0  0  0  0  0  0  0
    6.0431    0.9689   -0.6935 C   0  0  0  0  0  0  0  0  0  0  0  0
    6.3965    1.8230   -1.7383 C   0  0  0  0  0  0  0  0  0  0  0  0
    7.6935    1.7674   -2.2111 C   0  0  0  0  0  0  0  0  0  0  0  0
    8.6350    0.9380   -1.7119 N   0  0  0  0  0  0  0  0  0  0  0  0
    8.2726    0.1388   -0.6867 C   0  0  0  0  0  0  0  0  0  0  0  0
    7.0001    0.1147   -0.1438 C   0  0  0  0  0  0  0  0  0  0  0  0
    1.9409   -0.5924   -0.3657 C   0  0  0  0  0  0  0  0  0  0  0  0
    2.2839   -1.0516   -1.4475 O   0  0  0  0  0  0  0  0  0  0  0  0
   -2.5086   -1.4196    0.6004 C   0  0  0  0  0  0  0  0  0  0  0  0
   -3.8724   -1.2981    0.8963 C   0  0  0  0  0  0  0  0  0  0  0  0
   -4.5241   -2.0440    1.8485 O   0  0  0  0  0  0  0  0  0  0  0  0
   -3.7242   -2.7796    2.7632 C   0  0  0  0  0  0  0  0  0  0  0  0
   -7.8697    2.2730   -0.4922 H   0  0  0  0  0  0  0  0  0  0  0  0
   -7.4394    1.8081    1.1699 H   0  0  0  0  0  0  0  0  0  0  0  0
   -6.1844    2.3491    0.0656 H   0  0  0  0  0  0  0  0  0  0  0  0
   -6.6411    0.2687   -1.3843 H   0  0  0  0  0  0  0  0  0  0  0  0
   -7.8675   -0.1897   -0.2254 H   0  0  0  0  0  0  0  0  0  0  0  0
   -4.6409    1.1481   -1.3681 H   0  0  0  0  0  0  0  0  0  0  0  0
   -2.2722    0.9232   -1.8613 H   0  0  0  0  0  0  0  0  0  0  0  0
   -0.3019   -1.0770   -1.7385 H   0  0  0  0  0  0  0  0  0  0  0  0
    4.5697   -1.0246    0.1119 H   0  0  0  0  0  0  0  0  0  0  0  0
    5.6800    2.5120   -2.1742 H   0  0  0  0  0  0  0  0  0  0  0  0
    8.0220    2.4065   -3.0261 H   0  0  0  0  0  0  0  0  0  0  0  0
    9.0627   -0.4979   -0.2973 H   0  0  0  0  0  0  0  0  0  0  0  0
    6.7901   -0.5326    0.6992 H   0  0  0  0  0  0  0  0  0  0  0  0
   -1.8891   -2.1407    1.1228 H   0  0  0  0  0  0  0  0  0  0  0  0
   -4.3878   -3.1990    3.5255 H   0  0  0  0  0  0  0  0  0  0  0  0
   -3.2256   -3.6153    2.2617 H   0  0  0  0  0  0  0  0  0  0  0  0
   -3.0002   -2.1338    3.2715 H   0  0  0  0  0  0  0  0  0  0  0  0
  1  2  1  0
  2  3  1  0
  3  4  1  0
  4  5  2  0
  5  6  1  0
  6  7  2  0
  7  8  1  0
  8  9  2  3
  9 10  1  0
 10 11  1  0
 11 12  2  0
 11 13  1  0
 13 14  1  0
 14 15  1  0
 15 16  2  0
 15 17  1  0
 17 18  2  0
 18 19  1  0
 19 20  2  0
 20 21  1  0
 21 22  2  0
 13 23  1  0
 23 24  2  0
  7 25  1  0
 25 26  2  0
 26 27  1  0
 27 28  1  0
 26  4  1  0
 23  9  1  0
 22 17  1  0
  1 29  1  0
  1 30  1  0
  1 31  1  0
  2 32  1  0
  2 33  1  0
  5 34  1  0
  6 35  1  0
  8 36  1  0
 14 37  1  0
 18 38  1  0
 19 39  1  0
 21 40  1  0
 22 41  1  0
 25 42  1  0
 28 43  1  0
 28 44  1  0
 28 45  1  0
M  END
$$$$
