
     RDKit          3D

 57 59  0  0  0  0  0  0  0  0999 V2000
   -8.7266   -1.5599   -1.2768 C   0  0  0  0  0  0  0  0  0  0  0  0
   -7.8068   -0.8240   -0.4848 O   0  0  0  0  0  0  0  0  0  0  0  0
   -6.4695   -1.0880   -0.6457 C   0  0  0  0  0  0  0  0  0  0  0  0
   -5.9484   -1.9743   -1.5973 C   0  0  0  0  0  0  0  0  0  0  0  0
   -4.5706   -2.1776   -1.6932 C   0  0  0  0  0  0  0  0  0  0  0  0
   -3.7146   -1.4779   -0.8437 C   0  0  0  0  0  0  0  0  0  0  0  0
   -1.9584   -1.7126   -0.9506 S   0  0  0  0  0  6  0  0  0  0  0  0
   -1.4535   -1.7892    0.4012 O   0  0  0  0  0  0  0  0  0  0  0  0
   -1.6889   -2.7512   -1.9218 O   0  0  0  0  0  0  0  0  0  0  0  0
   -1.4471   -0.2503   -1.6212 N   0  0  0  0  0  0  0  0  0  0  0  0
   -1.8601    0.0388   -3.0112 C   0  0  0  0  0  0  0  0  0  0  0  0
   -0.5543    0.0969   -3.7709 C   0  0  0  0  0  0  0  0  0  0  0  0
    0.3630    0.6148   -2.8067 O   0  0  0  0  0  0  0  0  0  0  0  0
    0.0238   -0.0619   -1.5767 C   0  0  0  0  0  0  0  0  0  0  0  0
    0.4272    0.8316   -0.3877 C   0  0  0  0  0  0  0  0  0  0  0  0
    1.8407    1.1650   -0.3625 N   0  0  0  0  0  0  0  0  0  0  0  0
    2.7984    0.2354   -0.0386 C   0  0  0  0  0  0  0  0  0  0  0  0
    2.5874   -0.9043    0.3509 O   0  0  0  0  0  0  0  0  0  0  0  0
    4.2483    0.7381   -0.2203 C   0  0  0  0  0  0  0  0  0  0  0  0
    4.4622    1.8313   -0.7262 O   0  0  0  0  0  0  0  0  0  0  0  0
    5.1917   -0.1475    0.2443 N   0  0  0  0  0  0  0  0  0  0  0  0
    6.5892    0.1850    0.3228 C   0  0  0  0  0  0  0  0  0  0  0  0
    6.9295    0.7704    1.6702 C   0  0  0  0  0  0  0  0  0  0  0  0
    6.8468    2.1580    1.8791 C   0  0  0  0  0  0  0  0  0  0  0  0
    7.1396    2.7044    3.1302 C   0  0  0  0  0  0  0  0  0  0  0  0
    7.5065    1.8646    4.1747 C   0  0  0  0  0  0  0  0  0  0  0  0
    7.7872    2.3879    5.3761 F   0  0  0  0  0  0  0  0  0  0  0  0
    7.5822    0.4877    3.9934 C   0  0  0  0  0  0  0  0  0  0  0  0
    7.2904   -0.0614    2.7426 C   0  0  0  0  0  0  0  0  0  0  0  0
   -4.2167   -0.5971    0.1200 C   0  0  0  0  0  0  0  0  0  0  0  0
   -5.5958   -0.4026    0.2272 C   0  0  0  0  0  0  0  0  0  0  0  0
   -6.1853    0.4406    1.1366 O   0  0  0  0  0  0  0  0  0  0  0  0
   -5.3734    0.9306    2.1956 C   0  0  0  0  0  0  0  0  0  0  0  0
   -9.7362   -1.2553   -0.9867 H   0  0  0  0  0  0  0  0  0  0  0  0
   -8.6030   -1.3292   -2.3400 H   0  0  0  0  0  0  0  0  0  0  0  0
   -8.6382   -2.6352   -1.0915 H   0  0  0  0  0  0  0  0  0  0  0  0
   -6.5914   -2.5233   -2.2781 H   0  0  0  0  0  0  0  0  0  0  0  0
   -4.1801   -2.8766   -2.4300 H   0  0  0  0  0  0  0  0  0  0  0  0
   -2.3537    1.0167   -3.0097 H   0  0  0  0  0  0  0  0  0  0  0  0
   -2.5486   -0.6886   -3.4458 H   0  0  0  0  0  0  0  0  0  0  0  0
   -0.2165   -0.8978   -4.0827 H   0  0  0  0  0  0  0  0  0  0  0  0
   -0.5990    0.7518   -4.6451 H   0  0  0  0  0  0  0  0  0  0  0  0
    0.5653   -1.0153   -1.5687 H   0  0  0  0  0  0  0  0  0  0  0  0
   -0.1091    1.7864   -0.4329 H   0  0  0  0  0  0  0  0  0  0  0  0
    0.1738    0.3446    0.5600 H   0  0  0  0  0  0  0  0  0  0  0  0
    2.1688    1.9977   -0.8463 H   0  0  0  0  0  0  0  0  0  0  0  0
    4.8405   -0.9728    0.7186 H   0  0  0  0  0  0  0  0  0  0  0  0
    6.8559    0.8871   -0.4764 H   0  0  0  0  0  0  0  0  0  0  0  0
    7.1597   -0.7349    0.1524 H   0  0  0  0  0  0  0  0  0  0  0  0
    6.5465    2.8167    1.0650 H   0  0  0  0  0  0  0  0  0  0  0  0
    7.0789    3.7756    3.2960 H   0  0  0  0  0  0  0  0  0  0  0  0
    7.8651   -0.1478    4.8273 H   0  0  0  0  0  0  0  0  0  0  0  0
    7.3443   -1.1406    2.6108 H   0  0  0  0  0  0  0  0  0  0  0  0
   -3.5164   -0.0774    0.7672 H   0  0  0  0  0  0  0  0  0  0  0  0
   -4.6405    1.6516    1.8219 H   0  0  0  0  0  0  0  0  0  0  0  0
   -4.8845    0.1118    2.7368 H   0  0  0  0  0  0  0  0  0  0  0  0
   -6.0257    1.4533    2.9028 H   0  0  0  0  0  0  0  0  0  0  0  0
  1  2  1  0
  2  3  1  0
  3  4  2  0
  4  5  1  0
  5  6  2  0
  6  7  1  0
  7  8  2  0
  7  9  2  0
  7 10  1  0
 10 11  1  0
 11 12  1  0
 12 13  1  0
 13 14  1  0
 14 15  1  0
 15 16  1  0
 16 17  1  0
 17 18  2  0
 17 19  1  0
 19 20  2  0
 19 21  1  0
 21 22  1  0
 22 23  1  0
 23 24  2  0
 24 25  1  0
 25 26  2  0
 26 27  1  0
 26 28  1  0
 28 29  2  0
  6 30  1  0
 30 31  2  0
 31 32  1  0
 32 33  1  0
 31  3  1  0
 14 10  1  0
 29 23  1  0
  1 34  1  0
  1 35  1  0
  1 36  1  0
  4 37  1  0
  5 38  1  0
 11 39  1  0
 11 40  1  0
 12 41  1  0
 12 42  1  0
 14 43  1  0
 15 44  1  0
 15 45  1  0
 16 46  1  0
 21 47  1  0
 22 48  1  0
 22 49  1  0
 24 50  1  0
 25 51  1  0
 28 52  1  0
 29 53  1  0
 30 54  1  0
 33 55  1  0
 33 56  1  0
 33 57  1  0
M  END
$$$$
