
     RDKit          3D

 69 71  0  0  0  0  0  0  0  0999 V2000
   -5.4920    3.7035   -1.7665 C   0  0  0  0  0  0  0  0  0  0  0  0
   -4.2914    3.0425   -2.1576 O   0  0  0  0  0  0  0  0  0  0  0  0
   -3.4319    2.8092   -1.1133 C   0  0  0  0  0  0  0  0  0  0  0  0
   -3.0446    3.8473   -0.2571 C   0  0  0  0  0  0  0  0  0  0  0  0
   -2.0900    3.6236    0.7330 C   0  0  0  0  0  0  0  0  0  0  0  0
   -1.5117    2.3620    0.8636 C   0  0  0  0  0  0  0  0  0  0  0  0
   -1.8789    1.2956    0.0106 C   0  0  0  0  0  0  0  0  0  0  0  0
   -1.1698   -0.0393    0.2111 C   0  0  0  0  0  0  0  0  0  0  0  0
   -2.0247   -1.3154   -0.0468 C   0  0  0  0  0  0  0  0  0  0  0  0
   -3.1449   -1.4519    0.4463 O   0  0  0  0  0  0  0  0  0  0  0  0
   -1.4092   -2.3090   -0.7870 N   0  0  0  0  0  0  0  0  0  0  0  0
   -1.9451   -3.6585   -1.0139 C   0  0  0  0  0  0  0  0  0  0  0  0
   -3.3237   -3.6130   -1.6884 C   0  0  0  0  0  0  0  0  0  0  0  0
   -2.0285   -4.4286    0.3136 C   0  0  0  0  0  0  0  0  0  0  0  0
   -0.9807   -4.4056   -1.9560 C   0  0  0  0  0  0  0  0  0  0  0  0
    0.2173   -0.0900   -0.3363 N   0  0  0  0  0  0  0  0  0  0  0  0
    1.2628   -0.7298    0.3443 C   0  0  0  0  0  0  0  0  0  0  0  0
    2.2780   -1.1181   -0.2402 O   0  0  0  0  0  0  0  0  0  0  0  0
    1.0968   -0.9985    1.8327 C   0  0  0  0  0  0  0  0  0  0  0  0
    2.4189   -1.4367    2.4636 C   0  0  0  0  0  0  0  0  0  0  0  0
    3.3970   -0.2764    2.5289 C   0  0  0  0  0  0  0  0  0  0  0  0
    3.0166    0.8902    2.4958 O   0  0  0  0  0  0  0  0  0  0  0  0
    4.6970   -0.6935    2.6876 N   0  0  0  0  0  0  0  0  0  0  0  0
    5.7973    0.1347    2.6828 C   0  0  0  0  0  0  0  0  0  0  0  0
    5.8645    1.5304    2.5001 C   0  0  0  0  0  0  0  0  0  0  0  0
    7.2033    1.8276    2.5658 C   0  0  0  0  0  0  0  0  0  0  0  0
    7.9833    3.0727    2.4682 C   0  0  0  0  0  0  0  0  0  0  0  0
    7.9020    0.6794    2.7591 O   0  0  0  0  0  0  0  0  0  0  0  0
    7.0232   -0.3860    2.8271 N   0  0  0  0  0  0  0  0  0  0  0  0
    0.4387    0.1946   -1.7511 C   0  0  0  0  0  0  0  0  0  0  0  0
    0.1117    1.4691   -2.4868 C   0  0  0  0  0  0  0  0  0  0  0  0
    1.5316    1.1922   -2.1067 C   0  0  0  0  0  0  0  0  0  0  0  0
   -2.8477    1.5333   -0.9837 C   0  0  0  0  0  0  0  0  0  0  0  0
   -3.1046    0.5194   -1.8745 O   0  0  0  0  0  0  0  0  0  0  0  0
   -4.4930    0.1794   -1.9352 C   0  0  0  0  0  0  0  0  0  0  0  0
   -5.3233    4.7722   -1.6152 H   0  0  0  0  0  0  0  0  0  0  0  0
   -5.9239    3.2526   -0.8658 H   0  0  0  0  0  0  0  0  0  0  0  0
   -6.2182    3.5930   -2.5773 H   0  0  0  0  0  0  0  0  0  0  0  0
   -3.4423    4.8507   -0.3765 H   0  0  0  0  0  0  0  0  0  0  0  0
   -1.7778    4.4407    1.3856 H   0  0  0  0  0  0  0  0  0  0  0  0
   -0.7486    2.2129    1.6270 H   0  0  0  0  0  0  0  0  0  0  0  0
   -1.0748   -0.1085    1.3006 H   0  0  0  0  0  0  0  0  0  0  0  0
   -0.4366   -2.1552   -1.0137 H   0  0  0  0  0  0  0  0  0  0  0  0
   -3.6744   -4.6205   -1.9418 H   0  0  0  0  0  0  0  0  0  0  0  0
   -3.2905   -3.0284   -2.6158 H   0  0  0  0  0  0  0  0  0  0  0  0
   -4.0800   -3.1650   -1.0365 H   0  0  0  0  0  0  0  0  0  0  0  0
   -2.7179   -3.9508    1.0219 H   0  0  0  0  0  0  0  0  0  0  0  0
   -2.3798   -5.4557    0.1529 H   0  0  0  0  0  0  0  0  0  0  0  0
   -1.0456   -4.4880    0.7970 H   0  0  0  0  0  0  0  0  0  0  0  0
   -1.3438   -5.4153   -2.1834 H   0  0  0  0  0  0  0  0  0  0  0  0
   -0.8660   -3.8719   -2.9078 H   0  0  0  0  0  0  0  0  0  0  0  0
    0.0211   -4.4931   -1.5095 H   0  0  0  0  0  0  0  0  0  0  0  0
    0.3627   -1.8026    1.9501 H   0  0  0  0  0  0  0  0  0  0  0  0
    0.7273   -0.0988    2.3342 H   0  0  0  0  0  0  0  0  0  0  0  0
    2.2401   -1.7727    3.4890 H   0  0  0  0  0  0  0  0  0  0  0  0
    2.8627   -2.2708    1.9109 H   0  0  0  0  0  0  0  0  0  0  0  0
    4.9247   -1.6768    2.7448 H   0  0  0  0  0  0  0  0  0  0  0  0
    5.0585    2.2272    2.3332 H   0  0  0  0  0  0  0  0  0  0  0  0
    8.8523    3.0397    3.1297 H   0  0  0  0  0  0  0  0  0  0  0  0
    7.3733    3.9343    2.7624 H   0  0  0  0  0  0  0  0  0  0  0  0
    8.3287    3.2326    1.4417 H   0  0  0  0  0  0  0  0  0  0  0  0
    0.4678   -0.7209   -2.3497 H   0  0  0  0  0  0  0  0  0  0  0  0
   -0.3615    2.3076   -1.9927 H   0  0  0  0  0  0  0  0  0  0  0  0
   -0.1651    1.3831   -3.5371 H   0  0  0  0  0  0  0  0  0  0  0  0
    2.2371    0.8983   -2.8735 H   0  0  0  0  0  0  0  0  0  0  0  0
    1.9544    1.8073   -1.3185 H   0  0  0  0  0  0  0  0  0  0  0  0
   -4.5654   -0.8875   -2.1684 H   0  0  0  0  0  0  0  0  0  0  0  0
   -5.0137    0.3488   -0.9852 H   0  0  0  0  0  0  0  0  0  0  0  0
   -4.9890    0.7249   -2.7460 H   0  0  0  0  0  0  0  0  0  0  0  0
  1  2  1  0
  2  3  1  0
  3  4  2  0
  4  5  1  0
  5  6  2  0
  6  7  1  0
  7  8  1  0
  8  9  1  0
  9 10  2  0
  9 11  1  0
 11 12  1  0
 12 13  1  0
 12 14  1  0
 12 15  1  0
  8 16  1  0
 16 17  1  0
 17 18  2  0
 17 19  1  0
 19 20  1  0
 20 21  1  0
 21 22  2  0
 21 23  1  0
 23 24  1  0
 24 25  1  0
 25 26  2  0
 26 27  1  0
 26 28  1  0
 28 29  1  0
 16 30  1  0
 30 31  1  0
 31 32  1  0
  7 33  2  0
 33 34  1  0
 34 35  1  0
 33  3  1  0
 29 24  2  0
 32 30  1  0
  1 36  1  0
  1 37  1  0
  1 38  1  0
  4 39  1  0
  5 40  1  0
  6 41  1  0
  8 42  1  0
 11 43  1  0
 13 44  1  0
 13 45  1  0
 13 46  1  0
 14 47  1  0
 14 48  1  0
 14 49  1  0
 15 50  1  0
 15 51  1  0
 15 52  1  0
 19 53  1  0
 19 54  1  0
 20 55  1  0
 20 56  1  0
 23 57  1  0
 25 58  1  0
 27 59  1  0
 27 60  1  0
 27 61  1  0
 30 62  1  0
 31 63  1  0
 31 64  1  0
 32 65  1  0
 32 66  1  0
 35 67  1  0
 35 68  1  0
 35 69  1  0
M  END
$$$$
