
     RDKit          3D

 24 25  0  0  0  0  0  0  0  0999 V2000
    4.6670    0.6996    0.4948 C   0  0  0  0  0  0  0  0  0  0  0  0
    2.8662    0.8544    0.4863 S   0  0  0  0  0  0  0  0  0  0  0  0
    2.4117   -0.5768   -0.3787 C   0  0  0  0  0  0  0  0  0  0  0  0
    3.2804   -1.4318   -0.8747 N   0  0  0  0  0  0  0  0  0  0  0  0
    2.5601   -2.3459   -1.5817 N   0  0  0  0  0  0  0  0  0  0  0  0
    1.2684   -2.0701   -1.5364 N   0  0  0  0  0  0  0  0  0  0  0  0
    1.1259   -0.9707   -0.7406 N   0  0  0  0  0  0  0  0  0  0  0  0
   -0.1830   -0.4814   -0.4515 C   0  0  0  0  0  0  0  0  0  0  0  0
   -1.2720   -1.0126   -1.1661 C   0  0  0  0  0  0  0  0  0  0  0  0
   -2.5771   -0.5701   -0.9259 C   0  0  0  0  0  0  0  0  0  0  0  0
   -2.8338    0.4089    0.0398 C   0  0  0  0  0  0  0  0  0  0  0  0
   -4.2456    0.8647    0.2780 C   0  0  0  0  0  0  0  0  0  0  0  0
   -1.7515    0.9258    0.7642 C   0  0  0  0  0  0  0  0  0  0  0  0
   -1.9841    2.1216    1.9923 Cl  0  0  0  0  0  0  0  0  0  0  0  0
   -0.4405    0.4849    0.5252 C   0  0  0  0  0  0  0  0  0  0  0  0
    4.9738   -0.2160    1.0081 H   0  0  0  0  0  0  0  0  0  0  0  0
    5.0595    0.6955   -0.5259 H   0  0  0  0  0  0  0  0  0  0  0  0
    5.0973    1.5531    1.0258 H   0  0  0  0  0  0  0  0  0  0  0  0
   -1.1306   -1.7746   -1.9328 H   0  0  0  0  0  0  0  0  0  0  0  0
   -3.3925   -1.0013   -1.5047 H   0  0  0  0  0  0  0  0  0  0  0  0
   -4.5527    0.6356    1.3035 H   0  0  0  0  0  0  0  0  0  0  0  0
   -4.3355    1.9410    0.0989 H   0  0  0  0  0  0  0  0  0  0  0  0
   -4.9481    0.3621   -0.3955 H   0  0  0  0  0  0  0  0  0  0  0  0
    0.3370    0.9039    1.1509 H   0  0  0  0  0  0  0  0  0  0  0  0
  1  2  1  0
  2  3  1  0
  3  4  2  0
  4  5  1  0
  5  6  2  0
  6  7  1  0
  7  8  1  0
  8  9  2  0
  9 10  1  0
 10 11  2  0
 11 12  1  0
 11 13  1  0
 13 14  1  0
 13 15  2  0
  7  3  1  0
 15  8  1  0
  1 16  1  0
  1 17  1  0
  1 18  1  0
  9 19  1  0
 10 20  1  0
 12 21  1  0
 12 22  1  0
 12 23  1  0
 15 24  1  0
M  END
$$$$
