
     RDKit          3D

 53 55  0  0  0  0  0  0  0  0999 V2000
   -5.4929   -0.9211   -2.1756 C   0  0  0  0  0  0  0  0  0  0  0  0
   -6.0085   -1.8816   -1.2545 O   0  0  0  0  0  0  0  0  0  0  0  0
   -6.1985   -1.3308   -0.0151 C   0  0  0  0  0  0  0  0  0  0  0  0
   -7.1763   -0.3490    0.1736 C   0  0  0  0  0  0  0  0  0  0  0  0
   -7.3987    0.1789    1.4430 C   0  0  0  0  0  0  0  0  0  0  0  0
   -6.6566   -0.2851    2.5253 C   0  0  0  0  0  0  0  0  0  0  0  0
   -5.6949   -1.2812    2.3401 C   0  0  0  0  0  0  0  0  0  0  0  0
   -5.4541   -1.8217    1.0656 C   0  0  0  0  0  0  0  0  0  0  0  0
   -4.4118   -2.8972    0.8889 C   0  0  0  0  0  0  0  0  0  0  0  0
   -3.0904   -2.4118    1.2057 N   0  0  0  0  0  0  0  0  0  0  0  0
   -2.2594   -1.8574    0.2626 C   0  0  0  0  0  0  0  0  0  0  0  0
   -2.4409   -1.8157   -0.9462 O   0  0  0  0  0  0  0  0  0  0  0  0
   -0.9858   -1.2240    0.8693 C   0  0  0  0  0  0  0  0  0  0  0  0
   -0.8185   -1.2292    2.0806 O   0  0  0  0  0  0  0  0  0  0  0  0
   -0.1468   -0.6790   -0.0726 N   0  0  0  0  0  0  0  0  0  0  0  0
    1.0795    0.0226    0.2685 C   0  0  0  0  0  0  0  0  0  0  0  0
    2.3068   -0.5002   -0.5013 C   0  0  0  0  0  0  0  0  0  0  0  0
    2.6238   -1.8373   -0.0725 O   0  0  0  0  0  0  0  0  0  0  0  0
    4.0321   -1.9676   -0.2705 C   0  0  0  0  0  0  0  0  0  0  0  0
    4.5726   -0.6281    0.1750 C   0  0  0  0  0  0  0  0  0  0  0  0
    3.5038    0.3210   -0.2004 N   0  0  0  0  0  0  0  0  0  0  0  0
    3.8554    1.4538   -1.4003 S   0  0  0  0  0  6  0  0  0  0  0  0
    2.6728    2.2584   -1.6125 O   0  0  0  0  0  0  0  0  0  0  0  0
    4.4868    0.7414   -2.4907 O   0  0  0  0  0  0  0  0  0  0  0  0
    5.0676    2.4804   -0.6100 C   0  0  0  0  0  0  0  0  0  0  0  0
    4.6875    3.2457    0.4970 C   0  0  0  0  0  0  0  0  0  0  0  0
    5.6337    4.0522    1.1327 C   0  0  0  0  0  0  0  0  0  0  0  0
    6.9445    4.0900    0.6549 C   0  0  0  0  0  0  0  0  0  0  0  0
    8.2245    5.1790    1.5205 Br  0  0  0  0  0  0  0  0  0  0  0  0
    7.3199    3.3323   -0.4558 C   0  0  0  0  0  0  0  0  0  0  0  0
    6.3777    2.5240   -1.0958 C   0  0  0  0  0  0  0  0  0  0  0  0
   -4.7052   -0.3044   -1.7292 H   0  0  0  0  0  0  0  0  0  0  0  0
   -6.2993   -0.2892   -2.5612 H   0  0  0  0  0  0  0  0  0  0  0  0
   -5.0585   -1.4659   -3.0181 H   0  0  0  0  0  0  0  0  0  0  0  0
   -7.7764   -0.0038   -0.6626 H   0  0  0  0  0  0  0  0  0  0  0  0
   -8.1566    0.9443    1.5881 H   0  0  0  0  0  0  0  0  0  0  0  0
   -6.8319    0.1230    3.5169 H   0  0  0  0  0  0  0  0  0  0  0  0
   -5.1333   -1.6381    3.1998 H   0  0  0  0  0  0  0  0  0  0  0  0
   -4.6301   -3.7264    1.5716 H   0  0  0  0  0  0  0  0  0  0  0  0
   -4.4080   -3.3077   -0.1260 H   0  0  0  0  0  0  0  0  0  0  0  0
   -2.8238   -2.2686    2.1746 H   0  0  0  0  0  0  0  0  0  0  0  0
   -0.4761   -0.7044   -1.0346 H   0  0  0  0  0  0  0  0  0  0  0  0
    0.9033    1.0780    0.0393 H   0  0  0  0  0  0  0  0  0  0  0  0
    1.2536   -0.0593    1.3471 H   0  0  0  0  0  0  0  0  0  0  0  0
    2.0987   -0.5464   -1.5776 H   0  0  0  0  0  0  0  0  0  0  0  0
    4.4238   -2.8010    0.3179 H   0  0  0  0  0  0  0  0  0  0  0  0
    4.2237   -2.1546   -1.3330 H   0  0  0  0  0  0  0  0  0  0  0  0
    4.6750   -0.5929    1.2655 H   0  0  0  0  0  0  0  0  0  0  0  0
    5.5499   -0.4143   -0.2645 H   0  0  0  0  0  0  0  0  0  0  0  0
    3.6635    3.2176    0.8638 H   0  0  0  0  0  0  0  0  0  0  0  0
    5.3397    4.6460    1.9942 H   0  0  0  0  0  0  0  0  0  0  0  0
    8.3403    3.3664   -0.8307 H   0  0  0  0  0  0  0  0  0  0  0  0
    6.6725    1.9401   -1.9643 H   0  0  0  0  0  0  0  0  0  0  0  0
  1  2  1  0
  2  3  1  0
  3  4  2  0
  4  5  1  0
  5  6  2  0
  6  7  1  0
  7  8  2  0
  8  9  1  0
  9 10  1  0
 10 11  1  0
 11 12  2  0
 11 13  1  0
 13 14  2  0
 13 15  1  0
 15 16  1  0
 16 17  1  0
 17 18  1  0
 18 19  1  0
 19 20  1  0
 20 21  1  0
 21 22  1  0
 22 23  2  0
 22 24  2  0
 22 25  1  0
 25 26  2  0
 26 27  1  0
 27 28  2  0
 28 29  1  0
 28 30  1  0
 30 31  2  0
  8  3  1  0
 21 17  1  0
 31 25  1  0
  1 32  1  0
  1 33  1  0
  1 34  1  0
  4 35  1  0
  5 36  1  0
  6 37  1  0
  7 38  1  0
  9 39  1  0
  9 40  1  0
 10 41  1  0
 15 42  1  0
 16 43  1  0
 16 44  1  0
 17 45  1  0
 19 46  1  0
 19 47  1  0
 20 48  1  0
 20 49  1  0
 26 50  1  0
 27 51  1  0
 30 52  1  0
 31 53  1  0
M  END
$$$$
