
     RDKit          3D

 65 69  0  0  0  0  0  0  0  0999 V2000
    6.2817   -0.9599    2.0074 O   0  0  0  0  0  0  0  0  0  0  0  0
    6.6488   -0.5157    0.9133 C   0  0  0  0  0  0  0  0  0  0  0  0
    8.1293   -0.6325    0.4453 C   0  0  0  0  0  0  0  0  0  0  0  0
    8.5146   -1.8663   -0.4208 C   0  0  0  0  0  0  0  0  0  0  0  0
    9.8821   -1.8506    0.2895 C   0  0  0  0  0  0  0  0  0  0  0  0
    9.1720   -1.1685    1.4727 C   0  0  0  0  0  0  0  0  0  0  0  0
    5.7854    0.1198    0.0249 N   0  0  0  0  0  0  0  0  0  0  0  0
    6.1605    0.6595   -1.2924 C   0  0  0  0  0  0  0  0  0  0  0  0
    4.8813    1.1667   -1.9675 C   0  0  0  0  0  0  0  0  0  0  0  0
    3.8862    1.0680   -0.8566 C   0  0  0  0  0  0  0  0  0  0  0  0
    2.5683    1.5012   -0.8729 C   0  0  0  0  0  0  0  0  0  0  0  0
    1.7991    1.2928    0.2754 C   0  0  0  0  0  0  0  0  0  0  0  0
    0.1199    1.8628    0.3240 S   0  0  0  0  0  6  0  0  0  0  0  0
   -0.0199    2.6859    1.5040 O   0  0  0  0  0  0  0  0  0  0  0  0
   -0.2444    2.3513   -0.9881 O   0  0  0  0  0  0  0  0  0  0  0  0
   -0.7366    0.4532    0.6120 N   0  0  0  0  0  0  0  0  0  0  0  0
   -1.0339   -0.4504   -0.5126 C   0  0  0  0  0  0  0  0  0  0  0  0
   -2.2968   -1.2720   -0.1678 C   0  0  0  0  0  0  0  0  0  0  0  0
   -3.4103   -0.4360    0.3368 N   0  0  0  0  0  0  0  0  0  0  0  0
   -4.5466   -1.2654    0.8113 C   0  0  0  0  0  0  0  0  0  0  0  0
   -5.6858   -1.4583   -0.2152 C   0  0  0  0  0  0  0  0  0  0  0  0
   -6.2501   -0.1691   -0.6735 N   0  0  0  0  0  0  0  0  0  0  0  0
   -7.5592    0.1635   -0.2692 C   0  0  0  0  0  0  0  0  0  0  0  0
   -8.3376    0.9511   -1.1354 C   0  0  0  0  0  0  0  0  0  0  0  0
   -9.6378    1.3430   -0.7987 C   0  0  0  0  0  0  0  0  0  0  0  0
  -10.1885    0.9604    0.4214 C   0  0  0  0  0  0  0  0  0  0  0  0
   -9.4370    0.1873    1.3022 C   0  0  0  0  0  0  0  0  0  0  0  0
   -8.1422   -0.2027    0.9571 C   0  0  0  0  0  0  0  0  0  0  0  0
   -7.4475   -0.9122    1.8613 F   0  0  0  0  0  0  0  0  0  0  0  0
   -5.3336    0.9874   -0.5235 C   0  0  0  0  0  0  0  0  0  0  0  0
   -3.8643    0.5411   -0.6896 C   0  0  0  0  0  0  0  0  0  0  0  0
    2.3384    0.6551    1.4054 C   0  0  0  0  0  0  0  0  0  0  0  0
    3.6671    0.2154    1.3975 C   0  0  0  0  0  0  0  0  0  0  0  0
    4.4331    0.4332    0.2625 C   0  0  0  0  0  0  0  0  0  0  0  0
    8.4932    0.3087    0.0078 H   0  0  0  0  0  0  0  0  0  0  0  0
    7.9154   -2.7618   -0.2109 H   0  0  0  0  0  0  0  0  0  0  0  0
    8.5438   -1.7050   -1.5024 H   0  0  0  0  0  0  0  0  0  0  0  0
   10.6291   -1.2162   -0.2015 H   0  0  0  0  0  0  0  0  0  0  0  0
   10.3226   -2.8281    0.4954 H   0  0  0  0  0  0  0  0  0  0  0  0
    9.7514   -0.4081    2.0005 H   0  0  0  0  0  0  0  0  0  0  0  0
    8.7721   -1.8797    2.2043 H   0  0  0  0  0  0  0  0  0  0  0  0
    6.8709    1.4803   -1.1383 H   0  0  0  0  0  0  0  0  0  0  0  0
    6.6526   -0.1150   -1.8894 H   0  0  0  0  0  0  0  0  0  0  0  0
    4.5907    0.5147   -2.7980 H   0  0  0  0  0  0  0  0  0  0  0  0
    5.0013    2.1926   -2.3284 H   0  0  0  0  0  0  0  0  0  0  0  0
    2.1545    1.9946   -1.7477 H   0  0  0  0  0  0  0  0  0  0  0  0
   -1.5241    0.6045    1.2515 H   0  0  0  0  0  0  0  0  0  0  0  0
   -1.2125    0.1093   -1.4355 H   0  0  0  0  0  0  0  0  0  0  0  0
   -0.1829   -1.1183   -0.6780 H   0  0  0  0  0  0  0  0  0  0  0  0
   -2.6040   -1.8644   -1.0389 H   0  0  0  0  0  0  0  0  0  0  0  0
   -2.0139   -1.9807    0.6218 H   0  0  0  0  0  0  0  0  0  0  0  0
   -4.1998   -2.2449    1.1630 H   0  0  0  0  0  0  0  0  0  0  0  0
   -4.9552   -0.7643    1.6978 H   0  0  0  0  0  0  0  0  0  0  0  0
   -5.2767   -1.9659   -1.0990 H   0  0  0  0  0  0  0  0  0  0  0  0
   -6.4495   -2.1388    0.1777 H   0  0  0  0  0  0  0  0  0  0  0  0
   -7.9250    1.2549   -2.0956 H   0  0  0  0  0  0  0  0  0  0  0  0
  -10.2167    1.9483   -1.4931 H   0  0  0  0  0  0  0  0  0  0  0  0
  -11.1952    1.2695    0.6884 H   0  0  0  0  0  0  0  0  0  0  0  0
   -9.8416   -0.1070    2.2647 H   0  0  0  0  0  0  0  0  0  0  0  0
   -5.5601    1.7421   -1.2874 H   0  0  0  0  0  0  0  0  0  0  0  0
   -5.4565    1.4591    0.4617 H   0  0  0  0  0  0  0  0  0  0  0  0
   -3.2240    1.4285   -0.6395 H   0  0  0  0  0  0  0  0  0  0  0  0
   -3.7569    0.1149   -1.6969 H   0  0  0  0  0  0  0  0  0  0  0  0
    1.7290    0.5074    2.2944 H   0  0  0  0  0  0  0  0  0  0  0  0
    4.0724   -0.2702    2.2789 H   0  0  0  0  0  0  0  0  0  0  0  0
  1  2  2  0
  2  3  1  0
  3  4  1  0
  4  5  1  0
  5  6  1  0
  2  7  1  0
  7  8  1  0
  8  9  1  0
  9 10  1  0
 10 11  2  0
 11 12  1  0
 12 13  1  0
 13 14  2  0
 13 15  2  0
 13 16  1  0
 16 17  1  0
 17 18  1  0
 18 19  1  0
 19 20  1  0
 20 21  1  0
 21 22  1  0
 22 23  1  0
 23 24  2  0
 24 25  1  0
 25 26  2  0
 26 27  1  0
 27 28  2  0
 28 29  1  0
 22 30  1  0
 30 31  1  0
 12 32  2  0
 32 33  1  0
 33 34  2  0
  6  3  1  0
 34  7  1  0
 34 10  1  0
 31 19  1  0
 28 23  1  0
  3 35  1  0
  4 36  1  0
  4 37  1  0
  5 38  1  0
  5 39  1  0
  6 40  1  0
  6 41  1  0
  8 42  1  0
  8 43  1  0
  9 44  1  0
  9 45  1  0
 11 46  1  0
 16 47  1  0
 17 48  1  0
 17 49  1  0
 18 50  1  0
 18 51  1  0
 20 52  1  0
 20 53  1  0
 21 54  1  0
 21 55  1  0
 24 56  1  0
 25 57  1  0
 26 58  1  0
 27 59  1  0
 30 60  1  0
 30 61  1  0
 31 62  1  0
 31 63  1  0
 32 64  1  0
 33 65  1  0
M  END
$$$$
