
     RDKit          3D

 63 67  0  0  0  0  0  0  0  0999 V2000
    2.9557    6.0497   -1.4513 C   0  0  0  0  0  0  0  0  0  0  0  0
    2.2495    4.9830   -2.0718 O   0  0  0  0  0  0  0  0  0  0  0  0
    2.6316    3.7128   -1.7394 C   0  0  0  0  0  0  0  0  0  0  0  0
    1.9371    2.7006   -2.4049 C   0  0  0  0  0  0  0  0  0  0  0  0
    2.2268    1.3553   -2.1597 C   0  0  0  0  0  0  0  0  0  0  0  0
    3.2185    1.0003   -1.2386 C   0  0  0  0  0  0  0  0  0  0  0  0
    3.5103   -0.4140   -0.9653 C   0  0  0  0  0  0  0  0  0  0  0  0
    5.0858   -0.9972   -1.2972 S   0  0  0  0  0  0  0  0  0  0  0  0
    4.7016   -2.5938   -0.8003 C   0  0  0  0  0  0  0  0  0  0  0  0
    5.5654   -3.7060   -0.7901 C   0  0  0  0  0  0  0  0  0  0  0  0
    5.0851   -4.9427   -0.3446 C   0  0  0  0  0  0  0  0  0  0  0  0
    3.7728   -5.0775    0.0865 C   0  0  0  0  0  0  0  0  0  0  0  0
    3.1901   -6.2269    0.5457 O   0  0  0  0  0  0  0  0  0  0  0  0
    4.0032   -7.3928    0.5822 C   0  0  0  0  0  0  0  0  0  0  0  0
    2.9249   -3.9635    0.0705 C   0  0  0  0  0  0  0  0  0  0  0  0
    3.3753   -2.6945   -0.3811 C   0  0  0  0  0  0  0  0  0  0  0  0
    2.6876   -1.4245   -0.4872 C   0  0  0  0  0  0  0  0  0  0  0  0
    1.2891   -1.1836   -0.1410 C   0  0  0  0  0  0  0  0  0  0  0  0
    0.2719   -1.8023   -0.8737 C   0  0  0  0  0  0  0  0  0  0  0  0
   -1.0658   -1.5681   -0.5475 C   0  0  0  0  0  0  0  0  0  0  0  0
   -1.4041   -0.7153    0.5059 C   0  0  0  0  0  0  0  0  0  0  0  0
   -2.7473   -0.5732    0.7147 O   0  0  0  0  0  0  0  0  0  0  0  0
   -3.1584    0.4340    1.6399 C   0  0  0  0  0  0  0  0  0  0  0  0
   -4.6981    0.5279    1.6524 C   0  0  0  0  0  0  0  0  0  0  0  0
   -5.3169    0.9179    0.3693 N   0  0  0  0  0  0  0  0  0  0  0  0
   -6.7890    0.7704    0.4112 C   0  0  0  0  0  0  0  0  0  0  0  0
   -7.5032    1.8716    1.2139 C   0  0  0  0  0  0  0  0  0  0  0  0
   -7.1636    3.1776    0.7318 O   0  0  0  0  0  0  0  0  0  0  0  0
   -5.7452    3.3794    0.7592 C   0  0  0  0  0  0  0  0  0  0  0  0
   -5.0068    2.3001   -0.0511 C   0  0  0  0  0  0  0  0  0  0  0  0
   -0.3897   -0.1069    1.2456 C   0  0  0  0  0  0  0  0  0  0  0  0
    0.9522   -0.3414    0.9244 C   0  0  0  0  0  0  0  0  0  0  0  0
    3.9109    2.0197   -0.5705 C   0  0  0  0  0  0  0  0  0  0  0  0
    3.6211    3.3673   -0.8196 C   0  0  0  0  0  0  0  0  0  0  0  0
    4.0198    6.0216   -1.7080 H   0  0  0  0  0  0  0  0  0  0  0  0
    2.5458    6.9893   -1.8342 H   0  0  0  0  0  0  0  0  0  0  0  0
    2.8095    6.0407   -0.3663 H   0  0  0  0  0  0  0  0  0  0  0  0
    1.1623    2.9599   -3.1223 H   0  0  0  0  0  0  0  0  0  0  0  0
    1.6701    0.5892   -2.6945 H   0  0  0  0  0  0  0  0  0  0  0  0
    6.5949   -3.6072   -1.1237 H   0  0  0  0  0  0  0  0  0  0  0  0
    5.7743   -5.7810   -0.3487 H   0  0  0  0  0  0  0  0  0  0  0  0
    4.8521   -7.2610    1.2611 H   0  0  0  0  0  0  0  0  0  0  0  0
    3.3924   -8.2143    0.9689 H   0  0  0  0  0  0  0  0  0  0  0  0
    4.3387   -7.6717   -0.4222 H   0  0  0  0  0  0  0  0  0  0  0  0
    1.8992   -4.0771    0.4155 H   0  0  0  0  0  0  0  0  0  0  0  0
    0.5098   -2.4628   -1.7041 H   0  0  0  0  0  0  0  0  0  0  0  0
   -1.8534   -2.0481   -1.1236 H   0  0  0  0  0  0  0  0  0  0  0  0
   -2.7159    1.4033    1.3861 H   0  0  0  0  0  0  0  0  0  0  0  0
   -2.8321    0.1493    2.6479 H   0  0  0  0  0  0  0  0  0  0  0  0
   -4.9993    1.2030    2.4611 H   0  0  0  0  0  0  0  0  0  0  0  0
   -5.0691   -0.4720    1.9129 H   0  0  0  0  0  0  0  0  0  0  0  0
   -7.1504    0.8082   -0.6248 H   0  0  0  0  0  0  0  0  0  0  0  0
   -7.0691   -0.2183    0.7933 H   0  0  0  0  0  0  0  0  0  0  0  0
   -7.2679    1.8110    2.2824 H   0  0  0  0  0  0  0  0  0  0  0  0
   -8.5871    1.7562    1.1108 H   0  0  0  0  0  0  0  0  0  0  0  0
   -5.5470    4.3642    0.3238 H   0  0  0  0  0  0  0  0  0  0  0  0
   -5.4056    3.4075    1.8006 H   0  0  0  0  0  0  0  0  0  0  0  0
   -3.9296    2.4917   -0.0426 H   0  0  0  0  0  0  0  0  0  0  0  0
   -5.3131    2.3936   -1.1016 H   0  0  0  0  0  0  0  0  0  0  0  0
   -0.6050    0.5512    2.0801 H   0  0  0  0  0  0  0  0  0  0  0  0
    1.7310    0.1399    1.5115 H   0  0  0  0  0  0  0  0  0  0  0  0
    4.6808    1.7728    0.1574 H   0  0  0  0  0  0  0  0  0  0  0  0
    4.1853    4.1174   -0.2762 H   0  0  0  0  0  0  0  0  0  0  0  0
  1  2  1  0
  2  3  1  0
  3  4  2  0
  4  5  1  0
  5  6  2  0
  6  7  1  0
  7  8  1  0
  8  9  1  0
  9 10  2  0
 10 11  1  0
 11 12  2  0
 12 13  1  0
 13 14  1  0
 12 15  1  0
 15 16  2  0
 16 17  1  0
 17 18  1  0
 18 19  2  0
 19 20  1  0
 20 21  2  0
 21 22  1  0
 22 23  1  0
 23 24  1  0
 24 25  1  0
 25 26  1  0
 26 27  1  0
 27 28  1  0
 28 29  1  0
 29 30  1  0
 21 31  1  0
 31 32  2  0
  6 33  1  0
 33 34  2  0
 34  3  1  0
 17  7  2  0
 32 18  1  0
 16  9  1  0
 30 25  1  0
  1 35  1  0
  1 36  1  0
  1 37  1  0
  4 38  1  0
  5 39  1  0
 10 40  1  0
 11 41  1  0
 14 42  1  0
 14 43  1  0
 14 44  1  0
 15 45  1  0
 19 46  1  0
 20 47  1  0
 23 48  1  0
 23 49  1  0
 24 50  1  0
 24 51  1  0
 26 52  1  0
 26 53  1  0
 27 54  1  0
 27 55  1  0
 29 56  1  0
 29 57  1  0
 30 58  1  0
 30 59  1  0
 31 60  1  0
 32 61  1  0
 33 62  1  0
 34 63  1  0
M  END
$$$$
