
     RDKit          3D

 57 60  0  0  0  0  0  0  0  0999 V2000
    5.4335    2.4049   -1.5520 C   0  0  0  0  0  0  0  0  0  0  0  0
    4.3892    1.4243   -1.1338 C   0  0  0  0  0  0  0  0  0  0  0  0
    3.0513    1.4468   -1.4748 C   0  0  0  0  0  0  0  0  0  0  0  0
    2.4014    0.4099   -0.7728 C   0  0  0  0  0  0  0  0  0  0  0  0
    1.0094    0.0819   -0.7898 C   0  0  0  0  0  0  0  0  0  0  0  0
    0.0663    0.7446   -1.4805 C   0  0  0  0  0  0  0  0  0  0  0  0
   -1.3465    0.3714   -1.4000 C   0  0  0  0  0  0  0  0  0  0  0  0
   -1.8495   -0.5078   -2.3570 C   0  0  0  0  0  0  0  0  0  0  0  0
   -3.1692   -0.9170   -2.2896 C   0  0  0  0  0  0  0  0  0  0  0  0
   -3.9765   -0.4686   -1.2467 C   0  0  0  0  0  0  0  0  0  0  0  0
   -5.3151   -0.9022   -1.1509 C   0  0  0  0  0  0  0  0  0  0  0  0
   -6.1709   -0.5151   -0.1060 C   0  0  0  0  0  0  0  0  0  0  0  0
   -7.4978   -0.9308   -0.0340 N   0  0  0  0  0  0  0  0  0  0  0  0
   -8.0227   -1.9098   -0.9898 C   0  0  0  0  0  0  0  0  0  0  0  0
   -8.2077   -0.8667    1.2463 C   0  0  0  0  0  0  0  0  0  0  0  0
   -5.6149    0.3523    0.8447 C   0  0  0  0  0  0  0  0  0  0  0  0
   -4.2889    0.8085    0.7673 C   0  0  0  0  0  0  0  0  0  0  0  0
   -3.4438    0.4182   -0.2815 C   0  0  0  0  0  0  0  0  0  0  0  0
   -2.1453    0.8483   -0.4023 N   0  0  0  0  0  4  0  0  0  0  0  0
   -1.6130    1.8433    0.5619 C   0  0  0  0  0  0  0  0  0  0  0  0
    3.3669   -0.2685   -0.0424 C   0  0  0  0  0  0  0  0  0  0  0  0
    3.2242   -1.5219    0.7658 C   0  0  0  0  0  0  0  0  0  0  0  0
    4.5941    0.3771   -0.2380 N   0  0  0  0  0  0  0  0  0  0  0  0
    5.8311    0.0446    0.3891 C   0  0  0  0  0  0  0  0  0  0  0  0
    5.8729   -0.2164    1.7657 C   0  0  0  0  0  0  0  0  0  0  0  0
    7.0879   -0.5264    2.3818 C   0  0  0  0  0  0  0  0  0  0  0  0
    8.2604   -0.5773    1.6295 C   0  0  0  0  0  0  0  0  0  0  0  0
    8.2216   -0.3233    0.2592 C   0  0  0  0  0  0  0  0  0  0  0  0
    7.0107   -0.0098   -0.3629 C   0  0  0  0  0  0  0  0  0  0  0  0
    4.9661    3.3318   -1.9070 H   0  0  0  0  0  0  0  0  0  0  0  0
    6.0923    2.6780   -0.7204 H   0  0  0  0  0  0  0  0  0  0  0  0
    6.0337    2.0061   -2.3756 H   0  0  0  0  0  0  0  0  0  0  0  0
    2.6110    2.1730   -2.1480 H   0  0  0  0  0  0  0  0  0  0  0  0
    0.7050   -0.7625   -0.1728 H   0  0  0  0  0  0  0  0  0  0  0  0
    0.3013    1.5873   -2.1243 H   0  0  0  0  0  0  0  0  0  0  0  0
   -1.2123   -0.8832   -3.1577 H   0  0  0  0  0  0  0  0  0  0  0  0
   -3.5542   -1.6034   -3.0458 H   0  0  0  0  0  0  0  0  0  0  0  0
   -5.6850   -1.5756   -1.9240 H   0  0  0  0  0  0  0  0  0  0  0  0
   -7.9014   -1.5591   -2.0236 H   0  0  0  0  0  0  0  0  0  0  0  0
   -9.0981   -2.0666   -0.8486 H   0  0  0  0  0  0  0  0  0  0  0  0
   -7.5253   -2.8806   -0.8696 H   0  0  0  0  0  0  0  0  0  0  0  0
   -8.3194    0.1680    1.5876 H   0  0  0  0  0  0  0  0  0  0  0  0
   -9.2238   -1.2694    1.1627 H   0  0  0  0  0  0  0  0  0  0  0  0
   -7.6843   -1.4514    2.0123 H   0  0  0  0  0  0  0  0  0  0  0  0
   -6.2129    0.7134    1.6796 H   0  0  0  0  0  0  0  0  0  0  0  0
   -3.9629    1.4698    1.5653 H   0  0  0  0  0  0  0  0  0  0  0  0
   -1.4487    1.3294    1.5138 H   0  0  0  0  0  0  0  0  0  0  0  0
   -2.3396    2.6560    0.6619 H   0  0  0  0  0  0  0  0  0  0  0  0
   -0.6839    2.2947    0.2123 H   0  0  0  0  0  0  0  0  0  0  0  0
    4.1398   -2.1214    0.7731 H   0  0  0  0  0  0  0  0  0  0  0  0
    2.4454   -2.1686    0.3475 H   0  0  0  0  0  0  0  0  0  0  0  0
    2.9437   -1.2789    1.7955 H   0  0  0  0  0  0  0  0  0  0  0  0
    4.9827   -0.1435    2.3829 H   0  0  0  0  0  0  0  0  0  0  0  0
    7.1239   -0.7169    3.4527 H   0  0  0  0  0  0  0  0  0  0  0  0
    9.2059   -0.8164    2.1115 H   0  0  0  0  0  0  0  0  0  0  0  0
    9.1360   -0.3730   -0.3265 H   0  0  0  0  0  0  0  0  0  0  0  0
    7.0055    0.1483   -1.4383 H   0  0  0  0  0  0  0  0  0  0  0  0
  1  2  1  0
  2  3  2  0
  3  4  1  0
  4  5  1  0
  5  6  2  3
  6  7  1  0
  7  8  2  0
  8  9  1  0
  9 10  2  0
 10 11  1  0
 11 12  2  0
 12 13  1  0
 13 14  1  0
 13 15  1  0
 12 16  1  0
 16 17  2  0
 17 18  1  0
 18 19  2  0
 19 20  1  0
  4 21  2  0
 21 22  1  0
 21 23  1  0
 23 24  1  0
 24 25  2  0
 25 26  1  0
 26 27  2  0
 27 28  1  0
 28 29  2  0
 23  2  1  0
 29 24  1  0
 19  7  1  0
 18 10  1  0
  1 30  1  0
  1 31  1  0
  1 32  1  0
  3 33  1  0
  5 34  1  0
  6 35  1  0
  8 36  1  0
  9 37  1  0
 11 38  1  0
 14 39  1  0
 14 40  1  0
 14 41  1  0
 15 42  1  0
 15 43  1  0
 15 44  1  0
 16 45  1  0
 17 46  1  0
 20 47  1  0
 20 48  1  0
 20 49  1  0
 22 50  1  0
 22 51  1  0
 22 52  1  0
 25 53  1  0
 26 54  1  0
 27 55  1  0
 28 56  1  0
 29 57  1  0
M  CHG  1  19   1
M  END
$$$$
