
     RDKit          3D

 36 35  0  0  0  0  0  0  0  0999 V2000
    4.0676   -1.2649   -1.7794 C   0  0  0  0  0  0  0  0  0  0  0  0
    3.0924   -0.9537   -0.6528 C   0  0  0  0  0  0  0  0  0  0  0  0
    1.7223   -1.3990   -0.9665 N   0  0  0  0  0  0  0  0  0  0  0  0
    1.4354   -2.7948   -0.5861 C   0  0  0  0  0  0  0  0  0  0  0  0
    0.8745   -2.9017    0.8240 C   0  0  0  0  0  0  0  0  0  0  0  0
    0.7682   -0.6014   -1.6361 C   0  0  0  0  0  0  0  0  0  0  0  0
   -0.8000   -1.0869   -2.0282 S   0  0  0  0  0  0  0  0  0  0  0  0
    1.2901    1.0100   -2.1641 S   0  0  0  0  0  0  0  0  0  0  0  0
    0.8557    2.1790   -0.5150 S   0  0  0  0  0  0  0  0  0  0  0  0
   -0.8531    2.6349   -0.7395 C   0  0  0  0  0  0  0  0  0  0  0  0
   -1.3270    3.4209   -2.1605 S   0  0  0  0  0  0  0  0  0  0  0  0
   -1.7138    2.3710    0.3527 N   0  0  0  0  0  0  0  0  0  0  0  0
   -1.2376    1.9627    1.6879 C   0  0  0  0  0  0  0  0  0  0  0  0
   -1.2139    0.4580    1.8901 C   0  0  0  0  0  0  0  0  0  0  0  0
   -3.1798    2.4892    0.2197 C   0  0  0  0  0  0  0  0  0  0  0  0
   -3.8163    1.2947   -0.4769 C   0  0  0  0  0  0  0  0  0  0  0  0
    3.7761   -0.7736   -2.7123 H   0  0  0  0  0  0  0  0  0  0  0  0
    5.0730   -0.9237   -1.5139 H   0  0  0  0  0  0  0  0  0  0  0  0
    4.1154   -2.3410   -1.9744 H   0  0  0  0  0  0  0  0  0  0  0  0
    3.1145    0.1148   -0.4295 H   0  0  0  0  0  0  0  0  0  0  0  0
    3.4178   -1.4551    0.2663 H   0  0  0  0  0  0  0  0  0  0  0  0
    2.3632   -3.3743   -0.6572 H   0  0  0  0  0  0  0  0  0  0  0  0
    0.7420   -3.2543   -1.2960 H   0  0  0  0  0  0  0  0  0  0  0  0
   -0.0869   -2.3882    0.9116 H   0  0  0  0  0  0  0  0  0  0  0  0
    1.5569   -2.4594    1.5568 H   0  0  0  0  0  0  0  0  0  0  0  0
    0.7212   -3.9519    1.0909 H   0  0  0  0  0  0  0  0  0  0  0  0
   -1.8827    2.4266    2.4433 H   0  0  0  0  0  0  0  0  0  0  0  0
   -0.2420    2.3745    1.8757 H   0  0  0  0  0  0  0  0  0  0  0  0
   -2.2177    0.0304    1.8224 H   0  0  0  0  0  0  0  0  0  0  0  0
   -0.8163    0.2176    2.8811 H   0  0  0  0  0  0  0  0  0  0  0  0
   -0.5852   -0.0345    1.1460 H   0  0  0  0  0  0  0  0  0  0  0  0
   -3.4278    3.4069   -0.3224 H   0  0  0  0  0  0  0  0  0  0  0  0
   -3.6232    2.6035    1.2154 H   0  0  0  0  0  0  0  0  0  0  0  0
   -4.9009    1.4304   -0.5372 H   0  0  0  0  0  0  0  0  0  0  0  0
   -3.6241    0.3657    0.0662 H   0  0  0  0  0  0  0  0  0  0  0  0
   -3.4379    1.1678   -1.4946 H   0  0  0  0  0  0  0  0  0  0  0  0
  1  2  1  0
  2  3  1  0
  3  4  1  0
  4  5  1  0
  3  6  1  0
  6  7  2  0
  6  8  1  0
  8  9  1  0
  9 10  1  0
 10 11  2  0
 10 12  1  0
 12 13  1  0
 13 14  1  0
 12 15  1  0
 15 16  1  0
  1 17  1  0
  1 18  1  0
  1 19  1  0
  2 20  1  0
  2 21  1  0
  4 22  1  0
  4 23  1  0
  5 24  1  0
  5 25  1  0
  5 26  1  0
 13 27  1  0
 13 28  1  0
 14 29  1  0
 14 30  1  0
 14 31  1  0
 15 32  1  0
 15 33  1  0
 16 34  1  0
 16 35  1  0
 16 36  1  0
M  END
$$$$
