
     RDKit          3D

 33 34  0  0  0  0  0  0  0  0999 V2000
   -1.9332    1.8209   -0.9782 N   0  0  0  0  0  0  0  0  0  0  0  0
   -1.8696    1.0744    0.0851 C   0  0  0  0  0  0  0  0  0  0  0  0
   -0.6698    0.7393    0.6823 N   0  0  0  0  0  0  0  0  0  0  0  0
    0.4208    0.8598   -0.1992 O   0  0  0  0  0  0  0  0  0  0  0  0
    0.6865   -0.3144   -0.8557 C   0  0  0  0  0  0  0  0  0  0  0  0
    0.1558   -1.3915   -0.5969 O   0  0  0  0  0  0  0  0  0  0  0  0
    1.7418   -0.1016   -1.9087 C   0  0  0  0  0  0  0  0  0  0  0  0
    3.1389   -0.1959   -1.3546 C   0  0  0  0  0  0  0  0  0  0  0  0
    3.7478   -1.4456   -1.1746 C   0  0  0  0  0  0  0  0  0  0  0  0
    5.0340   -1.5342   -0.6406 C   0  0  0  0  0  0  0  0  0  0  0  0
    5.7202   -0.3771   -0.2768 C   0  0  0  0  0  0  0  0  0  0  0  0
    5.1202    0.8696   -0.4438 C   0  0  0  0  0  0  0  0  0  0  0  0
    3.8341    0.9612   -0.9778 C   0  0  0  0  0  0  0  0  0  0  0  0
   -3.1236    0.5175    0.6672 C   0  0  0  0  0  0  0  0  0  0  0  0
   -3.9610   -0.2109   -0.1916 C   0  0  0  0  0  0  0  0  0  0  0  0
   -5.1425   -0.7734    0.2922 C   0  0  0  0  0  0  0  0  0  0  0  0
   -5.4921   -0.6115    1.6315 C   0  0  0  0  0  0  0  0  0  0  0  0
   -4.6609    0.1126    2.4892 C   0  0  0  0  0  0  0  0  0  0  0  0
   -3.4736    0.6790    2.0126 C   0  0  0  0  0  0  0  0  0  0  0  0
   -2.5194    1.5855    3.1292 Cl  0  0  0  0  0  0  0  0  0  0  0  0
   -2.9051    1.9809   -1.2607 H   0  0  0  0  0  0  0  0  0  0  0  0
   -0.6613   -0.1481    1.1856 H   0  0  0  0  0  0  0  0  0  0  0  0
    1.5959   -0.8494   -2.6980 H   0  0  0  0  0  0  0  0  0  0  0  0
    1.5749    0.8661   -2.3978 H   0  0  0  0  0  0  0  0  0  0  0  0
    3.2220   -2.3592   -1.4461 H   0  0  0  0  0  0  0  0  0  0  0  0
    5.4997   -2.5069   -0.5054 H   0  0  0  0  0  0  0  0  0  0  0  0
    6.7213   -0.4470    0.1403 H   0  0  0  0  0  0  0  0  0  0  0  0
    5.6532    1.7719   -0.1552 H   0  0  0  0  0  0  0  0  0  0  0  0
    3.3782    1.9427   -1.0944 H   0  0  0  0  0  0  0  0  0  0  0  0
   -3.6844   -0.3582   -1.2340 H   0  0  0  0  0  0  0  0  0  0  0  0
   -5.7871   -1.3425   -0.3742 H   0  0  0  0  0  0  0  0  0  0  0  0
   -6.4132   -1.0495    2.0101 H   0  0  0  0  0  0  0  0  0  0  0  0
   -4.9483    0.2355    3.5312 H   0  0  0  0  0  0  0  0  0  0  0  0
  1  2  2  3
  2  3  1  0
  3  4  1  0
  4  5  1  0
  5  6  2  0
  5  7  1  0
  7  8  1  0
  8  9  2  0
  9 10  1  0
 10 11  2  0
 11 12  1  0
 12 13  2  0
  2 14  1  0
 14 15  2  0
 15 16  1  0
 16 17  2  0
 17 18  1  0
 18 19  2  0
 19 20  1  0
 13  8  1  0
 19 14  1  0
  1 21  1  0
  3 22  1  0
  7 23  1  0
  7 24  1  0
  9 25  1  0
 10 26  1  0
 11 27  1  0
 12 28  1  0
 13 29  1  0
 15 30  1  0
 16 31  1  0
 17 32  1  0
 18 33  1  0
M  END
$$$$
