
     RDKit          3D

 61 66  0  0  0  0  0  0  0  0999 V2000
    9.5092   -1.4275    1.0186 F   0  0  0  0  0  0  0  0  0  0  0  0
    8.3760   -0.7260    1.1554 C   0  0  0  0  0  0  0  0  0  0  0  0
    7.4994   -0.6241    0.0829 C   0  0  0  0  0  0  0  0  0  0  0  0
    6.3192    0.1072    0.2262 C   0  0  0  0  0  0  0  0  0  0  0  0
    6.0155    0.7383    1.4422 C   0  0  0  0  0  0  0  0  0  0  0  0
    4.7337    1.5252    1.6032 C   0  0  0  0  0  0  0  0  0  0  0  0
    3.4979    0.6459    1.8823 C   0  0  0  0  0  0  0  0  0  0  0  0
    2.9900   -0.0966    0.7133 N   0  0  0  0  0  0  0  0  0  0  0  0
    2.4512    0.8131   -0.3282 C   0  0  0  0  0  0  0  0  0  0  0  0
    1.4051    0.1540   -1.2534 C   0  0  0  0  0  0  0  0  0  0  0  0
    0.2217   -0.3182   -0.4971 N   0  0  0  0  0  0  0  0  0  0  0  0
   -0.9830    0.2989   -0.7130 C   0  0  0  0  0  0  0  0  0  0  0  0
   -1.2545    1.6424   -0.8945 C   0  0  0  0  0  0  0  0  0  0  0  0
   -2.6558    1.8079   -0.9115 C   0  0  0  0  0  0  0  0  0  0  0  0
   -3.2252    0.5603   -0.7415 C   0  0  0  0  0  0  0  0  0  0  0  0
   -4.6028    0.1273   -0.6365 C   0  0  0  0  0  0  0  0  0  0  0  0
   -5.7069    1.1142   -0.4995 C   0  0  0  0  0  0  0  0  0  0  0  0
   -5.6249    2.1756    0.4091 C   0  0  0  0  0  0  0  0  0  0  0  0
   -6.6873    3.0743    0.5270 C   0  0  0  0  0  0  0  0  0  0  0  0
   -7.8344    2.9068   -0.2498 C   0  0  0  0  0  0  0  0  0  0  0  0
   -7.9277    1.8368   -1.1396 C   0  0  0  0  0  0  0  0  0  0  0  0
   -6.8682    0.9363   -1.2610 C   0  0  0  0  0  0  0  0  0  0  0  0
   -4.9060   -1.1372   -0.6614 N   0  0  0  0  0  0  0  0  0  0  0  0
   -3.8764   -2.0910   -0.7820 C   0  0  0  0  0  0  0  0  0  0  0  0
   -4.2466   -3.4368   -0.8622 C   0  0  0  0  0  0  0  0  0  0  0  0
   -3.2831   -4.4358   -1.0085 C   0  0  0  0  0  0  0  0  0  0  0  0
   -1.9349   -4.0936   -1.0860 C   0  0  0  0  0  0  0  0  0  0  0  0
   -1.5452   -2.7551   -1.0048 C   0  0  0  0  0  0  0  0  0  0  0  0
   -2.5114   -1.7586   -0.8327 C   0  0  0  0  0  0  0  0  0  0  0  0
   -2.2036   -0.3771   -0.7557 N   0  0  0  0  0  0  0  0  0  0  0  0
    0.5095   -0.6569    0.9222 C   0  0  0  0  0  0  0  0  0  0  0  0
    1.9755   -1.1045    1.1057 C   0  0  0  0  0  0  0  0  0  0  0  0
    6.9134    0.6184    2.5149 C   0  0  0  0  0  0  0  0  0  0  0  0
    8.0939   -0.1123    2.3697 C   0  0  0  0  0  0  0  0  0  0  0  0
    7.7359   -1.1163   -0.8548 H   0  0  0  0  0  0  0  0  0  0  0  0
    5.6303    0.1745   -0.6126 H   0  0  0  0  0  0  0  0  0  0  0  0
    4.5857    2.1682    0.7276 H   0  0  0  0  0  0  0  0  0  0  0  0
    4.8538    2.2196    2.4461 H   0  0  0  0  0  0  0  0  0  0  0  0
    2.6990    1.2786    2.2920 H   0  0  0  0  0  0  0  0  0  0  0  0
    3.7692   -0.0640    2.6752 H   0  0  0  0  0  0  0  0  0  0  0  0
    1.9841    1.6932    0.1336 H   0  0  0  0  0  0  0  0  0  0  0  0
    3.2816    1.1715   -0.9464 H   0  0  0  0  0  0  0  0  0  0  0  0
    1.1263    0.8526   -2.0515 H   0  0  0  0  0  0  0  0  0  0  0  0
    1.8556   -0.7129   -1.7533 H   0  0  0  0  0  0  0  0  0  0  0  0
   -0.5178    2.4322   -0.9477 H   0  0  0  0  0  0  0  0  0  0  0  0
   -3.1849    2.7465   -1.0125 H   0  0  0  0  0  0  0  0  0  0  0  0
   -4.7506    2.2986    1.0423 H   0  0  0  0  0  0  0  0  0  0  0  0
   -6.6253    3.8989    1.2323 H   0  0  0  0  0  0  0  0  0  0  0  0
   -8.6630    3.6046   -0.1541 H   0  0  0  0  0  0  0  0  0  0  0  0
   -8.8276    1.6993   -1.7339 H   0  0  0  0  0  0  0  0  0  0  0  0
   -6.9482    0.0965   -1.9479 H   0  0  0  0  0  0  0  0  0  0  0  0
   -5.2997   -3.7020   -0.8167 H   0  0  0  0  0  0  0  0  0  0  0  0
   -3.5870   -5.4769   -1.0744 H   0  0  0  0  0  0  0  0  0  0  0  0
   -1.1842   -4.8686   -1.2204 H   0  0  0  0  0  0  0  0  0  0  0  0
   -0.4911   -2.5215   -1.1038 H   0  0  0  0  0  0  0  0  0  0  0  0
    0.3138    0.2111    1.5660 H   0  0  0  0  0  0  0  0  0  0  0  0
   -0.1528   -1.4655    1.2511 H   0  0  0  0  0  0  0  0  0  0  0  0
    2.1440   -1.9897    0.4781 H   0  0  0  0  0  0  0  0  0  0  0  0
    2.1281   -1.4455    2.1369 H   0  0  0  0  0  0  0  0  0  0  0  0
    6.6989    1.0926    3.4701 H   0  0  0  0  0  0  0  0  0  0  0  0
    8.7925   -0.2076    3.1942 H   0  0  0  0  0  0  0  0  0  0  0  0
  1  2  1  0
  2  3  2  0
  3  4  1  0
  4  5  2  0
  5  6  1  0
  6  7  1  0
  7  8  1  0
  8  9  1  0
  9 10  1  0
 10 11  1  0
 11 12  1  0
 12 13  2  0
 13 14  1  0
 14 15  2  0
 15 16  1  0
 16 17  1  0
 17 18  2  0
 18 19  1  0
 19 20  2  0
 20 21  1  0
 21 22  2  0
 16 23  2  0
 23 24  1  0
 24 25  2  0
 25 26  1  0
 26 27  2  0
 27 28  1  0
 28 29  2  0
 29 30  1  0
 11 31  1  0
 31 32  1  0
  5 33  1  0
 33 34  2  0
 34  2  1  0
 32  8  1  0
 30 12  1  0
 30 15  1  0
 22 17  1  0
 29 24  1  0
  3 35  1  0
  4 36  1  0
  6 37  1  0
  6 38  1  0
  7 39  1  0
  7 40  1  0
  9 41  1  0
  9 42  1  0
 10 43  1  0
 10 44  1  0
 13 45  1  0
 14 46  1  0
 18 47  1  0
 19 48  1  0
 20 49  1  0
 21 50  1  0
 22 51  1  0
 25 52  1  0
 26 53  1  0
 27 54  1  0
 28 55  1  0
 31 56  1  0
 31 57  1  0
 32 58  1  0
 32 59  1  0
 33 60  1  0
 34 61  1  0
M  END
$$$$
