
     RDKit          3D

 50 54  0  0  0  0  0  0  0  0999 V2000
   -4.9514    0.5629   -1.0939 C   0  0  0  0  0  0  0  0  0  0  0  0
   -4.4626   -0.8262   -0.8266 C   0  0  0  0  0  0  0  0  0  0  0  0
   -5.1488   -1.9303   -1.1604 C   0  0  0  0  0  0  0  0  0  0  0  0
   -4.6253   -3.2403   -0.8869 C   0  0  0  0  0  0  0  0  0  0  0  0
   -3.4342   -3.3709   -0.2938 C   0  0  0  0  0  0  0  0  0  0  0  0
   -2.6759   -2.2670    0.0767 N   0  0  0  0  0  0  0  0  0  0  0  0
   -1.4481   -2.4641    0.6837 C   0  0  0  0  0  0  0  0  0  0  0  0
   -0.9570   -3.5714    0.9159 O   0  0  0  0  0  0  0  0  0  0  0  0
   -0.6945   -1.2352    1.0586 C   0  0  0  0  0  0  0  0  0  0  0  0
    0.6169   -1.3575    1.6767 C   0  0  0  0  0  0  0  0  0  0  0  0
    1.3453   -0.2848    2.0266 C   0  0  0  0  0  0  0  0  0  0  0  0
    2.9446   -0.5046    2.6291 S   0  0  0  0  0  6  0  0  0  0  0  0
    3.4302    0.7240    3.2343 O   0  0  0  0  0  0  0  0  0  0  0  0
    3.0405   -1.7565    3.3591 O   0  0  0  0  0  0  0  0  0  0  0  0
    3.8761   -0.7114    1.1170 C   0  0  0  0  0  0  0  0  0  0  0  0
    4.3060   -1.9871    0.7322 C   0  0  0  0  0  0  0  0  0  0  0  0
    5.0351   -2.1346   -0.4484 C   0  0  0  0  0  0  0  0  0  0  0  0
    5.3313   -1.0144   -1.2203 C   0  0  0  0  0  0  0  0  0  0  0  0
    6.0309   -1.1620   -2.3525 F   0  0  0  0  0  0  0  0  0  0  0  0
    4.9165    0.2569   -0.8336 C   0  0  0  0  0  0  0  0  0  0  0  0
    4.1876    0.4161    0.3453 C   0  0  0  0  0  0  0  0  0  0  0  0
    0.7469    1.0628    1.7700 C   0  0  0  0  0  0  0  0  0  0  0  0
    1.3492    2.1602    2.1284 N   0  0  0  0  0  0  0  0  0  0  0  0
   -0.4990    1.1343    1.1305 N   0  0  0  0  0  0  0  0  0  0  0  0
   -1.0146    2.4601    0.7325 C   0  0  0  0  0  0  0  0  0  0  0  0
   -0.5080    2.9510   -0.5859 C   0  0  0  0  0  0  0  0  0  0  0  0
    0.6744    3.5456   -0.9786 C   0  0  0  0  0  0  0  0  0  0  0  0
    0.5638    3.7777   -2.3698 C   0  0  0  0  0  0  0  0  0  0  0  0
   -0.6769    3.3130   -2.7377 C   0  0  0  0  0  0  0  0  0  0  0  0
   -1.3367    2.8114   -1.6625 O   0  0  0  0  0  0  0  0  0  0  0  0
   -1.2313   -0.0261    0.7813 C   0  0  0  0  0  0  0  0  0  0  0  0
   -2.4602    0.0828    0.1788 N   0  0  0  0  0  0  0  0  0  0  0  0
   -3.1251   -0.9772   -0.1532 C   0  0  0  0  0  0  0  0  0  0  0  0
   -4.2515    1.0996   -1.7428 H   0  0  0  0  0  0  0  0  0  0  0  0
   -5.0596    1.1201   -0.1576 H   0  0  0  0  0  0  0  0  0  0  0  0
   -5.9272    0.5608   -1.5914 H   0  0  0  0  0  0  0  0  0  0  0  0
   -6.1164   -1.8669   -1.6496 H   0  0  0  0  0  0  0  0  0  0  0  0
   -5.2103   -4.1089   -1.1719 H   0  0  0  0  0  0  0  0  0  0  0  0
   -3.0189   -4.3530   -0.0803 H   0  0  0  0  0  0  0  0  0  0  0  0
    0.9990   -2.3670    1.8204 H   0  0  0  0  0  0  0  0  0  0  0  0
    4.0846   -2.8632    1.3384 H   0  0  0  0  0  0  0  0  0  0  0  0
    5.3788   -3.1133   -0.7702 H   0  0  0  0  0  0  0  0  0  0  0  0
    5.1686    1.1140   -1.4510 H   0  0  0  0  0  0  0  0  0  0  0  0
    3.8743    1.4125    0.6507 H   0  0  0  0  0  0  0  0  0  0  0  0
    2.2283    1.9886    2.6460 H   0  0  0  0  0  0  0  0  0  0  0  0
   -2.1124    2.4585    0.7152 H   0  0  0  0  0  0  0  0  0  0  0  0
   -0.7742    3.2067    1.5009 H   0  0  0  0  0  0  0  0  0  0  0  0
    1.5081    3.7767   -0.3292 H   0  0  0  0  0  0  0  0  0  0  0  0
    1.2959    4.2284   -3.0245 H   0  0  0  0  0  0  0  0  0  0  0  0
   -1.2127    3.2693   -3.6755 H   0  0  0  0  0  0  0  0  0  0  0  0
  1  2  1  0
  2  3  2  0
  3  4  1  0
  4  5  2  0
  5  6  1  0
  6  7  1  0
  7  8  2  0
  7  9  1  0
  9 10  1  0
 10 11  2  0
 11 12  1  0
 12 13  2  0
 12 14  2  0
 12 15  1  0
 15 16  2  0
 16 17  1  0
 17 18  2  0
 18 19  1  0
 18 20  1  0
 20 21  2  0
 11 22  1  0
 22 23  2  3
 22 24  1  0
 24 25  1  0
 25 26  1  0
 26 27  2  0
 27 28  1  0
 28 29  2  0
 29 30  1  0
 24 31  1  0
 31 32  1  0
 32 33  2  0
 33  2  1  0
 33  6  1  0
 31  9  2  0
 21 15  1  0
 30 26  1  0
  1 34  1  0
  1 35  1  0
  1 36  1  0
  3 37  1  0
  4 38  1  0
  5 39  1  0
 10 40  1  0
 16 41  1  0
 17 42  1  0
 20 43  1  0
 21 44  1  0
 23 45  1  0
 25 46  1  0
 25 47  1  0
 27 48  1  0
 28 49  1  0
 29 50  1  0
M  END
$$$$
