
     RDKit          3D

 39 39  0  0  0  0  0  0  0  0999 V2000
   -4.8691    3.2875    0.3899 C   0  0  0  0  0  0  0  0  0  0  0  0
   -3.9094    2.1390    0.3297 C   0  0  0  0  0  0  0  0  0  0  0  0
   -3.9530    1.1615    1.0629 O   0  0  0  0  0  0  0  0  0  0  0  0
   -2.9850    2.3556   -0.6460 O   0  0  0  0  0  0  0  0  0  0  0  0
   -2.0172    1.3081   -0.8333 C   0  0  0  0  0  0  0  0  0  0  0  0
   -0.8973    1.4291    0.1989 C   0  0  0  0  0  0  0  0  0  0  0  0
    0.2466    0.4310   -0.0434 C   0  0  0  0  0  0  0  0  0  0  0  0
    1.3106    0.6559    0.9561 N   0  0  0  0  0  0  0  0  0  0  0  0
    2.6343    1.5588    0.4881 S   0  0  0  0  0  6  0  0  0  0  0  0
    2.1433    2.6964   -0.2520 O   0  0  0  0  0  0  0  0  0  0  0  0
    3.4433    1.7218    1.6732 O   0  0  0  0  0  0  0  0  0  0  0  0
    3.4136    0.5804   -0.5415 O   0  0  0  0  0  0  0  0  0  0  0  0
    4.0782   -0.5634   -0.0064 C   0  0  0  0  0  0  0  0  0  0  0  0
    4.7841   -1.3709   -1.1033 C   0  0  0  0  0  0  0  0  0  0  0  0
    6.0406   -0.3814   -1.9088 Cl  0  0  0  0  0  0  0  0  0  0  0  0
    5.5719   -2.8077   -0.3757 Cl  0  0  0  0  0  0  0  0  0  0  0  0
    3.6118   -1.9323   -2.3363 Cl  0  0  0  0  0  0  0  0  0  0  0  0
   -0.1966   -1.0210    0.0251 C   0  0  0  0  0  0  0  0  0  0  0  0
   -0.8233   -1.5473    1.1663 C   0  0  0  0  0  0  0  0  0  0  0  0
   -1.2120   -2.8876    1.2108 C   0  0  0  0  0  0  0  0  0  0  0  0
   -0.9747   -3.7210    0.1206 C   0  0  0  0  0  0  0  0  0  0  0  0
   -0.3499   -3.2157   -1.0166 C   0  0  0  0  0  0  0  0  0  0  0  0
    0.0362   -1.8750   -1.0650 C   0  0  0  0  0  0  0  0  0  0  0  0
   -5.6235    3.0895    1.1568 H   0  0  0  0  0  0  0  0  0  0  0  0
   -4.3345    4.2034    0.6533 H   0  0  0  0  0  0  0  0  0  0  0  0
   -5.3746    3.3994   -0.5727 H   0  0  0  0  0  0  0  0  0  0  0  0
   -2.5118    0.3305   -0.8059 H   0  0  0  0  0  0  0  0  0  0  0  0
   -1.6112    1.4347   -1.8429 H   0  0  0  0  0  0  0  0  0  0  0  0
   -1.3079    1.3172    1.2100 H   0  0  0  0  0  0  0  0  0  0  0  0
   -0.5101    2.4558    0.1724 H   0  0  0  0  0  0  0  0  0  0  0  0
    0.6502    0.6094   -1.0486 H   0  0  0  0  0  0  0  0  0  0  0  0
    0.9875    0.9182    1.8858 H   0  0  0  0  0  0  0  0  0  0  0  0
    3.3394   -1.1917    0.5065 H   0  0  0  0  0  0  0  0  0  0  0  0
    4.8129   -0.2334    0.7386 H   0  0  0  0  0  0  0  0  0  0  0  0
   -1.0194   -0.9193    2.0324 H   0  0  0  0  0  0  0  0  0  0  0  0
   -1.7023   -3.2807    2.0981 H   0  0  0  0  0  0  0  0  0  0  0  0
   -1.2779   -4.7642    0.1573 H   0  0  0  0  0  0  0  0  0  0  0  0
   -0.1634   -3.8658   -1.8679 H   0  0  0  0  0  0  0  0  0  0  0  0
    0.5199   -1.5050   -1.9667 H   0  0  0  0  0  0  0  0  0  0  0  0
  1  2  1  0
  2  3  2  0
  2  4  1  0
  4  5  1  0
  5  6  1  0
  6  7  1  0
  7  8  1  0
  8  9  1  0
  9 10  2  0
  9 11  2  0
  9 12  1  0
 12 13  1  0
 13 14  1  0
 14 15  1  0
 14 16  1  0
 14 17  1  0
  7 18  1  0
 18 19  2  0
 19 20  1  0
 20 21  2  0
 21 22  1  0
 22 23  2  0
 23 18  1  0
  1 24  1  0
  1 25  1  0
  1 26  1  0
  5 27  1  0
  5 28  1  0
  6 29  1  0
  6 30  1  0
  7 31  1  0
  8 32  1  0
 13 33  1  0
 13 34  1  0
 19 35  1  0
 20 36  1  0
 21 37  1  0
 22 38  1  0
 23 39  1  0
M  END
$$$$
