
     RDKit          3D

 56 61  0  0  0  0  0  0  0  0999 V2000
    6.9167    2.9721   -0.3150 C   0  0  0  0  0  0  0  0  0  0  0  0
    5.7113    2.0796   -0.3601 C   0  0  0  0  0  0  0  0  0  0  0  0
    4.4635    2.5926   -0.7232 C   0  0  0  0  0  0  0  0  0  0  0  0
    3.3451    1.7579   -0.7932 C   0  0  0  0  0  0  0  0  0  0  0  0
    3.4642    0.3949   -0.5033 C   0  0  0  0  0  0  0  0  0  0  0  0
    2.1995   -0.5331   -0.5691 C   0  0  0  0  0  0  0  0  0  0  0  0
    0.9213   -0.1589   -0.9662 C   0  0  0  0  0  0  0  0  0  0  0  0
    0.0804   -1.2696   -0.8902 N   0  0  0  0  0  4  0  0  0  0  0  0
   -1.3756   -1.2864   -1.1105 C   0  0  0  0  0  0  0  0  0  0  0  0
   -2.1012   -1.1222    0.2421 C   0  0  0  0  0  0  0  0  0  0  0  0
   -1.7538   -1.8285    1.1909 O   0  0  0  0  0  0  0  0  0  0  0  0
   -3.0197   -0.0622    0.2770 N   0  0  0  0  0  0  0  0  0  0  0  0
   -4.0109    0.0660   -0.7622 C   0  0  0  0  0  0  0  0  0  0  0  0
   -4.4405   -1.0912   -1.4485 C   0  0  0  0  0  0  0  0  0  0  0  0
   -5.3968   -1.0274   -2.4643 C   0  0  0  0  0  0  0  0  0  0  0  0
   -5.9564    0.1931   -2.8093 C   0  0  0  0  0  0  0  0  0  0  0  0
   -5.5691    1.3431   -2.1271 C   0  0  0  0  0  0  0  0  0  0  0  0
   -4.6134    1.2846   -1.1013 C   0  0  0  0  0  0  0  0  0  0  0  0
   -4.1764    2.8044   -0.3157 S   0  0  0  0  0  0  0  0  0  0  0  0
   -3.5848    2.1719    1.2345 C   0  0  0  0  0  0  0  0  0  0  0  0
   -3.5825    3.0761    2.3110 C   0  0  0  0  0  0  0  0  0  0  0  0
   -3.0542    2.7140    3.5434 C   0  0  0  0  0  0  0  0  0  0  0  0
   -2.5171    1.4467    3.7050 C   0  0  0  0  0  0  0  0  0  0  0  0
   -2.5117    0.5450    2.6342 C   0  0  0  0  0  0  0  0  0  0  0  0
   -3.0546    0.8745    1.3773 C   0  0  0  0  0  0  0  0  0  0  0  0
    0.8067   -2.2910   -0.4467 C   0  0  0  0  0  0  0  0  0  0  0  0
    2.0545   -1.8732   -0.2545 N   0  0  0  0  0  0  0  0  0  0  0  0
    2.9053   -2.9292    0.2744 C   0  0  0  0  0  0  0  0  0  0  0  0
    1.9060   -4.0603    0.6456 C   0  0  0  0  0  0  0  0  0  0  0  0
    0.6107   -3.7221   -0.1195 C   0  0  0  0  0  0  0  0  0  0  0  0
    4.7126   -0.1246   -0.1614 C   0  0  0  0  0  0  0  0  0  0  0  0
    5.8298    0.7128   -0.0961 C   0  0  0  0  0  0  0  0  0  0  0  0
    7.3783    3.0260   -1.3058 H   0  0  0  0  0  0  0  0  0  0  0  0
    7.6561    2.5966    0.4007 H   0  0  0  0  0  0  0  0  0  0  0  0
    6.6395    3.9828    0.0046 H   0  0  0  0  0  0  0  0  0  0  0  0
    4.3564    3.6527   -0.9490 H   0  0  0  0  0  0  0  0  0  0  0  0
    2.3984    2.2092   -1.0704 H   0  0  0  0  0  0  0  0  0  0  0  0
    0.4943    0.7741   -1.2954 H   0  0  0  0  0  0  0  0  0  0  0  0
   -1.6513   -2.2479   -1.5544 H   0  0  0  0  0  0  0  0  0  0  0  0
   -1.6139   -0.4832   -1.8132 H   0  0  0  0  0  0  0  0  0  0  0  0
   -4.0929   -2.0830   -1.1664 H   0  0  0  0  0  0  0  0  0  0  0  0
   -5.7256   -1.9346   -2.9681 H   0  0  0  0  0  0  0  0  0  0  0  0
   -6.7093    0.2520   -3.5932 H   0  0  0  0  0  0  0  0  0  0  0  0
   -6.0306    2.2927   -2.3980 H   0  0  0  0  0  0  0  0  0  0  0  0
   -3.9876    4.0804    2.1904 H   0  0  0  0  0  0  0  0  0  0  0  0
   -3.0620    3.4183    4.3712 H   0  0  0  0  0  0  0  0  0  0  0  0
   -2.1083    1.1471    4.6692 H   0  0  0  0  0  0  0  0  0  0  0  0
   -2.1044   -0.4385    2.8514 H   0  0  0  0  0  0  0  0  0  0  0  0
    3.5948   -3.2518   -0.5096 H   0  0  0  0  0  0  0  0  0  0  0  0
    3.4505   -2.5842    1.1562 H   0  0  0  0  0  0  0  0  0  0  0  0
    1.7097   -4.0237    1.7249 H   0  0  0  0  0  0  0  0  0  0  0  0
    2.2877   -5.0572    0.4084 H   0  0  0  0  0  0  0  0  0  0  0  0
    0.5381   -4.2496   -1.0732 H   0  0  0  0  0  0  0  0  0  0  0  0
   -0.2898   -3.8443    0.4810 H   0  0  0  0  0  0  0  0  0  0  0  0
    4.8632   -1.1748    0.0464 H   0  0  0  0  0  0  0  0  0  0  0  0
    6.7996    0.2915    0.1643 H   0  0  0  0  0  0  0  0  0  0  0  0
  1  2  1  0
  2  3  2  0
  3  4  1  0
  4  5  2  0
  5  6  1  0
  6  7  2  0
  7  8  1  0
  8  9  1  0
  9 10  1  0
 10 11  2  0
 10 12  1  0
 12 13  1  0
 13 14  2  0
 14 15  1  0
 15 16  2  0
 16 17  1  0
 17 18  2  0
 18 19  1  0
 19 20  1  0
 20 21  2  0
 21 22  1  0
 22 23  2  0
 23 24  1  0
 24 25  2  0
  8 26  2  0
 26 27  1  0
 27 28  1  0
 28 29  1  0
 29 30  1  0
  5 31  1  0
 31 32  2  0
 32  2  1  0
 27  6  1  0
 25 12  1  0
 30 26  1  0
 18 13  1  0
 25 20  1  0
  1 33  1  0
  1 34  1  0
  1 35  1  0
  3 36  1  0
  4 37  1  0
  7 38  1  0
  9 39  1  0
  9 40  1  0
 14 41  1  0
 15 42  1  0
 16 43  1  0
 17 44  1  0
 21 45  1  0
 22 46  1  0
 23 47  1  0
 24 48  1  0
 28 49  1  0
 28 50  1  0
 29 51  1  0
 29 52  1  0
 30 53  1  0
 30 54  1  0
 31 55  1  0
 32 56  1  0
M  CHG  1   8   1
M  END
$$$$
