
     RDKit          3D

 44 46  0  0  0  0  0  0  0  0999 V2000
    7.3895    0.5106    2.1462 C   0  0  0  0  0  0  0  0  0  0  0  0
    6.2181   -0.0884    1.4246 C   0  0  0  0  0  0  0  0  0  0  0  0
    4.9936    0.5893    1.3755 C   0  0  0  0  0  0  0  0  0  0  0  0
    3.8902    0.0193    0.7322 C   0  0  0  0  0  0  0  0  0  0  0  0
    4.0015   -1.2408    0.1324 C   0  0  0  0  0  0  0  0  0  0  0  0
    2.8577   -1.8951   -0.5627 C   0  0  0  0  0  0  0  0  0  0  0  0
    2.8177   -3.1143   -0.6880 O   0  0  0  0  0  0  0  0  0  0  0  0
    1.8880   -1.0649   -1.0732 N   0  0  0  0  0  0  0  0  0  0  0  0
    0.7692   -1.6047   -1.8280 C   0  0  0  0  0  0  0  0  0  0  0  0
   -0.1208   -0.4787   -2.3281 C   0  0  0  0  0  0  0  0  0  0  0  0
    0.1679    0.7095   -2.2432 O   0  0  0  0  0  0  0  0  0  0  0  0
   -1.2399   -0.9920   -2.9023 O   0  0  0  0  0  0  0  0  0  0  0  0
   -2.2248   -0.0381   -3.3274 C   0  0  0  0  0  0  0  0  0  0  0  0
   -3.4541   -0.1442   -2.4828 C   0  0  0  0  0  0  0  0  0  0  0  0
   -4.5686   -0.9157   -2.7424 C   0  0  0  0  0  0  0  0  0  0  0  0
   -5.7158   -0.7323   -1.4884 S   0  0  0  0  0  0  0  0  0  0  0  0
   -4.6581    0.3560   -0.6662 C   0  0  0  0  0  0  0  0  0  0  0  0
   -5.0140    0.9824    0.6252 C   0  0  0  0  0  0  0  0  0  0  0  0
   -6.2206    0.7391    1.3031 C   0  0  0  0  0  0  0  0  0  0  0  0
   -6.5003    1.3627    2.5248 C   0  0  0  0  0  0  0  0  0  0  0  0
   -5.5796    2.2400    3.0911 C   0  0  0  0  0  0  0  0  0  0  0  0
   -4.3781    2.4960    2.4382 C   0  0  0  0  0  0  0  0  0  0  0  0
   -4.1002    1.8726    1.2184 C   0  0  0  0  0  0  0  0  0  0  0  0
   -3.5166    0.5714   -1.2964 N   0  0  0  0  0  0  0  0  0  0  0  0
    5.2159   -1.9330    0.2068 C   0  0  0  0  0  0  0  0  0  0  0  0
    6.3165   -1.3606    0.8494 C   0  0  0  0  0  0  0  0  0  0  0  0
    7.3662    1.6039    2.0884 H   0  0  0  0  0  0  0  0  0  0  0  0
    8.3332    0.1821    1.6983 H   0  0  0  0  0  0  0  0  0  0  0  0
    7.3735    0.2113    3.1987 H   0  0  0  0  0  0  0  0  0  0  0  0
    4.8887    1.5650    1.8457 H   0  0  0  0  0  0  0  0  0  0  0  0
    2.9492    0.5615    0.7364 H   0  0  0  0  0  0  0  0  0  0  0  0
    2.0308   -0.0613   -1.1191 H   0  0  0  0  0  0  0  0  0  0  0  0
    1.1613   -2.1664   -2.6812 H   0  0  0  0  0  0  0  0  0  0  0  0
    0.2000   -2.2655   -1.1671 H   0  0  0  0  0  0  0  0  0  0  0  0
   -1.8560    0.9937   -3.3209 H   0  0  0  0  0  0  0  0  0  0  0  0
   -2.4695   -0.2753   -4.3690 H   0  0  0  0  0  0  0  0  0  0  0  0
   -4.7570   -1.5648   -3.5856 H   0  0  0  0  0  0  0  0  0  0  0  0
   -6.9686    0.0611    0.9009 H   0  0  0  0  0  0  0  0  0  0  0  0
   -7.4397    1.1599    3.0334 H   0  0  0  0  0  0  0  0  0  0  0  0
   -5.7981    2.7228    4.0400 H   0  0  0  0  0  0  0  0  0  0  0  0
   -3.6540    3.1790    2.8745 H   0  0  0  0  0  0  0  0  0  0  0  0
   -3.1528    2.0871    0.7246 H   0  0  0  0  0  0  0  0  0  0  0  0
    5.3082   -2.9229   -0.2361 H   0  0  0  0  0  0  0  0  0  0  0  0
    7.2500   -1.9172    0.8993 H   0  0  0  0  0  0  0  0  0  0  0  0
  1  2  1  0
  2  3  2  0
  3  4  1  0
  4  5  2  0
  5  6  1  0
  6  7  2  0
  6  8  1  0
  8  9  1  0
  9 10  1  0
 10 11  2  0
 10 12  1  0
 12 13  1  0
 13 14  1  0
 14 15  2  0
 15 16  1  0
 16 17  1  0
 17 18  1  0
 18 19  2  0
 19 20  1  0
 20 21  2  0
 21 22  1  0
 22 23  2  0
 17 24  2  0
  5 25  1  0
 25 26  2  0
 26  2  1  0
 24 14  1  0
 23 18  1  0
  1 27  1  0
  1 28  1  0
  1 29  1  0
  3 30  1  0
  4 31  1  0
  8 32  1  0
  9 33  1  0
  9 34  1  0
 13 35  1  0
 13 36  1  0
 15 37  1  0
 19 38  1  0
 20 39  1  0
 21 40  1  0
 22 41  1  0
 23 42  1  0
 25 43  1  0
 26 44  1  0
M  END
$$$$
