
     RDKit          3D

 72 77  0  0  0  0  0  0  0  0999 V2000
  -10.3288   -0.5317    2.2403 C   0  0  0  0  0  0  0  0  0  0  0  0
   -9.1917   -0.3857    1.2733 C   0  0  0  0  0  0  0  0  0  0  0  0
   -9.0982   -1.2312    0.1681 C   0  0  0  0  0  0  0  0  0  0  0  0
   -8.0479   -1.0913   -0.7397 C   0  0  0  0  0  0  0  0  0  0  0  0
   -7.0695   -0.0977   -0.5709 C   0  0  0  0  0  0  0  0  0  0  0  0
   -5.9615   -0.0030   -1.5835 C   0  0  0  0  0  0  0  0  0  0  0  0
   -7.1555    0.7692    0.5385 C   0  0  0  0  0  0  0  0  0  0  0  0
   -6.1488    1.8690    0.8038 C   0  0  0  0  0  0  0  0  0  0  0  0
   -5.2138    1.5152    1.8547 N   0  0  0  0  0  0  0  0  0  0  0  0
   -5.5437    1.6779    3.1628 N   0  0  0  0  0  0  0  0  0  0  0  0
   -4.4899    1.3233    3.8975 N   0  0  0  0  0  0  0  0  0  0  0  0
   -3.4957    0.9809    3.0362 C   0  0  0  0  0  0  0  0  0  0  0  0
   -2.1476    0.5488    3.2810 C   0  0  0  0  0  0  0  0  0  0  0  0
   -1.6306    0.3806    4.3797 O   0  0  0  0  0  0  0  0  0  0  0  0
   -1.4451    0.3318    2.1017 N   0  0  0  0  0  0  0  0  0  0  0  0
   -1.9775    0.5114    0.8300 C   0  0  0  0  0  0  0  0  0  0  0  0
   -1.0472    0.2323   -0.3411 C   0  0  0  0  0  0  0  0  0  0  0  0
   -0.5985   -1.2386   -0.3794 C   0  0  0  0  0  0  0  0  0  0  0  0
    0.8868   -1.3997   -0.7026 C   0  0  0  0  0  0  0  0  0  0  0  0
    1.2325   -0.4922   -1.8077 N   0  0  0  0  0  0  0  0  0  0  0  0
    2.5036   -0.9334   -2.8444 S   0  0  0  0  0  6  0  0  0  0  0  0
    2.3798   -2.3439   -3.1436 O   0  0  0  0  0  0  0  0  0  0  0  0
    2.5812    0.0558   -3.8985 O   0  0  0  0  0  0  0  0  0  0  0  0
    3.9494   -0.7380   -1.8178 C   0  0  0  0  0  0  0  0  0  0  0  0
    4.6946    0.4449   -1.8875 C   0  0  0  0  0  0  0  0  0  0  0  0
    5.8419    0.5832   -1.1055 C   0  0  0  0  0  0  0  0  0  0  0  0
    6.2458   -0.4717   -0.2787 C   0  0  0  0  0  0  0  0  0  0  0  0
    7.6944   -0.2677    0.7311 S   0  0  0  0  0  6  0  0  0  0  0  0
    7.7137    1.1052    1.1859 O   0  0  0  0  0  0  0  0  0  0  0  0
    7.7641   -1.3822    1.6509 O   0  0  0  0  0  0  0  0  0  0  0  0
    8.9224   -0.5237   -0.4163 N   0  0  0  0  0  0  0  0  0  0  0  0
   10.0006    0.4763   -0.4012 C   0  0  0  0  0  0  0  0  0  0  0  0
   11.2012    0.3193    0.4854 C   0  0  0  0  0  0  0  0  0  0  0  0
   11.3404    0.1559   -1.0008 C   0  0  0  0  0  0  0  0  0  0  0  0
    5.5106   -1.6602   -0.2184 C   0  0  0  0  0  0  0  0  0  0  0  0
    4.3633   -1.7985   -1.0018 C   0  0  0  0  0  0  0  0  0  0  0  0
    1.0544    0.9529   -1.5370 C   0  0  0  0  0  0  0  0  0  0  0  0
    0.1444    1.1937   -0.3338 C   0  0  0  0  0  0  0  0  0  0  0  0
   -3.2001    0.9039    0.5989 N   0  0  0  0  0  0  0  0  0  0  0  0
   -3.9127    1.1141    1.7334 C   0  0  0  0  0  0  0  0  0  0  0  0
   -8.2246    0.6107    1.4455 C   0  0  0  0  0  0  0  0  0  0  0  0
  -11.2624   -0.2011    1.7736 H   0  0  0  0  0  0  0  0  0  0  0  0
  -10.1669    0.0671    3.1431 H   0  0  0  0  0  0  0  0  0  0  0  0
  -10.4321   -1.5762    2.5523 H   0  0  0  0  0  0  0  0  0  0  0  0
   -9.8418   -2.0085    0.0075 H   0  0  0  0  0  0  0  0  0  0  0  0
   -8.0005   -1.7707   -1.5882 H   0  0  0  0  0  0  0  0  0  0  0  0
   -6.1016   -0.7194   -2.4004 H   0  0  0  0  0  0  0  0  0  0  0  0
   -5.9352    0.9944   -2.0330 H   0  0  0  0  0  0  0  0  0  0  0  0
   -4.9993   -0.2262   -1.1161 H   0  0  0  0  0  0  0  0  0  0  0  0
   -5.5742    2.1326   -0.0888 H   0  0  0  0  0  0  0  0  0  0  0  0
   -6.6646    2.7859    1.1153 H   0  0  0  0  0  0  0  0  0  0  0  0
   -0.4943    0.0245    2.2376 H   0  0  0  0  0  0  0  0  0  0  0  0
   -1.6233    0.4278   -1.2573 H   0  0  0  0  0  0  0  0  0  0  0  0
   -0.8212   -1.7667    0.5547 H   0  0  0  0  0  0  0  0  0  0  0  0
   -1.1866   -1.7508   -1.1525 H   0  0  0  0  0  0  0  0  0  0  0  0
    1.5013   -1.1725    0.1762 H   0  0  0  0  0  0  0  0  0  0  0  0
    1.0694   -2.4450   -0.9708 H   0  0  0  0  0  0  0  0  0  0  0  0
    4.3927    1.2562   -2.5474 H   0  0  0  0  0  0  0  0  0  0  0  0
    6.4205    1.5038   -1.1487 H   0  0  0  0  0  0  0  0  0  0  0  0
    9.2729   -1.4769   -0.2947 H   0  0  0  0  0  0  0  0  0  0  0  0
    9.6320    1.4853   -0.5735 H   0  0  0  0  0  0  0  0  0  0  0  0
   11.6050    1.2153    0.9426 H   0  0  0  0  0  0  0  0  0  0  0  0
   11.2756   -0.5646    1.1075 H   0  0  0  0  0  0  0  0  0  0  0  0
   11.8492    0.9388   -1.5505 H   0  0  0  0  0  0  0  0  0  0  0  0
   11.5108   -0.8405   -1.3899 H   0  0  0  0  0  0  0  0  0  0  0  0
    5.8271   -2.4805    0.4232 H   0  0  0  0  0  0  0  0  0  0  0  0
    3.8045   -2.7320   -0.9778 H   0  0  0  0  0  0  0  0  0  0  0  0
    2.0142    1.4442   -1.3544 H   0  0  0  0  0  0  0  0  0  0  0  0
    0.6026    1.4086   -2.4253 H   0  0  0  0  0  0  0  0  0  0  0  0
   -0.2005    2.2350   -0.3350 H   0  0  0  0  0  0  0  0  0  0  0  0
    0.7272    1.0730    0.5883 H   0  0  0  0  0  0  0  0  0  0  0  0
   -8.2967    1.2731    2.3088 H   0  0  0  0  0  0  0  0  0  0  0  0
  1  2  1  0
  2  3  2  0
  3  4  1  0
  4  5  2  0
  5  6  1  0
  5  7  1  0
  7  8  1  0
  8  9  1  0
  9 10  1  0
 10 11  2  0
 11 12  1  0
 12 13  1  0
 13 14  2  0
 13 15  1  0
 15 16  1  0
 16 17  1  0
 17 18  1  0
 18 19  1  0
 19 20  1  0
 20 21  1  0
 21 22  2  0
 21 23  2  0
 21 24  1  0
 24 25  2  0
 25 26  1  0
 26 27  2  0
 27 28  1  0
 28 29  2  0
 28 30  2  0
 28 31  1  0
 31 32  1  0
 32 33  1  0
 33 34  1  0
 27 35  1  0
 35 36  2  0
 20 37  1  0
 37 38  1  0
 16 39  2  0
 39 40  1  0
  7 41  2  0
 41  2  1  0
 40  9  1  0
 40 12  2  0
 38 17  1  0
 36 24  1  0
 34 32  1  0
  1 42  1  0
  1 43  1  0
  1 44  1  0
  3 45  1  0
  4 46  1  0
  6 47  1  0
  6 48  1  0
  6 49  1  0
  8 50  1  0
  8 51  1  0
 15 52  1  0
 17 53  1  0
 18 54  1  0
 18 55  1  0
 19 56  1  0
 19 57  1  0
 25 58  1  0
 26 59  1  0
 31 60  1  0
 32 61  1  0
 33 62  1  0
 33 63  1  0
 34 64  1  0
 34 65  1  0
 35 66  1  0
 36 67  1  0
 37 68  1  0
 37 69  1  0
 38 70  1  0
 38 71  1  0
 41 72  1  0
M  END
$$$$
