
     RDKit          3D

 56 61  0  0  0  0  0  0  0  0999 V2000
    6.4235    0.0555    0.1651 C   0  0  0  0  0  0  0  0  0  0  0  0
    5.0720   -0.2051   -0.4287 C   0  0  0  0  0  0  0  0  0  0  0  0
    4.8692   -0.2118   -1.8216 C   0  0  0  0  0  0  0  0  0  0  0  0
    6.1744    0.0853   -2.9195 Cl  0  0  0  0  0  0  0  0  0  0  0  0
    3.6016   -0.4616   -2.3823 C   0  0  0  0  0  0  0  0  0  0  0  0
    2.4955   -0.7106   -1.5688 C   0  0  0  0  0  0  0  0  0  0  0  0
    2.6782   -0.7033   -0.1956 C   0  0  0  0  0  0  0  0  0  0  0  0
    3.9494   -0.4588    0.3516 C   0  0  0  0  0  0  0  0  0  0  0  0
    3.8817   -0.5265    1.7426 N   0  0  0  0  0  0  0  0  0  0  0  0
    2.5927   -0.8190    2.1820 C   0  0  0  0  0  0  0  0  0  0  0  0
    2.2684   -0.9989    3.3475 O   0  0  0  0  0  0  0  0  0  0  0  0
    1.6976   -0.9308    0.9220 C   0  0  0  0  0  0  0  0  0  0  0  0
    0.9729   -2.2505    0.8780 N   0  0  0  0  0  0  0  0  0  0  0  0
   -0.5014   -2.0090    0.6032 C   0  0  2  0  0  0  0  0  0  0  0  0
   -0.8678   -2.6339   -0.7534 C   0  0  0  0  0  0  0  0  0  0  0  0
   -2.3522   -2.8446   -0.9518 C   0  0  0  0  0  0  0  0  0  0  0  0
   -3.0959   -1.9746   -1.7593 C   0  0  0  0  0  0  0  0  0  0  0  0
   -4.4648   -2.1759   -1.9440 C   0  0  0  0  0  0  0  0  0  0  0  0
   -5.1030   -3.2485   -1.3244 C   0  0  0  0  0  0  0  0  0  0  0  0
   -4.3735   -4.1198   -0.5180 C   0  0  0  0  0  0  0  0  0  0  0  0
   -3.0048   -3.9197   -0.3318 C   0  0  0  0  0  0  0  0  0  0  0  0
   -0.6091   -0.5337    0.6619 C   0  0  0  0  0  0  0  0  0  0  0  0
    0.6302    0.0713    0.8493 C   0  0  0  0  0  0  0  0  0  0  0  0
    0.4640    1.4292    0.9002 C   0  0  0  0  0  0  0  0  0  0  0  0
    1.4059    2.3684    0.9679 O   0  0  0  0  0  0  0  0  0  0  0  0
   -0.9170    1.6744    0.7995 N   0  0  0  0  0  0  0  0  0  0  0  0
   -1.5465    2.9543    0.8269 C   0  0  0  0  0  0  0  0  0  0  0  0
   -2.6459    3.2128   -0.0066 C   0  0  0  0  0  0  0  0  0  0  0  0
   -3.2594    4.4668    0.0208 C   0  0  0  0  0  0  0  0  0  0  0  0
   -2.7782    5.4500    0.8780 C   0  0  0  0  0  0  0  0  0  0  0  0
   -3.3705    6.6506    0.9025 F   0  0  0  0  0  0  0  0  0  0  0  0
   -1.6925    5.2052    1.7112 C   0  0  0  0  0  0  0  0  0  0  0  0
   -1.0709    3.9550    1.6882 C   0  0  0  0  0  0  0  0  0  0  0  0
   -1.5747    0.4364    0.6779 C   0  0  0  0  0  0  0  0  0  0  0  0
   -2.8964    0.2799    0.6690 O   0  0  0  0  0  0  0  0  0  0  0  0
    6.4099    0.0511    1.2584 H   0  0  0  0  0  0  0  0  0  0  0  0
    7.1325   -0.7162   -0.1525 H   0  0  0  0  0  0  0  0  0  0  0  0
    6.7923    1.0388   -0.1451 H   0  0  0  0  0  0  0  0  0  0  0  0
    3.4757   -0.4626   -3.4630 H   0  0  0  0  0  0  0  0  0  0  0  0
    1.5214   -0.8998   -2.0056 H   0  0  0  0  0  0  0  0  0  0  0  0
    4.6503   -0.4104    2.3840 H   0  0  0  0  0  0  0  0  0  0  0  0
    1.0098   -2.5977    1.8405 H   0  0  0  0  0  0  0  0  0  0  0  0
   -1.0774   -2.4656    1.4172 H   0  0  0  0  0  0  0  0  0  0  0  0
   -0.4717   -2.0352   -1.5830 H   0  0  0  0  0  0  0  0  0  0  0  0
   -0.3899   -3.6192   -0.8489 H   0  0  0  0  0  0  0  0  0  0  0  0
   -2.6145   -1.1261   -2.2394 H   0  0  0  0  0  0  0  0  0  0  0  0
   -5.0331   -1.4924   -2.5686 H   0  0  0  0  0  0  0  0  0  0  0  0
   -6.1687   -3.4039   -1.4681 H   0  0  0  0  0  0  0  0  0  0  0  0
   -4.8701   -4.9564   -0.0339 H   0  0  0  0  0  0  0  0  0  0  0  0
   -2.4487   -4.6108    0.2977 H   0  0  0  0  0  0  0  0  0  0  0  0
    1.0578    3.1978    0.5951 H   0  0  0  0  0  0  0  0  0  0  0  0
   -3.0110    2.4688   -0.7130 H   0  0  0  0  0  0  0  0  0  0  0  0
   -4.1032    4.6866   -0.6265 H   0  0  0  0  0  0  0  0  0  0  0  0
   -1.3453    5.9857    2.3818 H   0  0  0  0  0  0  0  0  0  0  0  0
   -0.2533    3.7670    2.3826 H   0  0  0  0  0  0  0  0  0  0  0  0
   -3.3154    1.0419    1.1058 H   0  0  0  0  0  0  0  0  0  0  0  0
  1  2  1  0
  2  3  2  0
  3  4  1  0
  3  5  1  0
  5  6  2  0
  6  7  1  0
  7  8  2  0
  8  9  1  0
  9 10  1  0
 10 11  2  0
 10 12  1  0
 12 13  1  0
 13 14  1  0
 14 15  1  0
 15 16  1  0
 16 17  2  0
 17 18  1  0
 18 19  2  0
 19 20  1  0
 20 21  2  0
 14 22  1  0
 22 23  1  0
 23 24  2  0
 24 25  1  0
 24 26  1  0
 26 27  1  0
 27 28  2  0
 28 29  1  0
 29 30  2  0
 30 31  1  0
 30 32  1  0
 32 33  2  0
 26 34  1  0
 34 35  1  0
  8  2  1  0
 23 12  1  0
 33 27  1  0
 12  7  1  0
 21 16  1  0
 34 22  2  0
  1 36  1  0
  1 37  1  0
  1 38  1  0
  5 39  1  0
  6 40  1  0
  9 41  1  0
 13 42  1  0
 14 43  1  1
 15 44  1  0
 15 45  1  0
 17 46  1  0
 18 47  1  0
 19 48  1  0
 20 49  1  0
 21 50  1  0
 25 51  1  0
 28 52  1  0
 29 53  1  0
 32 54  1  0
 33 55  1  0
 35 56  1  0
M  END
$$$$
