
     RDKit          3D

 51 53  0  0  0  0  0  0  0  0999 V2000
    2.2564    1.9160   -1.1528 N   0  0  0  0  0  0  0  0  0  0  0  0
    2.4511    1.3182   -0.1756 C   0  0  0  0  0  0  0  0  0  0  0  0
    2.7193    0.5721    1.0064 C   0  0  0  0  0  0  0  0  0  0  0  0
    2.0559   -0.5264    1.4135 C   0  0  0  0  0  0  0  0  0  0  0  0
    1.0109   -1.1549    0.6788 C   0  0  0  0  0  0  0  0  0  0  0  0
    0.2329   -2.2477    1.0480 C   0  0  0  0  0  0  0  0  0  0  0  0
   -0.6757   -2.5161   -0.0044 C   0  0  0  0  0  0  0  0  0  0  0  0
   -0.4140   -1.5811   -0.9772 C   0  0  0  0  0  0  0  0  0  0  0  0
   -0.9992   -1.2979   -2.3092 C   0  0  0  0  0  0  0  0  0  0  0  0
   -2.1829   -0.4974   -2.1306 N   0  0  0  0  0  0  0  0  0  0  0  0
   -3.4343   -1.0487   -2.0114 C   0  0  0  0  0  0  0  0  0  0  0  0
   -3.7243   -2.2306   -2.1462 O   0  0  0  0  0  0  0  0  0  0  0  0
   -4.5427   -0.0283   -1.6662 C   0  0  0  0  0  0  0  0  0  0  0  0
   -4.2341    1.1345   -1.4507 O   0  0  0  0  0  0  0  0  0  0  0  0
   -5.7908   -0.6173   -1.6542 N   0  0  0  0  0  0  0  0  0  0  0  0
   -7.0319   -0.0080   -1.3957 C   0  0  0  0  0  0  0  0  0  0  0  0
   -7.1841    1.3484   -1.0969 C   0  0  0  0  0  0  0  0  0  0  0  0
   -8.4572    1.8727   -0.8549 C   0  0  0  0  0  0  0  0  0  0  0  0
   -8.6334    3.5469   -0.4907 Cl  0  0  0  0  0  0  0  0  0  0  0  0
   -9.5864    1.0608   -0.9067 C   0  0  0  0  0  0  0  0  0  0  0  0
   -9.4333   -0.2888   -1.2033 C   0  0  0  0  0  0  0  0  0  0  0  0
  -10.8181   -1.3094   -1.2732 Cl  0  0  0  0  0  0  0  0  0  0  0  0
   -8.1675   -0.8258   -1.4469 C   0  0  0  0  0  0  0  0  0  0  0  0
    0.5972   -0.7684   -0.5727 O   0  0  0  0  0  0  0  0  0  0  0  0
    3.7771    1.1080    1.9059 C   0  0  0  0  0  0  0  0  0  0  0  0
    3.8122    2.2937    2.2120 O   0  0  0  0  0  0  0  0  0  0  0  0
    4.7144    0.1832    2.3146 N   0  0  0  0  0  0  0  0  0  0  0  0
    5.8930    0.5872    3.0549 C   0  0  0  0  0  0  0  0  0  0  0  0
    7.0907    0.6711    2.1555 C   0  0  0  0  0  0  0  0  0  0  0  0
    7.2406    1.7112    1.2316 C   0  0  0  0  0  0  0  0  0  0  0  0
    8.3587    1.7431    0.4019 C   0  0  0  0  0  0  0  0  0  0  0  0
    9.2947    0.7282    0.5217 C   0  0  0  0  0  0  0  0  0  0  0  0
    9.1849   -0.2934    1.3996 N   0  0  0  0  0  0  0  0  0  0  0  0
    8.0909   -0.2968    2.1949 C   0  0  0  0  0  0  0  0  0  0  0  0
    2.3038   -0.9789    2.3713 H   0  0  0  0  0  0  0  0  0  0  0  0
    0.3091   -2.7877    1.9825 H   0  0  0  0  0  0  0  0  0  0  0  0
   -1.4318   -3.2880   -0.0490 H   0  0  0  0  0  0  0  0  0  0  0  0
   -1.2465   -2.2301   -2.8293 H   0  0  0  0  0  0  0  0  0  0  0  0
   -0.3028   -0.7260   -2.9316 H   0  0  0  0  0  0  0  0  0  0  0  0
   -2.0827    0.4807   -1.8663 H   0  0  0  0  0  0  0  0  0  0  0  0
   -5.7798   -1.6150   -1.8621 H   0  0  0  0  0  0  0  0  0  0  0  0
   -6.3312    2.0191   -1.0464 H   0  0  0  0  0  0  0  0  0  0  0  0
  -10.5721    1.4762   -0.7187 H   0  0  0  0  0  0  0  0  0  0  0  0
   -8.0768   -1.8847   -1.6771 H   0  0  0  0  0  0  0  0  0  0  0  0
    4.7472   -0.7199    1.8614 H   0  0  0  0  0  0  0  0  0  0  0  0
    5.7321    1.5473    3.5572 H   0  0  0  0  0  0  0  0  0  0  0  0
    6.0479   -0.1650    3.8353 H   0  0  0  0  0  0  0  0  0  0  0  0
    6.4903    2.4980    1.1572 H   0  0  0  0  0  0  0  0  0  0  0  0
    8.4949    2.5412   -0.3205 H   0  0  0  0  0  0  0  0  0  0  0  0
   10.1840    0.7090   -0.1033 H   0  0  0  0  0  0  0  0  0  0  0  0
    8.0434   -1.1343    2.8873 H   0  0  0  0  0  0  0  0  0  0  0  0
  1  2  3  0
  2  3  1  0
  3  4  2  3
  4  5  1  0
  5  6  2  0
  6  7  1  0
  7  8  2  0
  8  9  1  0
  9 10  1  0
 10 11  1  0
 11 12  2  0
 11 13  1  0
 13 14  2  0
 13 15  1  0
 15 16  1  0
 16 17  2  0
 17 18  1  0
 18 19  1  0
 18 20  2  0
 20 21  1  0
 21 22  1  0
 21 23  2  0
  8 24  1  0
  3 25  1  0
 25 26  2  0
 25 27  1  0
 27 28  1  0
 28 29  1  0
 29 30  2  0
 30 31  1  0
 31 32  2  0
 32 33  1  0
 33 34  2  0
 24  5  1  0
 34 29  1  0
 23 16  1  0
  4 35  1  0
  6 36  1  0
  7 37  1  0
  9 38  1  0
  9 39  1  0
 10 40  1  0
 15 41  1  0
 17 42  1  0
 20 43  1  0
 23 44  1  0
 27 45  1  0
 28 46  1  0
 28 47  1  0
 30 48  1  0
 31 49  1  0
 32 50  1  0
 34 51  1  0
M  END
$$$$
