
     RDKit          3D

 61 65  0  0  0  0  0  0  0  0999 V2000
   -9.1481    3.5166   -0.3671 C   0  0  0  0  0  0  0  0  0  0  0  0
   -8.0319    2.5208   -0.2647 C   0  0  0  0  0  0  0  0  0  0  0  0
   -8.3036    1.1513   -0.2265 C   0  0  0  0  0  0  0  0  0  0  0  0
   -7.2577    0.2234   -0.1655 C   0  0  0  0  0  0  0  0  0  0  0  0
   -5.9100    0.6281   -0.1564 C   0  0  0  0  0  0  0  0  0  0  0  0
   -4.8258   -0.3753   -0.0997 C   0  0  0  0  0  0  0  0  0  0  0  0
   -3.5916   -0.1927   -0.6979 C   0  0  0  0  0  0  0  0  0  0  0  0
   -2.6407   -1.2091   -0.5892 C   0  0  0  0  0  0  0  0  0  0  0  0
   -1.3197   -0.9405   -1.2062 C   0  0  0  0  0  0  0  0  0  0  0  0
   -1.2896   -0.6137   -2.3848 O   0  0  0  0  0  0  0  0  0  0  0  0
   -0.2561   -1.0456   -0.3310 N   0  0  0  0  0  0  0  0  0  0  0  0
    1.1160   -0.9420   -0.6358 C   0  0  0  0  0  0  0  0  0  0  0  0
    1.6145   -0.7326   -1.9243 C   0  0  0  0  0  0  0  0  0  0  0  0
    2.9942   -0.6740   -2.1537 C   0  0  0  0  0  0  0  0  0  0  0  0
    3.8798   -0.8200   -1.0851 C   0  0  0  0  0  0  0  0  0  0  0  0
    5.6301   -0.8139   -1.3747 S   0  0  0  0  0  6  0  0  0  0  0  0
    6.2664   -1.6480   -0.3800 O   0  0  0  0  0  0  0  0  0  0  0  0
    5.8474   -1.0561   -2.7875 O   0  0  0  0  0  0  0  0  0  0  0  0
    6.0240    0.8084   -1.1385 N   0  0  0  0  0  0  0  0  0  0  0  0
    6.5749    1.1116    0.1679 C   0  0  0  0  0  0  0  0  0  0  0  0
    5.9604    0.8263    1.3461 O   0  0  0  0  0  0  0  0  0  0  0  0
    6.7450    1.2614    2.3956 N   0  0  0  0  0  0  0  0  0  0  0  0
    7.8234    1.8204    1.8344 C   0  0  0  0  0  0  0  0  0  0  0  0
    8.8919    2.3885    2.6880 C   0  0  0  0  0  0  0  0  0  0  0  0
    7.7647    1.7629    0.4131 C   0  0  0  0  0  0  0  0  0  0  0  0
    8.7612    2.2572   -0.5632 C   0  0  0  0  0  0  0  0  0  0  0  0
    3.3975   -1.0418    0.2056 C   0  0  0  0  0  0  0  0  0  0  0  0
    2.0186   -1.0939    0.4265 C   0  0  0  0  0  0  0  0  0  0  0  0
   -2.9363   -2.4229    0.0710 C   0  0  0  0  0  0  0  0  0  0  0  0
   -2.0692   -3.5450    0.1607 C   0  0  0  0  0  0  0  0  0  0  0  0
   -2.4477   -4.6957    0.8496 C   0  0  0  0  0  0  0  0  0  0  0  0
   -3.6964   -4.7499    1.4496 C   0  0  0  0  0  0  0  0  0  0  0  0
   -4.5623   -3.6594    1.3419 C   0  0  0  0  0  0  0  0  0  0  0  0
   -4.2114   -2.5040    0.6564 C   0  0  0  0  0  0  0  0  0  0  0  0
   -5.1152   -1.5138    0.5793 N   0  0  0  0  0  0  0  0  0  0  0  0
   -5.6556    2.0113   -0.2016 C   0  0  0  0  0  0  0  0  0  0  0  0
   -6.6994    2.9436   -0.2615 C   0  0  0  0  0  0  0  0  0  0  0  0
   -8.8825    4.4516    0.1325 H   0  0  0  0  0  0  0  0  0  0  0  0
   -9.3665    3.7272   -1.4175 H   0  0  0  0  0  0  0  0  0  0  0  0
  -10.0568    3.1388    0.1122 H   0  0  0  0  0  0  0  0  0  0  0  0
   -9.3295    0.7904   -0.2420 H   0  0  0  0  0  0  0  0  0  0  0  0
   -7.5033   -0.8388   -0.1318 H   0  0  0  0  0  0  0  0  0  0  0  0
   -3.3602    0.7096   -1.2554 H   0  0  0  0  0  0  0  0  0  0  0  0
   -0.4817   -1.2242    0.6414 H   0  0  0  0  0  0  0  0  0  0  0  0
    0.9538   -0.6235   -2.7794 H   0  0  0  0  0  0  0  0  0  0  0  0
    3.3588   -0.5270   -3.1679 H   0  0  0  0  0  0  0  0  0  0  0  0
    6.5086    1.1812   -1.9523 H   0  0  0  0  0  0  0  0  0  0  0  0
    9.0314    3.4531    2.4694 H   0  0  0  0  0  0  0  0  0  0  0  0
    9.8397    1.8718    2.5067 H   0  0  0  0  0  0  0  0  0  0  0  0
    8.6517    2.2916    3.7518 H   0  0  0  0  0  0  0  0  0  0  0  0
    8.2864    2.8966   -1.3136 H   0  0  0  0  0  0  0  0  0  0  0  0
    9.2364    1.4155   -1.0788 H   0  0  0  0  0  0  0  0  0  0  0  0
    9.5481    2.8414   -0.0774 H   0  0  0  0  0  0  0  0  0  0  0  0
    4.0824   -1.1816    1.0401 H   0  0  0  0  0  0  0  0  0  0  0  0
    1.6639   -1.2649    1.4402 H   0  0  0  0  0  0  0  0  0  0  0  0
   -1.0956   -3.5424   -0.3262 H   0  0  0  0  0  0  0  0  0  0  0  0
   -1.7737   -5.5472    0.9073 H   0  0  0  0  0  0  0  0  0  0  0  0
   -4.0088   -5.6404    1.9893 H   0  0  0  0  0  0  0  0  0  0  0  0
   -5.5469   -3.7162    1.8017 H   0  0  0  0  0  0  0  0  0  0  0  0
   -4.6362    2.3899   -0.1768 H   0  0  0  0  0  0  0  0  0  0  0  0
   -6.4612    4.0050   -0.3009 H   0  0  0  0  0  0  0  0  0  0  0  0
  1  2  1  0
  2  3  2  0
  3  4  1  0
  4  5  2  0
  5  6  1  0
  6  7  2  0
  7  8  1  0
  8  9  1  0
  9 10  2  0
  9 11  1  0
 11 12  1  0
 12 13  2  0
 13 14  1  0
 14 15  2  0
 15 16  1  0
 16 17  2  0
 16 18  2  0
 16 19  1  0
 19 20  1  0
 20 21  1  0
 21 22  1  0
 22 23  2  0
 23 24  1  0
 23 25  1  0
 25 26  1  0
 15 27  1  0
 27 28  2  0
  8 29  2  0
 29 30  1  0
 30 31  2  0
 31 32  1  0
 32 33  2  0
 33 34  1  0
 34 35  2  0
  5 36  1  0
 36 37  2  0
 37  2  1  0
 35  6  1  0
 28 12  1  0
 34 29  1  0
 25 20  2  0
  1 38  1  0
  1 39  1  0
  1 40  1  0
  3 41  1  0
  4 42  1  0
  7 43  1  0
 11 44  1  0
 13 45  1  0
 14 46  1  0
 19 47  1  0
 24 48  1  0
 24 49  1  0
 24 50  1  0
 26 51  1  0
 26 52  1  0
 26 53  1  0
 27 54  1  0
 28 55  1  0
 30 56  1  0
 31 57  1  0
 32 58  1  0
 33 59  1  0
 36 60  1  0
 37 61  1  0
M  END
$$$$
