
     RDKit          3D

 56 58  0  0  0  0  0  0  0  0999 V2000
    1.6503   -0.4271   -4.4960 C   0  0  0  0  0  0  0  0  0  0  0  0
    2.1856   -0.3471   -3.1827 O   0  0  0  0  0  0  0  0  0  0  0  0
    1.3221   -0.5276   -2.1295 C   0  0  0  0  0  0  0  0  0  0  0  0
   -0.0576   -0.7319   -2.2631 C   0  0  0  0  0  0  0  0  0  0  0  0
   -0.8735   -0.8964   -1.1351 C   0  0  0  0  0  0  0  0  0  0  0  0
   -2.3099   -1.1321   -1.3289 C   0  0  0  0  0  0  0  0  0  0  0  0
   -3.2646   -0.6084   -0.5456 C   0  0  0  0  0  0  0  0  0  0  0  0
   -4.6940   -0.8920   -0.8448 C   0  0  0  0  0  0  0  0  0  0  0  0
   -5.0594   -1.6053   -1.7708 O   0  0  0  0  0  0  0  0  0  0  0  0
   -5.6896   -0.2902    0.0633 C   0  0  0  0  0  0  0  0  0  0  0  0
   -5.8395    1.1100    0.1461 C   0  0  0  0  0  0  0  0  0  0  0  0
   -4.9962    1.8644   -0.6264 O   0  0  0  0  0  0  0  0  0  0  0  0
   -5.2333    3.2654   -0.6962 C   0  0  0  0  0  0  0  0  0  0  0  0
   -6.8197    1.6473    0.9976 C   0  0  0  0  0  0  0  0  0  0  0  0
   -7.6494    0.8098    1.7492 C   0  0  0  0  0  0  0  0  0  0  0  0
   -7.4848   -0.5626    1.6442 C   0  0  0  0  0  0  0  0  0  0  0  0
   -8.2923   -1.4202    2.3876 O   0  0  0  0  0  0  0  0  0  0  0  0
   -7.8908   -2.7214    2.1021 C   0  0  0  0  0  0  0  0  0  0  0  0
   -8.4164   -3.6983    2.6185 O   0  0  0  0  0  0  0  0  0  0  0  0
   -6.5584   -2.8729    0.9562 S   0  0  0  0  0  0  0  0  0  0  0  0
   -6.5191   -1.1203    0.8136 C   0  0  0  0  0  0  0  0  0  0  0  0
   -0.2861   -0.8826    0.1333 C   0  0  0  0  0  0  0  0  0  0  0  0
    1.0898   -0.6793    0.2787 C   0  0  0  0  0  0  0  0  0  0  0  0
    1.9005   -0.4959   -0.8450 C   0  0  0  0  0  0  0  0  0  0  0  0
    3.2563   -0.2886   -0.7997 O   0  0  0  0  0  0  0  0  0  0  0  0
    3.8813   -0.2247    0.4800 C   0  0  0  0  0  0  0  0  0  0  0  0
    5.3696    0.0410    0.2589 C   0  0  0  0  0  0  0  0  0  0  0  0
    6.1132    0.1352    1.5949 C   0  0  0  0  0  0  0  0  0  0  0  0
    7.5596    0.3863    1.5325 N   0  0  0  0  0  0  0  0  0  0  0  0
    8.2951   -0.6975    0.8860 C   0  0  0  0  0  0  0  0  0  0  0  0
    7.8865    1.6730    0.9235 C   0  0  0  0  0  0  0  0  0  0  0  0
    0.9238    0.3725   -4.6750 H   0  0  0  0  0  0  0  0  0  0  0  0
    2.4750   -0.2897   -5.2020 H   0  0  0  0  0  0  0  0  0  0  0  0
    1.2118   -1.4123   -4.6860 H   0  0  0  0  0  0  0  0  0  0  0  0
   -0.5243   -0.7568   -3.2429 H   0  0  0  0  0  0  0  0  0  0  0  0
   -2.5810   -1.7508   -2.1836 H   0  0  0  0  0  0  0  0  0  0  0  0
   -3.0395    0.0349    0.2961 H   0  0  0  0  0  0  0  0  0  0  0  0
   -6.2428    3.4795   -1.0621 H   0  0  0  0  0  0  0  0  0  0  0  0
   -4.5221    3.6888   -1.4120 H   0  0  0  0  0  0  0  0  0  0  0  0
   -5.0532    3.7413    0.2728 H   0  0  0  0  0  0  0  0  0  0  0  0
   -6.9643    2.7195    1.0969 H   0  0  0  0  0  0  0  0  0  0  0  0
   -8.4090    1.2280    2.4041 H   0  0  0  0  0  0  0  0  0  0  0  0
   -0.8867   -1.0438    1.0253 H   0  0  0  0  0  0  0  0  0  0  0  0
    1.4966   -0.6782    1.2841 H   0  0  0  0  0  0  0  0  0  0  0  0
    3.4487    0.5923    1.0697 H   0  0  0  0  0  0  0  0  0  0  0  0
    3.7547   -1.1779    1.0071 H   0  0  0  0  0  0  0  0  0  0  0  0
    5.4797    0.9662   -0.3190 H   0  0  0  0  0  0  0  0  0  0  0  0
    5.7813   -0.7601   -0.3661 H   0  0  0  0  0  0  0  0  0  0  0  0
    5.9489   -0.7904    2.1623 H   0  0  0  0  0  0  0  0  0  0  0  0
    5.6545    0.9255    2.2038 H   0  0  0  0  0  0  0  0  0  0  0  0
    8.0649   -1.6591    1.3583 H   0  0  0  0  0  0  0  0  0  0  0  0
    8.0779   -0.7762   -0.1846 H   0  0  0  0  0  0  0  0  0  0  0  0
    9.3743   -0.5443    1.0002 H   0  0  0  0  0  0  0  0  0  0  0  0
    8.9541    1.8895    1.0444 H   0  0  0  0  0  0  0  0  0  0  0  0
    7.3452    2.4868    1.4191 H   0  0  0  0  0  0  0  0  0  0  0  0
    7.6563    1.7047   -0.1469 H   0  0  0  0  0  0  0  0  0  0  0  0
  1  2  1  0
  2  3  1  0
  3  4  2  0
  4  5  1  0
  5  6  1  0
  6  7  2  0
  7  8  1  0
  8  9  2  0
  8 10  1  0
 10 11  2  0
 11 12  1  0
 12 13  1  0
 11 14  1  0
 14 15  2  0
 15 16  1  0
 16 17  1  0
 17 18  1  0
 18 19  2  0
 18 20  1  0
 20 21  1  0
  5 22  2  0
 22 23  1  0
 23 24  2  0
 24 25  1  0
 25 26  1  0
 26 27  1  0
 27 28  1  0
 28 29  1  0
 29 30  1  0
 29 31  1  0
 24  3  1  0
 21 10  1  0
 21 16  2  0
  1 32  1  0
  1 33  1  0
  1 34  1  0
  4 35  1  0
  6 36  1  0
  7 37  1  0
 13 38  1  0
 13 39  1  0
 13 40  1  0
 14 41  1  0
 15 42  1  0
 22 43  1  0
 23 44  1  0
 26 45  1  0
 26 46  1  0
 27 47  1  0
 27 48  1  0
 28 49  1  0
 28 50  1  0
 30 51  1  0
 30 52  1  0
 30 53  1  0
 31 54  1  0
 31 55  1  0
 31 56  1  0
M  END
$$$$
