
     RDKit          3D

 46 49  0  0  0  0  0  0  0  0999 V2000
    3.9840    1.2249    0.4561 O   0  0  0  0  0  0  0  0  0  0  0  0
    3.4227    0.2037    0.8506 C   0  0  0  0  0  0  0  0  0  0  0  0
    3.9953   -1.1736    0.5322 C   0  0  0  0  0  0  0  0  0  0  0  0
    3.2169   -1.8786   -0.9563 S   0  0  0  0  0  0  0  0  0  0  0  0
    1.6519   -2.2605   -0.3349 C   0  0  0  0  0  0  0  0  0  0  0  0
    1.3822   -2.5068    0.9249 N   0  0  0  0  0  0  0  0  0  0  0  0
    0.0293   -2.6518    1.0396 N   0  0  0  0  0  0  0  0  0  0  0  0
   -0.5124   -2.5065   -0.1596 C   0  0  0  0  0  0  0  0  0  0  0  0
   -1.9746   -2.6065   -0.4639 C   0  0  0  0  0  0  0  0  0  0  0  0
   -2.7089   -1.3085   -0.2653 C   0  0  0  0  0  0  0  0  0  0  0  0
   -3.1748   -0.4268   -1.2215 C   0  0  0  0  0  0  0  0  0  0  0  0
   -3.7884    0.7237   -0.6496 C   0  0  0  0  0  0  0  0  0  0  0  0
   -3.8093    0.6676    0.7251 C   0  0  0  0  0  0  0  0  0  0  0  0
   -3.1093   -0.7755    1.3171 S   0  0  0  0  0  0  0  0  0  0  0  0
    0.4970   -2.2795   -1.0729 N   0  0  0  0  0  0  0  0  0  0  0  0
    0.3746   -2.1285   -2.5108 C   0  0  0  0  0  0  0  0  0  0  0  0
    0.0159   -0.7442   -2.9180 C   0  0  0  0  0  0  0  0  0  0  0  0
   -0.6621   -0.2322   -4.0088 C   0  0  0  0  0  0  0  0  0  0  0  0
   -0.6763    1.1761   -3.8466 C   0  0  0  0  0  0  0  0  0  0  0  0
    0.0052    1.4362   -2.6809 C   0  0  0  0  0  0  0  0  0  0  0  0
    0.4343    0.2780   -2.1166 O   0  0  0  0  0  0  0  0  0  0  0  0
    2.2595    0.1486    1.6013 N   0  0  0  0  0  0  0  0  0  0  0  0
    1.4727    1.2298    2.0529 C   0  0  0  0  0  0  0  0  0  0  0  0
    0.2429    0.9088    2.6460 C   0  0  0  0  0  0  0  0  0  0  0  0
   -0.6139    1.9141    3.1033 C   0  0  0  0  0  0  0  0  0  0  0  0
   -0.2427    3.2504    2.9799 C   0  0  0  0  0  0  0  0  0  0  0  0
    0.9835    3.5743    2.4038 C   0  0  0  0  0  0  0  0  0  0  0  0
    1.4391    5.2324    2.2546 Cl  0  0  0  0  0  0  0  0  0  0  0  0
    1.8431    2.5726    1.9414 C   0  0  0  0  0  0  0  0  0  0  0  0
    5.0671   -1.0622    0.3460 H   0  0  0  0  0  0  0  0  0  0  0  0
    3.8940   -1.8432    1.3950 H   0  0  0  0  0  0  0  0  0  0  0  0
   -2.1357   -2.9666   -1.4879 H   0  0  0  0  0  0  0  0  0  0  0  0
   -2.4097   -3.3758    0.1874 H   0  0  0  0  0  0  0  0  0  0  0  0
   -3.0604   -0.5815   -2.2874 H   0  0  0  0  0  0  0  0  0  0  0  0
   -4.1930    1.5506   -1.2160 H   0  0  0  0  0  0  0  0  0  0  0  0
   -4.2056    1.4030    1.4123 H   0  0  0  0  0  0  0  0  0  0  0  0
   -0.3763   -2.8500   -2.8557 H   0  0  0  0  0  0  0  0  0  0  0  0
    1.3203   -2.4202   -2.9792 H   0  0  0  0  0  0  0  0  0  0  0  0
   -1.0940   -0.8028   -4.8189 H   0  0  0  0  0  0  0  0  0  0  0  0
   -1.1230    1.9099   -4.4988 H   0  0  0  0  0  0  0  0  0  0  0  0
    0.2615    2.3397   -2.1437 H   0  0  0  0  0  0  0  0  0  0  0  0
    1.8525   -0.7781    1.7410 H   0  0  0  0  0  0  0  0  0  0  0  0
   -0.0720   -0.1338    2.7367 H   0  0  0  0  0  0  0  0  0  0  0  0
   -1.5739    1.6514    3.5370 H   0  0  0  0  0  0  0  0  0  0  0  0
   -0.9172    4.0320    3.3146 H   0  0  0  0  0  0  0  0  0  0  0  0
    2.7883    2.8660    1.4957 H   0  0  0  0  0  0  0  0  0  0  0  0
  1  2  2  0
  2  3  1  0
  3  4  1  0
  4  5  1  0
  5  6  2  0
  6  7  1  0
  7  8  2  0
  8  9  1  0
  9 10  1  0
 10 11  2  0
 11 12  1  0
 12 13  2  0
 13 14  1  0
  8 15  1  0
 15 16  1  0
 16 17  1  0
 17 18  2  0
 18 19  1  0
 19 20  2  0
 20 21  1  0
  2 22  1  0
 22 23  1  0
 23 24  2  0
 24 25  1  0
 25 26  2  0
 26 27  1  0
 27 28  1  0
 27 29  2  0
 15  5  1  0
 21 17  1  0
 29 23  1  0
 14 10  1  0
  3 30  1  0
  3 31  1  0
  9 32  1  0
  9 33  1  0
 11 34  1  0
 12 35  1  0
 13 36  1  0
 16 37  1  0
 16 38  1  0
 18 39  1  0
 19 40  1  0
 20 41  1  0
 22 42  1  0
 24 43  1  0
 25 44  1  0
 26 45  1  0
 29 46  1  0
M  END
$$$$
