
     RDKit          3D

 50 53  0  0  0  0  0  0  0  0999 V2000
   -6.3930   -2.2180    4.9050 C   0  0  0  0  0  0  0  0  0  0  0  0
   -5.4576   -1.7027    3.8516 C   0  0  0  0  0  0  0  0  0  0  0  0
   -4.6477   -0.5905    4.1001 C   0  0  0  0  0  0  0  0  0  0  0  0
   -3.7958   -0.0992    3.1060 C   0  0  0  0  0  0  0  0  0  0  0  0
   -3.7601   -0.6938    1.8332 C   0  0  0  0  0  0  0  0  0  0  0  0
   -2.8654   -0.1681    0.8504 N   0  0  0  0  0  0  0  0  0  0  0  0
   -1.8445    0.6350    1.2579 N   0  0  0  0  0  0  0  0  0  0  0  0
   -1.0448    0.7403    0.1936 C   0  0  0  0  0  0  0  0  0  0  0  0
    0.2448    1.4156    0.1399 C   0  0  0  0  0  0  0  0  0  0  0  0
    0.7772    1.9639    1.1035 O   0  0  0  0  0  0  0  0  0  0  0  0
    0.8157    1.3914   -1.1478 N   0  0  0  0  0  0  0  0  0  0  0  0
    2.1483    1.9461   -1.3133 C   0  0  0  0  0  0  0  0  0  0  0  0
    3.2189    0.9359   -0.8899 C   0  0  0  0  0  0  0  0  0  0  0  0
    2.9824   -0.2137   -0.5288 O   0  0  0  0  0  0  0  0  0  0  0  0
    4.5061    1.4377   -0.9711 N   0  0  0  0  0  0  0  0  0  0  0  0
    5.6249    0.6593   -0.4905 C   0  0  0  0  0  0  0  0  0  0  0  0
    6.8661    1.1969   -1.1244 C   0  0  0  0  0  0  0  0  0  0  0  0
    7.4121    0.8623   -2.3477 C   0  0  0  0  0  0  0  0  0  0  0  0
    8.6060    1.5849   -2.6282 C   0  0  0  0  0  0  0  0  0  0  0  0
    8.9336    2.4486   -1.6098 C   0  0  0  0  0  0  0  0  0  0  0  0
    7.8029    2.3885   -0.3284 S   0  0  0  0  0  0  0  0  0  0  0  0
    0.2411    0.8021   -2.2806 N   0  0  0  0  0  0  0  0  0  0  0  0
   -0.9087    0.1923   -2.2045 C   0  0  0  0  0  0  0  0  0  0  0  0
   -1.4682   -0.4314   -3.4510 C   0  0  0  0  0  0  0  0  0  0  0  0
   -1.6063    0.1467   -0.9425 C   0  0  0  0  0  0  0  0  0  0  0  0
   -2.8371   -0.3428   -0.5387 C   0  0  0  0  0  0  0  0  0  0  0  0
   -3.9582   -0.8905   -1.3446 C   0  0  0  0  0  0  0  0  0  0  0  0
   -4.5667   -1.8111    1.5891 C   0  0  0  0  0  0  0  0  0  0  0  0
   -5.4156   -2.3028    2.5884 C   0  0  0  0  0  0  0  0  0  0  0  0
   -7.3884   -1.7786    4.7704 H   0  0  0  0  0  0  0  0  0  0  0  0
   -6.4779   -3.3108    4.8463 H   0  0  0  0  0  0  0  0  0  0  0  0
   -6.0300   -1.9713    5.9097 H   0  0  0  0  0  0  0  0  0  0  0  0
   -4.6657   -0.0983    5.0711 H   0  0  0  0  0  0  0  0  0  0  0  0
   -3.1720    0.7653    3.3376 H   0  0  0  0  0  0  0  0  0  0  0  0
    2.2499    2.8500   -0.7015 H   0  0  0  0  0  0  0  0  0  0  0  0
    2.3011    2.2105   -2.3661 H   0  0  0  0  0  0  0  0  0  0  0  0
    4.6363    2.4402   -1.0323 H   0  0  0  0  0  0  0  0  0  0  0  0
    5.4840   -0.3971   -0.7458 H   0  0  0  0  0  0  0  0  0  0  0  0
    5.6499    0.7418    0.6022 H   0  0  0  0  0  0  0  0  0  0  0  0
    6.9704    0.1300   -3.0117 H   0  0  0  0  0  0  0  0  0  0  0  0
    9.1966    1.4755   -3.5295 H   0  0  0  0  0  0  0  0  0  0  0  0
    9.7834    3.1142   -1.5562 H   0  0  0  0  0  0  0  0  0  0  0  0
   -1.8555   -1.4292   -3.2390 H   0  0  0  0  0  0  0  0  0  0  0  0
   -0.6895   -0.5167   -4.2146 H   0  0  0  0  0  0  0  0  0  0  0  0
   -2.2691    0.2001   -3.8417 H   0  0  0  0  0  0  0  0  0  0  0  0
   -4.9306   -0.6762   -0.8915 H   0  0  0  0  0  0  0  0  0  0  0  0
   -3.9881   -0.4278   -2.3359 H   0  0  0  0  0  0  0  0  0  0  0  0
   -3.8478   -1.9701   -1.4825 H   0  0  0  0  0  0  0  0  0  0  0  0
   -4.5331   -2.3598    0.6559 H   0  0  0  0  0  0  0  0  0  0  0  0
   -6.0341   -3.1743    2.3783 H   0  0  0  0  0  0  0  0  0  0  0  0
  1  2  1  0
  2  3  2  0
  3  4  1  0
  4  5  2  0
  5  6  1  0
  6  7  1  0
  7  8  2  0
  8  9  1  0
  9 10  2  0
  9 11  1  0
 11 12  1  0
 12 13  1  0
 13 14  2  0
 13 15  1  0
 15 16  1  0
 16 17  1  0
 17 18  2  0
 18 19  1  0
 19 20  2  0
 20 21  1  0
 11 22  1  0
 22 23  2  0
 23 24  1  0
 23 25  1  0
 25 26  2  0
 26 27  1  0
  5 28  1  0
 28 29  2  0
 29  2  1  0
 26  6  1  0
 25  8  1  0
 21 17  1  0
  1 30  1  0
  1 31  1  0
  1 32  1  0
  3 33  1  0
  4 34  1  0
 12 35  1  0
 12 36  1  0
 15 37  1  0
 16 38  1  0
 16 39  1  0
 18 40  1  0
 19 41  1  0
 20 42  1  0
 24 43  1  0
 24 44  1  0
 24 45  1  0
 27 46  1  0
 27 47  1  0
 27 48  1  0
 28 49  1  0
 29 50  1  0
M  END
$$$$
