
     RDKit          3D

 44 46  0  0  0  0  0  0  0  0999 V2000
   -4.8115   -0.3594    4.3105 C   0  0  0  0  0  0  0  0  0  0  0  0
   -3.6493   -0.4139    3.3554 C   0  0  0  0  0  0  0  0  0  0  0  0
   -3.8335   -0.9892    2.0862 C   0  0  0  0  0  0  0  0  0  0  0  0
   -2.7875   -1.0806    1.1513 C   0  0  0  0  0  0  0  0  0  0  0  0
   -3.0665   -1.7364   -0.1728 C   0  0  0  0  0  0  0  0  0  0  0  0
   -1.5259   -0.5875    1.5224 C   0  0  0  0  0  0  0  0  0  0  0  0
   -0.1222   -0.6610    0.4178 S   0  0  0  0  0  6  0  0  0  0  0  0
    1.0300   -0.1345    1.1215 O   0  0  0  0  0  0  0  0  0  0  0  0
   -0.0971   -1.9689   -0.1981 O   0  0  0  0  0  0  0  0  0  0  0  0
   -0.5583    0.5269   -0.7304 N   0  0  0  0  0  0  0  0  0  0  0  0
    0.2854    0.5510   -1.8891 C   0  0  0  0  0  0  0  0  0  0  0  0
    0.0157   -0.3128   -2.9480 C   0  0  0  0  0  0  0  0  0  0  0  0
    0.8507   -0.3204   -4.0637 C   0  0  0  0  0  0  0  0  0  0  0  0
    1.9649    0.5164   -4.1045 C   0  0  0  0  0  0  0  0  0  0  0  0
    2.7362    0.4290   -5.2312 O   0  0  0  0  0  0  0  0  0  0  0  0
    2.2572    1.3819   -3.0396 C   0  0  0  0  0  0  0  0  0  0  0  0
    3.6130    2.5463   -3.0479 S   0  0  0  0  0  0  0  0  0  0  0  0
    4.9933    1.4885   -3.0496 C   0  0  0  0  0  0  0  0  0  0  0  0
    5.2260    0.5915   -4.0611 N   0  0  0  0  0  0  0  0  0  0  0  0
    6.3410    0.0095   -3.6818 C   0  0  0  0  0  0  0  0  0  0  0  0
    6.7581    0.5488   -2.5054 N   0  0  0  0  0  0  0  0  0  0  0  0
    5.9201    1.5108   -2.0892 N   0  0  0  0  0  0  0  0  0  0  0  0
    1.4045    1.3869   -1.9256 C   0  0  0  0  0  0  0  0  0  0  0  0
   -1.3258   -0.0263    2.7939 C   0  0  0  0  0  0  0  0  0  0  0  0
   -2.3761    0.0588    3.7200 C   0  0  0  0  0  0  0  0  0  0  0  0
   -2.1168    0.6637    5.0733 C   0  0  0  0  0  0  0  0  0  0  0  0
   -5.7564   -0.5850    3.8052 H   0  0  0  0  0  0  0  0  0  0  0  0
   -4.6724   -1.0903    5.1138 H   0  0  0  0  0  0  0  0  0  0  0  0
   -4.9110    0.6417    4.7418 H   0  0  0  0  0  0  0  0  0  0  0  0
   -4.8166   -1.3800    1.8223 H   0  0  0  0  0  0  0  0  0  0  0  0
   -2.7079   -1.1247   -1.0043 H   0  0  0  0  0  0  0  0  0  0  0  0
   -4.1427   -1.8705   -0.3305 H   0  0  0  0  0  0  0  0  0  0  0  0
   -2.6046   -2.7272   -0.2109 H   0  0  0  0  0  0  0  0  0  0  0  0
   -0.5612    1.4291   -0.2513 H   0  0  0  0  0  0  0  0  0  0  0  0
   -0.8397   -0.9818   -2.9111 H   0  0  0  0  0  0  0  0  0  0  0  0
    0.6424   -0.9873   -4.8967 H   0  0  0  0  0  0  0  0  0  0  0  0
    3.6534    0.6747   -4.9857 H   0  0  0  0  0  0  0  0  0  0  0  0
    6.8728   -0.7781   -4.1976 H   0  0  0  0  0  0  0  0  0  0  0  0
    7.5751    0.3234   -1.9480 H   0  0  0  0  0  0  0  0  0  0  0  0
    1.6200    2.0403   -1.0834 H   0  0  0  0  0  0  0  0  0  0  0  0
   -0.3399    0.3415    3.0764 H   0  0  0  0  0  0  0  0  0  0  0  0
   -2.6354    1.6231    5.1649 H   0  0  0  0  0  0  0  0  0  0  0  0
   -2.4537   -0.0113    5.8665 H   0  0  0  0  0  0  0  0  0  0  0  0
   -1.0479    0.8431    5.2347 H   0  0  0  0  0  0  0  0  0  0  0  0
  1  2  1  0
  2  3  2  0
  3  4  1  0
  4  5  1  0
  4  6  2  0
  6  7  1  0
  7  8  2  0
  7  9  2  0
  7 10  1  0
 10 11  1  0
 11 12  2  0
 12 13  1  0
 13 14  2  0
 14 15  1  0
 14 16  1  0
 16 17  1  0
 17 18  1  0
 18 19  1  0
 19 20  2  0
 20 21  1  0
 21 22  1  0
 16 23  2  0
  6 24  1  0
 24 25  2  0
 25 26  1  0
 25  2  1  0
 23 11  1  0
 22 18  2  0
  1 27  1  0
  1 28  1  0
  1 29  1  0
  3 30  1  0
  5 31  1  0
  5 32  1  0
  5 33  1  0
 10 34  1  0
 12 35  1  0
 13 36  1  0
 15 37  1  0
 20 38  1  0
 21 39  1  0
 23 40  1  0
 24 41  1  0
 26 42  1  0
 26 43  1  0
 26 44  1  0
M  END
$$$$
