
     RDKit          3D

 57 61  0  0  0  0  0  0  0  0999 V2000
   -5.8963   -2.0068   -1.1805 C   0  0  0  0  0  0  0  0  0  0  0  0
   -4.4295   -1.8824   -0.7597 C   0  0  0  0  0  0  0  0  0  0  0  0
   -4.1012   -2.9543    0.2792 C   0  0  0  0  0  0  0  0  0  0  0  0
   -4.1402   -0.4881   -0.1917 C   0  0  0  0  0  0  0  0  0  0  0  0
   -5.0645    0.2738    0.1017 O   0  0  0  0  0  0  0  0  0  0  0  0
   -2.8032   -0.1326    0.0265 N   0  0  0  0  0  0  0  0  0  0  0  0
   -2.5734    1.2112    0.5472 C   0  0  0  0  0  0  0  0  0  0  0  0
   -1.2385    1.3319    1.2756 C   0  0  0  0  0  0  0  0  0  0  0  0
   -0.0451    0.8765    0.3943 C   0  0  0  0  0  0  0  0  0  0  0  0
   -0.3595   -0.5755   -0.0435 C   0  0  0  0  0  0  0  0  0  0  0  0
   -1.7057   -0.6941   -0.7562 C   0  0  0  0  0  0  0  0  0  0  0  0
    0.0058    1.6521   -0.8280 O   0  0  0  0  0  0  0  0  0  0  0  0
    0.4716    2.9312   -0.7051 C   0  0  0  0  0  0  0  0  0  0  0  0
    0.1640    3.7999   -1.7530 C   0  0  0  0  0  0  0  0  0  0  0  0
    0.5856    5.1294   -1.7008 C   0  0  0  0  0  0  0  0  0  0  0  0
    1.3157    5.5782   -0.6043 C   0  0  0  0  0  0  0  0  0  0  0  0
    1.7170    6.8545   -0.5602 F   0  0  0  0  0  0  0  0  0  0  0  0
    1.6415    4.7217    0.4393 C   0  0  0  0  0  0  0  0  0  0  0  0
    1.2229    3.3903    0.3779 C   0  0  0  0  0  0  0  0  0  0  0  0
    1.5877    2.4422    1.4480 C   0  0  0  0  0  0  0  0  0  0  0  0
    2.1228    2.8589    2.4698 O   0  0  0  0  0  0  0  0  0  0  0  0
    1.3129    0.9730    1.1467 C   0  0  0  0  0  0  0  0  0  0  0  0
    2.5264    0.4274    0.4015 C   0  0  0  0  0  0  0  0  0  0  0  0
    2.6945   -0.8614    1.1273 C   0  0  0  0  0  0  0  0  0  0  0  0
    3.6010   -1.9256    0.6379 C   0  0  0  0  0  0  0  0  0  0  0  0
    3.6200   -3.1582    1.3026 C   0  0  0  0  0  0  0  0  0  0  0  0
    4.4588   -4.1828    0.8607 C   0  0  0  0  0  0  0  0  0  0  0  0
    5.2831   -3.9806   -0.2446 C   0  0  0  0  0  0  0  0  0  0  0  0
    5.2722   -2.7540   -0.9077 C   0  0  0  0  0  0  0  0  0  0  0  0
    4.4340   -1.7255   -0.4689 C   0  0  0  0  0  0  0  0  0  0  0  0
    1.9883   -0.9714    2.2061 N   0  0  0  0  0  0  0  0  0  0  0  0
    1.2670    0.2335    2.3706 O   0  0  0  0  0  0  0  0  0  0  0  0
   -6.0891   -2.9855   -1.6325 H   0  0  0  0  0  0  0  0  0  0  0  0
   -6.5721   -1.8892   -0.3260 H   0  0  0  0  0  0  0  0  0  0  0  0
   -6.1555   -1.2387   -1.9174 H   0  0  0  0  0  0  0  0  0  0  0  0
   -3.8309   -2.0316   -1.6639 H   0  0  0  0  0  0  0  0  0  0  0  0
   -4.2870   -3.9555   -0.1237 H   0  0  0  0  0  0  0  0  0  0  0  0
   -4.7157   -2.8303    1.1782 H   0  0  0  0  0  0  0  0  0  0  0  0
   -3.0554   -2.9116    0.5975 H   0  0  0  0  0  0  0  0  0  0  0  0
   -2.6269    1.9095   -0.2969 H   0  0  0  0  0  0  0  0  0  0  0  0
   -3.3759    1.4851    1.2419 H   0  0  0  0  0  0  0  0  0  0  0  0
   -1.1290    2.3740    1.5946 H   0  0  0  0  0  0  0  0  0  0  0  0
   -1.2779    0.7231    2.1880 H   0  0  0  0  0  0  0  0  0  0  0  0
   -0.3715   -1.2393    0.8294 H   0  0  0  0  0  0  0  0  0  0  0  0
    0.4060   -0.9474   -0.7337 H   0  0  0  0  0  0  0  0  0  0  0  0
   -1.6889   -0.1677   -1.7183 H   0  0  0  0  0  0  0  0  0  0  0  0
   -1.8795   -1.7482   -0.9798 H   0  0  0  0  0  0  0  0  0  0  0  0
   -0.4147    3.4483   -2.6041 H   0  0  0  0  0  0  0  0  0  0  0  0
    0.3463    5.8195   -2.5047 H   0  0  0  0  0  0  0  0  0  0  0  0
    2.2200    5.0941    1.2803 H   0  0  0  0  0  0  0  0  0  0  0  0
    2.3578    0.2902   -0.6690 H   0  0  0  0  0  0  0  0  0  0  0  0
    3.4299    1.0298    0.5491 H   0  0  0  0  0  0  0  0  0  0  0  0
    2.9847   -3.3286    2.1699 H   0  0  0  0  0  0  0  0  0  0  0  0
    4.4702   -5.1367    1.3825 H   0  0  0  0  0  0  0  0  0  0  0  0
    5.9385   -4.7784   -0.5860 H   0  0  0  0  0  0  0  0  0  0  0  0
    5.9224   -2.5979   -1.7654 H   0  0  0  0  0  0  0  0  0  0  0  0
    4.4583   -0.7795   -1.0007 H   0  0  0  0  0  0  0  0  0  0  0  0
  1  2  1  0
  2  3  1  0
  2  4  1  0
  4  5  2  0
  4  6  1  0
  6  7  1  0
  7  8  1  0
  8  9  1  0
  9 10  1  0
 10 11  1  0
  9 12  1  0
 12 13  1  0
 13 14  2  0
 14 15  1  0
 15 16  2  0
 16 17  1  0
 16 18  1  0
 18 19  2  0
 19 20  1  0
 20 21  2  0
 20 22  1  0
 22 23  1  0
 23 24  1  0
 24 25  1  0
 25 26  2  0
 26 27  1  0
 27 28  2  0
 28 29  1  0
 29 30  2  0
 24 31  2  0
 31 32  1  0
 11  6  1  0
 19 13  1  0
 32 22  1  0
 22  9  1  0
 30 25  1  0
  1 33  1  0
  1 34  1  0
  1 35  1  0
  2 36  1  0
  3 37  1  0
  3 38  1  0
  3 39  1  0
  7 40  1  0
  7 41  1  0
  8 42  1  0
  8 43  1  0
 10 44  1  0
 10 45  1  0
 11 46  1  0
 11 47  1  0
 14 48  1  0
 15 49  1  0
 18 50  1  0
 23 51  1  0
 23 52  1  0
 26 53  1  0
 27 54  1  0
 28 55  1  0
 29 56  1  0
 30 57  1  0
M  END
$$$$
