
     RDKit          3D

 52 54  0  0  0  0  0  0  0  0999 V2000
   -4.6468   -0.1310   -2.6926 C   0  0  0  0  0  0  0  0  0  0  0  0
   -3.9623    0.4447   -1.5439 N   0  0  0  0  0  0  0  0  0  0  0  0
   -4.8004    0.8809   -0.4270 C   0  0  0  0  0  0  0  0  0  0  0  0
   -5.5028   -0.2723    0.2545 C   0  0  0  0  0  0  0  0  0  0  0  0
   -6.8818   -0.4688    0.0914 C   0  0  0  0  0  0  0  0  0  0  0  0
   -7.5213   -1.5444    0.7097 C   0  0  0  0  0  0  0  0  0  0  0  0
   -6.7889   -2.4335    1.4950 C   0  0  0  0  0  0  0  0  0  0  0  0
   -5.4179   -2.2501    1.6624 C   0  0  0  0  0  0  0  0  0  0  0  0
   -4.7770   -1.1749    1.0453 C   0  0  0  0  0  0  0  0  0  0  0  0
   -2.5845    0.3676   -1.3399 C   0  0  0  0  0  0  0  0  0  0  0  0
   -2.0514    0.7832   -0.3096 O   0  0  0  0  0  0  0  0  0  0  0  0
   -1.7452   -0.2488   -2.4728 C   0  0  0  0  0  0  0  0  0  0  0  0
   -0.3424   -0.3225   -2.2178 O   0  0  0  0  0  0  0  0  0  0  0  0
    0.0145   -1.2270   -1.2640 C   0  0  0  0  0  0  0  0  0  0  0  0
   -0.7571   -2.0143   -0.7260 O   0  0  0  0  0  0  0  0  0  0  0  0
    1.5064   -1.2073   -0.9904 C   0  0  0  0  0  0  0  0  0  0  0  0
    2.3003   -0.3611   -1.8995 N   0  0  0  0  0  0  0  0  0  0  0  0
    2.5423    1.2428   -1.4677 S   0  0  0  0  0  6  0  0  0  0  0  0
    2.8292    1.9471   -2.6981 O   0  0  0  0  0  0  0  0  0  0  0  0
    1.4806    1.6514   -0.5793 O   0  0  0  0  0  0  0  0  0  0  0  0
    4.0512    1.1364   -0.5413 C   0  0  0  0  0  0  0  0  0  0  0  0
    5.2731    1.1354   -1.2141 C   0  0  0  0  0  0  0  0  0  0  0  0
    6.4593    1.0730   -0.4821 C   0  0  0  0  0  0  0  0  0  0  0  0
    6.4349    1.0183    0.9214 C   0  0  0  0  0  0  0  0  0  0  0  0
    7.6225    0.9516    1.6697 C   0  0  0  0  0  0  0  0  0  0  0  0
    7.5834    0.9040    3.0648 C   0  0  0  0  0  0  0  0  0  0  0  0
    6.3600    0.9253    3.7292 C   0  0  0  0  0  0  0  0  0  0  0  0
    5.1706    0.9930    3.0015 C   0  0  0  0  0  0  0  0  0  0  0  0
    5.1907    1.0367    1.5981 C   0  0  0  0  0  0  0  0  0  0  0  0
    4.0029    1.1021    0.8557 C   0  0  0  0  0  0  0  0  0  0  0  0
   -4.0195   -0.1108   -3.5864 H   0  0  0  0  0  0  0  0  0  0  0  0
   -5.5567    0.4406   -2.9002 H   0  0  0  0  0  0  0  0  0  0  0  0
   -4.9043   -1.1708   -2.4672 H   0  0  0  0  0  0  0  0  0  0  0  0
   -4.2151    1.4300    0.3200 H   0  0  0  0  0  0  0  0  0  0  0  0
   -5.5302    1.5980   -0.8239 H   0  0  0  0  0  0  0  0  0  0  0  0
   -7.4681    0.2152   -0.5188 H   0  0  0  0  0  0  0  0  0  0  0  0
   -8.5914   -1.6897    0.5796 H   0  0  0  0  0  0  0  0  0  0  0  0
   -7.2877   -3.2712    1.9758 H   0  0  0  0  0  0  0  0  0  0  0  0
   -4.8448   -2.9412    2.2729 H   0  0  0  0  0  0  0  0  0  0  0  0
   -3.7038   -1.0426    1.1812 H   0  0  0  0  0  0  0  0  0  0  0  0
   -2.1244   -1.2465   -2.7231 H   0  0  0  0  0  0  0  0  0  0  0  0
   -1.8565    0.3900   -3.3556 H   0  0  0  0  0  0  0  0  0  0  0  0
    1.6767   -0.9303    0.0537 H   0  0  0  0  0  0  0  0  0  0  0  0
    1.8675   -2.2324   -1.1243 H   0  0  0  0  0  0  0  0  0  0  0  0
    2.1010   -0.4510   -2.8961 H   0  0  0  0  0  0  0  0  0  0  0  0
    5.3098    1.1842   -2.2998 H   0  0  0  0  0  0  0  0  0  0  0  0
    7.4082    1.0707   -1.0160 H   0  0  0  0  0  0  0  0  0  0  0  0
    8.5891    0.9388    1.1701 H   0  0  0  0  0  0  0  0  0  0  0  0
    8.5100    0.8497    3.6321 H   0  0  0  0  0  0  0  0  0  0  0  0
    6.3301    0.8901    4.8155 H   0  0  0  0  0  0  0  0  0  0  0  0
    4.2258    1.0121    3.5417 H   0  0  0  0  0  0  0  0  0  0  0  0
    3.0425    1.1296    1.3675 H   0  0  0  0  0  0  0  0  0  0  0  0
  1  2  1  0
  2  3  1  0
  3  4  1  0
  4  5  2  0
  5  6  1  0
  6  7  2  0
  7  8  1  0
  8  9  2  0
  2 10  1  0
 10 11  2  0
 10 12  1  0
 12 13  1  0
 13 14  1  0
 14 15  2  0
 14 16  1  0
 16 17  1  0
 17 18  1  0
 18 19  2  0
 18 20  2  0
 18 21  1  0
 21 22  2  0
 22 23  1  0
 23 24  2  0
 24 25  1  0
 25 26  2  0
 26 27  1  0
 27 28  2  0
 28 29  1  0
 29 30  2  0
  9  4  1  0
 30 21  1  0
 29 24  1  0
  1 31  1  0
  1 32  1  0
  1 33  1  0
  3 34  1  0
  3 35  1  0
  5 36  1  0
  6 37  1  0
  7 38  1  0
  8 39  1  0
  9 40  1  0
 12 41  1  0
 12 42  1  0
 16 43  1  0
 16 44  1  0
 17 45  1  0
 22 46  1  0
 23 47  1  0
 25 48  1  0
 26 49  1  0
 27 50  1  0
 28 51  1  0
 30 52  1  0
M  END
$$$$
