
     RDKit          3D

 40 42  0  0  0  0  0  0  0  0999 V2000
   -2.4044    4.0387    3.2558 C   0  0  0  0  0  0  0  0  0  0  0  0
   -1.6293    3.2233    2.3846 O   0  0  0  0  0  0  0  0  0  0  0  0
   -1.8840    1.8775    2.4086 C   0  0  0  0  0  0  0  0  0  0  0  0
   -2.8445    1.2408    3.1882 C   0  0  0  0  0  0  0  0  0  0  0  0
   -3.0097   -0.1492    3.1373 C   0  0  0  0  0  0  0  0  0  0  0  0
   -2.1871   -0.8881    2.2727 C   0  0  0  0  0  0  0  0  0  0  0  0
   -1.2248   -0.2785    1.4607 C   0  0  0  0  0  0  0  0  0  0  0  0
   -1.0731    1.1234    1.5504 C   0  0  0  0  0  0  0  0  0  0  0  0
   -0.5898   -1.3180    0.7117 C   0  0  0  0  0  0  0  0  0  0  0  0
    0.4503   -1.2379   -0.2644 C   0  0  0  0  0  0  0  0  0  0  0  0
    0.6030   -0.2369   -1.1477 C   0  0  0  0  0  0  0  0  0  0  0  0
    1.6808   -0.1639   -2.1394 C   0  0  0  0  0  0  0  0  0  0  0  0
    2.1192   -1.2786   -2.8522 C   0  0  0  0  0  0  0  0  0  0  0  0
    3.1265   -1.1381   -3.8004 C   0  0  0  0  0  0  0  0  0  0  0  0
    3.6835    0.0698   -4.0403 N   0  0  0  0  0  4  0  0  0  0  0  0
    4.7430    0.1954   -5.0553 C   0  0  0  0  0  0  0  0  0  0  0  0
    3.2590    1.1688   -3.3782 C   0  0  0  0  0  0  0  0  0  0  0  0
    2.2529    1.0750   -2.4235 C   0  0  0  0  0  0  0  0  0  0  0  0
   -1.1445   -2.5156    1.1082 C   0  0  0  0  0  0  0  0  0  0  0  0
   -2.1163   -2.2448    2.0355 N   0  0  0  0  0  0  0  0  0  0  0  0
   -2.9410   -3.2428    2.6811 C   0  0  0  0  0  0  0  0  0  0  0  0
   -2.0740    5.0738    3.1258 H   0  0  0  0  0  0  0  0  0  0  0  0
   -3.4672    3.9935    2.9964 H   0  0  0  0  0  0  0  0  0  0  0  0
   -2.2394    3.7658    4.3034 H   0  0  0  0  0  0  0  0  0  0  0  0
   -3.4892    1.7960    3.8625 H   0  0  0  0  0  0  0  0  0  0  0  0
   -3.7562   -0.6331    3.7599 H   0  0  0  0  0  0  0  0  0  0  0  0
   -0.3167    1.6328    0.9629 H   0  0  0  0  0  0  0  0  0  0  0  0
    1.1441   -2.0755   -0.2753 H   0  0  0  0  0  0  0  0  0  0  0  0
   -0.1006    0.5934   -1.1513 H   0  0  0  0  0  0  0  0  0  0  0  0
    1.6747   -2.2582   -2.6875 H   0  0  0  0  0  0  0  0  0  0  0  0
    3.4886   -1.9853   -4.3762 H   0  0  0  0  0  0  0  0  0  0  0  0
    4.2571    0.4057   -6.0112 H   0  0  0  0  0  0  0  0  0  0  0  0
    5.3074   -0.7395   -5.1022 H   0  0  0  0  0  0  0  0  0  0  0  0
    5.4154    1.0094   -4.7721 H   0  0  0  0  0  0  0  0  0  0  0  0
    3.7276    2.1185   -3.6206 H   0  0  0  0  0  0  0  0  0  0  0  0
    1.9262    1.9717   -1.8989 H   0  0  0  0  0  0  0  0  0  0  0  0
   -0.9411   -3.5326    0.7985 H   0  0  0  0  0  0  0  0  0  0  0  0
   -3.9875   -3.0280    2.4502 H   0  0  0  0  0  0  0  0  0  0  0  0
   -2.7628   -3.1940    3.7583 H   0  0  0  0  0  0  0  0  0  0  0  0
   -2.6761   -4.2349    2.3069 H   0  0  0  0  0  0  0  0  0  0  0  0
  1  2  1  0
  2  3  1  0
  3  4  2  0
  4  5  1  0
  5  6  2  0
  6  7  1  0
  7  8  2  0
  7  9  1  0
  9 10  1  0
 10 11  2  3
 11 12  1  0
 12 13  2  0
 13 14  1  0
 14 15  2  0
 15 16  1  0
 15 17  1  0
 17 18  2  0
  9 19  2  0
 19 20  1  0
 20 21  1  0
  8  3  1  0
 18 12  1  0
 20  6  1  0
  1 22  1  0
  1 23  1  0
  1 24  1  0
  4 25  1  0
  5 26  1  0
  8 27  1  0
 10 28  1  0
 11 29  1  0
 13 30  1  0
 14 31  1  0
 16 32  1  0
 16 33  1  0
 16 34  1  0
 17 35  1  0
 18 36  1  0
 19 37  1  0
 21 38  1  0
 21 39  1  0
 21 40  1  0
M  CHG  1  15   1
M  END
$$$$
