
     RDKit          3D

 38 40  0  0  0  0  0  0  0  0999 V2000
    0.1101   -0.9671   -2.9596 S   0  0  0  0  0  0  0  0  0  0  0  0
    0.0795   -0.3220   -1.4078 C   0  0  0  0  0  0  0  0  0  0  0  0
    0.9462    0.6656   -0.9844 N   0  0  0  0  0  0  0  0  0  0  0  0
    2.0228    1.2992   -1.7365 C   0  0  0  0  0  0  0  0  0  0  0  0
    3.3638    0.9235   -1.1580 C   0  0  0  0  0  0  0  0  0  0  0  0
    3.9459   -0.3147   -1.4642 C   0  0  0  0  0  0  0  0  0  0  0  0
    5.1762   -0.6754   -0.9128 C   0  0  0  0  0  0  0  0  0  0  0  0
    5.8346    0.1950   -0.0465 C   0  0  0  0  0  0  0  0  0  0  0  0
    5.2628    1.4256    0.2713 C   0  0  0  0  0  0  0  0  0  0  0  0
    4.0319    1.7880   -0.2787 C   0  0  0  0  0  0  0  0  0  0  0  0
   -0.8379   -0.7105   -0.4225 N   0  0  0  0  0  0  0  0  0  0  0  0
   -1.5791   -1.9792   -0.4715 C   0  0  0  0  0  0  0  0  0  0  0  0
   -3.0777   -1.7208   -0.5948 C   0  0  0  0  0  0  0  0  0  0  0  0
   -3.5499   -0.8088    0.5100 C   0  0  0  0  0  0  0  0  0  0  0  0
   -4.8972   -0.8128    0.8952 C   0  0  0  0  0  0  0  0  0  0  0  0
   -5.3435    0.0373    1.9061 C   0  0  0  0  0  0  0  0  0  0  0  0
   -4.4508    0.9024    2.5337 C   0  0  0  0  0  0  0  0  0  0  0  0
   -3.1106    0.9242    2.1464 C   0  0  0  0  0  0  0  0  0  0  0  0
   -2.6472    0.0783    1.1265 C   0  0  0  0  0  0  0  0  0  0  0  0
   -1.1863    0.1365    0.7272 C   0  0  0  0  0  0  0  0  0  0  0  0
    1.0683    0.7331    0.0140 H   0  0  0  0  0  0  0  0  0  0  0  0
    1.9900    1.0650   -2.8035 H   0  0  0  0  0  0  0  0  0  0  0  0
    1.8672    2.3804   -1.6468 H   0  0  0  0  0  0  0  0  0  0  0  0
    3.4397   -1.0064   -2.1350 H   0  0  0  0  0  0  0  0  0  0  0  0
    5.6191   -1.6368   -1.1595 H   0  0  0  0  0  0  0  0  0  0  0  0
    6.7931   -0.0867    0.3814 H   0  0  0  0  0  0  0  0  0  0  0  0
    5.7767    2.1035    0.9479 H   0  0  0  0  0  0  0  0  0  0  0  0
    3.5994    2.7514   -0.0184 H   0  0  0  0  0  0  0  0  0  0  0  0
   -1.2412   -2.6291   -1.2817 H   0  0  0  0  0  0  0  0  0  0  0  0
   -1.3567   -2.5130    0.4622 H   0  0  0  0  0  0  0  0  0  0  0  0
   -3.6102   -2.6776   -0.5488 H   0  0  0  0  0  0  0  0  0  0  0  0
   -3.3044   -1.2473   -1.5574 H   0  0  0  0  0  0  0  0  0  0  0  0
   -5.6053   -1.4802    0.4092 H   0  0  0  0  0  0  0  0  0  0  0  0
   -6.3891    0.0259    2.2025 H   0  0  0  0  0  0  0  0  0  0  0  0
   -4.8001    1.5647    3.3214 H   0  0  0  0  0  0  0  0  0  0  0  0
   -2.4283    1.6116    2.6416 H   0  0  0  0  0  0  0  0  0  0  0  0
   -0.5719   -0.2036    1.5691 H   0  0  0  0  0  0  0  0  0  0  0  0
   -0.9399    1.1807    0.5061 H   0  0  0  0  0  0  0  0  0  0  0  0
  1  2  2  0
  2  3  1  0
  3  4  1  0
  4  5  1  0
  5  6  2  0
  6  7  1  0
  7  8  2  0
  8  9  1  0
  9 10  2  0
  2 11  1  0
 11 12  1  0
 12 13  1  0
 13 14  1  0
 14 15  2  0
 15 16  1  0
 16 17  2  0
 17 18  1  0
 18 19  2  0
 19 20  1  0
 10  5  1  0
 20 11  1  0
 19 14  1  0
  3 21  1  0
  4 22  1  0
  4 23  1  0
  6 24  1  0
  7 25  1  0
  8 26  1  0
  9 27  1  0
 10 28  1  0
 12 29  1  0
 12 30  1  0
 13 31  1  0
 13 32  1  0
 15 33  1  0
 16 34  1  0
 17 35  1  0
 18 36  1  0
 20 37  1  0
 20 38  1  0
M  END
$$$$
