
     RDKit          3D

 46 48  0  0  0  0  0  0  0  0999 V2000
    7.1476   -1.7675    2.2579 C   0  0  0  0  0  0  0  0  0  0  0  0
    6.6246   -2.3491    0.9581 C   0  0  0  0  0  0  0  0  0  0  0  0
    5.6549   -1.4661    0.3768 O   0  0  0  0  0  0  0  0  0  0  0  0
    6.1452   -0.4886   -0.4228 C   0  0  0  0  0  0  0  0  0  0  0  0
    7.3232   -0.2999   -0.6845 O   0  0  0  0  0  0  0  0  0  0  0  0
    5.0440    0.3561   -0.9628 C   0  0  0  0  0  0  0  0  0  0  0  0
    5.3863    1.3956   -1.8372 C   0  0  0  0  0  0  0  0  0  0  0  0
    4.3950    2.2132   -2.3740 C   0  0  0  0  0  0  0  0  0  0  0  0
    3.0580    1.9965   -2.0368 C   0  0  0  0  0  0  0  0  0  0  0  0
    2.6970    0.9653   -1.1589 C   0  0  0  0  0  0  0  0  0  0  0  0
    1.3213    0.8183   -0.8781 N   0  0  0  0  0  0  0  0  0  0  0  0
    0.7349   -0.0624    0.0131 C   0  0  0  0  0  0  0  0  0  0  0  0
    1.3116   -0.8282    0.7755 O   0  0  0  0  0  0  0  0  0  0  0  0
   -0.7549   -0.0163    0.0571 C   0  0  0  0  0  0  0  0  0  0  0  0
   -1.3954   -0.2589    1.2757 C   0  0  0  0  0  0  0  0  0  0  0  0
   -2.7913   -0.2241    1.3565 C   0  0  0  0  0  0  0  0  0  0  0  0
   -3.5684    0.0464    0.2223 C   0  0  0  0  0  0  0  0  0  0  0  0
   -4.9686    0.0631    0.3951 N   0  0  0  0  0  0  0  0  0  0  0  0
   -5.9423    0.3553   -0.5531 C   0  0  0  0  0  0  0  0  0  0  0  0
   -5.6958    0.6821   -1.7106 O   0  0  0  0  0  0  0  0  0  0  0  0
   -7.3084    0.2536   -0.0513 C   0  0  0  0  0  0  0  0  0  0  0  0
   -7.8632   -0.1510    1.1537 C   0  0  0  0  0  0  0  0  0  0  0  0
   -9.2697   -0.0247    1.0275 C   0  0  0  0  0  0  0  0  0  0  0  0
   -9.4971    0.4459   -0.2415 C   0  0  0  0  0  0  0  0  0  0  0  0
   -8.3250    0.6160   -0.8998 O   0  0  0  0  0  0  0  0  0  0  0  0
   -2.9232    0.2660   -0.9970 C   0  0  0  0  0  0  0  0  0  0  0  0
   -1.5248    0.2305   -1.0839 C   0  0  0  0  0  0  0  0  0  0  0  0
    3.6963    0.1450   -0.6276 C   0  0  0  0  0  0  0  0  0  0  0  0
    7.6627   -0.8175    2.0839 H   0  0  0  0  0  0  0  0  0  0  0  0
    7.8442   -2.4591    2.7400 H   0  0  0  0  0  0  0  0  0  0  0  0
    6.3217   -1.5605    2.9463 H   0  0  0  0  0  0  0  0  0  0  0  0
    7.4400   -2.5629    0.2575 H   0  0  0  0  0  0  0  0  0  0  0  0
    6.1149   -3.2974    1.1577 H   0  0  0  0  0  0  0  0  0  0  0  0
    6.4276    1.5692   -2.1034 H   0  0  0  0  0  0  0  0  0  0  0  0
    4.6636    3.0180   -3.0539 H   0  0  0  0  0  0  0  0  0  0  0  0
    2.3039    2.6494   -2.4697 H   0  0  0  0  0  0  0  0  0  0  0  0
    0.7096    1.4824   -1.3345 H   0  0  0  0  0  0  0  0  0  0  0  0
   -0.8084   -0.4747    2.1668 H   0  0  0  0  0  0  0  0  0  0  0  0
   -3.2551   -0.4130    2.3216 H   0  0  0  0  0  0  0  0  0  0  0  0
   -5.2930   -0.1398    1.3288 H   0  0  0  0  0  0  0  0  0  0  0  0
   -7.3342   -0.5044    2.0267 H   0  0  0  0  0  0  0  0  0  0  0  0
  -10.0244   -0.2517    1.7678 H   0  0  0  0  0  0  0  0  0  0  0  0
  -10.3874    0.6972   -0.8016 H   0  0  0  0  0  0  0  0  0  0  0  0
   -3.4774    0.4535   -1.9121 H   0  0  0  0  0  0  0  0  0  0  0  0
   -1.0637    0.3663   -2.0586 H   0  0  0  0  0  0  0  0  0  0  0  0
    3.4437   -0.6672    0.0461 H   0  0  0  0  0  0  0  0  0  0  0  0
  1  2  1  0
  2  3  1  0
  3  4  1  0
  4  5  2  0
  4  6  1  0
  6  7  2  0
  7  8  1  0
  8  9  2  0
  9 10  1  0
 10 11  1  0
 11 12  1  0
 12 13  2  0
 12 14  1  0
 14 15  2  0
 15 16  1  0
 16 17  2  0
 17 18  1  0
 18 19  1  0
 19 20  2  0
 19 21  1  0
 21 22  2  0
 22 23  1  0
 23 24  2  0
 24 25  1  0
 17 26  1  0
 26 27  2  0
 10 28  2  0
 28  6  1  0
 27 14  1  0
 25 21  1  0
  1 29  1  0
  1 30  1  0
  1 31  1  0
  2 32  1  0
  2 33  1  0
  7 34  1  0
  8 35  1  0
  9 36  1  0
 11 37  1  0
 15 38  1  0
 16 39  1  0
 18 40  1  0
 22 41  1  0
 23 42  1  0
 24 43  1  0
 26 44  1  0
 27 45  1  0
 28 46  1  0
M  END
$$$$
