
     RDKit          3D

 61 66  0  0  0  0  0  0  0  0999 V2000
    7.6276    2.9477   -1.3328 C   0  0  0  0  0  0  0  0  0  0  0  0
    7.2328    2.9098    0.0042 C   0  0  0  0  0  0  0  0  0  0  0  0
    6.0311    2.2969    0.3621 C   0  0  0  0  0  0  0  0  0  0  0  0
    5.2100    1.7182   -0.6170 C   0  0  0  0  0  0  0  0  0  0  0  0
    3.9100    1.0509   -0.2298 C   0  0  0  0  0  0  0  0  0  0  0  0
    4.1263   -0.4093    0.2143 C   0  0  0  0  0  0  0  0  0  0  0  0
    2.9467   -1.1577    0.6746 N   0  0  0  0  0  0  0  0  0  0  0  0
    1.9097   -1.3117   -0.3636 C   0  0  0  0  0  0  0  0  0  0  0  0
    0.7225   -2.1791    0.1199 C   0  0  0  0  0  0  0  0  0  0  0  0
    0.1195   -1.6320    1.3642 N   0  0  0  0  0  0  0  0  0  0  0  0
   -0.8988   -0.7276    1.2033 C   0  0  0  0  0  0  0  0  0  0  0  0
   -0.9108    0.6398    1.4099 C   0  0  0  0  0  0  0  0  0  0  0  0
   -2.1344    1.1490    0.9202 C   0  0  0  0  0  0  0  0  0  0  0  0
   -2.8733    0.0789    0.4547 C   0  0  0  0  0  0  0  0  0  0  0  0
   -4.1747   -0.0019   -0.1730 C   0  0  0  0  0  0  0  0  0  0  0  0
   -4.8729    1.2251   -0.6309 C   0  0  0  0  0  0  0  0  0  0  0  0
   -4.2154    2.1797   -1.4149 C   0  0  0  0  0  0  0  0  0  0  0  0
   -4.9031    3.3134   -1.8490 C   0  0  0  0  0  0  0  0  0  0  0  0
   -6.2443    3.4887   -1.5092 C   0  0  0  0  0  0  0  0  0  0  0  0
   -6.9066    2.5270   -0.7427 C   0  0  0  0  0  0  0  0  0  0  0  0
   -6.2241    1.3910   -0.3094 C   0  0  0  0  0  0  0  0  0  0  0  0
   -4.7619   -1.1498   -0.3487 N   0  0  0  0  0  0  0  0  0  0  0  0
   -4.1108   -2.3252    0.0745 C   0  0  0  0  0  0  0  0  0  0  0  0
   -4.7994   -3.5340   -0.0671 C   0  0  0  0  0  0  0  0  0  0  0  0
   -4.2284   -4.7354    0.3573 C   0  0  0  0  0  0  0  0  0  0  0  0
   -2.9609   -4.7357    0.9346 C   0  0  0  0  0  0  0  0  0  0  0  0
   -2.2557   -3.5391    1.0802 C   0  0  0  0  0  0  0  0  0  0  0  0
   -2.8202   -2.3402    0.6336 C   0  0  0  0  0  0  0  0  0  0  0  0
   -2.1807   -1.0801    0.7643 N   0  0  0  0  0  0  0  0  0  0  0  0
    1.1389   -1.4082    2.4130 C   0  0  0  0  0  0  0  0  0  0  0  0
    2.3508   -0.5937    1.9013 C   0  0  0  0  0  0  0  0  0  0  0  0
    5.6198    1.7521   -1.9568 C   0  0  0  0  0  0  0  0  0  0  0  0
    6.8216    2.3666   -2.3128 C   0  0  0  0  0  0  0  0  0  0  0  0
    8.5611    3.4283   -1.6117 H   0  0  0  0  0  0  0  0  0  0  0  0
    7.8634    3.3612    0.7686 H   0  0  0  0  0  0  0  0  0  0  0  0
    5.7364    2.2766    1.4095 H   0  0  0  0  0  0  0  0  0  0  0  0
    3.2195    1.0983   -1.0805 H   0  0  0  0  0  0  0  0  0  0  0  0
    3.4481    1.6417    0.5694 H   0  0  0  0  0  0  0  0  0  0  0  0
    4.8777   -0.4357    1.0158 H   0  0  0  0  0  0  0  0  0  0  0  0
    4.5832   -0.9703   -0.6121 H   0  0  0  0  0  0  0  0  0  0  0  0
    1.5225   -0.3341   -0.6755 H   0  0  0  0  0  0  0  0  0  0  0  0
    2.3468   -1.7917   -1.2474 H   0  0  0  0  0  0  0  0  0  0  0  0
    1.0706   -3.1994    0.3236 H   0  0  0  0  0  0  0  0  0  0  0  0
   -0.0206   -2.2553   -0.6844 H   0  0  0  0  0  0  0  0  0  0  0  0
   -0.0962    1.2323    1.7995 H   0  0  0  0  0  0  0  0  0  0  0  0
   -2.4294    2.1897    0.8981 H   0  0  0  0  0  0  0  0  0  0  0  0
   -3.1784    2.0384   -1.7076 H   0  0  0  0  0  0  0  0  0  0  0  0
   -4.3970    4.0557   -2.4614 H   0  0  0  0  0  0  0  0  0  0  0  0
   -6.7802    4.3699   -1.8513 H   0  0  0  0  0  0  0  0  0  0  0  0
   -7.9568    2.6595   -0.4900 H   0  0  0  0  0  0  0  0  0  0  0  0
   -6.7423    0.6373    0.2778 H   0  0  0  0  0  0  0  0  0  0  0  0
   -5.7943   -3.5311   -0.5075 H   0  0  0  0  0  0  0  0  0  0  0  0
   -4.7799   -5.6653    0.2482 H   0  0  0  0  0  0  0  0  0  0  0  0
   -2.5229   -5.6677    1.2856 H   0  0  0  0  0  0  0  0  0  0  0  0
   -1.2873   -3.5694    1.5681 H   0  0  0  0  0  0  0  0  0  0  0  0
    1.4916   -2.3902    2.7539 H   0  0  0  0  0  0  0  0  0  0  0  0
    0.7000   -0.9188    3.2898 H   0  0  0  0  0  0  0  0  0  0  0  0
    3.1066   -0.5742    2.6974 H   0  0  0  0  0  0  0  0  0  0  0  0
    2.0342    0.4398    1.7327 H   0  0  0  0  0  0  0  0  0  0  0  0
    5.0016    1.3046   -2.7330 H   0  0  0  0  0  0  0  0  0  0  0  0
    7.1310    2.3960   -3.3550 H   0  0  0  0  0  0  0  0  0  0  0  0
  1  2  2  0
  2  3  1  0
  3  4  2  0
  4  5  1  0
  5  6  1  0
  6  7  1  0
  7  8  1  0
  8  9  1  0
  9 10  1  0
 10 11  1  0
 11 12  2  0
 12 13  1  0
 13 14  2  0
 14 15  1  0
 15 16  1  0
 16 17  2  0
 17 18  1  0
 18 19  2  0
 19 20  1  0
 20 21  2  0
 15 22  2  0
 22 23  1  0
 23 24  2  0
 24 25  1  0
 25 26  2  0
 26 27  1  0
 27 28  2  0
 28 29  1  0
 10 30  1  0
 30 31  1  0
  4 32  1  0
 32 33  2  0
 33  1  1  0
 31  7  1  0
 29 11  1  0
 29 14  1  0
 21 16  1  0
 28 23  1  0
  1 34  1  0
  2 35  1  0
  3 36  1  0
  5 37  1  0
  5 38  1  0
  6 39  1  0
  6 40  1  0
  8 41  1  0
  8 42  1  0
  9 43  1  0
  9 44  1  0
 12 45  1  0
 13 46  1  0
 17 47  1  0
 18 48  1  0
 19 49  1  0
 20 50  1  0
 21 51  1  0
 24 52  1  0
 25 53  1  0
 26 54  1  0
 27 55  1  0
 30 56  1  0
 30 57  1  0
 31 58  1  0
 31 59  1  0
 32 60  1  0
 33 61  1  0
M  END
$$$$
