
     RDKit          3D

 60 62  0  0  0  0  0  0  0  0999 V2000
   -5.6658   -5.5227    0.0008 C   0  0  0  0  0  0  0  0  0  0  0  0
   -6.1641   -4.1691   -0.4739 C   0  0  0  0  0  0  0  0  0  0  0  0
   -5.1623   -3.0714   -0.2129 C   0  0  0  0  0  0  0  0  0  0  0  0
   -4.2656   -2.6752   -1.2109 C   0  0  0  0  0  0  0  0  0  0  0  0
   -3.3223   -1.6696   -0.9691 C   0  0  0  0  0  0  0  0  0  0  0  0
   -3.2533   -1.0504    0.2768 C   0  0  0  0  0  0  0  0  0  0  0  0
   -2.3433   -0.0258    0.5924 N   0  0  0  0  0  0  0  0  0  0  0  0
   -1.2695    0.4124   -0.1601 C   0  0  0  0  0  0  0  0  0  0  0  0
   -0.8812   -0.0482   -1.2331 O   0  0  0  0  0  0  0  0  0  0  0  0
   -0.5899    1.6540    0.4383 C   0  0  0  0  0  0  0  0  0  0  0  0
   -0.3391    1.4982    1.8965 N   0  0  0  0  0  0  0  0  0  0  0  0
    0.6337    0.2389    2.4617 S   0  0  0  0  0  6  0  0  0  0  0  0
    0.9698    0.6010    3.8185 O   0  0  0  0  0  0  0  0  0  0  0  0
   -0.0199   -1.0087    2.1576 O   0  0  0  0  0  0  0  0  0  0  0  0
    2.1032    0.3709    1.4816 C   0  0  0  0  0  0  0  0  0  0  0  0
    3.0818    1.3116    1.8340 C   0  0  0  0  0  0  0  0  0  0  0  0
    4.2494    1.4371    1.0701 C   0  0  0  0  0  0  0  0  0  0  0  0
    4.4281    0.6135   -0.0298 C   0  0  0  0  0  0  0  0  0  0  0  0
    3.4469   -0.3310   -0.3553 C   0  0  0  0  0  0  0  0  0  0  0  0
    2.2837   -0.4736    0.3869 C   0  0  0  0  0  0  0  0  0  0  0  0
    3.8070   -1.1067   -1.5825 C   0  0  0  0  0  0  0  0  0  0  0  0
    5.2021   -0.5675   -1.8960 C   0  0  0  0  0  0  0  0  0  0  0  0
    5.4854    0.5276   -0.9549 N   0  0  0  0  0  0  0  0  0  0  0  0
    6.6690    1.2230   -1.0844 C   0  0  0  0  0  0  0  0  0  0  0  0
    6.9954    2.3328   -0.1253 C   0  0  0  0  0  0  0  0  0  0  0  0
    7.4789    0.9547   -1.9778 O   0  0  0  0  0  0  0  0  0  0  0  0
   -1.4615    2.9209    0.2124 C   0  0  0  0  0  0  0  0  0  0  0  0
   -0.6930    4.2015    0.5772 C   0  0  0  0  0  0  0  0  0  0  0  0
   -1.9355    3.0430   -1.2434 C   0  0  0  0  0  0  0  0  0  0  0  0
   -4.1487   -1.4450    1.2772 C   0  0  0  0  0  0  0  0  0  0  0  0
   -5.0926   -2.4492    1.0368 C   0  0  0  0  0  0  0  0  0  0  0  0
   -4.7374   -5.8029   -0.5054 H   0  0  0  0  0  0  0  0  0  0  0  0
   -5.4719   -5.5197    1.0753 H   0  0  0  0  0  0  0  0  0  0  0  0
   -6.4121   -6.2971   -0.2058 H   0  0  0  0  0  0  0  0  0  0  0  0
   -7.1133   -3.9257    0.0206 H   0  0  0  0  0  0  0  0  0  0  0  0
   -6.3881   -4.2210   -1.5446 H   0  0  0  0  0  0  0  0  0  0  0  0
   -4.2913   -3.1478   -2.1901 H   0  0  0  0  0  0  0  0  0  0  0  0
   -2.6561   -1.3938   -1.7794 H   0  0  0  0  0  0  0  0  0  0  0  0
   -2.3665    0.3223    1.5438 H   0  0  0  0  0  0  0  0  0  0  0  0
    0.3669    1.8007   -0.0744 H   0  0  0  0  0  0  0  0  0  0  0  0
   -0.1646    2.3445    2.4365 H   0  0  0  0  0  0  0  0  0  0  0  0
    2.9457    1.9482    2.7052 H   0  0  0  0  0  0  0  0  0  0  0  0
    4.9727    2.1755    1.3818 H   0  0  0  0  0  0  0  0  0  0  0  0
    1.5367   -1.2121    0.1085 H   0  0  0  0  0  0  0  0  0  0  0  0
    3.1091   -0.8889   -2.3979 H   0  0  0  0  0  0  0  0  0  0  0  0
    3.8273   -2.1832   -1.3928 H   0  0  0  0  0  0  0  0  0  0  0  0
    5.9694   -1.3404   -1.7633 H   0  0  0  0  0  0  0  0  0  0  0  0
    5.2707   -0.2003   -2.9275 H   0  0  0  0  0  0  0  0  0  0  0  0
    7.9621    2.7648   -0.3969 H   0  0  0  0  0  0  0  0  0  0  0  0
    6.2500    3.1256   -0.1896 H   0  0  0  0  0  0  0  0  0  0  0  0
    7.0924    1.9416    0.8895 H   0  0  0  0  0  0  0  0  0  0  0  0
   -2.3532    2.8710    0.8530 H   0  0  0  0  0  0  0  0  0  0  0  0
   -1.3000    5.0893    0.3721 H   0  0  0  0  0  0  0  0  0  0  0  0
    0.2334    4.2835   -0.0033 H   0  0  0  0  0  0  0  0  0  0  0  0
   -0.4321    4.2355    1.6395 H   0  0  0  0  0  0  0  0  0  0  0  0
   -1.0917    2.9914   -1.9411 H   0  0  0  0  0  0  0  0  0  0  0  0
   -2.6438    2.2482   -1.5028 H   0  0  0  0  0  0  0  0  0  0  0  0
   -2.4522    3.9944   -1.4061 H   0  0  0  0  0  0  0  0  0  0  0  0
   -4.1189   -0.9857    2.2614 H   0  0  0  0  0  0  0  0  0  0  0  0
   -5.7698   -2.7451    1.8337 H   0  0  0  0  0  0  0  0  0  0  0  0
  1  2  1  0
  2  3  1  0
  3  4  2  0
  4  5  1  0
  5  6  2  0
  6  7  1  0
  7  8  1  0
  8  9  2  0
  8 10  1  0
 10 11  1  0
 11 12  1  0
 12 13  2  0
 12 14  2  0
 12 15  1  0
 15 16  2  0
 16 17  1  0
 17 18  2  0
 18 19  1  0
 19 20  2  0
 19 21  1  0
 21 22  1  0
 22 23  1  0
 23 24  1  0
 24 25  1  0
 24 26  2  0
 10 27  1  0
 27 28  1  0
 27 29  1  0
  6 30  1  0
 30 31  2  0
 31  3  1  0
 20 15  1  0
 23 18  1  0
  1 32  1  0
  1 33  1  0
  1 34  1  0
  2 35  1  0
  2 36  1  0
  4 37  1  0
  5 38  1  0
  7 39  1  0
 10 40  1  0
 11 41  1  0
 16 42  1  0
 17 43  1  0
 20 44  1  0
 21 45  1  0
 21 46  1  0
 22 47  1  0
 22 48  1  0
 25 49  1  0
 25 50  1  0
 25 51  1  0
 27 52  1  0
 28 53  1  0
 28 54  1  0
 28 55  1  0
 29 56  1  0
 29 57  1  0
 29 58  1  0
 30 59  1  0
 31 60  1  0
M  END
$$$$
