
     RDKit          3D

 51 55  0  0  0  0  0  0  0  0999 V2000
    1.8096    1.8271   -1.1921 O   0  0  0  0  0  0  0  0  0  0  0  0
    1.4015    0.7163   -1.5113 C   0  0  0  0  0  0  0  0  0  0  0  0
    0.1639    0.5584   -2.4040 C   0  0  0  0  0  0  0  0  0  0  0  0
   -1.0509    0.3842   -1.6036 N   0  0  0  0  0  0  0  0  0  0  0  0
   -1.2479   -0.8602   -1.0108 C   0  0  0  0  0  0  0  0  0  0  0  0
   -0.5068   -1.8214   -1.2418 O   0  0  0  0  0  0  0  0  0  0  0  0
   -2.3477   -0.9713    0.0162 C   0  0  0  0  0  0  0  0  0  0  0  0
   -3.6703   -1.3465   -0.6250 C   0  0  0  0  0  0  0  0  0  0  0  0
   -4.7623   -1.3430    0.4004 C   0  0  0  0  0  0  0  0  0  0  0  0
   -5.5284   -0.3562    0.9976 C   0  0  0  0  0  0  0  0  0  0  0  0
   -6.3816   -1.0145    1.9216 C   0  0  0  0  0  0  0  0  0  0  0  0
   -6.0740   -2.3530    1.8451 C   0  0  0  0  0  0  0  0  0  0  0  0
   -5.0883   -2.5589    0.9327 O   0  0  0  0  0  0  0  0  0  0  0  0
   -4.1363   -0.3308   -2.0803 S   0  0  0  0  0  0  0  0  0  0  0  0
   -3.3901    1.2495   -1.6733 C   0  0  0  0  0  0  0  0  0  0  0  0
   -4.2630    2.3502   -1.6446 C   0  0  0  0  0  0  0  0  0  0  0  0
   -3.7715    3.6449   -1.4843 C   0  0  0  0  0  0  0  0  0  0  0  0
   -2.4059    3.8578   -1.3551 C   0  0  0  0  0  0  0  0  0  0  0  0
   -1.5240    2.7740   -1.4046 C   0  0  0  0  0  0  0  0  0  0  0  0
   -1.9960    1.4588   -1.5497 C   0  0  0  0  0  0  0  0  0  0  0  0
    1.9271   -0.5006   -1.1110 N   0  0  0  0  0  0  0  0  0  0  0  0
    3.0503   -0.7411   -0.2959 C   0  0  0  0  0  0  0  0  0  0  0  0
    3.3828   -2.0859   -0.0571 C   0  0  0  0  0  0  0  0  0  0  0  0
    4.4937   -2.4213    0.7203 C   0  0  0  0  0  0  0  0  0  0  0  0
    5.2708   -1.4118    1.2806 C   0  0  0  0  0  0  0  0  0  0  0  0
    4.9207   -0.0710    1.0848 C   0  0  0  0  0  0  0  0  0  0  0  0
    3.8315    0.2673    0.2745 C   0  0  0  0  0  0  0  0  0  0  0  0
    5.6067    0.9683    1.6620 O   0  0  0  0  0  0  0  0  0  0  0  0
    6.4503    0.5103    2.7232 C   0  0  0  0  0  0  0  0  0  0  0  0
    7.2390   -0.7139    2.2824 C   0  0  0  0  0  0  0  0  0  0  0  0
    6.3554   -1.8116    2.0202 O   0  0  0  0  0  0  0  0  0  0  0  0
    0.2965   -0.3117   -3.0586 H   0  0  0  0  0  0  0  0  0  0  0  0
    0.0885    1.4239   -3.0684 H   0  0  0  0  0  0  0  0  0  0  0  0
   -2.0508   -1.7447    0.7362 H   0  0  0  0  0  0  0  0  0  0  0  0
   -2.4064   -0.0510    0.6127 H   0  0  0  0  0  0  0  0  0  0  0  0
   -3.5818   -2.3651   -1.0306 H   0  0  0  0  0  0  0  0  0  0  0  0
   -5.4843    0.7070    0.7865 H   0  0  0  0  0  0  0  0  0  0  0  0
   -7.1253   -0.5660    2.5668 H   0  0  0  0  0  0  0  0  0  0  0  0
   -6.4443   -3.2359    2.3469 H   0  0  0  0  0  0  0  0  0  0  0  0
   -5.3365    2.2163   -1.7725 H   0  0  0  0  0  0  0  0  0  0  0  0
   -4.4587    4.4907   -1.4619 H   0  0  0  0  0  0  0  0  0  0  0  0
   -2.0317    4.8670   -1.2011 H   0  0  0  0  0  0  0  0  0  0  0  0
   -0.4618    2.9848   -1.2847 H   0  0  0  0  0  0  0  0  0  0  0  0
    1.3770   -1.3213   -1.3629 H   0  0  0  0  0  0  0  0  0  0  0  0
    2.7893   -2.8911   -0.4868 H   0  0  0  0  0  0  0  0  0  0  0  0
    4.7612   -3.4614    0.8709 H   0  0  0  0  0  0  0  0  0  0  0  0
    3.6043    1.3223    0.1311 H   0  0  0  0  0  0  0  0  0  0  0  0
    7.1301    1.3289    2.9830 H   0  0  0  0  0  0  0  0  0  0  0  0
    5.8253    0.2901    3.6008 H   0  0  0  0  0  0  0  0  0  0  0  0
    7.9288   -1.0267    3.0746 H   0  0  0  0  0  0  0  0  0  0  0  0
    7.8223   -0.5101    1.3760 H   0  0  0  0  0  0  0  0  0  0  0  0
  1  2  2  0
  2  3  1  0
  3  4  1  0
  4  5  1  0
  5  6  2  0
  5  7  1  0
  7  8  1  0
  8  9  1  0
  9 10  2  0
 10 11  1  0
 11 12  2  0
 12 13  1  0
  8 14  1  0
 14 15  1  0
 15 16  2  0
 16 17  1  0
 17 18  2  0
 18 19  1  0
 19 20  2  0
  2 21  1  0
 21 22  1  0
 22 23  2  0
 23 24  1  0
 24 25  2  0
 25 26  1  0
 26 27  2  0
 26 28  1  0
 28 29  1  0
 29 30  1  0
 30 31  1  0
 20  4  1  0
 27 22  1  0
 13  9  1  0
 20 15  1  0
 31 25  1  0
  3 32  1  0
  3 33  1  0
  7 34  1  0
  7 35  1  0
  8 36  1  0
 10 37  1  0
 11 38  1  0
 12 39  1  0
 16 40  1  0
 17 41  1  0
 18 42  1  0
 19 43  1  0
 21 44  1  0
 23 45  1  0
 24 46  1  0
 27 47  1  0
 29 48  1  0
 29 49  1  0
 30 50  1  0
 30 51  1  0
M  END
$$$$
