
     RDKit          3D

 53 56  0  0  0  0  0  0  0  0999 V2000
    5.4089    3.9747    0.3278 C   0  0  0  0  0  0  0  0  0  0  0  0
    4.4396    3.0264   -0.1050 O   0  0  0  0  0  0  0  0  0  0  0  0
    4.4444    1.8099    0.5243 C   0  0  0  0  0  0  0  0  0  0  0  0
    5.1216    1.5038    1.7026 C   0  0  0  0  0  0  0  0  0  0  0  0
    5.0472    0.2113    2.2303 C   0  0  0  0  0  0  0  0  0  0  0  0
    4.3017   -0.7793    1.5827 C   0  0  0  0  0  0  0  0  0  0  0  0
    3.6203   -0.4865    0.4046 C   0  0  0  0  0  0  0  0  0  0  0  0
    2.8790   -1.4271   -0.3348 N   0  0  0  0  0  0  0  0  0  0  0  0
    2.6429   -2.7570   -0.0368 C   0  0  0  0  0  0  0  0  0  0  0  0
    2.9998   -3.3511    0.9779 O   0  0  0  0  0  0  0  0  0  0  0  0
    1.8804   -3.4937   -1.1321 C   0  0  0  0  0  0  0  0  0  0  0  0
    0.0853   -3.2675   -0.9573 S   0  0  0  0  0  0  0  0  0  0  0  0
   -0.1172   -1.6492   -1.5441 C   0  0  0  0  0  0  0  0  0  0  0  0
    0.8185   -0.9874   -2.1898 N   0  0  0  0  0  0  0  0  0  0  0  0
    0.3016    0.2172   -2.5622 N   0  0  0  0  0  0  0  0  0  0  0  0
   -0.9543    0.2774   -2.1495 C   0  0  0  0  0  0  0  0  0  0  0  0
   -1.8092    1.5026   -2.2522 C   0  0  0  0  0  0  0  0  0  0  0  0
   -2.1281    2.1189   -0.9178 C   0  0  0  0  0  0  0  0  0  0  0  0
   -1.2536    2.5378    0.0708 C   0  0  0  0  0  0  0  0  0  0  0  0
   -1.9334    3.0609    1.2093 C   0  0  0  0  0  0  0  0  0  0  0  0
   -3.3022    3.0353    1.0478 C   0  0  0  0  0  0  0  0  0  0  0  0
   -3.7618    2.4078   -0.4736 S   0  0  0  0  0  0  0  0  0  0  0  0
   -1.2893   -0.9129   -1.5068 N   0  0  0  0  0  0  0  0  0  0  0  0
   -2.5329   -1.2632   -0.9229 C   0  0  0  0  0  0  0  0  0  0  0  0
   -3.7201   -1.0761   -1.6381 C   0  0  0  0  0  0  0  0  0  0  0  0
   -4.9452   -1.4210   -1.0572 C   0  0  0  0  0  0  0  0  0  0  0  0
   -4.9946   -1.9646    0.2320 C   0  0  0  0  0  0  0  0  0  0  0  0
   -6.3175   -2.3089    0.8549 C   0  0  0  0  0  0  0  0  0  0  0  0
   -3.8031   -2.1390    0.9440 C   0  0  0  0  0  0  0  0  0  0  0  0
   -2.5758   -1.7969    0.3703 C   0  0  0  0  0  0  0  0  0  0  0  0
    3.6854    0.8175   -0.1083 C   0  0  0  0  0  0  0  0  0  0  0  0
    5.4037    4.8066   -0.3860 H   0  0  0  0  0  0  0  0  0  0  0  0
    5.1452    4.3757    1.3146 H   0  0  0  0  0  0  0  0  0  0  0  0
    6.4218    3.5482    0.3248 H   0  0  0  0  0  0  0  0  0  0  0  0
    5.7131    2.2437    2.2322 H   0  0  0  0  0  0  0  0  0  0  0  0
    5.5779   -0.0328    3.1463 H   0  0  0  0  0  0  0  0  0  0  0  0
    4.2839   -1.7762    2.0205 H   0  0  0  0  0  0  0  0  0  0  0  0
    2.4280   -1.0645   -1.1779 H   0  0  0  0  0  0  0  0  0  0  0  0
    2.2384   -3.1940   -2.1242 H   0  0  0  0  0  0  0  0  0  0  0  0
    2.1019   -4.5614   -1.0309 H   0  0  0  0  0  0  0  0  0  0  0  0
   -1.2644    2.2548   -2.8382 H   0  0  0  0  0  0  0  0  0  0  0  0
   -2.7111    1.2857   -2.8333 H   0  0  0  0  0  0  0  0  0  0  0  0
   -0.1744    2.4597   -0.0153 H   0  0  0  0  0  0  0  0  0  0  0  0
   -1.4478    3.4310    2.1005 H   0  0  0  0  0  0  0  0  0  0  0  0
   -4.0603    3.3625    1.7506 H   0  0  0  0  0  0  0  0  0  0  0  0
   -3.7222   -0.7012   -2.6579 H   0  0  0  0  0  0  0  0  0  0  0  0
   -5.8590   -1.2741   -1.6242 H   0  0  0  0  0  0  0  0  0  0  0  0
   -6.7958   -1.4031    1.2455 H   0  0  0  0  0  0  0  0  0  0  0  0
   -6.1958   -3.0203    1.6766 H   0  0  0  0  0  0  0  0  0  0  0  0
   -6.9821   -2.7756    0.1176 H   0  0  0  0  0  0  0  0  0  0  0  0
   -3.8202   -2.5414    1.9547 H   0  0  0  0  0  0  0  0  0  0  0  0
   -1.6780   -1.9186    0.9700 H   0  0  0  0  0  0  0  0  0  0  0  0
    3.1589    1.0753   -1.0256 H   0  0  0  0  0  0  0  0  0  0  0  0
  1  2  1  0
  2  3  1  0
  3  4  2  0
  4  5  1  0
  5  6  2  0
  6  7  1  0
  7  8  1  0
  8  9  1  0
  9 10  2  0
  9 11  1  0
 11 12  1  0
 12 13  1  0
 13 14  2  0
 14 15  1  0
 15 16  2  0
 16 17  1  0
 17 18  1  0
 18 19  2  0
 19 20  1  0
 20 21  2  0
 21 22  1  0
 16 23  1  0
 23 24  1  0
 24 25  2  0
 25 26  1  0
 26 27  2  0
 27 28  1  0
 27 29  1  0
 29 30  2  0
  7 31  2  0
 31  3  1  0
 23 13  1  0
 30 24  1  0
 22 18  1  0
  1 32  1  0
  1 33  1  0
  1 34  1  0
  4 35  1  0
  5 36  1  0
  6 37  1  0
  8 38  1  0
 11 39  1  0
 11 40  1  0
 17 41  1  0
 17 42  1  0
 19 43  1  0
 20 44  1  0
 21 45  1  0
 25 46  1  0
 26 47  1  0
 28 48  1  0
 28 49  1  0
 28 50  1  0
 29 51  1  0
 30 52  1  0
 31 53  1  0
M  END
$$$$
