
     RDKit          3D

 57 61  0  0  0  0  0  0  0  0999 V2000
    5.0961    1.9542    1.3002 C   0  0  0  0  0  0  0  0  0  0  0  0
    5.1119    0.6311    0.5358 C   0  0  0  0  0  0  0  0  0  0  0  0
    6.4911    0.4039   -0.0862 C   0  0  0  0  0  0  0  0  0  0  0  0
    4.0304    0.6502   -0.5473 C   0  0  0  0  0  0  0  0  0  0  0  0
    4.2981    1.0249   -1.6914 O   0  0  0  0  0  0  0  0  0  0  0  0
    2.7352    0.2820   -0.1870 N   0  0  0  0  0  0  0  0  0  0  0  0
    1.7032    0.2886   -1.2201 C   0  0  0  0  0  0  0  0  0  0  0  0
    0.7572   -0.9004   -1.0877 C   0  0  0  0  0  0  0  0  0  0  0  0
    0.0748   -0.9898    0.3052 C   0  0  0  0  0  0  0  0  0  0  0  0
    0.8486   -0.1499    1.3558 C   0  0  0  0  0  0  0  0  0  0  0  0
    2.3547   -0.2319    1.1289 C   0  0  0  0  0  0  0  0  0  0  0  0
    0.2548   -2.3524    0.7905 O   0  0  0  0  0  0  0  0  0  0  0  0
   -0.6149   -3.3057    0.3537 C   0  0  0  0  0  0  0  0  0  0  0  0
   -0.2487   -4.6296    0.6056 C   0  0  0  0  0  0  0  0  0  0  0  0
   -1.0680   -5.6754    0.1768 C   0  0  0  0  0  0  0  0  0  0  0  0
   -2.2502   -5.3893   -0.4979 C   0  0  0  0  0  0  0  0  0  0  0  0
   -3.0315   -6.3949   -0.9114 F   0  0  0  0  0  0  0  0  0  0  0  0
   -2.6332   -4.0779   -0.7453 C   0  0  0  0  0  0  0  0  0  0  0  0
   -1.8109   -3.0377   -0.3039 C   0  0  0  0  0  0  0  0  0  0  0  0
   -2.1959   -1.6388   -0.5270 C   0  0  0  0  0  0  0  0  0  0  0  0
   -3.0840   -1.3743   -1.3337 O   0  0  0  0  0  0  0  0  0  0  0  0
   -1.4288   -0.5930    0.2765 C   0  0  0  0  0  0  0  0  0  0  0  0
   -1.7236    0.8087   -0.2410 C   0  0  0  0  0  0  0  0  0  0  0  0
   -2.8143    1.1783    0.7066 C   0  0  0  0  0  0  0  0  0  0  0  0
   -3.6790    2.3629    0.4916 C   0  0  0  0  0  0  0  0  0  0  0  0
   -3.4676    3.2420   -0.5776 C   0  0  0  0  0  0  0  0  0  0  0  0
   -4.3011    4.3530   -0.7461 C   0  0  0  0  0  0  0  0  0  0  0  0
   -5.3420    4.5862    0.1515 C   0  0  0  0  0  0  0  0  0  0  0  0
   -6.3626    5.9542   -0.0607 Cl  0  0  0  0  0  0  0  0  0  0  0  0
   -5.5589    3.7180    1.2186 C   0  0  0  0  0  0  0  0  0  0  0  0
   -4.7282    2.6072    1.3887 C   0  0  0  0  0  0  0  0  0  0  0  0
   -2.9178    0.4077    1.7421 N   0  0  0  0  0  0  0  0  0  0  0  0
   -1.9540   -0.6152    1.6144 O   0  0  0  0  0  0  0  0  0  0  0  0
    5.8291    1.9415    2.1132 H   0  0  0  0  0  0  0  0  0  0  0  0
    4.1142    2.1641    1.7348 H   0  0  0  0  0  0  0  0  0  0  0  0
    5.3387    2.7941    0.6386 H   0  0  0  0  0  0  0  0  0  0  0  0
    4.9299   -0.2004    1.2240 H   0  0  0  0  0  0  0  0  0  0  0  0
    6.5047   -0.5232   -0.6699 H   0  0  0  0  0  0  0  0  0  0  0  0
    7.2587    0.3262    0.6911 H   0  0  0  0  0  0  0  0  0  0  0  0
    6.7731    1.2223   -0.7579 H   0  0  0  0  0  0  0  0  0  0  0  0
    2.1513    0.2786   -2.2193 H   0  0  0  0  0  0  0  0  0  0  0  0
    1.1587    1.2344   -1.1267 H   0  0  0  0  0  0  0  0  0  0  0  0
    0.0119   -0.8459   -1.8896 H   0  0  0  0  0  0  0  0  0  0  0  0
    1.3337   -1.8160   -1.2790 H   0  0  0  0  0  0  0  0  0  0  0  0
    0.6310   -0.5136    2.3681 H   0  0  0  0  0  0  0  0  0  0  0  0
    0.5554    0.9046    1.3260 H   0  0  0  0  0  0  0  0  0  0  0  0
    2.8650    0.3323    1.9126 H   0  0  0  0  0  0  0  0  0  0  0  0
    2.7056   -1.2686    1.1900 H   0  0  0  0  0  0  0  0  0  0  0  0
    0.6780   -4.8484    1.1306 H   0  0  0  0  0  0  0  0  0  0  0  0
   -0.7922   -6.7088    0.3635 H   0  0  0  0  0  0  0  0  0  0  0  0
   -3.5660   -3.8785   -1.2648 H   0  0  0  0  0  0  0  0  0  0  0  0
   -2.0394    0.8428   -1.2861 H   0  0  0  0  0  0  0  0  0  0  0  0
   -0.9048    1.5163   -0.0948 H   0  0  0  0  0  0  0  0  0  0  0  0
   -2.6645    3.0889   -1.2922 H   0  0  0  0  0  0  0  0  0  0  0  0
   -4.1341    5.0314   -1.5794 H   0  0  0  0  0  0  0  0  0  0  0  0
   -6.3703    3.8957    1.9195 H   0  0  0  0  0  0  0  0  0  0  0  0
   -4.9084    1.9334    2.2244 H   0  0  0  0  0  0  0  0  0  0  0  0
  1  2  1  0
  2  3  1  0
  2  4  1  0
  4  5  2  0
  4  6  1  0
  6  7  1  0
  7  8  1  0
  8  9  1  0
  9 10  1  0
 10 11  1  0
  9 12  1  0
 12 13  1  0
 13 14  2  0
 14 15  1  0
 15 16  2  0
 16 17  1  0
 16 18  1  0
 18 19  2  0
 19 20  1  0
 20 21  2  0
 20 22  1  0
 22 23  1  0
 23 24  1  0
 24 25  1  0
 25 26  2  0
 26 27  1  0
 27 28  2  0
 28 29  1  0
 28 30  1  0
 30 31  2  0
 24 32  2  0
 32 33  1  0
 11  6  1  0
 19 13  1  0
 33 22  1  0
 22  9  1  0
 31 25  1  0
  1 34  1  0
  1 35  1  0
  1 36  1  0
  2 37  1  0
  3 38  1  0
  3 39  1  0
  3 40  1  0
  7 41  1  0
  7 42  1  0
  8 43  1  0
  8 44  1  0
 10 45  1  0
 10 46  1  0
 11 47  1  0
 11 48  1  0
 14 49  1  0
 15 50  1  0
 18 51  1  0
 23 52  1  0
 23 53  1  0
 26 54  1  0
 27 55  1  0
 30 56  1  0
 31 57  1  0
M  END
$$$$
