
     RDKit          3D

 53 56  0  0  0  0  0  0  0  0999 V2000
    7.9632   -1.7347   -0.6342 C   0  0  0  0  0  0  0  0  0  0  0  0
    7.7935   -0.5977    0.2058 O   0  0  0  0  0  0  0  0  0  0  0  0
    6.5580   -0.0013    0.1888 C   0  0  0  0  0  0  0  0  0  0  0  0
    6.4737    1.1771    0.9329 C   0  0  0  0  0  0  0  0  0  0  0  0
    5.2812    1.8974    0.9826 C   0  0  0  0  0  0  0  0  0  0  0  0
    4.1608    1.4360    0.2863 C   0  0  0  0  0  0  0  0  0  0  0  0
    4.2214    0.2425   -0.4426 C   0  0  0  0  0  0  0  0  0  0  0  0
    3.0411   -0.1564   -1.1114 N   0  0  0  0  0  0  0  0  0  0  0  0
    2.7836   -1.3714   -1.7224 C   0  0  0  0  0  0  0  0  0  0  0  0
    3.5383   -2.3416   -1.7469 O   0  0  0  0  0  0  0  0  0  0  0  0
    1.4262   -1.4278   -2.4071 C   0  0  0  0  0  0  0  0  0  0  0  0
    0.1134   -1.8576   -1.2260 S   0  0  0  0  0  0  0  0  0  0  0  0
   -0.3160   -0.2907   -0.6127 C   0  0  0  0  0  0  0  0  0  0  0  0
    0.4210    0.7853   -0.7646 N   0  0  0  0  0  0  0  0  0  0  0  0
   -0.2797    1.8462   -0.2732 N   0  0  0  0  0  0  0  0  0  0  0  0
   -1.4536    1.4125    0.1568 C   0  0  0  0  0  0  0  0  0  0  0  0
   -2.4365    2.2540    0.9162 C   0  0  0  0  0  0  0  0  0  0  0  0
   -3.4662    2.9535    0.0631 C   0  0  0  0  0  0  0  0  0  0  0  0
   -4.8456    2.8974    0.1765 C   0  0  0  0  0  0  0  0  0  0  0  0
   -5.5103    3.6933   -0.8013 C   0  0  0  0  0  0  0  0  0  0  0  0
   -4.6163    4.3712   -1.6014 C   0  0  0  0  0  0  0  0  0  0  0  0
   -2.9937    4.0230   -1.1941 S   0  0  0  0  0  0  0  0  0  0  0  0
   -1.5280    0.0352   -0.0303 N   0  0  0  0  0  0  0  0  0  0  0  0
   -2.5852   -0.8293    0.3407 C   0  0  0  0  0  0  0  0  0  0  0  0
   -3.8993   -0.5257   -0.0346 C   0  0  0  0  0  0  0  0  0  0  0  0
   -4.9472   -1.3687    0.3473 C   0  0  0  0  0  0  0  0  0  0  0  0
   -4.6953   -2.5133    1.1139 C   0  0  0  0  0  0  0  0  0  0  0  0
   -5.8128   -3.4346    1.5093 C   0  0  0  0  0  0  0  0  0  0  0  0
   -3.3742   -2.8184    1.4715 C   0  0  0  0  0  0  0  0  0  0  0  0
   -2.3198   -1.9836    1.0874 C   0  0  0  0  0  0  0  0  0  0  0  0
    5.4265   -0.4715   -0.4877 C   0  0  0  0  0  0  0  0  0  0  0  0
    7.7504   -1.4936   -1.6839 H   0  0  0  0  0  0  0  0  0  0  0  0
    9.0135   -2.0461   -0.5694 H   0  0  0  0  0  0  0  0  0  0  0  0
    7.3456   -2.5727   -0.2856 H   0  0  0  0  0  0  0  0  0  0  0  0
    7.3467    1.5412    1.4633 H   0  0  0  0  0  0  0  0  0  0  0  0
    5.2257    2.8192    1.5547 H   0  0  0  0  0  0  0  0  0  0  0  0
    3.2369    2.0131    0.3314 H   0  0  0  0  0  0  0  0  0  0  0  0
    2.2428    0.4801   -1.0260 H   0  0  0  0  0  0  0  0  0  0  0  0
    1.4696   -2.2082   -3.1746 H   0  0  0  0  0  0  0  0  0  0  0  0
    1.2184   -0.4884   -2.9301 H   0  0  0  0  0  0  0  0  0  0  0  0
   -1.8752    3.0190    1.4683 H   0  0  0  0  0  0  0  0  0  0  0  0
   -2.9369    1.6523    1.6872 H   0  0  0  0  0  0  0  0  0  0  0  0
   -5.3596    2.2999    0.9226 H   0  0  0  0  0  0  0  0  0  0  0  0
   -6.5872    3.7813   -0.9028 H   0  0  0  0  0  0  0  0  0  0  0  0
   -4.8389    5.0536   -2.4107 H   0  0  0  0  0  0  0  0  0  0  0  0
   -4.1261    0.3239   -0.6735 H   0  0  0  0  0  0  0  0  0  0  0  0
   -5.9633   -1.1304    0.0363 H   0  0  0  0  0  0  0  0  0  0  0  0
   -6.7923   -2.9637    1.3587 H   0  0  0  0  0  0  0  0  0  0  0  0
   -5.7347   -3.6967    2.5703 H   0  0  0  0  0  0  0  0  0  0  0  0
   -5.7743   -4.3491    0.9060 H   0  0  0  0  0  0  0  0  0  0  0  0
   -3.1568   -3.7113    2.0542 H   0  0  0  0  0  0  0  0  0  0  0  0
   -1.3116   -2.2391    1.4113 H   0  0  0  0  0  0  0  0  0  0  0  0
    5.4852   -1.3848   -1.0651 H   0  0  0  0  0  0  0  0  0  0  0  0
  1  2  1  0
  2  3  1  0
  3  4  2  0
  4  5  1  0
  5  6  2  0
  6  7  1  0
  7  8  1  0
  8  9  1  0
  9 10  2  0
  9 11  1  0
 11 12  1  0
 12 13  1  0
 13 14  2  0
 14 15  1  0
 15 16  2  0
 16 17  1  0
 17 18  1  0
 18 19  2  0
 19 20  1  0
 20 21  2  0
 21 22  1  0
 16 23  1  0
 23 24  1  0
 24 25  2  0
 25 26  1  0
 26 27  2  0
 27 28  1  0
 27 29  1  0
 29 30  2  0
  7 31  2  0
 31  3  1  0
 23 13  1  0
 30 24  1  0
 22 18  1  0
  1 32  1  0
  1 33  1  0
  1 34  1  0
  4 35  1  0
  5 36  1  0
  6 37  1  0
  8 38  1  0
 11 39  1  0
 11 40  1  0
 17 41  1  0
 17 42  1  0
 19 43  1  0
 20 44  1  0
 21 45  1  0
 25 46  1  0
 26 47  1  0
 28 48  1  0
 28 49  1  0
 28 50  1  0
 29 51  1  0
 30 52  1  0
 31 53  1  0
M  END
$$$$
