
     RDKit          3D

 56 60  0  0  0  0  0  0  0  0999 V2000
   -4.8164    0.8343   -2.6676 C   0  0  0  0  0  0  0  0  0  0  0  0
   -5.1125   -0.0283   -1.5518 N   0  0  0  0  0  0  0  0  0  0  0  0
   -4.2364   -0.8240   -0.8667 C   0  0  0  0  0  0  0  0  0  0  0  0
   -2.5272   -0.8220   -1.1152 S   0  0  0  0  0  0  0  0  0  0  0  0
   -2.0791   -2.3427   -0.2239 C   0  0  0  0  0  0  0  0  0  0  0  0
   -0.5681   -2.5038   -0.2393 C   0  0  0  0  0  0  0  0  0  0  0  0
   -0.0238   -3.3009   -0.9981 O   0  0  0  0  0  0  0  0  0  0  0  0
    0.0687   -1.6737    0.6745 N   0  0  0  0  0  0  0  0  0  0  0  0
    1.4522   -1.5748    0.9316 C   0  0  0  0  0  0  0  0  0  0  0  0
    1.8510   -0.6192    1.8724 C   0  0  0  0  0  0  0  0  0  0  0  0
    3.2018   -0.4408    2.1989 C   0  0  0  0  0  0  0  0  0  0  0  0
    4.1801   -1.2353    1.5725 C   0  0  0  0  0  0  0  0  0  0  0  0
    5.5474   -1.1615    1.7908 N   0  0  0  0  0  0  0  0  0  0  0  0
    6.1597   -2.0536    1.0435 C   0  0  0  0  0  0  0  0  0  0  0  0
    7.8995   -2.2488    1.0691 S   0  0  0  0  0  0  0  0  0  0  0  0
    8.4101   -0.9069    2.1742 C   0  0  0  0  0  0  0  0  0  0  0  0
    8.3776    0.4289    1.4534 C   0  0  0  0  0  0  0  0  0  0  0  0
    9.3529    0.8738    0.8515 O   0  0  0  0  0  0  0  0  0  0  0  0
    7.1677    1.0918    1.5484 N   0  0  0  0  0  0  0  0  0  0  0  0
    6.9074    2.3119    0.8537 C   0  0  0  0  0  0  0  0  0  0  0  0
    5.5687    2.9877    0.9736 C   0  0  0  0  0  0  0  0  0  0  0  0
    6.7786    3.6034    1.6130 C   0  0  0  0  0  0  0  0  0  0  0  0
    5.1595   -3.0121    0.0405 S   0  0  0  0  0  0  0  0  0  0  0  0
    3.7708   -2.1873    0.6394 C   0  0  0  0  0  0  0  0  0  0  0  0
    2.4156   -2.3736    0.3046 C   0  0  0  0  0  0  0  0  0  0  0  0
   -4.8855   -1.5574    0.0038 N   0  0  0  0  0  0  0  0  0  0  0  0
   -6.2152   -1.2317   -0.0929 N   0  0  0  0  0  0  0  0  0  0  0  0
   -6.3526   -0.2768   -0.9985 C   0  0  0  0  0  0  0  0  0  0  0  0
   -7.6152    0.3593   -1.3678 C   0  0  0  0  0  0  0  0  0  0  0  0
   -7.7426    1.7531   -1.4501 C   0  0  0  0  0  0  0  0  0  0  0  0
   -8.9632    2.3334   -1.8051 C   0  0  0  0  0  0  0  0  0  0  0  0
  -10.0686    1.5269   -2.0720 C   0  0  0  0  0  0  0  0  0  0  0  0
   -9.9593    0.1413   -1.9733 C   0  0  0  0  0  0  0  0  0  0  0  0
   -8.7400   -0.4389   -1.6170 C   0  0  0  0  0  0  0  0  0  0  0  0
   -4.4995    1.8048   -2.2774 H   0  0  0  0  0  0  0  0  0  0  0  0
   -4.0255    0.3923   -3.2787 H   0  0  0  0  0  0  0  0  0  0  0  0
   -5.7015    0.9475   -3.2975 H   0  0  0  0  0  0  0  0  0  0  0  0
   -2.5330   -3.2136   -0.7082 H   0  0  0  0  0  0  0  0  0  0  0  0
   -2.4252   -2.3059    0.8148 H   0  0  0  0  0  0  0  0  0  0  0  0
   -0.5286   -1.0335    1.1855 H   0  0  0  0  0  0  0  0  0  0  0  0
    1.1172    0.0101    2.3724 H   0  0  0  0  0  0  0  0  0  0  0  0
    3.4975    0.3048    2.9308 H   0  0  0  0  0  0  0  0  0  0  0  0
    9.4421   -1.0903    2.4928 H   0  0  0  0  0  0  0  0  0  0  0  0
    7.8009   -0.8763    3.0837 H   0  0  0  0  0  0  0  0  0  0  0  0
    6.3672    0.5279    1.8370 H   0  0  0  0  0  0  0  0  0  0  0  0
    7.3890    2.3644   -0.1220 H   0  0  0  0  0  0  0  0  0  0  0  0
    4.8203    2.5522    1.6244 H   0  0  0  0  0  0  0  0  0  0  0  0
    5.1652    3.4640    0.0870 H   0  0  0  0  0  0  0  0  0  0  0  0
    7.2039    4.4919    1.1603 H   0  0  0  0  0  0  0  0  0  0  0  0
    6.8603    3.5729    2.6935 H   0  0  0  0  0  0  0  0  0  0  0  0
    2.1560   -3.1296   -0.4283 H   0  0  0  0  0  0  0  0  0  0  0  0
   -6.9022    2.4028   -1.2195 H   0  0  0  0  0  0  0  0  0  0  0  0
   -9.0555    3.4155   -1.8624 H   0  0  0  0  0  0  0  0  0  0  0  0
  -11.0195    1.9785   -2.3440 H   0  0  0  0  0  0  0  0  0  0  0  0
  -10.8234   -0.4894   -2.1680 H   0  0  0  0  0  0  0  0  0  0  0  0
   -8.6694   -1.5228   -1.5327 H   0  0  0  0  0  0  0  0  0  0  0  0
  1  2  1  0
  2  3  1  0
  3  4  1  0
  4  5  1  0
  5  6  1  0
  6  7  2  0
  6  8  1  0
  8  9  1  0
  9 10  2  0
 10 11  1  0
 11 12  2  0
 12 13  1  0
 13 14  2  0
 14 15  1  0
 15 16  1  0
 16 17  1  0
 17 18  2  0
 17 19  1  0
 19 20  1  0
 20 21  1  0
 21 22  1  0
 14 23  1  0
 23 24  1  0
 24 25  2  0
  3 26  2  0
 26 27  1  0
 27 28  2  0
 28 29  1  0
 29 30  2  0
 30 31  1  0
 31 32  2  0
 32 33  1  0
 33 34  2  0
 28  2  1  0
 34 29  1  0
 25  9  1  0
 24 12  1  0
 22 20  1  0
  1 35  1  0
  1 36  1  0
  1 37  1  0
  5 38  1  0
  5 39  1  0
  8 40  1  0
 10 41  1  0
 11 42  1  0
 16 43  1  0
 16 44  1  0
 19 45  1  0
 20 46  1  0
 21 47  1  0
 21 48  1  0
 22 49  1  0
 22 50  1  0
 25 51  1  0
 30 52  1  0
 31 53  1  0
 32 54  1  0
 33 55  1  0
 34 56  1  0
M  END
$$$$
