
     RDKit          3D

 46 49  0  0  0  0  0  0  0  0999 V2000
    1.4891   -1.4993   -0.0909 O   0  0  0  0  0  0  0  0  0  0  0  0
    2.1535   -0.6736    0.5226 C   0  0  0  0  0  0  0  0  0  0  0  0
    1.5616    0.4500    1.3620 C   0  0  0  0  0  0  0  0  0  0  0  0
    0.0915    0.3650    1.4121 N   0  0  0  0  0  4  0  0  0  0  0  0
   -0.8019    0.8655    0.4653 C   0  0  0  0  0  0  0  0  0  0  0  0
   -2.0949    0.5142    0.8358 C   0  0  0  0  0  0  0  0  0  0  0  0
   -3.4202    0.8833    0.0747 C   0  0  0  0  0  0  0  0  0  0  0  0
   -4.6678    0.5792    0.6231 C   0  0  0  0  0  0  0  0  0  0  0  0
   -5.8368    0.9196   -0.0664 C   0  0  0  0  0  0  0  0  0  0  0  0
   -5.7693    1.5570   -1.3069 C   0  0  0  0  0  0  0  0  0  0  0  0
   -7.2516    1.9420   -2.0956 Cl  0  0  0  0  0  0  0  0  0  0  0  0
   -4.5229    1.8646   -1.8570 C   0  0  0  0  0  0  0  0  0  0  0  0
   -4.3523    2.6544   -3.3865 Cl  0  0  0  0  0  0  0  0  0  0  0  0
   -3.3506    1.5309   -1.1650 C   0  0  0  0  0  0  0  0  0  0  0  0
   -1.9055   -0.2176    1.9941 N   0  0  0  0  0  0  0  0  0  0  0  0
   -0.6160   -0.3199    2.2996 C   0  0  0  0  0  0  0  0  0  0  0  0
   -0.3591   -1.1507    3.4968 C   0  0  0  0  0  0  0  0  0  0  0  0
   -1.7244   -1.8319    3.7158 C   0  0  0  0  0  0  0  0  0  0  0  0
   -2.7427   -0.9690    2.9185 C   0  0  0  0  0  0  0  0  0  0  0  0
    3.5128   -0.5963    0.5444 O   0  0  0  0  0  0  0  0  0  0  0  0
    4.1920   -1.4301   -0.4061 C   0  0  0  0  0  0  0  0  0  0  0  0
    4.2924   -0.6827   -1.7103 C   0  0  0  0  0  0  0  0  0  0  0  0
    5.1729    0.4018   -1.8366 C   0  0  0  0  0  0  0  0  0  0  0  0
    5.2437    1.1188   -3.0306 C   0  0  0  0  0  0  0  0  0  0  0  0
    4.4363    0.7606   -4.1087 C   0  0  0  0  0  0  0  0  0  0  0  0
    3.5582   -0.3171   -3.9936 C   0  0  0  0  0  0  0  0  0  0  0  0
    3.4805   -1.0320   -2.7987 C   0  0  0  0  0  0  0  0  0  0  0  0
    1.8330    1.4140    0.9190 H   0  0  0  0  0  0  0  0  0  0  0  0
    1.9490    0.3897    2.3838 H   0  0  0  0  0  0  0  0  0  0  0  0
   -0.3946    1.4178   -0.3639 H   0  0  0  0  0  0  0  0  0  0  0  0
   -4.7736    0.1046    1.5924 H   0  0  0  0  0  0  0  0  0  0  0  0
   -6.8072    0.6917    0.3696 H   0  0  0  0  0  0  0  0  0  0  0  0
   -2.3971    1.7802   -1.6250 H   0  0  0  0  0  0  0  0  0  0  0  0
    0.4486   -1.8483    3.2737 H   0  0  0  0  0  0  0  0  0  0  0  0
   -0.0972   -0.4642    4.3046 H   0  0  0  0  0  0  0  0  0  0  0  0
   -1.6952   -2.8376    3.2829 H   0  0  0  0  0  0  0  0  0  0  0  0
   -1.9868   -1.9267    4.7716 H   0  0  0  0  0  0  0  0  0  0  0  0
   -3.2610   -0.2638    3.5735 H   0  0  0  0  0  0  0  0  0  0  0  0
   -3.4550   -1.6011    2.3837 H   0  0  0  0  0  0  0  0  0  0  0  0
    3.7026   -2.4067   -0.5198 H   0  0  0  0  0  0  0  0  0  0  0  0
    5.1965   -1.6295   -0.0157 H   0  0  0  0  0  0  0  0  0  0  0  0
    5.8117    0.6920   -1.0069 H   0  0  0  0  0  0  0  0  0  0  0  0
    5.9362    1.9523   -3.1249 H   0  0  0  0  0  0  0  0  0  0  0  0
    4.4966    1.3139   -5.0429 H   0  0  0  0  0  0  0  0  0  0  0  0
    2.9381   -0.5996   -4.8420 H   0  0  0  0  0  0  0  0  0  0  0  0
    2.7866   -1.8651   -2.7256 H   0  0  0  0  0  0  0  0  0  0  0  0
  1  2  2  0
  2  3  1  0
  3  4  1  0
  4  5  1  0
  5  6  2  0
  6  7  1  0
  7  8  2  0
  8  9  1  0
  9 10  2  0
 10 11  1  0
 10 12  1  0
 12 13  1  0
 12 14  2  0
  6 15  1  0
 15 16  1  0
 16 17  1  0
 17 18  1  0
 18 19  1  0
  2 20  1  0
 20 21  1  0
 21 22  1  0
 22 23  2  0
 23 24  1  0
 24 25  2  0
 25 26  1  0
 26 27  2  0
 16  4  2  0
 27 22  1  0
 14  7  1  0
 19 15  1  0
  3 28  1  0
  3 29  1  0
  5 30  1  0
  8 31  1  0
  9 32  1  0
 14 33  1  0
 17 34  1  0
 17 35  1  0
 18 36  1  0
 18 37  1  0
 19 38  1  0
 19 39  1  0
 21 40  1  0
 21 41  1  0
 23 42  1  0
 24 43  1  0
 25 44  1  0
 26 45  1  0
 27 46  1  0
M  CHG  1   4   1
M  END
$$$$
