
     RDKit          3D

 43 45  0  0  0  0  0  0  0  0999 V2000
   -5.0599    0.5650    1.5899 C   0  0  0  0  0  0  0  0  0  0  0  0
   -5.2961    0.8141    0.2939 C   0  0  0  0  0  0  0  0  0  0  0  0
   -4.3779    0.5887   -0.8782 C   0  0  0  0  0  0  0  0  0  0  0  0
   -3.0474    0.0711   -0.5499 N   0  0  0  0  0  0  0  0  0  0  0  0
   -1.9219    0.8409   -0.3064 C   0  0  0  0  0  0  0  0  0  0  0  0
   -1.9633    2.3323   -0.3081 C   0  0  0  0  0  0  0  0  0  0  0  0
   -0.8681   -0.0352   -0.1043 C   0  0  0  0  0  0  0  0  0  0  0  0
    0.4730    0.3813    0.1669 C   0  0  0  0  0  0  0  0  0  0  0  0
    1.5662   -0.1606   -0.3964 C   0  0  0  0  0  0  0  0  0  0  0  0
    2.9415    0.2672   -0.1192 C   0  0  0  0  0  0  0  0  0  0  0  0
    3.2879    1.6059    0.0575 C   0  0  0  0  0  0  0  0  0  0  0  0
    4.6149    1.9510    0.2892 C   0  0  0  0  0  0  0  0  0  0  0  0
    5.5747    1.0010    0.3415 N   0  0  0  0  0  4  0  0  0  0  0  0
    6.9745    1.3915    0.5798 C   0  0  0  0  0  0  0  0  0  0  0  0
    5.2673   -0.3009    0.1494 C   0  0  0  0  0  0  0  0  0  0  0  0
    3.9538   -0.6906   -0.0870 C   0  0  0  0  0  0  0  0  0  0  0  0
   -1.3714   -1.3698   -0.1868 C   0  0  0  0  0  0  0  0  0  0  0  0
   -0.8053   -2.6554   -0.0265 C   0  0  0  0  0  0  0  0  0  0  0  0
   -1.6028   -3.7951   -0.1707 C   0  0  0  0  0  0  0  0  0  0  0  0
   -2.9555   -3.6742   -0.4628 C   0  0  0  0  0  0  0  0  0  0  0  0
   -3.5455   -2.4171   -0.6143 C   0  0  0  0  0  0  0  0  0  0  0  0
   -2.7358   -1.2762   -0.4718 C   0  0  0  0  0  0  0  0  0  0  0  0
   -5.8175    0.7715    2.3406 H   0  0  0  0  0  0  0  0  0  0  0  0
   -4.1219    0.1449    1.9414 H   0  0  0  0  0  0  0  0  0  0  0  0
   -6.2683    1.2282    0.0304 H   0  0  0  0  0  0  0  0  0  0  0  0
   -4.8407   -0.1110   -1.5827 H   0  0  0  0  0  0  0  0  0  0  0  0
   -4.2421    1.5285   -1.4236 H   0  0  0  0  0  0  0  0  0  0  0  0
   -1.0185    2.7661    0.0321 H   0  0  0  0  0  0  0  0  0  0  0  0
   -2.7492    2.7020    0.3580 H   0  0  0  0  0  0  0  0  0  0  0  0
   -2.1532    2.7076   -1.3189 H   0  0  0  0  0  0  0  0  0  0  0  0
    0.5759    1.2017    0.8724 H   0  0  0  0  0  0  0  0  0  0  0  0
    1.4524   -0.9772   -1.1080 H   0  0  0  0  0  0  0  0  0  0  0  0
    2.5358    2.3906    0.0036 H   0  0  0  0  0  0  0  0  0  0  0  0
    4.9187    2.9849    0.4275 H   0  0  0  0  0  0  0  0  0  0  0  0
    7.4315    1.5819   -0.3944 H   0  0  0  0  0  0  0  0  0  0  0  0
    6.9949    2.2897    1.2024 H   0  0  0  0  0  0  0  0  0  0  0  0
    7.4893    0.5796    1.1000 H   0  0  0  0  0  0  0  0  0  0  0  0
    6.0785   -1.0228    0.1837 H   0  0  0  0  0  0  0  0  0  0  0  0
    3.7267   -1.7448   -0.2376 H   0  0  0  0  0  0  0  0  0  0  0  0
    0.2447   -2.7684    0.2215 H   0  0  0  0  0  0  0  0  0  0  0  0
   -1.1642   -4.7817   -0.0449 H   0  0  0  0  0  0  0  0  0  0  0  0
   -3.5676   -4.5676   -0.5654 H   0  0  0  0  0  0  0  0  0  0  0  0
   -4.6080   -2.3383   -0.8234 H   0  0  0  0  0  0  0  0  0  0  0  0
  1  2  2  0
  2  3  1  0
  3  4  1  0
  4  5  1  0
  5  6  1  0
  5  7  2  0
  7  8  1  0
  8  9  2  3
  9 10  1  0
 10 11  2  0
 11 12  1  0
 12 13  2  0
 13 14  1  0
 13 15  1  0
 15 16  2  0
  7 17  1  0
 17 18  2  0
 18 19  1  0
 19 20  2  0
 20 21  1  0
 21 22  2  0
 22  4  1  0
 16 10  1  0
 22 17  1  0
  1 23  1  0
  1 24  1  0
  2 25  1  0
  3 26  1  0
  3 27  1  0
  6 28  1  0
  6 29  1  0
  6 30  1  0
  8 31  1  0
  9 32  1  0
 11 33  1  0
 12 34  1  0
 14 35  1  0
 14 36  1  0
 14 37  1  0
 15 38  1  0
 16 39  1  0
 18 40  1  0
 19 41  1  0
 20 42  1  0
 21 43  1  0
M  CHG  1  13   1
M  END
$$$$
