
     RDKit          3D

 59 64  0  0  0  0  0  0  0  0999 V2000
   -5.7989   -2.1717    1.2731 C   0  0  0  0  0  0  0  0  0  0  0  0
   -5.5470   -0.8083    1.6070 O   0  0  0  0  0  0  0  0  0  0  0  0
   -5.7543   -0.0117    0.5059 C   0  0  0  0  0  0  0  0  0  0  0  0
   -7.0704    0.4027    0.2598 C   0  0  0  0  0  0  0  0  0  0  0  0
   -7.3549    1.1825   -0.8576 C   0  0  0  0  0  0  0  0  0  0  0  0
   -6.3237    1.5494   -1.7187 C   0  0  0  0  0  0  0  0  0  0  0  0
   -5.0074    1.1415   -1.4597 C   0  0  0  0  0  0  0  0  0  0  0  0
   -4.6721    0.3715   -0.3265 C   0  0  0  0  0  0  0  0  0  0  0  0
   -3.3559   -0.0091   -0.0659 N   0  0  0  0  0  0  0  0  0  0  0  0
   -2.8748    0.0886    1.3388 C   0  0  0  0  0  0  0  0  0  0  0  0
   -1.4837    0.7547    1.4237 C   0  0  0  0  0  0  0  0  0  0  0  0
   -0.4630    0.0379    0.6180 N   0  0  0  0  0  0  0  0  0  0  0  0
    0.7939    0.5848    0.5375 C   0  0  0  0  0  0  0  0  0  0  0  0
    1.1721    1.9146    0.5838 C   0  0  0  0  0  0  0  0  0  0  0  0
    2.5442    1.9946    0.2648 C   0  0  0  0  0  0  0  0  0  0  0  0
    2.9963    0.7064    0.0534 C   0  0  0  0  0  0  0  0  0  0  0  0
    4.2896    0.1839   -0.3343 C   0  0  0  0  0  0  0  0  0  0  0  0
    5.3742    1.0974   -0.7730 C   0  0  0  0  0  0  0  0  0  0  0  0
    6.6467    0.9576   -0.2051 C   0  0  0  0  0  0  0  0  0  0  0  0
    7.6855    1.8002   -0.6055 C   0  0  0  0  0  0  0  0  0  0  0  0
    7.4573    2.7697   -1.5820 C   0  0  0  0  0  0  0  0  0  0  0  0
    6.1926    2.8979   -2.1645 C   0  0  0  0  0  0  0  0  0  0  0  0
    5.1493    2.0594   -1.7649 C   0  0  0  0  0  0  0  0  0  0  0  0
    4.5319   -1.0940   -0.3026 N   0  0  0  0  0  0  0  0  0  0  0  0
    3.5158   -1.9738    0.1205 C   0  0  0  0  0  0  0  0  0  0  0  0
    3.8312   -3.3350    0.2027 C   0  0  0  0  0  0  0  0  0  0  0  0
    2.8883   -4.2616    0.6481 C   0  0  0  0  0  0  0  0  0  0  0  0
    1.6208   -3.8276    1.0320 C   0  0  0  0  0  0  0  0  0  0  0  0
    1.2867   -2.4720    0.9565 C   0  0  0  0  0  0  0  0  0  0  0  0
    2.2208   -1.5526    0.4742 C   0  0  0  0  0  0  0  0  0  0  0  0
    1.9629   -0.1620    0.3652 N   0  0  0  0  0  0  0  0  0  0  0  0
   -0.9997   -0.5714   -0.6326 C   0  0  0  0  0  0  0  0  0  0  0  0
   -2.3091    0.1014   -1.0982 C   0  0  0  0  0  0  0  0  0  0  0  0
   -5.2586   -2.8025    1.9884 H   0  0  0  0  0  0  0  0  0  0  0  0
   -5.4577   -2.4349    0.2631 H   0  0  0  0  0  0  0  0  0  0  0  0
   -6.8697   -2.3825    1.3712 H   0  0  0  0  0  0  0  0  0  0  0  0
   -7.8664    0.1097    0.9380 H   0  0  0  0  0  0  0  0  0  0  0  0
   -8.3711    1.5069   -1.0572 H   0  0  0  0  0  0  0  0  0  0  0  0
   -6.5379    2.1631   -2.5921 H   0  0  0  0  0  0  0  0  0  0  0  0
   -4.2427    1.4751   -2.1540 H   0  0  0  0  0  0  0  0  0  0  0  0
   -3.5540    0.6863    1.9637 H   0  0  0  0  0  0  0  0  0  0  0  0
   -2.8181   -0.9245    1.7610 H   0  0  0  0  0  0  0  0  0  0  0  0
   -1.1631    0.7702    2.4707 H   0  0  0  0  0  0  0  0  0  0  0  0
   -1.5773    1.7917    1.0840 H   0  0  0  0  0  0  0  0  0  0  0  0
    0.5141    2.7546    0.7513 H   0  0  0  0  0  0  0  0  0  0  0  0
    3.1284    2.9017    0.1777 H   0  0  0  0  0  0  0  0  0  0  0  0
    6.8267    0.1959    0.5495 H   0  0  0  0  0  0  0  0  0  0  0  0
    8.6721    1.6967   -0.1588 H   0  0  0  0  0  0  0  0  0  0  0  0
    8.2683    3.4225   -1.8995 H   0  0  0  0  0  0  0  0  0  0  0  0
    6.0235    3.6502   -2.9344 H   0  0  0  0  0  0  0  0  0  0  0  0
    4.1743    2.1517   -2.2413 H   0  0  0  0  0  0  0  0  0  0  0  0
    4.8280   -3.6684   -0.0760 H   0  0  0  0  0  0  0  0  0  0  0  0
    3.1499   -5.3159    0.7106 H   0  0  0  0  0  0  0  0  0  0  0  0
    0.8921   -4.5421    1.4040 H   0  0  0  0  0  0  0  0  0  0  0  0
    0.3097   -2.1619    1.3061 H   0  0  0  0  0  0  0  0  0  0  0  0
   -0.2642   -0.5217   -1.4441 H   0  0  0  0  0  0  0  0  0  0  0  0
   -1.2011   -1.6294   -0.4415 H   0  0  0  0  0  0  0  0  0  0  0  0
   -2.1094    1.1552   -1.3228 H   0  0  0  0  0  0  0  0  0  0  0  0
   -2.6413   -0.3939   -2.0180 H   0  0  0  0  0  0  0  0  0  0  0  0
  1  2  1  0
  2  3  1  0
  3  4  2  0
  4  5  1  0
  5  6  2  0
  6  7  1  0
  7  8  2  0
  8  9  1  0
  9 10  1  0
 10 11  1  0
 11 12  1  0
 12 13  1  0
 13 14  2  0
 14 15  1  0
 15 16  2  0
 16 17  1  0
 17 18  1  0
 18 19  2  0
 19 20  1  0
 20 21  2  0
 21 22  1  0
 22 23  2  0
 17 24  2  0
 24 25  1  0
 25 26  2  0
 26 27  1  0
 27 28  2  0
 28 29  1  0
 29 30  2  0
 30 31  1  0
 12 32  1  0
 32 33  1  0
  8  3  1  0
 33  9  1  0
 31 13  1  0
 31 16  1  0
 23 18  1  0
 30 25  1  0
  1 34  1  0
  1 35  1  0
  1 36  1  0
  4 37  1  0
  5 38  1  0
  6 39  1  0
  7 40  1  0
 10 41  1  0
 10 42  1  0
 11 43  1  0
 11 44  1  0
 14 45  1  0
 15 46  1  0
 19 47  1  0
 20 48  1  0
 21 49  1  0
 22 50  1  0
 23 51  1  0
 26 52  1  0
 27 53  1  0
 28 54  1  0
 29 55  1  0
 32 56  1  0
 32 57  1  0
 33 58  1  0
 33 59  1  0
M  END
$$$$
