
     RDKit          3D

 25 26  0  0  0  0  0  0  0  0999 V2000
   -0.9306   -0.8709   -2.0240 O   0  0  0  0  0  0  0  0  0  0  0  0
   -1.3025   -0.1061   -1.1413 C   0  0  0  0  0  0  0  0  0  0  0  0
   -0.6303    1.0067   -0.7371 O   0  0  0  0  0  0  0  0  0  0  0  0
    0.6247    1.2398   -1.3814 C   0  0  0  0  0  0  0  0  0  0  0  0
    1.7350    0.6183   -0.5750 C   0  0  0  0  0  0  0  0  0  0  0  0
    2.3416   -0.5728   -0.9961 C   0  0  0  0  0  0  0  0  0  0  0  0
    3.3593   -1.1544   -0.2383 C   0  0  0  0  0  0  0  0  0  0  0  0
    3.7751   -0.5553    0.9493 C   0  0  0  0  0  0  0  0  0  0  0  0
    3.1707    0.6230    1.3836 C   0  0  0  0  0  0  0  0  0  0  0  0
    2.1527    1.2060    0.6274 C   0  0  0  0  0  0  0  0  0  0  0  0
   -2.5248   -0.2540   -0.3852 C   0  0  0  0  0  0  0  0  0  0  0  0
   -3.5023   -1.2322   -0.4396 C   0  0  0  0  0  0  0  0  0  0  0  0
   -4.4826   -0.8872    0.5225 C   0  0  0  0  0  0  0  0  0  0  0  0
   -4.0498    0.2798    1.1075 C   0  0  0  0  0  0  0  0  0  0  0  0
   -4.9640    1.2251    2.4816 Br  0  0  0  0  0  0  0  0  0  0  0  0
   -2.8676    0.6726    0.5651 O   0  0  0  0  0  0  0  0  0  0  0  0
    0.6299    0.8934   -2.4223 H   0  0  0  0  0  0  0  0  0  0  0  0
    0.7744    2.3250   -1.4276 H   0  0  0  0  0  0  0  0  0  0  0  0
    2.0181   -1.0596   -1.9146 H   0  0  0  0  0  0  0  0  0  0  0  0
    3.8239   -2.0782   -0.5729 H   0  0  0  0  0  0  0  0  0  0  0  0
    4.5660   -1.0103    1.5397 H   0  0  0  0  0  0  0  0  0  0  0  0
    3.4886    1.0859    2.3142 H   0  0  0  0  0  0  0  0  0  0  0  0
    1.6805    2.1194    0.9831 H   0  0  0  0  0  0  0  0  0  0  0  0
   -3.4954   -2.0899   -1.0994 H   0  0  0  0  0  0  0  0  0  0  0  0
   -5.3905   -1.4243    0.7589 H   0  0  0  0  0  0  0  0  0  0  0  0
  1  2  2  0
  2  3  1  0
  3  4  1  0
  4  5  1  0
  5  6  2  0
  6  7  1  0
  7  8  2  0
  8  9  1  0
  9 10  2  0
  2 11  1  0
 11 12  2  0
 12 13  1  0
 13 14  2  0
 14 15  1  0
 14 16  1  0
 10  5  1  0
 16 11  1  0
  4 17  1  0
  4 18  1  0
  6 19  1  0
  7 20  1  0
  8 21  1  0
  9 22  1  0
 10 23  1  0
 12 24  1  0
 13 25  1  0
M  END
$$$$
