
     RDKit          3D

 37 37  0  0  0  0  0  0  0  0999 V2000
   -0.5137   -3.8713    1.4531 C   0  0  0  0  0  0  0  0  0  0  0  0
   -0.5344   -2.4533    1.2749 O   0  0  0  0  0  0  0  0  0  0  0  0
   -1.7737   -1.9410    1.0121 C   0  0  0  0  0  0  0  0  0  0  0  0
   -2.8086   -2.6025    1.0128 O   0  0  0  0  0  0  0  0  0  0  0  0
   -1.7255   -0.4082    0.8359 C   0  0  0  0  0  0  0  0  0  0  0  0
   -2.7123    0.0549   -0.2503 C   0  0  0  0  0  0  0  0  0  0  0  0
   -2.8066    1.5767   -0.3280 C   0  0  0  0  0  0  0  0  0  0  0  0
   -4.0390    2.1445   -1.5611 S   0  0  0  0  0  0  0  0  0  0  0  0
   -5.5709    1.7056   -0.6978 C   0  0  0  0  0  0  0  0  0  0  0  0
   -0.3623    0.1257    0.7188 N   0  0  0  0  0  0  0  0  0  0  0  0
    0.3855   -0.0719   -0.4148 C   0  0  0  0  0  0  0  0  0  0  0  0
   -0.0325   -0.5660   -1.4500 O   0  0  0  0  0  0  0  0  0  0  0  0
    1.6743    0.3433   -0.2228 N   0  0  0  0  0  0  0  0  0  0  0  0
    2.6183    0.2606   -1.3149 C   0  0  0  0  0  0  0  0  0  0  0  0
    3.9808    0.5565   -0.7763 C   0  0  0  0  0  0  0  0  0  0  0  0
    4.6018    1.7858   -0.6305 C   0  0  0  0  0  0  0  0  0  0  0  0
    5.9100    1.6746   -0.0745 C   0  0  0  0  0  0  0  0  0  0  0  0
    6.2433    0.3647    0.1954 C   0  0  0  0  0  0  0  0  0  0  0  0
    4.9844   -0.7196   -0.2210 S   0  0  0  0  0  0  0  0  0  0  0  0
   -0.9210   -4.3775    0.5669 H   0  0  0  0  0  0  0  0  0  0  0  0
   -1.0756   -4.1515    2.3511 H   0  0  0  0  0  0  0  0  0  0  0  0
    0.5290   -4.1806    1.5851 H   0  0  0  0  0  0  0  0  0  0  0  0
   -2.0760   -0.0147    1.8000 H   0  0  0  0  0  0  0  0  0  0  0  0
   -3.6974   -0.3650   -0.0129 H   0  0  0  0  0  0  0  0  0  0  0  0
   -2.4403   -0.3601   -1.2268 H   0  0  0  0  0  0  0  0  0  0  0  0
   -1.8423    2.0013   -0.6287 H   0  0  0  0  0  0  0  0  0  0  0  0
   -3.0595    2.0085    0.6480 H   0  0  0  0  0  0  0  0  0  0  0  0
   -5.6791    0.6215   -0.6120 H   0  0  0  0  0  0  0  0  0  0  0  0
   -6.4222    2.0985   -1.2595 H   0  0  0  0  0  0  0  0  0  0  0  0
   -5.5862    2.1563    0.2978 H   0  0  0  0  0  0  0  0  0  0  0  0
    0.1982   -0.0001    1.5474 H   0  0  0  0  0  0  0  0  0  0  0  0
    1.7842    1.1176    0.4145 H   0  0  0  0  0  0  0  0  0  0  0  0
    2.5634   -0.7343   -1.7696 H   0  0  0  0  0  0  0  0  0  0  0  0
    2.3297    0.9978   -2.0746 H   0  0  0  0  0  0  0  0  0  0  0  0
    4.1398    2.7231   -0.9217 H   0  0  0  0  0  0  0  0  0  0  0  0
    6.5697    2.5129    0.1164 H   0  0  0  0  0  0  0  0  0  0  0  0
    7.1669   -0.0127    0.6174 H   0  0  0  0  0  0  0  0  0  0  0  0
  1  2  1  0
  2  3  1  0
  3  4  2  0
  3  5  1  0
  5  6  1  0
  6  7  1  0
  7  8  1  0
  8  9  1  0
  5 10  1  0
 10 11  1  0
 11 12  2  0
 11 13  1  0
 13 14  1  0
 14 15  1  0
 15 16  2  0
 16 17  1  0
 17 18  2  0
 18 19  1  0
 19 15  1  0
  1 20  1  0
  1 21  1  0
  1 22  1  0
  5 23  1  0
  6 24  1  0
  6 25  1  0
  7 26  1  0
  7 27  1  0
  9 28  1  0
  9 29  1  0
  9 30  1  0
 10 31  1  0
 13 32  1  0
 14 33  1  0
 14 34  1  0
 16 35  1  0
 17 36  1  0
 18 37  1  0
M  END
$$$$
