
     RDKit          3D

 57 60  0  0  0  0  0  0  0  0999 V2000
    5.5727    3.1511   -0.8259 C   0  0  0  0  0  0  0  0  0  0  0  0
    4.4581    2.1709   -0.6684 C   0  0  0  0  0  0  0  0  0  0  0  0
    3.1198    2.3898   -0.9228 C   0  0  0  0  0  0  0  0  0  0  0  0
    2.4009    1.2432   -0.5261 C   0  0  0  0  0  0  0  0  0  0  0  0
    0.9804    1.1273   -0.6293 C   0  0  0  0  0  0  0  0  0  0  0  0
    0.1871    0.3846    0.1599 C   0  0  0  0  0  0  0  0  0  0  0  0
   -1.2717    0.3742    0.0147 C   0  0  0  0  0  0  0  0  0  0  0  0
   -1.9783    1.5269    0.3615 C   0  0  0  0  0  0  0  0  0  0  0  0
   -3.3591    1.5425    0.2851 C   0  0  0  0  0  0  0  0  0  0  0  0
   -4.0375    0.3980   -0.1215 C   0  0  0  0  0  0  0  0  0  0  0  0
   -5.4461    0.3963   -0.1867 C   0  0  0  0  0  0  0  0  0  0  0  0
   -6.1931   -0.7285   -0.5730 C   0  0  0  0  0  0  0  0  0  0  0  0
   -7.5820   -0.7053   -0.6548 N   0  0  0  0  0  0  0  0  0  0  0  0
   -8.3383    0.4073   -0.0757 C   0  0  0  0  0  0  0  0  0  0  0  0
   -8.3321   -1.9503   -0.8327 C   0  0  0  0  0  0  0  0  0  0  0  0
   -5.4458   -1.8648   -0.9082 C   0  0  0  0  0  0  0  0  0  0  0  0
   -4.0423   -1.8893   -0.8547 C   0  0  0  0  0  0  0  0  0  0  0  0
   -3.3063   -0.7614   -0.4664 C   0  0  0  0  0  0  0  0  0  0  0  0
   -1.9334   -0.7409   -0.4085 N   0  0  0  0  0  4  0  0  0  0  0  0
   -1.1745   -1.9397   -0.8385 C   0  0  0  0  0  0  0  0  0  0  0  0
    3.3220    0.3001   -0.0955 C   0  0  0  0  0  0  0  0  0  0  0  0
    3.1234   -1.1396    0.2559 C   0  0  0  0  0  0  0  0  0  0  0  0
    4.5922    0.8935   -0.1332 N   0  0  0  0  0  0  0  0  0  0  0  0
    5.8089    0.2946    0.3064 C   0  0  0  0  0  0  0  0  0  0  0  0
    6.9588    0.3664   -0.4887 C   0  0  0  0  0  0  0  0  0  0  0  0
    8.1464   -0.2232   -0.0509 C   0  0  0  0  0  0  0  0  0  0  0  0
    8.1912   -0.8792    1.1783 C   0  0  0  0  0  0  0  0  0  0  0  0
    7.0488   -0.9495    1.9740 C   0  0  0  0  0  0  0  0  0  0  0  0
    5.8566   -0.3659    1.5410 C   0  0  0  0  0  0  0  0  0  0  0  0
    6.2640    3.1208    0.0218 H   0  0  0  0  0  0  0  0  0  0  0  0
    6.1237    2.9664   -1.7528 H   0  0  0  0  0  0  0  0  0  0  0  0
    5.1777    4.1719   -0.8790 H   0  0  0  0  0  0  0  0  0  0  0  0
    2.7133    3.3121   -1.3210 H   0  0  0  0  0  0  0  0  0  0  0  0
    0.5234    1.7524   -1.3979 H   0  0  0  0  0  0  0  0  0  0  0  0
    0.5903   -0.2148    0.9703 H   0  0  0  0  0  0  0  0  0  0  0  0
   -1.4536    2.4183    0.7043 H   0  0  0  0  0  0  0  0  0  0  0  0
   -3.8981    2.4495    0.5581 H   0  0  0  0  0  0  0  0  0  0  0  0
   -5.9652    1.3166    0.0747 H   0  0  0  0  0  0  0  0  0  0  0  0
   -8.1608    0.4802    1.0029 H   0  0  0  0  0  0  0  0  0  0  0  0
   -9.4167    0.2834   -0.2247 H   0  0  0  0  0  0  0  0  0  0  0  0
   -8.0739    1.3550   -0.5570 H   0  0  0  0  0  0  0  0  0  0  0  0
   -9.4107   -1.7668   -0.8921 H   0  0  0  0  0  0  0  0  0  0  0  0
   -8.1591   -2.6328    0.0063 H   0  0  0  0  0  0  0  0  0  0  0  0
   -8.0579   -2.4441   -1.7710 H   0  0  0  0  0  0  0  0  0  0  0  0
   -5.9428   -2.7779   -1.2297 H   0  0  0  0  0  0  0  0  0  0  0  0
   -3.5696   -2.8277   -1.1292 H   0  0  0  0  0  0  0  0  0  0  0  0
   -1.3636   -2.7321   -0.1099 H   0  0  0  0  0  0  0  0  0  0  0  0
   -0.1039   -1.7535   -0.9008 H   0  0  0  0  0  0  0  0  0  0  0  0
   -1.5146   -2.2204   -1.8389 H   0  0  0  0  0  0  0  0  0  0  0  0
    3.9892   -1.7546   -0.0082 H   0  0  0  0  0  0  0  0  0  0  0  0
    2.2792   -1.5614   -0.2980 H   0  0  0  0  0  0  0  0  0  0  0  0
    2.9183   -1.2507    1.3248 H   0  0  0  0  0  0  0  0  0  0  0  0
    6.9433    0.8383   -1.4668 H   0  0  0  0  0  0  0  0  0  0  0  0
    9.0379   -0.1754   -0.6720 H   0  0  0  0  0  0  0  0  0  0  0  0
    9.1194   -1.3331    1.5176 H   0  0  0  0  0  0  0  0  0  0  0  0
    7.0919   -1.4502    2.9381 H   0  0  0  0  0  0  0  0  0  0  0  0
    4.9919   -0.3985    2.1977 H   0  0  0  0  0  0  0  0  0  0  0  0
  1  2  1  0
  2  3  2  0
  3  4  1  0
  4  5  1  0
  5  6  2  3
  6  7  1  0
  7  8  2  0
  8  9  1  0
  9 10  2  0
 10 11  1  0
 11 12  2  0
 12 13  1  0
 13 14  1  0
 13 15  1  0
 12 16  1  0
 16 17  2  0
 17 18  1  0
 18 19  2  0
 19 20  1  0
  4 21  2  0
 21 22  1  0
 21 23  1  0
 23 24  1  0
 24 25  2  0
 25 26  1  0
 26 27  2  0
 27 28  1  0
 28 29  2  0
 23  2  1  0
 29 24  1  0
 19  7  1  0
 18 10  1  0
  1 30  1  0
  1 31  1  0
  1 32  1  0
  3 33  1  0
  5 34  1  0
  6 35  1  0
  8 36  1  0
  9 37  1  0
 11 38  1  0
 14 39  1  0
 14 40  1  0
 14 41  1  0
 15 42  1  0
 15 43  1  0
 15 44  1  0
 16 45  1  0
 17 46  1  0
 20 47  1  0
 20 48  1  0
 20 49  1  0
 22 50  1  0
 22 51  1  0
 22 52  1  0
 25 53  1  0
 26 54  1  0
 27 55  1  0
 28 56  1  0
 29 57  1  0
M  CHG  1  19   1
M  END
$$$$
