
     RDKit          3D

 46 48  0  0  0  0  0  0  0  0999 V2000
   -6.3737    1.3940    1.6698 C   0  0  0  0  0  0  0  0  0  0  0  0
   -6.5107    0.9431    0.3302 O   0  0  0  0  0  0  0  0  0  0  0  0
   -5.5403    0.1085   -0.1591 C   0  0  0  0  0  0  0  0  0  0  0  0
   -4.3936   -0.2855    0.5382 C   0  0  0  0  0  0  0  0  0  0  0  0
   -3.4532   -1.1385   -0.0584 C   0  0  0  0  0  0  0  0  0  0  0  0
   -2.2654   -1.5362    0.7007 C   0  0  0  0  0  0  0  0  0  0  0  0
   -1.0098   -1.2514    0.3288 C   0  0  0  0  0  0  0  0  0  0  0  0
   -0.5009   -0.4880   -0.8550 C   0  0  0  0  0  0  0  0  0  0  0  0
    0.9036   -0.0319   -0.4610 C   0  0  0  0  0  0  0  0  0  0  0  0
    1.3464   -1.0001    0.5924 C   0  0  0  0  0  0  0  0  0  0  0  0
    2.5794   -1.3256    1.0040 C   0  0  0  0  0  0  0  0  0  0  0  0
    3.8007   -0.7220    0.4671 C   0  0  0  0  0  0  0  0  0  0  0  0
    4.7110   -1.5274   -0.2283 C   0  0  0  0  0  0  0  0  0  0  0  0
    5.8794   -0.9743   -0.7496 C   0  0  0  0  0  0  0  0  0  0  0  0
    6.1312    0.3787   -0.5639 C   0  0  0  0  0  0  0  0  0  0  0  0
    7.2848    0.8977   -1.0863 O   0  0  0  0  0  0  0  0  0  0  0  0
    5.2436    1.2019    0.1386 C   0  0  0  0  0  0  0  0  0  0  0  0
    5.6317    2.5131    0.2450 O   0  0  0  0  0  0  0  0  0  0  0  0
    4.7793    3.3712    0.9948 C   0  0  0  0  0  0  0  0  0  0  0  0
    4.0744    0.6430    0.6560 C   0  0  0  0  0  0  0  0  0  0  0  0
    0.1475   -1.6644    1.1612 C   0  0  0  0  0  0  0  0  0  0  0  0
    0.1184   -2.4021    2.1272 O   0  0  0  0  0  0  0  0  0  0  0  0
   -3.6736   -1.6146   -1.3554 C   0  0  0  0  0  0  0  0  0  0  0  0
   -4.8133   -1.2288   -2.0608 C   0  0  0  0  0  0  0  0  0  0  0  0
   -5.7353   -0.3704   -1.4625 C   0  0  0  0  0  0  0  0  0  0  0  0
   -6.8543    0.0111   -2.1541 O   0  0  0  0  0  0  0  0  0  0  0  0
   -6.3704    0.5540    2.3724 H   0  0  0  0  0  0  0  0  0  0  0  0
   -5.4781    2.0127    1.7877 H   0  0  0  0  0  0  0  0  0  0  0  0
   -7.2414    2.0185    1.9032 H   0  0  0  0  0  0  0  0  0  0  0  0
   -4.2047    0.0647    1.5480 H   0  0  0  0  0  0  0  0  0  0  0  0
   -2.4557   -2.0783    1.6260 H   0  0  0  0  0  0  0  0  0  0  0  0
   -0.4480   -1.1517   -1.7262 H   0  0  0  0  0  0  0  0  0  0  0  0
   -1.1289    0.3713   -1.1103 H   0  0  0  0  0  0  0  0  0  0  0  0
    0.8644    0.9792   -0.0385 H   0  0  0  0  0  0  0  0  0  0  0  0
    1.5647   -0.0184   -1.3332 H   0  0  0  0  0  0  0  0  0  0  0  0
    2.7240   -2.0904    1.7657 H   0  0  0  0  0  0  0  0  0  0  0  0
    4.5141   -2.5873   -0.3731 H   0  0  0  0  0  0  0  0  0  0  0  0
    6.5881   -1.5911   -1.2939 H   0  0  0  0  0  0  0  0  0  0  0  0
    7.2714    1.8424   -0.8374 H   0  0  0  0  0  0  0  0  0  0  0  0
    4.6950    3.0352    2.0336 H   0  0  0  0  0  0  0  0  0  0  0  0
    5.2320    4.3673    1.0026 H   0  0  0  0  0  0  0  0  0  0  0  0
    3.7942    3.4567    0.5242 H   0  0  0  0  0  0  0  0  0  0  0  0
    3.3632    1.2422    1.2147 H   0  0  0  0  0  0  0  0  0  0  0  0
   -2.9644   -2.2948   -1.8216 H   0  0  0  0  0  0  0  0  0  0  0  0
   -4.9674   -1.6068   -3.0665 H   0  0  0  0  0  0  0  0  0  0  0  0
   -6.8593   -0.4262   -3.0192 H   0  0  0  0  0  0  0  0  0  0  0  0
  1  2  1  0
  2  3  1  0
  3  4  2  0
  4  5  1  0
  5  6  1  0
  6  7  2  3
  7  8  1  0
  8  9  1  0
  9 10  1  0
 10 11  2  3
 11 12  1  0
 12 13  2  0
 13 14  1  0
 14 15  2  0
 15 16  1  0
 15 17  1  0
 17 18  1  0
 18 19  1  0
 17 20  2  0
 10 21  1  0
 21 22  2  0
  5 23  2  0
 23 24  1  0
 24 25  2  0
 25 26  1  0
 25  3  1  0
 21  7  1  0
 20 12  1  0
  1 27  1  0
  1 28  1  0
  1 29  1  0
  4 30  1  0
  6 31  1  0
  8 32  1  0
  8 33  1  0
  9 34  1  0
  9 35  1  0
 11 36  1  0
 13 37  1  0
 14 38  1  0
 16 39  1  0
 19 40  1  0
 19 41  1  0
 19 42  1  0
 20 43  1  0
 23 44  1  0
 24 45  1  0
 26 46  1  0
M  END
$$$$
