
     RDKit          3D

 39 41  0  0  0  0  0  0  0  0999 V2000
    4.6400    1.9976    2.2027 C   0  0  0  0  0  0  0  0  0  0  0  0
    4.8380    1.5733    0.7587 C   0  0  0  0  0  0  0  0  0  0  0  0
    4.3157    0.2446    0.5025 N   0  0  0  0  0  0  0  0  0  0  0  0
    5.0273   -0.9174    0.4667 C   0  0  0  0  0  0  0  0  0  0  0  0
    4.1170   -1.9081    0.1879 C   0  0  0  0  0  0  0  0  0  0  0  0
    2.8658   -1.2494    0.0669 C   0  0  0  0  0  0  0  0  0  0  0  0
    1.5575   -1.8668   -0.2281 C   0  0  0  0  0  0  0  0  0  0  0  0
    1.4593   -3.0756   -0.4028 O   0  0  0  0  0  0  0  0  0  0  0  0
    0.5519   -0.9198   -0.2677 N   0  0  0  0  0  0  0  0  0  0  0  0
   -0.7974   -1.1062   -0.5113 C   0  0  0  0  0  0  0  0  0  0  0  0
   -1.4262   -2.6726   -0.8243 S   0  0  0  0  0  0  0  0  0  0  0  0
   -2.9648   -2.0594   -0.9906 C   0  0  0  0  0  0  0  0  0  0  0  0
   -3.0459   -0.7070   -0.8185 C   0  0  0  0  0  0  0  0  0  0  0  0
   -1.7805   -0.1120   -0.5402 C   0  0  0  0  0  0  0  0  0  0  0  0
   -1.4981    1.3033   -0.3149 C   0  0  0  0  0  0  0  0  0  0  0  0
   -0.3782    1.7347   -0.0610 O   0  0  0  0  0  0  0  0  0  0  0  0
   -2.6099    2.0891   -0.4209 O   0  0  0  0  0  0  0  0  0  0  0  0
   -2.3639    3.4787   -0.2078 C   0  0  0  0  0  0  0  0  0  0  0  0
   -4.4479   -0.2394   -0.9829 C   0  0  0  0  0  0  0  0  0  0  0  0
   -5.2553   -1.5748   -0.9436 C   0  0  0  0  0  0  0  0  0  0  0  0
   -4.2555   -2.7173   -1.2942 C   0  0  0  0  0  0  0  0  0  0  0  0
    3.0017    0.0795    0.2606 N   0  0  0  0  0  0  0  0  0  0  0  0
    5.0510    2.9988    2.3645 H   0  0  0  0  0  0  0  0  0  0  0  0
    5.1413    1.3065    2.8886 H   0  0  0  0  0  0  0  0  0  0  0  0
    3.5774    2.0178    2.4672 H   0  0  0  0  0  0  0  0  0  0  0  0
    5.9033    1.5684    0.5037 H   0  0  0  0  0  0  0  0  0  0  0  0
    4.3322    2.2648    0.0758 H   0  0  0  0  0  0  0  0  0  0  0  0
    6.0939   -0.9452    0.6400 H   0  0  0  0  0  0  0  0  0  0  0  0
    4.3078   -2.9674    0.0821 H   0  0  0  0  0  0  0  0  0  0  0  0
    0.8675    0.0372   -0.0888 H   0  0  0  0  0  0  0  0  0  0  0  0
   -1.6657    3.8644   -0.9572 H   0  0  0  0  0  0  0  0  0  0  0  0
   -3.3134    4.0106   -0.3143 H   0  0  0  0  0  0  0  0  0  0  0  0
   -1.9832    3.6506    0.8039 H   0  0  0  0  0  0  0  0  0  0  0  0
   -4.7704    0.4327   -0.1831 H   0  0  0  0  0  0  0  0  0  0  0  0
   -4.5748    0.2565   -1.9509 H   0  0  0  0  0  0  0  0  0  0  0  0
   -6.1199   -1.5575   -1.6145 H   0  0  0  0  0  0  0  0  0  0  0  0
   -5.6332   -1.7320    0.0755 H   0  0  0  0  0  0  0  0  0  0  0  0
   -4.4427   -3.6079   -0.6883 H   0  0  0  0  0  0  0  0  0  0  0  0
   -4.3220   -2.9734   -2.3565 H   0  0  0  0  0  0  0  0  0  0  0  0
  1  2  1  0
  2  3  1  0
  3  4  1  0
  4  5  2  0
  5  6  1  0
  6  7  1  0
  7  8  2  0
  7  9  1  0
  9 10  1  0
 10 11  1  0
 11 12  1  0
 12 13  2  0
 13 14  1  0
 14 15  1  0
 15 16  2  0
 15 17  1  0
 17 18  1  0
 13 19  1  0
 19 20  1  0
 20 21  1  0
  6 22  2  0
 22  3  1  0
 14 10  2  0
 21 12  1  0
  1 23  1  0
  1 24  1  0
  1 25  1  0
  2 26  1  0
  2 27  1  0
  4 28  1  0
  5 29  1  0
  9 30  1  0
 18 31  1  0
 18 32  1  0
 18 33  1  0
 19 34  1  0
 19 35  1  0
 20 36  1  0
 20 37  1  0
 21 38  1  0
 21 39  1  0
M  END
$$$$
