
     RDKit          3D

 39 41  0  0  0  0  0  0  0  0999 V2000
    2.7152    0.4767    1.1850 O   0  0  0  0  0  0  0  0  0  0  0  0
    2.0163    0.8623    0.2558 C   0  0  0  0  0  0  0  0  0  0  0  0
    2.5665    1.6233   -0.9023 C   0  0  0  0  0  0  0  0  0  0  0  0
    3.7948    1.4852   -1.4253 C   0  0  0  0  0  0  0  0  0  0  0  0
    4.8343    0.5424   -1.0079 C   0  0  0  0  0  0  0  0  0  0  0  0
    5.1293   -0.5600   -1.8188 C   0  0  0  0  0  0  0  0  0  0  0  0
    6.1365   -1.4563   -1.4516 C   0  0  0  0  0  0  0  0  0  0  0  0
    6.8515   -1.2472   -0.2736 C   0  0  0  0  0  0  0  0  0  0  0  0
    8.2129   -2.4604    0.2249 Br  0  0  0  0  0  0  0  0  0  0  0  0
    6.5703   -0.1509    0.5388 C   0  0  0  0  0  0  0  0  0  0  0  0
    5.5641    0.7450    0.1685 C   0  0  0  0  0  0  0  0  0  0  0  0
    0.5429    0.6445    0.2980 C   0  0  0  0  0  0  0  0  0  0  0  0
   -0.0581    0.4136    1.5400 C   0  0  0  0  0  0  0  0  0  0  0  0
   -1.4372    0.1976    1.6294 C   0  0  0  0  0  0  0  0  0  0  0  0
   -2.2367    0.2006    0.4804 C   0  0  0  0  0  0  0  0  0  0  0  0
   -3.6135   -0.0231    0.6578 N   0  0  0  0  0  0  0  0  0  0  0  0
   -4.6114   -0.0592   -0.3006 C   0  0  0  0  0  0  0  0  0  0  0  0
   -4.4487    0.1107   -1.5045 O   0  0  0  0  0  0  0  0  0  0  0  0
   -5.9209   -0.3235    0.2703 C   0  0  0  0  0  0  0  0  0  0  0  0
   -7.1649   -0.4420   -0.3205 C   0  0  0  0  0  0  0  0  0  0  0  0
   -8.0883   -0.7032    0.7197 C   0  0  0  0  0  0  0  0  0  0  0  0
   -7.3569   -0.7289    1.8832 C   0  0  0  0  0  0  0  0  0  0  0  0
   -6.0429   -0.5002    1.6267 O   0  0  0  0  0  0  0  0  0  0  0  0
   -1.6323    0.4146   -0.7597 C   0  0  0  0  0  0  0  0  0  0  0  0
   -0.2504    0.6306   -0.8540 C   0  0  0  0  0  0  0  0  0  0  0  0
    1.8948    2.3505   -1.3481 H   0  0  0  0  0  0  0  0  0  0  0  0
    4.0718    2.0995   -2.2798 H   0  0  0  0  0  0  0  0  0  0  0  0
    4.5751   -0.7321   -2.7383 H   0  0  0  0  0  0  0  0  0  0  0  0
    6.3517   -2.3111   -2.0867 H   0  0  0  0  0  0  0  0  0  0  0  0
    7.1173    0.0131    1.4629 H   0  0  0  0  0  0  0  0  0  0  0  0
    5.3382    1.5900    0.8152 H   0  0  0  0  0  0  0  0  0  0  0  0
    0.5458    0.4008    2.4460 H   0  0  0  0  0  0  0  0  0  0  0  0
   -1.8714    0.0247    2.6113 H   0  0  0  0  0  0  0  0  0  0  0  0
   -3.9387   -0.1796    1.6064 H   0  0  0  0  0  0  0  0  0  0  0  0
   -7.3665   -0.3488   -1.3794 H   0  0  0  0  0  0  0  0  0  0  0  0
   -9.1553   -0.8545    0.6323 H   0  0  0  0  0  0  0  0  0  0  0  0
   -7.6107   -0.8891    2.9223 H   0  0  0  0  0  0  0  0  0  0  0  0
   -2.2061    0.4105   -1.6818 H   0  0  0  0  0  0  0  0  0  0  0  0
    0.1812    0.7630   -1.8423 H   0  0  0  0  0  0  0  0  0  0  0  0
  1  2  2  0
  2  3  1  0
  3  4  2  3
  4  5  1  0
  5  6  2  0
  6  7  1  0
  7  8  2  0
  8  9  1  0
  8 10  1  0
 10 11  2  0
  2 12  1  0
 12 13  2  0
 13 14  1  0
 14 15  2  0
 15 16  1  0
 16 17  1  0
 17 18  2  0
 17 19  1  0
 19 20  2  0
 20 21  1  0
 21 22  2  0
 22 23  1  0
 15 24  1  0
 24 25  2  0
 11  5  1  0
 25 12  1  0
 23 19  1  0
  3 26  1  0
  4 27  1  0
  6 28  1  0
  7 29  1  0
 10 30  1  0
 11 31  1  0
 13 32  1  0
 14 33  1  0
 16 34  1  0
 20 35  1  0
 21 36  1  0
 22 37  1  0
 24 38  1  0
 25 39  1  0
M  END
$$$$
