
     RDKit          3D

 51 54  0  0  0  0  0  0  0  0999 V2000
    2.5223   -0.1836   -0.9306 O   0  0  0  0  0  0  0  0  0  0  0  0
    3.0466   -0.5148    0.1318 C   0  0  0  0  0  0  0  0  0  0  0  0
    2.5826   -1.7660    0.8892 C   0  0  0  0  0  0  0  0  0  0  0  0
    1.2070   -2.0658    0.5528 N   0  0  0  0  0  0  0  0  0  0  0  0
    0.1829   -1.6847    1.3905 C   0  0  0  0  0  0  0  0  0  0  0  0
    0.3116   -1.3061    2.5429 O   0  0  0  0  0  0  0  0  0  0  0  0
   -1.1892   -1.7468    0.7269 C   0  0  0  0  0  0  0  0  0  0  0  0
   -1.2518   -1.2356   -0.4672 N   0  0  0  0  0  0  0  0  0  0  0  0
   -2.4579   -1.2384   -1.1301 N   0  0  0  0  0  0  0  0  0  0  0  0
   -2.4888   -0.5391   -2.4141 C   0  0  0  0  0  0  0  0  0  0  0  0
   -2.6986    0.9487   -2.2408 C   0  0  0  0  0  0  0  0  0  0  0  0
   -3.9932    1.4879   -2.2290 C   0  0  0  0  0  0  0  0  0  0  0  0
   -4.1872    2.8569   -2.0408 C   0  0  0  0  0  0  0  0  0  0  0  0
   -3.0913    3.6975   -1.8553 C   0  0  0  0  0  0  0  0  0  0  0  0
   -1.8005    3.1709   -1.8525 C   0  0  0  0  0  0  0  0  0  0  0  0
   -1.6036    1.8044   -2.0427 C   0  0  0  0  0  0  0  0  0  0  0  0
   -3.6370   -1.7623   -0.6066 C   0  0  0  0  0  0  0  0  0  0  0  0
   -4.7183   -1.7545   -1.1900 O   0  0  0  0  0  0  0  0  0  0  0  0
   -3.5455   -2.3717    0.7337 C   0  0  0  0  0  0  0  0  0  0  0  0
   -4.6791   -2.9533    1.3179 C   0  0  0  0  0  0  0  0  0  0  0  0
   -4.5906   -3.5382    2.5807 C   0  0  0  0  0  0  0  0  0  0  0  0
   -3.3727   -3.5452    3.2585 C   0  0  0  0  0  0  0  0  0  0  0  0
   -2.2410   -2.9660    2.6766 C   0  0  0  0  0  0  0  0  0  0  0  0
   -2.3303   -2.3705    1.4120 C   0  0  0  0  0  0  0  0  0  0  0  0
    4.1279    0.1051    0.7323 N   0  0  0  0  0  0  0  0  0  0  0  0
    4.8518    1.2231    0.2568 C   0  0  0  0  0  0  0  0  0  0  0  0
    4.5526    1.9187   -0.9192 C   0  0  0  0  0  0  0  0  0  0  0  0
    5.3447    3.0035   -1.3198 C   0  0  0  0  0  0  0  0  0  0  0  0
    6.4373    3.3876   -0.5472 C   0  0  0  0  0  0  0  0  0  0  0  0
    7.1905    4.4220   -0.9454 F   0  0  0  0  0  0  0  0  0  0  0  0
    6.7434    2.7087    0.6246 C   0  0  0  0  0  0  0  0  0  0  0  0
    7.7980    3.0774    1.3644 F   0  0  0  0  0  0  0  0  0  0  0  0
    5.9530    1.6372    1.0211 C   0  0  0  0  0  0  0  0  0  0  0  0
    6.2545    0.9718    2.1483 F   0  0  0  0  0  0  0  0  0  0  0  0
    2.6971   -1.6303    1.9692 H   0  0  0  0  0  0  0  0  0  0  0  0
    3.1960   -2.6085    0.5581 H   0  0  0  0  0  0  0  0  0  0  0  0
    0.9676   -2.0404   -0.4377 H   0  0  0  0  0  0  0  0  0  0  0  0
   -3.2819   -0.9565   -3.0466 H   0  0  0  0  0  0  0  0  0  0  0  0
   -1.5442   -0.7306   -2.9385 H   0  0  0  0  0  0  0  0  0  0  0  0
   -4.8583    0.8384   -2.3556 H   0  0  0  0  0  0  0  0  0  0  0  0
   -5.1951    3.2648   -2.0320 H   0  0  0  0  0  0  0  0  0  0  0  0
   -3.2438    4.7636   -1.7052 H   0  0  0  0  0  0  0  0  0  0  0  0
   -0.9463    3.8236   -1.6957 H   0  0  0  0  0  0  0  0  0  0  0  0
   -0.5923    1.4012   -2.0204 H   0  0  0  0  0  0  0  0  0  0  0  0
   -5.6315   -2.9506    0.7908 H   0  0  0  0  0  0  0  0  0  0  0  0
   -5.4714   -3.9862    3.0359 H   0  0  0  0  0  0  0  0  0  0  0  0
   -3.3027   -3.9988    4.2466 H   0  0  0  0  0  0  0  0  0  0  0  0
   -1.3085   -2.9880    3.2349 H   0  0  0  0  0  0  0  0  0  0  0  0
    4.4637   -0.2794    1.6137 H   0  0  0  0  0  0  0  0  0  0  0  0
    3.7094    1.6494   -1.5461 H   0  0  0  0  0  0  0  0  0  0  0  0
    5.1123    3.5493   -2.2308 H   0  0  0  0  0  0  0  0  0  0  0  0
  1  2  2  0
  2  3  1  0
  3  4  1  0
  4  5  1  0
  5  6  2  0
  5  7  1  0
  7  8  2  0
  8  9  1  0
  9 10  1  0
 10 11  1  0
 11 12  2  0
 12 13  1  0
 13 14  2  0
 14 15  1  0
 15 16  2  0
  9 17  1  0
 17 18  2  0
 17 19  1  0
 19 20  2  0
 20 21  1  0
 21 22  2  0
 22 23  1  0
 23 24  2  0
  2 25  1  0
 25 26  1  0
 26 27  2  0
 27 28  1  0
 28 29  2  0
 29 30  1  0
 29 31  1  0
 31 32  1  0
 31 33  2  0
 33 34  1  0
 24  7  1  0
 33 26  1  0
 16 11  1  0
 24 19  1  0
  3 35  1  0
  3 36  1  0
  4 37  1  0
 10 38  1  0
 10 39  1  0
 12 40  1  0
 13 41  1  0
 14 42  1  0
 15 43  1  0
 16 44  1  0
 20 45  1  0
 21 46  1  0
 22 47  1  0
 23 48  1  0
 25 49  1  0
 27 50  1  0
 28 51  1  0
M  END
$$$$
