
     RDKit          3D

 33 33  0  0  0  0  0  0  0  0999 V2000
   -4.6048    0.6048    1.0000 C   0  0  0  0  0  0  0  0  0  0  0  0
   -3.2430    0.3964    0.3328 C   0  0  0  0  0  0  0  0  0  0  0  0
   -3.3155   -0.7958   -0.6249 C   0  0  0  0  0  0  0  0  0  0  0  0
   -2.1576    0.2069    1.4105 C   0  0  0  0  0  0  0  0  0  0  0  0
   -0.7496    0.2070    0.8650 C   0  0  0  0  0  0  0  0  0  0  0  0
   -0.1608    1.3940    0.4152 C   0  0  0  0  0  0  0  0  0  0  0  0
    1.1393    1.3936   -0.0973 C   0  0  0  0  0  0  0  0  0  0  0  0
    1.8822    0.2059   -0.1707 C   0  0  0  0  0  0  0  0  0  0  0  0
    3.2993    0.2327   -0.7224 C   0  0  0  0  0  0  0  0  0  0  0  0
    4.3226   -0.2341    0.3133 C   0  0  0  0  0  0  0  0  0  0  0  0
    3.4671   -0.5792   -1.9955 C   0  0  0  0  0  0  0  0  0  0  0  0
    2.8771   -1.5937   -2.3285 O   0  0  0  0  0  0  0  0  0  0  0  0
    4.4405   -0.0832   -2.7924 O   0  0  0  0  0  0  0  0  0  0  0  0
    1.2876   -0.9806    0.2822 C   0  0  0  0  0  0  0  0  0  0  0  0
   -0.0129   -0.9802    0.7936 C   0  0  0  0  0  0  0  0  0  0  0  0
   -4.5862    1.4811    1.6565 H   0  0  0  0  0  0  0  0  0  0  0  0
   -4.8902   -0.2647    1.6020 H   0  0  0  0  0  0  0  0  0  0  0  0
   -5.3853    0.7683    0.2493 H   0  0  0  0  0  0  0  0  0  0  0  0
   -3.0203    1.2940   -0.2579 H   0  0  0  0  0  0  0  0  0  0  0  0
   -3.5037   -1.7293   -0.0838 H   0  0  0  0  0  0  0  0  0  0  0  0
   -2.3847   -0.9105   -1.1890 H   0  0  0  0  0  0  0  0  0  0  0  0
   -4.1226   -0.6593   -1.3527 H   0  0  0  0  0  0  0  0  0  0  0  0
   -2.2266    1.0135    2.1528 H   0  0  0  0  0  0  0  0  0  0  0  0
   -2.3420   -0.7213    1.9674 H   0  0  0  0  0  0  0  0  0  0  0  0
   -0.7129    2.3301    0.4607 H   0  0  0  0  0  0  0  0  0  0  0  0
    1.5656    2.3350   -0.4374 H   0  0  0  0  0  0  0  0  0  0  0  0
    3.5351    1.2738   -0.9828 H   0  0  0  0  0  0  0  0  0  0  0  0
    5.3427   -0.1168   -0.0693 H   0  0  0  0  0  0  0  0  0  0  0  0
    4.2403    0.3463    1.2388 H   0  0  0  0  0  0  0  0  0  0  0  0
    4.1939   -1.2927    0.5657 H   0  0  0  0  0  0  0  0  0  0  0  0
    4.4475   -0.6982   -3.5562 H   0  0  0  0  0  0  0  0  0  0  0  0
    1.8263   -1.9248    0.2275 H   0  0  0  0  0  0  0  0  0  0  0  0
   -0.4486   -1.9192    1.1276 H   0  0  0  0  0  0  0  0  0  0  0  0
  1  2  1  0
  2  3  1  0
  2  4  1  0
  4  5  1  0
  5  6  2  0
  6  7  1  0
  7  8  2  0
  8  9  1  0
  9 10  1  0
  9 11  1  0
 11 12  2  0
 11 13  1  0
  8 14  1  0
 14 15  2  0
 15  5  1  0
  1 16  1  0
  1 17  1  0
  1 18  1  0
  2 19  1  0
  3 20  1  0
  3 21  1  0
  3 22  1  0
  4 23  1  0
  4 24  1  0
  6 25  1  0
  7 26  1  0
  9 27  1  0
 10 28  1  0
 10 29  1  0
 10 30  1  0
 13 31  1  0
 14 32  1  0
 15 33  1  0
M  END
$$$$
