
     RDKit          3D

 50 52  0  0  0  0  0  0  0  0999 V2000
    6.7707    3.4321    1.0462 C   0  0  0  0  0  0  0  0  0  0  0  0
    6.5883    2.1008    0.5800 O   0  0  0  0  0  0  0  0  0  0  0  0
    5.3105    1.7288    0.2674 C   0  0  0  0  0  0  0  0  0  0  0  0
    4.1615    2.4929    0.4638 C   0  0  0  0  0  0  0  0  0  0  0  0
    2.9104    1.9869    0.0903 C   0  0  0  0  0  0  0  0  0  0  0  0
    2.7899    0.7170   -0.4862 C   0  0  0  0  0  0  0  0  0  0  0  0
    1.4934    0.2980   -0.8351 N   0  0  0  0  0  0  0  0  0  0  0  0
    1.1074   -0.8689   -1.4839 C   0  0  0  0  0  0  0  0  0  0  0  0
    1.8884   -1.7006   -1.9457 O   0  0  0  0  0  0  0  0  0  0  0  0
   -0.4418   -0.9578   -1.7075 C   0  0  0  0  0  0  0  0  0  0  0  0
   -1.2369   -0.7043   -0.4968 N   0  0  0  0  0  0  0  0  0  0  0  0
   -1.4932    0.5656   -0.0376 C   0  0  0  0  0  0  0  0  0  0  0  0
   -0.9125    1.5509   -0.4846 O   0  0  0  0  0  0  0  0  0  0  0  0
   -2.5062    0.7052    1.0435 C   0  0  0  0  0  0  0  0  0  0  0  0
   -3.1641    1.9326    1.1781 C   0  0  0  0  0  0  0  0  0  0  0  0
   -4.1163    2.1158    2.1838 C   0  0  0  0  0  0  0  0  0  0  0  0
   -4.4143    1.0780    3.0734 C   0  0  0  0  0  0  0  0  0  0  0  0
   -5.4346    1.2616    4.1583 C   0  0  0  0  0  0  0  0  0  0  0  0
   -3.7463   -0.1464    2.9433 C   0  0  0  0  0  0  0  0  0  0  0  0
   -2.7932   -0.3332    1.9374 C   0  0  0  0  0  0  0  0  0  0  0  0
   -0.8963   -2.2867   -2.2995 C   0  0  0  0  0  0  0  0  0  0  0  0
   -1.6957   -2.3052   -3.4531 C   0  0  0  0  0  0  0  0  0  0  0  0
   -2.1645   -3.5132   -3.9733 C   0  0  0  0  0  0  0  0  0  0  0  0
   -1.8471   -4.7158   -3.3450 C   0  0  0  0  0  0  0  0  0  0  0  0
   -1.0594   -4.7132   -2.1965 C   0  0  0  0  0  0  0  0  0  0  0  0
   -0.5899   -3.5073   -1.6736 C   0  0  0  0  0  0  0  0  0  0  0  0
    3.9399   -0.0486   -0.6697 C   0  0  0  0  0  0  0  0  0  0  0  0
    5.1902    0.4570   -0.2934 C   0  0  0  0  0  0  0  0  0  0  0  0
    6.2809    3.5780    2.0144 H   0  0  0  0  0  0  0  0  0  0  0  0
    7.8439    3.5927    1.1879 H   0  0  0  0  0  0  0  0  0  0  0  0
    6.4202    4.1631    0.3094 H   0  0  0  0  0  0  0  0  0  0  0  0
    4.1983    3.4842    0.9032 H   0  0  0  0  0  0  0  0  0  0  0  0
    2.0289    2.6040    0.2524 H   0  0  0  0  0  0  0  0  0  0  0  0
    0.7434    0.9627   -0.6424 H   0  0  0  0  0  0  0  0  0  0  0  0
   -0.6725   -0.1569   -2.4241 H   0  0  0  0  0  0  0  0  0  0  0  0
   -1.8801   -1.4415   -0.2397 H   0  0  0  0  0  0  0  0  0  0  0  0
   -2.9381    2.7524    0.5001 H   0  0  0  0  0  0  0  0  0  0  0  0
   -4.6175    3.0772    2.2695 H   0  0  0  0  0  0  0  0  0  0  0  0
   -4.9850    1.0644    5.1372 H   0  0  0  0  0  0  0  0  0  0  0  0
   -6.2749    0.5784    4.0025 H   0  0  0  0  0  0  0  0  0  0  0  0
   -5.8283    2.2841    4.1717 H   0  0  0  0  0  0  0  0  0  0  0  0
   -3.9576   -0.9586    3.6363 H   0  0  0  0  0  0  0  0  0  0  0  0
   -2.2688   -1.2832    1.8903 H   0  0  0  0  0  0  0  0  0  0  0  0
   -1.9595   -1.3776   -3.9575 H   0  0  0  0  0  0  0  0  0  0  0  0
   -2.7764   -3.5169   -4.8715 H   0  0  0  0  0  0  0  0  0  0  0  0
   -2.2078   -5.6559   -3.7544 H   0  0  0  0  0  0  0  0  0  0  0  0
   -0.8034   -5.6517   -1.7112 H   0  0  0  0  0  0  0  0  0  0  0  0
    0.0333   -3.5260   -0.7815 H   0  0  0  0  0  0  0  0  0  0  0  0
    3.9038   -1.0447   -1.1009 H   0  0  0  0  0  0  0  0  0  0  0  0
    6.0788   -0.1502   -0.4471 H   0  0  0  0  0  0  0  0  0  0  0  0
  1  2  1  0
  2  3  1  0
  3  4  2  0
  4  5  1  0
  5  6  2  0
  6  7  1  0
  7  8  1  0
  8  9  2  0
  8 10  1  0
 10 11  1  0
 11 12  1  0
 12 13  2  0
 12 14  1  0
 14 15  2  0
 15 16  1  0
 16 17  2  0
 17 18  1  0
 17 19  1  0
 19 20  2  0
 10 21  1  0
 21 22  2  0
 22 23  1  0
 23 24  2  0
 24 25  1  0
 25 26  2  0
  6 27  1  0
 27 28  2  0
 28  3  1  0
 20 14  1  0
 26 21  1  0
  1 29  1  0
  1 30  1  0
  1 31  1  0
  4 32  1  0
  5 33  1  0
  7 34  1  0
 10 35  1  0
 11 36  1  0
 15 37  1  0
 16 38  1  0
 18 39  1  0
 18 40  1  0
 18 41  1  0
 19 42  1  0
 20 43  1  0
 22 44  1  0
 23 45  1  0
 24 46  1  0
 25 47  1  0
 26 48  1  0
 27 49  1  0
 28 50  1  0
M  END
$$$$
