
     RDKit          3D

 39 40  0  0  0  0  0  0  0  0999 V2000
    5.7484   -0.9949    0.7452 C   0  0  0  0  0  0  0  0  0  0  0  0
    5.7769   -0.2264   -0.5703 C   0  0  0  0  0  0  0  0  0  0  0  0
    4.7946    0.9567   -0.5840 C   0  0  0  0  0  0  0  0  0  0  0  0
    5.0702    1.8504   -1.7960 C   0  0  0  0  0  0  0  0  0  0  0  0
    3.3296    0.5003   -0.6236 C   0  0  0  0  0  0  0  0  0  0  0  0
    3.0188   -0.6418   -0.9418 O   0  0  0  0  0  0  0  0  0  0  0  0
    2.4644    1.5201   -0.2899 N   0  0  0  0  0  0  0  0  0  0  0  0
    1.0945    1.4598   -0.2410 C   0  0  0  0  0  0  0  0  0  0  0  0
    0.3661    2.4974    0.1083 N   0  0  0  0  0  0  0  0  0  0  0  0
   -0.9855    2.2177    0.0886 N   0  0  0  0  0  0  0  0  0  0  0  0
   -1.2238    0.9751   -0.2771 C   0  0  0  0  0  0  0  0  0  0  0  0
   -2.5824    0.3677   -0.3898 C   0  0  0  0  0  0  0  0  0  0  0  0
   -3.0858   -0.1040    0.9752 C   0  0  0  0  0  0  0  0  0  0  0  0
   -4.4597   -0.7191    0.8764 C   0  0  0  0  0  0  0  0  0  0  0  0
   -5.6046    0.0810    0.9878 C   0  0  0  0  0  0  0  0  0  0  0  0
   -6.8754   -0.4847    0.8746 C   0  0  0  0  0  0  0  0  0  0  0  0
   -7.0130   -1.8524    0.6453 C   0  0  0  0  0  0  0  0  0  0  0  0
   -5.8803   -2.6558    0.5282 C   0  0  0  0  0  0  0  0  0  0  0  0
   -4.6084   -2.0925    0.6410 C   0  0  0  0  0  0  0  0  0  0  0  0
    0.1922    0.0669   -0.6203 S   0  0  0  0  0  0  0  0  0  0  0  0
    6.4867   -1.8029    0.7239 H   0  0  0  0  0  0  0  0  0  0  0  0
    5.9915   -0.3382    1.5866 H   0  0  0  0  0  0  0  0  0  0  0  0
    4.7679   -1.4425    0.9317 H   0  0  0  0  0  0  0  0  0  0  0  0
    6.7981    0.1444   -0.7224 H   0  0  0  0  0  0  0  0  0  0  0  0
    5.5644   -0.9163   -1.3959 H   0  0  0  0  0  0  0  0  0  0  0  0
    4.9458    1.5480    0.3286 H   0  0  0  0  0  0  0  0  0  0  0  0
    4.4162    2.7287   -1.8035 H   0  0  0  0  0  0  0  0  0  0  0  0
    6.1050    2.2083   -1.7904 H   0  0  0  0  0  0  0  0  0  0  0  0
    4.9008    1.3071   -2.7324 H   0  0  0  0  0  0  0  0  0  0  0  0
    2.8312    2.4259   -0.0325 H   0  0  0  0  0  0  0  0  0  0  0  0
   -3.2683    1.1180   -0.8038 H   0  0  0  0  0  0  0  0  0  0  0  0
   -2.5752   -0.4655   -1.1039 H   0  0  0  0  0  0  0  0  0  0  0  0
   -3.1122    0.7333    1.6853 H   0  0  0  0  0  0  0  0  0  0  0  0
   -2.3913   -0.8352    1.4100 H   0  0  0  0  0  0  0  0  0  0  0  0
   -5.5138    1.1507    1.1648 H   0  0  0  0  0  0  0  0  0  0  0  0
   -7.7585    0.1424    0.9651 H   0  0  0  0  0  0  0  0  0  0  0  0
   -8.0030   -2.2921    0.5578 H   0  0  0  0  0  0  0  0  0  0  0  0
   -5.9876   -3.7224    0.3487 H   0  0  0  0  0  0  0  0  0  0  0  0
   -3.7347   -2.7334    0.5454 H   0  0  0  0  0  0  0  0  0  0  0  0
  1  2  1  0
  2  3  1  0
  3  4  1  0
  3  5  1  0
  5  6  2  0
  5  7  1  0
  7  8  1  0
  8  9  2  0
  9 10  1  0
 10 11  2  0
 11 12  1  0
 12 13  1  0
 13 14  1  0
 14 15  2  0
 15 16  1  0
 16 17  2  0
 17 18  1  0
 18 19  2  0
 11 20  1  0
 20  8  1  0
 19 14  1  0
  1 21  1  0
  1 22  1  0
  1 23  1  0
  2 24  1  0
  2 25  1  0
  3 26  1  0
  4 27  1  0
  4 28  1  0
  4 29  1  0
  7 30  1  0
 12 31  1  0
 12 32  1  0
 13 33  1  0
 13 34  1  0
 15 35  1  0
 16 36  1  0
 17 37  1  0
 18 38  1  0
 19 39  1  0
M  END
$$$$
