
     RDKit          3D

 53 54  0  0  0  0  0  0  0  0999 V2000
   -7.2483   -1.1338   -1.2640 C   0  0  0  0  0  0  0  0  0  0  0  0
   -5.7565   -1.3076   -1.0364 C   0  0  0  0  0  0  0  0  0  0  0  0
   -5.3888   -0.7574    0.2789 N   0  0  0  0  0  0  0  0  0  0  0  0
   -5.3118   -1.6977    1.4105 C   0  0  0  0  0  0  0  0  0  0  0  0
   -4.0958   -2.6042    1.3447 C   0  0  0  0  0  0  0  0  0  0  0  0
   -4.7361    0.7934    0.3902 S   0  0  0  0  0  6  0  0  0  0  0  0
   -5.2506    1.5878   -0.7053 O   0  0  0  0  0  0  0  0  0  0  0  0
   -4.8574    1.2428    1.7611 O   0  0  0  0  0  0  0  0  0  0  0  0
   -2.9998    0.5417    0.0698 C   0  0  0  0  0  0  0  0  0  0  0  0
   -2.5441    0.4606   -1.2495 C   0  0  0  0  0  0  0  0  0  0  0  0
   -1.1781    0.3039   -1.5036 C   0  0  0  0  0  0  0  0  0  0  0  0
   -0.2639    0.2448   -0.4411 C   0  0  0  0  0  0  0  0  0  0  0  0
    1.1992    0.0815   -0.6589 C   0  0  0  0  0  0  0  0  0  0  0  0
    2.0290    0.1487    0.2383 O   0  0  0  0  0  0  0  0  0  0  0  0
    1.4647   -0.1737   -1.9652 O   0  0  0  0  0  0  0  0  0  0  0  0
    2.8558   -0.2771   -2.2814 C   0  0  0  0  0  0  0  0  0  0  0  0
    3.6254    1.0140   -1.9894 C   0  0  0  0  0  0  0  0  0  0  0  0
    3.1262    2.1266   -2.1417 O   0  0  0  0  0  0  0  0  0  0  0  0
    4.9008    0.8231   -1.4910 N   0  0  0  0  0  0  0  0  0  0  0  0
    5.5883    1.9327   -0.8478 C   0  0  0  0  0  0  0  0  0  0  0  0
    5.0955    2.1487    0.5930 C   0  0  0  0  0  0  0  0  0  0  0  0
    5.6972    1.2182    1.5383 N   0  0  0  0  0  0  0  0  0  0  0  0
    5.3805   -0.1137    1.6690 C   0  0  0  0  0  0  0  0  0  0  0  0
    4.3905   -0.6922    0.9353 O   0  0  0  0  0  0  0  0  0  0  0  0
    6.1531   -0.7923    2.5215 C   0  0  0  0  0  0  0  0  0  0  0  0
    7.3537    0.2276    3.2434 S   0  0  0  0  0  0  0  0  0  0  0  0
    6.7963    1.6171    2.2950 C   0  0  0  0  0  0  0  0  0  0  0  0
    7.3353    2.7111    2.3207 O   0  0  0  0  0  0  0  0  0  0  0  0
   -0.7289    0.3602    0.8776 C   0  0  0  0  0  0  0  0  0  0  0  0
   -2.0936    0.5167    1.1346 C   0  0  0  0  0  0  0  0  0  0  0  0
   -7.8281   -1.6579   -0.4971 H   0  0  0  0  0  0  0  0  0  0  0  0
   -7.5341   -0.0774   -1.2343 H   0  0  0  0  0  0  0  0  0  0  0  0
   -7.5332   -1.5367   -2.2408 H   0  0  0  0  0  0  0  0  0  0  0  0
   -5.4996   -2.3694   -1.1007 H   0  0  0  0  0  0  0  0  0  0  0  0
   -5.2015   -0.8133   -1.8389 H   0  0  0  0  0  0  0  0  0  0  0  0
   -6.2218   -2.3095    1.4182 H   0  0  0  0  0  0  0  0  0  0  0  0
   -5.3151   -1.1552    2.3613 H   0  0  0  0  0  0  0  0  0  0  0  0
   -3.1650   -2.0392    1.4161 H   0  0  0  0  0  0  0  0  0  0  0  0
   -4.1148   -3.3135    2.1786 H   0  0  0  0  0  0  0  0  0  0  0  0
   -4.0645   -3.1827    0.4172 H   0  0  0  0  0  0  0  0  0  0  0  0
   -3.2393    0.5366   -2.0829 H   0  0  0  0  0  0  0  0  0  0  0  0
   -0.8398    0.2483   -2.5361 H   0  0  0  0  0  0  0  0  0  0  0  0
    3.2863   -1.1339   -1.7516 H   0  0  0  0  0  0  0  0  0  0  0  0
    2.9386   -0.4731   -3.3553 H   0  0  0  0  0  0  0  0  0  0  0  0
    5.1358   -0.1021   -1.1437 H   0  0  0  0  0  0  0  0  0  0  0  0
    6.6609    1.7142   -0.8728 H   0  0  0  0  0  0  0  0  0  0  0  0
    5.4080    2.8393   -1.4357 H   0  0  0  0  0  0  0  0  0  0  0  0
    5.3670    3.1669    0.8955 H   0  0  0  0  0  0  0  0  0  0  0  0
    4.0054    2.0780    0.6712 H   0  0  0  0  0  0  0  0  0  0  0  0
    3.6209   -0.0808    0.9019 H   0  0  0  0  0  0  0  0  0  0  0  0
    6.0648   -1.8474    2.7380 H   0  0  0  0  0  0  0  0  0  0  0  0
   -0.0301    0.3374    1.7122 H   0  0  0  0  0  0  0  0  0  0  0  0
   -2.4387    0.6199    2.1618 H   0  0  0  0  0  0  0  0  0  0  0  0
  1  2  1  0
  2  3  1  0
  3  4  1  0
  4  5  1  0
  3  6  1  0
  6  7  2  0
  6  8  2  0
  6  9  1  0
  9 10  2  0
 10 11  1  0
 11 12  2  0
 12 13  1  0
 13 14  2  0
 13 15  1  0
 15 16  1  0
 16 17  1  0
 17 18  2  0
 17 19  1  0
 19 20  1  0
 20 21  1  0
 21 22  1  0
 22 23  1  0
 23 24  1  0
 23 25  2  0
 25 26  1  0
 26 27  1  0
 27 28  2  0
 12 29  1  0
 29 30  2  0
 30  9  1  0
 27 22  1  0
  1 31  1  0
  1 32  1  0
  1 33  1  0
  2 34  1  0
  2 35  1  0
  4 36  1  0
  4 37  1  0
  5 38  1  0
  5 39  1  0
  5 40  1  0
 10 41  1  0
 11 42  1  0
 16 43  1  0
 16 44  1  0
 19 45  1  0
 20 46  1  0
 20 47  1  0
 21 48  1  0
 21 49  1  0
 24 50  1  0
 25 51  1  0
 29 52  1  0
 30 53  1  0
M  END
$$$$
