
     RDKit          3D

 37 38  0  0  0  0  0  0  0  0999 V2000
   -5.3961   -0.5524   -2.6323 C   0  0  0  0  0  0  0  0  0  0  0  0
   -5.0211   -0.4623   -1.2216 N   0  0  0  0  0  0  0  0  0  0  0  0
   -6.0789   -0.0143   -0.3165 C   0  0  0  0  0  0  0  0  0  0  0  0
   -3.6850   -0.2293   -0.8826 C   0  0  0  0  0  0  0  0  0  0  0  0
   -2.6385   -0.3983   -1.8054 C   0  0  0  0  0  0  0  0  0  0  0  0
   -1.2920   -0.1896   -1.4651 C   0  0  0  0  0  0  0  0  0  0  0  0
   -0.9353    0.1816   -0.1697 C   0  0  0  0  0  0  0  0  0  0  0  0
    0.4568    0.4334    0.2268 C   0  0  0  0  0  0  0  0  0  0  0  0
    1.4848   -0.3376   -0.1640 C   0  0  0  0  0  0  0  0  0  0  0  0
    2.8794   -0.1051    0.2286 C   0  0  0  0  0  0  0  0  0  0  0  0
    3.8949   -0.3678   -0.6893 C   0  0  0  0  0  0  0  0  0  0  0  0
    5.2232   -0.1785   -0.3240 C   0  0  0  0  0  0  0  0  0  0  0  0
    5.5410    0.2514    0.9172 N   0  0  0  0  0  4  0  0  0  0  0  0
    6.9552    0.4339    1.2855 C   0  0  0  0  0  0  0  0  0  0  0  0
    4.5758    0.4885    1.8329 C   0  0  0  0  0  0  0  0  0  0  0  0
    3.2346    0.3145    1.5099 C   0  0  0  0  0  0  0  0  0  0  0  0
   -1.9532    0.3620    0.7651 C   0  0  0  0  0  0  0  0  0  0  0  0
   -3.2959    0.1489    0.4137 C   0  0  0  0  0  0  0  0  0  0  0  0
   -4.8995   -1.3975   -3.1209 H   0  0  0  0  0  0  0  0  0  0  0  0
   -5.1538    0.3748   -3.1633 H   0  0  0  0  0  0  0  0  0  0  0  0
   -6.4714   -0.7283   -2.7491 H   0  0  0  0  0  0  0  0  0  0  0  0
   -6.0039   -0.5106    0.6570 H   0  0  0  0  0  0  0  0  0  0  0  0
   -6.0453    1.0722   -0.1802 H   0  0  0  0  0  0  0  0  0  0  0  0
   -7.0712   -0.2681   -0.7063 H   0  0  0  0  0  0  0  0  0  0  0  0
   -2.8423   -0.7008   -2.8282 H   0  0  0  0  0  0  0  0  0  0  0  0
   -0.5392   -0.3182   -2.2379 H   0  0  0  0  0  0  0  0  0  0  0  0
    0.5994    1.2930    0.8765 H   0  0  0  0  0  0  0  0  0  0  0  0
    1.3089   -1.1934   -0.8144 H   0  0  0  0  0  0  0  0  0  0  0  0
    3.6600   -0.7131   -1.6947 H   0  0  0  0  0  0  0  0  0  0  0  0
    6.0377   -0.3714   -1.0166 H   0  0  0  0  0  0  0  0  0  0  0  0
    7.3135   -0.5164    1.6888 H   0  0  0  0  0  0  0  0  0  0  0  0
    7.0311    1.2282    2.0326 H   0  0  0  0  0  0  0  0  0  0  0  0
    7.5232    0.7191    0.3962 H   0  0  0  0  0  0  0  0  0  0  0  0
    4.8860    0.8105    2.8230 H   0  0  0  0  0  0  0  0  0  0  0  0
    2.4765    0.4959    2.2693 H   0  0  0  0  0  0  0  0  0  0  0  0
   -1.7252    0.6567    1.7865 H   0  0  0  0  0  0  0  0  0  0  0  0
   -4.0337    0.2883    1.1983 H   0  0  0  0  0  0  0  0  0  0  0  0
  1  2  1  0
  2  3  1  0
  2  4  1  0
  4  5  2  0
  5  6  1  0
  6  7  2  0
  7  8  1  0
  8  9  2  3
  9 10  1  0
 10 11  2  0
 11 12  1  0
 12 13  2  0
 13 14  1  0
 13 15  1  0
 15 16  2  0
  7 17  1  0
 17 18  2  0
 18  4  1  0
 16 10  1  0
  1 19  1  0
  1 20  1  0
  1 21  1  0
  3 22  1  0
  3 23  1  0
  3 24  1  0
  5 25  1  0
  6 26  1  0
  8 27  1  0
  9 28  1  0
 11 29  1  0
 12 30  1  0
 14 31  1  0
 14 32  1  0
 14 33  1  0
 15 34  1  0
 16 35  1  0
 17 36  1  0
 18 37  1  0
M  CHG  1  13   1
M  END
$$$$
