
     RDKit          3D

 39 41  0  0  0  0  0  0  0  0999 V2000
    4.2147   -0.7213   -0.8333 C   0  0  0  0  0  0  0  0  0  0  0  0
    3.4857    0.4053   -0.2476 N   0  0  0  0  0  0  0  0  0  0  0  0
    4.4315    1.4467    0.1619 C   0  0  0  0  0  0  0  0  0  0  0  0
    2.6602   -0.0093    0.9054 C   0  0  0  0  0  0  0  0  0  0  0  0
    1.4440   -0.8922    0.5468 C   0  0  0  0  0  0  0  0  0  0  0  0
    0.4472   -0.1871   -0.3436 C   0  0  0  0  0  0  0  0  0  0  0  0
   -0.9027   -0.1571   -0.2551 C   0  0  0  0  0  0  0  0  0  0  0  0
   -1.6313    0.7929   -1.1436 C   0  0  0  0  0  0  0  0  0  0  0  0
   -1.3488    0.8989   -2.5149 C   0  0  0  0  0  0  0  0  0  0  0  0
   -2.0538    1.7970   -3.3187 C   0  0  0  0  0  0  0  0  0  0  0  0
   -3.0533    2.5925   -2.7651 C   0  0  0  0  0  0  0  0  0  0  0  0
   -3.3580    2.4853   -1.4074 C   0  0  0  0  0  0  0  0  0  0  0  0
   -2.6617    1.5813   -0.5943 C   0  0  0  0  0  0  0  0  0  0  0  0
   -3.1186    1.4747    1.1378 S   0  0  0  0  0  0  0  0  0  0  0  0
   -2.6803   -0.2262    1.4938 C   0  0  0  0  0  0  0  0  0  0  0  0
   -3.4053   -0.9022    2.4845 C   0  0  0  0  0  0  0  0  0  0  0  0
   -3.1415   -2.2453    2.7576 C   0  0  0  0  0  0  0  0  0  0  0  0
   -2.1619   -2.9168    2.0318 C   0  0  0  0  0  0  0  0  0  0  0  0
   -1.8553   -4.5803    2.3486 Cl  0  0  0  0  0  0  0  0  0  0  0  0
   -1.4286   -2.2545    1.0484 C   0  0  0  0  0  0  0  0  0  0  0  0
   -1.6542   -0.8928    0.7950 C   0  0  0  0  0  0  0  0  0  0  0  0
    3.5297   -1.4667   -1.2477 H   0  0  0  0  0  0  0  0  0  0  0  0
    4.8343   -0.3830   -1.6721 H   0  0  0  0  0  0  0  0  0  0  0  0
    4.8675   -1.2155   -0.1047 H   0  0  0  0  0  0  0  0  0  0  0  0
    3.8979    2.3224    0.5477 H   0  0  0  0  0  0  0  0  0  0  0  0
    5.0176    1.7942   -0.6960 H   0  0  0  0  0  0  0  0  0  0  0  0
    5.1247    1.0946    0.9350 H   0  0  0  0  0  0  0  0  0  0  0  0
    2.2719    0.8868    1.4081 H   0  0  0  0  0  0  0  0  0  0  0  0
    3.2785   -0.5370    1.6432 H   0  0  0  0  0  0  0  0  0  0  0  0
    1.7713   -1.8141    0.0548 H   0  0  0  0  0  0  0  0  0  0  0  0
    0.9832   -1.1860    1.4954 H   0  0  0  0  0  0  0  0  0  0  0  0
    0.9322    0.4171   -1.1116 H   0  0  0  0  0  0  0  0  0  0  0  0
   -0.5806    0.2775   -2.9700 H   0  0  0  0  0  0  0  0  0  0  0  0
   -1.8218    1.8733   -4.3782 H   0  0  0  0  0  0  0  0  0  0  0  0
   -3.6001    3.2938   -3.3900 H   0  0  0  0  0  0  0  0  0  0  0  0
   -4.1467    3.1069   -0.9904 H   0  0  0  0  0  0  0  0  0  0  0  0
   -4.1890   -0.3906    3.0393 H   0  0  0  0  0  0  0  0  0  0  0  0
   -3.7128   -2.7617    3.5245 H   0  0  0  0  0  0  0  0  0  0  0  0
   -0.6858   -2.8015    0.4737 H   0  0  0  0  0  0  0  0  0  0  0  0
  1  2  1  0
  2  3  1  0
  2  4  1  0
  4  5  1  0
  5  6  1  0
  6  7  2  3
  7  8  1  0
  8  9  2  0
  9 10  1  0
 10 11  2  0
 11 12  1  0
 12 13  2  0
 13 14  1  0
 14 15  1  0
 15 16  2  0
 16 17  1  0
 17 18  2  0
 18 19  1  0
 18 20  1  0
 20 21  2  0
 21  7  1  0
 13  8  1  0
 21 15  1  0
  1 22  1  0
  1 23  1  0
  1 24  1  0
  3 25  1  0
  3 26  1  0
  3 27  1  0
  4 28  1  0
  4 29  1  0
  5 30  1  0
  5 31  1  0
  6 32  1  0
  9 33  1  0
 10 34  1  0
 11 35  1  0
 12 36  1  0
 16 37  1  0
 17 38  1  0
 20 39  1  0
M  END
$$$$
