
     RDKit          3D

 61 66  0  0  0  0  0  0  0  0999 V2000
    7.8447    3.3162   -0.2219 C   0  0  0  0  0  0  0  0  0  0  0  0
    6.9360    3.1992   -1.2721 C   0  0  0  0  0  0  0  0  0  0  0  0
    6.0535    2.1185   -1.3165 C   0  0  0  0  0  0  0  0  0  0  0  0
    6.0752    1.1432   -0.3102 C   0  0  0  0  0  0  0  0  0  0  0  0
    5.1021   -0.0117   -0.3495 C   0  0  0  0  0  0  0  0  0  0  0  0
    3.7671    0.3527    0.3229 C   0  0  0  0  0  0  0  0  0  0  0  0
    2.7954   -0.7583    0.3332 N   0  0  0  0  0  0  0  0  0  0  0  0
    1.6526   -0.4192    1.2171 C   0  0  0  0  0  0  0  0  0  0  0  0
    0.5737   -1.5252    1.2545 C   0  0  0  0  0  0  0  0  0  0  0  0
    0.0647   -1.8362   -0.1057 N   0  0  0  0  0  0  0  0  0  0  0  0
   -1.0227   -1.1200   -0.5399 C   0  0  0  0  0  0  0  0  0  0  0  0
   -1.1165   -0.1825   -1.5550 C   0  0  0  0  0  0  0  0  0  0  0  0
   -2.3942    0.4159   -1.4836 C   0  0  0  0  0  0  0  0  0  0  0  0
   -3.0825   -0.1958   -0.4544 C   0  0  0  0  0  0  0  0  0  0  0  0
   -4.4049    0.0201    0.0924 C   0  0  0  0  0  0  0  0  0  0  0  0
   -5.2121    1.1975   -0.3156 C   0  0  0  0  0  0  0  0  0  0  0  0
   -6.5492    1.0032   -0.6809 C   0  0  0  0  0  0  0  0  0  0  0  0
   -7.3344    2.0942   -1.0549 C   0  0  0  0  0  0  0  0  0  0  0  0
   -6.7887    3.3798   -1.0516 C   0  0  0  0  0  0  0  0  0  0  0  0
   -5.4615    3.5774   -0.6679 C   0  0  0  0  0  0  0  0  0  0  0  0
   -4.6714    2.4880   -0.2947 C   0  0  0  0  0  0  0  0  0  0  0  0
   -4.9175   -0.8147    0.9472 N   0  0  0  0  0  0  0  0  0  0  0  0
   -4.1707   -1.9448    1.3354 C   0  0  0  0  0  0  0  0  0  0  0  0
   -4.7786   -2.8550    2.2045 C   0  0  0  0  0  0  0  0  0  0  0  0
   -4.1161   -4.0174    2.6003 C   0  0  0  0  0  0  0  0  0  0  0  0
   -2.8398   -4.2868    2.1156 C   0  0  0  0  0  0  0  0  0  0  0  0
   -2.2124   -3.3860    1.2520 C   0  0  0  0  0  0  0  0  0  0  0  0
   -2.8650   -2.2054    0.8854 C   0  0  0  0  0  0  0  0  0  0  0  0
   -2.3016   -1.2400    0.0133 N   0  0  0  0  0  0  0  0  0  0  0  0
    1.1681   -2.1310   -1.0430 C   0  0  0  0  0  0  0  0  0  0  0  0
    2.2718   -1.0460   -1.0242 C   0  0  0  0  0  0  0  0  0  0  0  0
    6.9888    1.2727    0.7443 C   0  0  0  0  0  0  0  0  0  0  0  0
    7.8712    2.3539    0.7856 C   0  0  0  0  0  0  0  0  0  0  0  0
    8.5316    4.1579   -0.1879 H   0  0  0  0  0  0  0  0  0  0  0  0
    6.9133    3.9496   -2.0570 H   0  0  0  0  0  0  0  0  0  0  0  0
    5.3493    2.0403   -2.1425 H   0  0  0  0  0  0  0  0  0  0  0  0
    4.9539   -0.2992   -1.3977 H   0  0  0  0  0  0  0  0  0  0  0  0
    5.5462   -0.8852    0.1449 H   0  0  0  0  0  0  0  0  0  0  0  0
    3.9893    0.6344    1.3613 H   0  0  0  0  0  0  0  0  0  0  0  0
    3.3321    1.2429   -0.1520 H   0  0  0  0  0  0  0  0  0  0  0  0
    1.1904    0.5232    0.8949 H   0  0  0  0  0  0  0  0  0  0  0  0
    2.0186   -0.2730    2.2406 H   0  0  0  0  0  0  0  0  0  0  0  0
   -0.2348   -1.2160    1.9275 H   0  0  0  0  0  0  0  0  0  0  0  0
    1.0047   -2.4399    1.6801 H   0  0  0  0  0  0  0  0  0  0  0  0
   -0.3234    0.1039   -2.2330 H   0  0  0  0  0  0  0  0  0  0  0  0
   -2.7584    1.2187   -2.1117 H   0  0  0  0  0  0  0  0  0  0  0  0
   -6.9770    0.0030   -0.6755 H   0  0  0  0  0  0  0  0  0  0  0  0
   -8.3724    1.9429   -1.3417 H   0  0  0  0  0  0  0  0  0  0  0  0
   -7.4039    4.2299   -1.3383 H   0  0  0  0  0  0  0  0  0  0  0  0
   -5.0474    4.5823   -0.6491 H   0  0  0  0  0  0  0  0  0  0  0  0
   -3.6482    2.6551    0.0285 H   0  0  0  0  0  0  0  0  0  0  0  0
   -5.7827   -2.6518    2.5700 H   0  0  0  0  0  0  0  0  0  0  0  0
   -4.6053   -4.7167    3.2743 H   0  0  0  0  0  0  0  0  0  0  0  0
   -2.3340   -5.2048    2.4021 H   0  0  0  0  0  0  0  0  0  0  0  0
   -1.2362   -3.6429    0.8622 H   0  0  0  0  0  0  0  0  0  0  0  0
    1.6107   -3.0915   -0.7498 H   0  0  0  0  0  0  0  0  0  0  0  0
    0.7919   -2.2682   -2.0647 H   0  0  0  0  0  0  0  0  0  0  0  0
    1.8845   -0.1258   -1.4773 H   0  0  0  0  0  0  0  0  0  0  0  0
    3.0832   -1.4043   -1.6663 H   0  0  0  0  0  0  0  0  0  0  0  0
    7.0198    0.5321    1.5397 H   0  0  0  0  0  0  0  0  0  0  0  0
    8.5790    2.4465    1.6051 H   0  0  0  0  0  0  0  0  0  0  0  0
  1  2  2  0
  2  3  1  0
  3  4  2  0
  4  5  1  0
  5  6  1  0
  6  7  1  0
  7  8  1  0
  8  9  1  0
  9 10  1  0
 10 11  1  0
 11 12  2  0
 12 13  1  0
 13 14  2  0
 14 15  1  0
 15 16  1  0
 16 17  2  0
 17 18  1  0
 18 19  2  0
 19 20  1  0
 20 21  2  0
 15 22  2  0
 22 23  1  0
 23 24  2  0
 24 25  1  0
 25 26  2  0
 26 27  1  0
 27 28  2  0
 28 29  1  0
 10 30  1  0
 30 31  1  0
  4 32  1  0
 32 33  2  0
 33  1  1  0
 31  7  1  0
 29 11  1  0
 29 14  1  0
 21 16  1  0
 28 23  1  0
  1 34  1  0
  2 35  1  0
  3 36  1  0
  5 37  1  0
  5 38  1  0
  6 39  1  0
  6 40  1  0
  8 41  1  0
  8 42  1  0
  9 43  1  0
  9 44  1  0
 12 45  1  0
 13 46  1  0
 17 47  1  0
 18 48  1  0
 19 49  1  0
 20 50  1  0
 21 51  1  0
 24 52  1  0
 25 53  1  0
 26 54  1  0
 27 55  1  0
 30 56  1  0
 30 57  1  0
 31 58  1  0
 31 59  1  0
 32 60  1  0
 33 61  1  0
M  END
$$$$
