
     RDKit          3D

 51 53  0  0  0  0  0  0  0  0999 V2000
    7.2572   -0.1797    2.4091 C   0  0  0  0  0  0  0  0  0  0  0  0
    7.0265    0.5819    1.2321 O   0  0  0  0  0  0  0  0  0  0  0  0
    6.0624    0.1216    0.3636 C   0  0  0  0  0  0  0  0  0  0  0  0
    5.5106   -1.1662    0.4147 C   0  0  0  0  0  0  0  0  0  0  0  0
    4.5392   -1.5594   -0.5108 C   0  0  0  0  0  0  0  0  0  0  0  0
    4.1124   -0.6732   -1.5083 C   0  0  0  0  0  0  0  0  0  0  0  0
    3.0578   -1.0825   -2.5054 C   0  0  0  0  0  0  0  0  0  0  0  0
    1.7182   -0.4121   -2.2336 C   0  0  0  0  0  0  0  0  0  0  0  0
    1.4621    0.6928   -2.7132 O   0  0  0  0  0  0  0  0  0  0  0  0
    0.8898   -1.1739   -1.4218 N   0  0  0  0  0  0  0  0  0  0  0  0
   -0.4075   -0.8502   -0.9778 C   0  0  0  0  0  0  0  0  0  0  0  0
   -1.0696   -1.8025   -0.1997 C   0  0  0  0  0  0  0  0  0  0  0  0
   -2.3624   -1.5637    0.2858 C   0  0  0  0  0  0  0  0  0  0  0  0
   -3.0114   -0.3610    0.0059 C   0  0  0  0  0  0  0  0  0  0  0  0
   -4.3092   -0.0386    0.4559 N   0  0  0  0  0  0  0  0  0  0  0  0
   -5.1268   -0.8003    1.2744 C   0  0  0  0  0  0  0  0  0  0  0  0
   -4.8410   -1.8634    1.8131 O   0  0  0  0  0  0  0  0  0  0  0  0
   -6.4779   -0.2224    1.5350 C   0  0  0  0  0  0  0  0  0  0  0  0
   -7.1644    0.5286    0.5678 C   0  0  0  0  0  0  0  0  0  0  0  0
   -8.4353    1.0400    0.8502 C   0  0  0  0  0  0  0  0  0  0  0  0
   -9.0227    0.7911    2.0904 C   0  0  0  0  0  0  0  0  0  0  0  0
  -10.7438    1.4797    2.4628 Br  0  0  0  0  0  0  0  0  0  0  0  0
   -8.3555    0.0312    3.0521 C   0  0  0  0  0  0  0  0  0  0  0  0
   -7.0850   -0.4791    2.7730 C   0  0  0  0  0  0  0  0  0  0  0  0
   -2.3471    0.5940   -0.7714 C   0  0  0  0  0  0  0  0  0  0  0  0
   -1.0563    0.3532   -1.2594 C   0  0  0  0  0  0  0  0  0  0  0  0
    4.6685    0.6190   -1.5630 C   0  0  0  0  0  0  0  0  0  0  0  0
    5.6378    1.0233   -0.6356 C   0  0  0  0  0  0  0  0  0  0  0  0
    6.2287    2.2619   -0.6269 O   0  0  0  0  0  0  0  0  0  0  0  0
    5.6798    3.2553   -1.4829 C   0  0  0  0  0  0  0  0  0  0  0  0
    6.3263   -0.3538    2.9627 H   0  0  0  0  0  0  0  0  0  0  0  0
    7.7573   -1.1235    2.1738 H   0  0  0  0  0  0  0  0  0  0  0  0
    7.9236    0.3965    3.0600 H   0  0  0  0  0  0  0  0  0  0  0  0
    5.8240   -1.8903    1.1609 H   0  0  0  0  0  0  0  0  0  0  0  0
    4.1293   -2.5678   -0.4442 H   0  0  0  0  0  0  0  0  0  0  0  0
    3.3784   -0.8132   -3.5197 H   0  0  0  0  0  0  0  0  0  0  0  0
    2.9366   -2.1755   -2.5201 H   0  0  0  0  0  0  0  0  0  0  0  0
    1.2524   -2.0662   -1.1074 H   0  0  0  0  0  0  0  0  0  0  0  0
   -0.5964   -2.7514    0.0512 H   0  0  0  0  0  0  0  0  0  0  0  0
   -2.8285   -2.3405    0.8875 H   0  0  0  0  0  0  0  0  0  0  0  0
   -4.6402    0.8820    0.1937 H   0  0  0  0  0  0  0  0  0  0  0  0
   -6.7435    0.6976   -0.4196 H   0  0  0  0  0  0  0  0  0  0  0  0
   -8.9637    1.6182    0.0941 H   0  0  0  0  0  0  0  0  0  0  0  0
   -8.8136   -0.1750    4.0156 H   0  0  0  0  0  0  0  0  0  0  0  0
   -6.5681   -1.0797    3.5229 H   0  0  0  0  0  0  0  0  0  0  0  0
   -2.8138    1.5494   -1.0067 H   0  0  0  0  0  0  0  0  0  0  0  0
   -0.5824    1.1386   -1.8451 H   0  0  0  0  0  0  0  0  0  0  0  0
    4.3243    1.2949   -2.3445 H   0  0  0  0  0  0  0  0  0  0  0  0
    4.6081    3.3964   -1.2964 H   0  0  0  0  0  0  0  0  0  0  0  0
    6.1809    4.2024   -1.2610 H   0  0  0  0  0  0  0  0  0  0  0  0
    5.8741    3.0152   -2.5348 H   0  0  0  0  0  0  0  0  0  0  0  0
  1  2  1  0
  2  3  1  0
  3  4  2  0
  4  5  1  0
  5  6  2  0
  6  7  1  0
  7  8  1  0
  8  9  2  0
  8 10  1  0
 10 11  1  0
 11 12  2  0
 12 13  1  0
 13 14  2  0
 14 15  1  0
 15 16  1  0
 16 17  2  0
 16 18  1  0
 18 19  2  0
 19 20  1  0
 20 21  2  0
 21 22  1  0
 21 23  1  0
 23 24  2  0
 14 25  1  0
 25 26  2  0
  6 27  1  0
 27 28  2  0
 28 29  1  0
 29 30  1  0
 28  3  1  0
 26 11  1  0
 24 18  1  0
  1 31  1  0
  1 32  1  0
  1 33  1  0
  4 34  1  0
  5 35  1  0
  7 36  1  0
  7 37  1  0
 10 38  1  0
 12 39  1  0
 13 40  1  0
 15 41  1  0
 19 42  1  0
 20 43  1  0
 23 44  1  0
 24 45  1  0
 25 46  1  0
 26 47  1  0
 27 48  1  0
 30 49  1  0
 30 50  1  0
 30 51  1  0
M  END
$$$$
