
     RDKit          3D

 39 41  0  0  0  0  0  0  0  0999 V2000
    5.0205    2.3256    0.3663 C   0  0  0  0  0  0  0  0  0  0  0  0
    4.6902    1.4114    1.5324 C   0  0  0  0  0  0  0  0  0  0  0  0
    4.1995    0.1192    1.0925 N   0  0  0  0  0  0  0  0  0  0  0  0
    4.9215   -1.0315    0.9816 C   0  0  0  0  0  0  0  0  0  0  0  0
    4.0411   -1.9871    0.5351 C   0  0  0  0  0  0  0  0  0  0  0  0
    2.7947   -1.3213    0.4033 C   0  0  0  0  0  0  0  0  0  0  0  0
    1.5150   -1.9045   -0.0466 C   0  0  0  0  0  0  0  0  0  0  0  0
    1.4393   -3.0874   -0.3569 O   0  0  0  0  0  0  0  0  0  0  0  0
    0.5070   -0.9594   -0.0548 N   0  0  0  0  0  0  0  0  0  0  0  0
   -0.8205   -1.1192   -0.4114 C   0  0  0  0  0  0  0  0  0  0  0  0
   -1.4139   -2.6442   -0.9305 S   0  0  0  0  0  0  0  0  0  0  0  0
   -2.9417   -2.0173   -1.1393 C   0  0  0  0  0  0  0  0  0  0  0  0
   -3.0450   -0.6905   -0.8325 C   0  0  0  0  0  0  0  0  0  0  0  0
   -1.8066   -0.1277   -0.4051 C   0  0  0  0  0  0  0  0  0  0  0  0
   -1.5513    1.2562   -0.0138 C   0  0  0  0  0  0  0  0  0  0  0  0
   -0.4549    1.6590    0.3609 O   0  0  0  0  0  0  0  0  0  0  0  0
   -2.6592    2.0483   -0.1137 O   0  0  0  0  0  0  0  0  0  0  0  0
   -2.4392    3.4079    0.2603 C   0  0  0  0  0  0  0  0  0  0  0  0
   -4.4354   -0.2084   -1.0453 C   0  0  0  0  0  0  0  0  0  0  0  0
   -5.2335   -1.5407   -1.2032 C   0  0  0  0  0  0  0  0  0  0  0  0
   -4.2030   -2.6398   -1.6003 C   0  0  0  0  0  0  0  0  0  0  0  0
    2.9046   -0.0221    0.7525 N   0  0  0  0  0  0  0  0  0  0  0  0
    5.7873    1.8816   -0.2774 H   0  0  0  0  0  0  0  0  0  0  0  0
    4.1359    2.5151   -0.2509 H   0  0  0  0  0  0  0  0  0  0  0  0
    5.3944    3.2871    0.7311 H   0  0  0  0  0  0  0  0  0  0  0  0
    3.9205    1.8572    2.1720 H   0  0  0  0  0  0  0  0  0  0  0  0
    5.5799    1.2391    2.1478 H   0  0  0  0  0  0  0  0  0  0  0  0
    5.9748   -1.0759    1.2206 H   0  0  0  0  0  0  0  0  0  0  0  0
    4.2483   -3.0278    0.3264 H   0  0  0  0  0  0  0  0  0  0  0  0
    0.8017   -0.0267    0.2466 H   0  0  0  0  0  0  0  0  0  0  0  0
   -1.6945    3.8707   -0.3949 H   0  0  0  0  0  0  0  0  0  0  0  0
   -2.1298    3.4729    1.3081 H   0  0  0  0  0  0  0  0  0  0  0  0
   -3.3833    3.9476    0.1450 H   0  0  0  0  0  0  0  0  0  0  0  0
   -4.8183    0.3758   -0.2041 H   0  0  0  0  0  0  0  0  0  0  0  0
   -4.4980    0.3864   -1.9625 H   0  0  0  0  0  0  0  0  0  0  0  0
   -5.6806   -1.8042   -0.2353 H   0  0  0  0  0  0  0  0  0  0  0  0
   -6.0491   -1.4532   -1.9277 H   0  0  0  0  0  0  0  0  0  0  0  0
   -4.4254   -3.5892   -1.1058 H   0  0  0  0  0  0  0  0  0  0  0  0
   -4.1930   -2.7828   -2.6857 H   0  0  0  0  0  0  0  0  0  0  0  0
  1  2  1  0
  2  3  1  0
  3  4  1  0
  4  5  2  0
  5  6  1  0
  6  7  1  0
  7  8  2  0
  7  9  1  0
  9 10  1  0
 10 11  1  0
 11 12  1  0
 12 13  2  0
 13 14  1  0
 14 15  1  0
 15 16  2  0
 15 17  1  0
 17 18  1  0
 13 19  1  0
 19 20  1  0
 20 21  1  0
  6 22  2  0
 22  3  1  0
 14 10  2  0
 21 12  1  0
  1 23  1  0
  1 24  1  0
  1 25  1  0
  2 26  1  0
  2 27  1  0
  4 28  1  0
  5 29  1  0
  9 30  1  0
 18 31  1  0
 18 32  1  0
 18 33  1  0
 19 34  1  0
 19 35  1  0
 20 36  1  0
 20 37  1  0
 21 38  1  0
 21 39  1  0
M  END
$$$$
