
     RDKit          3D

 56 61  0  0  0  0  0  0  0  0999 V2000
    5.4412   -0.2160    0.6747 C   0  0  0  0  0  0  0  0  0  0  0  0
    4.2032   -1.0214    0.4112 C   0  0  0  0  0  0  0  0  0  0  0  0
    4.1479   -2.3725    0.7610 C   0  0  0  0  0  0  0  0  0  0  0  0
    3.0124   -3.1246    0.4671 C   0  0  0  0  0  0  0  0  0  0  0  0
    1.9289   -2.5370   -0.1863 C   0  0  0  0  0  0  0  0  0  0  0  0
    1.9431   -1.1778   -0.5213 C   0  0  0  0  0  0  0  0  0  0  0  0
    3.1067   -0.4398   -0.2423 C   0  0  0  0  0  0  0  0  0  0  0  0
    0.7493   -0.5364   -1.2016 C   0  0  0  0  0  0  0  0  0  0  0  0
   -0.4601   -1.4653   -1.2274 C   0  0  0  0  0  0  0  0  0  0  0  0
   -0.0211   -2.9024   -1.4416 C   0  0  0  0  0  0  0  0  0  0  0  0
    0.8684   -3.3680   -0.4290 O   0  0  0  0  0  0  0  0  0  0  0  0
   -1.1348   -1.1918    0.1392 C   0  0  0  0  0  0  0  0  0  0  0  0
   -2.5434   -1.7526    0.2868 C   0  0  0  0  0  0  0  0  0  0  0  0
   -3.4663   -1.8117   -0.7695 C   0  0  0  0  0  0  0  0  0  0  0  0
   -4.7477   -2.3364   -0.5758 C   0  0  0  0  0  0  0  0  0  0  0  0
   -5.1293   -2.8104    0.6757 C   0  0  0  0  0  0  0  0  0  0  0  0
   -4.2301   -2.7595    1.7354 C   0  0  0  0  0  0  0  0  0  0  0  0
   -2.9503   -2.2356    1.5420 C   0  0  0  0  0  0  0  0  0  0  0  0
   -0.9442    0.3618    0.3153 C   0  0  0  0  0  0  0  0  0  0  0  0
   -2.1744    1.1501   -0.1722 C   0  0  0  0  0  0  0  0  0  0  0  0
   -0.6263    0.6917    1.7849 C   0  0  0  0  0  0  0  0  0  0  0  0
   -0.8797   -0.0788    2.7154 O   0  0  0  0  0  0  0  0  0  0  0  0
   -0.1941    1.9365    2.1397 N   0  0  0  0  0  0  0  0  0  0  0  0
    0.0929    3.0693    1.3667 C   0  0  0  0  0  0  0  0  0  0  0  0
    0.0262    4.2873    2.0701 C   0  0  0  0  0  0  0  0  0  0  0  0
    0.2318    5.4990    1.4193 C   0  0  0  0  0  0  0  0  0  0  0  0
    0.1357    6.6413    2.1122 F   0  0  0  0  0  0  0  0  0  0  0  0
    0.5232    5.5216    0.0683 C   0  0  0  0  0  0  0  0  0  0  0  0
    0.7159    6.6860   -0.5641 F   0  0  0  0  0  0  0  0  0  0  0  0
    0.6343    4.3316   -0.6375 C   0  0  0  0  0  0  0  0  0  0  0  0
    0.4315    3.0896    0.0030 C   0  0  0  0  0  0  0  0  0  0  0  0
    0.7566    1.8961   -0.8183 C   0  0  0  0  0  0  0  0  0  0  0  0
    1.5204    2.0566   -1.7709 O   0  0  0  0  0  0  0  0  0  0  0  0
    0.2552    0.6547   -0.4992 N   0  0  0  0  0  0  0  0  0  0  0  0
    6.1070   -0.2591   -0.1926 H   0  0  0  0  0  0  0  0  0  0  0  0
    5.1891    0.8301    0.8777 H   0  0  0  0  0  0  0  0  0  0  0  0
    5.9768   -0.5967    1.5509 H   0  0  0  0  0  0  0  0  0  0  0  0
    4.9887   -2.8499    1.2581 H   0  0  0  0  0  0  0  0  0  0  0  0
    2.9740   -4.1763    0.7384 H   0  0  0  0  0  0  0  0  0  0  0  0
    3.1705    0.6047   -0.5398 H   0  0  0  0  0  0  0  0  0  0  0  0
    1.0452   -0.2831   -2.2273 H   0  0  0  0  0  0  0  0  0  0  0  0
   -1.1133   -1.1553   -2.0516 H   0  0  0  0  0  0  0  0  0  0  0  0
    0.4634   -3.0225   -2.4195 H   0  0  0  0  0  0  0  0  0  0  0  0
   -0.8905   -3.5686   -1.4384 H   0  0  0  0  0  0  0  0  0  0  0  0
   -0.5285   -1.7006    0.9021 H   0  0  0  0  0  0  0  0  0  0  0  0
   -3.2184   -1.4449   -1.7613 H   0  0  0  0  0  0  0  0  0  0  0  0
   -5.4495   -2.3742   -1.4052 H   0  0  0  0  0  0  0  0  0  0  0  0
   -6.1250   -3.2193    0.8251 H   0  0  0  0  0  0  0  0  0  0  0  0
   -4.5200   -3.1290    2.7157 H   0  0  0  0  0  0  0  0  0  0  0  0
   -2.2659   -2.2124    2.3896 H   0  0  0  0  0  0  0  0  0  0  0  0
   -3.0586    0.9200    0.4323 H   0  0  0  0  0  0  0  0  0  0  0  0
   -2.0517    2.2334   -0.1063 H   0  0  0  0  0  0  0  0  0  0  0  0
   -2.3968    0.9295   -1.2218 H   0  0  0  0  0  0  0  0  0  0  0  0
   -0.2083    2.0418    3.1492 H   0  0  0  0  0  0  0  0  0  0  0  0
   -0.2163    4.3169    3.1297 H   0  0  0  0  0  0  0  0  0  0  0  0
    0.9054    4.3801   -1.6905 H   0  0  0  0  0  0  0  0  0  0  0  0
  1  2  1  0
  2  3  2  0
  3  4  1  0
  4  5  2  0
  5  6  1  0
  6  7  2  0
  6  8  1  0
  8  9  1  0
  9 10  1  0
 10 11  1  0
  9 12  1  0
 12 13  1  0
 13 14  2  0
 14 15  1  0
 15 16  2  0
 16 17  1  0
 17 18  2  0
 12 19  1  0
 19 20  1  0
 19 21  1  0
 21 22  2  0
 21 23  1  0
 23 24  1  0
 24 25  2  0
 25 26  1  0
 26 27  1  0
 26 28  2  0
 28 29  1  0
 28 30  1  0
 30 31  2  0
 31 32  1  0
 32 33  2  0
 32 34  1  0
  7  2  1  0
 34  8  1  0
 11  5  1  0
 18 13  1  0
 34 19  1  0
 31 24  1  0
  1 35  1  0
  1 36  1  0
  1 37  1  0
  3 38  1  0
  4 39  1  0
  7 40  1  0
  8 41  1  0
  9 42  1  0
 10 43  1  0
 10 44  1  0
 12 45  1  0
 14 46  1  0
 15 47  1  0
 16 48  1  0
 17 49  1  0
 18 50  1  0
 20 51  1  0
 20 52  1  0
 20 53  1  0
 23 54  1  0
 25 55  1  0
 30 56  1  0
M  END
$$$$
