
     RDKit          3D

 56 59  0  0  0  0  0  0  0  0999 V2000
   -6.7112    1.6500    0.4983 C   0  0  0  0  0  0  0  0  0  0  0  0
   -5.9343    2.9545    0.5838 C   0  0  0  0  0  0  0  0  0  0  0  0
   -4.3218    2.7260    1.3998 S   0  0  0  0  0  0  0  0  0  0  0  0
   -3.4164    1.8595    0.1311 C   0  0  0  0  0  0  0  0  0  0  0  0
   -3.2149    2.4177   -1.1242 C   0  0  0  0  0  0  0  0  0  0  0  0
   -2.4821    1.7190   -2.0815 C   0  0  0  0  0  0  0  0  0  0  0  0
   -1.9279    0.4611   -1.7910 C   0  0  0  0  0  0  0  0  0  0  0  0
   -2.0866   -0.1122   -0.5156 C   0  0  0  0  0  0  0  0  0  0  0  0
   -2.8534    0.6097    0.4232 C   0  0  0  0  0  0  0  0  0  0  0  0
   -1.5305   -1.3817   -0.1889 N   0  0  0  0  0  0  0  0  0  0  0  0
   -0.9525   -1.5012    1.1753 C   0  0  0  0  0  0  0  0  0  0  0  0
    0.2474   -0.5724    1.4187 C   0  0  0  0  0  0  0  0  0  0  0  0
    1.4551   -0.9141    0.5361 C   0  0  0  0  0  0  0  0  0  0  0  0
    2.6871   -0.2217    0.9585 N   0  0  0  0  0  0  0  0  0  0  0  0
    2.6067    1.2390    0.7291 C   0  0  0  0  0  0  0  0  0  0  0  0
    3.9340    1.9659    1.0534 C   0  0  0  0  0  0  0  0  0  0  0  0
    5.0778    1.4165    0.2998 N   0  0  0  0  0  0  0  0  0  0  0  0
    6.3195    2.0802    0.6848 C   0  0  0  0  0  0  0  0  0  0  0  0
    5.1619   -0.0352    0.5459 C   0  0  0  0  0  0  0  0  0  0  0  0
    3.8419   -0.7561    0.1985 C   0  0  0  0  0  0  0  0  0  0  0  0
   -1.0654   -2.3254   -1.1462 C   0  0  0  0  0  0  0  0  0  0  0  0
   -0.9103   -3.6868   -0.8090 C   0  0  0  0  0  0  0  0  0  0  0  0
   -0.4297   -4.6274   -1.7255 C   0  0  0  0  0  0  0  0  0  0  0  0
   -0.1118   -4.2357   -3.0177 C   0  0  0  0  0  0  0  0  0  0  0  0
   -0.3007   -2.9104   -3.3946 C   0  0  0  0  0  0  0  0  0  0  0  0
   -0.7859   -1.9602   -2.4779 C   0  0  0  0  0  0  0  0  0  0  0  0
   -0.9728   -0.2983   -3.0863 S   0  0  0  0  0  0  0  0  0  0  0  0
   -7.6972    1.8355    0.0547 H   0  0  0  0  0  0  0  0  0  0  0  0
   -6.8715    1.2116    1.4914 H   0  0  0  0  0  0  0  0  0  0  0  0
   -6.2039    0.9119   -0.1323 H   0  0  0  0  0  0  0  0  0  0  0  0
   -6.5017    3.6724    1.1853 H   0  0  0  0  0  0  0  0  0  0  0  0
   -5.8097    3.3951   -0.4085 H   0  0  0  0  0  0  0  0  0  0  0  0
   -3.6089    3.3996   -1.3707 H   0  0  0  0  0  0  0  0  0  0  0  0
   -2.3338    2.1698   -3.0603 H   0  0  0  0  0  0  0  0  0  0  0  0
   -3.0437    0.1924    1.4038 H   0  0  0  0  0  0  0  0  0  0  0  0
   -1.7207   -1.2968    1.9292 H   0  0  0  0  0  0  0  0  0  0  0  0
   -0.6370   -2.5210    1.4123 H   0  0  0  0  0  0  0  0  0  0  0  0
    0.5355   -0.6711    2.4732 H   0  0  0  0  0  0  0  0  0  0  0  0
   -0.0481    0.4718    1.2731 H   0  0  0  0  0  0  0  0  0  0  0  0
    1.6256   -1.9966    0.6052 H   0  0  0  0  0  0  0  0  0  0  0  0
    1.2360   -0.6857   -0.5137 H   0  0  0  0  0  0  0  0  0  0  0  0
    1.8342    1.6744    1.3729 H   0  0  0  0  0  0  0  0  0  0  0  0
    2.3261    1.4524   -0.3118 H   0  0  0  0  0  0  0  0  0  0  0  0
    4.1190    1.9008    2.1348 H   0  0  0  0  0  0  0  0  0  0  0  0
    3.8115    3.0281    0.8074 H   0  0  0  0  0  0  0  0  0  0  0  0
    6.2693    3.1501    0.4618 H   0  0  0  0  0  0  0  0  0  0  0  0
    7.1598    1.6789    0.1121 H   0  0  0  0  0  0  0  0  0  0  0  0
    6.5432    1.9623    1.7491 H   0  0  0  0  0  0  0  0  0  0  0  0
    5.4142   -0.2367    1.5953 H   0  0  0  0  0  0  0  0  0  0  0  0
    5.9598   -0.4664   -0.0695 H   0  0  0  0  0  0  0  0  0  0  0  0
    3.9685   -1.8220    0.4295 H   0  0  0  0  0  0  0  0  0  0  0  0
    3.6625   -0.6746   -0.8830 H   0  0  0  0  0  0  0  0  0  0  0  0
   -1.1990   -4.0540    0.1738 H   0  0  0  0  0  0  0  0  0  0  0  0
   -0.3133   -5.6660   -1.4266 H   0  0  0  0  0  0  0  0  0  0  0  0
    0.2649   -4.9598   -3.7350 H   0  0  0  0  0  0  0  0  0  0  0  0
   -0.0644   -2.6167   -4.4151 H   0  0  0  0  0  0  0  0  0  0  0  0
  1  2  1  0
  2  3  1  0
  3  4  1  0
  4  5  2  0
  5  6  1  0
  6  7  2  0
  7  8  1  0
  8  9  2  0
  8 10  1  0
 10 11  1  0
 11 12  1  0
 12 13  1  0
 13 14  1  0
 14 15  1  0
 15 16  1  0
 16 17  1  0
 17 18  1  0
 17 19  1  0
 19 20  1  0
 10 21  1  0
 21 22  2  0
 22 23  1  0
 23 24  2  0
 24 25  1  0
 25 26  2  0
 26 27  1  0
  9  4  1  0
 20 14  1  0
 26 21  1  0
 27  7  1  0
  1 28  1  0
  1 29  1  0
  1 30  1  0
  2 31  1  0
  2 32  1  0
  5 33  1  0
  6 34  1  0
  9 35  1  0
 11 36  1  0
 11 37  1  0
 12 38  1  0
 12 39  1  0
 13 40  1  0
 13 41  1  0
 15 42  1  0
 15 43  1  0
 16 44  1  0
 16 45  1  0
 18 46  1  0
 18 47  1  0
 18 48  1  0
 19 49  1  0
 19 50  1  0
 20 51  1  0
 20 52  1  0
 22 53  1  0
 23 54  1  0
 24 55  1  0
 25 56  1  0
M  END
$$$$
