
     RDKit          3D

 67 72  0  0  0  0  0  0  0  0999 V2000
   -5.5155   -3.8443   -1.6545 C   0  0  0  0  0  0  0  0  0  0  0  0
   -4.5433   -3.2585   -0.6745 C   0  0  0  0  0  0  0  0  0  0  0  0
   -4.6239   -3.5430    0.7027 C   0  0  0  0  0  0  0  0  0  0  0  0
   -5.8585   -4.5796    1.3323 Cl  0  0  0  0  0  0  0  0  0  0  0  0
   -3.7061   -3.0018    1.6250 C   0  0  0  0  0  0  0  0  0  0  0  0
   -2.6784   -2.1595    1.2009 C   0  0  0  0  0  0  0  0  0  0  0  0
   -2.5936   -1.8677   -0.1503 C   0  0  0  0  0  0  0  0  0  0  0  0
   -3.5073   -2.4178   -1.0627 C   0  0  0  0  0  0  0  0  0  0  0  0
   -3.1921   -1.9913   -2.3521 N   0  0  0  0  0  0  0  0  0  0  0  0
   -2.0661   -1.1635   -2.3690 C   0  0  0  0  0  0  0  0  0  0  0  0
   -1.5691   -0.6886   -3.3786 O   0  0  0  0  0  0  0  0  0  0  0  0
   -1.6124   -1.0107   -0.8960 C   0  0  1  0  0  0  0  0  0  0  0  0
   -1.6991    0.3886   -0.3933 C   0  0  0  0  0  0  0  0  0  0  0  0
   -0.4090    0.9396   -0.3282 C   0  0  0  0  0  0  0  0  0  0  0  0
   -0.4836    2.1989    0.1906 C   0  0  0  0  0  0  0  0  0  0  0  0
    0.5215    2.9999    0.5402 O   0  0  0  0  0  0  0  0  0  0  0  0
   -1.8540    2.4959    0.3529 N   0  0  0  0  0  0  0  0  0  0  0  0
   -2.3937    3.7669    0.7306 C   0  0  0  0  0  0  0  0  0  0  0  0
   -1.7519    4.9498    0.3308 C   0  0  0  0  0  0  0  0  0  0  0  0
   -2.2705    6.1934    0.6998 C   0  0  0  0  0  0  0  0  0  0  0  0
   -3.4332    6.2668    1.4633 C   0  0  0  0  0  0  0  0  0  0  0  0
   -4.0842    5.0977    1.8515 C   0  0  0  0  0  0  0  0  0  0  0  0
   -3.5715    3.8507    1.4831 C   0  0  0  0  0  0  0  0  0  0  0  0
   -2.5923    1.3296    0.0552 C   0  0  0  0  0  0  0  0  0  0  0  0
   -3.9178    1.2726    0.1615 O   0  0  0  0  0  0  0  0  0  0  0  0
    0.5917   -0.0332   -0.8065 C   0  0  1  0  0  0  0  0  0  0  0  0
    1.9215   -0.1594   -0.0715 C   0  0  0  0  0  0  0  0  0  0  0  0
    2.6632   -1.3504   -0.5427 N   0  0  0  0  0  0  0  0  0  0  0  0
    4.0319   -1.4668   -0.3633 C   0  0  0  0  0  0  0  0  0  0  0  0
    4.6462   -2.5142   -0.5220 O   0  0  0  0  0  0  0  0  0  0  0  0
    4.6011   -0.2914    0.0053 O   0  0  0  0  0  0  0  0  0  0  0  0
    6.0277   -0.1886    0.2433 C   0  0  0  0  0  0  0  0  0  0  0  0
    6.4631   -1.0755    1.4149 C   0  0  0  0  0  0  0  0  0  0  0  0
    6.8291   -0.4837   -1.0292 C   0  0  0  0  0  0  0  0  0  0  0  0
    6.2502    1.2812    0.6326 C   0  0  0  0  0  0  0  0  0  0  0  0
    1.8905   -2.5923   -0.7085 C   0  0  0  0  0  0  0  0  0  0  0  0
    0.4842   -2.3933   -1.3286 C   0  0  0  0  0  0  0  0  0  0  0  0
   -0.1862   -1.3049   -0.6376 N   0  0  0  0  0  0  0  0  0  0  0  0
   -6.5403   -3.5617   -1.3903 H   0  0  0  0  0  0  0  0  0  0  0  0
   -5.3429   -3.4937   -2.6762 H   0  0  0  0  0  0  0  0  0  0  0  0
   -5.4299   -4.9361   -1.6665 H   0  0  0  0  0  0  0  0  0  0  0  0
   -3.7919   -3.2429    2.6829 H   0  0  0  0  0  0  0  0  0  0  0  0
   -1.9653   -1.7459    1.9088 H   0  0  0  0  0  0  0  0  0  0  0  0
   -3.6702   -2.2511   -3.2022 H   0  0  0  0  0  0  0  0  0  0  0  0
    0.1898    3.6534    1.1826 H   0  0  0  0  0  0  0  0  0  0  0  0
   -0.8774    4.9311   -0.3166 H   0  0  0  0  0  0  0  0  0  0  0  0
   -1.7759    7.1058    0.3755 H   0  0  0  0  0  0  0  0  0  0  0  0
   -3.8389    7.2348    1.7461 H   0  0  0  0  0  0  0  0  0  0  0  0
   -4.9947    5.1539    2.4430 H   0  0  0  0  0  0  0  0  0  0  0  0
   -4.0936    2.9606    1.8230 H   0  0  0  0  0  0  0  0  0  0  0  0
   -4.2062    0.3814   -0.1019 H   0  0  0  0  0  0  0  0  0  0  0  0
    0.7772    0.1533   -1.8743 H   0  0  0  0  0  0  0  0  0  0  0  0
    1.7776   -0.2737    1.0105 H   0  0  0  0  0  0  0  0  0  0  0  0
    2.5190    0.7454   -0.2257 H   0  0  0  0  0  0  0  0  0  0  0  0
    6.3959   -2.1397    1.1701 H   0  0  0  0  0  0  0  0  0  0  0  0
    7.4996   -0.8720    1.7048 H   0  0  0  0  0  0  0  0  0  0  0  0
    5.8187   -0.9125    2.2860 H   0  0  0  0  0  0  0  0  0  0  0  0
    6.7646   -1.5367   -1.3186 H   0  0  0  0  0  0  0  0  0  0  0  0
    6.4452    0.0984   -1.8746 H   0  0  0  0  0  0  0  0  0  0  0  0
    7.8900   -0.2459   -0.8956 H   0  0  0  0  0  0  0  0  0  0  0  0
    7.3044    1.4927    0.8407 H   0  0  0  0  0  0  0  0  0  0  0  0
    5.6627    1.5422    1.5208 H   0  0  0  0  0  0  0  0  0  0  0  0
    5.9140    1.9513   -0.1675 H   0  0  0  0  0  0  0  0  0  0  0  0
    2.4600   -3.3006   -1.3207 H   0  0  0  0  0  0  0  0  0  0  0  0
    1.7912   -3.0334    0.2918 H   0  0  0  0  0  0  0  0  0  0  0  0
    0.5864   -2.1822   -2.3998 H   0  0  0  0  0  0  0  0  0  0  0  0
   -0.0781   -3.3278   -1.2254 H   0  0  0  0  0  0  0  0  0  0  0  0
  1  2  1  0
  2  3  2  0
  3  4  1  0
  3  5  1  0
  5  6  2  0
  6  7  1  0
  7  8  2  0
  8  9  1  0
  9 10  1  0
 10 11  2  0
 10 12  1  0
 12 13  1  0
 13 14  1  0
 14 15  2  0
 15 16  1  0
 15 17  1  0
 17 18  1  0
 18 19  2  0
 19 20  1  0
 20 21  2  0
 21 22  1  0
 22 23  2  0
 17 24  1  0
 24 25  1  0
 14 26  1  0
 26 27  1  0
 27 28  1  0
 28 29  1  0
 29 30  2  0
 29 31  1  0
 31 32  1  0
 32 33  1  0
 32 34  1  0
 32 35  1  0
 28 36  1  0
 36 37  1  0
 37 38  1  0
  8  2  1  0
 12 38  1  6
 12  7  1  0
 24 13  2  0
 38 26  1  0
 23 18  1  0
  1 39  1  0
  1 40  1  0
  1 41  1  0
  5 42  1  0
  6 43  1  0
  9 44  1  0
 16 45  1  0
 19 46  1  0
 20 47  1  0
 21 48  1  0
 22 49  1  0
 23 50  1  0
 25 51  1  0
 26 52  1  6
 27 53  1  0
 27 54  1  0
 33 55  1  0
 33 56  1  0
 33 57  1  0
 34 58  1  0
 34 59  1  0
 34 60  1  0
 35 61  1  0
 35 62  1  0
 35 63  1  0
 36 64  1  0
 36 65  1  0
 37 66  1  0
 37 67  1  0
M  END
$$$$
