
     RDKit          3D

 31 32  0  0  0  0  0  0  0  0999 V2000
   -3.5296    1.2252   -1.4727 C   0  0  0  0  0  0  0  0  0  0  0  0
   -3.2688    0.5595   -0.1473 C   0  0  0  0  0  0  0  0  0  0  0  0
   -4.2179    0.3713    0.6179 O   0  0  0  0  0  0  0  0  0  0  0  0
   -1.8980    0.1451    0.2084 C   0  0  0  0  0  0  0  0  0  0  0  0
   -1.6060   -0.6843    1.2879 C   0  0  0  0  0  0  0  0  0  0  0  0
   -2.4971   -1.3250    2.2946 C   0  0  0  0  0  0  0  0  0  0  0  0
   -0.2527   -0.8795    1.3265 N   0  0  0  0  0  0  0  0  0  0  0  0
    0.3608   -0.2063    0.3019 C   0  0  0  0  0  0  0  0  0  0  0  0
    1.8074   -0.2782    0.1117 C   0  0  0  0  0  0  0  0  0  0  0  0
    2.3398   -0.7921   -1.0765 C   0  0  0  0  0  0  0  0  0  0  0  0
    3.7224   -0.8720   -1.2551 C   0  0  0  0  0  0  0  0  0  0  0  0
    4.5821   -0.4385   -0.2470 C   0  0  0  0  0  0  0  0  0  0  0  0
    4.0609    0.0751    0.9397 C   0  0  0  0  0  0  0  0  0  0  0  0
    2.6782    0.1541    1.1194 C   0  0  0  0  0  0  0  0  0  0  0  0
   -0.6291    0.4652   -0.4089 C   0  0  0  0  0  0  0  0  0  0  0  0
   -0.3840    1.3648   -1.5742 C   0  0  0  0  0  0  0  0  0  0  0  0
   -3.1515    2.2492   -1.4609 H   0  0  0  0  0  0  0  0  0  0  0  0
   -4.6091    1.2625   -1.6513 H   0  0  0  0  0  0  0  0  0  0  0  0
   -3.0818    0.6485   -2.2852 H   0  0  0  0  0  0  0  0  0  0  0  0
   -1.9360   -1.9800    2.9694 H   0  0  0  0  0  0  0  0  0  0  0  0
   -2.9940   -0.5637    2.9042 H   0  0  0  0  0  0  0  0  0  0  0  0
   -3.2607   -1.9333    1.7997 H   0  0  0  0  0  0  0  0  0  0  0  0
    0.2339   -1.4568    1.9997 H   0  0  0  0  0  0  0  0  0  0  0  0
    1.6785   -1.1398   -1.8666 H   0  0  0  0  0  0  0  0  0  0  0  0
    4.1274   -1.2735   -2.1803 H   0  0  0  0  0  0  0  0  0  0  0  0
    5.6583   -0.4992   -0.3869 H   0  0  0  0  0  0  0  0  0  0  0  0
    4.7306    0.4184    1.7239 H   0  0  0  0  0  0  0  0  0  0  0  0
    2.2854    0.5696    2.0443 H   0  0  0  0  0  0  0  0  0  0  0  0
    0.6799    1.5841   -1.7066 H   0  0  0  0  0  0  0  0  0  0  0  0
   -0.8847    2.3265   -1.4317 H   0  0  0  0  0  0  0  0  0  0  0  0
   -0.7445    0.9030   -2.4979 H   0  0  0  0  0  0  0  0  0  0  0  0
  1  2  1  0
  2  3  2  0
  2  4  1  0
  4  5  2  0
  5  6  1  0
  5  7  1  0
  7  8  1  0
  8  9  1  0
  9 10  2  0
 10 11  1  0
 11 12  2  0
 12 13  1  0
 13 14  2  0
  8 15  2  0
 15 16  1  0
 15  4  1  0
 14  9  1  0
  1 17  1  0
  1 18  1  0
  1 19  1  0
  6 20  1  0
  6 21  1  0
  6 22  1  0
  7 23  1  0
 10 24  1  0
 11 25  1  0
 12 26  1  0
 13 27  1  0
 14 28  1  0
 16 29  1  0
 16 30  1  0
 16 31  1  0
M  END
$$$$
