
     RDKit          3D

 46 48  0  0  0  0  0  0  0  0999 V2000
    3.3282    2.0879   -3.7179 C   0  0  0  0  0  0  0  0  0  0  0  0
    1.9139    2.1353   -3.1603 C   0  0  0  0  0  0  0  0  0  0  0  0
    1.7651    1.5795   -1.7146 N   0  0  0  0  0  4  0  0  0  0  0  0
    2.5470    2.4512   -0.7394 C   0  0  0  0  0  0  0  0  0  0  0  0
    2.2819    0.1450   -1.6610 C   0  0  0  0  0  0  0  0  0  0  0  0
    0.2353    1.6184   -1.4089 C   0  0  0  0  0  0  0  0  0  0  0  0
   -0.2020    1.5385    0.0653 C   0  0  0  0  0  0  0  0  0  0  0  0
    0.0306    0.2363    0.7855 C   0  0  0  0  0  0  0  0  0  0  0  0
   -0.8705   -0.7139    1.1292 C   0  0  0  0  0  0  0  0  0  0  0  0
   -2.3166   -0.6111    0.8039 C   0  0  0  0  0  0  0  0  0  0  0  0
   -2.7800   -0.4441   -0.5088 C   0  0  0  0  0  0  0  0  0  0  0  0
   -4.1488   -0.3544   -0.7711 C   0  0  0  0  0  0  0  0  0  0  0  0
   -5.0673   -0.4512    0.2714 C   0  0  0  0  0  0  0  0  0  0  0  0
   -4.6221   -0.6652    1.5758 C   0  0  0  0  0  0  0  0  0  0  0  0
   -3.2525   -0.7667    1.8465 C   0  0  0  0  0  0  0  0  0  0  0  0
   -2.7412   -1.1325    3.5268 S   0  0  0  0  0  0  0  0  0  0  0  0
   -1.2146   -2.0240    3.2224 C   0  0  0  0  0  0  0  0  0  0  0  0
   -0.8105   -2.9947    4.1474 C   0  0  0  0  0  0  0  0  0  0  0  0
    0.3651   -3.7196    3.9395 C   0  0  0  0  0  0  0  0  0  0  0  0
    1.1342   -3.4774    2.8045 C   0  0  0  0  0  0  0  0  0  0  0  0
    2.5779   -4.3738    2.5378 Cl  0  0  0  0  0  0  0  0  0  0  0  0
    0.7481   -2.5101    1.8769 C   0  0  0  0  0  0  0  0  0  0  0  0
   -0.4197   -1.7625    2.0870 C   0  0  0  0  0  0  0  0  0  0  0  0
    3.6971    1.0642   -3.8229 H   0  0  0  0  0  0  0  0  0  0  0  0
    4.0365    2.6593   -3.1135 H   0  0  0  0  0  0  0  0  0  0  0  0
    3.3342    2.5301   -4.7204 H   0  0  0  0  0  0  0  0  0  0  0  0
    1.2433    1.5454   -3.7962 H   0  0  0  0  0  0  0  0  0  0  0  0
    1.5572    3.1717   -3.1402 H   0  0  0  0  0  0  0  0  0  0  0  0
    3.6025    2.4443   -1.0201 H   0  0  0  0  0  0  0  0  0  0  0  0
    2.4540    2.0309    0.2648 H   0  0  0  0  0  0  0  0  0  0  0  0
    2.1409    3.4655   -0.7801 H   0  0  0  0  0  0  0  0  0  0  0  0
    2.1317   -0.2578   -0.6613 H   0  0  0  0  0  0  0  0  0  0  0  0
    3.3543    0.1465   -1.8716 H   0  0  0  0  0  0  0  0  0  0  0  0
    1.7408   -0.4485   -2.4031 H   0  0  0  0  0  0  0  0  0  0  0  0
   -0.1240    2.5779   -1.8013 H   0  0  0  0  0  0  0  0  0  0  0  0
   -0.2217    0.8216   -2.0059 H   0  0  0  0  0  0  0  0  0  0  0  0
   -1.2680    1.7931    0.1009 H   0  0  0  0  0  0  0  0  0  0  0  0
    0.2730    2.3388    0.6448 H   0  0  0  0  0  0  0  0  0  0  0  0
    1.0375    0.1468    1.1943 H   0  0  0  0  0  0  0  0  0  0  0  0
   -2.0888   -0.4115   -1.3431 H   0  0  0  0  0  0  0  0  0  0  0  0
   -4.5049   -0.2249   -1.7907 H   0  0  0  0  0  0  0  0  0  0  0  0
   -6.1341   -0.3864    0.0678 H   0  0  0  0  0  0  0  0  0  0  0  0
   -5.3529   -0.7718    2.3751 H   0  0  0  0  0  0  0  0  0  0  0  0
   -1.4107   -3.1991    5.0322 H   0  0  0  0  0  0  0  0  0  0  0  0
    0.6671   -4.4742    4.6622 H   0  0  0  0  0  0  0  0  0  0  0  0
    1.3536   -2.3529    0.9902 H   0  0  0  0  0  0  0  0  0  0  0  0
  1  2  1  0
  2  3  1  0
  3  4  1  0
  3  5  1  0
  3  6  1  0
  6  7  1  0
  7  8  1  0
  8  9  2  3
  9 10  1  0
 10 11  2  0
 11 12  1  0
 12 13  2  0
 13 14  1  0
 14 15  2  0
 15 16  1  0
 16 17  1  0
 17 18  2  0
 18 19  1  0
 19 20  2  0
 20 21  1  0
 20 22  1  0
 22 23  2  0
 23  9  1  0
 15 10  1  0
 23 17  1  0
  1 24  1  0
  1 25  1  0
  1 26  1  0
  2 27  1  0
  2 28  1  0
  4 29  1  0
  4 30  1  0
  4 31  1  0
  5 32  1  0
  5 33  1  0
  5 34  1  0
  6 35  1  0
  6 36  1  0
  7 37  1  0
  7 38  1  0
  8 39  1  0
 11 40  1  0
 12 41  1  0
 13 42  1  0
 14 43  1  0
 18 44  1  0
 19 45  1  0
 22 46  1  0
M  CHG  1   3   1
M  END
$$$$
