
     RDKit          3D

 58 59  0  0  0  0  0  0  0  0999 V2000
    9.4619    0.6619   -1.0783 C   0  0  0  0  0  0  0  0  0  0  0  0
    8.5380    0.9447   -2.2527 C   0  0  0  0  0  0  0  0  0  0  0  0
    7.3940   -0.0594   -2.3824 C   0  0  0  0  0  0  0  0  0  0  0  0
    6.4092   -0.0215   -1.2153 C   0  0  0  0  0  0  0  0  0  0  0  0
    5.3485   -0.9310   -1.5128 O   0  0  0  0  0  0  0  0  0  0  0  0
    4.3440   -1.0446   -0.5925 C   0  0  0  0  0  0  0  0  0  0  0  0
    4.2563   -0.3547    0.6179 C   0  0  0  0  0  0  0  0  0  0  0  0
    3.1663   -0.5649    1.4726 C   0  0  0  0  0  0  0  0  0  0  0  0
    2.1545   -1.4647    1.1160 C   0  0  0  0  0  0  0  0  0  0  0  0
    0.9800   -1.7174    1.9942 C   0  0  0  0  0  0  0  0  0  0  0  0
    0.4028   -2.7973    1.9635 O   0  0  0  0  0  0  0  0  0  0  0  0
    0.5766   -0.6642    2.7912 N   0  0  0  0  0  0  0  0  0  0  0  0
   -0.7001   -0.7374    3.4891 C   0  0  0  0  0  0  0  0  0  0  0  0
   -1.8593   -0.1238    2.7072 C   0  0  0  0  0  0  0  0  0  0  0  0
   -3.0389   -0.2431    3.0219 O   0  0  0  0  0  0  0  0  0  0  0  0
   -1.4196    0.6645    1.6806 O   0  0  0  0  0  0  0  0  0  0  0  0
   -2.4754    1.2591    0.9161 C   0  0  0  0  0  0  0  0  0  0  0  0
   -3.2235    0.2272    0.0681 C   0  0  0  0  0  0  0  0  0  0  0  0
   -2.6686   -0.8199   -0.2818 O   0  0  0  0  0  0  0  0  0  0  0  0
   -4.6642    0.4853   -0.2693 C   0  0  0  0  0  0  0  0  0  0  0  0
   -5.5110   -0.5411   -0.5126 C   0  0  0  0  0  0  0  0  0  0  0  0
   -5.0913   -1.8662   -0.5525 N   0  0  0  0  0  0  0  0  0  0  0  0
   -6.8562   -0.2710   -0.7507 N   0  0  0  0  0  0  0  0  0  0  0  0
   -7.7439   -1.3715   -1.1271 C   0  0  0  0  0  0  0  0  0  0  0  0
   -7.4177    1.0001   -0.6720 C   0  0  0  0  0  0  0  0  0  0  0  0
   -8.6127    1.2138   -0.8849 O   0  0  0  0  0  0  0  0  0  0  0  0
   -6.5472    2.0272   -0.3530 N   0  0  0  0  0  0  0  0  0  0  0  0
   -7.0860    3.3744   -0.3169 C   0  0  0  0  0  0  0  0  0  0  0  0
   -5.1824    1.8696   -0.3078 C   0  0  0  0  0  0  0  0  0  0  0  0
   -4.3951    2.8161   -0.3071 O   0  0  0  0  0  0  0  0  0  0  0  0
    2.2505   -2.1672   -0.0883 C   0  0  0  0  0  0  0  0  0  0  0  0
    3.3385   -1.9516   -0.9376 C   0  0  0  0  0  0  0  0  0  0  0  0
   10.3108    1.3531   -1.0935 H   0  0  0  0  0  0  0  0  0  0  0  0
    8.9465    0.7922   -0.1221 H   0  0  0  0  0  0  0  0  0  0  0  0
    9.8550   -0.3586   -1.1243 H   0  0  0  0  0  0  0  0  0  0  0  0
    8.1348    1.9602   -2.1630 H   0  0  0  0  0  0  0  0  0  0  0  0
    9.1294    0.9192   -3.1758 H   0  0  0  0  0  0  0  0  0  0  0  0
    7.7931   -1.0758   -2.4906 H   0  0  0  0  0  0  0  0  0  0  0  0
    6.8481    0.1415   -3.3131 H   0  0  0  0  0  0  0  0  0  0  0  0
    6.0122    0.9947   -1.1057 H   0  0  0  0  0  0  0  0  0  0  0  0
    6.9118   -0.3324   -0.2928 H   0  0  0  0  0  0  0  0  0  0  0  0
    5.0224    0.3468    0.9312 H   0  0  0  0  0  0  0  0  0  0  0  0
    3.1373   -0.0398    2.4231 H   0  0  0  0  0  0  0  0  0  0  0  0
    0.8890    0.2610    2.5262 H   0  0  0  0  0  0  0  0  0  0  0  0
   -0.9455   -1.7780    3.7198 H   0  0  0  0  0  0  0  0  0  0  0  0
   -0.5855   -0.1687    4.4165 H   0  0  0  0  0  0  0  0  0  0  0  0
   -2.0102    1.9818    0.2386 H   0  0  0  0  0  0  0  0  0  0  0  0
   -3.1490    1.7936    1.5941 H   0  0  0  0  0  0  0  0  0  0  0  0
   -4.0853   -1.9722   -0.3621 H   0  0  0  0  0  0  0  0  0  0  0  0
   -5.6229   -2.4570    0.0810 H   0  0  0  0  0  0  0  0  0  0  0  0
   -7.8574   -2.0469   -0.2730 H   0  0  0  0  0  0  0  0  0  0  0  0
   -7.3201   -1.9110   -1.9806 H   0  0  0  0  0  0  0  0  0  0  0  0
   -8.7392   -1.0235   -1.4170 H   0  0  0  0  0  0  0  0  0  0  0  0
   -6.4279    4.0490    0.2385 H   0  0  0  0  0  0  0  0  0  0  0  0
   -7.1828    3.7365   -1.3455 H   0  0  0  0  0  0  0  0  0  0  0  0
   -8.0735    3.3799    0.1547 H   0  0  0  0  0  0  0  0  0  0  0  0
    1.4776   -2.8790   -0.3718 H   0  0  0  0  0  0  0  0  0  0  0  0
    3.4031   -2.4981   -1.8759 H   0  0  0  0  0  0  0  0  0  0  0  0
  1  2  1  0
  2  3  1  0
  3  4  1  0
  4  5  1  0
  5  6  1  0
  6  7  2  0
  7  8  1  0
  8  9  2  0
  9 10  1  0
 10 11  2  0
 10 12  1  0
 12 13  1  0
 13 14  1  0
 14 15  2  0
 14 16  1  0
 16 17  1  0
 17 18  1  0
 18 19  2  0
 18 20  1  0
 20 21  2  0
 21 22  1  0
 21 23  1  0
 23 24  1  0
 23 25  1  0
 25 26  2  0
 25 27  1  0
 27 28  1  0
 27 29  1  0
 29 30  2  0
  9 31  1  0
 31 32  2  0
 32  6  1  0
 29 20  1  0
  1 33  1  0
  1 34  1  0
  1 35  1  0
  2 36  1  0
  2 37  1  0
  3 38  1  0
  3 39  1  0
  4 40  1  0
  4 41  1  0
  7 42  1  0
  8 43  1  0
 12 44  1  0
 13 45  1  0
 13 46  1  0
 17 47  1  0
 17 48  1  0
 22 49  1  0
 22 50  1  0
 24 51  1  0
 24 52  1  0
 24 53  1  0
 28 54  1  0
 28 55  1  0
 28 56  1  0
 31 57  1  0
 32 58  1  0
M  END
$$$$
