
     RDKit          3D

 33 34  0  0  0  0  0  0  0  0999 V2000
   -1.6828   -1.6546    1.9175 N   0  0  0  0  0  0  0  0  0  0  0  0
   -1.8961   -0.4943    1.3736 C   0  0  0  0  0  0  0  0  0  0  0  0
   -0.8923    0.4579    1.2924 N   0  0  0  0  0  0  0  0  0  0  0  0
    0.3898   -0.1293    1.3657 O   0  0  0  0  0  0  0  0  0  0  0  0
    0.9708   -0.2277    0.1281 C   0  0  0  0  0  0  0  0  0  0  0  0
    0.4906    0.2740   -0.8849 O   0  0  0  0  0  0  0  0  0  0  0  0
    2.2436   -1.0350    0.2083 C   0  0  0  0  0  0  0  0  0  0  0  0
    3.3977   -0.3864   -0.5153 C   0  0  0  0  0  0  0  0  0  0  0  0
    4.2605    0.4863    0.1625 C   0  0  0  0  0  0  0  0  0  0  0  0
    5.3120    1.1061   -0.5146 C   0  0  0  0  0  0  0  0  0  0  0  0
    5.5100    0.8638   -1.8726 C   0  0  0  0  0  0  0  0  0  0  0  0
    4.6536    0.0036   -2.5565 C   0  0  0  0  0  0  0  0  0  0  0  0
    3.6013   -0.6175   -1.8831 C   0  0  0  0  0  0  0  0  0  0  0  0
   -3.2440   -0.1276    0.8269 C   0  0  0  0  0  0  0  0  0  0  0  0
   -3.6878    1.1906    1.0298 C   0  0  0  0  0  0  0  0  0  0  0  0
   -4.9279    1.6078    0.5426 C   0  0  0  0  0  0  0  0  0  0  0  0
   -5.7374    0.7134   -0.1523 C   0  0  0  0  0  0  0  0  0  0  0  0
   -5.3093   -0.5996   -0.3561 C   0  0  0  0  0  0  0  0  0  0  0  0
   -4.0674   -1.0258    0.1314 C   0  0  0  0  0  0  0  0  0  0  0  0
   -3.6206   -2.6618   -0.2001 Cl  0  0  0  0  0  0  0  0  0  0  0  0
   -2.5261   -2.2387    1.8912 H   0  0  0  0  0  0  0  0  0  0  0  0
   -0.9660    1.0664    0.4714 H   0  0  0  0  0  0  0  0  0  0  0  0
    2.0405   -2.0321   -0.2034 H   0  0  0  0  0  0  0  0  0  0  0  0
    2.5190   -1.1899    1.2584 H   0  0  0  0  0  0  0  0  0  0  0  0
    4.1214    0.6941    1.2222 H   0  0  0  0  0  0  0  0  0  0  0  0
    5.9759    1.7805    0.0182 H   0  0  0  0  0  0  0  0  0  0  0  0
    6.3264    1.3494   -2.3998 H   0  0  0  0  0  0  0  0  0  0  0  0
    4.8012   -0.1811   -3.6182 H   0  0  0  0  0  0  0  0  0  0  0  0
    2.9334   -1.2734   -2.4375 H   0  0  0  0  0  0  0  0  0  0  0  0
   -3.0799    1.9000    1.5868 H   0  0  0  0  0  0  0  0  0  0  0  0
   -5.2620    2.6310    0.7057 H   0  0  0  0  0  0  0  0  0  0  0  0
   -6.7018    1.0370   -0.5366 H   0  0  0  0  0  0  0  0  0  0  0  0
   -5.9463   -1.2871   -0.9092 H   0  0  0  0  0  0  0  0  0  0  0  0
  1  2  2  3
  2  3  1  0
  3  4  1  0
  4  5  1  0
  5  6  2  0
  5  7  1  0
  7  8  1  0
  8  9  2  0
  9 10  1  0
 10 11  2  0
 11 12  1  0
 12 13  2  0
  2 14  1  0
 14 15  2  0
 15 16  1  0
 16 17  2  0
 17 18  1  0
 18 19  2  0
 19 20  1  0
 13  8  1  0
 19 14  1  0
  1 21  1  0
  3 22  1  0
  7 23  1  0
  7 24  1  0
  9 25  1  0
 10 26  1  0
 11 27  1  0
 12 28  1  0
 13 29  1  0
 15 30  1  0
 16 31  1  0
 17 32  1  0
 18 33  1  0
M  END
$$$$
