
     RDKit          3D

 57 61  0  0  0  0  0  0  0  0999 V2000
   -1.4415   -0.5690    4.7473 O   0  0  0  0  0  0  0  0  0  0  0  0
   -1.8725   -0.4777    3.6034 C   0  0  0  0  0  0  0  0  0  0  0  0
   -1.1337    0.1138    2.5856 N   0  0  0  0  0  0  0  0  0  0  0  0
   -1.5761    0.2516    1.2749 C   0  0  0  0  0  0  0  0  0  0  0  0
   -0.6210    0.9231    0.3008 C   0  0  0  0  0  0  0  0  0  0  0  0
    0.6645    0.1054    0.1341 C   0  0  0  0  0  0  0  0  0  0  0  0
    1.6270    0.8052   -0.8204 C   0  0  0  0  0  0  0  0  0  0  0  0
    1.9284    2.1672   -0.2851 N   0  0  0  0  0  0  0  0  0  0  0  0
    3.2270    2.9652   -1.0944 S   0  0  0  0  0  6  0  0  0  0  0  0
    2.9831    2.7708   -2.5049 O   0  0  0  0  0  0  0  0  0  0  0  0
    3.3863    4.2767   -0.5093 O   0  0  0  0  0  0  0  0  0  0  0  0
    4.6610    2.0203   -0.6128 C   0  0  0  0  0  0  0  0  0  0  0  0
    4.6932    1.5143    0.6981 C   0  0  0  0  0  0  0  0  0  0  0  0
    5.7643    0.7313    1.1227 C   0  0  0  0  0  0  0  0  0  0  0  0
    6.8074    0.4535    0.2460 C   0  0  0  0  0  0  0  0  0  0  0  0
    6.7897    0.9742   -1.0499 C   0  0  0  0  0  0  0  0  0  0  0  0
    5.7249    1.7809   -1.5003 C   0  0  0  0  0  0  0  0  0  0  0  0
    5.7874    2.3575   -2.8953 C   0  0  0  0  0  0  0  0  0  0  0  0
    7.0529    2.3220   -3.4116 F   0  0  0  0  0  0  0  0  0  0  0  0
    5.0255    1.6693   -3.7847 F   0  0  0  0  0  0  0  0  0  0  0  0
    5.4228    3.6638   -2.9596 F   0  0  0  0  0  0  0  0  0  0  0  0
    0.6941    3.0054   -0.2344 C   0  0  0  0  0  0  0  0  0  0  0  0
   -0.3034    2.3607    0.7244 C   0  0  0  0  0  0  0  0  0  0  0  0
   -2.7379   -0.1614    0.8479 N   0  0  0  0  0  0  0  0  0  0  0  0
   -3.4751   -0.7544    1.8198 C   0  0  0  0  0  0  0  0  0  0  0  0
   -3.1510   -0.9432    3.1417 C   0  0  0  0  0  0  0  0  0  0  0  0
   -4.1631   -1.5690    3.8006 N   0  0  0  0  0  0  0  0  0  0  0  0
   -5.1345   -1.7902    2.9147 N   0  0  0  0  0  0  0  0  0  0  0  0
   -4.7137   -1.3199    1.7134 N   0  0  0  0  0  0  0  0  0  0  0  0
   -5.5636   -1.4005    0.5442 C   0  0  0  0  0  0  0  0  0  0  0  0
   -5.2268   -2.6021   -0.3026 C   0  0  0  0  0  0  0  0  0  0  0  0
   -4.3963   -2.4728   -1.4257 C   0  0  0  0  0  0  0  0  0  0  0  0
   -4.0775   -3.5878   -2.2021 C   0  0  0  0  0  0  0  0  0  0  0  0
   -4.5797   -4.8423   -1.8616 C   0  0  0  0  0  0  0  0  0  0  0  0
   -5.3979   -4.9848   -0.7427 C   0  0  0  0  0  0  0  0  0  0  0  0
   -5.7191   -3.8716    0.0350 C   0  0  0  0  0  0  0  0  0  0  0  0
   -0.2281    0.4535    2.8732 H   0  0  0  0  0  0  0  0  0  0  0  0
   -1.1273    0.9615   -0.6743 H   0  0  0  0  0  0  0  0  0  0  0  0
    0.4253   -0.8944   -0.2474 H   0  0  0  0  0  0  0  0  0  0  0  0
    1.1591   -0.0386    1.1029 H   0  0  0  0  0  0  0  0  0  0  0  0
    2.5412    0.2088   -0.8926 H   0  0  0  0  0  0  0  0  0  0  0  0
    1.1844    0.8773   -1.8206 H   0  0  0  0  0  0  0  0  0  0  0  0
    3.8872    1.7328    1.3962 H   0  0  0  0  0  0  0  0  0  0  0  0
    5.7872    0.3407    2.1376 H   0  0  0  0  0  0  0  0  0  0  0  0
    7.6457   -0.1578    0.5742 H   0  0  0  0  0  0  0  0  0  0  0  0
    7.6297    0.7569   -1.7109 H   0  0  0  0  0  0  0  0  0  0  0  0
    0.2604    3.1039   -1.2362 H   0  0  0  0  0  0  0  0  0  0  0  0
    0.9299    4.0063    0.1412 H   0  0  0  0  0  0  0  0  0  0  0  0
   -1.2250    2.9542    0.7548 H   0  0  0  0  0  0  0  0  0  0  0  0
    0.1138    2.3799    1.7389 H   0  0  0  0  0  0  0  0  0  0  0  0
   -5.4476   -0.4695   -0.0224 H   0  0  0  0  0  0  0  0  0  0  0  0
   -6.6071   -1.4426    0.8780 H   0  0  0  0  0  0  0  0  0  0  0  0
   -3.9866   -1.5024   -1.6994 H   0  0  0  0  0  0  0  0  0  0  0  0
   -3.4345   -3.4788   -3.0715 H   0  0  0  0  0  0  0  0  0  0  0  0
   -4.3295   -5.7107   -2.4653 H   0  0  0  0  0  0  0  0  0  0  0  0
   -5.7832   -5.9646   -0.4721 H   0  0  0  0  0  0  0  0  0  0  0  0
   -6.3504   -4.0022    0.9127 H   0  0  0  0  0  0  0  0  0  0  0  0
  1  2  2  0
  2  3  1  0
  3  4  1  0
  4  5  1  0
  5  6  1  0
  6  7  1  0
  7  8  1  0
  8  9  1  0
  9 10  2  0
  9 11  2  0
  9 12  1  0
 12 13  2  0
 13 14  1  0
 14 15  2  0
 15 16  1  0
 16 17  2  0
 17 18  1  0
 18 19  1  0
 18 20  1  0
 18 21  1  0
  8 22  1  0
 22 23  1  0
  4 24  2  0
 24 25  1  0
 25 26  2  0
 26 27  1  0
 27 28  2  0
 28 29  1  0
 29 30  1  0
 30 31  1  0
 31 32  2  0
 32 33  1  0
 33 34  2  0
 34 35  1  0
 35 36  2  0
 26  2  1  0
 36 31  1  0
 23  5  1  0
 29 25  1  0
 17 12  1  0
  3 37  1  0
  5 38  1  0
  6 39  1  0
  6 40  1  0
  7 41  1  0
  7 42  1  0
 13 43  1  0
 14 44  1  0
 15 45  1  0
 16 46  1  0
 22 47  1  0
 22 48  1  0
 23 49  1  0
 23 50  1  0
 30 51  1  0
 30 52  1  0
 32 53  1  0
 33 54  1  0
 34 55  1  0
 35 56  1  0
 36 57  1  0
M  END
$$$$
