
     RDKit          3D

 87 91  0  0  0  0  0  0  0  0999 V2000
    4.5409    2.3631    0.5128 C   0  0  0  0  0  0  0  0  0  0  0  0
    3.1107    2.7488    0.8477 C   0  0  0  0  0  0  0  0  0  0  0  0
    2.5096    3.6153   -0.2302 C   0  0  0  0  0  0  0  0  0  0  0  0
    2.9339    4.7223   -0.5399 O   0  0  0  0  0  0  0  0  0  0  0  0
    1.4237    3.0017   -0.7832 O   0  0  0  0  0  0  0  0  0  0  0  0
    0.7040    3.8148   -1.7249 C   0  0  0  0  0  0  0  0  0  0  0  0
   -0.5962    3.1316   -2.1801 C   0  0  1  0  0  0  0  0  0  0  0  0
   -0.3396    1.7890   -2.9200 C   0  0  0  0  0  0  0  0  0  0  0  0
   -1.0156    0.6687   -2.0857 C   0  0  2  0  0  0  0  0  0  0  0  0
   -0.1739    0.2638   -0.9991 O   0  0  0  0  0  0  0  0  0  0  0  0
    1.0406   -0.2667   -1.2844 C   0  0  0  0  0  0  0  0  0  0  0  0
    1.5290   -0.4258   -2.3917 O   0  0  0  0  0  0  0  0  0  0  0  0
    1.6850   -0.6686   -0.0199 C   0  0  0  0  0  0  0  0  0  0  0  0
    2.9038   -1.2199   -0.0567 C   0  0  0  0  0  0  0  0  0  0  0  0
    3.6441   -1.6838    1.1232 C   0  0  0  0  0  0  0  0  0  0  0  0
    5.0463   -1.6302    1.0933 C   0  0  0  0  0  0  0  0  0  0  0  0
    5.7969   -2.1185    2.1657 C   0  0  0  0  0  0  0  0  0  0  0  0
    5.1549   -2.6710    3.2719 C   0  0  0  0  0  0  0  0  0  0  0  0
    3.7624   -2.7340    3.3112 C   0  0  0  0  0  0  0  0  0  0  0  0
    3.0104   -2.2467    2.2382 C   0  0  0  0  0  0  0  0  0  0  0  0
   -1.6120   -0.4470   -2.9978 C   0  0  0  0  0  0  0  0  0  0  0  0
   -2.5150   -0.2011   -3.8074 O   0  0  0  0  0  0  0  0  0  0  0  0
   -1.0379   -1.8218   -3.0143 C   0  0  0  0  0  0  0  0  0  0  0  0
   -0.4396   -2.1678   -4.3538 C   0  0  0  0  0  0  0  0  0  0  0  0
   -1.0283   -2.6930   -1.9910 C   0  0  0  0  0  0  0  0  0  0  0  0
   -1.5308   -2.6261   -0.6093 C   0  0  0  0  0  0  0  0  0  0  0  0
   -2.9597   -2.8831   -0.1827 C   0  0  2  0  0  0  0  0  0  0  0  0
   -3.5980   -2.3509    1.0769 C   0  0  0  0  0  0  0  0  0  0  0  0
   -4.1960   -0.9509    0.9692 C   0  0  0  0  0  0  0  0  0  0  0  0
   -3.1806    0.1354    0.6681 C   0  0  2  0  0  0  0  0  0  0  0  0
   -2.0858    0.3453    1.6682 C   0  0  0  0  0  0  0  0  0  0  0  0
   -3.8152    1.4000    0.3468 O   0  0  0  0  0  0  0  0  0  0  0  0
   -3.2233    0.7104   -0.7478 C   0  0  1  0  0  0  0  0  0  0  0  0
   -2.2250    1.4801   -1.5461 C   0  0  1  0  0  0  0  0  0  0  0  0
   -1.6690    2.8310   -1.0908 C   0  0  1  0  0  0  0  0  0  0  0  0
   -1.1287    2.8021    0.2297 O   0  0  0  0  0  0  0  0  0  0  0  0
   -1.1756    3.9800    0.9119 C   0  0  0  0  0  0  0  0  0  0  0  0
   -1.5976    5.0354    0.4572 O   0  0  0  0  0  0  0  0  0  0  0  0
   -0.6029    3.7927    2.2961 C   0  0  0  0  0  0  0  0  0  0  0  0
   -0.5675    5.0998    3.0750 C   0  0  0  0  0  0  0  0  0  0  0  0
   -1.9203   -3.9851   -0.0011 C   0  0  0  0  0  0  0  0  0  0  0  0
   -2.1463   -5.2313   -0.8373 C   0  0  0  0  0  0  0  0  0  0  0  0
   -1.2875   -4.2976    1.3366 C   0  0  0  0  0  0  0  0  0  0  0  0
    4.5972    1.8525   -0.4543 H   0  0  0  0  0  0  0  0  0  0  0  0
    4.9449    1.6956    1.2841 H   0  0  0  0  0  0  0  0  0  0  0  0
    5.1802    3.2568    0.4565 H   0  0  0  0  0  0  0  0  0  0  0  0
    2.4998    1.8509    0.9926 H   0  0  0  0  0  0  0  0  0  0  0  0
    3.0686    3.3095    1.7876 H   0  0  0  0  0  0  0  0  0  0  0  0
    1.3512    3.9840   -2.5956 H   0  0  0  0  0  0  0  0  0  0  0  0
    0.4654    4.7867   -1.2780 H   0  0  0  0  0  0  0  0  0  0  0  0
   -1.0587    3.8099   -2.9162 H   0  0  0  0  0  0  0  0  0  0  0  0
    0.7265    1.6410   -3.0967 H   0  0  0  0  0  0  0  0  0  0  0  0
   -0.7948    1.8507   -3.9181 H   0  0  0  0  0  0  0  0  0  0  0  0
    1.1333   -0.4979    0.8946 H   0  0  0  0  0  0  0  0  0  0  0  0
    3.4194   -1.3415   -1.0068 H   0  0  0  0  0  0  0  0  0  0  0  0
    5.5678   -1.2076    0.2385 H   0  0  0  0  0  0  0  0  0  0  0  0
    6.8816   -2.0745    2.1280 H   0  0  0  0  0  0  0  0  0  0  0  0
    5.7415   -3.0549    4.1026 H   0  0  0  0  0  0  0  0  0  0  0  0
    3.2602   -3.1777    4.1682 H   0  0  0  0  0  0  0  0  0  0  0  0
    1.9287   -2.3316    2.2827 H   0  0  0  0  0  0  0  0  0  0  0  0
    0.2426   -1.3797   -4.6874 H   0  0  0  0  0  0  0  0  0  0  0  0
    0.1215   -3.1085   -4.3274 H   0  0  0  0  0  0  0  0  0  0  0  0
   -1.2326   -2.2804   -5.1001 H   0  0  0  0  0  0  0  0  0  0  0  0
   -0.4919   -3.6149   -2.2000 H   0  0  0  0  0  0  0  0  0  0  0  0
   -0.9591   -1.9530    0.0233 H   0  0  0  0  0  0  0  0  0  0  0  0
   -3.6991   -2.9849   -0.9766 H   0  0  0  0  0  0  0  0  0  0  0  0
   -2.9074   -2.3742    1.9244 H   0  0  0  0  0  0  0  0  0  0  0  0
   -4.4071   -3.0463    1.3423 H   0  0  0  0  0  0  0  0  0  0  0  0
   -4.6938   -0.7101    1.9176 H   0  0  0  0  0  0  0  0  0  0  0  0
   -4.9818   -0.9593    0.2024 H   0  0  0  0  0  0  0  0  0  0  0  0
   -1.1613    0.6887    1.2066 H   0  0  0  0  0  0  0  0  0  0  0  0
   -2.3955    1.0802    2.4213 H   0  0  0  0  0  0  0  0  0  0  0  0
   -1.8281   -0.5716    2.2028 H   0  0  0  0  0  0  0  0  0  0  0  0
   -3.9008    0.2010   -1.4337 H   0  0  0  0  0  0  0  0  0  0  0  0
   -2.8255    1.7618   -2.4297 H   0  0  0  0  0  0  0  0  0  0  0  0
   -2.4800    3.5674   -1.1426 H   0  0  0  0  0  0  0  0  0  0  0  0
   -1.2223    3.0652    2.8353 H   0  0  0  0  0  0  0  0  0  0  0  0
    0.4192    3.3983    2.2063 H   0  0  0  0  0  0  0  0  0  0  0  0
   -1.5745    5.5217    3.1706 H   0  0  0  0  0  0  0  0  0  0  0  0
   -0.1606    4.9335    4.0780 H   0  0  0  0  0  0  0  0  0  0  0  0
    0.0672    5.8393    2.5678 H   0  0  0  0  0  0  0  0  0  0  0  0
   -2.6516   -5.0120   -1.7803 H   0  0  0  0  0  0  0  0  0  0  0  0
   -1.1930   -5.7189   -1.0564 H   0  0  0  0  0  0  0  0  0  0  0  0
   -2.7664   -5.9447   -0.2823 H   0  0  0  0  0  0  0  0  0  0  0  0
   -0.4393   -4.9809    1.2044 H   0  0  0  0  0  0  0  0  0  0  0  0
   -0.9046   -3.4000    1.8376 H   0  0  0  0  0  0  0  0  0  0  0  0
   -2.0150   -4.7799    2.0016 H   0  0  0  0  0  0  0  0  0  0  0  0
  1  2  1  0
  2  3  1  0
  3  4  2  0
  3  5  1  0
  5  6  1  0
  6  7  1  0
  7  8  1  0
  8  9  1  0
  9 10  1  1
 10 11  1  0
 11 12  2  0
 11 13  1  0
 13 14  2  0
 14 15  1  0
 15 16  2  0
 16 17  1  0
 17 18  2  0
 18 19  1  0
 19 20  2  0
  9 21  1  0
 21 22  2  0
 21 23  1  0
 23 24  1  0
 23 25  2  3
 25 26  1  0
 26 27  1  0
 27 28  1  0
 28 29  1  0
 29 30  1  0
 30 31  1  1
 30 32  1  0
 32 33  1  0
 33 34  1  0
 34 35  1  0
 35 36  1  0
 36 37  1  0
 37 38  2  0
 37 39  1  0
 39 40  1  0
 27 41  1  0
 41 42  1  0
 41 43  1  0
 35  7  1  0
 34  9  1  0
 20 15  1  0
 41 26  1  0
 33 30  1  0
  1 44  1  0
  1 45  1  0
  1 46  1  0
  2 47  1  0
  2 48  1  0
  6 49  1  0
  6 50  1  0
  7 51  1  6
  8 52  1  0
  8 53  1  0
 13 54  1  0
 14 55  1  0
 16 56  1  0
 17 57  1  0
 18 58  1  0
 19 59  1  0
 20 60  1  0
 24 61  1  0
 24 62  1  0
 24 63  1  0
 25 64  1  0
 26 65  1  0
 27 66  1  6
 28 67  1  0
 28 68  1  0
 29 69  1  0
 29 70  1  0
 31 71  1  0
 31 72  1  0
 31 73  1  0
 33 74  1  6
 34 75  1  6
 35 76  1  1
 39 77  1  0
 39 78  1  0
 40 79  1  0
 40 80  1  0
 40 81  1  0
 42 82  1  0
 42 83  1  0
 42 84  1  0
 43 85  1  0
 43 86  1  0
 43 87  1  0
M  END
$$$$
