
     RDKit          3D

 43 45  0  0  0  0  0  0  0  0999 V2000
   -5.9016    1.5161   -0.0824 C   0  0  0  0  0  0  0  0  0  0  0  0
   -6.0312    0.6748    1.0997 N   0  0  0  0  0  0  0  0  0  0  0  0
   -7.3453    0.6412    1.7175 C   0  0  0  0  0  0  0  0  0  0  0  0
   -4.9601    0.1250    1.8022 C   0  0  0  0  0  0  0  0  0  0  0  0
   -5.0442   -0.2752    2.9616 O   0  0  0  0  0  0  0  0  0  0  0  0
   -3.6465   -0.0088    1.1299 C   0  0  0  0  0  0  0  0  0  0  0  0
   -2.4994    0.4272    1.7952 C   0  0  0  0  0  0  0  0  0  0  0  0
   -1.2477    0.2820    1.1900 C   0  0  0  0  0  0  0  0  0  0  0  0
   -1.1283   -0.3106   -0.0752 C   0  0  0  0  0  0  0  0  0  0  0  0
    0.1678   -0.4148   -0.6112 N   0  0  0  0  0  0  0  0  0  0  0  0
    0.5552   -0.9307   -1.8355 C   0  0  0  0  0  0  0  0  0  0  0  0
   -0.1995   -1.3859   -2.6882 O   0  0  0  0  0  0  0  0  0  0  0  0
    1.9935   -0.8760   -2.0317 C   0  0  0  0  0  0  0  0  0  0  0  0
    2.7806   -1.2710   -3.0940 C   0  0  0  0  0  0  0  0  0  0  0  0
    4.1194   -0.9785   -2.7389 C   0  0  0  0  0  0  0  0  0  0  0  0
    4.0867   -0.4203   -1.4754 C   0  0  0  0  0  0  0  0  0  0  0  0
    5.1035    0.0915   -0.5579 C   0  0  0  0  0  0  0  0  0  0  0  0
    6.4498    0.1586   -0.9513 C   0  0  0  0  0  0  0  0  0  0  0  0
    7.4311    0.6465   -0.0806 C   0  0  0  0  0  0  0  0  0  0  0  0
    7.0750    1.0724    1.1955 C   0  0  0  0  0  0  0  0  0  0  0  0
    8.2797    1.6720    2.2661 Cl  0  0  0  0  0  0  0  0  0  0  0  0
    5.7474    1.0144    1.6080 C   0  0  0  0  0  0  0  0  0  0  0  0
    4.7686    0.5266    0.7350 C   0  0  0  0  0  0  0  0  0  0  0  0
    2.7900   -0.3567   -1.0433 O   0  0  0  0  0  0  0  0  0  0  0  0
   -2.2800   -0.7682   -0.7210 C   0  0  0  0  0  0  0  0  0  0  0  0
   -3.5355   -0.6277   -0.1181 C   0  0  0  0  0  0  0  0  0  0  0  0
   -6.4051    1.0216   -0.9177 H   0  0  0  0  0  0  0  0  0  0  0  0
   -6.3877    2.4771    0.1142 H   0  0  0  0  0  0  0  0  0  0  0  0
   -4.8620    1.7174   -0.3446 H   0  0  0  0  0  0  0  0  0  0  0  0
   -7.4115   -0.1412    2.4786 H   0  0  0  0  0  0  0  0  0  0  0  0
   -8.0978    0.4473    0.9476 H   0  0  0  0  0  0  0  0  0  0  0  0
   -7.5382    1.6110    2.1855 H   0  0  0  0  0  0  0  0  0  0  0  0
   -2.5799    0.8739    2.7837 H   0  0  0  0  0  0  0  0  0  0  0  0
   -0.3698    0.6338    1.7262 H   0  0  0  0  0  0  0  0  0  0  0  0
    0.9323   -0.0681   -0.0419 H   0  0  0  0  0  0  0  0  0  0  0  0
    2.4189   -1.7163   -4.0114 H   0  0  0  0  0  0  0  0  0  0  0  0
    5.0008   -1.1588   -3.3381 H   0  0  0  0  0  0  0  0  0  0  0  0
    6.7564   -0.1656   -1.9431 H   0  0  0  0  0  0  0  0  0  0  0  0
    8.4671    0.6902   -0.4064 H   0  0  0  0  0  0  0  0  0  0  0  0
    5.4648    1.3446    2.6041 H   0  0  0  0  0  0  0  0  0  0  0  0
    3.7383    0.4880    1.0811 H   0  0  0  0  0  0  0  0  0  0  0  0
   -2.2376   -1.2527   -1.6916 H   0  0  0  0  0  0  0  0  0  0  0  0
   -4.4178   -1.0142   -0.6219 H   0  0  0  0  0  0  0  0  0  0  0  0
  1  2  1  0
  2  3  1  0
  2  4  1  0
  4  5  2  0
  4  6  1  0
  6  7  2  0
  7  8  1  0
  8  9  2  0
  9 10  1  0
 10 11  1  0
 11 12  2  0
 11 13  1  0
 13 14  2  0
 14 15  1  0
 15 16  2  0
 16 17  1  0
 17 18  2  0
 18 19  1  0
 19 20  2  0
 20 21  1  0
 20 22  1  0
 22 23  2  0
 16 24  1  0
  9 25  1  0
 25 26  2  0
 26  6  1  0
 24 13  1  0
 23 17  1  0
  1 27  1  0
  1 28  1  0
  1 29  1  0
  3 30  1  0
  3 31  1  0
  3 32  1  0
  7 33  1  0
  8 34  1  0
 10 35  1  0
 14 36  1  0
 15 37  1  0
 18 38  1  0
 19 39  1  0
 22 40  1  0
 23 41  1  0
 25 42  1  0
 26 43  1  0
M  END
$$$$
