
     RDKit          3D

 57 61  0  0  0  0  0  0  0  0999 V2000
    5.6591   -0.7981    0.5601 C   0  0  0  0  0  0  0  0  0  0  0  0
    5.1644    0.5390    0.0127 C   0  0  0  0  0  0  0  0  0  0  0  0
    6.3042    1.5615    0.0544 C   0  0  0  0  0  0  0  0  0  0  0  0
    3.9606    1.0398    0.8202 C   0  0  0  0  0  0  0  0  0  0  0  0
    4.0755    1.9940    1.5934 O   0  0  0  0  0  0  0  0  0  0  0  0
    2.7454    0.3718    0.6869 N   0  0  0  0  0  0  0  0  0  0  0  0
    2.4226   -0.5808   -0.3731 C   0  0  0  0  0  0  0  0  0  0  0  0
    0.9463   -0.5053   -0.7559 C   0  0  0  0  0  0  0  0  0  0  0  0
    0.0392   -0.8951    0.4391 C   0  0  0  0  0  0  0  0  0  0  0  0
    0.6233   -0.3311    1.7691 C   0  0  0  0  0  0  0  0  0  0  0  0
    1.6548    0.7751    1.5695 C   0  0  0  0  0  0  0  0  0  0  0  0
    0.1398   -2.3399    0.6158 O   0  0  0  0  0  0  0  0  0  0  0  0
   -0.6381   -3.1398   -0.1693 C   0  0  0  0  0  0  0  0  0  0  0  0
   -0.3458   -4.5042   -0.1353 C   0  0  0  0  0  0  0  0  0  0  0  0
   -1.0710   -5.3931   -0.9310 C   0  0  0  0  0  0  0  0  0  0  0  0
   -2.0841   -4.9113   -1.7544 C   0  0  0  0  0  0  0  0  0  0  0  0
   -2.7732   -5.7679   -2.5187 F   0  0  0  0  0  0  0  0  0  0  0  0
   -2.3944   -3.5586   -1.7916 C   0  0  0  0  0  0  0  0  0  0  0  0
   -1.6716   -2.6800   -0.9819 C   0  0  0  0  0  0  0  0  0  0  0  0
   -1.9815   -1.2450   -0.9710 C   0  0  0  0  0  0  0  0  0  0  0  0
   -2.6202   -0.7474   -1.8939 O   0  0  0  0  0  0  0  0  0  0  0  0
   -1.4405   -0.4668    0.2221 C   0  0  0  0  0  0  0  0  0  0  0  0
   -1.6777    1.0271    0.0688 C   0  0  0  0  0  0  0  0  0  0  0  0
   -2.9872    1.1204    0.7777 C   0  0  0  0  0  0  0  0  0  0  0  0
   -3.8593    2.3138    0.6740 C   0  0  0  0  0  0  0  0  0  0  0  0
   -3.4479    3.4664   -0.0058 C   0  0  0  0  0  0  0  0  0  0  0  0
   -4.2966    4.5762   -0.0790 C   0  0  0  0  0  0  0  0  0  0  0  0
   -5.5523    4.5350    0.5257 C   0  0  0  0  0  0  0  0  0  0  0  0
   -6.5905    5.9031    0.4327 Cl  0  0  0  0  0  0  0  0  0  0  0  0
   -5.9692    3.3931    1.2049 C   0  0  0  0  0  0  0  0  0  0  0  0
   -5.1229    2.2834    1.2803 C   0  0  0  0  0  0  0  0  0  0  0  0
   -3.2773    0.0939    1.5122 N   0  0  0  0  0  0  0  0  0  0  0  0
   -2.2326   -0.8442    1.3622 O   0  0  0  0  0  0  0  0  0  0  0  0
    5.9292   -0.7136    1.6187 H   0  0  0  0  0  0  0  0  0  0  0  0
    6.5419   -1.1413    0.0105 H   0  0  0  0  0  0  0  0  0  0  0  0
    4.8988   -1.5790    0.4814 H   0  0  0  0  0  0  0  0  0  0  0  0
    4.8797    0.4325   -1.0375 H   0  0  0  0  0  0  0  0  0  0  0  0
    7.1438    1.2340   -0.5681 H   0  0  0  0  0  0  0  0  0  0  0  0
    6.6765    1.7085    1.0746 H   0  0  0  0  0  0  0  0  0  0  0  0
    5.9675    2.5343   -0.3204 H   0  0  0  0  0  0  0  0  0  0  0  0
    2.6745   -1.5825   -0.0095 H   0  0  0  0  0  0  0  0  0  0  0  0
    3.0268   -0.3830   -1.2606 H   0  0  0  0  0  0  0  0  0  0  0  0
    0.7828   -1.1731   -1.6092 H   0  0  0  0  0  0  0  0  0  0  0  0
    0.7224    0.5130   -1.0956 H   0  0  0  0  0  0  0  0  0  0  0  0
   -0.1685    0.0444    2.4269 H   0  0  0  0  0  0  0  0  0  0  0  0
    1.1076   -1.1408    2.3332 H   0  0  0  0  0  0  0  0  0  0  0  0
    1.1984    1.6694    1.1315 H   0  0  0  0  0  0  0  0  0  0  0  0
    2.0590    1.0699    2.5448 H   0  0  0  0  0  0  0  0  0  0  0  0
    0.4496   -4.8760    0.5063 H   0  0  0  0  0  0  0  0  0  0  0  0
   -0.8524   -6.4568   -0.9148 H   0  0  0  0  0  0  0  0  0  0  0  0
   -3.1955   -3.2053   -2.4337 H   0  0  0  0  0  0  0  0  0  0  0  0
   -1.7266    1.3696   -0.9670 H   0  0  0  0  0  0  0  0  0  0  0  0
   -0.9629    1.6389    0.6230 H   0  0  0  0  0  0  0  0  0  0  0  0
   -2.4745    3.5305   -0.4829 H   0  0  0  0  0  0  0  0  0  0  0  0
   -3.9729    5.4692   -0.6083 H   0  0  0  0  0  0  0  0  0  0  0  0
   -6.9475    3.3570    1.6773 H   0  0  0  0  0  0  0  0  0  0  0  0
   -5.4587    1.3953    1.8129 H   0  0  0  0  0  0  0  0  0  0  0  0
  1  2  1  0
  2  3  1  0
  2  4  1  0
  4  5  2  0
  4  6  1  0
  6  7  1  0
  7  8  1  0
  8  9  1  0
  9 10  1  0
 10 11  1  0
  9 12  1  0
 12 13  1  0
 13 14  2  0
 14 15  1  0
 15 16  2  0
 16 17  1  0
 16 18  1  0
 18 19  2  0
 19 20  1  0
 20 21  2  0
 20 22  1  0
 22 23  1  0
 23 24  1  0
 24 25  1  0
 25 26  2  0
 26 27  1  0
 27 28  2  0
 28 29  1  0
 28 30  1  0
 30 31  2  0
 24 32  2  0
 32 33  1  0
 11  6  1  0
 19 13  1  0
 33 22  1  0
 22  9  1  0
 31 25  1  0
  1 34  1  0
  1 35  1  0
  1 36  1  0
  2 37  1  0
  3 38  1  0
  3 39  1  0
  3 40  1  0
  7 41  1  0
  7 42  1  0
  8 43  1  0
  8 44  1  0
 10 45  1  0
 10 46  1  0
 11 47  1  0
 11 48  1  0
 14 49  1  0
 15 50  1  0
 18 51  1  0
 23 52  1  0
 23 53  1  0
 26 54  1  0
 27 55  1  0
 30 56  1  0
 31 57  1  0
M  END
$$$$
