
     RDKit          3D

 54 57  0  0  0  0  0  0  0  0999 V2000
    7.8151    2.2185    1.6082 C   0  0  0  0  0  0  0  0  0  0  0  0
    7.5920    1.4069    0.4125 N   0  0  0  0  0  0  0  0  0  0  0  0
    8.4897    1.6798   -0.7094 C   0  0  0  0  0  0  0  0  0  0  0  0
    6.3056    0.9246    0.1430 C   0  0  0  0  0  0  0  0  0  0  0  0
    5.2605    1.0063    1.0823 C   0  0  0  0  0  0  0  0  0  0  0  0
    3.9756    0.5091    0.8208 C   0  0  0  0  0  0  0  0  0  0  0  0
    3.7033   -0.1015   -0.3988 C   0  0  0  0  0  0  0  0  0  0  0  0
    2.3619   -0.6352   -0.7032 C   0  0  0  0  0  0  0  0  0  0  0  0
    1.3845   -0.5473    0.1418 N   0  0  0  0  0  0  0  0  0  0  0  0
    0.2026   -1.0824   -0.2755 N   0  0  0  0  0  0  0  0  0  0  0  0
   -0.9203   -1.0420    0.5369 C   0  0  0  0  0  0  0  0  0  0  0  0
   -0.9646   -0.5576    1.6636 O   0  0  0  0  0  0  0  0  0  0  0  0
   -2.0847   -1.6564   -0.0948 C   0  0  0  0  0  0  0  0  0  0  0  0
   -2.0015   -2.2923   -1.3050 N   0  0  0  0  0  0  0  0  0  0  0  0
   -3.2011   -2.7460   -1.6175 N   0  0  0  0  0  0  0  0  0  0  0  0
   -4.0726   -2.4504   -0.6054 N   0  0  0  0  0  0  0  0  0  0  0  0
   -5.4102   -2.9223   -0.6310 C   0  0  0  0  0  0  0  0  0  0  0  0
   -6.2144   -2.7870    0.4236 N   0  0  0  0  0  0  0  0  0  0  0  0
   -7.4050   -3.3906    0.0246 O   0  0  0  0  0  0  0  0  0  0  0  0
   -7.3020   -3.9089   -1.2618 N   0  0  0  0  0  0  0  0  0  0  0  0
   -6.0679   -3.6133   -1.6670 C   0  0  0  0  0  0  0  0  0  0  0  0
   -5.5690   -3.9374   -2.8757 N   0  0  0  0  0  0  0  0  0  0  0  0
   -3.3954   -1.7024    0.3551 C   0  0  0  0  0  0  0  0  0  0  0  0
   -4.0291   -1.0942    1.5535 C   0  0  0  0  0  0  0  0  0  0  0  0
   -5.0264   -0.1675    1.1150 O   0  0  0  0  0  0  0  0  0  0  0  0
   -4.6468    1.0688    0.6764 C   0  0  0  0  0  0  0  0  0  0  0  0
   -3.4545    1.7233    0.9885 C   0  0  0  0  0  0  0  0  0  0  0  0
   -3.1948    2.9928    0.4626 C   0  0  0  0  0  0  0  0  0  0  0  0
   -4.1324    3.6051   -0.3602 C   0  0  0  0  0  0  0  0  0  0  0  0
   -3.8789    4.8208   -0.8614 F   0  0  0  0  0  0  0  0  0  0  0  0
   -5.3313    2.9748   -0.6639 C   0  0  0  0  0  0  0  0  0  0  0  0
   -5.5887    1.7075   -0.1394 C   0  0  0  0  0  0  0  0  0  0  0  0
    4.7121   -0.2185   -1.3490 C   0  0  0  0  0  0  0  0  0  0  0  0
    5.9917    0.2853   -1.0723 C   0  0  0  0  0  0  0  0  0  0  0  0
    7.2394    3.1494    1.5655 H   0  0  0  0  0  0  0  0  0  0  0  0
    7.5566    1.6654    2.5175 H   0  0  0  0  0  0  0  0  0  0  0  0
    8.8728    2.4865    1.7127 H   0  0  0  0  0  0  0  0  0  0  0  0
    9.4377    2.1097   -0.3666 H   0  0  0  0  0  0  0  0  0  0  0  0
    8.0402    2.3924   -1.4098 H   0  0  0  0  0  0  0  0  0  0  0  0
    8.7525    0.7581   -1.2391 H   0  0  0  0  0  0  0  0  0  0  0  0
    5.4139    1.4657    2.0544 H   0  0  0  0  0  0  0  0  0  0  0  0
    3.2012    0.6027    1.5792 H   0  0  0  0  0  0  0  0  0  0  0  0
    2.2329   -1.1133   -1.6913 H   0  0  0  0  0  0  0  0  0  0  0  0
    0.1288   -1.5108   -1.1937 H   0  0  0  0  0  0  0  0  0  0  0  0
   -4.5679   -3.8897   -3.0583 H   0  0  0  0  0  0  0  0  0  0  0  0
   -6.0669   -4.6157   -3.4430 H   0  0  0  0  0  0  0  0  0  0  0  0
   -4.5313   -1.8692    2.1428 H   0  0  0  0  0  0  0  0  0  0  0  0
   -3.3268   -0.6328    2.2503 H   0  0  0  0  0  0  0  0  0  0  0  0
   -2.7115    1.2916    1.6501 H   0  0  0  0  0  0  0  0  0  0  0  0
   -2.2681    3.5071    0.6984 H   0  0  0  0  0  0  0  0  0  0  0  0
   -6.0564    3.4703   -1.3008 H   0  0  0  0  0  0  0  0  0  0  0  0
   -6.5275    1.2098   -0.3711 H   0  0  0  0  0  0  0  0  0  0  0  0
    4.5301   -0.6999   -2.3057 H   0  0  0  0  0  0  0  0  0  0  0  0
    6.7473    0.1520   -1.8408 H   0  0  0  0  0  0  0  0  0  0  0  0
  1  2  1  0
  2  3  1  0
  2  4  1  0
  4  5  2  0
  5  6  1  0
  6  7  2  0
  7  8  1  0
  8  9  2  3
  9 10  1  0
 10 11  1  0
 11 12  2  0
 11 13  1  0
 13 14  1  0
 14 15  2  0
 15 16  1  0
 16 17  1  0
 17 18  2  0
 18 19  1  0
 19 20  1  0
 20 21  2  0
 21 22  1  0
 16 23  1  0
 23 24  1  0
 24 25  1  0
 25 26  1  0
 26 27  2  0
 27 28  1  0
 28 29  2  0
 29 30  1  0
 29 31  1  0
 31 32  2  0
  7 33  1  0
 33 34  2  0
 34  4  1  0
 23 13  2  0
 32 26  1  0
 21 17  1  0
  1 35  1  0
  1 36  1  0
  1 37  1  0
  3 38  1  0
  3 39  1  0
  3 40  1  0
  5 41  1  0
  6 42  1  0
  8 43  1  0
 10 44  1  0
 22 45  1  0
 22 46  1  0
 24 47  1  0
 24 48  1  0
 27 49  1  0
 28 50  1  0
 31 51  1  0
 32 52  1  0
 33 53  1  0
 34 54  1  0
M  END
$$$$
