
     RDKit          3D

 51 55  0  0  0  0  0  0  0  0999 V2000
   -7.2050    3.4935   -1.2227 C   0  0  0  0  0  0  0  0  0  0  0  0
   -7.2313    1.9949   -1.1868 C   0  0  0  0  0  0  0  0  0  0  0  0
   -8.2825    1.2969   -1.8052 C   0  0  0  0  0  0  0  0  0  0  0  0
   -8.3689   -0.0930   -1.7116 C   0  0  0  0  0  0  0  0  0  0  0  0
   -7.4094   -0.8040   -0.9933 C   0  0  0  0  0  0  0  0  0  0  0  0
   -6.3471   -0.1183   -0.3878 C   0  0  0  0  0  0  0  0  0  0  0  0
   -5.3441   -0.8994    0.3781 C   0  0  0  0  0  0  0  0  0  0  0  0
   -5.7491   -1.7622    1.1439 O   0  0  0  0  0  0  0  0  0  0  0  0
   -4.0381   -0.5790    0.0812 N   0  0  0  0  0  0  0  0  0  0  0  0
   -2.9189   -1.1401    0.6457 C   0  0  0  0  0  0  0  0  0  0  0  0
   -1.7064   -0.9037    0.1916 N   0  0  0  0  0  0  0  0  0  0  0  0
   -0.7426   -1.5863    0.9066 N   0  0  0  0  0  0  0  0  0  0  0  0
   -1.2708   -2.2866    1.8872 C   0  0  0  0  0  0  0  0  0  0  0  0
   -0.3011   -3.2695    2.9517 S   0  0  0  0  0  0  0  0  0  0  0  0
    0.8662   -3.9802    1.7588 C   0  0  0  0  0  0  0  0  0  0  0  0
    2.1696   -3.1987    1.7288 C   0  0  0  0  0  0  0  0  0  0  0  0
    3.1725   -3.6444    2.2814 O   0  0  0  0  0  0  0  0  0  0  0  0
    2.0913   -2.0190    1.0085 N   0  0  0  0  0  0  0  0  0  0  0  0
    3.1468   -1.1415    0.6819 C   0  0  0  0  0  0  0  0  0  0  0  0
    2.7953    0.0492    0.0229 C   0  0  0  0  0  0  0  0  0  0  0  0
    3.7615    0.9936   -0.3656 C   0  0  0  0  0  0  0  0  0  0  0  0
    5.1124    0.7285   -0.0887 C   0  0  0  0  0  0  0  0  0  0  0  0
    5.4292   -0.4557    0.5653 C   0  0  0  0  0  0  0  0  0  0  0  0
    4.4904   -1.4115    0.9657 C   0  0  0  0  0  0  0  0  0  0  0  0
    6.7735   -0.5513    0.7545 O   0  0  0  0  0  0  0  0  0  0  0  0
    7.3297    0.5752    0.2339 C   0  0  0  0  0  0  0  0  0  0  0  0
    8.6888    0.8752    0.2355 C   0  0  0  0  0  0  0  0  0  0  0  0
    9.0624    2.0887   -0.3538 C   0  0  0  0  0  0  0  0  0  0  0  0
    8.1084    2.9466   -0.9068 C   0  0  0  0  0  0  0  0  0  0  0  0
    6.7459    2.6188   -0.8897 C   0  0  0  0  0  0  0  0  0  0  0  0
    6.3498    1.4015   -0.3047 C   0  0  0  0  0  0  0  0  0  0  0  0
   -2.9702   -2.1639    2.0080 S   0  0  0  0  0  0  0  0  0  0  0  0
   -6.2632    1.2781   -0.4706 C   0  0  0  0  0  0  0  0  0  0  0  0
   -7.5025    3.8622   -2.2102 H   0  0  0  0  0  0  0  0  0  0  0  0
   -7.8917    3.8927   -0.4702 H   0  0  0  0  0  0  0  0  0  0  0  0
   -6.2019    3.8769   -1.0195 H   0  0  0  0  0  0  0  0  0  0  0  0
   -9.0530    1.8395   -2.3507 H   0  0  0  0  0  0  0  0  0  0  0  0
   -9.1915   -0.6188   -2.1872 H   0  0  0  0  0  0  0  0  0  0  0  0
   -7.4897   -1.8853   -0.9030 H   0  0  0  0  0  0  0  0  0  0  0  0
   -3.8432    0.0475   -0.6878 H   0  0  0  0  0  0  0  0  0  0  0  0
    1.0939   -5.0031    2.0754 H   0  0  0  0  0  0  0  0  0  0  0  0
    0.4433   -4.0486    0.7525 H   0  0  0  0  0  0  0  0  0  0  0  0
    1.1588   -1.7175    0.7280 H   0  0  0  0  0  0  0  0  0  0  0  0
    1.7516    0.2671   -0.1940 H   0  0  0  0  0  0  0  0  0  0  0  0
    3.4646    1.9093   -0.8652 H   0  0  0  0  0  0  0  0  0  0  0  0
    4.8275   -2.3113    1.4632 H   0  0  0  0  0  0  0  0  0  0  0  0
    9.4135    0.1984    0.6719 H   0  0  0  0  0  0  0  0  0  0  0  0
   10.1134    2.3707   -0.3738 H   0  0  0  0  0  0  0  0  0  0  0  0
    8.4245    3.8842   -1.3530 H   0  0  0  0  0  0  0  0  0  0  0  0
    6.0130    3.2942   -1.3194 H   0  0  0  0  0  0  0  0  0  0  0  0
   -5.4759    1.8092    0.0521 H   0  0  0  0  0  0  0  0  0  0  0  0
  1  2  1  0
  2  3  2  0
  3  4  1  0
  4  5  2  0
  5  6  1  0
  6  7  1  0
  7  8  2  0
  7  9  1  0
  9 10  1  0
 10 11  2  0
 11 12  1  0
 12 13  2  0
 13 14  1  0
 14 15  1  0
 15 16  1  0
 16 17  2  0
 16 18  1  0
 18 19  1  0
 19 20  2  0
 20 21  1  0
 21 22  2  0
 22 23  1  0
 23 24  2  0
 23 25  1  0
 25 26  1  0
 26 27  2  0
 27 28  1  0
 28 29  2  0
 29 30  1  0
 30 31  2  0
 13 32  1  0
  6 33  2  0
 33  2  1  0
 32 10  1  0
 24 19  1  0
 31 26  1  0
 31 22  1  0
  1 34  1  0
  1 35  1  0
  1 36  1  0
  3 37  1  0
  4 38  1  0
  5 39  1  0
  9 40  1  0
 15 41  1  0
 15 42  1  0
 18 43  1  0
 20 44  1  0
 21 45  1  0
 24 46  1  0
 27 47  1  0
 28 48  1  0
 29 49  1  0
 30 50  1  0
 33 51  1  0
M  END
$$$$
