
     RDKit          3D

 39 42  0  0  0  0  0  0  0  0999 V2000
   -7.2473   -0.1275    1.8635 O   0  0  0  0  0  0  0  0  0  0  0  0
   -6.5554   -1.0745    1.5329 C   0  0  0  0  0  0  0  0  0  0  0  0
   -6.6929   -2.2722    2.1329 O   0  0  0  0  0  0  0  0  0  0  0  0
   -5.4982   -1.0972    0.4696 C   0  0  0  0  0  0  0  0  0  0  0  0
   -5.3677    0.2791   -0.1761 C   0  0  0  0  0  0  0  0  0  0  0  0
   -4.3408    0.2960   -1.2239 N   0  0  0  0  0  0  0  0  0  0  0  0
   -3.0206    0.5011   -0.8493 C   0  0  0  0  0  0  0  0  0  0  0  0
   -2.6474    0.6404    0.3062 O   0  0  0  0  0  0  0  0  0  0  0  0
   -2.1254    0.4831   -2.0426 C   0  0  0  0  0  0  0  0  0  0  0  0
   -0.8017    0.6701   -2.1358 C   0  0  0  0  0  0  0  0  0  0  0  0
    0.0944    0.9904   -1.0817 C   0  0  0  0  0  0  0  0  0  0  0  0
   -0.0193    1.8270    0.0179 C   0  0  0  0  0  0  0  0  0  0  0  0
    1.2084    1.7920    0.7228 C   0  0  0  0  0  0  0  0  0  0  0  0
    2.0577    0.9547    0.0228 C   0  0  0  0  0  0  0  0  0  0  0  0
    3.4206    0.5742    0.2955 C   0  0  0  0  0  0  0  0  0  0  0  0
    4.0933   -0.2249   -0.5054 N   0  0  0  0  0  0  0  0  0  0  0  0
    5.3707   -0.4282   -0.0139 C   0  0  0  0  0  0  0  0  0  0  0  0
    6.3679   -1.2272   -0.6089 C   0  0  0  0  0  0  0  0  0  0  0  0
    7.6218   -1.3438   -0.0002 C   0  0  0  0  0  0  0  0  0  0  0  0
    7.8917   -0.6757    1.1900 C   0  0  0  0  0  0  0  0  0  0  0  0
    6.9196    0.1230    1.8005 C   0  0  0  0  0  0  0  0  0  0  0  0
    5.6639    0.2326    1.1798 C   0  0  0  0  0  0  0  0  0  0  0  0
    4.2800    1.1260    1.6763 S   0  0  0  0  0  0  0  0  0  0  0  0
    1.3768    0.4927   -1.0745 O   0  0  0  0  0  0  0  0  0  0  0  0
   -3.0692    0.1113   -3.4492 S   0  0  0  0  0  0  0  0  0  0  0  0
   -4.5763    0.0302   -2.5547 C   0  0  0  0  0  0  0  0  0  0  0  0
   -6.0274   -0.3283   -3.2941 S   0  0  0  0  0  0  0  0  0  0  0  0
   -7.3993   -2.1356    2.7993 H   0  0  0  0  0  0  0  0  0  0  0  0
   -5.7729   -1.8466   -0.2800 H   0  0  0  0  0  0  0  0  0  0  0  0
   -4.5485   -1.3932    0.9283 H   0  0  0  0  0  0  0  0  0  0  0  0
   -5.0989    1.0219    0.5857 H   0  0  0  0  0  0  0  0  0  0  0  0
   -6.3277    0.6004   -0.5944 H   0  0  0  0  0  0  0  0  0  0  0  0
   -0.3202    0.5382   -3.1032 H   0  0  0  0  0  0  0  0  0  0  0  0
   -0.8928    2.4038    0.2902 H   0  0  0  0  0  0  0  0  0  0  0  0
    1.4401    2.3264    1.6336 H   0  0  0  0  0  0  0  0  0  0  0  0
    6.1519   -1.7463   -1.5375 H   0  0  0  0  0  0  0  0  0  0  0  0
    8.3879   -1.9616   -0.4630 H   0  0  0  0  0  0  0  0  0  0  0  0
    8.8714   -0.7752    1.6532 H   0  0  0  0  0  0  0  0  0  0  0  0
    7.1318    0.6435    2.7294 H   0  0  0  0  0  0  0  0  0  0  0  0
  1  2  2  0
  2  3  1  0
  2  4  1  0
  4  5  1  0
  5  6  1  0
  6  7  1  0
  7  8  2  0
  7  9  1  0
  9 10  2  3
 10 11  1  0
 11 12  2  0
 12 13  1  0
 13 14  2  0
 14 15  1  0
 15 16  2  0
 16 17  1  0
 17 18  2  0
 18 19  1  0
 19 20  2  0
 20 21  1  0
 21 22  2  0
 22 23  1  0
 14 24  1  0
  9 25  1  0
 25 26  1  0
 26 27  2  0
 26  6  1  0
 24 11  1  0
 23 15  1  0
 22 17  1  0
  3 28  1  0
  4 29  1  0
  4 30  1  0
  5 31  1  0
  5 32  1  0
 10 33  1  0
 12 34  1  0
 13 35  1  0
 18 36  1  0
 19 37  1  0
 20 38  1  0
 21 39  1  0
M  END
$$$$
