
     RDKit          3D

 67 72  0  0  0  0  0  0  0  0999 V2000
   -4.1882   -4.8686    0.7748 C   0  0  0  0  0  0  0  0  0  0  0  0
   -3.3001   -3.7162    1.1371 C   0  0  0  0  0  0  0  0  0  0  0  0
   -3.0111   -3.4018    2.4783 C   0  0  0  0  0  0  0  0  0  0  0  0
   -3.6577   -4.3422    3.7798 Cl  0  0  0  0  0  0  0  0  0  0  0  0
   -2.1913   -2.3088    2.8210 C   0  0  0  0  0  0  0  0  0  0  0  0
   -1.6350   -1.4949    1.8338 C   0  0  0  0  0  0  0  0  0  0  0  0
   -1.9083   -1.7942    0.5068 C   0  0  0  0  0  0  0  0  0  0  0  0
   -2.7351   -2.8813    0.1795 C   0  0  0  0  0  0  0  0  0  0  0  0
   -2.8898   -2.9531   -1.2031 N   0  0  0  0  0  0  0  0  0  0  0  0
   -2.2096   -1.9259   -1.8603 C   0  0  0  0  0  0  0  0  0  0  0  0
   -2.2124   -1.7643   -3.0723 O   0  0  0  0  0  0  0  0  0  0  0  0
   -1.4744   -1.1070   -0.7669 C   0  0  1  0  0  0  0  0  0  0  0  0
   -1.9005    0.3052   -0.6776 C   0  0  0  0  0  0  0  0  0  0  0  0
   -0.8118    1.1719   -0.7774 C   0  0  0  0  0  0  0  0  0  0  0  0
   -1.2613    2.4616   -0.6634 C   0  0  0  0  0  0  0  0  0  0  0  0
   -0.5951    3.6106   -0.7390 O   0  0  0  0  0  0  0  0  0  0  0  0
   -2.6635    2.4022   -0.5350 N   0  0  0  0  0  0  0  0  0  0  0  0
   -3.5590    3.5192   -0.5131 C   0  0  0  0  0  0  0  0  0  0  0  0
   -4.8407    3.4045   -1.0786 C   0  0  0  0  0  0  0  0  0  0  0  0
   -5.7174    4.4922   -1.0596 C   0  0  0  0  0  0  0  0  0  0  0  0
   -5.3139    5.6901   -0.4836 C   0  0  0  0  0  0  0  0  0  0  0  0
   -6.1567    6.7307   -0.4661 F   0  0  0  0  0  0  0  0  0  0  0  0
   -4.0464    5.8250    0.0682 C   0  0  0  0  0  0  0  0  0  0  0  0
   -3.1636    4.7417    0.0495 C   0  0  0  0  0  0  0  0  0  0  0  0
   -3.0340    1.0439   -0.4674 C   0  0  0  0  0  0  0  0  0  0  0  0
   -4.2582    0.5992   -0.1868 O   0  0  0  0  0  0  0  0  0  0  0  0
    0.4483    0.4315   -0.9982 C   0  0  1  0  0  0  0  0  0  0  0  0
    1.5273    0.6654    0.0724 C   0  0  0  0  0  0  0  0  0  0  0  0
    2.6622   -0.2433   -0.1012 N   0  0  0  0  0  0  0  0  0  0  0  0
    3.9419    0.1983    0.1611 C   0  0  0  0  0  0  0  0  0  0  0  0
    4.1924    1.3148    0.5953 O   0  0  0  0  0  0  0  0  0  0  0  0
    4.8718   -0.7470   -0.1268 O   0  0  0  0  0  0  0  0  0  0  0  0
    6.2861   -0.4905    0.0685 C   0  0  0  0  0  0  0  0  0  0  0  0
    6.9794   -1.7899   -0.3700 C   0  0  0  0  0  0  0  0  0  0  0  0
    6.7755    0.6513   -0.8292 C   0  0  0  0  0  0  0  0  0  0  0  0
    6.6085   -0.2385    1.5454 C   0  0  0  0  0  0  0  0  0  0  0  0
    2.3721   -1.5767   -0.6414 C   0  0  0  0  0  0  0  0  0  0  0  0
    0.8908   -1.9676   -0.4669 C   0  0  0  0  0  0  0  0  0  0  0  0
   -0.0137   -0.9940   -1.0733 N   0  0  0  0  0  0  0  0  0  0  0  0
   -5.2092   -4.6830    1.1240 H   0  0  0  0  0  0  0  0  0  0  0  0
   -4.2357   -5.0379   -0.3044 H   0  0  0  0  0  0  0  0  0  0  0  0
   -3.8138   -5.7960    1.2208 H   0  0  0  0  0  0  0  0  0  0  0  0
   -1.9914   -2.0868    3.8674 H   0  0  0  0  0  0  0  0  0  0  0  0
   -1.0141   -0.6463    2.1034 H   0  0  0  0  0  0  0  0  0  0  0  0
   -3.4600   -3.6130   -1.7086 H   0  0  0  0  0  0  0  0  0  0  0  0
    0.3311    3.4168   -0.9669 H   0  0  0  0  0  0  0  0  0  0  0  0
   -5.1582    2.4978   -1.5906 H   0  0  0  0  0  0  0  0  0  0  0  0
   -6.7042    4.4178   -1.5059 H   0  0  0  0  0  0  0  0  0  0  0  0
   -3.7505    6.7714    0.5099 H   0  0  0  0  0  0  0  0  0  0  0  0
   -2.1853    4.8684    0.5061 H   0  0  0  0  0  0  0  0  0  0  0  0
   -4.7535    1.3040    0.2678 H   0  0  0  0  0  0  0  0  0  0  0  0
    0.8578    0.6928   -1.9824 H   0  0  0  0  0  0  0  0  0  0  0  0
    1.1279    0.4859    1.0788 H   0  0  0  0  0  0  0  0  0  0  0  0
    1.8659    1.7075    0.0481 H   0  0  0  0  0  0  0  0  0  0  0  0
    6.6248   -2.6404    0.2240 H   0  0  0  0  0  0  0  0  0  0  0  0
    8.0677   -1.7255   -0.2671 H   0  0  0  0  0  0  0  0  0  0  0  0
    6.7439   -2.0241   -1.4148 H   0  0  0  0  0  0  0  0  0  0  0  0
    6.3697    1.6191   -0.5197 H   0  0  0  0  0  0  0  0  0  0  0  0
    7.8676    0.7341   -0.8089 H   0  0  0  0  0  0  0  0  0  0  0  0
    6.4567    0.4939   -1.8656 H   0  0  0  0  0  0  0  0  0  0  0  0
    6.1740   -1.0210    2.1774 H   0  0  0  0  0  0  0  0  0  0  0  0
    7.6898   -0.2115    1.7176 H   0  0  0  0  0  0  0  0  0  0  0  0
    6.1980    0.7126    1.8975 H   0  0  0  0  0  0  0  0  0  0  0  0
    2.6418   -1.5628   -1.7044 H   0  0  0  0  0  0  0  0  0  0  0  0
    3.0111   -2.3158   -0.1457 H   0  0  0  0  0  0  0  0  0  0  0  0
    0.7181   -2.0577    0.6101 H   0  0  0  0  0  0  0  0  0  0  0  0
    0.7229   -2.9540   -0.9129 H   0  0  0  0  0  0  0  0  0  0  0  0
  1  2  1  0
  2  3  2  0
  3  4  1  0
  3  5  1  0
  5  6  2  0
  6  7  1  0
  7  8  2  0
  8  9  1  0
  9 10  1  0
 10 11  2  0
 10 12  1  0
 12 13  1  0
 13 14  1  0
 14 15  2  0
 15 16  1  0
 15 17  1  0
 17 18  1  0
 18 19  2  0
 19 20  1  0
 20 21  2  0
 21 22  1  0
 21 23  1  0
 23 24  2  0
 17 25  1  0
 25 26  1  0
 14 27  1  0
 27 28  1  0
 28 29  1  0
 29 30  1  0
 30 31  2  0
 30 32  1  0
 32 33  1  0
 33 34  1  0
 33 35  1  0
 33 36  1  0
 29 37  1  0
 37 38  1  0
 38 39  1  0
  8  2  1  0
 12 39  1  6
 12  7  1  0
 25 13  2  0
 39 27  1  0
 24 18  1  0
  1 40  1  0
  1 41  1  0
  1 42  1  0
  5 43  1  0
  6 44  1  0
  9 45  1  0
 16 46  1  0
 19 47  1  0
 20 48  1  0
 23 49  1  0
 24 50  1  0
 26 51  1  0
 27 52  1  6
 28 53  1  0
 28 54  1  0
 34 55  1  0
 34 56  1  0
 34 57  1  0
 35 58  1  0
 35 59  1  0
 35 60  1  0
 36 61  1  0
 36 62  1  0
 36 63  1  0
 37 64  1  0
 37 65  1  0
 38 66  1  0
 38 67  1  0
M  END
$$$$
