
     RDKit          3D

 47 49  0  0  0  0  0  0  0  0999 V2000
   -2.8156   -1.7986    2.7630 O   0  0  0  0  0  0  0  0  0  0  0  0
   -3.1072   -1.2515    1.7033 C   0  0  0  0  0  0  0  0  0  0  0  0
   -4.5725   -0.9773    1.3492 C   0  0  0  0  0  0  0  0  0  0  0  0
   -4.7014   -0.4719    0.0211 O   0  0  0  0  0  0  0  0  0  0  0  0
   -5.9704   -0.2215   -0.4239 C   0  0  0  0  0  0  0  0  0  0  0  0
   -7.1407   -0.3296    0.3301 C   0  0  0  0  0  0  0  0  0  0  0  0
   -8.3801   -0.0391   -0.2518 C   0  0  0  0  0  0  0  0  0  0  0  0
   -8.4477    0.3588   -1.5860 C   0  0  0  0  0  0  0  0  0  0  0  0
  -10.1245    0.7491   -2.3671 Br  0  0  0  0  0  0  0  0  0  0  0  0
   -7.2869    0.4703   -2.3458 C   0  0  0  0  0  0  0  0  0  0  0  0
   -6.0514    0.1804   -1.7615 C   0  0  0  0  0  0  0  0  0  0  0  0
   -2.2270   -0.8008    0.7363 N   0  0  0  0  0  0  0  0  0  0  0  0
   -0.8230   -0.8738    0.7340 C   0  0  0  0  0  0  0  0  0  0  0  0
   -0.1582   -0.3189   -0.3676 C   0  0  0  0  0  0  0  0  0  0  0  0
    1.2390   -0.3438   -0.4495 C   0  0  0  0  0  0  0  0  0  0  0  0
    1.9894   -0.9266    0.5768 C   0  0  0  0  0  0  0  0  0  0  0  0
    3.4807   -0.9818    0.5395 C   0  0  0  0  0  0  0  0  0  0  0  0
    4.0383   -1.9434    1.0554 O   0  0  0  0  0  0  0  0  0  0  0  0
    4.0905    0.0971   -0.0703 N   0  0  0  0  0  0  0  0  0  0  0  0
    5.4759    0.3290   -0.2745 C   0  0  0  0  0  0  0  0  0  0  0  0
    6.4519   -0.5941    0.1200 C   0  0  0  0  0  0  0  0  0  0  0  0
    7.8119   -0.3386   -0.0839 C   0  0  0  0  0  0  0  0  0  0  0  0
    8.2216    0.8440   -0.6878 C   0  0  0  0  0  0  0  0  0  0  0  0
    7.2691    1.7748   -1.0960 C   0  0  0  0  0  0  0  0  0  0  0  0
    5.8985    1.5280   -0.8973 C   0  0  0  0  0  0  0  0  0  0  0  0
    4.8993    2.5344   -1.3530 C   0  0  0  0  0  0  0  0  0  0  0  0
    3.6883    2.4287   -1.2491 O   0  0  0  0  0  0  0  0  0  0  0  0
    5.4504    3.6213   -1.9207 O   0  0  0  0  0  0  0  0  0  0  0  0
    1.3269   -1.4971    1.6695 C   0  0  0  0  0  0  0  0  0  0  0  0
   -0.0705   -1.4651    1.7498 C   0  0  0  0  0  0  0  0  0  0  0  0
   -4.9405   -0.2400    2.0718 H   0  0  0  0  0  0  0  0  0  0  0  0
   -5.1099   -1.9279    1.4439 H   0  0  0  0  0  0  0  0  0  0  0  0
   -7.1302   -0.6367    1.3716 H   0  0  0  0  0  0  0  0  0  0  0  0
   -9.2848   -0.1280    0.3450 H   0  0  0  0  0  0  0  0  0  0  0  0
   -7.3304    0.7757   -3.3882 H   0  0  0  0  0  0  0  0  0  0  0  0
   -5.1468    0.2633   -2.3582 H   0  0  0  0  0  0  0  0  0  0  0  0
   -2.6713   -0.3693   -0.0695 H   0  0  0  0  0  0  0  0  0  0  0  0
   -0.7167    0.1420   -1.1792 H   0  0  0  0  0  0  0  0  0  0  0  0
    1.7169    0.0778   -1.3300 H   0  0  0  0  0  0  0  0  0  0  0  0
    3.4846    0.8609   -0.3706 H   0  0  0  0  0  0  0  0  0  0  0  0
    6.1891   -1.5333    0.5967 H   0  0  0  0  0  0  0  0  0  0  0  0
    8.5484   -1.0719    0.2380 H   0  0  0  0  0  0  0  0  0  0  0  0
    9.2797    1.0402   -0.8419 H   0  0  0  0  0  0  0  0  0  0  0  0
    7.6085    2.6948   -1.5680 H   0  0  0  0  0  0  0  0  0  0  0  0
    4.6892    4.1908   -2.1619 H   0  0  0  0  0  0  0  0  0  0  0  0
    1.8970   -1.9655    2.4712 H   0  0  0  0  0  0  0  0  0  0  0  0
   -0.5375   -1.9153    2.6206 H   0  0  0  0  0  0  0  0  0  0  0  0
  1  2  2  0
  2  3  1  0
  3  4  1  0
  4  5  1  0
  5  6  2  0
  6  7  1  0
  7  8  2  0
  8  9  1  0
  8 10  1  0
 10 11  2  0
  2 12  1  0
 12 13  1  0
 13 14  2  0
 14 15  1  0
 15 16  2  0
 16 17  1  0
 17 18  2  0
 17 19  1  0
 19 20  1  0
 20 21  2  0
 21 22  1  0
 22 23  2  0
 23 24  1  0
 24 25  2  0
 25 26  1  0
 26 27  2  0
 26 28  1  0
 16 29  1  0
 29 30  2  0
 11  5  1  0
 30 13  1  0
 25 20  1  0
  3 31  1  0
  3 32  1  0
  6 33  1  0
  7 34  1  0
 10 35  1  0
 11 36  1  0
 12 37  1  0
 14 38  1  0
 15 39  1  0
 19 40  1  0
 21 41  1  0
 22 42  1  0
 23 43  1  0
 24 44  1  0
 28 45  1  0
 29 46  1  0
 30 47  1  0
M  END
$$$$
