
     RDKit          3D

 51 55  0  0  0  0  0  0  0  0999 V2000
    6.8723    3.7029    1.5529 Cl  0  0  0  0  0  0  0  0  0  0  0  0
    6.1382    2.2609    0.9466 C   0  0  0  0  0  0  0  0  0  0  0  0
    6.6225    1.0375    1.4176 C   0  0  0  0  0  0  0  0  0  0  0  0
    6.0678   -0.1616    0.9635 C   0  0  0  0  0  0  0  0  0  0  0  0
    5.0245   -0.1515    0.0290 C   0  0  0  0  0  0  0  0  0  0  0  0
    4.4108   -1.4472   -0.4512 C   0  0  0  0  0  0  0  0  0  0  0  0
    3.2012   -1.9020    0.3880 C   0  0  0  0  0  0  0  0  0  0  0  0
    2.0165   -1.0310    0.2745 N   0  0  0  0  0  0  0  0  0  0  0  0
    1.0440   -1.3426    1.3477 C   0  0  0  0  0  0  0  0  0  0  0  0
   -0.2377   -0.4878    1.2599 C   0  0  0  0  0  0  0  0  0  0  0  0
   -0.8830   -0.6557   -0.0577 N   0  0  0  0  0  0  0  0  0  0  0  0
   -2.1997   -0.2172   -0.1882 C   0  0  0  0  0  0  0  0  0  0  0  0
   -2.4686    0.7698   -1.0053 N   0  0  0  0  0  0  0  0  0  0  0  0
   -3.7851    1.2552   -1.1342 C   0  0  0  0  0  0  0  0  0  0  0  0
   -4.0158    2.3224   -2.0044 C   0  0  0  0  0  0  0  0  0  0  0  0
   -5.3006    2.8487   -2.1635 C   0  0  0  0  0  0  0  0  0  0  0  0
   -6.3717    2.3097   -1.4497 C   0  0  0  0  0  0  0  0  0  0  0  0
   -6.1651    1.2429   -0.5744 C   0  0  0  0  0  0  0  0  0  0  0  0
   -4.8740    0.7276   -0.4252 C   0  0  0  0  0  0  0  0  0  0  0  0
   -4.5788   -0.3502    0.4249 N   0  0  0  0  0  0  0  0  0  0  0  0
   -5.4163   -1.0917    1.2246 C   0  0  0  0  0  0  0  0  0  0  0  0
   -4.6720   -2.0862    1.8222 C   0  0  0  0  0  0  0  0  0  0  0  0
   -3.3375   -1.9338    1.3800 C   0  0  0  0  0  0  0  0  0  0  0  0
   -3.2951   -0.8328    0.5433 C   0  0  0  0  0  0  0  0  0  0  0  0
    0.0572   -0.3248   -1.1481 C   0  0  0  0  0  0  0  0  0  0  0  0
    1.3417   -1.1755   -1.0371 C   0  0  0  0  0  0  0  0  0  0  0  0
    4.5414    1.0804   -0.4364 C   0  0  0  0  0  0  0  0  0  0  0  0
    5.0934    2.2828    0.0178 C   0  0  0  0  0  0  0  0  0  0  0  0
    4.4390    3.7552   -0.6070 Cl  0  0  0  0  0  0  0  0  0  0  0  0
    7.4329    1.0107    2.1422 H   0  0  0  0  0  0  0  0  0  0  0  0
    6.4558   -1.1035    1.3464 H   0  0  0  0  0  0  0  0  0  0  0  0
    5.1769   -2.2328   -0.4074 H   0  0  0  0  0  0  0  0  0  0  0  0
    4.1537   -1.3628   -1.5134 H   0  0  0  0  0  0  0  0  0  0  0  0
    2.9406   -2.9317    0.1102 H   0  0  0  0  0  0  0  0  0  0  0  0
    3.5234   -1.9363    1.4376 H   0  0  0  0  0  0  0  0  0  0  0  0
    1.5077   -1.1568    2.3239 H   0  0  0  0  0  0  0  0  0  0  0  0
    0.7675   -2.4051    1.3101 H   0  0  0  0  0  0  0  0  0  0  0  0
   -0.9068   -0.7851    2.0731 H   0  0  0  0  0  0  0  0  0  0  0  0
    0.0061    0.5712    1.4157 H   0  0  0  0  0  0  0  0  0  0  0  0
   -3.1831    2.7460   -2.5597 H   0  0  0  0  0  0  0  0  0  0  0  0
   -5.4627    3.6802   -2.8446 H   0  0  0  0  0  0  0  0  0  0  0  0
   -7.3695    2.7227   -1.5772 H   0  0  0  0  0  0  0  0  0  0  0  0
   -7.0131    0.8393   -0.0318 H   0  0  0  0  0  0  0  0  0  0  0  0
   -6.4718   -0.8750    1.2997 H   0  0  0  0  0  0  0  0  0  0  0  0
   -5.0534   -2.8441    2.4945 H   0  0  0  0  0  0  0  0  0  0  0  0
   -2.4951   -2.5605    1.6406 H   0  0  0  0  0  0  0  0  0  0  0  0
   -0.4076   -0.5336   -2.1194 H   0  0  0  0  0  0  0  0  0  0  0  0
    0.3116    0.7425   -1.1168 H   0  0  0  0  0  0  0  0  0  0  0  0
    1.0840   -2.2285   -1.2134 H   0  0  0  0  0  0  0  0  0  0  0  0
    2.0138   -0.8628   -1.8429 H   0  0  0  0  0  0  0  0  0  0  0  0
    3.7200    1.1016   -1.1496 H   0  0  0  0  0  0  0  0  0  0  0  0
  1  2  1  0
  2  3  2  0
  3  4  1  0
  4  5  2  0
  5  6  1  0
  6  7  1  0
  7  8  1  0
  8  9  1  0
  9 10  1  0
 10 11  1  0
 11 12  1  0
 12 13  2  0
 13 14  1  0
 14 15  2  0
 15 16  1  0
 16 17  2  0
 17 18  1  0
 18 19  2  0
 19 20  1  0
 20 21  1  0
 21 22  2  0
 22 23  1  0
 23 24  2  0
 11 25  1  0
 25 26  1  0
  5 27  1  0
 27 28  2  0
 28 29  1  0
 28  2  1  0
 26  8  1  0
 24 12  1  0
 19 14  1  0
 24 20  1  0
  3 30  1  0
  4 31  1  0
  6 32  1  0
  6 33  1  0
  7 34  1  0
  7 35  1  0
  9 36  1  0
  9 37  1  0
 10 38  1  0
 10 39  1  0
 15 40  1  0
 16 41  1  0
 17 42  1  0
 18 43  1  0
 21 44  1  0
 22 45  1  0
 23 46  1  0
 25 47  1  0
 25 48  1  0
 26 49  1  0
 26 50  1  0
 27 51  1  0
M  END
$$$$
