
     RDKit          3D

 36 37  0  0  0  0  0  0  0  0999 V2000
   -0.8608   -0.9703   -1.6967 C   0  0  0  0  0  0  0  0  0  0  0  0
   -1.5305    0.3980   -1.6039 C   0  0  0  0  0  0  0  0  0  0  0  0
   -2.1631    0.7576   -0.3350 N   0  0  0  0  0  0  0  0  0  0  0  0
   -3.1464   -0.1829    0.2070 C   0  0  0  0  0  0  0  0  0  0  0  0
   -4.3891   -0.3789   -0.6850 C   0  0  0  0  0  0  0  0  0  0  0  0
   -4.1600   -1.2766   -1.7664 O   0  0  0  0  0  0  0  0  0  0  0  0
   -1.2983    1.4052    0.6541 C   0  0  0  0  0  0  0  0  0  0  0  0
   -0.2843    0.4988    1.2966 C   0  0  0  0  0  0  0  0  0  0  0  0
   -0.5735   -0.3864    2.3186 C   0  0  0  0  0  0  0  0  0  0  0  0
    0.7819   -1.2619    2.8531 S   0  0  0  0  0  0  0  0  0  0  0  0
    1.8303   -0.4430    1.7648 C   0  0  0  0  0  0  0  0  0  0  0  0
    3.2207   -0.6396    1.6291 C   0  0  0  0  0  0  0  0  0  0  0  0
    3.9399    0.1234    0.7000 C   0  0  0  0  0  0  0  0  0  0  0  0
    5.4137   -0.0992    0.5236 C   0  0  0  0  0  0  0  0  0  0  0  0
    3.2667    1.0460   -0.0948 C   0  0  0  0  0  0  0  0  0  0  0  0
    1.8869    1.2357    0.0427 C   0  0  0  0  0  0  0  0  0  0  0  0
    1.1362    0.4869    0.9858 C   0  0  0  0  0  0  0  0  0  0  0  0
   -1.5630   -1.7889   -1.5225 H   0  0  0  0  0  0  0  0  0  0  0  0
   -0.4488   -1.1069   -2.7026 H   0  0  0  0  0  0  0  0  0  0  0  0
   -0.0350   -1.0802   -0.9931 H   0  0  0  0  0  0  0  0  0  0  0  0
   -0.7971    1.1661   -1.8804 H   0  0  0  0  0  0  0  0  0  0  0  0
   -2.2888    0.4569   -2.3942 H   0  0  0  0  0  0  0  0  0  0  0  0
   -2.6856   -1.1527    0.4242 H   0  0  0  0  0  0  0  0  0  0  0  0
   -3.5212    0.2179    1.1573 H   0  0  0  0  0  0  0  0  0  0  0  0
   -4.7364    0.5759   -1.0934 H   0  0  0  0  0  0  0  0  0  0  0  0
   -5.2060   -0.7954   -0.0857 H   0  0  0  0  0  0  0  0  0  0  0  0
   -3.8337   -2.1103   -1.3884 H   0  0  0  0  0  0  0  0  0  0  0  0
   -1.9209    1.8499    1.4425 H   0  0  0  0  0  0  0  0  0  0  0  0
   -0.8010    2.2660    0.1913 H   0  0  0  0  0  0  0  0  0  0  0  0
   -1.5354   -0.5672    2.7776 H   0  0  0  0  0  0  0  0  0  0  0  0
    3.7256   -1.3777    2.2472 H   0  0  0  0  0  0  0  0  0  0  0  0
    5.5872   -0.8786   -0.2248 H   0  0  0  0  0  0  0  0  0  0  0  0
    5.8783   -0.4041    1.4672 H   0  0  0  0  0  0  0  0  0  0  0  0
    5.9120    0.8204    0.1994 H   0  0  0  0  0  0  0  0  0  0  0  0
    3.8076    1.6319   -0.8353 H   0  0  0  0  0  0  0  0  0  0  0  0
    1.3920    1.9642   -0.5944 H   0  0  0  0  0  0  0  0  0  0  0  0
  1  2  1  0
  2  3  1  0
  3  4  1  0
  4  5  1  0
  5  6  1  0
  3  7  1  0
  7  8  1  0
  8  9  2  0
  9 10  1  0
 10 11  1  0
 11 12  2  0
 12 13  1  0
 13 14  1  0
 13 15  2  0
 15 16  1  0
 16 17  2  0
 17  8  1  0
 17 11  1  0
  1 18  1  0
  1 19  1  0
  1 20  1  0
  2 21  1  0
  2 22  1  0
  4 23  1  0
  4 24  1  0
  5 25  1  0
  5 26  1  0
  6 27  1  0
  7 28  1  0
  7 29  1  0
  9 30  1  0
 12 31  1  0
 14 32  1  0
 14 33  1  0
 14 34  1  0
 15 35  1  0
 16 36  1  0
M  END
$$$$
