
     RDKit          3D

 43 46  0  0  0  0  0  0  0  0999 V2000
    5.9898    1.4386   -1.9388 C   0  0  0  0  0  0  0  0  0  0  0  0
    4.6385    1.1499   -1.3522 C   0  0  0  0  0  0  0  0  0  0  0  0
    3.4823    1.6587   -1.9506 C   0  0  0  0  0  0  0  0  0  0  0  0
    2.2256    1.4161   -1.3880 C   0  0  0  0  0  0  0  0  0  0  0  0
    2.1124    0.6653   -0.2123 C   0  0  0  0  0  0  0  0  0  0  0  0
    0.6959    0.3981    0.4114 C   0  0  0  0  0  0  0  0  0  0  0  0
   -0.5154    0.9002   -0.0492 C   0  0  0  0  0  0  0  0  0  0  0  0
   -1.5422    0.4501    0.7853 N   0  0  0  0  0  4  0  0  0  0  0  0
   -2.9652    0.7521    0.6606 C   0  0  0  0  0  0  0  0  0  0  0  0
   -3.5000    0.1135   -0.5948 C   0  0  0  0  0  0  0  0  0  0  0  0
   -4.0632    0.8998   -1.6122 C   0  0  0  0  0  0  0  0  0  0  0  0
   -4.5574    0.3074   -2.7773 C   0  0  0  0  0  0  0  0  0  0  0  0
   -4.4964   -1.0760   -2.9402 C   0  0  0  0  0  0  0  0  0  0  0  0
   -3.9444   -1.8638   -1.9349 C   0  0  0  0  0  0  0  0  0  0  0  0
   -3.8614   -3.5703   -2.1267 Cl  0  0  0  0  0  0  0  0  0  0  0  0
   -3.4518   -1.2795   -0.7673 C   0  0  0  0  0  0  0  0  0  0  0  0
   -0.9824   -0.3021    1.7251 C   0  0  0  0  0  0  0  0  0  0  0  0
    0.3283   -0.3563    1.5121 N   0  0  0  0  0  0  0  0  0  0  0  0
    1.0048   -1.1983    2.4882 C   0  0  0  0  0  0  0  0  0  0  0  0
   -0.1624   -1.9338    3.2037 C   0  0  0  0  0  0  0  0  0  0  0  0
   -1.4163   -1.0891    2.9020 C   0  0  0  0  0  0  0  0  0  0  0  0
    3.2656    0.1719    0.3982 C   0  0  0  0  0  0  0  0  0  0  0  0
    4.5213    0.4175   -0.1671 C   0  0  0  0  0  0  0  0  0  0  0  0
    6.6909    0.6256   -1.7226 H   0  0  0  0  0  0  0  0  0  0  0  0
    5.9301    1.5347   -3.0280 H   0  0  0  0  0  0  0  0  0  0  0  0
    6.3871    2.3693   -1.5222 H   0  0  0  0  0  0  0  0  0  0  0  0
    3.5556    2.2472   -2.8641 H   0  0  0  0  0  0  0  0  0  0  0  0
    1.3590    1.8249   -1.8989 H   0  0  0  0  0  0  0  0  0  0  0  0
   -0.7847    1.5353   -0.8762 H   0  0  0  0  0  0  0  0  0  0  0  0
   -3.0791    1.8418    0.6424 H   0  0  0  0  0  0  0  0  0  0  0  0
   -3.5062    0.3738    1.5343 H   0  0  0  0  0  0  0  0  0  0  0  0
   -4.1296    1.9825   -1.5122 H   0  0  0  0  0  0  0  0  0  0  0  0
   -4.9954    0.9237   -3.5605 H   0  0  0  0  0  0  0  0  0  0  0  0
   -4.8836   -1.5313   -3.8490 H   0  0  0  0  0  0  0  0  0  0  0  0
   -3.0285   -1.9180    0.0036 H   0  0  0  0  0  0  0  0  0  0  0  0
    1.5547   -0.5590    3.1848 H   0  0  0  0  0  0  0  0  0  0  0  0
    1.6733   -1.9092    1.9975 H   0  0  0  0  0  0  0  0  0  0  0  0
    0.0140   -2.0675    4.2743 H   0  0  0  0  0  0  0  0  0  0  0  0
   -0.2837   -2.9274    2.7561 H   0  0  0  0  0  0  0  0  0  0  0  0
   -1.6401   -0.3704    3.6931 H   0  0  0  0  0  0  0  0  0  0  0  0
   -2.2875   -1.6866    2.6312 H   0  0  0  0  0  0  0  0  0  0  0  0
    3.2340   -0.3930    1.3204 H   0  0  0  0  0  0  0  0  0  0  0  0
    5.4138    0.0336    0.3251 H   0  0  0  0  0  0  0  0  0  0  0  0
  1  2  1  0
  2  3  2  0
  3  4  1  0
  4  5  2  0
  5  6  1  0
  6  7  2  0
  7  8  1  0
  8  9  1  0
  9 10  1  0
 10 11  2  0
 11 12  1  0
 12 13  2  0
 13 14  1  0
 14 15  1  0
 14 16  2  0
  8 17  2  0
 17 18  1  0
 18 19  1  0
 19 20  1  0
 20 21  1  0
  5 22  1  0
 22 23  2  0
 23  2  1  0
 18  6  1  0
 16 10  1  0
 21 17  1  0
  1 24  1  0
  1 25  1  0
  1 26  1  0
  3 27  1  0
  4 28  1  0
  7 29  1  0
  9 30  1  0
  9 31  1  0
 11 32  1  0
 12 33  1  0
 13 34  1  0
 16 35  1  0
 19 36  1  0
 19 37  1  0
 20 38  1  0
 20 39  1  0
 21 40  1  0
 21 41  1  0
 22 42  1  0
 23 43  1  0
M  CHG  1   8   1
M  END
$$$$
