
     RDKit          3D

 59 62  0  0  0  0  0  0  0  0999 V2000
    6.9700    4.0832    1.6280 C   0  0  0  0  0  0  0  0  0  0  0  0
    5.8106    3.3595    2.0269 O   0  0  0  0  0  0  0  0  0  0  0  0
    5.5851    2.1712    1.3931 C   0  0  0  0  0  0  0  0  0  0  0  0
    4.5638    1.3936    1.9446 C   0  0  0  0  0  0  0  0  0  0  0  0
    4.2053    0.1676    1.3708 C   0  0  0  0  0  0  0  0  0  0  0  0
    4.8633   -0.2893    0.2230 C   0  0  0  0  0  0  0  0  0  0  0  0
    4.5000   -1.5700   -0.4602 C   0  0  0  0  0  0  0  0  0  0  0  0
    5.3095   -2.0800   -1.2340 O   0  0  0  0  0  0  0  0  0  0  0  0
    3.1660   -2.2274   -0.1725 C   0  0  0  0  0  0  0  0  0  0  0  0
    1.8084   -1.2057   -0.8090 S   0  0  0  0  0  0  0  0  0  0  0  0
    0.4654   -1.9570   -0.0202 C   0  0  0  0  0  0  0  0  0  0  0  0
    0.4469   -3.1659    0.4860 N   0  0  0  0  0  0  0  0  0  0  0  0
   -0.7896   -3.3653    1.0472 N   0  0  0  0  0  0  0  0  0  0  0  0
   -1.5000   -2.2610    0.8874 C   0  0  0  0  0  0  0  0  0  0  0  0
   -2.8862   -2.0418    1.4123 C   0  0  0  0  0  0  0  0  0  0  0  0
   -3.9627   -2.4860    0.5173 N   0  0  0  0  0  0  0  0  0  0  0  0
   -4.4046   -1.5522   -0.4315 C   0  0  0  0  0  0  0  0  0  0  0  0
   -4.9827   -0.3490    0.0042 C   0  0  0  0  0  0  0  0  0  0  0  0
   -5.3959    0.6285   -0.9021 C   0  0  0  0  0  0  0  0  0  0  0  0
   -5.2493    0.4211   -2.2755 C   0  0  0  0  0  0  0  0  0  0  0  0
   -5.7149    1.4635   -3.2475 C   0  0  0  0  0  0  0  0  0  0  0  0
   -4.6974   -0.7861   -2.7223 C   0  0  0  0  0  0  0  0  0  0  0  0
   -4.2574   -1.7706   -1.8158 C   0  0  0  0  0  0  0  0  0  0  0  0
   -3.6291   -3.0200   -2.3634 C   0  0  0  0  0  0  0  0  0  0  0  0
   -0.7329   -1.3361    0.2147 N   0  0  0  0  0  0  0  0  0  0  0  0
   -1.0938    0.0309   -0.1058 C   0  0  0  0  0  0  0  0  0  0  0  0
   -0.7739    0.9654    1.0078 C   0  0  0  0  0  0  0  0  0  0  0  0
    0.0416    0.9175    2.1240 C   0  0  0  0  0  0  0  0  0  0  0  0
   -0.0993    2.1633    2.7851 C   0  0  0  0  0  0  0  0  0  0  0  0
   -0.9889    2.8947    2.0370 C   0  0  0  0  0  0  0  0  0  0  0  0
   -1.4080    2.1751    0.9624 O   0  0  0  0  0  0  0  0  0  0  0  0
    5.9039    0.4790   -0.3151 C   0  0  0  0  0  0  0  0  0  0  0  0
    6.2615    1.7033    0.2647 C   0  0  0  0  0  0  0  0  0  0  0  0
    6.8715    4.4427    0.5990 H   0  0  0  0  0  0  0  0  0  0  0  0
    7.8804    3.4825    1.7496 H   0  0  0  0  0  0  0  0  0  0  0  0
    7.0588    4.9560    2.2813 H   0  0  0  0  0  0  0  0  0  0  0  0
    4.0308    1.7533    2.8269 H   0  0  0  0  0  0  0  0  0  0  0  0
    3.4056   -0.3988    1.8410 H   0  0  0  0  0  0  0  0  0  0  0  0
    3.0777   -2.4131    0.9015 H   0  0  0  0  0  0  0  0  0  0  0  0
    3.1450   -3.2025   -0.6708 H   0  0  0  0  0  0  0  0  0  0  0  0
   -2.9783   -2.6441    2.3260 H   0  0  0  0  0  0  0  0  0  0  0  0
   -3.0208   -1.0064    1.7448 H   0  0  0  0  0  0  0  0  0  0  0  0
   -3.7304   -3.3874    0.1072 H   0  0  0  0  0  0  0  0  0  0  0  0
   -5.1354   -0.1745    1.0702 H   0  0  0  0  0  0  0  0  0  0  0  0
   -5.8450    1.5475   -0.5243 H   0  0  0  0  0  0  0  0  0  0  0  0
   -6.8056    1.5452   -3.2247 H   0  0  0  0  0  0  0  0  0  0  0  0
   -5.4067    1.2239   -4.2681 H   0  0  0  0  0  0  0  0  0  0  0  0
   -5.2788    2.4342   -2.9968 H   0  0  0  0  0  0  0  0  0  0  0  0
   -4.6030   -0.9626   -3.7941 H   0  0  0  0  0  0  0  0  0  0  0  0
   -4.2173   -3.8982   -2.0808 H   0  0  0  0  0  0  0  0  0  0  0  0
   -3.5827   -2.9970   -3.4611 H   0  0  0  0  0  0  0  0  0  0  0  0
   -2.6039   -3.1272   -1.9935 H   0  0  0  0  0  0  0  0  0  0  0  0
   -2.1604    0.0625   -0.3301 H   0  0  0  0  0  0  0  0  0  0  0  0
   -0.5769    0.3307   -1.0222 H   0  0  0  0  0  0  0  0  0  0  0  0
    0.6632    0.0884    2.4308 H   0  0  0  0  0  0  0  0  0  0  0  0
    0.3876    2.4907    3.6942 H   0  0  0  0  0  0  0  0  0  0  0  0
   -1.4024    3.8907    2.1227 H   0  0  0  0  0  0  0  0  0  0  0  0
    6.4358    0.1345   -1.1992 H   0  0  0  0  0  0  0  0  0  0  0  0
    7.0562    2.2749   -0.2031 H   0  0  0  0  0  0  0  0  0  0  0  0
  1  2  1  0
  2  3  1  0
  3  4  2  0
  4  5  1  0
  5  6  2  0
  6  7  1  0
  7  8  2  0
  7  9  1  0
  9 10  1  0
 10 11  1  0
 11 12  2  0
 12 13  1  0
 13 14  2  0
 14 15  1  0
 15 16  1  0
 16 17  1  0
 17 18  2  0
 18 19  1  0
 19 20  2  0
 20 21  1  0
 20 22  1  0
 22 23  2  0
 23 24  1  0
 14 25  1  0
 25 26  1  0
 26 27  1  0
 27 28  2  0
 28 29  1  0
 29 30  2  0
 30 31  1  0
  6 32  1  0
 32 33  2  0
 33  3  1  0
 25 11  1  0
 31 27  1  0
 23 17  1  0
  1 34  1  0
  1 35  1  0
  1 36  1  0
  4 37  1  0
  5 38  1  0
  9 39  1  0
  9 40  1  0
 15 41  1  0
 15 42  1  0
 16 43  1  0
 18 44  1  0
 19 45  1  0
 21 46  1  0
 21 47  1  0
 21 48  1  0
 22 49  1  0
 24 50  1  0
 24 51  1  0
 24 52  1  0
 26 53  1  0
 26 54  1  0
 28 55  1  0
 29 56  1  0
 30 57  1  0
 32 58  1  0
 33 59  1  0
M  END
$$$$
