
     RDKit          3D

 53 55  0  0  0  0  0  0  0  0999 V2000
   -7.5321   -5.0104    2.1375 C   0  0  0  0  0  0  0  0  0  0  0  0
   -6.5638   -4.6451    1.1626 O   0  0  0  0  0  0  0  0  0  0  0  0
   -5.7997   -3.5433    1.4351 C   0  0  0  0  0  0  0  0  0  0  0  0
   -5.7460   -2.8661    2.6571 C   0  0  0  0  0  0  0  0  0  0  0  0
   -4.9202   -1.7468    2.8060 C   0  0  0  0  0  0  0  0  0  0  0  0
   -4.1454   -1.3127    1.7276 C   0  0  0  0  0  0  0  0  0  0  0  0
   -3.1008    0.1103    1.8943 S   0  0  0  0  0  6  0  0  0  0  0  0
   -3.3847    0.9932    0.7846 O   0  0  0  0  0  0  0  0  0  0  0  0
   -3.1652    0.5758    3.2652 O   0  0  0  0  0  0  0  0  0  0  0  0
   -1.5544   -0.5362    1.6647 N   0  0  0  0  0  0  0  0  0  0  0  0
   -1.0479   -1.4600    2.7023 C   0  0  0  0  0  0  0  0  0  0  0  0
    0.0676   -0.6791    3.3593 C   0  0  0  0  0  0  0  0  0  0  0  0
    0.6206    0.0776    2.2801 O   0  0  0  0  0  0  0  0  0  0  0  0
   -0.5149    0.5068    1.4972 C   0  0  0  0  0  0  0  0  0  0  0  0
   -0.0857    0.6207    0.0257 C   0  0  0  0  0  0  0  0  0  0  0  0
    0.9471    1.6216   -0.1818 N   0  0  0  0  0  0  0  0  0  0  0  0
    1.3731    1.9521   -1.4475 C   0  0  0  0  0  0  0  0  0  0  0  0
    0.8641    1.5871   -2.4993 O   0  0  0  0  0  0  0  0  0  0  0  0
    2.6353    2.8450   -1.4686 C   0  0  0  0  0  0  0  0  0  0  0  0
    3.1592    3.1967   -0.4194 O   0  0  0  0  0  0  0  0  0  0  0  0
    3.0609    3.1538   -2.7388 N   0  0  0  0  0  0  0  0  0  0  0  0
    4.2829    3.8701   -2.9919 C   0  0  0  0  0  0  0  0  0  0  0  0
    5.4372    2.9220   -3.1964 C   0  0  0  0  0  0  0  0  0  0  0  0
    6.2108    2.5040   -2.1010 C   0  0  0  0  0  0  0  0  0  0  0  0
    7.2707    1.6151   -2.2820 C   0  0  0  0  0  0  0  0  0  0  0  0
    7.5521    1.1368   -3.5549 C   0  0  0  0  0  0  0  0  0  0  0  0
    8.5701    0.2841   -3.7284 F   0  0  0  0  0  0  0  0  0  0  0  0
    6.7910    1.5266   -4.6508 C   0  0  0  0  0  0  0  0  0  0  0  0
    5.7304    2.4166   -4.4726 C   0  0  0  0  0  0  0  0  0  0  0  0
   -4.1906   -1.9810    0.5024 C   0  0  0  0  0  0  0  0  0  0  0  0
   -5.0148   -3.0990    0.3649 C   0  0  0  0  0  0  0  0  0  0  0  0
   -7.0488   -5.3748    3.0501 H   0  0  0  0  0  0  0  0  0  0  0  0
   -8.2125   -4.1789    2.3549 H   0  0  0  0  0  0  0  0  0  0  0  0
   -8.1298   -5.8301    1.7258 H   0  0  0  0  0  0  0  0  0  0  0  0
   -6.3332   -3.1849    3.5127 H   0  0  0  0  0  0  0  0  0  0  0  0
   -4.8936   -1.2231    3.7599 H   0  0  0  0  0  0  0  0  0  0  0  0
   -0.6530   -2.3455    2.1893 H   0  0  0  0  0  0  0  0  0  0  0  0
   -1.7978   -1.7929    3.4234 H   0  0  0  0  0  0  0  0  0  0  0  0
   -0.3087    0.0145    4.1204 H   0  0  0  0  0  0  0  0  0  0  0  0
    0.8331   -1.3221    3.8039 H   0  0  0  0  0  0  0  0  0  0  0  0
   -0.8270    1.4819    1.8915 H   0  0  0  0  0  0  0  0  0  0  0  0
    0.3278   -0.3332   -0.3239 H   0  0  0  0  0  0  0  0  0  0  0  0
   -0.9385    0.8664   -0.6165 H   0  0  0  0  0  0  0  0  0  0  0  0
    1.6126    1.8046    0.5678 H   0  0  0  0  0  0  0  0  0  0  0  0
    2.5714    2.6946   -3.5031 H   0  0  0  0  0  0  0  0  0  0  0  0
    4.4952    4.5578   -2.1643 H   0  0  0  0  0  0  0  0  0  0  0  0
    4.1297    4.4807   -3.8884 H   0  0  0  0  0  0  0  0  0  0  0  0
    5.9845    2.8687   -1.1004 H   0  0  0  0  0  0  0  0  0  0  0  0
    7.8734    1.2922   -1.4392 H   0  0  0  0  0  0  0  0  0  0  0  0
    7.0268    1.1342   -5.6342 H   0  0  0  0  0  0  0  0  0  0  0  0
    5.1354    2.7133   -5.3337 H   0  0  0  0  0  0  0  0  0  0  0  0
   -3.5969   -1.6370   -0.3418 H   0  0  0  0  0  0  0  0  0  0  0  0
   -5.0568   -3.6249   -0.5877 H   0  0  0  0  0  0  0  0  0  0  0  0
  1  2  1  0
  2  3  1  0
  3  4  2  0
  4  5  1  0
  5  6  2  0
  6  7  1  0
  7  8  2  0
  7  9  2  0
  7 10  1  0
 10 11  1  0
 11 12  1  0
 12 13  1  0
 13 14  1  0
 14 15  1  0
 15 16  1  0
 16 17  1  0
 17 18  2  0
 17 19  1  0
 19 20  2  0
 19 21  1  0
 21 22  1  0
 22 23  1  0
 23 24  2  0
 24 25  1  0
 25 26  2  0
 26 27  1  0
 26 28  1  0
 28 29  2  0
  6 30  1  0
 30 31  2  0
 31  3  1  0
 14 10  1  0
 29 23  1  0
  1 32  1  0
  1 33  1  0
  1 34  1  0
  4 35  1  0
  5 36  1  0
 11 37  1  0
 11 38  1  0
 12 39  1  0
 12 40  1  0
 14 41  1  0
 15 42  1  0
 15 43  1  0
 16 44  1  0
 21 45  1  0
 22 46  1  0
 22 47  1  0
 24 48  1  0
 25 49  1  0
 28 50  1  0
 29 51  1  0
 30 52  1  0
 31 53  1  0
M  END
$$$$
