
     RDKit          3D

 33 35  0  0  0  0  0  0  0  0999 V2000
   -2.4822   -0.6739    2.1918 O   0  0  0  0  0  0  0  0  0  0  0  0
   -2.2413   -0.3621    1.0308 C   0  0  0  0  0  0  0  0  0  0  0  0
   -0.9956   -0.1790    0.4829 N   0  0  0  0  0  0  0  0  0  0  0  0
    0.2502   -0.3432    1.0955 C   0  0  0  0  0  0  0  0  0  0  0  0
    0.4197   -0.7136    2.4085 C   0  0  0  0  0  0  0  0  0  0  0  0
    1.7198   -0.8229    2.8370 C   0  0  0  0  0  0  0  0  0  0  0  0
    2.7842   -0.5901    2.0504 N   0  0  0  0  0  0  0  0  0  0  0  0
    2.5238   -0.2354    0.7796 C   0  0  0  0  0  0  0  0  0  0  0  0
    3.6632    0.0223   -0.1109 C   0  0  0  0  0  0  0  0  0  0  0  0
    3.5060    0.3613   -1.4647 C   0  0  0  0  0  0  0  0  0  0  0  0
    4.6158    0.5978   -2.2764 C   0  0  0  0  0  0  0  0  0  0  0  0
    5.8741    0.4904   -1.7133 C   0  0  0  0  0  0  0  0  0  0  0  0
    6.0858    0.1691   -0.4219 N   0  0  0  0  0  0  0  0  0  0  0  0
    4.9820   -0.0558    0.3396 C   0  0  0  0  0  0  0  0  0  0  0  0
    1.2836   -0.0999    0.2701 N   0  0  0  0  0  0  0  0  0  0  0  0
   -3.3950   -0.0783    0.1324 C   0  0  0  0  0  0  0  0  0  0  0  0
   -4.4517    0.6506    0.7090 C   0  0  0  0  0  0  0  0  0  0  0  0
   -5.5796    0.9820   -0.0382 C   0  0  0  0  0  0  0  0  0  0  0  0
   -5.6656    0.5815   -1.3680 C   0  0  0  0  0  0  0  0  0  0  0  0
   -4.6300   -0.1592   -1.9491 C   0  0  0  0  0  0  0  0  0  0  0  0
   -4.8339   -0.6212   -3.6055 Cl  0  0  0  0  0  0  0  0  0  0  0  0
   -3.4876   -0.5021   -1.2040 C   0  0  0  0  0  0  0  0  0  0  0  0
   -2.2440   -1.4712   -1.9303 Cl  0  0  0  0  0  0  0  0  0  0  0  0
   -0.9096    0.0740   -0.4934 H   0  0  0  0  0  0  0  0  0  0  0  0
   -0.3945   -0.9151    3.0884 H   0  0  0  0  0  0  0  0  0  0  0  0
    1.9491   -1.1110    3.8592 H   0  0  0  0  0  0  0  0  0  0  0  0
    2.5109    0.4412   -1.8975 H   0  0  0  0  0  0  0  0  0  0  0  0
    4.4973    0.8583   -3.3221 H   0  0  0  0  0  0  0  0  0  0  0  0
    6.7701    0.6641   -2.3020 H   0  0  0  0  0  0  0  0  0  0  0  0
    5.2066   -0.3127    1.3732 H   0  0  0  0  0  0  0  0  0  0  0  0
   -4.3933    0.9639    1.7516 H   0  0  0  0  0  0  0  0  0  0  0  0
   -6.3894    1.5483    0.4172 H   0  0  0  0  0  0  0  0  0  0  0  0
   -6.5487    0.8419   -1.9484 H   0  0  0  0  0  0  0  0  0  0  0  0
  1  2  2  0
  2  3  1  0
  3  4  1  0
  4  5  2  0
  5  6  1  0
  6  7  2  0
  7  8  1  0
  8  9  1  0
  9 10  2  0
 10 11  1  0
 11 12  2  0
 12 13  1  0
 13 14  2  0
  8 15  2  0
  2 16  1  0
 16 17  2  0
 17 18  1  0
 18 19  2  0
 19 20  1  0
 20 21  1  0
 20 22  2  0
 22 23  1  0
 15  4  1  0
 22 16  1  0
 14  9  1  0
  3 24  1  0
  5 25  1  0
  6 26  1  0
 10 27  1  0
 11 28  1  0
 12 29  1  0
 14 30  1  0
 17 31  1  0
 18 32  1  0
 19 33  1  0
M  END
$$$$
