
     RDKit          3D

 61 65  0  0  0  0  0  0  0  0999 V2000
   -8.8656    2.7829    0.5079 C   0  0  0  0  0  0  0  0  0  0  0  0
   -8.2919    1.4899    0.4861 O   0  0  0  0  0  0  0  0  0  0  0  0
   -6.9226    1.4111    0.5522 C   0  0  0  0  0  0  0  0  0  0  0  0
   -6.0674    2.5178    0.6160 C   0  0  0  0  0  0  0  0  0  0  0  0
   -4.6835    2.3360    0.6933 C   0  0  0  0  0  0  0  0  0  0  0  0
   -4.1250    1.0504    0.7032 C   0  0  0  0  0  0  0  0  0  0  0  0
   -2.6780    0.8999    0.8344 C   0  0  0  0  0  0  0  0  0  0  0  0
   -1.7702    1.8215    1.0913 N   0  0  0  0  0  0  0  0  0  0  0  0
   -0.5841    1.1197    1.1838 C   0  0  0  0  0  0  0  0  0  0  0  0
    0.6718    1.8176    1.5494 C   0  0  0  0  0  0  0  0  0  0  0  0
    1.6112    1.8619    0.4447 N   0  0  0  0  0  0  0  0  0  0  0  0
    2.8395    1.2456    0.3561 C   0  0  0  0  0  0  0  0  0  0  0  0
    3.4548    0.1790    1.5762 S   0  0  0  0  0  0  0  0  0  0  0  0
    5.2341    0.1748    1.2140 C   0  0  0  0  0  0  0  0  0  0  0  0
    5.6635   -1.0193    0.4018 C   0  0  0  0  0  0  0  0  0  0  0  0
    5.9477   -2.2425    1.0226 C   0  0  0  0  0  0  0  0  0  0  0  0
    6.3555   -3.3445    0.2709 C   0  0  0  0  0  0  0  0  0  0  0  0
    6.4661   -3.2513   -1.1215 C   0  0  0  0  0  0  0  0  0  0  0  0
    6.9414   -4.4268   -1.9222 C   0  0  0  0  0  0  0  0  0  0  0  0
    6.1829   -2.0336   -1.7436 C   0  0  0  0  0  0  0  0  0  0  0  0
    5.7814   -0.9274   -0.9856 C   0  0  0  0  0  0  0  0  0  0  0  0
    3.4744    1.5773   -0.7417 N   0  0  0  0  0  0  0  0  0  0  0  0
    2.6383    2.4429   -1.4024 C   0  0  0  0  0  0  0  0  0  0  0  0
    2.8223    3.0979   -2.6202 C   0  0  0  0  0  0  0  0  0  0  0  0
    1.7936    3.9350   -3.0164 C   0  0  0  0  0  0  0  0  0  0  0  0
    0.6546    4.1419   -2.3156 N   0  0  0  0  0  0  0  0  0  0  0  0
    0.4680    3.4947   -1.1390 C   0  0  0  0  0  0  0  0  0  0  0  0
    1.4676    2.6463   -0.6828 C   0  0  0  0  0  0  0  0  0  0  0  0
   -0.8256   -0.2192    0.9438 C   0  0  0  0  0  0  0  0  0  0  0  0
   -0.0013   -1.4454    0.9074 C   0  0  0  0  0  0  0  0  0  0  0  0
   -2.1643   -0.3661    0.7202 O   0  0  0  0  0  0  0  0  0  0  0  0
   -4.9853   -0.0590    0.6222 C   0  0  0  0  0  0  0  0  0  0  0  0
   -6.3767    0.1110    0.5560 C   0  0  0  0  0  0  0  0  0  0  0  0
   -7.2836   -0.9240    0.5039 O   0  0  0  0  0  0  0  0  0  0  0  0
   -6.7788   -2.2548    0.5306 C   0  0  0  0  0  0  0  0  0  0  0  0
   -8.6458    3.2940    1.4523 H   0  0  0  0  0  0  0  0  0  0  0  0
   -9.9514    2.6624    0.4366 H   0  0  0  0  0  0  0  0  0  0  0  0
   -8.5404    3.3771   -0.3497 H   0  0  0  0  0  0  0  0  0  0  0  0
   -6.4412    3.5355    0.6126 H   0  0  0  0  0  0  0  0  0  0  0  0
   -4.0365    3.2094    0.7486 H   0  0  0  0  0  0  0  0  0  0  0  0
    0.4654    2.8556    1.8347 H   0  0  0  0  0  0  0  0  0  0  0  0
    1.1298    1.3416    2.4196 H   0  0  0  0  0  0  0  0  0  0  0  0
    5.7639    0.1547    2.1729 H   0  0  0  0  0  0  0  0  0  0  0  0
    5.5507    1.1055    0.7364 H   0  0  0  0  0  0  0  0  0  0  0  0
    5.8529   -2.3453    2.1002 H   0  0  0  0  0  0  0  0  0  0  0  0
    6.5866   -4.2750    0.7770 H   0  0  0  0  0  0  0  0  0  0  0  0
    6.6667   -4.3248   -2.9712 H   0  0  0  0  0  0  0  0  0  0  0  0
    6.4856   -5.3526   -1.5558 H   0  0  0  0  0  0  0  0  0  0  0  0
    8.0338   -4.5185   -1.8520 H   0  0  0  0  0  0  0  0  0  0  0  0
    6.2707   -1.9318   -2.8224 H   0  0  0  0  0  0  0  0  0  0  0  0
    5.5590    0.0095   -1.4904 H   0  0  0  0  0  0  0  0  0  0  0  0
    3.7138    2.9603   -3.2128 H   0  0  0  0  0  0  0  0  0  0  0  0
    1.8618    4.4906   -3.9511 H   0  0  0  0  0  0  0  0  0  0  0  0
   -0.4626    3.6789   -0.6139 H   0  0  0  0  0  0  0  0  0  0  0  0
    0.5498   -1.5600    1.8461 H   0  0  0  0  0  0  0  0  0  0  0  0
    0.7160   -1.4062    0.0777 H   0  0  0  0  0  0  0  0  0  0  0  0
   -0.6253   -2.3399    0.7717 H   0  0  0  0  0  0  0  0  0  0  0  0
   -4.5460   -1.0587    0.6248 H   0  0  0  0  0  0  0  0  0  0  0  0
   -6.2187   -2.4513    1.4526 H   0  0  0  0  0  0  0  0  0  0  0  0
   -7.6332   -2.9351    0.5157 H   0  0  0  0  0  0  0  0  0  0  0  0
   -6.1700   -2.4631   -0.3569 H   0  0  0  0  0  0  0  0  0  0  0  0
  1  2  1  0
  2  3  1  0
  3  4  2  0
  4  5  1  0
  5  6  2  0
  6  7  1  0
  7  8  2  0
  8  9  1  0
  9 10  1  0
 10 11  1  0
 11 12  1  0
 12 13  1  0
 13 14  1  0
 14 15  1  0
 15 16  2  0
 16 17  1  0
 17 18  2  0
 18 19  1  0
 18 20  1  0
 20 21  2  0
 12 22  2  0
 22 23  1  0
 23 24  2  0
 24 25  1  0
 25 26  2  0
 26 27  1  0
 27 28  2  0
  9 29  2  0
 29 30  1  0
 29 31  1  0
  6 32  1  0
 32 33  2  0
 33 34  1  0
 34 35  1  0
 33  3  1  0
 31  7  1  0
 28 11  1  0
 21 15  1  0
 28 23  1  0
  1 36  1  0
  1 37  1  0
  1 38  1  0
  4 39  1  0
  5 40  1  0
 10 41  1  0
 10 42  1  0
 14 43  1  0
 14 44  1  0
 16 45  1  0
 17 46  1  0
 19 47  1  0
 19 48  1  0
 19 49  1  0
 20 50  1  0
 21 51  1  0
 24 52  1  0
 25 53  1  0
 27 54  1  0
 30 55  1  0
 30 56  1  0
 30 57  1  0
 32 58  1  0
 35 59  1  0
 35 60  1  0
 35 61  1  0
M  END
$$$$
