
     RDKit          3D

 49 50  0  0  0  0  0  0  0  0999 V2000
    5.5227   -0.3296    0.9934 C   0  0  0  0  0  0  0  0  0  0  0  0
    4.0300   -0.6439    1.1007 C   0  0  0  0  0  0  0  0  0  0  0  0
    3.8362   -2.1138    1.4696 C   0  0  0  0  0  0  0  0  0  0  0  0
    3.3194   -0.2755   -0.2128 C   0  0  0  0  0  0  0  0  0  0  0  0
    1.8006   -0.4218   -0.1319 C   0  0  0  0  0  0  0  0  0  0  0  0
    1.1884    0.0947   -1.3852 N   0  0  0  0  0  4  0  0  0  0  0  0
    1.0192   -0.7785   -2.4109 C   0  0  0  0  0  0  0  0  0  0  0  0
    0.4770   -0.3752   -3.6254 C   0  0  0  0  0  0  0  0  0  0  0  0
    0.0989    0.9459   -3.7953 C   0  0  0  0  0  0  0  0  0  0  0  0
    0.2684    1.8349   -2.7419 C   0  0  0  0  0  0  0  0  0  0  0  0
    0.8103    1.3965   -1.5248 C   0  0  0  0  0  0  0  0  0  0  0  0
    0.9458    2.3640   -0.4295 C   0  0  0  0  0  0  0  0  0  0  0  0
    0.0695    2.5196    0.5768 C   0  0  0  0  0  0  0  0  0  0  0  0
   -1.1390    1.7147    0.7748 C   0  0  0  0  0  0  0  0  0  0  0  0
   -1.2270    0.8576    1.8693 C   0  0  0  0  0  0  0  0  0  0  0  0
   -2.3645    0.0577    2.0549 C   0  0  0  0  0  0  0  0  0  0  0  0
   -3.4585    0.0906    1.1740 C   0  0  0  0  0  0  0  0  0  0  0  0
   -4.5870   -0.6972    1.3637 N   0  0  0  0  0  0  0  0  0  0  0  0
   -4.6677   -1.6533    2.4630 C   0  0  0  0  0  0  0  0  0  0  0  0
   -5.6176   -0.7898    0.3297 C   0  0  0  0  0  0  0  0  0  0  0  0
   -3.3517    0.9908    0.1001 C   0  0  0  0  0  0  0  0  0  0  0  0
   -2.2172    1.7909   -0.1011 C   0  0  0  0  0  0  0  0  0  0  0  0
    6.0373   -0.5660    1.9298 H   0  0  0  0  0  0  0  0  0  0  0  0
    5.9949   -0.9076    0.1909 H   0  0  0  0  0  0  0  0  0  0  0  0
    5.6806    0.7327    0.7840 H   0  0  0  0  0  0  0  0  0  0  0  0
    3.6136   -0.0282    1.9082 H   0  0  0  0  0  0  0  0  0  0  0  0
    4.3919   -2.3681    2.3774 H   0  0  0  0  0  0  0  0  0  0  0  0
    2.7832   -2.3369    1.6611 H   0  0  0  0  0  0  0  0  0  0  0  0
    4.1844   -2.7739    0.6669 H   0  0  0  0  0  0  0  0  0  0  0  0
    3.7042   -0.8953   -1.0320 H   0  0  0  0  0  0  0  0  0  0  0  0
    3.5666    0.7610   -0.4744 H   0  0  0  0  0  0  0  0  0  0  0  0
    1.4964   -1.4709   -0.0343 H   0  0  0  0  0  0  0  0  0  0  0  0
    1.3899    0.1079    0.7270 H   0  0  0  0  0  0  0  0  0  0  0  0
    1.3316   -1.8077   -2.2512 H   0  0  0  0  0  0  0  0  0  0  0  0
    0.3502   -1.0904   -4.4363 H   0  0  0  0  0  0  0  0  0  0  0  0
   -0.3303    1.2836   -4.7414 H   0  0  0  0  0  0  0  0  0  0  0  0
   -0.0351    2.8737   -2.8661 H   0  0  0  0  0  0  0  0  0  0  0  0
    1.8118    3.0200   -0.4908 H   0  0  0  0  0  0  0  0  0  0  0  0
    0.2483    3.2786    1.3351 H   0  0  0  0  0  0  0  0  0  0  0  0
   -0.4250    0.8042    2.6021 H   0  0  0  0  0  0  0  0  0  0  0  0
   -2.3762   -0.5892    2.9271 H   0  0  0  0  0  0  0  0  0  0  0  0
   -4.4924   -1.1678    3.4305 H   0  0  0  0  0  0  0  0  0  0  0  0
   -3.9398   -2.4624    2.3265 H   0  0  0  0  0  0  0  0  0  0  0  0
   -5.6614   -2.1093    2.5246 H   0  0  0  0  0  0  0  0  0  0  0  0
   -6.1378    0.1672    0.2161 H   0  0  0  0  0  0  0  0  0  0  0  0
   -5.1819   -1.0876   -0.6339 H   0  0  0  0  0  0  0  0  0  0  0  0
   -6.3774   -1.5360    0.5779 H   0  0  0  0  0  0  0  0  0  0  0  0
   -4.1704    1.1089   -0.6050 H   0  0  0  0  0  0  0  0  0  0  0  0
   -2.2133    2.4803   -0.9394 H   0  0  0  0  0  0  0  0  0  0  0  0
  1  2  1  0
  2  3  1  0
  2  4  1  0
  4  5  1  0
  5  6  1  0
  6  7  2  0
  7  8  1  0
  8  9  2  0
  9 10  1  0
 10 11  2  0
 11 12  1  0
 12 13  2  3
 13 14  1  0
 14 15  2  0
 15 16  1  0
 16 17  2  0
 17 18  1  0
 18 19  1  0
 18 20  1  0
 17 21  1  0
 21 22  2  0
 11  6  1  0
 22 14  1  0
  1 23  1  0
  1 24  1  0
  1 25  1  0
  2 26  1  0
  3 27  1  0
  3 28  1  0
  3 29  1  0
  4 30  1  0
  4 31  1  0
  5 32  1  0
  5 33  1  0
  7 34  1  0
  8 35  1  0
  9 36  1  0
 10 37  1  0
 12 38  1  0
 13 39  1  0
 15 40  1  0
 16 41  1  0
 19 42  1  0
 19 43  1  0
 19 44  1  0
 20 45  1  0
 20 46  1  0
 20 47  1  0
 21 48  1  0
 22 49  1  0
M  CHG  1   6   1
M  END
$$$$
