
     RDKit          3D

 38 40  0  0  0  0  0  0  0  0999 V2000
   -6.5414   -1.0374    0.2521 C   0  0  0  0  0  0  0  0  0  0  0  0
   -7.0355   -1.0604   -1.1831 C   0  0  0  0  0  0  0  0  0  0  0  0
   -6.0069   -0.7475   -2.1211 O   0  0  0  0  0  0  0  0  0  0  0  0
   -5.6351    0.6346   -2.1451 C   0  0  0  0  0  0  0  0  0  0  0  0
   -4.3247    0.8010   -1.4496 C   0  0  0  0  0  0  0  0  0  0  0  0
   -4.1297    1.5625   -0.3912 N   0  0  0  0  0  0  0  0  0  0  0  0
   -2.8168    1.5279    0.0416 N   0  0  0  0  0  0  0  0  0  0  0  0
   -2.0784    0.7499   -0.7085 C   0  0  0  0  0  0  0  0  0  0  0  0
   -0.7504    0.4315   -0.6303 N   0  0  0  0  0  0  0  0  0  0  0  0
    0.0704    0.9465    0.3569 C   0  0  0  0  0  0  0  0  0  0  0  0
   -0.2694    1.7245    1.2408 O   0  0  0  0  0  0  0  0  0  0  0  0
    1.5059    0.4208    0.2220 C   0  0  0  0  0  0  0  0  0  0  0  0
    2.3589    0.9570    1.2206 O   0  0  0  0  0  0  0  0  0  0  0  0
    3.6684    0.5617    1.2060 C   0  0  0  0  0  0  0  0  0  0  0  0
    4.4565    1.1342    2.2252 C   0  0  0  0  0  0  0  0  0  0  0  0
    5.8162    0.8312    2.3463 C   0  0  0  0  0  0  0  0  0  0  0  0
    6.3544   -0.0462    1.4333 C   0  0  0  0  0  0  0  0  0  0  0  0
    5.5905   -0.6074    0.4373 C   0  0  0  0  0  0  0  0  0  0  0  0
    4.2458   -0.3261    0.2944 C   0  0  0  0  0  0  0  0  0  0  0  0
    6.3107   -1.4451   -0.3578 O   0  0  0  0  0  0  0  0  0  0  0  0
    7.6145   -1.3455    0.2542 C   0  0  0  0  0  0  0  0  0  0  0  0
    7.6486   -0.4587    1.3910 O   0  0  0  0  0  0  0  0  0  0  0  0
   -2.9009    0.0072   -2.0073 S   0  0  0  0  0  0  0  0  0  0  0  0
   -5.6320   -1.6371    0.3598 H   0  0  0  0  0  0  0  0  0  0  0  0
   -6.3013   -0.0194    0.5721 H   0  0  0  0  0  0  0  0  0  0  0  0
   -7.3069   -1.4302    0.9278 H   0  0  0  0  0  0  0  0  0  0  0  0
   -7.3762   -2.0738   -1.4202 H   0  0  0  0  0  0  0  0  0  0  0  0
   -7.8933   -0.3925   -1.3214 H   0  0  0  0  0  0  0  0  0  0  0  0
   -5.5314    0.9303   -3.1948 H   0  0  0  0  0  0  0  0  0  0  0  0
   -6.4063    1.2729   -1.6992 H   0  0  0  0  0  0  0  0  0  0  0  0
   -0.3980   -0.2055   -1.3280 H   0  0  0  0  0  0  0  0  0  0  0  0
    1.4616   -0.6715    0.3137 H   0  0  0  0  0  0  0  0  0  0  0  0
    1.8665    0.7096   -0.7730 H   0  0  0  0  0  0  0  0  0  0  0  0
    3.9960    1.8244    2.9300 H   0  0  0  0  0  0  0  0  0  0  0  0
    6.4225    1.2710    3.1297 H   0  0  0  0  0  0  0  0  0  0  0  0
    3.6949   -0.7973   -0.5077 H   0  0  0  0  0  0  0  0  0  0  0  0
    7.9259   -2.3449    0.5792 H   0  0  0  0  0  0  0  0  0  0  0  0
    8.3263   -0.9820   -0.4959 H   0  0  0  0  0  0  0  0  0  0  0  0
  1  2  1  0
  2  3  1  0
  3  4  1  0
  4  5  1  0
  5  6  2  0
  6  7  1  0
  7  8  2  0
  8  9  1  0
  9 10  1  0
 10 11  2  0
 10 12  1  0
 12 13  1  0
 13 14  1  0
 14 15  2  0
 15 16  1  0
 16 17  2  0
 17 18  1  0
 18 19  2  0
 18 20  1  0
 20 21  1  0
 21 22  1  0
  8 23  1  0
 23  5  1  0
 19 14  1  0
 22 17  1  0
  1 24  1  0
  1 25  1  0
  1 26  1  0
  2 27  1  0
  2 28  1  0
  4 29  1  0
  4 30  1  0
  9 31  1  0
 12 32  1  0
 12 33  1  0
 15 34  1  0
 16 35  1  0
 19 36  1  0
 21 37  1  0
 21 38  1  0
M  END
$$$$
