
     RDKit          3D

 33 34  0  0  0  0  0  0  0  0999 V2000
   -1.4464    1.8769   -0.4451 N   0  0  0  0  0  0  0  0  0  0  0  0
   -1.7623    0.6575   -0.1316 C   0  0  0  0  0  0  0  0  0  0  0  0
   -0.9167   -0.4047   -0.3663 N   0  0  0  0  0  0  0  0  0  0  0  0
    0.4133   -0.0108   -0.5420 O   0  0  0  0  0  0  0  0  0  0  0  0
    0.8543   -0.2194   -1.8219 C   0  0  0  0  0  0  0  0  0  0  0  0
    0.2814   -0.8842   -2.6779 O   0  0  0  0  0  0  0  0  0  0  0  0
    2.1559    0.5079   -2.0508 C   0  0  0  0  0  0  0  0  0  0  0  0
    3.2698    0.0585   -1.1393 C   0  0  0  0  0  0  0  0  0  0  0  0
    3.9701   -1.1274   -1.3991 C   0  0  0  0  0  0  0  0  0  0  0  0
    4.9952   -1.5456   -0.5484 C   0  0  0  0  0  0  0  0  0  0  0  0
    5.3278   -0.7867    0.5706 C   0  0  0  0  0  0  0  0  0  0  0  0
    4.6307    0.3892    0.8402 C   0  0  0  0  0  0  0  0  0  0  0  0
    3.6076    0.8125   -0.0087 C   0  0  0  0  0  0  0  0  0  0  0  0
   -3.0949    0.3518    0.4573 C   0  0  0  0  0  0  0  0  0  0  0  0
   -3.8884   -0.5923   -0.2108 C   0  0  0  0  0  0  0  0  0  0  0  0
   -5.1502   -0.9211    0.2850 C   0  0  0  0  0  0  0  0  0  0  0  0
   -5.6214   -0.3136    1.4466 C   0  0  0  0  0  0  0  0  0  0  0  0
   -4.8311    0.6272    2.1162 C   0  0  0  0  0  0  0  0  0  0  0  0
   -3.5666    0.9646    1.6242 C   0  0  0  0  0  0  0  0  0  0  0  0
   -2.6351    2.1058    2.5226 Cl  0  0  0  0  0  0  0  0  0  0  0  0
   -2.2032    2.5252   -0.2073 H   0  0  0  0  0  0  0  0  0  0  0  0
   -1.0241   -1.2460    0.1904 H   0  0  0  0  0  0  0  0  0  0  0  0
    2.4585    0.3651   -3.0934 H   0  0  0  0  0  0  0  0  0  0  0  0
    1.9688    1.5832   -1.9453 H   0  0  0  0  0  0  0  0  0  0  0  0
    3.7177   -1.7321   -2.2677 H   0  0  0  0  0  0  0  0  0  0  0  0
    5.5300   -2.4661   -0.7621 H   0  0  0  0  0  0  0  0  0  0  0  0
    6.1245   -1.1093    1.2345 H   0  0  0  0  0  0  0  0  0  0  0  0
    4.8835    0.9795    1.7155 H   0  0  0  0  0  0  0  0  0  0  0  0
    3.0724    1.7328    0.2261 H   0  0  0  0  0  0  0  0  0  0  0  0
   -3.5362   -1.0566   -1.1320 H   0  0  0  0  0  0  0  0  0  0  0  0
   -5.7690   -1.6470   -0.2413 H   0  0  0  0  0  0  0  0  0  0  0  0
   -6.6077   -0.5681    1.8298 H   0  0  0  0  0  0  0  0  0  0  0  0
   -5.2083    1.0933    3.0243 H   0  0  0  0  0  0  0  0  0  0  0  0
  1  2  2  3
  2  3  1  0
  3  4  1  0
  4  5  1  0
  5  6  2  0
  5  7  1  0
  7  8  1  0
  8  9  2  0
  9 10  1  0
 10 11  2  0
 11 12  1  0
 12 13  2  0
  2 14  1  0
 14 15  2  0
 15 16  1  0
 16 17  2  0
 17 18  1  0
 18 19  2  0
 19 20  1  0
 13  8  1  0
 19 14  1  0
  1 21  1  0
  3 22  1  0
  7 23  1  0
  7 24  1  0
  9 25  1  0
 10 26  1  0
 11 27  1  0
 12 28  1  0
 13 29  1  0
 15 30  1  0
 16 31  1  0
 17 32  1  0
 18 33  1  0
M  END
$$$$
