
     RDKit          3D

 56 61  0  0  0  0  0  0  0  0999 V2000
    1.8717    2.2317    2.8706 O   0  0  0  0  0  0  0  0  0  0  0  0
    1.2972    2.5531    1.8411 C   0  0  0  0  0  0  0  0  0  0  0  0
    0.9695    3.8625    1.4814 N   0  0  0  0  0  0  0  0  0  0  0  0
    0.4084    3.9105    0.2116 C   0  0  0  0  0  0  0  0  0  0  0  0
   -0.0063    5.0353   -0.4696 C   0  0  0  0  0  0  0  0  0  0  0  0
   -0.5382    4.8507   -1.7481 C   0  0  0  0  0  0  0  0  0  0  0  0
   -0.6371    3.5640   -2.3092 C   0  0  0  0  0  0  0  0  0  0  0  0
   -0.2072    2.4383   -1.6009 C   0  0  0  0  0  0  0  0  0  0  0  0
    0.3123    2.6243   -0.3296 C   0  0  0  0  0  0  0  0  0  0  0  0
    0.8385    1.6386    0.6693 C   0  0  0  0  0  0  0  0  0  0  0  0
    1.9406    0.7612    0.1734 N   0  0  0  0  0  0  0  0  0  0  0  0
    1.6993   -0.6457    0.6547 C   0  0  2  0  0  0  0  0  0  0  0  0
    2.0340   -1.6662   -0.4424 C   0  0  0  0  0  0  0  0  0  0  0  0
    3.5201   -1.7999   -0.6867 C   0  0  0  0  0  0  0  0  0  0  0  0
    4.1468   -1.0347   -1.6793 C   0  0  0  0  0  0  0  0  0  0  0  0
    5.5211   -1.1435   -1.8945 C   0  0  0  0  0  0  0  0  0  0  0  0
    6.2820   -2.0154   -1.1183 C   0  0  0  0  0  0  0  0  0  0  0  0
    5.6697   -2.7777   -0.1252 C   0  0  0  0  0  0  0  0  0  0  0  0
    4.2951   -2.6703    0.0920 C   0  0  0  0  0  0  0  0  0  0  0  0
    0.2649   -0.6158    1.0292 C   0  0  0  0  0  0  0  0  0  0  0  0
   -0.2292    0.6951    1.0334 C   0  0  0  0  0  0  0  0  0  0  0  0
   -1.5527    0.6634    1.3896 C   0  0  0  0  0  0  0  0  0  0  0  0
   -2.4625    1.6197    1.5299 O   0  0  0  0  0  0  0  0  0  0  0  0
   -1.8665   -0.6700    1.6018 N   0  0  0  0  0  0  0  0  0  0  0  0
   -3.1755   -1.1629    2.0108 C   0  0  0  0  0  0  0  0  0  0  0  0
   -4.0395   -1.5093    0.8221 C   0  0  0  0  0  0  0  0  0  0  0  0
   -4.8713   -0.5425    0.2387 C   0  0  0  0  0  0  0  0  0  0  0  0
   -5.6642   -0.8613   -0.8649 C   0  0  0  0  0  0  0  0  0  0  0  0
   -5.6308   -2.1476   -1.3999 C   0  0  0  0  0  0  0  0  0  0  0  0
   -4.8017   -3.1149   -0.8352 C   0  0  0  0  0  0  0  0  0  0  0  0
   -4.0082   -2.7974    0.2684 C   0  0  0  0  0  0  0  0  0  0  0  0
   -0.7414   -1.4604    1.4189 C   0  0  0  0  0  0  0  0  0  0  0  0
   -0.7807   -2.7712    1.6215 O   0  0  0  0  0  0  0  0  0  0  0  0
    1.1809    4.6575    2.0657 H   0  0  0  0  0  0  0  0  0  0  0  0
    0.0757    6.0275   -0.0410 H   0  0  0  0  0  0  0  0  0  0  0  0
   -0.8769    5.7108   -2.3219 H   0  0  0  0  0  0  0  0  0  0  0  0
   -1.0517    3.4435   -3.3081 H   0  0  0  0  0  0  0  0  0  0  0  0
   -0.2821    1.4439   -2.0318 H   0  0  0  0  0  0  0  0  0  0  0  0
    2.8198    1.0814    0.5782 H   0  0  0  0  0  0  0  0  0  0  0  0
    2.2991   -0.8212    1.5572 H   0  0  0  0  0  0  0  0  0  0  0  0
    1.5255   -1.4090   -1.3821 H   0  0  0  0  0  0  0  0  0  0  0  0
    1.6418   -2.6553   -0.1719 H   0  0  0  0  0  0  0  0  0  0  0  0
    3.5647   -0.3434   -2.2858 H   0  0  0  0  0  0  0  0  0  0  0  0
    5.9975   -0.5455   -2.6669 H   0  0  0  0  0  0  0  0  0  0  0  0
    7.3524   -2.0994   -1.2864 H   0  0  0  0  0  0  0  0  0  0  0  0
    6.2641   -3.4561    0.4813 H   0  0  0  0  0  0  0  0  0  0  0  0
    3.8351   -3.2713    0.8727 H   0  0  0  0  0  0  0  0  0  0  0  0
   -2.0622    2.4521    1.2202 H   0  0  0  0  0  0  0  0  0  0  0  0
   -3.6534   -0.3973    2.6332 H   0  0  0  0  0  0  0  0  0  0  0  0
   -3.0294   -2.0362    2.6572 H   0  0  0  0  0  0  0  0  0  0  0  0
   -4.8978    0.4687    0.6401 H   0  0  0  0  0  0  0  0  0  0  0  0
   -6.3042   -0.1037   -1.3090 H   0  0  0  0  0  0  0  0  0  0  0  0
   -6.2464   -2.3947   -2.2605 H   0  0  0  0  0  0  0  0  0  0  0  0
   -4.7684   -4.1161   -1.2562 H   0  0  0  0  0  0  0  0  0  0  0  0
   -3.3564   -3.5584    0.6932 H   0  0  0  0  0  0  0  0  0  0  0  0
    0.1140   -3.1193    1.4681 H   0  0  0  0  0  0  0  0  0  0  0  0
  1  2  2  0
  2  3  1  0
  3  4  1  0
  4  5  2  0
  5  6  1  0
  6  7  2  0
  7  8  1  0
  8  9  2  0
  9 10  1  0
 10 11  1  0
 11 12  1  0
 12 13  1  0
 13 14  1  0
 14 15  2  0
 15 16  1  0
 16 17  2  0
 17 18  1  0
 18 19  2  0
 12 20  1  0
 20 21  1  0
 21 22  2  0
 22 23  1  0
 22 24  1  0
 24 25  1  0
 25 26  1  0
 26 27  2  0
 27 28  1  0
 28 29  2  0
 29 30  1  0
 30 31  2  0
 24 32  1  0
 32 33  1  0
 10  2  1  0
 19 14  1  0
 32 20  2  0
  9  4  1  0
 21 10  1  0
 31 26  1  0
  3 34  1  0
  5 35  1  0
  6 36  1  0
  7 37  1  0
  8 38  1  0
 11 39  1  0
 12 40  1  1
 13 41  1  0
 13 42  1  0
 15 43  1  0
 16 44  1  0
 17 45  1  0
 18 46  1  0
 19 47  1  0
 23 48  1  0
 25 49  1  0
 25 50  1  0
 27 51  1  0
 28 52  1  0
 29 53  1  0
 30 54  1  0
 31 55  1  0
 33 56  1  0
M  END
$$$$
