
     RDKit          3D

 38 41  0  0  0  0  0  0  0  0999 V2000
    6.7907   -0.4908    0.6467 C   0  0  0  0  0  0  0  0  0  0  0  0
    5.3238   -0.4521    0.3372 C   0  0  0  0  0  0  0  0  0  0  0  0
    4.8803   -0.3549   -0.9855 C   0  0  0  0  0  0  0  0  0  0  0  0
    3.5125   -0.3510   -1.2779 C   0  0  0  0  0  0  0  0  0  0  0  0
    2.5626   -0.4432   -0.2538 C   0  0  0  0  0  0  0  0  0  0  0  0
    1.1164   -0.4714   -0.5183 C   0  0  0  0  0  0  0  0  0  0  0  0
    0.5177    0.2210   -1.5018 C   0  0  0  0  0  0  0  0  0  0  0  0
   -0.9108    0.1879   -1.7947 C   0  0  0  0  0  0  0  0  0  0  0  0
   -1.2772    0.1107   -3.0951 N   0  0  0  0  0  0  0  0  0  0  0  0
   -2.5899    0.0696   -3.4061 C   0  0  0  0  0  0  0  0  0  0  0  0
   -3.6229    0.1216   -2.4839 C   0  0  0  0  0  0  0  0  0  0  0  0
   -3.2578    0.2445   -1.1349 C   0  0  0  0  0  0  0  0  0  0  0  0
   -1.8995    0.2823   -0.8146 C   0  0  0  0  0  0  0  0  0  0  0  0
   -1.8202    0.4532    0.5488 N   0  0  0  0  0  0  0  0  0  0  0  0
   -3.0690    0.4794    1.1218 C   0  0  0  0  0  0  0  0  0  0  0  0
   -3.4439    0.6151    2.4636 C   0  0  0  0  0  0  0  0  0  0  0  0
   -4.8110    0.6161    2.7559 C   0  0  0  0  0  0  0  0  0  0  0  0
   -5.7613    0.4897    1.7455 C   0  0  0  0  0  0  0  0  0  0  0  0
   -5.3676    0.3581    0.4088 C   0  0  0  0  0  0  0  0  0  0  0  0
   -3.9943    0.3506    0.0879 C   0  0  0  0  0  0  0  0  0  0  0  0
    3.0110   -0.5735    1.0664 C   0  0  0  0  0  0  0  0  0  0  0  0
    4.3785   -0.5770    1.3600 C   0  0  0  0  0  0  0  0  0  0  0  0
    7.1508   -1.5239    0.6245 H   0  0  0  0  0  0  0  0  0  0  0  0
    7.3590    0.0982   -0.0809 H   0  0  0  0  0  0  0  0  0  0  0  0
    6.9925   -0.0665    1.6358 H   0  0  0  0  0  0  0  0  0  0  0  0
    5.5961   -0.2868   -1.8018 H   0  0  0  0  0  0  0  0  0  0  0  0
    3.2032   -0.2907   -2.3188 H   0  0  0  0  0  0  0  0  0  0  0  0
    0.5383   -1.1187    0.1364 H   0  0  0  0  0  0  0  0  0  0  0  0
    1.0898    0.8271   -2.1983 H   0  0  0  0  0  0  0  0  0  0  0  0
   -2.8042   -0.0102   -4.4686 H   0  0  0  0  0  0  0  0  0  0  0  0
   -4.6588    0.0850   -2.7974 H   0  0  0  0  0  0  0  0  0  0  0  0
   -0.9559    0.5579    1.0596 H   0  0  0  0  0  0  0  0  0  0  0  0
   -2.7070    0.7171    3.2536 H   0  0  0  0  0  0  0  0  0  0  0  0
   -5.1367    0.7191    3.7887 H   0  0  0  0  0  0  0  0  0  0  0  0
   -6.8195    0.4946    1.9952 H   0  0  0  0  0  0  0  0  0  0  0  0
   -6.1163    0.2626   -0.3719 H   0  0  0  0  0  0  0  0  0  0  0  0
    2.3012   -0.6709    1.8842 H   0  0  0  0  0  0  0  0  0  0  0  0
    4.6995   -0.6800    2.3941 H   0  0  0  0  0  0  0  0  0  0  0  0
  1  2  1  0
  2  3  2  0
  3  4  1  0
  4  5  2  0
  5  6  1  0
  6  7  2  3
  7  8  1  0
  8  9  2  0
  9 10  1  0
 10 11  2  0
 11 12  1  0
 12 13  2  0
 13 14  1  0
 14 15  1  0
 15 16  2  0
 16 17  1  0
 17 18  2  0
 18 19  1  0
 19 20  2  0
  5 21  1  0
 21 22  2  0
 22  2  1  0
 13  8  1  0
 20 15  1  0
 20 12  1  0
  1 23  1  0
  1 24  1  0
  1 25  1  0
  3 26  1  0
  4 27  1  0
  6 28  1  0
  7 29  1  0
 10 30  1  0
 11 31  1  0
 14 32  1  0
 16 33  1  0
 17 34  1  0
 18 35  1  0
 19 36  1  0
 21 37  1  0
 22 38  1  0
M  END
$$$$
