
     RDKit          3D

 39 40  0  0  0  0  0  0  0  0999 V2000
    6.7962    2.2005   -0.5229 C   0  0  0  0  0  0  0  0  0  0  0  0
    5.3550    2.0262   -0.0653 C   0  0  0  0  0  0  0  0  0  0  0  0
    4.6048    0.9092   -0.8125 C   0  0  0  0  0  0  0  0  0  0  0  0
    5.1799   -0.4746   -0.5029 C   0  0  0  0  0  0  0  0  0  0  0  0
    3.1096    0.9359   -0.4629 C   0  0  0  0  0  0  0  0  0  0  0  0
    2.6871    1.5605    0.5036 O   0  0  0  0  0  0  0  0  0  0  0  0
    2.3593    0.1844   -1.3414 N   0  0  0  0  0  0  0  0  0  0  0  0
    1.0018   -0.0137   -1.3108 C   0  0  0  0  0  0  0  0  0  0  0  0
    0.3869   -0.7465   -2.2130 N   0  0  0  0  0  0  0  0  0  0  0  0
   -0.9741   -0.8133   -1.9932 N   0  0  0  0  0  0  0  0  0  0  0  0
   -1.3332   -0.1263   -0.9284 C   0  0  0  0  0  0  0  0  0  0  0  0
   -2.7333   -0.0081   -0.4252 C   0  0  0  0  0  0  0  0  0  0  0  0
   -3.1161   -1.2248    0.4184 C   0  0  0  0  0  0  0  0  0  0  0  0
   -4.5309   -1.1199    0.9314 C   0  0  0  0  0  0  0  0  0  0  0  0
   -5.6001   -1.6071    0.1679 C   0  0  0  0  0  0  0  0  0  0  0  0
   -6.9108   -1.4904    0.6328 C   0  0  0  0  0  0  0  0  0  0  0  0
   -7.1647   -0.8827    1.8609 C   0  0  0  0  0  0  0  0  0  0  0  0
   -6.1085   -0.3902    2.6252 C   0  0  0  0  0  0  0  0  0  0  0  0
   -4.7968   -0.5059    2.1626 C   0  0  0  0  0  0  0  0  0  0  0  0
   -0.0268    0.6456   -0.1252 S   0  0  0  0  0  0  0  0  0  0  0  0
    7.2441    3.0677   -0.0268 H   0  0  0  0  0  0  0  0  0  0  0  0
    6.8485    2.3653   -1.6036 H   0  0  0  0  0  0  0  0  0  0  0  0
    7.4060    1.3275   -0.2741 H   0  0  0  0  0  0  0  0  0  0  0  0
    4.8310    2.9782   -0.2194 H   0  0  0  0  0  0  0  0  0  0  0  0
    5.3407    1.8368    1.0153 H   0  0  0  0  0  0  0  0  0  0  0  0
    4.6905    1.0983   -1.8909 H   0  0  0  0  0  0  0  0  0  0  0  0
    4.6176   -1.2671   -1.0078 H   0  0  0  0  0  0  0  0  0  0  0  0
    6.2199   -0.5575   -0.8320 H   0  0  0  0  0  0  0  0  0  0  0  0
    5.1418   -0.6830    0.5720 H   0  0  0  0  0  0  0  0  0  0  0  0
    2.8100   -0.2785   -2.1184 H   0  0  0  0  0  0  0  0  0  0  0  0
   -2.8588    0.9149    0.1550 H   0  0  0  0  0  0  0  0  0  0  0  0
   -3.4086    0.0790   -1.2861 H   0  0  0  0  0  0  0  0  0  0  0  0
   -2.4294   -1.3356    1.2681 H   0  0  0  0  0  0  0  0  0  0  0  0
   -3.0089   -2.1475   -0.1674 H   0  0  0  0  0  0  0  0  0  0  0  0
   -5.4186   -2.0817   -0.7941 H   0  0  0  0  0  0  0  0  0  0  0  0
   -7.7344   -1.8735    0.0359 H   0  0  0  0  0  0  0  0  0  0  0  0
   -8.1857   -0.7925    2.2222 H   0  0  0  0  0  0  0  0  0  0  0  0
   -6.3067    0.0851    3.5824 H   0  0  0  0  0  0  0  0  0  0  0  0
   -3.9842   -0.1143    2.7706 H   0  0  0  0  0  0  0  0  0  0  0  0
  1  2  1  0
  2  3  1  0
  3  4  1  0
  3  5  1  0
  5  6  2  0
  5  7  1  0
  7  8  1  0
  8  9  2  0
  9 10  1  0
 10 11  2  0
 11 12  1  0
 12 13  1  0
 13 14  1  0
 14 15  2  0
 15 16  1  0
 16 17  2  0
 17 18  1  0
 18 19  2  0
 11 20  1  0
 20  8  1  0
 19 14  1  0
  1 21  1  0
  1 22  1  0
  1 23  1  0
  2 24  1  0
  2 25  1  0
  3 26  1  0
  4 27  1  0
  4 28  1  0
  4 29  1  0
  7 30  1  0
 12 31  1  0
 12 32  1  0
 13 33  1  0
 13 34  1  0
 15 35  1  0
 16 36  1  0
 17 37  1  0
 18 38  1  0
 19 39  1  0
M  END
$$$$
