
     RDKit          3D

 50 52  0  0  0  0  0  0  0  0999 V2000
    7.1142    3.1414   -0.4060 C   0  0  0  0  0  0  0  0  0  0  0  0
    6.0815    3.1712    0.5711 O   0  0  0  0  0  0  0  0  0  0  0  0
    5.0479    2.2927    0.4016 C   0  0  0  0  0  0  0  0  0  0  0  0
    4.0714    2.3381    1.3965 C   0  0  0  0  0  0  0  0  0  0  0  0
    2.9606    1.4908    1.3431 C   0  0  0  0  0  0  0  0  0  0  0  0
    2.8083    0.5827    0.2903 C   0  0  0  0  0  0  0  0  0  0  0  0
    1.6606   -0.2308    0.3107 N   0  0  0  0  0  0  0  0  0  0  0  0
    1.2773   -1.2083   -0.5995 C   0  0  0  0  0  0  0  0  0  0  0  0
    1.9481   -1.5648   -1.5662 O   0  0  0  0  0  0  0  0  0  0  0  0
   -0.0753   -1.8934   -0.2091 C   0  0  0  0  0  0  0  0  0  0  0  0
   -1.1747   -0.9315   -0.0659 N   0  0  0  0  0  0  0  0  0  0  0  0
   -1.3568   -0.1928    1.0784 C   0  0  0  0  0  0  0  0  0  0  0  0
   -0.5259   -0.1734    1.9818 O   0  0  0  0  0  0  0  0  0  0  0  0
   -2.6155    0.5926    1.1835 C   0  0  0  0  0  0  0  0  0  0  0  0
   -3.3008    1.0566    0.0547 C   0  0  0  0  0  0  0  0  0  0  0  0
   -4.4797    1.7930    0.2063 C   0  0  0  0  0  0  0  0  0  0  0  0
   -4.9756    2.0886    1.4822 C   0  0  0  0  0  0  0  0  0  0  0  0
   -6.2579    2.8519    1.6407 C   0  0  0  0  0  0  0  0  0  0  0  0
   -4.2857    1.6229    2.6075 C   0  0  0  0  0  0  0  0  0  0  0  0
   -3.1071    0.8879    2.4600 C   0  0  0  0  0  0  0  0  0  0  0  0
   -0.5192   -2.9937   -1.1646 C   0  0  0  0  0  0  0  0  0  0  0  0
   -0.6559   -2.7591   -2.5432 C   0  0  0  0  0  0  0  0  0  0  0  0
   -1.1113   -3.7663   -3.3957 C   0  0  0  0  0  0  0  0  0  0  0  0
   -1.4466   -5.0168   -2.8821 C   0  0  0  0  0  0  0  0  0  0  0  0
   -1.3273   -5.2623   -1.5161 C   0  0  0  0  0  0  0  0  0  0  0  0
   -0.8706   -4.2571   -0.6614 C   0  0  0  0  0  0  0  0  0  0  0  0
    3.7842    0.5409   -0.7049 C   0  0  0  0  0  0  0  0  0  0  0  0
    4.8991    1.3905   -0.6502 C   0  0  0  0  0  0  0  0  0  0  0  0
    7.6095    2.1650   -0.4280 H   0  0  0  0  0  0  0  0  0  0  0  0
    7.8630    3.8877   -0.1236 H   0  0  0  0  0  0  0  0  0  0  0  0
    6.7301    3.4132   -1.3947 H   0  0  0  0  0  0  0  0  0  0  0  0
    4.1749    3.0378    2.2219 H   0  0  0  0  0  0  0  0  0  0  0  0
    2.2184    1.5524    2.1357 H   0  0  0  0  0  0  0  0  0  0  0  0
    1.0306   -0.0941    1.1038 H   0  0  0  0  0  0  0  0  0  0  0  0
    0.1037   -2.3432    0.7776 H   0  0  0  0  0  0  0  0  0  0  0  0
   -1.9565   -1.0559   -0.6949 H   0  0  0  0  0  0  0  0  0  0  0  0
   -2.9239    0.8802   -0.9484 H   0  0  0  0  0  0  0  0  0  0  0  0
   -5.0049    2.1450   -0.6797 H   0  0  0  0  0  0  0  0  0  0  0  0
   -6.3964    3.5586    0.8156 H   0  0  0  0  0  0  0  0  0  0  0  0
   -6.2542    3.4335    2.5685 H   0  0  0  0  0  0  0  0  0  0  0  0
   -7.1050    2.1595    1.6600 H   0  0  0  0  0  0  0  0  0  0  0  0
   -4.6589    1.8331    3.6079 H   0  0  0  0  0  0  0  0  0  0  0  0
   -2.5775    0.5417    3.3454 H   0  0  0  0  0  0  0  0  0  0  0  0
   -0.3887   -1.7922   -2.9663 H   0  0  0  0  0  0  0  0  0  0  0  0
   -1.1962   -3.5761   -4.4625 H   0  0  0  0  0  0  0  0  0  0  0  0
   -1.7963   -5.8018   -3.5475 H   0  0  0  0  0  0  0  0  0  0  0  0
   -1.5884   -6.2385   -1.1156 H   0  0  0  0  0  0  0  0  0  0  0  0
   -0.7917   -4.4695    0.4031 H   0  0  0  0  0  0  0  0  0  0  0  0
    3.7124   -0.1440   -1.5438 H   0  0  0  0  0  0  0  0  0  0  0  0
    5.6286    1.3160   -1.4496 H   0  0  0  0  0  0  0  0  0  0  0  0
  1  2  1  0
  2  3  1  0
  3  4  2  0
  4  5  1  0
  5  6  2  0
  6  7  1  0
  7  8  1  0
  8  9  2  0
  8 10  1  0
 10 11  1  0
 11 12  1  0
 12 13  2  0
 12 14  1  0
 14 15  2  0
 15 16  1  0
 16 17  2  0
 17 18  1  0
 17 19  1  0
 19 20  2  0
 10 21  1  0
 21 22  2  0
 22 23  1  0
 23 24  2  0
 24 25  1  0
 25 26  2  0
  6 27  1  0
 27 28  2  0
 28  3  1  0
 20 14  1  0
 26 21  1  0
  1 29  1  0
  1 30  1  0
  1 31  1  0
  4 32  1  0
  5 33  1  0
  7 34  1  0
 10 35  1  0
 11 36  1  0
 15 37  1  0
 16 38  1  0
 18 39  1  0
 18 40  1  0
 18 41  1  0
 19 42  1  0
 20 43  1  0
 22 44  1  0
 23 45  1  0
 24 46  1  0
 25 47  1  0
 26 48  1  0
 27 49  1  0
 28 50  1  0
M  END
$$$$
