
     RDKit          3D

 52 54  0  0  0  0  0  0  0  0999 V2000
    6.0983    0.0985   -4.1805 C   0  0  0  0  0  0  0  0  0  0  0  0
    5.6579   -0.6555   -2.9612 C   0  0  0  0  0  0  0  0  0  0  0  0
    5.5825   -0.0194   -1.7180 C   0  0  0  0  0  0  0  0  0  0  0  0
    5.1983   -0.7321   -0.5797 C   0  0  0  0  0  0  0  0  0  0  0  0
    4.8985   -2.0987   -0.6608 C   0  0  0  0  0  0  0  0  0  0  0  0
    4.4625   -2.8548    0.5661 C   0  0  0  0  0  0  0  0  0  0  0  0
    3.0404   -2.7472    0.7571 N   0  0  0  0  0  0  0  0  0  0  0  0
    2.4788   -1.7693    1.5425 C   0  0  0  0  0  0  0  0  0  0  0  0
    3.0730   -0.9984    2.2839 O   0  0  0  0  0  0  0  0  0  0  0  0
    0.9415   -1.6786    1.4070 C   0  0  0  0  0  0  0  0  0  0  0  0
    0.3433   -2.4515    0.6717 O   0  0  0  0  0  0  0  0  0  0  0  0
    0.3828   -0.6771    2.1702 N   0  0  0  0  0  0  0  0  0  0  0  0
   -1.0009   -0.2712    2.0035 C   0  0  0  0  0  0  0  0  0  0  0  0
   -1.1964    0.8115    0.9152 C   0  0  0  0  0  0  0  0  0  0  0  0
   -0.7303    0.3368   -0.3640 O   0  0  0  0  0  0  0  0  0  0  0  0
   -1.8881   -0.0085   -1.1248 C   0  0  0  0  0  0  0  0  0  0  0  0
   -2.9199    1.0025   -0.6818 C   0  0  0  0  0  0  0  0  0  0  0  0
   -2.6379    1.1147    0.7578 N   0  0  0  0  0  0  0  0  0  0  0  0
   -3.1310    2.5120    1.5570 S   0  0  0  0  0  6  0  0  0  0  0  0
   -2.8022    2.3555    2.9571 O   0  0  0  0  0  0  0  0  0  0  0  0
   -2.6567    3.6495    0.7996 O   0  0  0  0  0  0  0  0  0  0  0  0
   -4.8978    2.4314    1.4071 C   0  0  0  0  0  0  0  0  0  0  0  0
   -5.5970    1.4608    2.1332 C   0  0  0  0  0  0  0  0  0  0  0  0
   -6.9866    1.3910    2.0237 C   0  0  0  0  0  0  0  0  0  0  0  0
   -7.6621    2.2929    1.1993 C   0  0  0  0  0  0  0  0  0  0  0  0
   -9.5448    2.1973    1.0540 Br  0  0  0  0  0  0  0  0  0  0  0  0
   -6.9636    3.2674    0.4838 C   0  0  0  0  0  0  0  0  0  0  0  0
   -5.5734    3.3411    0.5882 C   0  0  0  0  0  0  0  0  0  0  0  0
    4.9766   -2.7349   -1.9061 C   0  0  0  0  0  0  0  0  0  0  0  0
    5.3623   -2.0210   -3.0441 C   0  0  0  0  0  0  0  0  0  0  0  0
    5.9385    1.1753   -4.0583 H   0  0  0  0  0  0  0  0  0  0  0  0
    7.1620   -0.0779   -4.3653 H   0  0  0  0  0  0  0  0  0  0  0  0
    5.5255   -0.2177   -5.0587 H   0  0  0  0  0  0  0  0  0  0  0  0
    5.8180    1.0385   -1.6250 H   0  0  0  0  0  0  0  0  0  0  0  0
    5.1324   -0.2137    0.3757 H   0  0  0  0  0  0  0  0  0  0  0  0
    4.9943   -2.4850    1.4504 H   0  0  0  0  0  0  0  0  0  0  0  0
    4.7014   -3.9192    0.4624 H   0  0  0  0  0  0  0  0  0  0  0  0
    2.4131   -3.1997    0.0982 H   0  0  0  0  0  0  0  0  0  0  0  0
    1.0379   -0.0738    2.6621 H   0  0  0  0  0  0  0  0  0  0  0  0
   -1.3453    0.0938    2.9757 H   0  0  0  0  0  0  0  0  0  0  0  0
   -1.5894   -1.1617    1.7523 H   0  0  0  0  0  0  0  0  0  0  0  0
   -0.6021    1.7008    1.1519 H   0  0  0  0  0  0  0  0  0  0  0  0
   -1.6692    0.0441   -2.1944 H   0  0  0  0  0  0  0  0  0  0  0  0
   -2.1831   -1.0324   -0.8684 H   0  0  0  0  0  0  0  0  0  0  0  0
   -2.7481    1.9575   -1.1891 H   0  0  0  0  0  0  0  0  0  0  0  0
   -3.9374    0.6562   -0.8777 H   0  0  0  0  0  0  0  0  0  0  0  0
   -5.0669    0.7648    2.7804 H   0  0  0  0  0  0  0  0  0  0  0  0
   -7.5327    0.6372    2.5853 H   0  0  0  0  0  0  0  0  0  0  0  0
   -7.4933    3.9737   -0.1514 H   0  0  0  0  0  0  0  0  0  0  0  0
   -5.0319    4.1066    0.0365 H   0  0  0  0  0  0  0  0  0  0  0  0
    4.7412   -3.7927   -1.9998 H   0  0  0  0  0  0  0  0  0  0  0  0
    5.4270   -2.5371   -3.9995 H   0  0  0  0  0  0  0  0  0  0  0  0
  1  2  1  0
  2  3  2  0
  3  4  1  0
  4  5  2  0
  5  6  1  0
  6  7  1  0
  7  8  1  0
  8  9  2  0
  8 10  1  0
 10 11  2  0
 10 12  1  0
 12 13  1  0
 13 14  1  0
 14 15  1  0
 15 16  1  0
 16 17  1  0
 17 18  1  0
 18 19  1  0
 19 20  2  0
 19 21  2  0
 19 22  1  0
 22 23  2  0
 23 24  1  0
 24 25  2  0
 25 26  1  0
 25 27  1  0
 27 28  2  0
  5 29  1  0
 29 30  2  0
 30  2  1  0
 18 14  1  0
 28 22  1  0
  1 31  1  0
  1 32  1  0
  1 33  1  0
  3 34  1  0
  4 35  1  0
  6 36  1  0
  6 37  1  0
  7 38  1  0
 12 39  1  0
 13 40  1  0
 13 41  1  0
 14 42  1  0
 16 43  1  0
 16 44  1  0
 17 45  1  0
 17 46  1  0
 23 47  1  0
 24 48  1  0
 27 49  1  0
 28 50  1  0
 29 51  1  0
 30 52  1  0
M  END
$$$$
