
     RDKit          3D

 59 62  0  0  0  0  0  0  0  0999 V2000
   -8.4405    3.4832   -0.6735 C   0  0  0  0  0  0  0  0  0  0  0  0
   -7.5467    2.3478   -0.2663 C   0  0  0  0  0  0  0  0  0  0  0  0
   -7.6692    1.0879   -0.8675 C   0  0  0  0  0  0  0  0  0  0  0  0
   -6.8315    0.0385   -0.4853 C   0  0  0  0  0  0  0  0  0  0  0  0
   -5.8529    0.2531    0.4877 C   0  0  0  0  0  0  0  0  0  0  0  0
   -4.9876   -0.8754    0.8934 C   0  0  0  0  0  0  0  0  0  0  0  0
   -5.5353   -1.9089    1.2681 O   0  0  0  0  0  0  0  0  0  0  0  0
   -3.6005   -0.7093    0.8453 N   0  0  0  0  0  0  0  0  0  0  0  0
   -2.9533    0.1731   -0.1392 C   0  0  0  0  0  0  0  0  0  0  0  0
   -1.5049    0.5360    0.2410 C   0  0  0  0  0  0  0  0  0  0  0  0
   -0.7214   -0.6852    0.5486 N   0  0  0  0  0  0  0  0  0  0  0  0
    0.6614   -0.4599    0.6340 C   0  0  0  0  0  0  0  0  0  0  0  0
    1.3583   -0.0099   -0.4974 C   0  0  0  0  0  0  0  0  0  0  0  0
    2.7412    0.2121   -0.4726 C   0  0  0  0  0  0  0  0  0  0  0  0
    3.4773   -0.0199    0.6908 C   0  0  0  0  0  0  0  0  0  0  0  0
    4.8657    0.2141    0.6327 N   0  0  0  0  0  0  0  0  0  0  0  0
    5.8115   -0.0586    1.6104 C   0  0  0  0  0  0  0  0  0  0  0  0
    5.5898   -0.5262    2.7236 O   0  0  0  0  0  0  0  0  0  0  0  0
    7.2309    0.2797    1.1745 C   0  0  0  0  0  0  0  0  0  0  0  0
    8.0442   -1.1702    0.4228 S   0  0  0  0  0  0  0  0  0  0  0  0
    7.1819   -1.2339   -1.1336 C   0  0  0  0  0  0  0  0  0  0  0  0
    7.4749   -0.3153   -2.1473 C   0  0  0  0  0  0  0  0  0  0  0  0
    6.7665   -0.3491   -3.3520 C   0  0  0  0  0  0  0  0  0  0  0  0
    5.7684   -1.3039   -3.5428 C   0  0  0  0  0  0  0  0  0  0  0  0
    4.8839   -1.3302   -5.0177 Cl  0  0  0  0  0  0  0  0  0  0  0  0
    5.4798   -2.2317   -2.5437 C   0  0  0  0  0  0  0  0  0  0  0  0
    6.1921   -2.2005   -1.3416 C   0  0  0  0  0  0  0  0  0  0  0  0
    2.8048   -0.4719    1.8216 C   0  0  0  0  0  0  0  0  0  0  0  0
    1.4183   -0.6925    1.7891 C   0  0  0  0  0  0  0  0  0  0  0  0
   -1.3540   -1.5027    1.6087 C   0  0  0  0  0  0  0  0  0  0  0  0
   -2.7943   -1.8760    1.2194 C   0  0  0  0  0  0  0  0  0  0  0  0
   -5.7338    1.4999    1.1092 C   0  0  0  0  0  0  0  0  0  0  0  0
   -6.5744    2.5458    0.7244 C   0  0  0  0  0  0  0  0  0  0  0  0
   -9.2054    3.1561   -1.3860 H   0  0  0  0  0  0  0  0  0  0  0  0
   -7.8507    4.2736   -1.1479 H   0  0  0  0  0  0  0  0  0  0  0  0
   -8.9551    3.8932    0.2018 H   0  0  0  0  0  0  0  0  0  0  0  0
   -8.4239    0.9120   -1.6303 H   0  0  0  0  0  0  0  0  0  0  0  0
   -6.9416   -0.9417   -0.9414 H   0  0  0  0  0  0  0  0  0  0  0  0
   -3.5245    1.0917   -0.2871 H   0  0  0  0  0  0  0  0  0  0  0  0
   -2.9632   -0.3658   -1.0957 H   0  0  0  0  0  0  0  0  0  0  0  0
   -1.0734    1.1031   -0.5920 H   0  0  0  0  0  0  0  0  0  0  0  0
   -1.5121    1.1925    1.1214 H   0  0  0  0  0  0  0  0  0  0  0  0
    0.8268    0.1431   -1.4335 H   0  0  0  0  0  0  0  0  0  0  0  0
    3.2253    0.5499   -1.3849 H   0  0  0  0  0  0  0  0  0  0  0  0
    5.2156    0.5222   -0.2658 H   0  0  0  0  0  0  0  0  0  0  0  0
    7.7967    0.5785    2.0630 H   0  0  0  0  0  0  0  0  0  0  0  0
    7.2378    1.1332    0.4893 H   0  0  0  0  0  0  0  0  0  0  0  0
    8.2599    0.4262   -2.0129 H   0  0  0  0  0  0  0  0  0  0  0  0
    7.0019    0.3657   -4.1372 H   0  0  0  0  0  0  0  0  0  0  0  0
    4.7040   -2.9801   -2.6891 H   0  0  0  0  0  0  0  0  0  0  0  0
    5.9557   -2.9265   -0.5651 H   0  0  0  0  0  0  0  0  0  0  0  0
    3.3226   -0.6663    2.7558 H   0  0  0  0  0  0  0  0  0  0  0  0
    0.9523   -1.0402    2.7063 H   0  0  0  0  0  0  0  0  0  0  0  0
   -1.3746   -0.9400    2.5510 H   0  0  0  0  0  0  0  0  0  0  0  0
   -0.7924   -2.4310    1.7673 H   0  0  0  0  0  0  0  0  0  0  0  0
   -3.2695   -2.4036    2.0544 H   0  0  0  0  0  0  0  0  0  0  0  0
   -2.7899   -2.5560    0.3580 H   0  0  0  0  0  0  0  0  0  0  0  0
   -4.9976    1.6547    1.8939 H   0  0  0  0  0  0  0  0  0  0  0  0
   -6.4753    3.5156    1.2067 H   0  0  0  0  0  0  0  0  0  0  0  0
  1  2  1  0
  2  3  2  0
  3  4  1  0
  4  5  2  0
  5  6  1  0
  6  7  2  0
  6  8  1  0
  8  9  1  0
  9 10  1  0
 10 11  1  0
 11 12  1  0
 12 13  2  0
 13 14  1  0
 14 15  2  0
 15 16  1  0
 16 17  1  0
 17 18  2  0
 17 19  1  0
 19 20  1  0
 20 21  1  0
 21 22  2  0
 22 23  1  0
 23 24  2  0
 24 25  1  0
 24 26  1  0
 26 27  2  0
 15 28  1  0
 28 29  2  0
 11 30  1  0
 30 31  1  0
  5 32  1  0
 32 33  2  0
 33  2  1  0
 31  8  1  0
 29 12  1  0
 27 21  1  0
  1 34  1  0
  1 35  1  0
  1 36  1  0
  3 37  1  0
  4 38  1  0
  9 39  1  0
  9 40  1  0
 10 41  1  0
 10 42  1  0
 13 43  1  0
 14 44  1  0
 16 45  1  0
 19 46  1  0
 19 47  1  0
 22 48  1  0
 23 49  1  0
 26 50  1  0
 27 51  1  0
 28 52  1  0
 29 53  1  0
 30 54  1  0
 30 55  1  0
 31 56  1  0
 31 57  1  0
 32 58  1  0
 33 59  1  0
M  END
$$$$
