
     RDKit          3D

 61 65  0  0  0  0  0  0  0  0999 V2000
    1.2421   -1.4275    5.3122 C   0  0  0  0  0  0  0  0  0  0  0  0
    2.0114   -0.9812    4.1038 C   0  0  0  0  0  0  0  0  0  0  0  0
    3.3542   -1.3191    3.9488 C   0  0  0  0  0  0  0  0  0  0  0  0
    4.0708   -0.8582    2.8395 C   0  0  0  0  0  0  0  0  0  0  0  0
    3.4892   -0.0542    1.8693 C   0  0  0  0  0  0  0  0  0  0  0  0
    4.2423    0.3479    0.8296 N   0  0  0  0  0  0  0  0  0  0  0  0
    3.7056    1.1378   -0.1342 C   0  0  0  0  0  0  0  0  0  0  0  0
    4.6200    1.5294   -1.2246 C   0  0  0  0  0  0  0  0  0  0  0  0
    4.1854    1.6464   -2.5585 C   0  0  0  0  0  0  0  0  0  0  0  0
    5.0658    2.0233   -3.5790 C   0  0  0  0  0  0  0  0  0  0  0  0
    6.4006    2.2905   -3.2864 C   0  0  0  0  0  0  0  0  0  0  0  0
    6.8575    2.1751   -1.9768 C   0  0  0  0  0  0  0  0  0  0  0  0
    5.9764    1.7954   -0.9596 C   0  0  0  0  0  0  0  0  0  0  0  0
    2.3840    1.5434   -0.0812 C   0  0  0  0  0  0  0  0  0  0  0  0
    1.6043    1.1069    0.9895 C   0  0  0  0  0  0  0  0  0  0  0  0
    0.1911    1.5292    1.0150 C   0  0  0  0  0  0  0  0  0  0  0  0
   -0.1434    2.3920    1.8197 O   0  0  0  0  0  0  0  0  0  0  0  0
   -0.6847    0.9289    0.1181 N   0  0  0  0  0  0  0  0  0  0  0  0
   -2.0741    1.3861    0.0834 C   0  0  0  0  0  0  0  0  0  0  0  0
   -2.7051    1.2417   -1.3064 C   0  0  0  0  0  0  0  0  0  0  0  0
   -2.5764   -0.1375   -1.8530 N   0  0  0  0  0  0  0  0  0  0  0  0
   -3.9505   -0.8764   -2.4978 S   0  0  0  0  0  6  0  0  0  0  0  0
   -4.7301    0.1338   -3.1796 O   0  0  0  0  0  0  0  0  0  0  0  0
   -3.5354   -2.0903   -3.1648 O   0  0  0  0  0  0  0  0  0  0  0  0
   -4.9512   -1.4113   -1.2179 C   0  0  0  0  0  0  0  0  0  0  0  0
   -4.9197   -2.6692   -0.5701 C   0  0  0  0  0  0  0  0  0  0  0  0
   -4.0784   -3.8607   -0.8385 C   0  0  0  0  0  0  0  0  0  0  0  0
   -5.8267   -2.7176    0.4168 N   0  0  0  0  0  0  0  0  0  0  0  0
   -6.4881   -1.5070    0.3872 O   0  0  0  0  0  0  0  0  0  0  0  0
   -5.9739   -0.7269   -0.6034 C   0  0  0  0  0  0  0  0  0  0  0  0
   -6.6174    0.5888   -0.7807 C   0  0  0  0  0  0  0  0  0  0  0  0
   -1.5755   -1.0052   -1.1840 C   0  0  0  0  0  0  0  0  0  0  0  0
   -0.3417   -0.1944   -0.7640 C   0  0  0  0  0  0  0  0  0  0  0  0
    2.1388    0.3013    2.0135 C   0  0  0  0  0  0  0  0  0  0  0  0
    1.4130   -0.1623    3.1410 C   0  0  0  0  0  0  0  0  0  0  0  0
    0.1842   -1.5742    5.0690 H   0  0  0  0  0  0  0  0  0  0  0  0
    1.6243   -2.3827    5.6882 H   0  0  0  0  0  0  0  0  0  0  0  0
    1.3232   -0.6778    6.1057 H   0  0  0  0  0  0  0  0  0  0  0  0
    3.8583   -1.9383    4.6884 H   0  0  0  0  0  0  0  0  0  0  0  0
    5.1182   -1.1328    2.7318 H   0  0  0  0  0  0  0  0  0  0  0  0
    3.1546    1.4262   -2.8263 H   0  0  0  0  0  0  0  0  0  0  0  0
    4.7090    2.1027   -4.6033 H   0  0  0  0  0  0  0  0  0  0  0  0
    7.0859    2.5829   -4.0784 H   0  0  0  0  0  0  0  0  0  0  0  0
    7.8992    2.3787   -1.7422 H   0  0  0  0  0  0  0  0  0  0  0  0
    6.3539    1.7094    0.0586 H   0  0  0  0  0  0  0  0  0  0  0  0
    1.9621    2.1982   -0.8360 H   0  0  0  0  0  0  0  0  0  0  0  0
   -2.6249    0.7791    0.8122 H   0  0  0  0  0  0  0  0  0  0  0  0
   -2.1357    2.4296    0.4104 H   0  0  0  0  0  0  0  0  0  0  0  0
   -2.2008    1.9153   -2.0091 H   0  0  0  0  0  0  0  0  0  0  0  0
   -3.7492    1.5559   -1.2547 H   0  0  0  0  0  0  0  0  0  0  0  0
   -3.0188   -3.5938   -0.8904 H   0  0  0  0  0  0  0  0  0  0  0  0
   -4.3697   -4.3275   -1.7857 H   0  0  0  0  0  0  0  0  0  0  0  0
   -4.1874   -4.6126   -0.0481 H   0  0  0  0  0  0  0  0  0  0  0  0
   -7.4669    0.7068   -0.1010 H   0  0  0  0  0  0  0  0  0  0  0  0
   -6.9938    0.7032   -1.8013 H   0  0  0  0  0  0  0  0  0  0  0  0
   -5.9139    1.3982   -0.5730 H   0  0  0  0  0  0  0  0  0  0  0  0
   -1.2568   -1.7974   -1.8691 H   0  0  0  0  0  0  0  0  0  0  0  0
   -2.0262   -1.4637   -0.2974 H   0  0  0  0  0  0  0  0  0  0  0  0
    0.3803   -0.8493   -0.2681 H   0  0  0  0  0  0  0  0  0  0  0  0
    0.1392    0.2354   -1.6497 H   0  0  0  0  0  0  0  0  0  0  0  0
    0.3719    0.1299    3.2760 H   0  0  0  0  0  0  0  0  0  0  0  0
  1  2  1  0
  2  3  2  0
  3  4  1  0
  4  5  2  0
  5  6  1  0
  6  7  2  0
  7  8  1  0
  8  9  2  0
  9 10  1  0
 10 11  2  0
 11 12  1  0
 12 13  2  0
  7 14  1  0
 14 15  2  0
 15 16  1  0
 16 17  2  0
 16 18  1  0
 18 19  1  0
 19 20  1  0
 20 21  1  0
 21 22  1  0
 22 23  2  0
 22 24  2  0
 22 25  1  0
 25 26  1  0
 26 27  1  0
 26 28  2  0
 28 29  1  0
 29 30  1  0
 30 31  1  0
 21 32  1  0
 32 33  1  0
 15 34  1  0
 34 35  2  0
 35  2  1  0
 34  5  1  0
 13  8  1  0
 33 18  1  0
 30 25  2  0
  1 36  1  0
  1 37  1  0
  1 38  1  0
  3 39  1  0
  4 40  1  0
  9 41  1  0
 10 42  1  0
 11 43  1  0
 12 44  1  0
 13 45  1  0
 14 46  1  0
 19 47  1  0
 19 48  1  0
 20 49  1  0
 20 50  1  0
 27 51  1  0
 27 52  1  0
 27 53  1  0
 31 54  1  0
 31 55  1  0
 31 56  1  0
 32 57  1  0
 32 58  1  0
 33 59  1  0
 33 60  1  0
 35 61  1  0
M  END
$$$$
