
     RDKit          3D

 51 55  0  0  0  0  0  0  0  0999 V2000
   -1.8907    0.1099    2.3885 C   0  0  0  0  0  0  0  0  0  0  0  0
   -1.8069    0.1567    0.8812 C   0  0  0  0  0  0  0  0  0  0  0  0
   -0.6576   -0.4231    0.3509 N   0  0  0  0  0  0  0  0  0  0  0  0
   -0.4358   -0.4887   -0.9827 C   0  0  0  0  0  0  0  0  0  0  0  0
    0.5608   -1.0155   -1.7772 C   0  0  0  0  0  0  0  0  0  0  0  0
    1.7934   -1.6766   -1.4026 C   0  0  0  0  0  0  0  0  0  0  0  0
    2.3830   -2.4297   -2.1688 O   0  0  0  0  0  0  0  0  0  0  0  0
    2.2598   -1.3520   -0.1466 N   0  0  0  0  0  0  0  0  0  0  0  0
    3.5670   -1.7779    0.2973 C   0  0  0  0  0  0  0  0  0  0  0  0
    4.5892   -0.6953    0.0618 C   0  0  0  0  0  0  0  0  0  0  0  0
    5.2199   -0.5789   -1.1993 C   0  0  0  0  0  0  0  0  0  0  0  0
    6.1502    0.4348   -1.4497 C   0  0  0  0  0  0  0  0  0  0  0  0
    6.4250    1.3175   -0.4290 C   0  0  0  0  0  0  0  0  0  0  0  0
    5.8120    1.2185    0.7973 C   0  0  0  0  0  0  0  0  0  0  0  0
    4.8908    0.2301    1.0746 C   0  0  0  0  0  0  0  0  0  0  0  0
    6.2176    2.1880    1.6605 O   0  0  0  0  0  0  0  0  0  0  0  0
    7.1617    2.9054    0.8371 C   0  0  0  0  0  0  0  0  0  0  0  0
    7.2949    2.3605   -0.4916 O   0  0  0  0  0  0  0  0  0  0  0  0
    0.0980   -0.7764   -3.0931 C   0  0  0  0  0  0  0  0  0  0  0  0
   -1.0566   -0.1065   -3.1363 N   0  0  0  0  0  0  0  0  0  0  0  0
   -1.3805    0.0604   -1.8265 N   0  0  0  0  0  0  0  0  0  0  0  0
   -2.5517    0.7083   -1.4026 C   0  0  0  0  0  0  0  0  0  0  0  0
   -3.3164    1.2275   -2.2068 O   0  0  0  0  0  0  0  0  0  0  0  0
   -2.7631    0.7074    0.0909 C   0  0  0  0  0  0  0  0  0  0  0  0
   -4.0510    1.3562    0.5391 C   0  0  0  0  0  0  0  0  0  0  0  0
   -5.2286    0.4093    0.5413 C   0  0  0  0  0  0  0  0  0  0  0  0
   -5.9857    0.1984   -0.6208 C   0  0  0  0  0  0  0  0  0  0  0  0
   -7.0625   -0.6928   -0.6170 C   0  0  0  0  0  0  0  0  0  0  0  0
   -7.3978   -1.3839    0.5464 C   0  0  0  0  0  0  0  0  0  0  0  0
   -6.6554   -1.1830    1.7075 C   0  0  0  0  0  0  0  0  0  0  0  0
   -5.5831   -0.2944    1.6964 C   0  0  0  0  0  0  0  0  0  0  0  0
   -4.8889   -0.1173    2.8293 F   0  0  0  0  0  0  0  0  0  0  0  0
   -2.6160    0.8074    2.8097 H   0  0  0  0  0  0  0  0  0  0  0  0
   -0.9217    0.3731    2.8282 H   0  0  0  0  0  0  0  0  0  0  0  0
   -2.1503   -0.9016    2.7177 H   0  0  0  0  0  0  0  0  0  0  0  0
   -0.1045   -0.9757    1.0067 H   0  0  0  0  0  0  0  0  0  0  0  0
    1.8847   -0.5119    0.2725 H   0  0  0  0  0  0  0  0  0  0  0  0
    3.4897   -1.9983    1.3678 H   0  0  0  0  0  0  0  0  0  0  0  0
    3.8675   -2.7052   -0.2032 H   0  0  0  0  0  0  0  0  0  0  0  0
    4.9784   -1.2846   -1.9942 H   0  0  0  0  0  0  0  0  0  0  0  0
    6.6359    0.5256   -2.4147 H   0  0  0  0  0  0  0  0  0  0  0  0
    4.4229    0.1809    2.0518 H   0  0  0  0  0  0  0  0  0  0  0  0
    8.1424    2.8810    1.3263 H   0  0  0  0  0  0  0  0  0  0  0  0
    6.8347    3.9485    0.7572 H   0  0  0  0  0  0  0  0  0  0  0  0
    0.5786   -1.0535   -4.0244 H   0  0  0  0  0  0  0  0  0  0  0  0
   -4.2852    2.2182   -0.1002 H   0  0  0  0  0  0  0  0  0  0  0  0
   -3.9458    1.8066    1.5323 H   0  0  0  0  0  0  0  0  0  0  0  0
   -5.7430    0.7269   -1.5420 H   0  0  0  0  0  0  0  0  0  0  0  0
   -7.6384   -0.8464   -1.5270 H   0  0  0  0  0  0  0  0  0  0  0  0
   -8.2358   -2.0761    0.5462 H   0  0  0  0  0  0  0  0  0  0  0  0
   -6.9048   -1.7116    2.6219 H   0  0  0  0  0  0  0  0  0  0  0  0
  1  2  1  0
  2  3  1  0
  3  4  1  0
  4  5  2  0
  5  6  1  0
  6  7  2  0
  6  8  1  0
  8  9  1  0
  9 10  1  0
 10 11  2  0
 11 12  1  0
 12 13  2  0
 13 14  1  0
 14 15  2  0
 14 16  1  0
 16 17  1  0
 17 18  1  0
  5 19  1  0
 19 20  2  0
 20 21  1  0
 21 22  1  0
 22 23  2  0
 22 24  1  0
 24 25  1  0
 25 26  1  0
 26 27  2  0
 27 28  1  0
 28 29  2  0
 29 30  1  0
 30 31  2  0
 31 32  1  0
 24  2  2  0
 31 26  1  0
 21  4  1  0
 15 10  1  0
 18 13  1  0
  1 33  1  0
  1 34  1  0
  1 35  1  0
  3 36  1  0
  8 37  1  0
  9 38  1  0
  9 39  1  0
 11 40  1  0
 12 41  1  0
 15 42  1  0
 17 43  1  0
 17 44  1  0
 19 45  1  0
 25 46  1  0
 25 47  1  0
 27 48  1  0
 28 49  1  0
 29 50  1  0
 30 51  1  0
M  END
$$$$
