
     RDKit          3D

 56 59  0  0  0  0  0  0  0  0999 V2000
    7.4840   -1.8919    3.9233 C   0  0  0  0  0  0  0  0  0  0  0  0
    7.6517   -1.3448    2.6213 O   0  0  0  0  0  0  0  0  0  0  0  0
    6.5442   -1.2957    1.8210 C   0  0  0  0  0  0  0  0  0  0  0  0
    6.7663   -0.7398    0.5563 C   0  0  0  0  0  0  0  0  0  0  0  0
    5.7240   -0.6243   -0.3654 C   0  0  0  0  0  0  0  0  0  0  0  0
    4.4481   -1.0657   -0.0116 C   0  0  0  0  0  0  0  0  0  0  0  0
    3.1291   -0.9219   -1.1882 S   0  0  0  0  0  6  0  0  0  0  0  0
    3.6535   -1.2855   -2.4863 O   0  0  0  0  0  0  0  0  0  0  0  0
    1.9562   -1.5742   -0.6439 O   0  0  0  0  0  0  0  0  0  0  0  0
    2.8287    0.7210   -1.2002 N   0  0  0  0  0  0  0  0  0  0  0  0
    2.3425    1.3817    0.0109 C   0  0  0  0  0  0  0  0  0  0  0  0
    2.0074    2.7575   -0.5198 C   0  0  0  0  0  0  0  0  0  0  0  0
    1.4959    2.5379   -1.8380 O   0  0  0  0  0  0  0  0  0  0  0  0
    2.0520    1.2931   -2.3223 C   0  0  0  0  0  0  0  0  0  0  0  0
    0.8952    0.4335   -2.8842 C   0  0  0  0  0  0  0  0  0  0  0  0
   -0.0415   -0.0367   -1.8733 N   0  0  0  0  0  0  0  0  0  0  0  0
   -1.3891   -0.1509   -2.1155 C   0  0  0  0  0  0  0  0  0  0  0  0
   -1.9804    0.2250   -3.1179 O   0  0  0  0  0  0  0  0  0  0  0  0
   -2.1710   -0.8506   -0.9788 C   0  0  0  0  0  0  0  0  0  0  0  0
   -1.6380   -1.0661    0.1009 O   0  0  0  0  0  0  0  0  0  0  0  0
   -3.4622   -1.1693   -1.3253 N   0  0  0  0  0  0  0  0  0  0  0  0
   -4.4091   -1.6939   -0.3775 C   0  0  0  0  0  0  0  0  0  0  0  0
   -5.3484   -0.6136    0.0950 C   0  0  0  0  0  0  0  0  0  0  0  0
   -4.9388    0.2898    1.1049 C   0  0  0  0  0  0  0  0  0  0  0  0
   -5.7869    1.3104    1.5458 C   0  0  0  0  0  0  0  0  0  0  0  0
   -7.0305    1.4065    0.9607 C   0  0  0  0  0  0  0  0  0  0  0  0
   -7.4359    0.5386   -0.0257 C   0  0  0  0  0  0  0  0  0  0  0  0
   -6.6212   -0.4754   -0.4841 C   0  0  0  0  0  0  0  0  0  0  0  0
   -8.6949    0.8037   -0.4645 O   0  0  0  0  0  0  0  0  0  0  0  0
   -9.0357    1.9383    0.3595 C   0  0  0  0  0  0  0  0  0  0  0  0
   -7.9824    2.3283    1.2653 O   0  0  0  0  0  0  0  0  0  0  0  0
    4.2136   -1.6338    1.2429 C   0  0  0  0  0  0  0  0  0  0  0  0
    5.2649   -1.7445    2.1599 C   0  0  0  0  0  0  0  0  0  0  0  0
    8.4513   -1.8453    4.4309 H   0  0  0  0  0  0  0  0  0  0  0  0
    6.7712   -1.3037    4.5097 H   0  0  0  0  0  0  0  0  0  0  0  0
    7.1838   -2.9440    3.8737 H   0  0  0  0  0  0  0  0  0  0  0  0
    7.7640   -0.3976    0.2879 H   0  0  0  0  0  0  0  0  0  0  0  0
    5.9127   -0.1960   -1.3471 H   0  0  0  0  0  0  0  0  0  0  0  0
    1.4427    0.8885    0.3903 H   0  0  0  0  0  0  0  0  0  0  0  0
    3.0965    1.4325    0.7990 H   0  0  0  0  0  0  0  0  0  0  0  0
    2.9039    3.3826   -0.6054 H   0  0  0  0  0  0  0  0  0  0  0  0
    1.2671    3.2821    0.0906 H   0  0  0  0  0  0  0  0  0  0  0  0
    2.7430    1.5476   -3.1339 H   0  0  0  0  0  0  0  0  0  0  0  0
    0.3406    1.0248   -3.6211 H   0  0  0  0  0  0  0  0  0  0  0  0
    1.2770   -0.4543   -3.3976 H   0  0  0  0  0  0  0  0  0  0  0  0
    0.3157   -0.6093   -1.1053 H   0  0  0  0  0  0  0  0  0  0  0  0
   -3.7893   -0.8063   -2.2152 H   0  0  0  0  0  0  0  0  0  0  0  0
   -3.8932   -2.1448    0.4782 H   0  0  0  0  0  0  0  0  0  0  0  0
   -4.9651   -2.4937   -0.8795 H   0  0  0  0  0  0  0  0  0  0  0  0
   -3.9473    0.1940    1.5480 H   0  0  0  0  0  0  0  0  0  0  0  0
   -5.4782    2.0039    2.3205 H   0  0  0  0  0  0  0  0  0  0  0  0
   -6.9671   -1.1419   -1.2675 H   0  0  0  0  0  0  0  0  0  0  0  0
   -9.9270    1.6891    0.9466 H   0  0  0  0  0  0  0  0  0  0  0  0
   -9.2705    2.7877   -0.2925 H   0  0  0  0  0  0  0  0  0  0  0  0
    3.2236   -1.9935    1.5178 H   0  0  0  0  0  0  0  0  0  0  0  0
    5.0535   -2.1902    3.1270 H   0  0  0  0  0  0  0  0  0  0  0  0
  1  2  1  0
  2  3  1  0
  3  4  2  0
  4  5  1  0
  5  6  2  0
  6  7  1  0
  7  8  2  0
  7  9  2  0
  7 10  1  0
 10 11  1  0
 11 12  1  0
 12 13  1  0
 13 14  1  0
 14 15  1  0
 15 16  1  0
 16 17  1  0
 17 18  2  0
 17 19  1  0
 19 20  2  0
 19 21  1  0
 21 22  1  0
 22 23  1  0
 23 24  2  0
 24 25  1  0
 25 26  2  0
 26 27  1  0
 27 28  2  0
 27 29  1  0
 29 30  1  0
 30 31  1  0
  6 32  1  0
 32 33  2  0
 33  3  1  0
 14 10  1  0
 28 23  1  0
 31 26  1  0
  1 34  1  0
  1 35  1  0
  1 36  1  0
  4 37  1  0
  5 38  1  0
 11 39  1  0
 11 40  1  0
 12 41  1  0
 12 42  1  0
 14 43  1  0
 15 44  1  0
 15 45  1  0
 16 46  1  0
 21 47  1  0
 22 48  1  0
 22 49  1  0
 24 50  1  0
 25 51  1  0
 28 52  1  0
 30 53  1  0
 30 54  1  0
 32 55  1  0
 33 56  1  0
M  END
$$$$
