
     RDKit          3D

 48 50  0  0  0  0  0  0  0  0999 V2000
    7.4239    2.5667    1.8749 C   0  0  0  0  0  0  0  0  0  0  0  0
    6.0518    2.0500    1.6400 C   0  0  0  0  0  0  0  0  0  0  0  0
    4.9084    2.4217    2.3208 C   0  0  0  0  0  0  0  0  0  0  0  0
    3.5608    1.5622    1.7064 S   0  0  0  0  0  0  0  0  0  0  0  0
    4.5808    0.7697    0.5999 C   0  0  0  0  0  0  0  0  0  0  0  0
    4.1359   -0.1534   -0.3106 N   0  0  0  0  0  0  0  0  0  0  0  0
    2.8499   -0.6178   -0.4653 C   0  0  0  0  0  0  0  0  0  0  0  0
    1.8646   -0.3151    0.1994 O   0  0  0  0  0  0  0  0  0  0  0  0
    2.7528   -1.6233   -1.5999 C   0  0  0  0  0  0  0  0  0  0  0  0
    1.3122   -2.0610   -1.8472 C   0  0  0  0  0  0  0  0  0  0  0  0
    0.8507   -2.9186   -0.7396 N   0  0  0  0  0  0  0  0  0  0  0  0
   -0.6463   -3.6794   -0.9066 S   0  0  0  0  0  6  0  0  0  0  0  0
   -0.6879   -4.3009   -2.2119 O   0  0  0  0  0  0  0  0  0  0  0  0
   -0.8877   -4.4253    0.3062 O   0  0  0  0  0  0  0  0  0  0  0  0
   -1.7722   -2.3051   -0.9157 C   0  0  0  0  0  0  0  0  0  0  0  0
   -2.4228   -1.9364   -2.0919 C   0  0  0  0  0  0  0  0  0  0  0  0
   -3.3081   -0.8525   -2.0810 C   0  0  0  0  0  0  0  0  0  0  0  0
   -3.5568   -0.1311   -0.8999 C   0  0  0  0  0  0  0  0  0  0  0  0
   -2.9032   -0.5285    0.2668 C   0  0  0  0  0  0  0  0  0  0  0  0
   -2.0154   -1.6149    0.2709 C   0  0  0  0  0  0  0  0  0  0  0  0
   -3.1536    0.2038    1.5176 C   0  0  0  0  0  0  0  0  0  0  0  0
   -2.6317   -0.1941    2.5563 O   0  0  0  0  0  0  0  0  0  0  0  0
   -3.9853    1.3090    1.4371 N   0  0  0  0  0  0  0  0  0  0  0  0
   -4.2362    2.0576    2.6551 C   0  0  0  0  0  0  0  0  0  0  0  0
   -4.6899    1.6960    0.3037 C   0  0  0  0  0  0  0  0  0  0  0  0
   -5.4893    2.6350    0.3345 O   0  0  0  0  0  0  0  0  0  0  0  0
   -4.4525    0.9704   -0.8609 N   0  0  0  0  0  0  0  0  0  0  0  0
   -5.1643    1.3640   -2.0704 C   0  0  0  0  0  0  0  0  0  0  0  0
    5.8497    1.1017    0.6489 N   0  0  0  0  0  0  0  0  0  0  0  0
    7.4689    3.6401    1.6656 H   0  0  0  0  0  0  0  0  0  0  0  0
    7.7226    2.4010    2.9147 H   0  0  0  0  0  0  0  0  0  0  0  0
    8.1491    2.0627    1.2284 H   0  0  0  0  0  0  0  0  0  0  0  0
    4.8023    3.1352    3.1252 H   0  0  0  0  0  0  0  0  0  0  0  0
    4.8802   -0.5164   -0.8896 H   0  0  0  0  0  0  0  0  0  0  0  0
    3.3837   -2.4868   -1.3596 H   0  0  0  0  0  0  0  0  0  0  0  0
    3.1422   -1.1483   -2.5080 H   0  0  0  0  0  0  0  0  0  0  0  0
    1.2769   -2.6271   -2.7837 H   0  0  0  0  0  0  0  0  0  0  0  0
    0.6617   -1.1856   -1.9415 H   0  0  0  0  0  0  0  0  0  0  0  0
    0.9370   -2.4889    0.1884 H   0  0  0  0  0  0  0  0  0  0  0  0
   -2.2529   -2.4829   -3.0179 H   0  0  0  0  0  0  0  0  0  0  0  0
   -3.7946   -0.5971   -3.0185 H   0  0  0  0  0  0  0  0  0  0  0  0
   -1.5226   -1.9151    1.1948 H   0  0  0  0  0  0  0  0  0  0  0  0
   -5.2152    1.7627    3.0462 H   0  0  0  0  0  0  0  0  0  0  0  0
   -3.4755    1.8677    3.4172 H   0  0  0  0  0  0  0  0  0  0  0  0
   -4.2545    3.1309    2.4398 H   0  0  0  0  0  0  0  0  0  0  0  0
   -5.8254    2.2192   -1.9045 H   0  0  0  0  0  0  0  0  0  0  0  0
   -5.7815    0.5288   -2.4166 H   0  0  0  0  0  0  0  0  0  0  0  0
   -4.4406    1.6493   -2.8407 H   0  0  0  0  0  0  0  0  0  0  0  0
  1  2  1  0
  2  3  2  0
  3  4  1  0
  4  5  1  0
  5  6  1  0
  6  7  1  0
  7  8  2  0
  7  9  1  0
  9 10  1  0
 10 11  1  0
 11 12  1  0
 12 13  2  0
 12 14  2  0
 12 15  1  0
 15 16  2  0
 16 17  1  0
 17 18  2  0
 18 19  1  0
 19 20  2  0
 19 21  1  0
 21 22  2  0
 21 23  1  0
 23 24  1  0
 23 25  1  0
 25 26  2  0
 25 27  1  0
 27 28  1  0
  5 29  2  0
 29  2  1  0
 20 15  1  0
 27 18  1  0
  1 30  1  0
  1 31  1  0
  1 32  1  0
  3 33  1  0
  6 34  1  0
  9 35  1  0
  9 36  1  0
 10 37  1  0
 10 38  1  0
 11 39  1  0
 16 40  1  0
 17 41  1  0
 20 42  1  0
 24 43  1  0
 24 44  1  0
 24 45  1  0
 28 46  1  0
 28 47  1  0
 28 48  1  0
M  END
$$$$
