
     RDKit          3D

 59 64  0  0  0  0  0  0  0  0999 V2000
   -6.2643   -1.9176    0.4076 C   0  0  0  0  0  0  0  0  0  0  0  0
   -6.3479   -0.5008    0.8461 C   0  0  0  0  0  0  0  0  0  0  0  0
   -7.3634    0.0381    1.4907 N   0  0  0  0  0  0  0  0  0  0  0  0
   -7.0285    1.3552    1.6867 C   0  0  0  0  0  0  0  0  0  0  0  0
   -7.7575    2.3778    2.3157 C   0  0  0  0  0  0  0  0  0  0  0  0
   -7.1972    3.6604    2.3917 C   0  0  0  0  0  0  0  0  0  0  0  0
   -5.9345    3.9197    1.8539 C   0  0  0  0  0  0  0  0  0  0  0  0
   -5.1917    2.9113    1.2247 C   0  0  0  0  0  0  0  0  0  0  0  0
   -5.7721    1.6360    1.1567 C   0  0  0  0  0  0  0  0  0  0  0  0
   -5.3575    0.4341    0.6259 N   0  0  0  0  0  0  0  0  0  0  0  0
   -4.1015    0.2066   -0.0684 C   0  0  0  0  0  0  0  0  0  0  0  0
   -2.9869   -0.2158    0.8819 C   0  0  0  0  0  0  0  0  0  0  0  0
   -1.7258   -0.5389    0.1647 C   0  0  0  0  0  0  0  0  0  0  0  0
   -1.4499   -0.0729   -1.0990 N   0  0  0  0  0  0  0  0  0  0  0  0
   -0.2642   -0.5923   -1.3484 C   0  0  0  0  0  0  0  0  0  0  0  0
    0.5992   -0.5151   -2.5060 C   0  0  0  0  0  0  0  0  0  0  0  0
    0.2720    0.2260   -3.6422 C   0  0  0  0  0  0  0  0  0  0  0  0
    1.1564    0.2609   -4.7185 C   0  0  0  0  0  0  0  0  0  0  0  0
    2.3588   -0.4450   -4.6580 C   0  0  0  0  0  0  0  0  0  0  0  0
    2.6826   -1.1911   -3.5207 C   0  0  0  0  0  0  0  0  0  0  0  0
    1.8107   -1.2347   -2.4336 C   0  0  0  0  0  0  0  0  0  0  0  0
    2.1778   -1.9926   -1.2904 N   0  0  0  0  0  0  0  0  0  0  0  0
    1.3802   -2.0150   -0.2539 C   0  0  0  0  0  0  0  0  0  0  0  0
    1.8605   -2.9422    1.1610 S   0  0  0  0  0  0  0  0  0  0  0  0
    3.6575   -2.6821    1.0990 C   0  0  0  0  0  0  0  0  0  0  0  0
    4.0242   -1.2076    0.9741 C   0  0  0  0  0  0  0  0  0  0  0  0
    3.4478   -0.3112    1.5923 O   0  0  0  0  0  0  0  0  0  0  0  0
    5.0666   -0.9621    0.1072 N   0  0  0  0  0  0  0  0  0  0  0  0
    5.5860    0.3698   -0.1134 C   0  0  0  0  0  0  0  0  0  0  0  0
    6.9819    0.4049    0.3848 C   0  0  0  0  0  0  0  0  0  0  0  0
    7.5479    0.7968    1.5810 C   0  0  0  0  0  0  0  0  0  0  0  0
    8.9445    0.5964    1.4446 C   0  0  0  0  0  0  0  0  0  0  0  0
    9.1385    0.0907    0.1813 C   0  0  0  0  0  0  0  0  0  0  0  0
    7.9513   -0.0419   -0.4665 O   0  0  0  0  0  0  0  0  0  0  0  0
    0.1573   -1.3319   -0.2744 N   0  0  0  0  0  0  0  0  0  0  0  0
   -0.7764   -1.3218    0.7056 N   0  0  0  0  0  0  0  0  0  0  0  0
   -7.1333   -2.4804    0.7613 H   0  0  0  0  0  0  0  0  0  0  0  0
   -6.2431   -1.9818   -0.6850 H   0  0  0  0  0  0  0  0  0  0  0  0
   -5.3667   -2.3961    0.8090 H   0  0  0  0  0  0  0  0  0  0  0  0
   -8.7369    2.1649    2.7299 H   0  0  0  0  0  0  0  0  0  0  0  0
   -7.7532    4.4611    2.8755 H   0  0  0  0  0  0  0  0  0  0  0  0
   -5.5194    4.9252    1.9238 H   0  0  0  0  0  0  0  0  0  0  0  0
   -4.2109    3.1215    0.8098 H   0  0  0  0  0  0  0  0  0  0  0  0
   -4.2757   -0.5523   -0.8421 H   0  0  0  0  0  0  0  0  0  0  0  0
   -3.8408    1.1323   -0.5971 H   0  0  0  0  0  0  0  0  0  0  0  0
   -3.3051   -1.0940    1.4602 H   0  0  0  0  0  0  0  0  0  0  0  0
   -2.7900    0.5834    1.6100 H   0  0  0  0  0  0  0  0  0  0  0  0
   -0.6631    0.7775   -3.6894 H   0  0  0  0  0  0  0  0  0  0  0  0
    0.9096    0.8414   -5.6061 H   0  0  0  0  0  0  0  0  0  0  0  0
    3.0456   -0.4135   -5.4989 H   0  0  0  0  0  0  0  0  0  0  0  0
    3.6190   -1.7392   -3.4819 H   0  0  0  0  0  0  0  0  0  0  0  0
    4.1012   -3.0616    2.0244 H   0  0  0  0  0  0  0  0  0  0  0  0
    4.0719   -3.2590    0.2652 H   0  0  0  0  0  0  0  0  0  0  0  0
    5.5435   -1.7229   -0.3615 H   0  0  0  0  0  0  0  0  0  0  0  0
    4.9723    1.1201    0.3947 H   0  0  0  0  0  0  0  0  0  0  0  0
    5.5515    0.5699   -1.1892 H   0  0  0  0  0  0  0  0  0  0  0  0
    7.0120    1.1735    2.4411 H   0  0  0  0  0  0  0  0  0  0  0  0
    9.7149    0.7945    2.1764 H   0  0  0  0  0  0  0  0  0  0  0  0
   10.0148   -0.2166   -0.3765 H   0  0  0  0  0  0  0  0  0  0  0  0
  1  2  1  0
  2  3  2  0
  3  4  1  0
  4  5  2  0
  5  6  1  0
  6  7  2  0
  7  8  1  0
  8  9  2  0
  9 10  1  0
 10 11  1  0
 11 12  1  0
 12 13  1  0
 13 14  1  0
 14 15  2  0
 15 16  1  0
 16 17  2  0
 17 18  1  0
 18 19  2  0
 19 20  1  0
 20 21  2  0
 21 22  1  0
 22 23  2  0
 23 24  1  0
 24 25  1  0
 25 26  1  0
 26 27  2  0
 26 28  1  0
 28 29  1  0
 29 30  1  0
 30 31  2  0
 31 32  1  0
 32 33  2  0
 33 34  1  0
 23 35  1  0
 35 36  1  0
 10  2  1  0
 36 13  2  0
  9  4  1  0
 35 15  1  0
 21 16  1  0
 34 30  1  0
  1 37  1  0
  1 38  1  0
  1 39  1  0
  5 40  1  0
  6 41  1  0
  7 42  1  0
  8 43  1  0
 11 44  1  0
 11 45  1  0
 12 46  1  0
 12 47  1  0
 17 48  1  0
 18 49  1  0
 19 50  1  0
 20 51  1  0
 25 52  1  0
 25 53  1  0
 28 54  1  0
 29 55  1  0
 29 56  1  0
 31 57  1  0
 32 58  1  0
 33 59  1  0
M  END
$$$$
