
     RDKit          3D

 37 38  0  0  0  0  0  0  0  0999 V2000
   -7.6536   -0.5794    0.7238 C   0  0  0  0  0  0  0  0  0  0  0  0
   -6.1525   -0.7229    0.7745 C   0  0  0  0  0  0  0  0  0  0  0  0
   -5.6286   -1.5704    1.4879 O   0  0  0  0  0  0  0  0  0  0  0  0
   -5.5108    0.2041   -0.0272 N   0  0  0  0  0  0  0  0  0  0  0  0
   -4.1224    0.3600   -0.2168 C   0  0  0  0  0  0  0  0  0  0  0  0
   -3.1544   -0.4401    0.3933 C   0  0  0  0  0  0  0  0  0  0  0  0
   -1.7909   -0.2215    0.1525 C   0  0  0  0  0  0  0  0  0  0  0  0
   -1.3796    0.8043   -0.7054 C   0  0  0  0  0  0  0  0  0  0  0  0
    0.0531    1.0798   -0.9957 C   0  0  0  0  0  0  0  0  0  0  0  0
    0.4366    1.9688   -1.7402 O   0  0  0  0  0  0  0  0  0  0  0  0
    0.8525    0.2176   -0.3270 O   0  0  0  0  0  0  0  0  0  0  0  0
    2.2469    0.4224   -0.5570 C   0  0  0  0  0  0  0  0  0  0  0  0
    3.0681   -0.5898    0.2310 C   0  0  0  0  0  0  0  0  0  0  0  0
    2.5556   -1.4469    0.9498 O   0  0  0  0  0  0  0  0  0  0  0  0
    4.5594   -0.5329    0.1209 C   0  0  0  0  0  0  0  0  0  0  0  0
    5.3164   -1.4654    0.8501 C   0  0  0  0  0  0  0  0  0  0  0  0
    6.7112   -1.4543    0.7815 C   0  0  0  0  0  0  0  0  0  0  0  0
    7.3486   -0.5122   -0.0150 C   0  0  0  0  0  0  0  0  0  0  0  0
    8.6857   -0.4992   -0.0827 F   0  0  0  0  0  0  0  0  0  0  0  0
    6.6173    0.4188   -0.7440 C   0  0  0  0  0  0  0  0  0  0  0  0
    5.2202    0.4118   -0.6787 C   0  0  0  0  0  0  0  0  0  0  0  0
   -2.3468    1.6075   -1.3191 C   0  0  0  0  0  0  0  0  0  0  0  0
   -3.7068    1.3856   -1.0758 C   0  0  0  0  0  0  0  0  0  0  0  0
   -7.9884   -0.3162   -0.2836 H   0  0  0  0  0  0  0  0  0  0  0  0
   -8.1185   -1.5311    0.9968 H   0  0  0  0  0  0  0  0  0  0  0  0
   -7.9672    0.1940    1.4297 H   0  0  0  0  0  0  0  0  0  0  0  0
   -6.1020    0.8524   -0.5318 H   0  0  0  0  0  0  0  0  0  0  0  0
   -3.4230   -1.2492    1.0663 H   0  0  0  0  0  0  0  0  0  0  0  0
   -1.0656   -0.8657    0.6465 H   0  0  0  0  0  0  0  0  0  0  0  0
    2.5198    1.4286   -0.2198 H   0  0  0  0  0  0  0  0  0  0  0  0
    2.4567    0.2843   -1.6235 H   0  0  0  0  0  0  0  0  0  0  0  0
    4.8216   -2.2067    1.4764 H   0  0  0  0  0  0  0  0  0  0  0  0
    7.2995   -2.1733    1.3434 H   0  0  0  0  0  0  0  0  0  0  0  0
    7.1408    1.1450   -1.3592 H   0  0  0  0  0  0  0  0  0  0  0  0
    4.6805    1.1531   -1.2610 H   0  0  0  0  0  0  0  0  0  0  0  0
   -2.0477    2.4108   -1.9901 H   0  0  0  0  0  0  0  0  0  0  0  0
   -4.4314    2.0285   -1.5692 H   0  0  0  0  0  0  0  0  0  0  0  0
  1  2  1  0
  2  3  2  0
  2  4  1  0
  4  5  1  0
  5  6  2  0
  6  7  1  0
  7  8  2  0
  8  9  1  0
  9 10  2  0
  9 11  1  0
 11 12  1  0
 12 13  1  0
 13 14  2  0
 13 15  1  0
 15 16  2  0
 16 17  1  0
 17 18  2  0
 18 19  1  0
 18 20  1  0
 20 21  2  0
  8 22  1  0
 22 23  2  0
 23  5  1  0
 21 15  1  0
  1 24  1  0
  1 25  1  0
  1 26  1  0
  4 27  1  0
  6 28  1  0
  7 29  1  0
 12 30  1  0
 12 31  1  0
 16 32  1  0
 17 33  1  0
 20 34  1  0
 21 35  1  0
 22 36  1  0
 23 37  1  0
M  END
$$$$
