
     RDKit          3D

 41 44  0  0  0  0  0  0  0  0999 V2000
   -2.4992   -0.2021   -3.6824 O   0  0  0  0  0  0  0  0  0  0  0  0
   -1.8741    0.4141   -2.5299 S   0  0  0  0  0  6  0  0  0  0  0  0
   -1.1973    1.6869   -2.6438 O   0  0  0  0  0  0  0  0  0  0  0  0
   -0.8122   -0.7461   -1.9087 N   0  0  0  0  0  0  0  0  0  0  0  0
    0.1999   -0.3133   -0.9956 C   0  0  0  0  0  0  0  0  0  0  0  0
   -0.1361   -0.2800    0.3605 C   0  0  0  0  0  0  0  0  0  0  0  0
    0.7887    0.1487    1.3137 C   0  0  0  0  0  0  0  0  0  0  0  0
    0.2367    0.2364    3.0125 S   0  0  0  0  0  0  0  0  0  0  0  0
    1.2366   -0.9599    3.7845 C   0  0  0  0  0  0  0  0  0  0  0  0
    0.7534   -2.1125    4.3347 N   0  0  0  0  0  0  0  0  0  0  0  0
    1.8317   -2.6851    4.8154 C   0  0  0  0  0  0  0  0  0  0  0  0
    2.9121   -1.8979    4.5696 N   0  0  0  0  0  0  0  0  0  0  0  0
    2.5574   -0.7778    3.9141 N   0  0  0  0  0  0  0  0  0  0  0  0
    2.0632    0.5480    0.8820 C   0  0  0  0  0  0  0  0  0  0  0  0
    3.0111    0.9782    1.7833 O   0  0  0  0  0  0  0  0  0  0  0  0
    2.4234    0.5345   -0.4861 C   0  0  0  0  0  0  0  0  0  0  0  0
    3.7027    0.9415   -0.9239 C   0  0  0  0  0  0  0  0  0  0  0  0
    4.0512    0.9336   -2.2735 C   0  0  0  0  0  0  0  0  0  0  0  0
    3.1247    0.5224   -3.2200 C   0  0  0  0  0  0  0  0  0  0  0  0
    1.8542    0.1125   -2.8136 C   0  0  0  0  0  0  0  0  0  0  0  0
    1.4767    0.1027   -1.4481 C   0  0  0  0  0  0  0  0  0  0  0  0
   -3.1045    0.5301   -1.2573 C   0  0  0  0  0  0  0  0  0  0  0  0
   -3.0889    1.6120   -0.3718 C   0  0  0  0  0  0  0  0  0  0  0  0
   -4.0618    1.6960    0.6240 C   0  0  0  0  0  0  0  0  0  0  0  0
   -5.0480    0.7126    0.7220 C   0  0  0  0  0  0  0  0  0  0  0  0
   -5.0683   -0.3572   -0.1750 C   0  0  0  0  0  0  0  0  0  0  0  0
   -4.0975   -0.4506   -1.1716 C   0  0  0  0  0  0  0  0  0  0  0  0
   -0.5439   -1.4208   -2.6232 H   0  0  0  0  0  0  0  0  0  0  0  0
   -1.1271   -0.6013    0.6746 H   0  0  0  0  0  0  0  0  0  0  0  0
    1.8886   -3.6313    5.3350 H   0  0  0  0  0  0  0  0  0  0  0  0
    3.8855   -2.0517    4.8109 H   0  0  0  0  0  0  0  0  0  0  0  0
    2.7957    0.5921    2.6592 H   0  0  0  0  0  0  0  0  0  0  0  0
    4.4413    1.2795   -0.1981 H   0  0  0  0  0  0  0  0  0  0  0  0
    5.0408    1.2588   -2.5811 H   0  0  0  0  0  0  0  0  0  0  0  0
    3.3824    0.5306   -4.2764 H   0  0  0  0  0  0  0  0  0  0  0  0
    1.1495   -0.1818   -3.5877 H   0  0  0  0  0  0  0  0  0  0  0  0
   -2.3245    2.3832   -0.4451 H   0  0  0  0  0  0  0  0  0  0  0  0
   -4.0537    2.5291    1.3231 H   0  0  0  0  0  0  0  0  0  0  0  0
   -5.8066    0.7831    1.4981 H   0  0  0  0  0  0  0  0  0  0  0  0
   -5.8443   -1.1152   -0.0988 H   0  0  0  0  0  0  0  0  0  0  0  0
   -4.1196   -1.2820   -1.8721 H   0  0  0  0  0  0  0  0  0  0  0  0
  1  2  2  0
  2  3  2  0
  2  4  1  0
  4  5  1  0
  5  6  2  0
  6  7  1  0
  7  8  1  0
  8  9  1  0
  9 10  1  0
 10 11  2  0
 11 12  1  0
 12 13  1  0
  7 14  2  0
 14 15  1  0
 14 16  1  0
 16 17  2  0
 17 18  1  0
 18 19  2  0
 19 20  1  0
 20 21  2  0
  2 22  1  0
 22 23  2  0
 23 24  1  0
 24 25  2  0
 25 26  1  0
 26 27  2  0
 21  5  1  0
 27 22  1  0
 13  9  2  0
 21 16  1  0
  4 28  1  0
  6 29  1  0
 11 30  1  0
 12 31  1  0
 15 32  1  0
 17 33  1  0
 18 34  1  0
 19 35  1  0
 20 36  1  0
 23 37  1  0
 24 38  1  0
 25 39  1  0
 26 40  1  0
 27 41  1  0
M  END
$$$$
