
     RDKit          3D

 41 42  0  0  0  0  0  0  0  0999 V2000
    1.6417    4.7754    1.4414 C   0  0  0  0  0  0  0  0  0  0  0  0
    1.4107    3.6167    2.3929 C   0  0  0  0  0  0  0  0  0  0  0  0
    1.5474    2.3691    1.6933 O   0  0  0  0  0  0  0  0  0  0  0  0
    0.4269    1.9174    1.0439 C   0  0  0  0  0  0  0  0  0  0  0  0
   -0.6620    2.4788    1.0848 O   0  0  0  0  0  0  0  0  0  0  0  0
    0.7306    0.5728    0.3232 C   0  0  0  0  0  0  0  0  0  0  0  0
   -0.5350   -0.1211    0.0888 N   0  0  0  0  0  0  0  0  0  0  0  0
   -1.3595    0.2108   -0.9549 C   0  0  0  0  0  0  0  0  0  0  0  0
   -1.0300    0.9900   -1.8366 O   0  0  0  0  0  0  0  0  0  0  0  0
   -2.7115   -0.4087   -0.9594 C   0  0  0  0  0  0  0  0  0  0  0  0
   -2.9612   -1.6500   -0.3568 C   0  0  0  0  0  0  0  0  0  0  0  0
   -4.2463   -2.1963   -0.3897 C   0  0  0  0  0  0  0  0  0  0  0  0
   -5.2798   -1.5097   -1.0280 C   0  0  0  0  0  0  0  0  0  0  0  0
   -5.0252   -0.2821   -1.6388 C   0  0  0  0  0  0  0  0  0  0  0  0
   -6.3029    0.5546   -2.4310 Cl  0  0  0  0  0  0  0  0  0  0  0  0
   -3.7471    0.2705   -1.6122 C   0  0  0  0  0  0  0  0  0  0  0  0
    1.4050   -0.3254    1.3182 N   0  0  0  0  0  0  0  0  0  0  0  0
    2.0935   -1.4187    0.8840 C   0  0  0  0  0  0  0  0  0  0  0  0
    3.3261   -1.6616    1.2737 N   0  0  0  0  0  0  0  0  0  0  0  0
    3.8468   -2.8190    0.7356 N   0  0  0  0  0  0  0  0  0  0  0  0
    2.9772   -3.4404   -0.0292 C   0  0  0  0  0  0  0  0  0  0  0  0
    3.2341   -4.7090   -0.7542 C   0  0  0  0  0  0  0  0  0  0  0  0
    1.4556   -2.6576   -0.1328 S   0  0  0  0  0  0  0  0  0  0  0  0
    1.6272    1.0058   -0.8898 C   0  0  0  0  0  0  0  0  0  0  0  0
    1.2451    2.1626   -1.4741 F   0  0  0  0  0  0  0  0  0  0  0  0
    2.9112    1.2070   -0.4777 F   0  0  0  0  0  0  0  0  0  0  0  0
    1.6886    0.0512   -1.8505 F   0  0  0  0  0  0  0  0  0  0  0  0
    1.6000    5.7294    1.9744 H   0  0  0  0  0  0  0  0  0  0  0  0
    2.6186    4.6842    0.9552 H   0  0  0  0  0  0  0  0  0  0  0  0
    0.8905    4.7864    0.6454 H   0  0  0  0  0  0  0  0  0  0  0  0
    2.1734    3.6270    3.1784 H   0  0  0  0  0  0  0  0  0  0  0  0
    0.4362    3.6897    2.8889 H   0  0  0  0  0  0  0  0  0  0  0  0
   -0.9376   -0.5370    0.9147 H   0  0  0  0  0  0  0  0  0  0  0  0
   -2.1653   -2.2174    0.1181 H   0  0  0  0  0  0  0  0  0  0  0  0
   -4.4420   -3.1606    0.0739 H   0  0  0  0  0  0  0  0  0  0  0  0
   -6.2786   -1.9387   -1.0531 H   0  0  0  0  0  0  0  0  0  0  0  0
   -3.5546    1.2276   -2.0928 H   0  0  0  0  0  0  0  0  0  0  0  0
    2.0338    0.2481    1.8887 H   0  0  0  0  0  0  0  0  0  0  0  0
    3.1142   -4.5723   -1.8336 H   0  0  0  0  0  0  0  0  0  0  0  0
    2.5479   -5.4941   -0.4211 H   0  0  0  0  0  0  0  0  0  0  0  0
    4.2562   -5.0553   -0.5705 H   0  0  0  0  0  0  0  0  0  0  0  0
  1  2  1  0
  2  3  1  0
  3  4  1  0
  4  5  2  0
  4  6  1  0
  6  7  1  0
  7  8  1  0
  8  9  2  0
  8 10  1  0
 10 11  2  0
 11 12  1  0
 12 13  2  0
 13 14  1  0
 14 15  1  0
 14 16  2  0
  6 17  1  0
 17 18  1  0
 18 19  2  0
 19 20  1  0
 20 21  2  0
 21 22  1  0
 21 23  1  0
  6 24  1  0
 24 25  1  0
 24 26  1  0
 24 27  1  0
 16 10  1  0
 23 18  1  0
  1 28  1  0
  1 29  1  0
  1 30  1  0
  2 31  1  0
  2 32  1  0
  7 33  1  0
 11 34  1  0
 12 35  1  0
 13 36  1  0
 16 37  1  0
 17 38  1  0
 22 39  1  0
 22 40  1  0
 22 41  1  0
M  END
$$$$
