
     RDKit          3D

 44 45  0  0  0  0  0  0  0  0999 V2000
    8.1539   -0.0816    0.5649 C   0  0  0  0  0  0  0  0  0  0  0  0
    7.4553    1.0019   -0.2347 C   0  0  0  0  0  0  0  0  0  0  0  0
    6.0372    0.9382   -0.0205 O   0  0  0  0  0  0  0  0  0  0  0  0
    5.3559    0.0940   -0.8337 C   0  0  0  0  0  0  0  0  0  0  0  0
    5.8376   -0.6082   -1.7080 O   0  0  0  0  0  0  0  0  0  0  0  0
    3.9008    0.1236   -0.5174 C   0  0  0  0  0  0  0  0  0  0  0  0
    3.3683    0.9235    0.5058 C   0  0  0  0  0  0  0  0  0  0  0  0
    1.9941    0.9163    0.7646 C   0  0  0  0  0  0  0  0  0  0  0  0
    1.1537    0.1005    0.0018 C   0  0  0  0  0  0  0  0  0  0  0  0
   -0.5971    0.0976    0.3041 S   0  0  0  0  0  6  0  0  0  0  0  0
   -0.9036    1.1837    1.2091 O   0  0  0  0  0  0  0  0  0  0  0  0
   -1.2623   -0.0468   -0.9729 O   0  0  0  0  0  0  0  0  0  0  0  0
   -0.7530   -1.3707    1.2093 N   0  0  0  0  0  0  0  0  0  0  0  0
   -1.9603   -2.0583    0.8970 N   0  0  0  0  0  0  0  0  0  0  0  0
   -3.2520   -1.6904    1.9663 S   0  0  0  0  0  6  0  0  0  0  0  0
   -2.6949   -0.8694    3.0236 O   0  0  0  0  0  0  0  0  0  0  0  0
   -3.9043   -2.9490    2.2570 O   0  0  0  0  0  0  0  0  0  0  0  0
   -4.3239   -0.7197    0.9511 C   0  0  0  0  0  0  0  0  0  0  0  0
   -4.3224    0.6716    1.0674 C   0  0  0  0  0  0  0  0  0  0  0  0
   -5.1883    1.4284    0.2764 C   0  0  0  0  0  0  0  0  0  0  0  0
   -6.0725    0.8009   -0.6117 C   0  0  0  0  0  0  0  0  0  0  0  0
   -6.9750    1.6211   -1.4863 C   0  0  0  0  0  0  0  0  0  0  0  0
   -6.0652   -0.5967   -0.7151 C   0  0  0  0  0  0  0  0  0  0  0  0
   -5.2003   -1.3598    0.0709 C   0  0  0  0  0  0  0  0  0  0  0  0
    1.6686   -0.6921   -1.0279 C   0  0  0  0  0  0  0  0  0  0  0  0
    3.0422   -0.6817   -1.2821 C   0  0  0  0  0  0  0  0  0  0  0  0
    7.8992   -0.0004    1.6267 H   0  0  0  0  0  0  0  0  0  0  0  0
    7.8384   -1.0772    0.2371 H   0  0  0  0  0  0  0  0  0  0  0  0
    9.2394   -0.0056    0.4553 H   0  0  0  0  0  0  0  0  0  0  0  0
    7.7868    1.9864    0.1112 H   0  0  0  0  0  0  0  0  0  0  0  0
    7.7009    0.9356   -1.3009 H   0  0  0  0  0  0  0  0  0  0  0  0
    4.0121    1.5618    1.1075 H   0  0  0  0  0  0  0  0  0  0  0  0
    1.5943    1.5495    1.5545 H   0  0  0  0  0  0  0  0  0  0  0  0
   -0.7311   -1.0855    2.2077 H   0  0  0  0  0  0  0  0  0  0  0  0
   -1.8894   -3.0709    0.7530 H   0  0  0  0  0  0  0  0  0  0  0  0
   -3.6492    1.1774    1.7566 H   0  0  0  0  0  0  0  0  0  0  0  0
   -5.1681    2.5135    0.3567 H   0  0  0  0  0  0  0  0  0  0  0  0
   -7.8977    1.0772   -1.7145 H   0  0  0  0  0  0  0  0  0  0  0  0
   -7.2625    2.5522   -0.9866 H   0  0  0  0  0  0  0  0  0  0  0  0
   -6.4664    1.8647   -2.4241 H   0  0  0  0  0  0  0  0  0  0  0  0
   -6.7364   -1.0979   -1.4097 H   0  0  0  0  0  0  0  0  0  0  0  0
   -5.2163   -2.4439   -0.0117 H   0  0  0  0  0  0  0  0  0  0  0  0
    1.0112   -1.3126   -1.6342 H   0  0  0  0  0  0  0  0  0  0  0  0
    3.4422   -1.3011   -2.0840 H   0  0  0  0  0  0  0  0  0  0  0  0
  1  2  1  0
  2  3  1  0
  3  4  1  0
  4  5  2  0
  4  6  1  0
  6  7  2  0
  7  8  1  0
  8  9  2  0
  9 10  1  0
 10 11  2  0
 10 12  2  0
 10 13  1  0
 13 14  1  0
 14 15  1  0
 15 16  2  0
 15 17  2  0
 15 18  1  0
 18 19  2  0
 19 20  1  0
 20 21  2  0
 21 22  1  0
 21 23  1  0
 23 24  2  0
  9 25  1  0
 25 26  2  0
 26  6  1  0
 24 18  1  0
  1 27  1  0
  1 28  1  0
  1 29  1  0
  2 30  1  0
  2 31  1  0
  7 32  1  0
  8 33  1  0
 13 34  1  0
 14 35  1  0
 19 36  1  0
 20 37  1  0
 22 38  1  0
 22 39  1  0
 22 40  1  0
 23 41  1  0
 24 42  1  0
 25 43  1  0
 26 44  1  0
M  END
$$$$
