
     RDKit          3D

 45 48  0  0  0  0  0  0  0  0999 V2000
    4.9929    0.6270   -1.4498 C   0  0  0  0  0  0  0  0  0  0  0  0
    4.6704    0.1032   -0.0618 C   0  0  0  0  0  0  0  0  0  0  0  0
    3.2626   -0.1090    0.0063 O   0  0  0  0  0  0  0  0  0  0  0  0
    2.7352   -0.6265    1.1639 C   0  0  0  0  0  0  0  0  0  0  0  0
    3.5010   -0.8969    2.3085 C   0  0  0  0  0  0  0  0  0  0  0  0
    2.9013   -1.3869    3.4701 C   0  0  0  0  0  0  0  0  0  0  0  0
    1.5314   -1.6076    3.5050 C   0  0  0  0  0  0  0  0  0  0  0  0
    0.7609   -1.3428    2.3729 C   0  0  0  0  0  0  0  0  0  0  0  0
    1.3388   -0.8566    1.1786 C   0  0  0  0  0  0  0  0  0  0  0  0
    0.4711   -0.6072    0.0126 C   0  0  0  0  0  0  0  0  0  0  0  0
    0.9320   -0.9452   -1.2114 N   0  0  0  0  0  0  0  0  0  0  0  0
    0.1006   -0.7210   -2.2566 C   0  0  0  0  0  0  0  0  0  0  0  0
    0.6172   -1.0712   -3.6080 C   0  0  0  0  0  0  0  0  0  0  0  0
    1.8988   -1.5510   -3.6384 N   0  0  0  0  0  0  0  0  0  0  0  0
   -0.0520   -0.9372   -4.6247 O   0  0  0  0  0  0  0  0  0  0  0  0
   -1.1473   -0.2029   -2.0870 C   0  0  0  0  0  0  0  0  0  0  0  0
   -2.1705    0.0916   -2.9729 N   0  0  0  0  0  0  0  0  0  0  0  0
   -3.2596    0.5929   -2.2475 C   0  0  0  0  0  0  0  0  0  0  0  0
   -4.3054    0.9380   -2.7728 O   0  0  0  0  0  0  0  0  0  0  0  0
   -2.8630    0.6047   -0.8742 N   0  0  0  0  0  0  0  0  0  0  0  0
   -3.6410    1.0291    0.2379 C   0  0  0  0  0  0  0  0  0  0  0  0
   -3.1103    1.1807    1.5294 C   0  0  0  0  0  0  0  0  0  0  0  0
   -3.9014    1.6008    2.6079 C   0  0  0  0  0  0  0  0  0  0  0  0
   -5.2477    1.8840    2.4207 C   0  0  0  0  0  0  0  0  0  0  0  0
   -5.7998    1.7494    1.1542 C   0  0  0  0  0  0  0  0  0  0  0  0
   -5.0050    1.3292    0.0796 C   0  0  0  0  0  0  0  0  0  0  0  0
   -1.5387    0.0991   -0.8053 C   0  0  0  0  0  0  0  0  0  0  0  0
   -0.7600   -0.1042    0.2624 N   0  0  0  0  0  0  0  0  0  0  0  0
    4.4555    1.5614   -1.6439 H   0  0  0  0  0  0  0  0  0  0  0  0
    4.6739   -0.0883   -2.2153 H   0  0  0  0  0  0  0  0  0  0  0  0
    6.0660    0.8072   -1.5593 H   0  0  0  0  0  0  0  0  0  0  0  0
    4.9792    0.8463    0.6821 H   0  0  0  0  0  0  0  0  0  0  0  0
    5.2069   -0.8391    0.0972 H   0  0  0  0  0  0  0  0  0  0  0  0
    4.5726   -0.7285    2.3332 H   0  0  0  0  0  0  0  0  0  0  0  0
    3.5070   -1.5898    4.3501 H   0  0  0  0  0  0  0  0  0  0  0  0
    1.0596   -1.9845    4.4089 H   0  0  0  0  0  0  0  0  0  0  0  0
   -0.3126   -1.5249    2.4199 H   0  0  0  0  0  0  0  0  0  0  0  0
    2.4318   -1.6211   -2.7770 H   0  0  0  0  0  0  0  0  0  0  0  0
    2.3244   -1.7913   -4.5220 H   0  0  0  0  0  0  0  0  0  0  0  0
   -2.1441   -0.0404   -3.9771 H   0  0  0  0  0  0  0  0  0  0  0  0
   -2.0634    1.0035    1.7464 H   0  0  0  0  0  0  0  0  0  0  0  0
   -3.4544    1.7109    3.5927 H   0  0  0  0  0  0  0  0  0  0  0  0
   -5.8616    2.2112    3.2550 H   0  0  0  0  0  0  0  0  0  0  0  0
   -6.8520    1.9691    0.9913 H   0  0  0  0  0  0  0  0  0  0  0  0
   -5.5012    1.2345   -0.8819 H   0  0  0  0  0  0  0  0  0  0  0  0
  1  2  1  0
  2  3  1  0
  3  4  1  0
  4  5  2  0
  5  6  1  0
  6  7  2  0
  7  8  1  0
  8  9  2  0
  9 10  1  0
 10 11  2  0
 11 12  1  0
 12 13  1  0
 13 14  1  0
 13 15  2  0
 12 16  2  0
 16 17  1  0
 17 18  1  0
 18 19  2  0
 18 20  1  0
 20 21  1  0
 21 22  2  0
 22 23  1  0
 23 24  2  0
 24 25  1  0
 25 26  2  0
 20 27  1  0
 27 28  2  0
  9  4  1  0
 28 10  1  0
 27 16  1  0
 26 21  1  0
  1 29  1  0
  1 30  1  0
  1 31  1  0
  2 32  1  0
  2 33  1  0
  5 34  1  0
  6 35  1  0
  7 36  1  0
  8 37  1  0
 14 38  1  0
 14 39  1  0
 17 40  1  0
 22 41  1  0
 23 42  1  0
 24 43  1  0
 25 44  1  0
 26 45  1  0
M  END
$$$$
