
     RDKit          3D

 69 75  0  0  0  0  0  0  0  0999 V2000
   -3.3873    5.1393    2.2799 C   0  0  0  0  0  0  0  0  0  0  0  0
   -3.0254    4.1899    1.1760 C   0  0  0  0  0  0  0  0  0  0  0  0
   -3.3196    4.4771   -0.1693 C   0  0  0  0  0  0  0  0  0  0  0  0
   -4.1149    5.9464   -0.6197 Cl  0  0  0  0  0  0  0  0  0  0  0  0
   -2.9917    3.5786   -1.2026 C   0  0  0  0  0  0  0  0  0  0  0  0
   -2.3539    2.3688   -0.9254 C   0  0  0  0  0  0  0  0  0  0  0  0
   -2.0464    2.0765    0.3951 C   0  0  0  0  0  0  0  0  0  0  0  0
   -2.3993    2.9729    1.4175 C   0  0  0  0  0  0  0  0  0  0  0  0
   -2.0530    2.4345    2.6520 N   0  0  0  0  0  0  0  0  0  0  0  0
   -1.4663    1.1742    2.5295 C   0  0  0  0  0  0  0  0  0  0  0  0
   -1.1064    0.4924    3.4769 O   0  0  0  0  0  0  0  0  0  0  0  0
   -1.3871    0.8624    1.0049 C   0  0  1  0  0  0  0  0  0  0  0  0
   -2.1706   -0.3296    0.6152 C   0  0  0  0  0  0  0  0  0  0  0  0
   -1.3353   -1.3395    0.1435 C   0  0  0  0  0  0  0  0  0  0  0  0
   -2.0963   -2.4297   -0.1870 C   0  0  0  0  0  0  0  0  0  0  0  0
   -1.7241   -3.5945   -0.7110 O   0  0  0  0  0  0  0  0  0  0  0  0
   -3.4454   -2.1024    0.0783 N   0  0  0  0  0  0  0  0  0  0  0  0
   -4.5850   -2.9647   -0.0965 C   0  0  0  0  0  0  0  0  0  0  0  0
   -5.8695   -2.4290   -0.2811 C   0  0  0  0  0  0  0  0  0  0  0  0
   -6.9822   -3.2640   -0.4175 C   0  0  0  0  0  0  0  0  0  0  0  0
   -6.8287   -4.6473   -0.3748 C   0  0  0  0  0  0  0  0  0  0  0  0
   -5.5586   -5.1924   -0.2156 C   0  0  0  0  0  0  0  0  0  0  0  0
   -4.4429   -4.3597   -0.0740 C   0  0  0  0  0  0  0  0  0  0  0  0
   -3.4663   -0.7798    0.5783 C   0  0  0  0  0  0  0  0  0  0  0  0
   -4.5860   -0.1756    0.9738 O   0  0  0  0  0  0  0  0  0  0  0  0
    0.0849   -0.9274    0.1662 C   0  0  1  0  0  0  0  0  0  0  0  0
    0.8152   -1.0923   -1.1819 C   0  0  0  0  0  0  0  0  0  0  0  0
    2.1369   -0.4549   -1.1423 N   0  0  0  0  0  0  0  0  0  0  0  0
    3.2518   -1.2331   -1.3857 C   0  0  0  0  0  0  0  0  0  0  0  0
    3.1795   -2.4192   -1.7006 O   0  0  0  0  0  0  0  0  0  0  0  0
    4.4537   -0.6024   -1.2156 N   0  0  0  0  0  0  0  0  0  0  0  0
    5.6823   -1.3113   -1.4882 C   0  0  0  0  0  0  0  0  0  0  0  0
    6.8722   -0.5436   -0.9778 C   0  0  0  0  0  0  0  0  0  0  0  0
    7.6092    0.2881   -1.8329 C   0  0  0  0  0  0  0  0  0  0  0  0
    8.7035    1.0086   -1.3500 C   0  0  0  0  0  0  0  0  0  0  0  0
    9.0676    0.9084   -0.0086 C   0  0  0  0  0  0  0  0  0  0  0  0
    8.3364    0.0918    0.8529 C   0  0  0  0  0  0  0  0  0  0  0  0
    7.2409   -0.6267    0.3729 C   0  0  0  0  0  0  0  0  0  0  0  0
    2.1733    0.8835   -0.5327 C   0  0  0  0  0  0  0  0  0  0  0  0
    0.7688    1.4346   -0.1980 C   0  0  0  0  0  0  0  0  0  0  0  0
    0.0167    0.5041    0.6431 N   0  0  0  0  0  0  0  0  0  0  0  0
   -2.9552    6.1281    2.0881 H   0  0  0  0  0  0  0  0  0  0  0  0
   -3.0035    4.8194    3.2514 H   0  0  0  0  0  0  0  0  0  0  0  0
   -4.4763    5.2293    2.3643 H   0  0  0  0  0  0  0  0  0  0  0  0
   -3.2415    3.8273   -2.2341 H   0  0  0  0  0  0  0  0  0  0  0  0
   -2.1206    1.6740   -1.7303 H   0  0  0  0  0  0  0  0  0  0  0  0
   -2.2058    2.8568    3.5566 H   0  0  0  0  0  0  0  0  0  0  0  0
   -0.7532   -3.6303   -0.7387 H   0  0  0  0  0  0  0  0  0  0  0  0
   -6.0330   -1.3571   -0.3558 H   0  0  0  0  0  0  0  0  0  0  0  0
   -7.9691   -2.8293   -0.5449 H   0  0  0  0  0  0  0  0  0  0  0  0
   -7.6940   -5.2960   -0.4725 H   0  0  0  0  0  0  0  0  0  0  0  0
   -5.4279   -6.2707   -0.1905 H   0  0  0  0  0  0  0  0  0  0  0  0
   -3.4806   -4.8348    0.0877 H   0  0  0  0  0  0  0  0  0  0  0  0
   -4.3560    0.6915    1.3483 H   0  0  0  0  0  0  0  0  0  0  0  0
    0.6189   -1.4973    0.9377 H   0  0  0  0  0  0  0  0  0  0  0  0
    0.8930   -2.1547   -1.4375 H   0  0  0  0  0  0  0  0  0  0  0  0
    0.2517   -0.6183   -1.9977 H   0  0  0  0  0  0  0  0  0  0  0  0
    4.4833    0.3963   -1.3176 H   0  0  0  0  0  0  0  0  0  0  0  0
    5.6459   -2.3074   -1.0283 H   0  0  0  0  0  0  0  0  0  0  0  0
    5.7505   -1.4634   -2.5728 H   0  0  0  0  0  0  0  0  0  0  0  0
    7.3382    0.3731   -2.8847 H   0  0  0  0  0  0  0  0  0  0  0  0
    9.2764    1.6418   -2.0218 H   0  0  0  0  0  0  0  0  0  0  0  0
    9.9242    1.4625    0.3632 H   0  0  0  0  0  0  0  0  0  0  0  0
    8.6237    0.0069    1.8991 H   0  0  0  0  0  0  0  0  0  0  0  0
    6.6753   -1.2585    1.0561 H   0  0  0  0  0  0  0  0  0  0  0  0
    2.6761    1.5612   -1.2318 H   0  0  0  0  0  0  0  0  0  0  0  0
    2.7780    0.8219    0.3801 H   0  0  0  0  0  0  0  0  0  0  0  0
    0.2494    1.6142   -1.1476 H   0  0  0  0  0  0  0  0  0  0  0  0
    0.8816    2.4005    0.3108 H   0  0  0  0  0  0  0  0  0  0  0  0
  1  2  1  0
  2  3  2  0
  3  4  1  0
  3  5  1  0
  5  6  2  0
  6  7  1  0
  7  8  2  0
  8  9  1  0
  9 10  1  0
 10 11  2  0
 10 12  1  0
 12 13  1  0
 13 14  1  0
 14 15  2  0
 15 16  1  0
 15 17  1  0
 17 18  1  0
 18 19  2  0
 19 20  1  0
 20 21  2  0
 21 22  1  0
 22 23  2  0
 17 24  1  0
 24 25  1  0
 14 26  1  0
 26 27  1  0
 27 28  1  0
 28 29  1  0
 29 30  2  0
 29 31  1  0
 31 32  1  0
 32 33  1  0
 33 34  2  0
 34 35  1  0
 35 36  2  0
 36 37  1  0
 37 38  2  0
 28 39  1  0
 39 40  1  0
 40 41  1  0
  8  2  1  0
 12 41  1  6
 12  7  1  0
 24 13  2  0
 41 26  1  0
 23 18  1  0
 38 33  1  0
  1 42  1  0
  1 43  1  0
  1 44  1  0
  5 45  1  0
  6 46  1  0
  9 47  1  0
 16 48  1  0
 19 49  1  0
 20 50  1  0
 21 51  1  0
 22 52  1  0
 23 53  1  0
 25 54  1  0
 26 55  1  1
 27 56  1  0
 27 57  1  0
 31 58  1  0
 32 59  1  0
 32 60  1  0
 34 61  1  0
 35 62  1  0
 36 63  1  0
 37 64  1  0
 38 65  1  0
 39 66  1  0
 39 67  1  0
 40 68  1  0
 40 69  1  0
M  END
$$$$
