
     RDKit          3D

 34 35  0  0  0  0  0  0  0  0999 V2000
   -4.1723   -1.2124   -1.6638 O   0  0  0  0  0  0  0  0  0  0  0  0
   -3.8318   -1.1510   -0.4729 C   0  0  0  0  0  0  0  0  0  0  0  0
   -4.8062   -1.6733    0.5855 C   0  0  0  0  0  0  0  0  0  0  0  0
   -5.5314   -0.3328    1.4906 Cl  0  0  0  0  0  0  0  0  0  0  0  0
   -4.0639   -2.8898    1.6380 Cl  0  0  0  0  0  0  0  0  0  0  0  0
   -2.5986   -0.6048   -0.1323 N   0  0  0  0  0  0  0  0  0  0  0  0
   -2.0726   -0.3964    1.2237 C   0  0  0  0  0  0  0  0  0  0  0  0
   -1.1212    0.8142    1.2965 C   0  0  0  0  0  0  0  0  0  0  0  0
    0.0210    0.7706    0.3624 N   0  0  0  0  0  0  0  0  0  0  0  0
    1.2710    0.4056    1.0488 C   0  0  0  0  0  0  0  0  0  0  0  0
    2.5035    0.5576    0.1823 C   0  0  0  0  0  0  0  0  0  0  0  0
    2.8481    1.8093   -0.3501 C   0  0  0  0  0  0  0  0  0  0  0  0
    3.9875    1.9545   -1.1425 C   0  0  0  0  0  0  0  0  0  0  0  0
    4.7962    0.8515   -1.4090 C   0  0  0  0  0  0  0  0  0  0  0  0
    4.4662   -0.3970   -0.8843 C   0  0  0  0  0  0  0  0  0  0  0  0
    3.3263   -0.5444   -0.0916 C   0  0  0  0  0  0  0  0  0  0  0  0
   -0.2420   -0.1098   -0.7976 C   0  0  0  0  0  0  0  0  0  0  0  0
   -1.7217   -0.1475   -1.2181 C   0  0  0  0  0  0  0  0  0  0  0  0
   -5.6255   -2.1794    0.0658 H   0  0  0  0  0  0  0  0  0  0  0  0
   -1.5315   -1.3075    1.5047 H   0  0  0  0  0  0  0  0  0  0  0  0
   -2.8820   -0.2546    1.9390 H   0  0  0  0  0  0  0  0  0  0  0  0
   -1.7002    1.7127    1.0456 H   0  0  0  0  0  0  0  0  0  0  0  0
   -0.7916    0.9571    2.3329 H   0  0  0  0  0  0  0  0  0  0  0  0
    1.2057   -0.6161    1.4459 H   0  0  0  0  0  0  0  0  0  0  0  0
    1.4230    1.0622    1.9162 H   0  0  0  0  0  0  0  0  0  0  0  0
    2.2178    2.6741   -0.1526 H   0  0  0  0  0  0  0  0  0  0  0  0
    4.2416    2.9281   -1.5530 H   0  0  0  0  0  0  0  0  0  0  0  0
    5.6831    0.9648   -2.0266 H   0  0  0  0  0  0  0  0  0  0  0  0
    5.0976   -1.2567   -1.0928 H   0  0  0  0  0  0  0  0  0  0  0  0
    3.0843   -1.5259    0.3089 H   0  0  0  0  0  0  0  0  0  0  0  0
    0.3550    0.2289   -1.6519 H   0  0  0  0  0  0  0  0  0  0  0  0
    0.0630   -1.1406   -0.5704 H   0  0  0  0  0  0  0  0  0  0  0  0
   -2.0624    0.8529   -1.5120 H   0  0  0  0  0  0  0  0  0  0  0  0
   -1.8363   -0.8041   -2.0879 H   0  0  0  0  0  0  0  0  0  0  0  0
  1  2  2  0
  2  3  1  0
  3  4  1  0
  3  5  1  0
  2  6  1  0
  6  7  1  0
  7  8  1  0
  8  9  1  0
  9 10  1  0
 10 11  1  0
 11 12  2  0
 12 13  1  0
 13 14  2  0
 14 15  1  0
 15 16  2  0
  9 17  1  0
 17 18  1  0
 18  6  1  0
 16 11  1  0
  3 19  1  0
  7 20  1  0
  7 21  1  0
  8 22  1  0
  8 23  1  0
 10 24  1  0
 10 25  1  0
 12 26  1  0
 13 27  1  0
 14 28  1  0
 15 29  1  0
 16 30  1  0
 17 31  1  0
 17 32  1  0
 18 33  1  0
 18 34  1  0
M  END
$$$$
