
     RDKit          3D

 44 47  0  0  0  0  0  0  0  0999 V2000
   -4.1988    1.4471   -2.4650 C   0  0  0  0  0  0  0  0  0  0  0  0
   -3.6619    1.5203   -1.0295 C   0  0  0  0  0  0  0  0  0  0  0  0
   -2.1518    1.3456   -1.0298 C   0  0  0  0  0  0  0  0  0  0  0  0
   -1.5677    1.2411    0.3599 C   0  0  0  0  0  0  0  0  0  0  0  0
   -0.9983    2.2181    0.8603 O   0  0  0  0  0  0  0  0  0  0  0  0
   -1.5603   -0.0031    0.9833 N   0  0  0  0  0  0  0  0  0  0  0  0
   -0.8997   -0.1210    2.2969 C   0  0  0  0  0  0  0  0  0  0  0  0
    0.6172   -0.3665    2.2513 C   0  0  0  0  0  0  0  0  0  0  0  0
    1.1415   -1.1466    3.0481 O   0  0  0  0  0  0  0  0  0  0  0  0
    1.2878    0.4285    1.3363 N   0  0  0  0  0  0  0  0  0  0  0  0
    2.6567    0.4131    1.0060 C   0  0  0  0  0  0  0  0  0  0  0  0
    3.6105   -0.4137    1.6357 C   0  0  0  0  0  0  0  0  0  0  0  0
    4.9532   -0.3978    1.2331 C   0  0  0  0  0  0  0  0  0  0  0  0
    5.3071    0.4415    0.1997 C   0  0  0  0  0  0  0  0  0  0  0  0
    4.3845    1.2541   -0.4150 C   0  0  0  0  0  0  0  0  0  0  0  0
    3.0568    1.2594   -0.0407 C   0  0  0  0  0  0  0  0  0  0  0  0
    4.9314    2.0078   -1.4074 O   0  0  0  0  0  0  0  0  0  0  0  0
    6.3058    1.5719   -1.3513 C   0  0  0  0  0  0  0  0  0  0  0  0
    6.5506    0.5771   -0.3331 O   0  0  0  0  0  0  0  0  0  0  0  0
   -2.2143   -1.1605    0.4554 C   0  0  0  0  0  0  0  0  0  0  0  0
   -1.5392   -2.3939    0.4844 C   0  0  0  0  0  0  0  0  0  0  0  0
   -2.1220   -3.5454   -0.0538 C   0  0  0  0  0  0  0  0  0  0  0  0
   -3.3964   -3.4870   -0.6074 C   0  0  0  0  0  0  0  0  0  0  0  0
   -4.0972   -2.2804   -0.6093 C   0  0  0  0  0  0  0  0  0  0  0  0
   -3.5165   -1.1120   -0.0910 C   0  0  0  0  0  0  0  0  0  0  0  0
   -4.5792    0.3276    0.0160 S   0  0  0  0  0  0  0  0  0  0  0  0
   -4.1060    0.4352   -2.8777 H   0  0  0  0  0  0  0  0  0  0  0  0
   -5.2513    1.7427   -2.5153 H   0  0  0  0  0  0  0  0  0  0  0  0
   -3.6455    2.1406   -3.1066 H   0  0  0  0  0  0  0  0  0  0  0  0
   -3.8968    2.5188   -0.6298 H   0  0  0  0  0  0  0  0  0  0  0  0
   -1.8236    0.4977   -1.6430 H   0  0  0  0  0  0  0  0  0  0  0  0
   -1.6936    2.2256   -1.5038 H   0  0  0  0  0  0  0  0  0  0  0  0
   -1.3732   -0.9247    2.8736 H   0  0  0  0  0  0  0  0  0  0  0  0
   -1.0581    0.8076    2.8591 H   0  0  0  0  0  0  0  0  0  0  0  0
    0.7295    1.1470    0.8783 H   0  0  0  0  0  0  0  0  0  0  0  0
    3.3368   -1.0709    2.4564 H   0  0  0  0  0  0  0  0  0  0  0  0
    5.6881   -1.0300    1.7196 H   0  0  0  0  0  0  0  0  0  0  0  0
    2.3482    1.8923   -0.5705 H   0  0  0  0  0  0  0  0  0  0  0  0
    6.5764    1.1580   -2.3302 H   0  0  0  0  0  0  0  0  0  0  0  0
    6.9398    2.4458   -1.1561 H   0  0  0  0  0  0  0  0  0  0  0  0
   -0.5317   -2.4773    0.8854 H   0  0  0  0  0  0  0  0  0  0  0  0
   -1.5757   -4.4872   -0.0455 H   0  0  0  0  0  0  0  0  0  0  0  0
   -3.8532   -4.3823   -1.0258 H   0  0  0  0  0  0  0  0  0  0  0  0
   -5.1101   -2.2637   -1.0064 H   0  0  0  0  0  0  0  0  0  0  0  0
  1  2  1  0
  2  3  1  0
  3  4  1  0
  4  5  2  0
  4  6  1  0
  6  7  1  0
  7  8  1  0
  8  9  2  0
  8 10  1  0
 10 11  1  0
 11 12  2  0
 12 13  1  0
 13 14  2  0
 14 15  1  0
 15 16  2  0
 15 17  1  0
 17 18  1  0
 18 19  1  0
  6 20  1  0
 20 21  2  0
 21 22  1  0
 22 23  2  0
 23 24  1  0
 24 25  2  0
 25 26  1  0
 26  2  1  0
 16 11  1  0
 25 20  1  0
 19 14  1  0
  1 27  1  0
  1 28  1  0
  1 29  1  0
  2 30  1  0
  3 31  1  0
  3 32  1  0
  7 33  1  0
  7 34  1  0
 10 35  1  0
 12 36  1  0
 13 37  1  0
 16 38  1  0
 18 39  1  0
 18 40  1  0
 21 41  1  0
 22 42  1  0
 23 43  1  0
 24 44  1  0
M  END
$$$$
