
     RDKit          3D

 53 54  0  0  0  0  0  0  0  0999 V2000
   -2.3829   -1.0991   -2.0808 C   0  0  0  0  0  0  0  0  0  0  0  0
   -3.0305   -1.7573   -0.8738 C   0  0  0  0  0  0  0  0  0  0  0  0
   -3.6917   -0.7216   -0.0365 N   0  0  0  0  0  0  0  0  0  0  0  0
   -5.0302   -0.3090   -0.5578 C   0  0  0  0  0  0  0  0  0  0  0  0
   -5.0373    1.1930   -0.7796 C   0  0  0  0  0  0  0  0  0  0  0  0
   -3.6739   -1.0088    1.6502 S   0  0  0  0  0  6  0  0  0  0  0  0
   -4.0669   -2.3875    1.8597 O   0  0  0  0  0  0  0  0  0  0  0  0
   -4.3492    0.0829    2.3160 O   0  0  0  0  0  0  0  0  0  0  0  0
   -1.9481   -0.8532    2.0435 C   0  0  0  0  0  0  0  0  0  0  0  0
   -1.2576   -1.9221    2.6199 C   0  0  0  0  0  0  0  0  0  0  0  0
    0.0905   -1.7716    2.9431 C   0  0  0  0  0  0  0  0  0  0  0  0
    0.7398   -0.5586    2.6907 C   0  0  0  0  0  0  0  0  0  0  0  0
    0.0447    0.5146    2.1085 C   0  0  0  0  0  0  0  0  0  0  0  0
    0.6953    1.8185    1.8047 C   0  0  0  0  0  0  0  0  0  0  0  0
    0.1075    2.7649    1.3099 O   0  0  0  0  0  0  0  0  0  0  0  0
    2.0100    1.7749    2.1294 O   0  0  0  0  0  0  0  0  0  0  0  0
    2.7384    2.9791    1.8710 C   0  0  0  0  0  0  0  0  0  0  0  0
    3.3634    3.0465    0.4762 C   0  0  0  0  0  0  0  0  0  0  0  0
    3.9999    4.0255    0.0952 O   0  0  0  0  0  0  0  0  0  0  0  0
    3.1820    1.9206   -0.2948 N   0  0  0  0  0  0  0  0  0  0  0  0
    3.8075    1.7750   -1.5965 C   0  0  0  0  0  0  0  0  0  0  0  0
    3.2070    0.6254   -2.4086 C   0  0  0  0  0  0  0  0  0  0  0  0
    3.4835   -0.6797   -1.8277 N   0  0  0  0  0  0  0  0  0  0  0  0
    2.6239   -1.3627   -1.0023 C   0  0  0  0  0  0  0  0  0  0  0  0
    1.4338   -0.7936   -0.6666 O   0  0  0  0  0  0  0  0  0  0  0  0
    3.0728   -2.5542   -0.5937 C   0  0  0  0  0  0  0  0  0  0  0  0
    4.6543   -2.8824   -1.2322 S   0  0  0  0  0  0  0  0  0  0  0  0
    4.6843   -1.3250   -2.0810 C   0  0  0  0  0  0  0  0  0  0  0  0
    5.6222   -0.9370   -2.7567 O   0  0  0  0  0  0  0  0  0  0  0  0
   -1.3082    0.3633    1.7852 C   0  0  0  0  0  0  0  0  0  0  0  0
   -1.8482   -1.8420   -2.6775 H   0  0  0  0  0  0  0  0  0  0  0  0
   -1.6691   -0.3294   -1.7682 H   0  0  0  0  0  0  0  0  0  0  0  0
   -3.1287   -0.6233   -2.7233 H   0  0  0  0  0  0  0  0  0  0  0  0
   -2.2464   -2.2704   -0.3095 H   0  0  0  0  0  0  0  0  0  0  0  0
   -3.7552   -2.5162   -1.1878 H   0  0  0  0  0  0  0  0  0  0  0  0
   -5.2534   -0.8121   -1.5040 H   0  0  0  0  0  0  0  0  0  0  0  0
   -5.8301   -0.5981    0.1341 H   0  0  0  0  0  0  0  0  0  0  0  0
   -4.2567    1.4855   -1.4907 H   0  0  0  0  0  0  0  0  0  0  0  0
   -4.8570    1.7329    0.1537 H   0  0  0  0  0  0  0  0  0  0  0  0
   -6.0055    1.5181   -1.1801 H   0  0  0  0  0  0  0  0  0  0  0  0
   -1.7647   -2.8610    2.8368 H   0  0  0  0  0  0  0  0  0  0  0  0
    0.6311   -2.5917    3.4118 H   0  0  0  0  0  0  0  0  0  0  0  0
    1.7884   -0.4608    2.9659 H   0  0  0  0  0  0  0  0  0  0  0  0
    3.5573    3.0159    2.5952 H   0  0  0  0  0  0  0  0  0  0  0  0
    2.1182    3.8671    2.0273 H   0  0  0  0  0  0  0  0  0  0  0  0
    2.7945    1.0946    0.1471 H   0  0  0  0  0  0  0  0  0  0  0  0
    3.6862    2.7165   -2.1434 H   0  0  0  0  0  0  0  0  0  0  0  0
    4.8797    1.6219   -1.4284 H   0  0  0  0  0  0  0  0  0  0  0  0
    3.6460    0.6450   -3.4143 H   0  0  0  0  0  0  0  0  0  0  0  0
    2.1248    0.7546   -2.5270 H   0  0  0  0  0  0  0  0  0  0  0  0
    0.9109   -1.4499   -0.1730 H   0  0  0  0  0  0  0  0  0  0  0  0
    2.5591   -3.2467    0.0552 H   0  0  0  0  0  0  0  0  0  0  0  0
   -1.8656    1.1886    1.3420 H   0  0  0  0  0  0  0  0  0  0  0  0
  1  2  1  0
  2  3  1  0
  3  4  1  0
  4  5  1  0
  3  6  1  0
  6  7  2  0
  6  8  2  0
  6  9  1  0
  9 10  2  0
 10 11  1  0
 11 12  2  0
 12 13  1  0
 13 14  1  0
 14 15  2  0
 14 16  1  0
 16 17  1  0
 17 18  1  0
 18 19  2  0
 18 20  1  0
 20 21  1  0
 21 22  1  0
 22 23  1  0
 23 24  1  0
 24 25  1  0
 24 26  2  0
 26 27  1  0
 27 28  1  0
 28 29  2  0
 13 30  2  0
 30  9  1  0
 28 23  1  0
  1 31  1  0
  1 32  1  0
  1 33  1  0
  2 34  1  0
  2 35  1  0
  4 36  1  0
  4 37  1  0
  5 38  1  0
  5 39  1  0
  5 40  1  0
 10 41  1  0
 11 42  1  0
 12 43  1  0
 17 44  1  0
 17 45  1  0
 20 46  1  0
 21 47  1  0
 21 48  1  0
 22 49  1  0
 22 50  1  0
 25 51  1  0
 26 52  1  0
 30 53  1  0
M  END
$$$$
