
     RDKit          3D

 56 60  0  0  0  0  0  0  0  0999 V2000
   -5.1321   -0.6523   -2.6042 C   0  0  0  0  0  0  0  0  0  0  0  0
   -3.8215   -0.3007   -1.9566 C   0  0  0  0  0  0  0  0  0  0  0  0
   -3.3289    1.0043   -2.1147 C   0  0  0  0  0  0  0  0  0  0  0  0
   -2.1038    1.3860   -1.5595 C   0  0  0  0  0  0  0  0  0  0  0  0
   -1.3277    0.4763   -0.8279 C   0  0  0  0  0  0  0  0  0  0  0  0
   -0.0352    0.8698   -0.2491 C   0  0  0  0  0  0  0  0  0  0  0  0
    1.0249    0.2688   -0.8295 N   0  0  0  0  0  0  0  0  0  0  0  0
    2.2942    0.5577   -0.4120 N   0  0  0  0  0  0  0  0  0  0  0  0
    2.5186    1.4395    0.5842 C   0  0  0  0  0  0  0  0  0  0  0  0
    3.8497    1.7559    0.9731 N   0  0  0  0  0  0  0  0  0  0  0  0
    5.0446    1.0800    0.6301 C   0  0  0  0  0  0  0  0  0  0  0  0
    5.0837   -0.3097    0.3780 C   0  0  0  0  0  0  0  0  0  0  0  0
    6.2878   -0.9732    0.1075 C   0  0  0  0  0  0  0  0  0  0  0  0
    7.4448   -0.2302    0.1211 C   0  0  0  0  0  0  0  0  0  0  0  0
    7.4299    1.1143    0.3978 C   0  0  0  0  0  0  0  0  0  0  0  0
    6.2570    1.7906    0.6674 C   0  0  0  0  0  0  0  0  0  0  0  0
    8.6752    1.6620    0.3792 O   0  0  0  0  0  0  0  0  0  0  0  0
    9.4732    0.5063    0.0462 C   0  0  0  0  0  0  0  0  0  0  0  0
    8.6988   -0.7004   -0.1098 O   0  0  0  0  0  0  0  0  0  0  0  0
    1.4368    2.0703    1.2438 C   0  0  0  0  0  0  0  0  0  0  0  0
    1.6061    2.9687    2.3286 C   0  0  0  0  0  0  0  0  0  0  0  0
    0.5199    3.5729    2.9625 C   0  0  0  0  0  0  0  0  0  0  0  0
   -0.7681    3.2900    2.5369 C   0  0  0  0  0  0  0  0  0  0  0  0
   -0.9667    2.4016    1.4805 C   0  0  0  0  0  0  0  0  0  0  0  0
    0.1202    1.7799    0.8133 C   0  0  0  0  0  0  0  0  0  0  0  0
   -1.8035   -0.8360   -0.6868 C   0  0  0  0  0  0  0  0  0  0  0  0
   -3.0378   -1.2223   -1.2372 C   0  0  0  0  0  0  0  0  0  0  0  0
   -3.5504   -2.9133   -1.0042 S   0  0  0  0  0  6  0  0  0  0  0  0
   -2.5303   -3.6187   -0.2601 O   0  0  0  0  0  0  0  0  0  0  0  0
   -4.0743   -3.4206   -2.2503 O   0  0  0  0  0  0  0  0  0  0  0  0
   -4.8263   -2.7224    0.1097 N   0  0  0  0  0  0  0  0  0  0  0  0
   -5.9212   -3.7275   -0.0538 C   0  0  0  0  0  0  0  0  0  0  0  0
   -7.0075   -3.4231    0.9793 C   0  0  0  0  0  0  0  0  0  0  0  0
   -7.4580   -2.0775    0.8286 O   0  0  0  0  0  0  0  0  0  0  0  0
   -4.9659   -1.2834   -3.4821 H   0  0  0  0  0  0  0  0  0  0  0  0
   -5.6605    0.2465   -2.9415 H   0  0  0  0  0  0  0  0  0  0  0  0
   -5.8003   -1.1564   -1.9018 H   0  0  0  0  0  0  0  0  0  0  0  0
   -3.8942    1.7396   -2.6858 H   0  0  0  0  0  0  0  0  0  0  0  0
   -1.7488    2.4038   -1.7166 H   0  0  0  0  0  0  0  0  0  0  0  0
    3.9677    2.7629    0.9253 H   0  0  0  0  0  0  0  0  0  0  0  0
    4.1689   -0.8980    0.3956 H   0  0  0  0  0  0  0  0  0  0  0  0
    6.3053   -2.0375   -0.0969 H   0  0  0  0  0  0  0  0  0  0  0  0
    6.2908    2.8493    0.8971 H   0  0  0  0  0  0  0  0  0  0  0  0
   10.2105    0.3492    0.8419 H   0  0  0  0  0  0  0  0  0  0  0  0
   10.0050    0.7059   -0.8913 H   0  0  0  0  0  0  0  0  0  0  0  0
    2.6007    3.1924    2.7106 H   0  0  0  0  0  0  0  0  0  0  0  0
    0.6837    4.2534    3.7946 H   0  0  0  0  0  0  0  0  0  0  0  0
   -1.6207    3.7495    3.0308 H   0  0  0  0  0  0  0  0  0  0  0  0
   -1.9932    2.1885    1.1871 H   0  0  0  0  0  0  0  0  0  0  0  0
   -1.1930   -1.5604   -0.1470 H   0  0  0  0  0  0  0  0  0  0  0  0
   -4.3984   -2.8195    1.0364 H   0  0  0  0  0  0  0  0  0  0  0  0
   -5.5331   -4.7396    0.0945 H   0  0  0  0  0  0  0  0  0  0  0  0
   -6.3496   -3.6282   -1.0563 H   0  0  0  0  0  0  0  0  0  0  0  0
   -7.8632   -4.0926    0.8543 H   0  0  0  0  0  0  0  0  0  0  0  0
   -6.6210   -3.5354    1.9974 H   0  0  0  0  0  0  0  0  0  0  0  0
   -6.6626   -1.5567    0.6023 H   0  0  0  0  0  0  0  0  0  0  0  0
  1  2  1  0
  2  3  2  0
  3  4  1  0
  4  5  2  0
  5  6  1  0
  6  7  2  0
  7  8  1  0
  8  9  2  0
  9 10  1  0
 10 11  1  0
 11 12  2  0
 12 13  1  0
 13 14  2  0
 14 15  1  0
 15 16  2  0
 15 17  1  0
 17 18  1  0
 18 19  1  0
  9 20  1  0
 20 21  2  0
 21 22  1  0
 22 23  2  0
 23 24  1  0
 24 25  2  0
  5 26  1  0
 26 27  2  0
 27 28  1  0
 28 29  2  0
 28 30  2  0
 28 31  1  0
 31 32  1  0
 32 33  1  0
 33 34  1  0
 27  2  1  0
 25  6  1  0
 16 11  1  0
 25 20  1  0
 19 14  1  0
  1 35  1  0
  1 36  1  0
  1 37  1  0
  3 38  1  0
  4 39  1  0
 10 40  1  0
 12 41  1  0
 13 42  1  0
 16 43  1  0
 18 44  1  0
 18 45  1  0
 21 46  1  0
 22 47  1  0
 23 48  1  0
 24 49  1  0
 26 50  1  0
 31 51  1  0
 32 52  1  0
 32 53  1  0
 33 54  1  0
 33 55  1  0
 34 56  1  0
M  END
$$$$
