
     RDKit          3D

 39 41  0  0  0  0  0  0  0  0999 V2000
   -4.7740    1.1692   -2.3586 C   0  0  0  0  0  0  0  0  0  0  0  0
   -4.2234    1.0011   -0.9723 C   0  0  0  0  0  0  0  0  0  0  0  0
   -5.0513    1.1840    0.1390 C   0  0  0  0  0  0  0  0  0  0  0  0
   -4.5736    1.0058    1.4412 C   0  0  0  0  0  0  0  0  0  0  0  0
   -3.2368    0.6243    1.5966 C   0  0  0  0  0  0  0  0  0  0  0  0
   -2.5163    0.3809    2.7410 N   0  0  0  0  0  0  0  0  0  0  0  0
   -1.2273    0.0032    2.4398 C   0  0  0  0  0  0  0  0  0  0  0  0
   -0.2830   -0.3637    3.5274 C   0  0  0  0  0  0  0  0  0  0  0  0
   -1.1079    0.0386    1.0602 C   0  0  0  0  0  0  0  0  0  0  0  0
    0.0514   -0.2779    0.2835 C   0  0  0  0  0  0  0  0  0  0  0  0
    1.3232   -0.0097    0.6238 C   0  0  0  0  0  0  0  0  0  0  0  0
    2.4799   -0.3357   -0.2167 C   0  0  0  0  0  0  0  0  0  0  0  0
    2.4834   -0.1152   -1.5933 C   0  0  0  0  0  0  0  0  0  0  0  0
    3.6188   -0.4162   -2.3370 C   0  0  0  0  0  0  0  0  0  0  0  0
    4.7214   -0.9182   -1.7378 N   0  0  0  0  0  4  0  0  0  0  0  0
    5.9150   -1.2214   -2.5455 C   0  0  0  0  0  0  0  0  0  0  0  0
    4.7495   -1.1186   -0.4014 C   0  0  0  0  0  0  0  0  0  0  0  0
    3.6375   -0.8293    0.3816 C   0  0  0  0  0  0  0  0  0  0  0  0
   -2.3798    0.4143    0.5192 C   0  0  0  0  0  0  0  0  0  0  0  0
   -2.8881    0.6039   -0.7859 C   0  0  0  0  0  0  0  0  0  0  0  0
   -3.9918    1.4941   -3.0528 H   0  0  0  0  0  0  0  0  0  0  0  0
   -5.1902    0.2212   -2.7130 H   0  0  0  0  0  0  0  0  0  0  0  0
   -5.5604    1.9311   -2.3771 H   0  0  0  0  0  0  0  0  0  0  0  0
   -6.0919    1.4731    0.0001 H   0  0  0  0  0  0  0  0  0  0  0  0
   -5.2258    1.1567    2.2955 H   0  0  0  0  0  0  0  0  0  0  0  0
   -2.8995    0.4494    3.6739 H   0  0  0  0  0  0  0  0  0  0  0  0
   -0.8166   -0.6358    4.4443 H   0  0  0  0  0  0  0  0  0  0  0  0
    0.3773    0.4779    3.7582 H   0  0  0  0  0  0  0  0  0  0  0  0
    0.3314   -1.2224    3.2393 H   0  0  0  0  0  0  0  0  0  0  0  0
   -0.1546   -0.7542   -0.6727 H   0  0  0  0  0  0  0  0  0  0  0  0
    1.5433    0.4796    1.5696 H   0  0  0  0  0  0  0  0  0  0  0  0
    1.6125    0.3031   -2.0945 H   0  0  0  0  0  0  0  0  0  0  0  0
    3.6565   -0.2528   -3.4105 H   0  0  0  0  0  0  0  0  0  0  0  0
    6.5265   -0.3164   -2.5781 H   0  0  0  0  0  0  0  0  0  0  0  0
    6.4624   -2.0454   -2.0807 H   0  0  0  0  0  0  0  0  0  0  0  0
    5.6018   -1.5170   -3.5502 H   0  0  0  0  0  0  0  0  0  0  0  0
    5.6663   -1.5076    0.0326 H   0  0  0  0  0  0  0  0  0  0  0  0
    3.6784   -0.9995    1.4562 H   0  0  0  0  0  0  0  0  0  0  0  0
   -2.2443    0.4455   -1.6454 H   0  0  0  0  0  0  0  0  0  0  0  0
  1  2  1  0
  2  3  2  0
  3  4  1  0
  4  5  2  0
  5  6  1  0
  6  7  1  0
  7  8  1  0
  7  9  2  0
  9 10  1  0
 10 11  2  3
 11 12  1  0
 12 13  2  0
 13 14  1  0
 14 15  2  0
 15 16  1  0
 15 17  1  0
 17 18  2  0
  9 19  1  0
 19 20  2  0
 20  2  1  0
 19  5  1  0
 18 12  1  0
  1 21  1  0
  1 22  1  0
  1 23  1  0
  3 24  1  0
  4 25  1  0
  6 26  1  0
  8 27  1  0
  8 28  1  0
  8 29  1  0
 10 30  1  0
 11 31  1  0
 13 32  1  0
 14 33  1  0
 16 34  1  0
 16 35  1  0
 16 36  1  0
 17 37  1  0
 18 38  1  0
 20 39  1  0
M  CHG  1  15   1
M  END
$$$$
