
     RDKit          3D

 47 49  0  0  0  0  0  0  0  0999 V2000
   -2.5900    2.2072   -1.0227 O   0  0  0  0  0  0  0  0  0  0  0  0
   -3.0365    1.1040   -0.7186 C   0  0  0  0  0  0  0  0  0  0  0  0
   -4.5442    0.8352   -0.7690 C   0  0  0  0  0  0  0  0  0  0  0  0
   -4.8677   -0.4106   -0.1533 O   0  0  0  0  0  0  0  0  0  0  0  0
   -6.1970   -0.7091   -0.0300 C   0  0  0  0  0  0  0  0  0  0  0  0
   -6.4757   -1.8259    0.7663 C   0  0  0  0  0  0  0  0  0  0  0  0
   -7.7928   -2.2429    0.9722 C   0  0  0  0  0  0  0  0  0  0  0  0
   -8.8365   -1.5420    0.3732 C   0  0  0  0  0  0  0  0  0  0  0  0
  -10.6212   -2.1040    0.6398 Br  0  0  0  0  0  0  0  0  0  0  0  0
   -8.5723   -0.4274   -0.4234 C   0  0  0  0  0  0  0  0  0  0  0  0
   -7.2513   -0.0103   -0.6251 C   0  0  0  0  0  0  0  0  0  0  0  0
   -2.3033   -0.0073   -0.3447 N   0  0  0  0  0  0  0  0  0  0  0  0
   -0.9126   -0.1136   -0.1657 C   0  0  0  0  0  0  0  0  0  0  0  0
   -0.0267    0.9578   -0.2864 C   0  0  0  0  0  0  0  0  0  0  0  0
    1.3475    0.7796   -0.0689 C   0  0  0  0  0  0  0  0  0  0  0  0
    1.8564   -0.4849    0.2534 C   0  0  0  0  0  0  0  0  0  0  0  0
    3.3098   -0.7421    0.5105 C   0  0  0  0  0  0  0  0  0  0  0  0
    3.6111   -1.7271    1.1761 O   0  0  0  0  0  0  0  0  0  0  0  0
    4.1913    0.1580   -0.0564 N   0  0  0  0  0  0  0  0  0  0  0  0
    5.6068    0.1988    0.0550 C   0  0  0  0  0  0  0  0  0  0  0  0
    6.3210   -0.7183    0.8380 C   0  0  0  0  0  0  0  0  0  0  0  0
    7.7150   -0.6528    0.9359 C   0  0  0  0  0  0  0  0  0  0  0  0
    8.4209    0.3340    0.2583 C   0  0  0  0  0  0  0  0  0  0  0  0
    7.7331    1.2612   -0.5217 C   0  0  0  0  0  0  0  0  0  0  0  0
    6.3318    1.2038   -0.6311 C   0  0  0  0  0  0  0  0  0  0  0  0
    5.6199    2.2156   -1.4598 C   0  0  0  0  0  0  0  0  0  0  0  0
    4.4091    2.3162   -1.5719 O   0  0  0  0  0  0  0  0  0  0  0  0
    6.4455    3.0497   -2.1181 O   0  0  0  0  0  0  0  0  0  0  0  0
    0.9653   -1.5586    0.3773 C   0  0  0  0  0  0  0  0  0  0  0  0
   -0.4061   -1.3734    0.1711 C   0  0  0  0  0  0  0  0  0  0  0  0
   -4.8311    0.8174   -1.8267 H   0  0  0  0  0  0  0  0  0  0  0  0
   -5.0347    1.6586   -0.2375 H   0  0  0  0  0  0  0  0  0  0  0  0
   -5.6625   -2.3752    1.2345 H   0  0  0  0  0  0  0  0  0  0  0  0
   -7.9896   -3.1097    1.5961 H   0  0  0  0  0  0  0  0  0  0  0  0
   -9.3850    0.1203   -0.8959 H   0  0  0  0  0  0  0  0  0  0  0  0
   -7.0850    0.8576   -1.2585 H   0  0  0  0  0  0  0  0  0  0  0  0
   -2.8599   -0.8331   -0.1456 H   0  0  0  0  0  0  0  0  0  0  0  0
   -0.3740    1.9582   -0.5305 H   0  0  0  0  0  0  0  0  0  0  0  0
    1.9852    1.6574   -0.1319 H   0  0  0  0  0  0  0  0  0  0  0  0
    3.7989    0.8714   -0.6687 H   0  0  0  0  0  0  0  0  0  0  0  0
    5.8211   -1.5061    1.3937 H   0  0  0  0  0  0  0  0  0  0  0  0
    8.2442   -1.3757    1.5544 H   0  0  0  0  0  0  0  0  0  0  0  0
    9.5038    0.3860    0.3433 H   0  0  0  0  0  0  0  0  0  0  0  0
    8.2994    2.0341   -1.0330 H   0  0  0  0  0  0  0  0  0  0  0  0
    5.8486    3.6480   -2.6169 H   0  0  0  0  0  0  0  0  0  0  0  0
    1.3369   -2.5493    0.6376 H   0  0  0  0  0  0  0  0  0  0  0  0
   -1.0668   -2.2305    0.2790 H   0  0  0  0  0  0  0  0  0  0  0  0
  1  2  2  0
  2  3  1  0
  3  4  1  0
  4  5  1  0
  5  6  2  0
  6  7  1  0
  7  8  2  0
  8  9  1  0
  8 10  1  0
 10 11  2  0
  2 12  1  0
 12 13  1  0
 13 14  2  0
 14 15  1  0
 15 16  2  0
 16 17  1  0
 17 18  2  0
 17 19  1  0
 19 20  1  0
 20 21  2  0
 21 22  1  0
 22 23  2  0
 23 24  1  0
 24 25  2  0
 25 26  1  0
 26 27  2  0
 26 28  1  0
 16 29  1  0
 29 30  2  0
 11  5  1  0
 30 13  1  0
 25 20  1  0
  3 31  1  0
  3 32  1  0
  6 33  1  0
  7 34  1  0
 10 35  1  0
 11 36  1  0
 12 37  1  0
 14 38  1  0
 15 39  1  0
 19 40  1  0
 21 41  1  0
 22 42  1  0
 23 43  1  0
 24 44  1  0
 28 45  1  0
 29 46  1  0
 30 47  1  0
M  END
$$$$
