
     RDKit          3D

 50 53  0  0  0  0  0  0  0  0999 V2000
    7.3659    1.8998   -0.1851 C   0  0  0  0  0  0  0  0  0  0  0  0
    6.0748    1.1659    0.0278 C   0  0  0  0  0  0  0  0  0  0  0  0
    4.9443    1.5046   -0.7135 C   0  0  0  0  0  0  0  0  0  0  0  0
    3.7298    0.8432   -0.5036 C   0  0  0  0  0  0  0  0  0  0  0  0
    3.6144   -0.1671    0.4571 C   0  0  0  0  0  0  0  0  0  0  0  0
    2.3977   -0.8556    0.6990 N   0  0  0  0  0  0  0  0  0  0  0  0
    1.1858   -0.6887    0.0458 C   0  0  0  0  0  0  0  0  0  0  0  0
    0.9531    0.0742   -0.8892 O   0  0  0  0  0  0  0  0  0  0  0  0
    0.0803   -1.6085    0.5880 C   0  0  0  0  0  0  0  0  0  0  0  0
   -1.2549   -1.1318    0.2031 N   0  0  0  0  0  4  0  0  0  0  0  0
   -2.1811   -0.4797    1.0159 C   0  0  0  0  0  0  0  0  0  0  0  0
   -3.2870   -0.1275    0.2506 C   0  0  0  0  0  0  0  0  0  0  0  0
   -4.5847    0.5938    0.7652 C   0  0  0  0  0  0  0  0  0  0  0  0
   -4.6704    1.0055    2.1016 C   0  0  0  0  0  0  0  0  0  0  0  0
   -5.8213    1.6462    2.5674 C   0  0  0  0  0  0  0  0  0  0  0  0
   -6.8903    1.8757    1.7054 C   0  0  0  0  0  0  0  0  0  0  0  0
   -6.8113    1.4638    0.3774 C   0  0  0  0  0  0  0  0  0  0  0  0
   -5.6619    0.8228   -0.0934 C   0  0  0  0  0  0  0  0  0  0  0  0
   -2.9469   -0.5634   -1.0171 N   0  0  0  0  0  0  0  0  0  0  0  0
   -1.7512   -1.1464   -1.0310 C   0  0  0  0  0  0  0  0  0  0  0  0
   -1.3564   -1.6337   -2.3735 C   0  0  0  0  0  0  0  0  0  0  0  0
   -2.3752   -0.9232   -3.2851 C   0  0  0  0  0  0  0  0  0  0  0  0
   -3.5417   -0.5141   -2.3449 C   0  0  0  0  0  0  0  0  0  0  0  0
    4.7517   -0.5093    1.2223 C   0  0  0  0  0  0  0  0  0  0  0  0
    4.7283   -1.5753    2.2863 C   0  0  0  0  0  0  0  0  0  0  0  0
    5.9669    0.1672    0.9988 C   0  0  0  0  0  0  0  0  0  0  0  0
    8.2117    1.3486    0.2394 H   0  0  0  0  0  0  0  0  0  0  0  0
    7.3193    2.8845    0.2906 H   0  0  0  0  0  0  0  0  0  0  0  0
    7.5627    2.0274   -1.2548 H   0  0  0  0  0  0  0  0  0  0  0  0
    4.9974    2.2906   -1.4645 H   0  0  0  0  0  0  0  0  0  0  0  0
    2.8920    1.1588   -1.1157 H   0  0  0  0  0  0  0  0  0  0  0  0
    2.4431   -1.5502    1.4333 H   0  0  0  0  0  0  0  0  0  0  0  0
    0.1361   -1.6560    1.6803 H   0  0  0  0  0  0  0  0  0  0  0  0
    0.2208   -2.6134    0.1777 H   0  0  0  0  0  0  0  0  0  0  0  0
   -1.9363   -0.3516    2.0564 H   0  0  0  0  0  0  0  0  0  0  0  0
   -3.8591    0.8517    2.8069 H   0  0  0  0  0  0  0  0  0  0  0  0
   -5.8864    1.9698    3.6043 H   0  0  0  0  0  0  0  0  0  0  0  0
   -7.7862    2.3753    2.0686 H   0  0  0  0  0  0  0  0  0  0  0  0
   -7.6507    1.6421   -0.2919 H   0  0  0  0  0  0  0  0  0  0  0  0
   -5.6512    0.5085   -1.1286 H   0  0  0  0  0  0  0  0  0  0  0  0
   -1.4929   -2.7173   -2.3606 H   0  0  0  0  0  0  0  0  0  0  0  0
   -0.3241   -1.3593   -2.5841 H   0  0  0  0  0  0  0  0  0  0  0  0
   -1.9169   -0.0164   -3.6977 H   0  0  0  0  0  0  0  0  0  0  0  0
   -2.7035   -1.5443   -4.1226 H   0  0  0  0  0  0  0  0  0  0  0  0
   -4.3586   -1.2398   -2.3914 H   0  0  0  0  0  0  0  0  0  0  0  0
   -3.8979    0.4914   -2.5786 H   0  0  0  0  0  0  0  0  0  0  0  0
    4.0260   -1.3021    3.0803 H   0  0  0  0  0  0  0  0  0  0  0  0
    5.7115   -1.7096    2.7500 H   0  0  0  0  0  0  0  0  0  0  0  0
    4.4393   -2.5382    1.8531 H   0  0  0  0  0  0  0  0  0  0  0  0
    6.8450   -0.0888    1.5909 H   0  0  0  0  0  0  0  0  0  0  0  0
  1  2  1  0
  2  3  2  0
  3  4  1  0
  4  5  2  0
  5  6  1  0
  6  7  1  0
  7  8  2  0
  7  9  1  0
  9 10  1  0
 10 11  1  0
 11 12  2  0
 12 13  1  0
 13 14  2  0
 14 15  1  0
 15 16  2  0
 16 17  1  0
 17 18  2  0
 12 19  1  0
 19 20  1  0
 20 21  1  0
 21 22  1  0
 22 23  1  0
  5 24  1  0
 24 25  1  0
 24 26  2  0
 26  2  1  0
 20 10  2  0
 18 13  1  0
 23 19  1  0
  1 27  1  0
  1 28  1  0
  1 29  1  0
  3 30  1  0
  4 31  1  0
  6 32  1  0
  9 33  1  0
  9 34  1  0
 11 35  1  0
 14 36  1  0
 15 37  1  0
 16 38  1  0
 17 39  1  0
 18 40  1  0
 21 41  1  0
 21 42  1  0
 22 43  1  0
 22 44  1  0
 23 45  1  0
 23 46  1  0
 25 47  1  0
 25 48  1  0
 25 49  1  0
 26 50  1  0
M  CHG  1  10   1
M  END
$$$$
