
     RDKit          3D

 51 55  0  0  0  0  0  0  0  0999 V2000
    7.5590    0.1288    1.1377 C   0  0  0  0  0  0  0  0  0  0  0  0
    6.5242   -0.6953    1.5761 C   0  0  0  0  0  0  0  0  0  0  0  0
    5.3511   -0.8031    0.8276 C   0  0  0  0  0  0  0  0  0  0  0  0
    5.2054   -0.0891   -0.3696 C   0  0  0  0  0  0  0  0  0  0  0  0
    3.9280   -0.1879   -1.1697 C   0  0  0  0  0  0  0  0  0  0  0  0
    2.8807    0.8324   -0.6903 C   0  0  0  0  0  0  0  0  0  0  0  0
    1.6511    0.8392   -1.5054 N   0  0  0  0  0  0  0  0  0  0  0  0
    0.9419   -0.4594   -1.4465 C   0  0  0  0  0  0  0  0  0  0  0  0
   -0.5629   -0.3726   -1.7875 C   0  0  0  0  0  0  0  0  0  0  0  0
   -1.2751    0.5247   -0.8663 N   0  0  0  0  0  0  0  0  0  0  0  0
   -2.4899    0.1700   -0.2885 C   0  0  0  0  0  0  0  0  0  0  0  0
   -2.6933    0.5002    0.9642 N   0  0  0  0  0  0  0  0  0  0  0  0
   -3.8823    0.1377    1.6244 C   0  0  0  0  0  0  0  0  0  0  0  0
   -4.0346    0.5024    2.9636 C   0  0  0  0  0  0  0  0  0  0  0  0
   -5.1895    0.1573    3.6707 C   0  0  0  0  0  0  0  0  0  0  0  0
   -6.2072   -0.5600    3.0411 C   0  0  0  0  0  0  0  0  0  0  0  0
   -6.0763   -0.9345    1.7033 C   0  0  0  0  0  0  0  0  0  0  0  0
   -4.9145   -0.5822    1.0093 C   0  0  0  0  0  0  0  0  0  0  0  0
   -4.7067   -0.9045   -0.3413 N   0  0  0  0  0  0  0  0  0  0  0  0
   -5.5338   -1.5696   -1.2153 C   0  0  0  0  0  0  0  0  0  0  0  0
   -4.9343   -1.5757   -2.4551 C   0  0  0  0  0  0  0  0  0  0  0  0
   -3.6956   -0.9062   -2.3231 C   0  0  0  0  0  0  0  0  0  0  0  0
   -3.5513   -0.5342   -0.9971 C   0  0  0  0  0  0  0  0  0  0  0  0
   -0.4301    1.5335   -0.2038 C   0  0  0  0  0  0  0  0  0  0  0  0
    0.7499    1.9469   -1.1066 C   0  0  0  0  0  0  0  0  0  0  0  0
    6.2497    0.7408   -0.7989 C   0  0  0  0  0  0  0  0  0  0  0  0
    7.4218    0.8469   -0.0488 C   0  0  0  0  0  0  0  0  0  0  0  0
    8.4722    0.2119    1.7210 H   0  0  0  0  0  0  0  0  0  0  0  0
    6.6305   -1.2543    2.5020 H   0  0  0  0  0  0  0  0  0  0  0  0
    4.5515   -1.4484    1.1841 H   0  0  0  0  0  0  0  0  0  0  0  0
    3.5447   -1.2124   -1.0901 H   0  0  0  0  0  0  0  0  0  0  0  0
    4.1507   -0.0282   -2.2326 H   0  0  0  0  0  0  0  0  0  0  0  0
    2.6394    0.6572    0.3669 H   0  0  0  0  0  0  0  0  0  0  0  0
    3.3400    1.8286   -0.7443 H   0  0  0  0  0  0  0  0  0  0  0  0
    1.0316   -0.8980   -0.4430 H   0  0  0  0  0  0  0  0  0  0  0  0
    1.4158   -1.1535   -2.1500 H   0  0  0  0  0  0  0  0  0  0  0  0
   -0.6899   -0.0085   -2.8136 H   0  0  0  0  0  0  0  0  0  0  0  0
   -0.9704   -1.3887   -1.7370 H   0  0  0  0  0  0  0  0  0  0  0  0
   -3.2425    1.0594    3.4568 H   0  0  0  0  0  0  0  0  0  0  0  0
   -5.2923    0.4491    4.7127 H   0  0  0  0  0  0  0  0  0  0  0  0
   -7.1045   -0.8259    3.5947 H   0  0  0  0  0  0  0  0  0  0  0  0
   -6.8823   -1.4887    1.2345 H   0  0  0  0  0  0  0  0  0  0  0  0
   -6.4881   -1.9693   -0.9051 H   0  0  0  0  0  0  0  0  0  0  0  0
   -5.3509   -2.0039   -3.3578 H   0  0  0  0  0  0  0  0  0  0  0  0
   -2.9892   -0.7158   -3.1189 H   0  0  0  0  0  0  0  0  0  0  0  0
   -1.0288    2.4260    0.0144 H   0  0  0  0  0  0  0  0  0  0  0  0
   -0.0501    1.1407    0.7475 H   0  0  0  0  0  0  0  0  0  0  0  0
    1.3048    2.7655   -0.6320 H   0  0  0  0  0  0  0  0  0  0  0  0
    0.3392    2.3697   -2.0331 H   0  0  0  0  0  0  0  0  0  0  0  0
    6.1554    1.3100   -1.7212 H   0  0  0  0  0  0  0  0  0  0  0  0
    8.2279    1.4910   -0.3902 H   0  0  0  0  0  0  0  0  0  0  0  0
  1  2  2  0
  2  3  1  0
  3  4  2  0
  4  5  1  0
  5  6  1  0
  6  7  1  0
  7  8  1  0
  8  9  1  0
  9 10  1  0
 10 11  1  0
 11 12  2  0
 12 13  1  0
 13 14  2  0
 14 15  1  0
 15 16  2  0
 16 17  1  0
 17 18  2  0
 18 19  1  0
 19 20  1  0
 20 21  2  0
 21 22  1  0
 22 23  2  0
 10 24  1  0
 24 25  1  0
  4 26  1  0
 26 27  2  0
 27  1  1  0
 25  7  1  0
 23 11  1  0
 18 13  1  0
 23 19  1  0
  1 28  1  0
  2 29  1  0
  3 30  1  0
  5 31  1  0
  5 32  1  0
  6 33  1  0
  6 34  1  0
  8 35  1  0
  8 36  1  0
  9 37  1  0
  9 38  1  0
 14 39  1  0
 15 40  1  0
 16 41  1  0
 17 42  1  0
 20 43  1  0
 21 44  1  0
 22 45  1  0
 24 46  1  0
 24 47  1  0
 25 48  1  0
 25 49  1  0
 26 50  1  0
 27 51  1  0
M  END
$$$$
