
     RDKit          3D

 58 62  0  0  0  0  0  0  0  0999 V2000
    9.1617    0.8971    1.4442 C   0  0  0  0  0  0  0  0  0  0  0  0
    8.3649    0.0736    0.6019 O   0  0  0  0  0  0  0  0  0  0  0  0
    7.0139    0.2884    0.6249 C   0  0  0  0  0  0  0  0  0  0  0  0
    6.3495    1.2448    1.3956 C   0  0  0  0  0  0  0  0  0  0  0  0
    4.9553    1.3621    1.3261 C   0  0  0  0  0  0  0  0  0  0  0  0
    4.2069    0.5317    0.4918 C   0  0  0  0  0  0  0  0  0  0  0  0
    2.8093    0.7021    0.4558 N   0  0  0  0  0  0  0  0  0  0  0  0
    2.0679   -0.0442   -0.3241 C   0  0  0  0  0  0  0  0  0  0  0  0
    0.6908    0.1653   -0.3636 N   0  0  0  0  0  0  0  0  0  0  0  0
    0.1100    0.6297   -1.6410 C   0  0  0  0  0  0  0  0  0  0  0  0
   -1.4241    0.4507   -1.6378 C   0  0  0  0  0  0  0  0  0  0  0  0
   -2.0597    1.1486   -0.5061 N   0  0  0  0  0  0  0  0  0  0  0  0
   -3.5269    1.0736   -0.5130 C   0  0  0  0  0  0  0  0  0  0  0  0
   -4.1639   -0.3294   -0.4778 C   0  0  0  0  0  0  0  0  0  0  0  0
   -5.6759   -0.2563   -0.3704 C   0  0  0  0  0  0  0  0  0  0  0  0
   -6.4180   -0.0597   -1.5494 C   0  0  0  0  0  0  0  0  0  0  0  0
   -7.8085    0.0309   -1.5146 C   0  0  0  0  0  0  0  0  0  0  0  0
   -8.4808   -0.0717   -0.3025 C   0  0  0  0  0  0  0  0  0  0  0  0
   -7.7618   -0.2633    0.8771 C   0  0  0  0  0  0  0  0  0  0  0  0
   -6.3560   -0.3530    0.8662 C   0  0  0  0  0  0  0  0  0  0  0  0
   -5.6259   -0.5719    2.1747 C   0  0  0  0  0  0  0  0  0  0  0  0
   -6.4298   -0.4744    3.2721 F   0  0  0  0  0  0  0  0  0  0  0  0
   -4.6211    0.3255    2.3802 F   0  0  0  0  0  0  0  0  0  0  0  0
   -5.0492   -1.8037    2.2510 F   0  0  0  0  0  0  0  0  0  0  0  0
   -1.4627    0.6920    0.7654 C   0  0  0  0  0  0  0  0  0  0  0  0
    0.0723    0.8636    0.7852 C   0  0  0  0  0  0  0  0  0  0  0  0
    2.7139   -1.0806   -1.1134 C   0  0  0  0  0  0  0  0  0  0  0  0
    2.1968   -2.0692   -1.9316 C   0  0  0  0  0  0  0  0  0  0  0  0
    3.2846   -2.8055   -2.4556 C   0  0  0  0  0  0  0  0  0  0  0  0
    4.4365   -2.2660   -1.9244 C   0  0  0  0  0  0  0  0  0  0  0  0
    4.0813   -1.2362   -1.0858 N   0  0  0  0  0  0  0  0  0  0  0  0
    4.8872   -0.4219   -0.2749 C   0  0  0  0  0  0  0  0  0  0  0  0
    6.2778   -0.5510   -0.2157 C   0  0  0  0  0  0  0  0  0  0  0  0
    8.9050    0.7492    2.4984 H   0  0  0  0  0  0  0  0  0  0  0  0
   10.2063    0.5993    1.3113 H   0  0  0  0  0  0  0  0  0  0  0  0
    9.0774    1.9512    1.1598 H   0  0  0  0  0  0  0  0  0  0  0  0
    6.8812    1.9166    2.0610 H   0  0  0  0  0  0  0  0  0  0  0  0
    4.4444    2.1099    1.9273 H   0  0  0  0  0  0  0  0  0  0  0  0
    0.3644    1.6865   -1.7948 H   0  0  0  0  0  0  0  0  0  0  0  0
    0.5200    0.0750   -2.4905 H   0  0  0  0  0  0  0  0  0  0  0  0
   -1.8186    0.8445   -2.5818 H   0  0  0  0  0  0  0  0  0  0  0  0
   -1.6462   -0.6233   -1.6060 H   0  0  0  0  0  0  0  0  0  0  0  0
   -3.8851    1.6018   -1.4070 H   0  0  0  0  0  0  0  0  0  0  0  0
   -3.9046    1.6700    0.3280 H   0  0  0  0  0  0  0  0  0  0  0  0
   -3.9107   -0.8843   -1.3900 H   0  0  0  0  0  0  0  0  0  0  0  0
   -3.7621   -0.9274    0.3450 H   0  0  0  0  0  0  0  0  0  0  0  0
   -5.9111    0.0240   -2.5094 H   0  0  0  0  0  0  0  0  0  0  0  0
   -8.3667    0.1813   -2.4354 H   0  0  0  0  0  0  0  0  0  0  0  0
   -9.5656   -0.0030   -0.2740 H   0  0  0  0  0  0  0  0  0  0  0  0
   -8.3092   -0.3426    1.8161 H   0  0  0  0  0  0  0  0  0  0  0  0
   -1.8825    1.2679    1.5986 H   0  0  0  0  0  0  0  0  0  0  0  0
   -1.6944   -0.3651    0.9439 H   0  0  0  0  0  0  0  0  0  0  0  0
    0.3304    1.9301    0.7601 H   0  0  0  0  0  0  0  0  0  0  0  0
    0.4518    0.4453    1.7254 H   0  0  0  0  0  0  0  0  0  0  0  0
    1.1466   -2.2412   -2.1261 H   0  0  0  0  0  0  0  0  0  0  0  0
    3.2357   -3.6451   -3.1369 H   0  0  0  0  0  0  0  0  0  0  0  0
    5.4682   -2.5520   -2.0700 H   0  0  0  0  0  0  0  0  0  0  0  0
    6.8094   -1.2902   -0.8059 H   0  0  0  0  0  0  0  0  0  0  0  0
  1  2  1  0
  2  3  1  0
  3  4  2  0
  4  5  1  0
  5  6  2  0
  6  7  1  0
  7  8  2  0
  8  9  1  0
  9 10  1  0
 10 11  1  0
 11 12  1  0
 12 13  1  0
 13 14  1  0
 14 15  1  0
 15 16  2  0
 16 17  1  0
 17 18  2  0
 18 19  1  0
 19 20  2  0
 20 21  1  0
 21 22  1  0
 21 23  1  0
 21 24  1  0
 12 25  1  0
 25 26  1  0
  8 27  1  0
 27 28  2  0
 28 29  1  0
 29 30  2  0
 30 31  1  0
 31 32  1  0
 32 33  2  0
 33  3  1  0
 32  6  1  0
 26  9  1  0
 31 27  1  0
 20 15  1  0
  1 34  1  0
  1 35  1  0
  1 36  1  0
  4 37  1  0
  5 38  1  0
 10 39  1  0
 10 40  1  0
 11 41  1  0
 11 42  1  0
 13 43  1  0
 13 44  1  0
 14 45  1  0
 14 46  1  0
 16 47  1  0
 17 48  1  0
 18 49  1  0
 19 50  1  0
 25 51  1  0
 25 52  1  0
 26 53  1  0
 26 54  1  0
 28 55  1  0
 29 56  1  0
 30 57  1  0
 33 58  1  0
M  END
$$$$
