
     RDKit          3D

 71 75  0  0  0  0  0  0  0  0999 V2000
   -6.3847    2.0221    2.0526 C   0  0  0  0  0  0  0  0  0  0  0  0
   -6.8420    0.7074    1.4949 C   0  0  0  0  0  0  0  0  0  0  0  0
   -8.1041    0.5822    0.9148 C   0  0  0  0  0  0  0  0  0  0  0  0
   -8.5328   -0.6495    0.4182 C   0  0  0  0  0  0  0  0  0  0  0  0
   -7.7175   -1.7895    0.5029 C   0  0  0  0  0  0  0  0  0  0  0  0
   -8.2311   -3.0860   -0.0636 C   0  0  0  0  0  0  0  0  0  0  0  0
   -6.4456   -1.6807    1.1031 C   0  0  0  0  0  0  0  0  0  0  0  0
   -5.4966   -2.8531    1.2279 C   0  0  0  0  0  0  0  0  0  0  0  0
   -4.6231   -2.9713    0.0779 N   0  0  0  0  0  0  0  0  0  0  0  0
   -4.8836   -3.8704   -0.9043 N   0  0  0  0  0  0  0  0  0  0  0  0
   -3.9048   -3.7854   -1.8050 N   0  0  0  0  0  0  0  0  0  0  0  0
   -3.0213   -2.8542   -1.3546 C   0  0  0  0  0  0  0  0  0  0  0  0
   -1.7880   -2.3764   -1.9188 C   0  0  0  0  0  0  0  0  0  0  0  0
   -1.2993   -2.7442   -2.9802 O   0  0  0  0  0  0  0  0  0  0  0  0
   -1.1838   -1.4226   -1.1088 N   0  0  0  0  0  0  0  0  0  0  0  0
   -1.7019   -0.9751    0.0998 C   0  0  0  0  0  0  0  0  0  0  0  0
   -0.8883    0.0745    0.8544 C   0  0  0  0  0  0  0  0  0  0  0  0
   -0.5512    1.2890   -0.0254 C   0  0  0  0  0  0  0  0  0  0  0  0
    0.9181    1.3385   -0.4418 C   0  0  0  0  0  0  0  0  0  0  0  0
    1.3750   -0.0395   -0.7259 N   0  0  0  0  0  0  0  0  0  0  0  0
    2.6537   -0.2082   -1.8531 S   0  0  0  0  0  6  0  0  0  0  0  0
    2.9344   -1.6215   -1.9769 O   0  0  0  0  0  0  0  0  0  0  0  0
    2.3285    0.6004   -3.0074 O   0  0  0  0  0  0  0  0  0  0  0  0
    4.0447    0.5519   -1.0401 C   0  0  0  0  0  0  0  0  0  0  0  0
    4.2717    1.9241   -1.2010 C   0  0  0  0  0  0  0  0  0  0  0  0
    5.3760    2.5168   -0.5872 C   0  0  0  0  0  0  0  0  0  0  0  0
    6.2616    1.7259    0.1544 C   0  0  0  0  0  0  0  0  0  0  0  0
    7.6482    2.4914    0.9775 S   0  0  0  0  0  6  0  0  0  0  0  0
    7.3098    3.8860    1.1684 O   0  0  0  0  0  0  0  0  0  0  0  0
    7.9921    1.6468    2.1018 O   0  0  0  0  0  0  0  0  0  0  0  0
    8.8902    2.3889   -0.1767 N   0  0  0  0  0  0  0  0  0  0  0  0
    9.4304    1.0497   -0.4659 C   0  0  0  0  0  0  0  0  0  0  0  0
    8.7668    3.2372   -1.3740 C   0  0  0  0  0  0  0  0  0  0  0  0
    6.0382    0.3530    0.3107 C   0  0  0  0  0  0  0  0  0  0  0  0
    4.9344   -0.2397   -0.3039 C   0  0  0  0  0  0  0  0  0  0  0  0
    1.4623   -0.8945    0.4892 C   0  0  0  0  0  0  0  0  0  0  0  0
    0.3588   -0.5463    1.4912 C   0  0  0  0  0  0  0  0  0  0  0  0
   -2.8154   -1.4108    0.6239 N   0  0  0  0  0  0  0  0  0  0  0  0
   -3.4343   -2.3366   -0.1504 C   0  0  0  0  0  0  0  0  0  0  0  0
   -6.0280   -0.4267    1.5946 C   0  0  0  0  0  0  0  0  0  0  0  0
   -5.3020    2.1387    1.9360 H   0  0  0  0  0  0  0  0  0  0  0  0
   -6.6364    2.0854    3.1157 H   0  0  0  0  0  0  0  0  0  0  0  0
   -6.8591    2.8577    1.5273 H   0  0  0  0  0  0  0  0  0  0  0  0
   -8.7637    1.4435    0.8378 H   0  0  0  0  0  0  0  0  0  0  0  0
   -9.5176   -0.7126   -0.0410 H   0  0  0  0  0  0  0  0  0  0  0  0
   -9.2637   -2.9881   -0.4163 H   0  0  0  0  0  0  0  0  0  0  0  0
   -8.2273   -3.8685    0.7010 H   0  0  0  0  0  0  0  0  0  0  0  0
   -7.6230   -3.3973   -0.9170 H   0  0  0  0  0  0  0  0  0  0  0  0
   -6.0319   -3.7999    1.3536 H   0  0  0  0  0  0  0  0  0  0  0  0
   -4.8627   -2.7443    2.1164 H   0  0  0  0  0  0  0  0  0  0  0  0
   -0.3084   -1.0505   -1.4623 H   0  0  0  0  0  0  0  0  0  0  0  0
   -1.5377    0.4284    1.6676 H   0  0  0  0  0  0  0  0  0  0  0  0
   -0.7807    2.2124    0.5212 H   0  0  0  0  0  0  0  0  0  0  0  0
   -1.1875    1.3065   -0.9190 H   0  0  0  0  0  0  0  0  0  0  0  0
    1.5282    1.7752    0.3575 H   0  0  0  0  0  0  0  0  0  0  0  0
    1.0088    1.9856   -1.3194 H   0  0  0  0  0  0  0  0  0  0  0  0
    3.5984    2.5338   -1.8008 H   0  0  0  0  0  0  0  0  0  0  0  0
    5.5425    3.5875   -0.6924 H   0  0  0  0  0  0  0  0  0  0  0  0
   10.4016    1.1444   -0.9629 H   0  0  0  0  0  0  0  0  0  0  0  0
    8.7593    0.4885   -1.1221 H   0  0  0  0  0  0  0  0  0  0  0  0
    9.6000    0.4830    0.4536 H   0  0  0  0  0  0  0  0  0  0  0  0
    8.4668    4.2548   -1.1096 H   0  0  0  0  0  0  0  0  0  0  0  0
    9.7386    3.3132   -1.8729 H   0  0  0  0  0  0  0  0  0  0  0  0
    8.0471    2.8163   -2.0817 H   0  0  0  0  0  0  0  0  0  0  0  0
    6.7176   -0.2564    0.9041 H   0  0  0  0  0  0  0  0  0  0  0  0
    4.7742   -1.3117   -0.2029 H   0  0  0  0  0  0  0  0  0  0  0  0
    2.4335   -0.7888    0.9807 H   0  0  0  0  0  0  0  0  0  0  0  0
    1.3494   -1.9412    0.1844 H   0  0  0  0  0  0  0  0  0  0  0  0
    0.7649    0.1735    2.2147 H   0  0  0  0  0  0  0  0  0  0  0  0
    0.0990   -1.4412    2.0695 H   0  0  0  0  0  0  0  0  0  0  0  0
   -5.0452   -0.3317    2.0559 H   0  0  0  0  0  0  0  0  0  0  0  0
  1  2  1  0
  2  3  2  0
  3  4  1  0
  4  5  2  0
  5  6  1  0
  5  7  1  0
  7  8  1  0
  8  9  1  0
  9 10  1  0
 10 11  2  0
 11 12  1  0
 12 13  1  0
 13 14  2  0
 13 15  1  0
 15 16  1  0
 16 17  1  0
 17 18  1  0
 18 19  1  0
 19 20  1  0
 20 21  1  0
 21 22  2  0
 21 23  2  0
 21 24  1  0
 24 25  2  0
 25 26  1  0
 26 27  2  0
 27 28  1  0
 28 29  2  0
 28 30  2  0
 28 31  1  0
 31 32  1  0
 31 33  1  0
 27 34  1  0
 34 35  2  0
 20 36  1  0
 36 37  1  0
 16 38  2  0
 38 39  1  0
  7 40  2  0
 40  2  1  0
 39  9  1  0
 39 12  2  0
 37 17  1  0
 35 24  1  0
  1 41  1  0
  1 42  1  0
  1 43  1  0
  3 44  1  0
  4 45  1  0
  6 46  1  0
  6 47  1  0
  6 48  1  0
  8 49  1  0
  8 50  1  0
 15 51  1  0
 17 52  1  0
 18 53  1  0
 18 54  1  0
 19 55  1  0
 19 56  1  0
 25 57  1  0
 26 58  1  0
 32 59  1  0
 32 60  1  0
 32 61  1  0
 33 62  1  0
 33 63  1  0
 33 64  1  0
 34 65  1  0
 35 66  1  0
 36 67  1  0
 36 68  1  0
 37 69  1  0
 37 70  1  0
 40 71  1  0
M  END
$$$$
