
     RDKit          3D

 51 53  0  0  0  0  0  0  0  0999 V2000
    5.1056    2.5598   -3.4049 N   0  0  0  0  0  0  0  0  0  0  0  0
    4.3503    2.1470   -2.6266 C   0  0  0  0  0  0  0  0  0  0  0  0
    3.4581    1.6518   -1.6341 C   0  0  0  0  0  0  0  0  0  0  0  0
    2.6094    2.5059   -1.0347 C   0  0  0  0  0  0  0  0  0  0  0  0
    1.6849    2.2090    0.0048 C   0  0  0  0  0  0  0  0  0  0  0  0
    1.6917    1.2644    1.0253 C   0  0  0  0  0  0  0  0  0  0  0  0
    0.5150    1.4314    1.7936 C   0  0  0  0  0  0  0  0  0  0  0  0
   -0.1556    2.4903    1.2323 C   0  0  0  0  0  0  0  0  0  0  0  0
   -1.4387    3.1632    1.5434 C   0  0  0  0  0  0  0  0  0  0  0  0
   -2.4398    2.6916    0.6221 N   0  0  0  0  0  0  0  0  0  0  0  0
   -3.2117    1.5874    0.8895 C   0  0  0  0  0  0  0  0  0  0  0  0
   -3.2832    0.9910    1.9563 O   0  0  0  0  0  0  0  0  0  0  0  0
   -4.0332    1.0891   -0.3193 C   0  0  0  0  0  0  0  0  0  0  0  0
   -3.9627    1.6991   -1.3758 O   0  0  0  0  0  0  0  0  0  0  0  0
   -4.7636   -0.0396   -0.0108 N   0  0  0  0  0  0  0  0  0  0  0  0
   -5.6172   -0.7732   -0.8532 C   0  0  0  0  0  0  0  0  0  0  0  0
   -6.2428   -1.8992   -0.3055 C   0  0  0  0  0  0  0  0  0  0  0  0
   -7.1052   -2.6736   -1.0840 C   0  0  0  0  0  0  0  0  0  0  0  0
   -7.8670   -4.0534   -0.3925 Cl  0  0  0  0  0  0  0  0  0  0  0  0
   -7.3552   -2.3414   -2.4107 C   0  0  0  0  0  0  0  0  0  0  0  0
   -6.7329   -1.2222   -2.9544 C   0  0  0  0  0  0  0  0  0  0  0  0
   -7.0366   -0.7987   -4.5954 Cl  0  0  0  0  0  0  0  0  0  0  0  0
   -5.8677   -0.4382   -2.1860 C   0  0  0  0  0  0  0  0  0  0  0  0
    0.5468    2.9723    0.1714 O   0  0  0  0  0  0  0  0  0  0  0  0
    3.5006    0.1891   -1.3631 C   0  0  0  0  0  0  0  0  0  0  0  0
    2.4873   -0.5009   -1.3599 O   0  0  0  0  0  0  0  0  0  0  0  0
    4.7587   -0.3127   -1.1163 N   0  0  0  0  0  0  0  0  0  0  0  0
    4.9574   -1.7000   -0.7562 C   0  0  0  0  0  0  0  0  0  0  0  0
    4.9123   -1.8809    0.7317 C   0  0  0  0  0  0  0  0  0  0  0  0
    6.0430   -1.6937    1.5312 C   0  0  0  0  0  0  0  0  0  0  0  0
    5.9442   -1.8418    2.9119 C   0  0  0  0  0  0  0  0  0  0  0  0
    4.7104   -2.1637    3.4513 C   0  0  0  0  0  0  0  0  0  0  0  0
    3.5949   -2.3417    2.7138 N   0  0  0  0  0  0  0  0  0  0  0  0
    3.7195   -2.1983    1.3747 C   0  0  0  0  0  0  0  0  0  0  0  0
    2.5987    3.5459   -1.3582 H   0  0  0  0  0  0  0  0  0  0  0  0
    2.4572    0.5227    1.2051 H   0  0  0  0  0  0  0  0  0  0  0  0
    0.1968    0.8483    2.6473 H   0  0  0  0  0  0  0  0  0  0  0  0
   -1.7480    2.9585    2.5735 H   0  0  0  0  0  0  0  0  0  0  0  0
   -1.3495    4.2460    1.4135 H   0  0  0  0  0  0  0  0  0  0  0  0
   -2.3753    2.9688   -0.3538 H   0  0  0  0  0  0  0  0  0  0  0  0
   -4.6417   -0.3611    0.9486 H   0  0  0  0  0  0  0  0  0  0  0  0
   -6.0660   -2.1813    0.7297 H   0  0  0  0  0  0  0  0  0  0  0  0
   -8.0275   -2.9449   -3.0133 H   0  0  0  0  0  0  0  0  0  0  0  0
   -5.4044    0.4268   -2.6505 H   0  0  0  0  0  0  0  0  0  0  0  0
    5.5528    0.3079   -1.0290 H   0  0  0  0  0  0  0  0  0  0  0  0
    5.9354   -2.0036   -1.1452 H   0  0  0  0  0  0  0  0  0  0  0  0
    4.2065   -2.3301   -1.2468 H   0  0  0  0  0  0  0  0  0  0  0  0
    7.0005   -1.4361    1.0880 H   0  0  0  0  0  0  0  0  0  0  0  0
    6.8080   -1.7086    3.5533 H   0  0  0  0  0  0  0  0  0  0  0  0
    4.5821   -2.2897    4.5223 H   0  0  0  0  0  0  0  0  0  0  0  0
    2.7973   -2.3387    0.8138 H   0  0  0  0  0  0  0  0  0  0  0  0
  1  2  3  0
  2  3  1  0
  3  4  2  3
  4  5  1  0
  5  6  2  0
  6  7  1  0
  7  8  2  0
  8  9  1  0
  9 10  1  0
 10 11  1  0
 11 12  2  0
 11 13  1  0
 13 14  2  0
 13 15  1  0
 15 16  1  0
 16 17  2  0
 17 18  1  0
 18 19  1  0
 18 20  2  0
 20 21  1  0
 21 22  1  0
 21 23  2  0
  8 24  1  0
  3 25  1  0
 25 26  2  0
 25 27  1  0
 27 28  1  0
 28 29  1  0
 29 30  2  0
 30 31  1  0
 31 32  2  0
 32 33  1  0
 33 34  2  0
 24  5  1  0
 34 29  1  0
 23 16  1  0
  4 35  1  0
  6 36  1  0
  7 37  1  0
  9 38  1  0
  9 39  1  0
 10 40  1  0
 15 41  1  0
 17 42  1  0
 20 43  1  0
 23 44  1  0
 27 45  1  0
 28 46  1  0
 28 47  1  0
 30 48  1  0
 31 49  1  0
 32 50  1  0
 34 51  1  0
M  END
$$$$
