
     RDKit          3D

 61 65  0  0  0  0  0  0  0  0999 V2000
    7.3046    0.2683    3.7641 C   0  0  0  0  0  0  0  0  0  0  0  0
    7.4824    1.1142    2.6334 O   0  0  0  0  0  0  0  0  0  0  0  0
    6.7834    0.7916    1.5022 C   0  0  0  0  0  0  0  0  0  0  0  0
    7.0295    1.6217    0.4052 C   0  0  0  0  0  0  0  0  0  0  0  0
    6.3862    1.4031   -0.8165 C   0  0  0  0  0  0  0  0  0  0  0  0
    5.4806    0.3431   -0.9591 C   0  0  0  0  0  0  0  0  0  0  0  0
    4.7783    0.1050   -2.2737 C   0  0  0  0  0  0  0  0  0  0  0  0
    3.6894    1.0391   -2.4734 N   0  0  0  0  0  0  0  0  0  0  0  0
    3.8497    2.1409   -3.2493 N   0  0  0  0  0  0  0  0  0  0  0  0
    2.6902    2.8004   -3.2627 N   0  0  0  0  0  0  0  0  0  0  0  0
    1.8114    2.0882   -2.5061 C   0  0  0  0  0  0  0  0  0  0  0  0
    0.4330    2.3329   -2.1807 C   0  0  0  0  0  0  0  0  0  0  0  0
   -0.2387    3.2886   -2.5547 O   0  0  0  0  0  0  0  0  0  0  0  0
   -0.0974    1.3369   -1.3679 N   0  0  0  0  0  0  0  0  0  0  0  0
    0.6122    0.2232   -0.9307 C   0  0  0  0  0  0  0  0  0  0  0  0
   -0.1430   -0.7644   -0.0530 C   0  0  0  0  0  0  0  0  0  0  0  0
   -0.5860   -0.1207    1.2705 C   0  0  0  0  0  0  0  0  0  0  0  0
   -2.0992   -0.1649    1.4695 C   0  0  0  0  0  0  0  0  0  0  0  0
   -2.5642   -1.5549    1.3239 N   0  0  0  0  0  0  0  0  0  0  0  0
   -4.0670   -1.9654    2.0095 S   0  0  0  0  0  6  0  0  0  0  0  0
   -4.1486   -1.3539    3.3203 O   0  0  0  0  0  0  0  0  0  0  0  0
   -4.2640   -3.3890    1.8305 O   0  0  0  0  0  0  0  0  0  0  0  0
   -5.2260   -1.1164    0.9523 C   0  0  0  0  0  0  0  0  0  0  0  0
   -5.6051    0.1939    1.2597 C   0  0  0  0  0  0  0  0  0  0  0  0
   -6.5311    0.8538    0.4470 C   0  0  0  0  0  0  0  0  0  0  0  0
   -7.0840    0.2086   -0.6679 C   0  0  0  0  0  0  0  0  0  0  0  0
   -8.1099    0.9036   -1.5174 C   0  0  0  0  0  0  0  0  0  0  0  0
   -6.7244   -1.1189   -0.9416 C   0  0  0  0  0  0  0  0  0  0  0  0
   -5.7992   -1.7840   -0.1337 C   0  0  0  0  0  0  0  0  0  0  0  0
   -2.1571   -2.2726    0.0930 C   0  0  0  0  0  0  0  0  0  0  0  0
   -1.3084   -1.3962   -0.8201 C   0  0  0  0  0  0  0  0  0  0  0  0
    1.8607   -0.0115   -1.2282 N   0  0  0  0  0  0  0  0  0  0  0  0
    2.4077    0.9551   -2.0069 C   0  0  0  0  0  0  0  0  0  0  0  0
    5.2256   -0.4791    0.1486 C   0  0  0  0  0  0  0  0  0  0  0  0
    5.8749   -0.2584    1.3700 C   0  0  0  0  0  0  0  0  0  0  0  0
    6.2703    0.3060    4.1249 H   0  0  0  0  0  0  0  0  0  0  0  0
    7.9509    0.6396    4.5666 H   0  0  0  0  0  0  0  0  0  0  0  0
    7.6105   -0.7598    3.5412 H   0  0  0  0  0  0  0  0  0  0  0  0
    7.7293    2.4483    0.5032 H   0  0  0  0  0  0  0  0  0  0  0  0
    6.5935    2.0713   -1.6517 H   0  0  0  0  0  0  0  0  0  0  0  0
    4.3637   -0.9087   -2.3282 H   0  0  0  0  0  0  0  0  0  0  0  0
    5.4821    0.2082   -3.1094 H   0  0  0  0  0  0  0  0  0  0  0  0
   -1.0649    1.4787   -1.1195 H   0  0  0  0  0  0  0  0  0  0  0  0
    0.5665   -1.5673    0.1953 H   0  0  0  0  0  0  0  0  0  0  0  0
   -0.1121   -0.6719    2.0951 H   0  0  0  0  0  0  0  0  0  0  0  0
   -0.2334    0.9138    1.3608 H   0  0  0  0  0  0  0  0  0  0  0  0
   -2.3238    0.2140    2.4723 H   0  0  0  0  0  0  0  0  0  0  0  0
   -2.6018    0.4853    0.7436 H   0  0  0  0  0  0  0  0  0  0  0  0
   -5.1989    0.7009    2.1330 H   0  0  0  0  0  0  0  0  0  0  0  0
   -6.8292    1.8716    0.6961 H   0  0  0  0  0  0  0  0  0  0  0  0
   -9.1162    0.6610   -1.1613 H   0  0  0  0  0  0  0  0  0  0  0  0
   -7.9764    1.9902   -1.4853 H   0  0  0  0  0  0  0  0  0  0  0  0
   -8.0180    0.5971   -2.5649 H   0  0  0  0  0  0  0  0  0  0  0  0
   -7.1750   -1.6455   -1.7811 H   0  0  0  0  0  0  0  0  0  0  0  0
   -5.5439   -2.8189   -0.3495 H   0  0  0  0  0  0  0  0  0  0  0  0
   -3.0261   -2.6252   -0.4747 H   0  0  0  0  0  0  0  0  0  0  0  0
   -1.5806   -3.1577    0.3958 H   0  0  0  0  0  0  0  0  0  0  0  0
   -1.9456   -0.6259   -1.2737 H   0  0  0  0  0  0  0  0  0  0  0  0
   -0.9248   -1.9954   -1.6551 H   0  0  0  0  0  0  0  0  0  0  0  0
    4.5120   -1.2987    0.0726 H   0  0  0  0  0  0  0  0  0  0  0  0
    5.6452   -0.9230    2.1977 H   0  0  0  0  0  0  0  0  0  0  0  0
  1  2  1  0
  2  3  1  0
  3  4  2  0
  4  5  1  0
  5  6  2  0
  6  7  1  0
  7  8  1  0
  8  9  1  0
  9 10  2  0
 10 11  1  0
 11 12  1  0
 12 13  2  0
 12 14  1  0
 14 15  1  0
 15 16  1  0
 16 17  1  0
 17 18  1  0
 18 19  1  0
 19 20  1  0
 20 21  2  0
 20 22  2  0
 20 23  1  0
 23 24  2  0
 24 25  1  0
 25 26  2  0
 26 27  1  0
 26 28  1  0
 28 29  2  0
 19 30  1  0
 30 31  1  0
 15 32  2  0
 32 33  1  0
  6 34  1  0
 34 35  2  0
 35  3  1  0
 33  8  1  0
 33 11  2  0
 31 16  1  0
 29 23  1  0
  1 36  1  0
  1 37  1  0
  1 38  1  0
  4 39  1  0
  5 40  1  0
  7 41  1  0
  7 42  1  0
 14 43  1  0
 16 44  1  0
 17 45  1  0
 17 46  1  0
 18 47  1  0
 18 48  1  0
 24 49  1  0
 25 50  1  0
 27 51  1  0
 27 52  1  0
 27 53  1  0
 28 54  1  0
 29 55  1  0
 30 56  1  0
 30 57  1  0
 31 58  1  0
 31 59  1  0
 34 60  1  0
 35 61  1  0
M  END
$$$$
