
     RDKit          3D

 48 52  0  0  0  0  0  0  0  0999 V2000
   -4.6321    0.3668    1.7213 C   0  0  0  0  0  0  0  0  0  0  0  0
   -3.4845   -0.0310    0.9372 N   0  0  0  0  0  0  0  0  0  0  0  0
   -2.4596    0.8028    0.5809 C   0  0  0  0  0  0  0  0  0  0  0  0
   -1.5377    0.0908   -0.1725 C   0  0  0  0  0  0  0  0  0  0  0  0
   -0.2458    0.5464   -0.8241 C   0  0  0  0  0  0  0  0  0  0  0  0
   -0.0814    2.0544   -0.6620 C   0  0  0  0  0  0  0  0  0  0  0  0
    0.2813    2.6495    0.5531 C   0  0  0  0  0  0  0  0  0  0  0  0
    0.4222    4.0332    0.6259 C   0  0  0  0  0  0  0  0  0  0  0  0
    0.1998    4.8001   -0.5088 C   0  0  0  0  0  0  0  0  0  0  0  0
   -0.1562    4.1486   -1.6756 C   0  0  0  0  0  0  0  0  0  0  0  0
   -0.3004    2.8094   -1.7778 N   0  0  0  0  0  0  0  0  0  0  0  0
    1.0167   -0.0986   -0.2938 C   0  0  0  0  0  0  0  0  0  0  0  0
    1.1928   -0.7943    0.8927 C   0  0  0  0  0  0  0  0  0  0  0  0
    2.4863   -1.2330    0.9576 N   0  0  0  0  0  0  0  0  0  0  0  0
    3.0366   -2.0094    2.0456 C   0  0  0  0  0  0  0  0  0  0  0  0
    3.1832   -0.8380   -0.1623 C   0  0  0  0  0  0  0  0  0  0  0  0
    4.5198   -1.0481   -0.5386 C   0  0  0  0  0  0  0  0  0  0  0  0
    4.9515   -0.5173   -1.7575 C   0  0  0  0  0  0  0  0  0  0  0  0
    4.0817    0.1988   -2.5734 C   0  0  0  0  0  0  0  0  0  0  0  0
    2.7520    0.4011   -2.1898 C   0  0  0  0  0  0  0  0  0  0  0  0
    2.2882   -0.1252   -0.9648 C   0  0  0  0  0  0  0  0  0  0  0  0
   -2.0708   -1.2463   -0.2769 C   0  0  0  0  0  0  0  0  0  0  0  0
   -1.6222   -2.4240   -0.9154 C   0  0  0  0  0  0  0  0  0  0  0  0
   -2.3789   -3.5969   -0.8263 C   0  0  0  0  0  0  0  0  0  0  0  0
   -3.5733   -3.6141   -0.1142 C   0  0  0  0  0  0  0  0  0  0  0  0
   -4.0435   -2.4642    0.5258 C   0  0  0  0  0  0  0  0  0  0  0  0
   -3.2751   -1.2924    0.4298 C   0  0  0  0  0  0  0  0  0  0  0  0
   -5.5319    0.2135    1.1201 H   0  0  0  0  0  0  0  0  0  0  0  0
   -4.5443    1.4220    1.9924 H   0  0  0  0  0  0  0  0  0  0  0  0
   -4.6613   -0.2452    2.6264 H   0  0  0  0  0  0  0  0  0  0  0  0
   -2.4731    1.8436    0.8782 H   0  0  0  0  0  0  0  0  0  0  0  0
   -0.3233    0.3201   -1.8970 H   0  0  0  0  0  0  0  0  0  0  0  0
    0.4534    2.0427    1.4368 H   0  0  0  0  0  0  0  0  0  0  0  0
    0.7069    4.5043    1.5619 H   0  0  0  0  0  0  0  0  0  0  0  0
    0.3034    5.8786   -0.4862 H   0  0  0  0  0  0  0  0  0  0  0  0
   -0.3407    4.7029   -2.5912 H   0  0  0  0  0  0  0  0  0  0  0  0
    0.4859   -1.0186    1.6822 H   0  0  0  0  0  0  0  0  0  0  0  0
    2.2649   -2.1834    2.7999 H   0  0  0  0  0  0  0  0  0  0  0  0
    3.3853   -2.9654    1.6469 H   0  0  0  0  0  0  0  0  0  0  0  0
    3.8642   -1.4482    2.4869 H   0  0  0  0  0  0  0  0  0  0  0  0
    5.2054   -1.6045    0.0919 H   0  0  0  0  0  0  0  0  0  0  0  0
    5.9821   -0.6655   -2.0706 H   0  0  0  0  0  0  0  0  0  0  0  0
    4.4348    0.6080   -3.5164 H   0  0  0  0  0  0  0  0  0  0  0  0
    2.0833    0.9692   -2.8316 H   0  0  0  0  0  0  0  0  0  0  0  0
   -0.6888   -2.4250   -1.4720 H   0  0  0  0  0  0  0  0  0  0  0  0
   -2.0275   -4.4996   -1.3193 H   0  0  0  0  0  0  0  0  0  0  0  0
   -4.1511   -4.5334   -0.0559 H   0  0  0  0  0  0  0  0  0  0  0  0
   -4.9784   -2.4852    1.0758 H   0  0  0  0  0  0  0  0  0  0  0  0
  1  2  1  0
  2  3  1  0
  3  4  2  0
  4  5  1  0
  5  6  1  0
  6  7  2  0
  7  8  1  0
  8  9  2  0
  9 10  1  0
 10 11  2  0
  5 12  1  0
 12 13  2  0
 13 14  1  0
 14 15  1  0
 14 16  1  0
 16 17  2  0
 17 18  1  0
 18 19  2  0
 19 20  1  0
 20 21  2  0
  4 22  1  0
 22 23  2  0
 23 24  1  0
 24 25  2  0
 25 26  1  0
 26 27  2  0
 27  2  1  0
 11  6  1  0
 21 12  1  0
 27 22  1  0
 21 16  1  0
  1 28  1  0
  1 29  1  0
  1 30  1  0
  3 31  1  0
  5 32  1  0
  7 33  1  0
  8 34  1  0
  9 35  1  0
 10 36  1  0
 13 37  1  0
 15 38  1  0
 15 39  1  0
 15 40  1  0
 17 41  1  0
 18 42  1  0
 19 43  1  0
 20 44  1  0
 23 45  1  0
 24 46  1  0
 25 47  1  0
 26 48  1  0
M  END
$$$$
