
     RDKit          3D

 42 41  0  0  0  0  0  0  0  0999 V2000
   -5.7063    0.0875   -0.1867 C   0  0  0  0  0  0  0  0  0  0  0  0
   -5.2775   -0.0663    1.2465 C   0  0  0  0  0  0  0  0  0  0  0  0
   -6.3603    0.2268    2.2521 C   0  0  0  0  0  0  0  0  0  0  0  0
   -4.0422   -0.4209    1.6511 C   0  0  0  0  0  0  0  0  0  0  0  0
   -2.8604   -0.7790    0.7899 C   0  0  0  0  0  0  0  0  0  0  0  0
   -1.8534    0.3743    0.7138 C   0  0  0  0  0  0  0  0  0  0  0  0
   -0.6160    0.0184   -0.0919 C   0  0  0  0  0  0  0  0  0  0  0  0
   -0.8289   -0.0990   -1.5778 C   0  0  0  0  0  0  0  0  0  0  0  0
    0.5755   -0.1322    0.5209 C   0  0  0  0  0  0  0  0  0  0  0  0
    1.8902   -0.5056   -0.1103 C   0  0  0  0  0  0  0  0  0  0  0  0
    2.8070    0.7141   -0.2569 C   0  0  0  0  0  0  0  0  0  0  0  0
    4.1700    0.3586   -0.8281 C   0  0  0  0  0  0  0  0  0  0  0  0
    4.1779    0.0248   -2.2961 C   0  0  0  0  0  0  0  0  0  0  0  0
    5.2621    0.3878   -0.0372 C   0  0  0  0  0  0  0  0  0  0  0  0
    6.6812    0.0826   -0.3926 C   0  0  0  0  0  0  0  0  0  0  0  0
    7.1160   -0.9939    0.4248 O   0  0  0  0  0  0  0  0  0  0  0  0
   -4.8808    0.0058   -0.8976 H   0  0  0  0  0  0  0  0  0  0  0  0
   -6.1592    1.0731   -0.3397 H   0  0  0  0  0  0  0  0  0  0  0  0
   -6.4487   -0.6758   -0.4414 H   0  0  0  0  0  0  0  0  0  0  0  0
   -6.7093    1.2590    2.1443 H   0  0  0  0  0  0  0  0  0  0  0  0
   -7.2103   -0.4463    2.0997 H   0  0  0  0  0  0  0  0  0  0  0  0
   -6.0160    0.0984    3.2837 H   0  0  0  0  0  0  0  0  0  0  0  0
   -3.8439   -0.4818    2.7214 H   0  0  0  0  0  0  0  0  0  0  0  0
   -2.3792   -1.6632    1.2277 H   0  0  0  0  0  0  0  0  0  0  0  0
   -3.1779   -1.0831   -0.2123 H   0  0  0  0  0  0  0  0  0  0  0  0
   -1.5693    0.6730    1.7319 H   0  0  0  0  0  0  0  0  0  0  0  0
   -2.3262    1.2587    0.2667 H   0  0  0  0  0  0  0  0  0  0  0  0
   -1.3557   -1.0279   -1.8163 H   0  0  0  0  0  0  0  0  0  0  0  0
    0.1046   -0.0832   -2.1462 H   0  0  0  0  0  0  0  0  0  0  0  0
   -1.4286    0.7420   -1.9423 H   0  0  0  0  0  0  0  0  0  0  0  0
    0.6257    0.0030    1.6016 H   0  0  0  0  0  0  0  0  0  0  0  0
    2.3712   -1.2563    0.5302 H   0  0  0  0  0  0  0  0  0  0  0  0
    1.7392   -0.9968   -1.0767 H   0  0  0  0  0  0  0  0  0  0  0  0
    2.9221    1.1988    0.7222 H   0  0  0  0  0  0  0  0  0  0  0  0
    2.3353    1.4652   -0.9042 H   0  0  0  0  0  0  0  0  0  0  0  0
    3.6725   -0.9294   -2.4737 H   0  0  0  0  0  0  0  0  0  0  0  0
    5.1820   -0.0502   -2.7183 H   0  0  0  0  0  0  0  0  0  0  0  0
    3.6552    0.8031   -2.8626 H   0  0  0  0  0  0  0  0  0  0  0  0
    5.1356    0.6641    1.0099 H   0  0  0  0  0  0  0  0  0  0  0  0
    7.3136    0.9502   -0.1822 H   0  0  0  0  0  0  0  0  0  0  0  0
    6.8315   -0.2006   -1.4354 H   0  0  0  0  0  0  0  0  0  0  0  0
    6.4814   -1.7181    0.2880 H   0  0  0  0  0  0  0  0  0  0  0  0
  1  2  1  0
  2  3  1  0
  2  4  2  3
  4  5  1  0
  5  6  1  0
  6  7  1  0
  7  8  1  0
  7  9  2  3
  9 10  1  0
 10 11  1  0
 11 12  1  0
 12 13  1  0
 12 14  2  3
 14 15  1  0
 15 16  1  0
  1 17  1  0
  1 18  1  0
  1 19  1  0
  3 20  1  0
  3 21  1  0
  3 22  1  0
  4 23  1  0
  5 24  1  0
  5 25  1  0
  6 26  1  0
  6 27  1  0
  8 28  1  0
  8 29  1  0
  8 30  1  0
  9 31  1  0
 10 32  1  0
 10 33  1  0
 11 34  1  0
 11 35  1  0
 13 36  1  0
 13 37  1  0
 13 38  1  0
 14 39  1  0
 15 40  1  0
 15 41  1  0
 16 42  1  0
M  END
$$$$
