
     RDKit          3D

 71 75  0  0  0  0  0  0  0  0999 V2000
   -9.1299   -0.4867    3.8103 C   0  0  0  0  0  0  0  0  0  0  0  0
   -7.7543   -0.0611    3.3898 C   0  0  0  0  0  0  0  0  0  0  0  0
   -6.8487    0.4484    4.3200 C   0  0  0  0  0  0  0  0  0  0  0  0
   -5.5586    0.8049    3.9247 C   0  0  0  0  0  0  0  0  0  0  0  0
   -5.1392    0.6562    2.5920 C   0  0  0  0  0  0  0  0  0  0  0  0
   -3.7329    1.0519    2.2349 C   0  0  0  0  0  0  0  0  0  0  0  0
   -6.0402    0.1278    1.6440 C   0  0  0  0  0  0  0  0  0  0  0  0
   -5.6748   -0.0895    0.1906 C   0  0  0  0  0  0  0  0  0  0  0  0
   -5.3218   -1.4687   -0.0846 N   0  0  0  0  0  0  0  0  0  0  0  0
   -6.2846   -2.4087   -0.2700 N   0  0  0  0  0  0  0  0  0  0  0  0
   -5.6805   -3.5633   -0.5488 N   0  0  0  0  0  0  0  0  0  0  0  0
   -4.3428   -3.3222   -0.5741 C   0  0  0  0  0  0  0  0  0  0  0  0
   -3.2360   -4.1979   -0.8468 C   0  0  0  0  0  0  0  0  0  0  0  0
   -3.3111   -5.3934   -1.1066 O   0  0  0  0  0  0  0  0  0  0  0  0
   -2.0193   -3.5299   -0.7950 N   0  0  0  0  0  0  0  0  0  0  0  0
   -1.8833   -2.1668   -0.5387 C   0  0  0  0  0  0  0  0  0  0  0  0
   -0.4461   -1.6719   -0.5361 C   0  0  0  0  0  0  0  0  0  0  0  0
   -0.3472   -0.1502   -0.6728 C   0  0  0  0  0  0  0  0  0  0  0  0
    1.1123    0.2932   -0.7133 C   0  0  0  0  0  0  0  0  0  0  0  0
    1.9406   -0.3681    0.3357 N   0  0  0  0  0  0  0  0  0  0  0  0
    3.3420   -1.1820   -0.2054 S   0  0  0  0  0  6  0  0  0  0  0  0
    2.9291   -2.0908   -1.2550 O   0  0  0  0  0  0  0  0  0  0  0  0
    4.0777   -1.6514    0.9482 O   0  0  0  0  0  0  0  0  0  0  0  0
    4.2959    0.1292   -0.9333 C   0  0  0  0  0  0  0  0  0  0  0  0
    4.5827    0.1135   -2.3022 C   0  0  0  0  0  0  0  0  0  0  0  0
    5.3256    1.1559   -2.8592 C   0  0  0  0  0  0  0  0  0  0  0  0
    5.7905    2.1913   -2.0381 C   0  0  0  0  0  0  0  0  0  0  0  0
    6.6874    3.5530   -2.7631 S   0  0  0  0  0  6  0  0  0  0  0  0
    6.3113    3.6136   -4.1601 O   0  0  0  0  0  0  0  0  0  0  0  0
    6.5062    4.6947   -1.8914 O   0  0  0  0  0  0  0  0  0  0  0  0
    8.3071    3.0515   -2.6618 N   0  0  0  0  0  0  0  0  0  0  0  0
    8.7229    1.9388   -3.5307 C   0  0  0  0  0  0  0  0  0  0  0  0
    8.9121    3.0023   -1.3204 C   0  0  0  0  0  0  0  0  0  0  0  0
    5.4936    2.2097   -0.6699 C   0  0  0  0  0  0  0  0  0  0  0  0
    4.7508    1.1680   -0.1127 C   0  0  0  0  0  0  0  0  0  0  0  0
    1.1540   -1.0915    1.3635 C   0  0  0  0  0  0  0  0  0  0  0  0
    0.2766   -2.1662    0.7296 C   0  0  0  0  0  0  0  0  0  0  0  0
   -2.8816   -1.3674   -0.2819 N   0  0  0  0  0  0  0  0  0  0  0  0
   -4.0820   -1.9987   -0.3083 C   0  0  0  0  0  0  0  0  0  0  0  0
   -7.3390   -0.2290    2.0637 C   0  0  0  0  0  0  0  0  0  0  0  0
   -9.1456   -1.5635    4.0066 H   0  0  0  0  0  0  0  0  0  0  0  0
   -9.4461    0.0404    4.7169 H   0  0  0  0  0  0  0  0  0  0  0  0
   -9.8611   -0.2558    3.0281 H   0  0  0  0  0  0  0  0  0  0  0  0
   -7.1382    0.5684    5.3618 H   0  0  0  0  0  0  0  0  0  0  0  0
   -4.8764    1.1999    4.6750 H   0  0  0  0  0  0  0  0  0  0  0  0
   -3.7321    1.7816    1.4198 H   0  0  0  0  0  0  0  0  0  0  0  0
   -3.1530    0.1718    1.9482 H   0  0  0  0  0  0  0  0  0  0  0  0
   -3.2206    1.5200    3.0830 H   0  0  0  0  0  0  0  0  0  0  0  0
   -6.5223    0.1687   -0.4569 H   0  0  0  0  0  0  0  0  0  0  0  0
   -4.8459    0.5496   -0.1274 H   0  0  0  0  0  0  0  0  0  0  0  0
   -1.2125   -4.1043   -0.9943 H   0  0  0  0  0  0  0  0  0  0  0  0
    0.0445   -2.1235   -1.4100 H   0  0  0  0  0  0  0  0  0  0  0  0
   -0.8610    0.3453    0.1614 H   0  0  0  0  0  0  0  0  0  0  0  0
   -0.8559    0.1870   -1.5846 H   0  0  0  0  0  0  0  0  0  0  0  0
    1.1759    1.3776   -0.5664 H   0  0  0  0  0  0  0  0  0  0  0  0
    1.5097    0.0872   -1.7132 H   0  0  0  0  0  0  0  0  0  0  0  0
    4.2268   -0.6944   -2.9384 H   0  0  0  0  0  0  0  0  0  0  0  0
    5.5315    1.1599   -3.9279 H   0  0  0  0  0  0  0  0  0  0  0  0
    9.8147    1.9210   -3.6075 H   0  0  0  0  0  0  0  0  0  0  0  0
    8.3368    2.0616   -4.5460 H   0  0  0  0  0  0  0  0  0  0  0  0
    8.3898    0.9794   -3.1264 H   0  0  0  0  0  0  0  0  0  0  0  0
    8.6654    3.8954   -0.7400 H   0  0  0  0  0  0  0  0  0  0  0  0
    8.5885    2.1118   -0.7752 H   0  0  0  0  0  0  0  0  0  0  0  0
   10.0032    2.9760   -1.4111 H   0  0  0  0  0  0  0  0  0  0  0  0
    5.8281    3.0305   -0.0389 H   0  0  0  0  0  0  0  0  0  0  0  0
    4.5199    1.1713    0.9509 H   0  0  0  0  0  0  0  0  0  0  0  0
    1.8107   -1.5312    2.1219 H   0  0  0  0  0  0  0  0  0  0  0  0
    0.5377   -0.3624    1.9046 H   0  0  0  0  0  0  0  0  0  0  0  0
   -0.4330   -2.5273    1.4838 H   0  0  0  0  0  0  0  0  0  0  0  0
    0.8933   -3.0334    0.4626 H   0  0  0  0  0  0  0  0  0  0  0  0
   -8.0373   -0.6572    1.3432 H   0  0  0  0  0  0  0  0  0  0  0  0
  1  2  1  0
  2  3  2  0
  3  4  1  0
  4  5  2  0
  5  6  1  0
  5  7  1  0
  7  8  1  0
  8  9  1  0
  9 10  1  0
 10 11  2  0
 11 12  1  0
 12 13  1  0
 13 14  2  0
 13 15  1  0
 15 16  1  0
 16 17  1  0
 17 18  1  0
 18 19  1  0
 19 20  1  0
 20 21  1  0
 21 22  2  0
 21 23  2  0
 21 24  1  0
 24 25  2  0
 25 26  1  0
 26 27  2  0
 27 28  1  0
 28 29  2  0
 28 30  2  0
 28 31  1  0
 31 32  1  0
 31 33  1  0
 27 34  1  0
 34 35  2  0
 20 36  1  0
 36 37  1  0
 16 38  2  0
 38 39  1  0
  7 40  2  0
 40  2  1  0
 39  9  1  0
 39 12  2  0
 37 17  1  0
 35 24  1  0
  1 41  1  0
  1 42  1  0
  1 43  1  0
  3 44  1  0
  4 45  1  0
  6 46  1  0
  6 47  1  0
  6 48  1  0
  8 49  1  0
  8 50  1  0
 15 51  1  0
 17 52  1  0
 18 53  1  0
 18 54  1  0
 19 55  1  0
 19 56  1  0
 25 57  1  0
 26 58  1  0
 32 59  1  0
 32 60  1  0
 32 61  1  0
 33 62  1  0
 33 63  1  0
 33 64  1  0
 34 65  1  0
 35 66  1  0
 36 67  1  0
 36 68  1  0
 37 69  1  0
 37 70  1  0
 40 71  1  0
M  END
$$$$
