
     RDKit          3D

 60 65  0  0  0  0  0  0  0  0999 V2000
   -2.2795    0.6157   -3.2561 O   0  0  0  0  0  0  0  0  0  0  0  0
   -2.5279    0.3080   -2.0950 C   0  0  0  0  0  0  0  0  0  0  0  0
   -1.5420    0.2828   -1.1138 N   0  0  0  0  0  0  0  0  0  0  0  0
   -1.7712   -0.0411    0.2177 C   0  0  0  0  0  0  0  0  0  0  0  0
   -0.5686   -0.0268    1.1534 C   0  0  0  0  0  0  0  0  0  0  0  0
    0.4273   -1.1440    0.8114 C   0  0  0  0  0  0  0  0  0  0  0  0
    1.6291   -0.6531    0.0144 C   0  0  0  0  0  0  0  0  0  0  0  0
    2.3356    0.4740    0.6837 N   0  0  0  0  0  0  0  0  0  0  0  0
    3.9329    0.1452    1.2186 S   0  0  0  0  0  6  0  0  0  0  0  0
    4.4818    1.3638    1.7728 O   0  0  0  0  0  0  0  0  0  0  0  0
    3.8789   -1.0780    1.9920 O   0  0  0  0  0  0  0  0  0  0  0  0
    4.7866   -0.1734   -0.3047 C   0  0  0  0  0  0  0  0  0  0  0  0
    5.0277    0.8911   -1.1827 C   0  0  0  0  0  0  0  0  0  0  0  0
    5.7036    0.6540   -2.3798 C   0  0  0  0  0  0  0  0  0  0  0  0
    6.1368   -0.6356   -2.6886 C   0  0  0  0  0  0  0  0  0  0  0  0
    5.8754   -1.6978   -1.8120 C   0  0  0  0  0  0  0  0  0  0  0  0
    5.2182   -1.4677   -0.6063 C   0  0  0  0  0  0  0  0  0  0  0  0
    6.2405   -2.9940   -2.0728 O   0  0  0  0  0  0  0  0  0  0  0  0
    6.5930   -3.1729   -3.4494 C   0  0  0  0  0  0  0  0  0  0  0  0
    7.4966   -2.0460   -3.9252 C   0  0  0  0  0  0  0  0  0  0  0  0
    6.8069   -0.7905   -3.8754 O   0  0  0  0  0  0  0  0  0  0  0  0
    1.5351    1.2260    1.6877 C   0  0  0  0  0  0  0  0  0  0  0  0
    0.0935    1.3519    1.2172 C   0  0  0  0  0  0  0  0  0  0  0  0
   -2.9393   -0.3732    0.6939 N   0  0  0  0  0  0  0  0  0  0  0  0
   -3.9194   -0.3571   -0.2407 C   0  0  0  0  0  0  0  0  0  0  0  0
   -3.8181   -0.0551   -1.5762 C   0  0  0  0  0  0  0  0  0  0  0  0
   -5.0300   -0.1612   -2.1854 N   0  0  0  0  0  0  0  0  0  0  0  0
   -5.9112   -0.5268   -1.2535 N   0  0  0  0  0  0  0  0  0  0  0  0
   -5.2476   -0.6252   -0.0735 N   0  0  0  0  0  0  0  0  0  0  0  0
   -5.9417   -1.0021    1.1419 C   0  0  0  0  0  0  0  0  0  0  0  0
   -6.3872    0.2080    1.9172 C   0  0  0  0  0  0  0  0  0  0  0  0
   -7.4589    1.0005    1.4741 C   0  0  0  0  0  0  0  0  0  0  0  0
   -7.8492    2.1310    2.1968 C   0  0  0  0  0  0  0  0  0  0  0  0
   -7.1749    2.4826    3.3676 C   0  0  0  0  0  0  0  0  0  0  0  0
   -6.1103    1.7027    3.8164 C   0  0  0  0  0  0  0  0  0  0  0  0
   -5.7261    0.5774    3.0922 C   0  0  0  0  0  0  0  0  0  0  0  0
   -4.7058   -0.1634    3.5488 F   0  0  0  0  0  0  0  0  0  0  0  0
   -0.6319    0.5694   -1.4401 H   0  0  0  0  0  0  0  0  0  0  0  0
   -0.9605   -0.2532    2.1557 H   0  0  0  0  0  0  0  0  0  0  0  0
   -0.0663   -1.9603    0.2698 H   0  0  0  0  0  0  0  0  0  0  0  0
    0.7948   -1.5791    1.7506 H   0  0  0  0  0  0  0  0  0  0  0  0
    1.3206   -0.3036   -0.9776 H   0  0  0  0  0  0  0  0  0  0  0  0
    2.2993   -1.5004   -0.1626 H   0  0  0  0  0  0  0  0  0  0  0  0
    4.6998    1.8987   -0.9344 H   0  0  0  0  0  0  0  0  0  0  0  0
    5.9037    1.4725   -3.0661 H   0  0  0  0  0  0  0  0  0  0  0  0
    5.0351   -2.2949    0.0762 H   0  0  0  0  0  0  0  0  0  0  0  0
    5.6695   -3.2234   -4.0413 H   0  0  0  0  0  0  0  0  0  0  0  0
    7.1076   -4.1356   -3.5365 H   0  0  0  0  0  0  0  0  0  0  0  0
    7.7976   -2.2164   -4.9642 H   0  0  0  0  0  0  0  0  0  0  0  0
    8.4037   -1.9712   -3.3128 H   0  0  0  0  0  0  0  0  0  0  0  0
    1.5762    0.7274    2.6636 H   0  0  0  0  0  0  0  0  0  0  0  0
    1.9571    2.2314    1.7956 H   0  0  0  0  0  0  0  0  0  0  0  0
   -0.4701    1.9916    1.9072 H   0  0  0  0  0  0  0  0  0  0  0  0
    0.0709    1.8602    0.2462 H   0  0  0  0  0  0  0  0  0  0  0  0
   -6.8059   -1.6186    0.8661 H   0  0  0  0  0  0  0  0  0  0  0  0
   -5.2687   -1.6403    1.7267 H   0  0  0  0  0  0  0  0  0  0  0  0
   -7.9902    0.7474    0.5570 H   0  0  0  0  0  0  0  0  0  0  0  0
   -8.6775    2.7414    1.8416 H   0  0  0  0  0  0  0  0  0  0  0  0
   -7.4789    3.3639    3.9269 H   0  0  0  0  0  0  0  0  0  0  0  0
   -5.5764    1.9629    4.7256 H   0  0  0  0  0  0  0  0  0  0  0  0
  1  2  2  0
  2  3  1  0
  3  4  1  0
  4  5  1  0
  5  6  1  0
  6  7  1  0
  7  8  1  0
  8  9  1  0
  9 10  2  0
  9 11  2  0
  9 12  1  0
 12 13  2  0
 13 14  1  0
 14 15  2  0
 15 16  1  0
 16 17  2  0
 16 18  1  0
 18 19  1  0
 19 20  1  0
 20 21  1  0
  8 22  1  0
 22 23  1  0
  4 24  2  0
 24 25  1  0
 25 26  2  0
 26 27  1  0
 27 28  2  0
 28 29  1  0
 29 30  1  0
 30 31  1  0
 31 32  2  0
 32 33  1  0
 33 34  2  0
 34 35  1  0
 35 36  2  0
 36 37  1  0
 26  2  1  0
 36 31  1  0
 23  5  1  0
 29 25  1  0
 17 12  1  0
 21 15  1  0
  3 38  1  0
  5 39  1  0
  6 40  1  0
  6 41  1  0
  7 42  1  0
  7 43  1  0
 13 44  1  0
 14 45  1  0
 17 46  1  0
 19 47  1  0
 19 48  1  0
 20 49  1  0
 20 50  1  0
 22 51  1  0
 22 52  1  0
 23 53  1  0
 23 54  1  0
 30 55  1  0
 30 56  1  0
 32 57  1  0
 33 58  1  0
 34 59  1  0
 35 60  1  0
M  END
$$$$
