
     RDKit          3D

 36 36  0  0  0  0  0  0  0  0999 V2000
   -0.4224   -3.0744    3.1220 C   0  0  0  0  0  0  0  0  0  0  0  0
    0.5127   -4.0800    2.4744 C   0  0  0  0  0  0  0  0  0  0  0  0
    0.4702   -4.0008    1.0502 O   0  0  0  0  0  0  0  0  0  0  0  0
    1.2034   -2.8925    0.5246 C   0  0  0  0  0  0  0  0  0  0  0  0
    1.1992   -3.0107   -0.9958 C   0  0  0  0  0  0  0  0  0  0  0  0
    1.9911   -1.9057   -1.6842 C   0  0  0  0  0  0  0  0  0  0  0  0
    1.3206   -0.6200   -1.6195 N   0  0  0  0  0  0  0  0  0  0  0  0
    1.6239    0.3144   -0.6534 C   0  0  0  0  0  0  0  0  0  0  0  0
    2.4545    0.1398    0.2292 O   0  0  0  0  0  0  0  0  0  0  0  0
    0.8539    1.5804   -0.7532 C   0  0  0  0  0  0  0  0  0  0  0  0
    1.5966    2.7921   -0.7627 C   0  0  0  0  0  0  0  0  0  0  0  0
    2.2002    3.7835   -0.7733 N   0  0  0  0  0  0  0  0  0  0  0  0
   -0.4876    1.4817   -0.7084 C   0  0  0  0  0  0  0  0  0  0  0  0
   -1.3689    2.5966   -0.7732 C   0  0  0  0  0  0  0  0  0  0  0  0
   -2.6650    2.7025   -0.2706 C   0  0  0  0  0  0  0  0  0  0  0  0
   -3.1587    3.9944   -0.5834 C   0  0  0  0  0  0  0  0  0  0  0  0
   -2.1467    4.6008   -1.2808 C   0  0  0  0  0  0  0  0  0  0  0  0
   -2.0463    5.8938   -1.8801 N   0  0  0  0  0  4  0  0  0  0  0  0
   -1.0564    6.1329   -2.5817 O   0  0  0  0  0  0  0  0  0  0  0  0
   -2.9863    6.6702   -1.6602 O   0  0  0  0  0  1  0  0  0  0  0  0
   -1.0711    3.7843   -1.4072 O   0  0  0  0  0  0  0  0  0  0  0  0
   -0.4774   -3.2400    4.2020 H   0  0  0  0  0  0  0  0  0  0  0  0
   -1.4291   -3.1549    2.6989 H   0  0  0  0  0  0  0  0  0  0  0  0
   -0.0828   -2.0483    2.9526 H   0  0  0  0  0  0  0  0  0  0  0  0
    0.1865   -5.0898    2.7444 H   0  0  0  0  0  0  0  0  0  0  0  0
    1.5398   -3.9614    2.8370 H   0  0  0  0  0  0  0  0  0  0  0  0
    0.7202   -1.9622    0.8354 H   0  0  0  0  0  0  0  0  0  0  0  0
    2.2315   -2.9139    0.9036 H   0  0  0  0  0  0  0  0  0  0  0  0
    1.6270   -3.9831   -1.2716 H   0  0  0  0  0  0  0  0  0  0  0  0
    0.1638   -3.0251   -1.3593 H   0  0  0  0  0  0  0  0  0  0  0  0
    2.0962   -2.1438   -2.7482 H   0  0  0  0  0  0  0  0  0  0  0  0
    2.9976   -1.8245   -1.2597 H   0  0  0  0  0  0  0  0  0  0  0  0
    0.6748   -0.3902   -2.3651 H   0  0  0  0  0  0  0  0  0  0  0  0
   -0.9516    0.5048   -0.5878 H   0  0  0  0  0  0  0  0  0  0  0  0
   -3.1903    1.9287    0.2757 H   0  0  0  0  0  0  0  0  0  0  0  0
   -4.1231    4.4203   -0.3412 H   0  0  0  0  0  0  0  0  0  0  0  0
  1  2  1  0
  2  3  1  0
  3  4  1  0
  4  5  1  0
  5  6  1  0
  6  7  1  0
  7  8  1  0
  8  9  2  0
  8 10  1  0
 10 11  1  0
 11 12  3  0
 10 13  2  3
 13 14  1  0
 14 15  2  0
 15 16  1  0
 16 17  2  0
 17 18  1  0
 18 19  2  0
 18 20  1  0
 17 21  1  0
 21 14  1  0
  1 22  1  0
  1 23  1  0
  1 24  1  0
  2 25  1  0
  2 26  1  0
  4 27  1  0
  4 28  1  0
  5 29  1  0
  5 30  1  0
  6 31  1  0
  6 32  1  0
  7 33  1  0
 13 34  1  0
 15 35  1  0
 16 36  1  0
M  CHG  2  18   1  20  -1
M  END
$$$$
