
     RDKit          3D

 41 42  0  0  0  0  0  0  0  0999 V2000
    0.4910    3.6229    3.1034 C   0  0  0  0  0  0  0  0  0  0  0  0
    1.6532    3.7609    2.1377 C   0  0  0  0  0  0  0  0  0  0  0  0
    1.7650    2.5817    1.3268 O   0  0  0  0  0  0  0  0  0  0  0  0
    0.9768    2.5501    0.2043 C   0  0  0  0  0  0  0  0  0  0  0  0
    0.2400    3.4689   -0.1397 O   0  0  0  0  0  0  0  0  0  0  0  0
    1.1363    1.2012   -0.5533 C   0  0  0  0  0  0  0  0  0  0  0  0
   -0.1884    0.6620   -0.9001 N   0  0  0  0  0  0  0  0  0  0  0  0
   -1.1056    0.3844    0.0891 C   0  0  0  0  0  0  0  0  0  0  0  0
   -0.9371    0.7083    1.2595 O   0  0  0  0  0  0  0  0  0  0  0  0
   -2.3103   -0.3900   -0.3160 C   0  0  0  0  0  0  0  0  0  0  0  0
   -2.9960   -1.1164    0.6680 C   0  0  0  0  0  0  0  0  0  0  0  0
   -4.1314   -1.8569    0.3347 C   0  0  0  0  0  0  0  0  0  0  0  0
   -4.5912   -1.8676   -0.9814 C   0  0  0  0  0  0  0  0  0  0  0  0
   -3.9171   -1.1332   -1.9568 C   0  0  0  0  0  0  0  0  0  0  0  0
   -4.4984   -1.1372   -3.5770 Cl  0  0  0  0  0  0  0  0  0  0  0  0
   -2.7814   -0.3907   -1.6341 C   0  0  0  0  0  0  0  0  0  0  0  0
    1.8314    0.1906    0.2811 N   0  0  0  0  0  0  0  0  0  0  0  0
    1.9063   -1.1023   -0.1021 C   0  0  0  0  0  0  0  0  0  0  0  0
    1.6011   -1.5780   -1.2901 N   0  0  0  0  0  0  0  0  0  0  0  0
    1.7215   -2.9483   -1.3680 N   0  0  0  0  0  0  0  0  0  0  0  0
    2.1356   -3.4703   -0.2342 C   0  0  0  0  0  0  0  0  0  0  0  0
    2.3827   -4.9147   -0.0020 C   0  0  0  0  0  0  0  0  0  0  0  0
    2.3810   -2.3219    1.0167 S   0  0  0  0  0  0  0  0  0  0  0  0
    1.9709    1.6644   -1.7913 C   0  0  0  0  0  0  0  0  0  0  0  0
    3.1730    2.1818   -1.4340 F   0  0  0  0  0  0  0  0  0  0  0  0
    2.2220    0.6448   -2.6496 F   0  0  0  0  0  0  0  0  0  0  0  0
    1.3317    2.6091   -2.5249 F   0  0  0  0  0  0  0  0  0  0  0  0
    0.4374    4.4870    3.7716 H   0  0  0  0  0  0  0  0  0  0  0  0
   -0.4590    3.5377    2.5665 H   0  0  0  0  0  0  0  0  0  0  0  0
    0.5984    2.7152    3.7062 H   0  0  0  0  0  0  0  0  0  0  0  0
    1.5608    4.6617    1.5205 H   0  0  0  0  0  0  0  0  0  0  0  0
    2.5887    3.8510    2.6993 H   0  0  0  0  0  0  0  0  0  0  0  0
   -0.1731    0.0249   -1.6894 H   0  0  0  0  0  0  0  0  0  0  0  0
   -2.6453   -1.1080    1.6988 H   0  0  0  0  0  0  0  0  0  0  0  0
   -4.6576   -2.4210    1.1011 H   0  0  0  0  0  0  0  0  0  0  0  0
   -5.4769   -2.4431   -1.2395 H   0  0  0  0  0  0  0  0  0  0  0  0
   -2.2930    0.1955   -2.4068 H   0  0  0  0  0  0  0  0  0  0  0  0
    1.7177    0.3744    1.2761 H   0  0  0  0  0  0  0  0  0  0  0  0
    2.0610   -5.5025   -0.8679 H   0  0  0  0  0  0  0  0  0  0  0  0
    3.4496   -5.1024    0.1562 H   0  0  0  0  0  0  0  0  0  0  0  0
    1.8289   -5.2740    0.8712 H   0  0  0  0  0  0  0  0  0  0  0  0
  1  2  1  0
  2  3  1  0
  3  4  1  0
  4  5  2  0
  4  6  1  0
  6  7  1  0
  7  8  1  0
  8  9  2  0
  8 10  1  0
 10 11  2  0
 11 12  1  0
 12 13  2  0
 13 14  1  0
 14 15  1  0
 14 16  2  0
  6 17  1  0
 17 18  1  0
 18 19  2  0
 19 20  1  0
 20 21  2  0
 21 22  1  0
 21 23  1  0
  6 24  1  0
 24 25  1  0
 24 26  1  0
 24 27  1  0
 16 10  1  0
 23 18  1  0
  1 28  1  0
  1 29  1  0
  1 30  1  0
  2 31  1  0
  2 32  1  0
  7 33  1  0
 11 34  1  0
 12 35  1  0
 13 36  1  0
 16 37  1  0
 17 38  1  0
 22 39  1  0
 22 40  1  0
 22 41  1  0
M  END
$$$$
