
     RDKit          3D

 44 44  0  0  0  0  0  0  0  0999 V2000
   -2.1730   -1.1998   -0.9752 C   0  0  0  0  0  0  0  0  0  0  0  0
   -1.9685   -1.4915    0.5118 C   0  0  0  0  0  0  0  0  0  0  0  0
   -3.0000   -2.5307    0.9757 C   0  0  0  0  0  0  0  0  0  0  0  0
   -1.8397   -0.2275    1.4276 C   0  0  0  0  0  0  0  0  0  0  0  0
   -1.8017   -0.6970    2.7885 O   0  0  0  0  0  0  0  0  0  0  0  0
   -0.5137    0.4012    1.1854 C   0  0  0  0  0  0  0  0  0  0  0  0
    0.5711    0.8804    0.9887 C   0  0  0  0  0  0  0  0  0  0  0  0
    1.9018    1.4539    0.7353 C   0  0  0  0  0  0  0  0  0  0  0  0
    2.7088    0.5848   -0.1310 N   0  0  0  0  0  0  0  0  0  0  0  0
    2.1319    0.4630   -1.4827 C   0  0  0  0  0  0  0  0  0  0  0  0
    3.1574    0.1181   -2.5727 C   0  0  0  0  0  0  0  0  0  0  0  0
    4.2882   -0.7359   -2.0217 C   0  0  0  0  0  0  0  0  0  0  0  0
    4.9759   -0.0410   -0.8451 C   0  0  0  0  0  0  0  0  0  0  0  0
    4.1022    1.0274   -0.1785 C   0  0  0  0  0  0  0  0  0  0  0  0
   -2.9482    0.8747    1.3920 C   0  0  0  0  0  0  0  0  0  0  0  0
   -4.3550    0.3632    1.7184 C   0  0  0  0  0  0  0  0  0  0  0  0
   -3.0102    1.7351    0.1224 C   0  0  0  0  0  0  0  0  0  0  0  0
   -1.9826   -2.1031   -1.5666 H   0  0  0  0  0  0  0  0  0  0  0  0
   -1.4898   -0.4271   -1.3385 H   0  0  0  0  0  0  0  0  0  0  0  0
   -3.2015   -0.8955   -1.1876 H   0  0  0  0  0  0  0  0  0  0  0  0
   -1.0045   -2.0197    0.5854 H   0  0  0  0  0  0  0  0  0  0  0  0
   -2.8803   -3.4572    0.4026 H   0  0  0  0  0  0  0  0  0  0  0  0
   -4.0274   -2.1961    0.8234 H   0  0  0  0  0  0  0  0  0  0  0  0
   -2.8729   -2.7904    2.0303 H   0  0  0  0  0  0  0  0  0  0  0  0
   -0.9743   -1.1990    2.8875 H   0  0  0  0  0  0  0  0  0  0  0  0
    2.3994    1.5672    1.7066 H   0  0  0  0  0  0  0  0  0  0  0  0
    1.8083    2.4596    0.3076 H   0  0  0  0  0  0  0  0  0  0  0  0
    1.3711   -0.3263   -1.4602 H   0  0  0  0  0  0  0  0  0  0  0  0
    1.6247    1.3869   -1.7886 H   0  0  0  0  0  0  0  0  0  0  0  0
    3.5768    1.0426   -2.9877 H   0  0  0  0  0  0  0  0  0  0  0  0
    2.6589   -0.4020   -3.3973 H   0  0  0  0  0  0  0  0  0  0  0  0
    5.0202   -0.9613   -2.8048 H   0  0  0  0  0  0  0  0  0  0  0  0
    3.8813   -1.6986   -1.6870 H   0  0  0  0  0  0  0  0  0  0  0  0
    5.9046    0.4314   -1.1883 H   0  0  0  0  0  0  0  0  0  0  0  0
    5.2677   -0.8021   -0.1100 H   0  0  0  0  0  0  0  0  0  0  0  0
    4.1902    1.9808   -0.7159 H   0  0  0  0  0  0  0  0  0  0  0  0
    4.4953    1.1975    0.8310 H   0  0  0  0  0  0  0  0  0  0  0  0
   -2.7039    1.5722    2.2097 H   0  0  0  0  0  0  0  0  0  0  0  0
   -5.0210    1.2051    1.9395 H   0  0  0  0  0  0  0  0  0  0  0  0
   -4.3576   -0.2910    2.5955 H   0  0  0  0  0  0  0  0  0  0  0  0
   -4.7936   -0.1747    0.8734 H   0  0  0  0  0  0  0  0  0  0  0  0
   -3.6589    2.6028    0.2924 H   0  0  0  0  0  0  0  0  0  0  0  0
   -3.4283    1.1950   -0.7288 H   0  0  0  0  0  0  0  0  0  0  0  0
   -2.0293    2.1245   -0.1625 H   0  0  0  0  0  0  0  0  0  0  0  0
  1  2  1  0
  2  3  1  0
  2  4  1  0
  4  5  1  0
  4  6  1  0
  6  7  3  0
  7  8  1  0
  8  9  1  0
  9 10  1  0
 10 11  1  0
 11 12  1  0
 12 13  1  0
 13 14  1  0
  4 15  1  0
 15 16  1  0
 15 17  1  0
 14  9  1  0
  1 18  1  0
  1 19  1  0
  1 20  1  0
  2 21  1  0
  3 22  1  0
  3 23  1  0
  3 24  1  0
  5 25  1  0
  8 26  1  0
  8 27  1  0
 10 28  1  0
 10 29  1  0
 11 30  1  0
 11 31  1  0
 12 32  1  0
 12 33  1  0
 13 34  1  0
 13 35  1  0
 14 36  1  0
 14 37  1  0
 15 38  1  0
 16 39  1  0
 16 40  1  0
 16 41  1  0
 17 42  1  0
 17 43  1  0
 17 44  1  0
M  END
$$$$
