
     RDKit          3D

 47 48  0  0  0  0  0  0  0  0999 V2000
   -4.4454    2.7624    1.2864 C   0  0  0  0  0  0  0  0  0  0  0  0
   -4.2361    1.5832    2.2268 C   0  0  0  0  0  0  0  0  0  0  0  0
   -3.6246    0.4412    1.5255 N   0  0  0  0  0  0  0  0  0  0  0  0
   -4.0877   -0.8910    1.9621 C   0  0  0  0  0  0  0  0  0  0  0  0
   -3.5066   -1.2836    3.3144 C   0  0  0  0  0  0  0  0  0  0  0  0
   -2.3027    0.5122    1.0723 C   0  0  0  0  0  0  0  0  0  0  0  0
   -1.3472    1.3693    1.6288 C   0  0  0  0  0  0  0  0  0  0  0  0
   -0.0345    1.4116    1.1476 C   0  0  0  0  0  0  0  0  0  0  0  0
    0.3621    0.5927    0.0866 C   0  0  0  0  0  0  0  0  0  0  0  0
    1.7537    0.7039   -0.3758 C   0  0  0  0  0  0  0  0  0  0  0  0
    2.5572   -0.3669   -0.4533 C   0  0  0  0  0  0  0  0  0  0  0  0
    3.9110   -0.2822   -0.9925 C   0  0  0  0  0  0  0  0  0  0  0  0
    4.9386    0.2942   -0.2388 C   0  0  0  0  0  0  0  0  0  0  0  0
    6.2254    0.3594   -0.7568 C   0  0  0  0  0  0  0  0  0  0  0  0
    6.4708   -0.1506   -2.0222 C   0  0  0  0  0  0  0  0  0  0  0  0
    5.4264   -0.7130   -2.7461 C   0  0  0  0  0  0  0  0  0  0  0  0
    4.1745   -0.7736   -2.2341 N   0  0  0  0  0  4  0  0  0  0  0  0
    3.0903   -1.3513   -3.0565 C   0  0  0  0  0  0  0  0  0  0  0  0
   -0.5835   -0.2575   -0.5161 C   0  0  0  0  0  0  0  0  0  0  0  0
   -0.1474   -1.0038   -1.5889 O   0  0  0  0  0  0  0  0  0  0  0  0
   -1.1336   -1.7573   -2.2892 C   0  0  0  0  0  0  0  0  0  0  0  0
   -1.8926   -0.2894   -0.0105 C   0  0  0  0  0  0  0  0  0  0  0  0
   -3.4979    3.1682    0.9201 H   0  0  0  0  0  0  0  0  0  0  0  0
   -4.9754    3.5679    1.8047 H   0  0  0  0  0  0  0  0  0  0  0  0
   -5.0416    2.4666    0.4166 H   0  0  0  0  0  0  0  0  0  0  0  0
   -3.6569    1.8766    3.1090 H   0  0  0  0  0  0  0  0  0  0  0  0
   -5.2256    1.2931    2.6025 H   0  0  0  0  0  0  0  0  0  0  0  0
   -3.8492   -1.6646    1.2238 H   0  0  0  0  0  0  0  0  0  0  0  0
   -5.1826   -0.8855    2.0309 H   0  0  0  0  0  0  0  0  0  0  0  0
   -3.8953   -2.2597    3.6216 H   0  0  0  0  0  0  0  0  0  0  0  0
   -2.4148   -1.3531    3.2760 H   0  0  0  0  0  0  0  0  0  0  0  0
   -3.7706   -0.5562    4.0887 H   0  0  0  0  0  0  0  0  0  0  0  0
   -1.5964    2.0136    2.4666 H   0  0  0  0  0  0  0  0  0  0  0  0
    0.6714    2.0896    1.6225 H   0  0  0  0  0  0  0  0  0  0  0  0
    2.0772    1.7035   -0.6574 H   0  0  0  0  0  0  0  0  0  0  0  0
    2.2105   -1.3557   -0.1617 H   0  0  0  0  0  0  0  0  0  0  0  0
    4.7384    0.6884    0.7563 H   0  0  0  0  0  0  0  0  0  0  0  0
    7.0311    0.8048   -0.1748 H   0  0  0  0  0  0  0  0  0  0  0  0
    7.4724   -0.1081   -2.4455 H   0  0  0  0  0  0  0  0  0  0  0  0
    5.5869   -1.1150   -3.7427 H   0  0  0  0  0  0  0  0  0  0  0  0
    3.4932   -1.7014   -4.0104 H   0  0  0  0  0  0  0  0  0  0  0  0
    2.3490   -0.5703   -3.2437 H   0  0  0  0  0  0  0  0  0  0  0  0
    2.6621   -2.1996   -2.5166 H   0  0  0  0  0  0  0  0  0  0  0  0
   -1.5488   -2.5471   -1.6549 H   0  0  0  0  0  0  0  0  0  0  0  0
   -1.9195   -1.1085   -2.6898 H   0  0  0  0  0  0  0  0  0  0  0  0
   -0.6391   -2.2406   -3.1375 H   0  0  0  0  0  0  0  0  0  0  0  0
   -2.6466   -0.9168   -0.4740 H   0  0  0  0  0  0  0  0  0  0  0  0
  1  2  1  0
  2  3  1  0
  3  4  1  0
  4  5  1  0
  3  6  1  0
  6  7  2  0
  7  8  1  0
  8  9  2  0
  9 10  1  0
 10 11  2  3
 11 12  1  0
 12 13  2  0
 13 14  1  0
 14 15  2  0
 15 16  1  0
 16 17  2  0
 17 18  1  0
  9 19  1  0
 19 20  1  0
 20 21  1  0
 19 22  2  0
 22  6  1  0
 17 12  1  0
  1 23  1  0
  1 24  1  0
  1 25  1  0
  2 26  1  0
  2 27  1  0
  4 28  1  0
  4 29  1  0
  5 30  1  0
  5 31  1  0
  5 32  1  0
  7 33  1  0
  8 34  1  0
 10 35  1  0
 11 36  1  0
 13 37  1  0
 14 38  1  0
 15 39  1  0
 16 40  1  0
 18 41  1  0
 18 42  1  0
 18 43  1  0
 21 44  1  0
 21 45  1  0
 21 46  1  0
 22 47  1  0
M  CHG  1  17   1
M  END
$$$$
