
     RDKit          3D

 33 34  0  0  0  0  0  0  0  0999 V2000
   -1.8732    3.9137    1.5988 C   0  0  0  0  0  0  0  0  0  0  0  0
   -1.1134    2.7220    1.3988 O   0  0  0  0  0  0  0  0  0  0  0  0
   -0.3242    2.7659    0.3002 C   0  0  0  0  0  0  0  0  0  0  0  0
   -0.1094    3.7092   -0.4391 O   0  0  0  0  0  0  0  0  0  0  0  0
    0.3757    1.4831    0.2000 C   0  0  0  0  0  0  0  0  0  0  0  0
    1.7258    1.4922    0.5451 C   0  0  0  0  0  0  0  0  0  0  0  0
    2.3998    0.2958    0.4917 C   0  0  0  0  0  0  0  0  0  0  0  0
    3.7303    0.3220    0.8486 O   0  0  0  0  0  0  0  0  0  0  0  0
    4.3657   -0.9493    0.7562 C   0  0  0  0  0  0  0  0  0  0  0  0
    1.8195   -0.8642    0.1260 N   0  0  0  0  0  0  0  0  0  0  0  0
    0.5071   -0.8517   -0.2261 C   0  0  0  0  0  0  0  0  0  0  0  0
   -0.2511    0.3042   -0.2135 C   0  0  0  0  0  0  0  0  0  0  0  0
   -1.6503    0.2331   -0.6557 C   0  0  0  0  0  0  0  0  0  0  0  0
   -2.3405    1.2469   -0.6785 O   0  0  0  0  0  0  0  0  0  0  0  0
   -2.1254   -1.0128   -1.0418 N   0  0  0  0  0  0  0  0  0  0  0  0
   -3.5143   -1.1033   -1.4607 C   0  0  0  0  0  0  0  0  0  0  0  0
   -1.3992   -2.1937   -0.9760 C   0  0  0  0  0  0  0  0  0  0  0  0
   -1.9107   -3.2835   -1.2394 O   0  0  0  0  0  0  0  0  0  0  0  0
   -0.0764   -2.0793   -0.5986 N   0  0  0  0  0  0  0  0  0  0  0  0
    0.7658   -3.2663   -0.5449 C   0  0  0  0  0  0  0  0  0  0  0  0
   -2.4592    4.1576    0.7070 H   0  0  0  0  0  0  0  0  0  0  0  0
   -1.2109    4.7430    1.8649 H   0  0  0  0  0  0  0  0  0  0  0  0
   -2.5640    3.7400    2.4282 H   0  0  0  0  0  0  0  0  0  0  0  0
    2.2301    2.4026    0.8514 H   0  0  0  0  0  0  0  0  0  0  0  0
    5.4112   -0.8217    1.0527 H   0  0  0  0  0  0  0  0  0  0  0  0
    4.3544   -1.3241   -0.2732 H   0  0  0  0  0  0  0  0  0  0  0  0
    3.9097   -1.6711    1.4425 H   0  0  0  0  0  0  0  0  0  0  0  0
   -3.8587   -0.1637   -1.9023 H   0  0  0  0  0  0  0  0  0  0  0  0
   -4.1226   -1.3236   -0.5779 H   0  0  0  0  0  0  0  0  0  0  0  0
   -3.6524   -1.9032   -2.1941 H   0  0  0  0  0  0  0  0  0  0  0  0
    0.2309   -4.1615   -0.8740 H   0  0  0  0  0  0  0  0  0  0  0  0
    1.6312   -3.1305   -1.2019 H   0  0  0  0  0  0  0  0  0  0  0  0
    1.0983   -3.4280    0.4858 H   0  0  0  0  0  0  0  0  0  0  0  0
  1  2  1  0
  2  3  1  0
  3  4  2  0
  3  5  1  0
  5  6  2  0
  6  7  1  0
  7  8  1  0
  8  9  1  0
  7 10  2  0
 10 11  1  0
 11 12  2  0
 12 13  1  0
 13 14  2  0
 13 15  1  0
 15 16  1  0
 15 17  1  0
 17 18  2  0
 17 19  1  0
 19 20  1  0
 12  5  1  0
 19 11  1  0
  1 21  1  0
  1 22  1  0
  1 23  1  0
  6 24  1  0
  9 25  1  0
  9 26  1  0
  9 27  1  0
 16 28  1  0
 16 29  1  0
 16 30  1  0
 20 31  1  0
 20 32  1  0
 20 33  1  0
M  END
$$$$
