
     RDKit          3D

 37 39  0  0  0  0  0  0  0  0999 V2000
    4.0276   -0.2900   -1.0422 N   0  0  0  0  0  0  0  0  0  0  0  0
    2.8536   -0.7495   -0.3024 C   0  0  0  0  0  0  0  0  0  0  0  0
    2.2080    0.3966    0.4726 C   0  0  0  0  0  0  0  0  0  0  0  0
    1.0056   -0.0314    1.3318 C   0  0  0  0  0  0  0  0  0  0  0  0
   -0.1917   -0.3757    0.5248 N   0  0  0  0  0  0  0  0  0  0  0  0
   -0.4768   -1.7604    0.3076 C   0  0  0  0  0  0  0  0  0  0  0  0
    0.3545   -2.8018    0.7851 C   0  0  0  0  0  0  0  0  0  0  0  0
    0.0792   -4.1607    0.5739 C   0  0  0  0  0  0  0  0  0  0  0  0
   -1.0482   -4.5377   -0.1299 C   0  0  0  0  0  0  0  0  0  0  0  0
   -1.8906   -3.5504   -0.6204 C   0  0  0  0  0  0  0  0  0  0  0  0
   -1.6161   -2.1813   -0.4108 C   0  0  0  0  0  0  0  0  0  0  0  0
   -2.8085   -1.0784   -1.1224 S   0  0  0  0  0  0  0  0  0  0  0  0
   -2.1761    0.5149   -0.6761 C   0  0  0  0  0  0  0  0  0  0  0  0
   -2.9554    1.6019   -1.1249 C   0  0  0  0  0  0  0  0  0  0  0  0
   -2.5918    2.9150   -0.8523 C   0  0  0  0  0  0  0  0  0  0  0  0
   -1.4388    3.1643   -0.1170 C   0  0  0  0  0  0  0  0  0  0  0  0
   -0.9964    4.5758    0.1803 C   0  0  0  0  0  0  0  0  0  0  0  0
   -2.0014    5.4902    0.0912 F   0  0  0  0  0  0  0  0  0  0  0  0
   -0.0237    5.0013   -0.6717 F   0  0  0  0  0  0  0  0  0  0  0  0
   -0.4790    4.7125    1.4335 F   0  0  0  0  0  0  0  0  0  0  0  0
   -0.6610    2.0712    0.3213 C   0  0  0  0  0  0  0  0  0  0  0  0
   -0.9957    0.7178    0.0654 C   0  0  0  0  0  0  0  0  0  0  0  0
    3.7439    0.4047   -1.7331 H   0  0  0  0  0  0  0  0  0  0  0  0
    4.6771    0.1820   -0.4151 H   0  0  0  0  0  0  0  0  0  0  0  0
    2.1469   -1.1854   -1.0148 H   0  0  0  0  0  0  0  0  0  0  0  0
    3.1703   -1.5404    0.3846 H   0  0  0  0  0  0  0  0  0  0  0  0
    1.9231    1.1867   -0.2311 H   0  0  0  0  0  0  0  0  0  0  0  0
    2.9566    0.8356    1.1452 H   0  0  0  0  0  0  0  0  0  0  0  0
    1.3078   -0.8200    2.0259 H   0  0  0  0  0  0  0  0  0  0  0  0
    0.7602    0.7712    2.0390 H   0  0  0  0  0  0  0  0  0  0  0  0
    1.2670   -2.6121    1.3364 H   0  0  0  0  0  0  0  0  0  0  0  0
    0.7571   -4.9170    0.9622 H   0  0  0  0  0  0  0  0  0  0  0  0
   -1.2708   -5.5869   -0.3006 H   0  0  0  0  0  0  0  0  0  0  0  0
   -2.7758   -3.8532   -1.1773 H   0  0  0  0  0  0  0  0  0  0  0  0
   -3.8636    1.4230   -1.6994 H   0  0  0  0  0  0  0  0  0  0  0  0
   -3.2122    3.7322   -1.2155 H   0  0  0  0  0  0  0  0  0  0  0  0
    0.2351    2.3353    0.8761 H   0  0  0  0  0  0  0  0  0  0  0  0
  1  2  1  0
  2  3  1  0
  3  4  1  0
  4  5  1  0
  5  6  1  0
  6  7  2  0
  7  8  1  0
  8  9  2  0
  9 10  1  0
 10 11  2  0
 11 12  1  0
 12 13  1  0
 13 14  2  0
 14 15  1  0
 15 16  2  0
 16 17  1  0
 17 18  1  0
 17 19  1  0
 17 20  1  0
 16 21  1  0
 21 22  2  0
 22  5  1  0
 11  6  1  0
 22 13  1  0
  1 23  1  0
  1 24  1  0
  2 25  1  0
  2 26  1  0
  3 27  1  0
  3 28  1  0
  4 29  1  0
  4 30  1  0
  7 31  1  0
  8 32  1  0
  9 33  1  0
 10 34  1  0
 14 35  1  0
 15 36  1  0
 21 37  1  0
M  END
$$$$
