
     RDKit          3D

 44 47  0  0  0  0  0  0  0  0999 V2000
   -5.4480    1.5187    0.4376 C   0  0  0  0  0  0  0  0  0  0  0  0
   -4.2032    1.4666   -0.4489 C   0  0  0  0  0  0  0  0  0  0  0  0
   -2.9510    1.2936    0.3948 C   0  0  0  0  0  0  0  0  0  0  0  0
   -1.7240    1.0209   -0.4464 C   0  0  0  0  0  0  0  0  0  0  0  0
   -0.9818    1.9447   -0.7890 O   0  0  0  0  0  0  0  0  0  0  0  0
   -1.4422   -0.3090   -0.7450 N   0  0  0  0  0  0  0  0  0  0  0  0
   -0.1284   -0.5739   -1.3300 C   0  0  0  0  0  0  0  0  0  0  0  0
    0.9828   -0.5149   -0.2672 C   0  0  0  0  0  0  0  0  0  0  0  0
    0.8859   -1.1267    0.7943 O   0  0  0  0  0  0  0  0  0  0  0  0
    2.0667    0.2578   -0.6618 N   0  0  0  0  0  0  0  0  0  0  0  0
    3.2897    0.4372    0.0197 C   0  0  0  0  0  0  0  0  0  0  0  0
    3.6398   -0.2556    1.1968 C   0  0  0  0  0  0  0  0  0  0  0  0
    4.8863   -0.0581    1.8071 C   0  0  0  0  0  0  0  0  0  0  0  0
    5.7540    0.8381    1.2243 C   0  0  0  0  0  0  0  0  0  0  0  0
    5.4177    1.5260    0.0836 C   0  0  0  0  0  0  0  0  0  0  0  0
    4.2002    1.3473   -0.5421 C   0  0  0  0  0  0  0  0  0  0  0  0
    6.4075    2.3632   -0.3283 O   0  0  0  0  0  0  0  0  0  0  0  0
    7.4068    2.1237    0.6862 C   0  0  0  0  0  0  0  0  0  0  0  0
    7.0048    1.1432    1.6651 O   0  0  0  0  0  0  0  0  0  0  0  0
   -2.3715   -1.3870   -0.5937 C   0  0  0  0  0  0  0  0  0  0  0  0
   -1.9090   -2.6317   -0.1285 C   0  0  0  0  0  0  0  0  0  0  0  0
   -2.7824   -3.7079    0.0569 C   0  0  0  0  0  0  0  0  0  0  0  0
   -4.1314   -3.5701   -0.2450 C   0  0  0  0  0  0  0  0  0  0  0  0
   -4.6047   -2.3559   -0.7425 C   0  0  0  0  0  0  0  0  0  0  0  0
   -3.7418   -1.2590   -0.9142 C   0  0  0  0  0  0  0  0  0  0  0  0
   -4.4466    0.1780   -1.7265 S   0  0  0  0  0  0  0  0  0  0  0  0
   -5.6011    0.5741    0.9761 H   0  0  0  0  0  0  0  0  0  0  0  0
   -6.3501    1.7298   -0.1475 H   0  0  0  0  0  0  0  0  0  0  0  0
   -5.3546    2.3149    1.1864 H   0  0  0  0  0  0  0  0  0  0  0  0
   -4.1306    2.4149   -0.9958 H   0  0  0  0  0  0  0  0  0  0  0  0
   -2.7631    2.2113    0.9665 H   0  0  0  0  0  0  0  0  0  0  0  0
   -3.0621    0.5099    1.1541 H   0  0  0  0  0  0  0  0  0  0  0  0
    0.0555    0.1674   -2.1177 H   0  0  0  0  0  0  0  0  0  0  0  0
   -0.0967   -1.5577   -1.8137 H   0  0  0  0  0  0  0  0  0  0  0  0
    1.9324    0.8437   -1.4789 H   0  0  0  0  0  0  0  0  0  0  0  0
    2.9589   -0.9618    1.6659 H   0  0  0  0  0  0  0  0  0  0  0  0
    5.1543   -0.5914    2.7142 H   0  0  0  0  0  0  0  0  0  0  0  0
    3.9794    1.8974   -1.4523 H   0  0  0  0  0  0  0  0  0  0  0  0
    8.3274    1.7794    0.1964 H   0  0  0  0  0  0  0  0  0  0  0  0
    7.6162    3.0690    1.2027 H   0  0  0  0  0  0  0  0  0  0  0  0
   -0.8671   -2.7744    0.1499 H   0  0  0  0  0  0  0  0  0  0  0  0
   -2.4048   -4.6526    0.4449 H   0  0  0  0  0  0  0  0  0  0  0  0
   -4.8122   -4.4074   -0.1063 H   0  0  0  0  0  0  0  0  0  0  0  0
   -5.6576   -2.2760   -1.0074 H   0  0  0  0  0  0  0  0  0  0  0  0
  1  2  1  0
  2  3  1  0
  3  4  1  0
  4  5  2  0
  4  6  1  0
  6  7  1  0
  7  8  1  0
  8  9  2  0
  8 10  1  0
 10 11  1  0
 11 12  2  0
 12 13  1  0
 13 14  2  0
 14 15  1  0
 15 16  2  0
 15 17  1  0
 17 18  1  0
 18 19  1  0
  6 20  1  0
 20 21  2  0
 21 22  1  0
 22 23  2  0
 23 24  1  0
 24 25  2  0
 25 26  1  0
 26  2  1  0
 16 11  1  0
 25 20  1  0
 19 14  1  0
  1 27  1  0
  1 28  1  0
  1 29  1  0
  2 30  1  0
  3 31  1  0
  3 32  1  0
  7 33  1  0
  7 34  1  0
 10 35  1  0
 12 36  1  0
 13 37  1  0
 16 38  1  0
 18 39  1  0
 18 40  1  0
 21 41  1  0
 22 42  1  0
 23 43  1  0
 24 44  1  0
M  END
$$$$
