
     RDKit          3D

 44 46  0  0  0  0  0  0  0  0999 V2000
   -2.1271   -1.8481   -3.1025 C   0  0  0  0  0  0  0  0  0  0  0  0
   -2.8178   -1.0703   -2.0159 C   0  0  0  0  0  0  0  0  0  0  0  0
   -4.2171   -1.0248   -1.9741 C   0  0  0  0  0  0  0  0  0  0  0  0
   -4.8750   -0.3073   -0.9749 C   0  0  0  0  0  0  0  0  0  0  0  0
   -4.1488    0.3810    0.0045 C   0  0  0  0  0  0  0  0  0  0  0  0
   -4.8442    1.1724    1.0995 C   0  0  0  0  0  0  0  0  0  0  0  0
   -5.7112    0.2715    1.9827 C   0  0  0  0  0  0  0  0  0  0  0  0
   -5.6677    2.3264    0.5220 C   0  0  0  0  0  0  0  0  0  0  0  0
   -2.7441    0.3330   -0.0398 C   0  0  0  0  0  0  0  0  0  0  0  0
   -2.0757   -0.3864   -1.0384 C   0  0  0  0  0  0  0  0  0  0  0  0
   -0.7145   -0.4857   -1.1577 O   0  0  0  0  0  0  0  0  0  0  0  0
    0.0854    0.1366   -0.1672 C   0  0  0  0  0  0  0  0  0  0  0  0
    1.5806   -0.1045   -0.4211 C   0  0  0  0  0  0  0  0  0  0  0  0
    1.9913   -0.7522   -1.3777 O   0  0  0  0  0  0  0  0  0  0  0  0
    2.3573    0.4955    0.5527 N   0  0  0  0  0  0  0  0  0  0  0  0
    3.7270    0.4806    0.6413 C   0  0  0  0  0  0  0  0  0  0  0  0
    4.3620    1.0935    1.6174 N   0  0  0  0  0  0  0  0  0  0  0  0
    5.7330    0.9518    1.5151 N   0  0  0  0  0  0  0  0  0  0  0  0
    6.0627    0.2296    0.4678 C   0  0  0  0  0  0  0  0  0  0  0  0
    7.5463   -0.0841    0.1049 C   0  0  0  0  0  0  0  0  0  0  0  0
    8.5227   -0.4035    1.2087 C   0  0  0  0  0  0  0  0  0  0  0  0
    8.0670   -1.4885    0.2775 C   0  0  0  0  0  0  0  0  0  0  0  0
    4.7438   -0.3121   -0.4720 S   0  0  0  0  0  0  0  0  0  0  0  0
   -2.8477   -2.3204   -3.7785 H   0  0  0  0  0  0  0  0  0  0  0  0
   -1.4963   -1.1838   -3.7019 H   0  0  0  0  0  0  0  0  0  0  0  0
   -1.5109   -2.6418   -2.6676 H   0  0  0  0  0  0  0  0  0  0  0  0
   -4.8061   -1.5492   -2.7230 H   0  0  0  0  0  0  0  0  0  0  0  0
   -5.9625   -0.2916   -0.9718 H   0  0  0  0  0  0  0  0  0  0  0  0
   -4.0791    1.6176    1.7492 H   0  0  0  0  0  0  0  0  0  0  0  0
   -5.1200   -0.5492    2.4044 H   0  0  0  0  0  0  0  0  0  0  0  0
   -6.5447   -0.1697    1.4255 H   0  0  0  0  0  0  0  0  0  0  0  0
   -6.1344    0.8428    2.8162 H   0  0  0  0  0  0  0  0  0  0  0  0
   -6.0939    2.9354    1.3264 H   0  0  0  0  0  0  0  0  0  0  0  0
   -5.0444    2.9795   -0.0986 H   0  0  0  0  0  0  0  0  0  0  0  0
   -6.4966    1.9685   -0.0983 H   0  0  0  0  0  0  0  0  0  0  0  0
   -2.1921    0.8732    0.7219 H   0  0  0  0  0  0  0  0  0  0  0  0
   -0.0766    1.2213   -0.1811 H   0  0  0  0  0  0  0  0  0  0  0  0
   -0.1479   -0.2785    0.8211 H   0  0  0  0  0  0  0  0  0  0  0  0
    1.9200    1.0137    1.3022 H   0  0  0  0  0  0  0  0  0  0  0  0
    7.9246    0.4916   -0.7330 H   0  0  0  0  0  0  0  0  0  0  0  0
    8.1601   -0.4224    2.2307 H   0  0  0  0  0  0  0  0  0  0  0  0
    9.5366   -0.0340    1.1075 H   0  0  0  0  0  0  0  0  0  0  0  0
    7.4035   -2.2481    0.6754 H   0  0  0  0  0  0  0  0  0  0  0  0
    8.7728   -1.8592   -0.4566 H   0  0  0  0  0  0  0  0  0  0  0  0
  1  2  1  0
  2  3  2  0
  3  4  1  0
  4  5  2  0
  5  6  1  0
  6  7  1  0
  6  8  1  0
  5  9  1  0
  9 10  2  0
 10 11  1  0
 11 12  1  0
 12 13  1  0
 13 14  2  0
 13 15  1  0
 15 16  1  0
 16 17  2  0
 17 18  1  0
 18 19  2  0
 19 20  1  0
 20 21  1  0
 21 22  1  0
 19 23  1  0
 10  2  1  0
 23 16  1  0
 22 20  1  0
  1 24  1  0
  1 25  1  0
  1 26  1  0
  3 27  1  0
  4 28  1  0
  6 29  1  0
  7 30  1  0
  7 31  1  0
  7 32  1  0
  8 33  1  0
  8 34  1  0
  8 35  1  0
  9 36  1  0
 12 37  1  0
 12 38  1  0
 15 39  1  0
 20 40  1  0
 21 41  1  0
 21 42  1  0
 22 43  1  0
 22 44  1  0
M  END
$$$$
