
     RDKit          3D

 37 39  0  0  0  0  0  0  0  0999 V2000
   -0.3753   -1.5403    1.8935 C   0  0  0  0  0  0  0  0  0  0  0  0
   -0.8348   -0.6067    0.8858 N   0  0  0  0  0  0  0  0  0  0  0  0
   -0.1002    0.0464   -0.1131 C   0  0  0  0  0  0  0  0  0  0  0  0
    1.2289    0.1685   -0.3083 C   0  0  0  0  0  0  0  0  0  0  0  0
    2.3048   -0.2905    0.5464 C   0  0  0  0  0  0  0  0  0  0  0  0
    3.6120   -0.2897    0.2517 C   0  0  0  0  0  0  0  0  0  0  0  0
    4.3856    0.2112   -1.2085 S   0  0  0  0  0  0  0  0  0  0  0  0
    5.9777   -0.1743   -0.5965 C   0  0  0  0  0  0  0  0  0  0  0  0
    7.4130    0.0098   -1.4002 S   0  0  0  0  0  0  0  0  0  0  0  0
    5.8786   -0.6622    0.6699 N   0  0  0  0  0  0  0  0  0  0  0  0
    4.6335   -0.7698    1.2228 C   0  0  0  0  0  0  0  0  0  0  0  0
    4.4052   -1.1993    2.3418 O   0  0  0  0  0  0  0  0  0  0  0  0
   -1.1162    0.7351   -1.0898 C   0  0  0  0  0  0  0  0  0  0  0  0
   -0.8935    2.2524   -1.1855 C   0  0  0  0  0  0  0  0  0  0  0  0
   -1.0850    0.0854   -2.4805 C   0  0  0  0  0  0  0  0  0  0  0  0
   -2.4399    0.4426   -0.4024 C   0  0  0  0  0  0  0  0  0  0  0  0
   -3.7214    0.8367   -0.7689 C   0  0  0  0  0  0  0  0  0  0  0  0
   -4.7891    0.4452    0.0366 C   0  0  0  0  0  0  0  0  0  0  0  0
   -4.5640   -0.3238    1.1859 C   0  0  0  0  0  0  0  0  0  0  0  0
   -3.2682   -0.7168    1.5426 C   0  0  0  0  0  0  0  0  0  0  0  0
   -2.2023   -0.3386    0.7414 C   0  0  0  0  0  0  0  0  0  0  0  0
   -1.1522   -2.2425    2.2130 H   0  0  0  0  0  0  0  0  0  0  0  0
   -0.0182   -1.0021    2.7773 H   0  0  0  0  0  0  0  0  0  0  0  0
    0.4329   -2.1692    1.5063 H   0  0  0  0  0  0  0  0  0  0  0  0
    1.5488    0.7127   -1.1956 H   0  0  0  0  0  0  0  0  0  0  0  0
    2.0225   -0.6332    1.5371 H   0  0  0  0  0  0  0  0  0  0  0  0
    6.6915   -0.9466    1.1948 H   0  0  0  0  0  0  0  0  0  0  0  0
   -0.8988    2.7230   -0.1948 H   0  0  0  0  0  0  0  0  0  0  0  0
    0.0634    2.4915   -1.6622 H   0  0  0  0  0  0  0  0  0  0  0  0
   -1.6785    2.7351   -1.7794 H   0  0  0  0  0  0  0  0  0  0  0  0
   -1.8674    0.4952   -3.1299 H   0  0  0  0  0  0  0  0  0  0  0  0
   -1.2439   -0.9984   -2.4236 H   0  0  0  0  0  0  0  0  0  0  0  0
   -0.1243    0.2539   -2.9798 H   0  0  0  0  0  0  0  0  0  0  0  0
   -3.8932    1.4351   -1.6573 H   0  0  0  0  0  0  0  0  0  0  0  0
   -5.8022    0.7407   -0.2248 H   0  0  0  0  0  0  0  0  0  0  0  0
   -5.4051   -0.6166    1.8097 H   0  0  0  0  0  0  0  0  0  0  0  0
   -3.1249   -1.3001    2.4444 H   0  0  0  0  0  0  0  0  0  0  0  0
  1  2  1  0
  2  3  1  0
  3  4  2  3
  4  5  1  0
  5  6  2  3
  6  7  1  0
  7  8  1  0
  8  9  2  0
  8 10  1  0
 10 11  1  0
 11 12  2  0
  3 13  1  0
 13 14  1  0
 13 15  1  0
 13 16  1  0
 16 17  2  0
 17 18  1  0
 18 19  2  0
 19 20  1  0
 20 21  2  0
 21  2  1  0
 11  6  1  0
 21 16  1  0
  1 22  1  0
  1 23  1  0
  1 24  1  0
  4 25  1  0
  5 26  1  0
 10 27  1  0
 14 28  1  0
 14 29  1  0
 14 30  1  0
 15 31  1  0
 15 32  1  0
 15 33  1  0
 17 34  1  0
 18 35  1  0
 19 36  1  0
 20 37  1  0
M  END
$$$$
