
     RDKit          3D

 44 46  0  0  0  0  0  0  0  0999 V2000
    5.7507    1.0357   -1.9027 C   0  0  0  0  0  0  0  0  0  0  0  0
    4.5510    0.4227   -1.2326 C   0  0  0  0  0  0  0  0  0  0  0  0
    4.6042   -0.9205   -0.8350 C   0  0  0  0  0  0  0  0  0  0  0  0
    3.5088   -1.5268   -0.2178 C   0  0  0  0  0  0  0  0  0  0  0  0
    2.3355   -0.8029    0.0145 C   0  0  0  0  0  0  0  0  0  0  0  0
    1.1921   -1.5000    0.6838 C   0  0  0  0  0  0  0  0  0  0  0  0
    1.3159   -2.6847    0.9929 O   0  0  0  0  0  0  0  0  0  0  0  0
   -0.0821   -0.7002    0.9512 C   0  0  0  0  0  0  0  0  0  0  0  0
   -1.0776   -1.4598    1.6394 O   0  0  0  0  0  0  0  0  0  0  0  0
   -2.0718   -1.8688    0.7849 C   0  0  0  0  0  0  0  0  0  0  0  0
   -2.0134   -3.1935    0.3423 C   0  0  0  0  0  0  0  0  0  0  0  0
   -2.9923   -3.6815   -0.5193 C   0  0  0  0  0  0  0  0  0  0  0  0
   -4.0351   -2.8518   -0.9219 C   0  0  0  0  0  0  0  0  0  0  0  0
   -4.1038   -1.5335   -0.4579 C   0  0  0  0  0  0  0  0  0  0  0  0
   -3.1273   -1.0118    0.4101 C   0  0  0  0  0  0  0  0  0  0  0  0
   -3.2348    0.3794    0.8906 C   0  0  0  0  0  0  0  0  0  0  0  0
   -3.2357    0.6758    2.2636 C   0  0  0  0  0  0  0  0  0  0  0  0
   -3.3283    1.9942    2.7172 C   0  0  0  0  0  0  0  0  0  0  0  0
   -3.4244    3.0407    1.8037 C   0  0  0  0  0  0  0  0  0  0  0  0
   -3.4296    2.7697    0.4376 C   0  0  0  0  0  0  0  0  0  0  0  0
   -3.3372    1.4504   -0.0140 C   0  0  0  0  0  0  0  0  0  0  0  0
    2.2733    0.5387   -0.3860 C   0  0  0  0  0  0  0  0  0  0  0  0
    3.3680    1.1574   -1.0190 C   0  0  0  0  0  0  0  0  0  0  0  0
    3.2581    2.6013   -1.4297 C   0  0  0  0  0  0  0  0  0  0  0  0
    5.5366    1.2234   -2.9604 H   0  0  0  0  0  0  0  0  0  0  0  0
    6.6219    0.3743   -1.8475 H   0  0  0  0  0  0  0  0  0  0  0  0
    6.0273    1.9747   -1.4134 H   0  0  0  0  0  0  0  0  0  0  0  0
    5.5047   -1.5104   -1.0007 H   0  0  0  0  0  0  0  0  0  0  0  0
    3.5806   -2.5705    0.0823 H   0  0  0  0  0  0  0  0  0  0  0  0
   -0.4498   -0.2952   -0.0006 H   0  0  0  0  0  0  0  0  0  0  0  0
    0.1760    0.1352    1.6127 H   0  0  0  0  0  0  0  0  0  0  0  0
   -1.1976   -3.8366    0.6655 H   0  0  0  0  0  0  0  0  0  0  0  0
   -2.9414   -4.7082   -0.8718 H   0  0  0  0  0  0  0  0  0  0  0  0
   -4.8056   -3.2323   -1.5884 H   0  0  0  0  0  0  0  0  0  0  0  0
   -4.9443   -0.9141   -0.7665 H   0  0  0  0  0  0  0  0  0  0  0  0
   -3.1619   -0.1301    2.9930 H   0  0  0  0  0  0  0  0  0  0  0  0
   -3.3267    2.1996    3.7843 H   0  0  0  0  0  0  0  0  0  0  0  0
   -3.4968    4.0671    2.1559 H   0  0  0  0  0  0  0  0  0  0  0  0
   -3.5063    3.5840   -0.2780 H   0  0  0  0  0  0  0  0  0  0  0  0
   -3.3355    1.2615   -1.0858 H   0  0  0  0  0  0  0  0  0  0  0  0
    1.3768    1.1300   -0.2185 H   0  0  0  0  0  0  0  0  0  0  0  0
    3.9011    3.2222   -0.7982 H   0  0  0  0  0  0  0  0  0  0  0  0
    3.5446    2.7255   -2.4786 H   0  0  0  0  0  0  0  0  0  0  0  0
    2.2318    2.9696   -1.3304 H   0  0  0  0  0  0  0  0  0  0  0  0
  1  2  1  0
  2  3  2  0
  3  4  1  0
  4  5  2  0
  5  6  1  0
  6  7  2  0
  6  8  1  0
  8  9  1  0
  9 10  1  0
 10 11  2  0
 11 12  1  0
 12 13  2  0
 13 14  1  0
 14 15  2  0
 15 16  1  0
 16 17  2  0
 17 18  1  0
 18 19  2  0
 19 20  1  0
 20 21  2  0
  5 22  1  0
 22 23  2  0
 23 24  1  0
 23  2  1  0
 15 10  1  0
 21 16  1  0
  1 25  1  0
  1 26  1  0
  1 27  1  0
  3 28  1  0
  4 29  1  0
  8 30  1  0
  8 31  1  0
 11 32  1  0
 12 33  1  0
 13 34  1  0
 14 35  1  0
 17 36  1  0
 18 37  1  0
 19 38  1  0
 20 39  1  0
 21 40  1  0
 22 41  1  0
 24 42  1  0
 24 43  1  0
 24 44  1  0
M  END
$$$$
