
     RDKit          3D

 36 39  0  0  0  0  0  0  0  0999 V2000
   -7.1286    0.4489    1.2061 C   0  0  0  0  0  0  0  0  0  0  0  0
   -6.0120   -0.0943    0.3647 C   0  0  0  0  0  0  0  0  0  0  0  0
   -5.8339   -1.2836    0.1407 O   0  0  0  0  0  0  0  0  0  0  0  0
   -5.2445    0.9697   -0.0981 O   0  0  0  0  0  0  0  0  0  0  0  0
   -4.1543    0.6164   -0.9022 C   0  0  0  0  0  0  0  0  0  0  0  0
   -4.1319    1.1043   -2.2067 C   0  0  0  0  0  0  0  0  0  0  0  0
   -3.0426    0.8126   -3.0252 C   0  0  0  0  0  0  0  0  0  0  0  0
   -1.9800    0.0512   -2.5303 C   0  0  0  0  0  0  0  0  0  0  0  0
   -1.9950   -0.4141   -1.2081 C   0  0  0  0  0  0  0  0  0  0  0  0
   -0.8890   -1.2157   -0.6772 C   0  0  0  0  0  0  0  0  0  0  0  0
    0.3417   -0.7612   -0.4023 C   0  0  0  0  0  0  0  0  0  0  0  0
    0.9313    0.8804   -0.5930 S   0  0  0  0  0  0  0  0  0  0  0  0
    2.4604    0.3927    0.0101 C   0  0  0  0  0  0  0  0  0  0  0  0
    3.5987    0.9800    0.2362 N   0  0  0  0  0  0  0  0  0  0  0  0
    4.3602   -0.0710    0.7259 C   0  0  0  0  0  0  0  0  0  0  0  0
    5.8517    0.1130    1.1598 C   0  0  0  0  0  0  0  0  0  0  0  0
    6.6779   -0.8779    1.6560 C   0  0  0  0  0  0  0  0  0  0  0  0
    7.9315   -0.2725    1.9152 C   0  0  0  0  0  0  0  0  0  0  0  0
    7.7954    1.0488    1.5623 C   0  0  0  0  0  0  0  0  0  0  0  0
    6.5412    1.2928    1.1041 O   0  0  0  0  0  0  0  0  0  0  0  0
    3.7219   -1.2589    0.7995 N   0  0  0  0  0  0  0  0  0  0  0  0
    2.5099   -0.9146    0.3313 N   0  0  0  0  0  0  0  0  0  0  0  0
    1.3813   -1.6839    0.1488 C   0  0  0  0  0  0  0  0  0  0  0  0
    1.3128   -2.8719    0.4054 O   0  0  0  0  0  0  0  0  0  0  0  0
   -3.0900   -0.1256   -0.3881 C   0  0  0  0  0  0  0  0  0  0  0  0
   -6.7180    0.9893    2.0627 H   0  0  0  0  0  0  0  0  0  0  0  0
   -7.7617    1.1046    0.6033 H   0  0  0  0  0  0  0  0  0  0  0  0
   -7.7384   -0.3799    1.5770 H   0  0  0  0  0  0  0  0  0  0  0  0
   -4.9558    1.7015   -2.5859 H   0  0  0  0  0  0  0  0  0  0  0  0
   -3.0189    1.1770   -4.0492 H   0  0  0  0  0  0  0  0  0  0  0  0
   -1.1424   -0.1738   -3.1871 H   0  0  0  0  0  0  0  0  0  0  0  0
   -1.1400   -2.2596   -0.4889 H   0  0  0  0  0  0  0  0  0  0  0  0
    6.3992   -1.9118    1.8089 H   0  0  0  0  0  0  0  0  0  0  0  0
    8.8224   -0.7405    2.3096 H   0  0  0  0  0  0  0  0  0  0  0  0
    8.4606    1.9011    1.5756 H   0  0  0  0  0  0  0  0  0  0  0  0
   -3.1214   -0.4793    0.6386 H   0  0  0  0  0  0  0  0  0  0  0  0
  1  2  1  0
  2  3  2  0
  2  4  1  0
  4  5  1  0
  5  6  2  0
  6  7  1  0
  7  8  2  0
  8  9  1  0
  9 10  1  0
 10 11  2  3
 11 12  1  0
 12 13  1  0
 13 14  2  0
 14 15  1  0
 15 16  1  0
 16 17  2  0
 17 18  1  0
 18 19  2  0
 19 20  1  0
 15 21  2  0
 21 22  1  0
 22 23  1  0
 23 24  2  0
  9 25  2  0
 25  5  1  0
 23 11  1  0
 22 13  1  0
 20 16  1  0
  1 26  1  0
  1 27  1  0
  1 28  1  0
  6 29  1  0
  7 30  1  0
  8 31  1  0
 10 32  1  0
 17 33  1  0
 18 34  1  0
 19 35  1  0
 25 36  1  0
M  END
$$$$
