
     RDKit          3D

 33 34  0  0  0  0  0  0  0  0999 V2000
   -5.0791    1.9815   -1.1942 N   0  0  0  0  0  0  0  0  0  0  0  0
   -4.1010    1.2701   -0.4921 C   0  0  0  0  0  0  0  0  0  0  0  0
   -3.0989    0.5837   -1.1826 C   0  0  0  0  0  0  0  0  0  0  0  0
   -2.0461   -0.0313   -0.4955 C   0  0  0  0  0  0  0  0  0  0  0  0
   -1.9631    0.0695    0.8981 C   0  0  0  0  0  0  0  0  0  0  0  0
   -0.8613   -0.5528    1.6804 C   0  0  0  0  0  0  0  0  0  0  0  0
   -0.7090   -0.3924    2.8809 O   0  0  0  0  0  0  0  0  0  0  0  0
   -0.0714   -1.2996    0.8719 O   0  0  0  0  0  0  0  0  0  0  0  0
    1.0664   -1.9172    1.4989 C   0  0  0  0  0  0  0  0  0  0  0  0
    2.2295   -0.9331    1.6454 C   0  0  0  0  0  0  0  0  0  0  0  0
    2.8130   -0.5296    0.3108 C   0  0  0  0  0  0  0  0  0  0  0  0
    2.3539    0.6201   -0.3465 C   0  0  0  0  0  0  0  0  0  0  0  0
    2.8787    0.9828   -1.5876 C   0  0  0  0  0  0  0  0  0  0  0  0
    3.8649    0.1995   -2.1841 C   0  0  0  0  0  0  0  0  0  0  0  0
    4.3263   -0.9475   -1.5408 C   0  0  0  0  0  0  0  0  0  0  0  0
    3.8022   -1.3125   -0.2997 C   0  0  0  0  0  0  0  0  0  0  0  0
   -2.9312    0.8085    1.5874 C   0  0  0  0  0  0  0  0  0  0  0  0
   -3.9794    1.4196    0.8913 C   0  0  0  0  0  0  0  0  0  0  0  0
   -5.9134    2.1822   -0.6515 H   0  0  0  0  0  0  0  0  0  0  0  0
   -5.2979    1.5936   -2.1065 H   0  0  0  0  0  0  0  0  0  0  0  0
   -3.1270    0.5213   -2.2676 H   0  0  0  0  0  0  0  0  0  0  0  0
   -1.2915   -0.5689   -1.0647 H   0  0  0  0  0  0  0  0  0  0  0  0
    1.3533   -2.7692    0.8724 H   0  0  0  0  0  0  0  0  0  0  0  0
    0.7810   -2.3258    2.4758 H   0  0  0  0  0  0  0  0  0  0  0  0
    3.0194   -1.3912    2.2533 H   0  0  0  0  0  0  0  0  0  0  0  0
    1.9105   -0.0319    2.1822 H   0  0  0  0  0  0  0  0  0  0  0  0
    1.5823    1.2397    0.1052 H   0  0  0  0  0  0  0  0  0  0  0  0
    2.5174    1.8771   -2.0885 H   0  0  0  0  0  0  0  0  0  0  0  0
    4.2739    0.4832   -3.1501 H   0  0  0  0  0  0  0  0  0  0  0  0
    5.0951   -1.5586   -2.0063 H   0  0  0  0  0  0  0  0  0  0  0  0
    4.1721   -2.2113    0.1883 H   0  0  0  0  0  0  0  0  0  0  0  0
   -2.8680    0.9250    2.6675 H   0  0  0  0  0  0  0  0  0  0  0  0
   -4.7017    2.0155    1.4436 H   0  0  0  0  0  0  0  0  0  0  0  0
  1  2  1  0
  2  3  2  0
  3  4  1  0
  4  5  2  0
  5  6  1  0
  6  7  2  0
  6  8  1  0
  8  9  1  0
  9 10  1  0
 10 11  1  0
 11 12  2  0
 12 13  1  0
 13 14  2  0
 14 15  1  0
 15 16  2  0
  5 17  1  0
 17 18  2  0
 18  2  1  0
 16 11  1  0
  1 19  1  0
  1 20  1  0
  3 21  1  0
  4 22  1  0
  9 23  1  0
  9 24  1  0
 10 25  1  0
 10 26  1  0
 12 27  1  0
 13 28  1  0
 14 29  1  0
 15 30  1  0
 16 31  1  0
 17 32  1  0
 18 33  1  0
M  END
$$$$
