
     RDKit          3D

 33 33  0  0  0  0  0  0  0  0999 V2000
   -3.6151   -0.1149   -0.2801 C   0  0  0  0  0  0  0  0  0  0  0  0
   -3.2592    0.6726    0.9815 C   0  0  0  0  0  0  0  0  0  0  0  0
   -3.0589   -0.2753    2.1646 C   0  0  0  0  0  0  0  0  0  0  0  0
   -2.0698    1.6335    0.7739 C   0  0  0  0  0  0  0  0  0  0  0  0
   -0.7453    0.9945    0.4307 C   0  0  0  0  0  0  0  0  0  0  0  0
    0.1494    0.6207    1.4399 C   0  0  0  0  0  0  0  0  0  0  0  0
    1.3749    0.0286    1.1230 C   0  0  0  0  0  0  0  0  0  0  0  0
    1.7341   -0.2044   -0.2117 C   0  0  0  0  0  0  0  0  0  0  0  0
    3.0723   -0.8431   -0.5366 C   0  0  0  0  0  0  0  0  0  0  0  0
    2.9278   -2.1244   -1.3622 C   0  0  0  0  0  0  0  0  0  0  0  0
    4.0279    0.1511   -1.1714 C   0  0  0  0  0  0  0  0  0  0  0  0
    4.7720    0.9109   -0.5692 O   0  0  0  0  0  0  0  0  0  0  0  0
    3.9817    0.1906   -2.5184 O   0  0  0  0  0  0  0  0  0  0  0  0
    0.8414    0.1822   -1.2214 C   0  0  0  0  0  0  0  0  0  0  0  0
   -0.3838    0.7740   -0.9032 C   0  0  0  0  0  0  0  0  0  0  0  0
   -2.8394   -0.8426   -0.5386 H   0  0  0  0  0  0  0  0  0  0  0  0
   -3.7565    0.5569   -1.1331 H   0  0  0  0  0  0  0  0  0  0  0  0
   -4.5495   -0.6680   -0.1350 H   0  0  0  0  0  0  0  0  0  0  0  0
   -4.1269    1.3028    1.2202 H   0  0  0  0  0  0  0  0  0  0  0  0
   -3.9799   -0.8323    2.3687 H   0  0  0  0  0  0  0  0  0  0  0  0
   -2.8000    0.2811    3.0714 H   0  0  0  0  0  0  0  0  0  0  0  0
   -2.2684   -1.0073    1.9710 H   0  0  0  0  0  0  0  0  0  0  0  0
   -1.9402    2.2425    1.6790 H   0  0  0  0  0  0  0  0  0  0  0  0
   -2.3256    2.3537   -0.0152 H   0  0  0  0  0  0  0  0  0  0  0  0
   -0.1009    0.7898    2.4849 H   0  0  0  0  0  0  0  0  0  0  0  0
    2.0484   -0.2456    1.9325 H   0  0  0  0  0  0  0  0  0  0  0  0
    3.5571   -1.1495    0.4011 H   0  0  0  0  0  0  0  0  0  0  0  0
    2.4653   -1.9440   -2.3386 H   0  0  0  0  0  0  0  0  0  0  0  0
    3.9091   -2.5759   -1.5463 H   0  0  0  0  0  0  0  0  0  0  0  0
    2.3102   -2.8595   -0.8344 H   0  0  0  0  0  0  0  0  0  0  0  0
    4.6112    0.9059   -2.7490 H   0  0  0  0  0  0  0  0  0  0  0  0
    1.0923    0.0318   -2.2695 H   0  0  0  0  0  0  0  0  0  0  0  0
   -1.0554    1.0637   -1.7084 H   0  0  0  0  0  0  0  0  0  0  0  0
  1  2  1  0
  2  3  1  0
  2  4  1  0
  4  5  1  0
  5  6  2  0
  6  7  1  0
  7  8  2  0
  8  9  1  0
  9 10  1  0
  9 11  1  0
 11 12  2  0
 11 13  1  0
  8 14  1  0
 14 15  2  0
 15  5  1  0
  1 16  1  0
  1 17  1  0
  1 18  1  0
  2 19  1  0
  3 20  1  0
  3 21  1  0
  3 22  1  0
  4 23  1  0
  4 24  1  0
  6 25  1  0
  7 26  1  0
  9 27  1  0
 10 28  1  0
 10 29  1  0
 10 30  1  0
 13 31  1  0
 14 32  1  0
 15 33  1  0
M  END
$$$$
