
     RDKit          3D

 36 38  0  0  0  0  0  0  0  0999 V2000
   -2.7102    0.9183   -2.2278 C   0  0  0  0  0  0  0  0  0  0  0  0
   -2.2816    0.3165   -0.9258 C   0  0  0  0  0  0  0  0  0  0  0  0
   -0.9576    0.2806   -0.6567 N   0  0  0  0  0  0  0  0  0  0  0  0
   -0.6123   -0.2596    0.5419 C   0  0  0  0  0  0  0  0  0  0  0  0
    1.1393   -0.3053    0.9107 S   0  0  0  0  0  6  0  0  0  0  0  0
    1.5381   -1.7044    0.9711 O   0  0  0  0  0  0  0  0  0  0  0  0
    1.3760    0.6002    2.0261 O   0  0  0  0  0  0  0  0  0  0  0  0
    1.8727    0.4158   -0.5518 C   0  0  0  0  0  0  0  0  0  0  0  0
    3.3752    0.4460   -0.4041 C   0  0  0  0  0  0  0  0  0  0  0  0
    4.0106    1.5446    0.1946 C   0  0  0  0  0  0  0  0  0  0  0  0
    5.4003    1.5705    0.3329 C   0  0  0  0  0  0  0  0  0  0  0  0
    6.1624    0.4982   -0.1241 C   0  0  0  0  0  0  0  0  0  0  0  0
    7.8744    0.5321    0.0438 Cl  0  0  0  0  0  0  0  0  0  0  0  0
    5.5463   -0.6023   -0.7150 C   0  0  0  0  0  0  0  0  0  0  0  0
    4.1566   -0.6297   -0.8532 C   0  0  0  0  0  0  0  0  0  0  0  0
   -1.4234   -0.7606    1.4960 N   0  0  0  0  0  0  0  0  0  0  0  0
   -2.7130   -0.7030    1.1611 C   0  0  0  0  0  0  0  0  0  0  0  0
   -3.1961   -0.1830   -0.0280 C   0  0  0  0  0  0  0  0  0  0  0  0
   -4.6853   -0.2290   -0.0719 C   0  0  0  0  0  0  0  0  0  0  0  0
   -4.9852   -1.2527    1.0348 C   0  0  0  0  0  0  0  0  0  0  0  0
   -3.8388   -1.1500    2.0500 C   0  0  0  0  0  0  0  0  0  0  0  0
   -3.3709    1.7730   -2.0524 H   0  0  0  0  0  0  0  0  0  0  0  0
   -1.8434    1.2707   -2.7967 H   0  0  0  0  0  0  0  0  0  0  0  0
   -3.2349    0.1746   -2.8355 H   0  0  0  0  0  0  0  0  0  0  0  0
    1.4819    1.4307   -0.6763 H   0  0  0  0  0  0  0  0  0  0  0  0
    1.5871   -0.1870   -1.4196 H   0  0  0  0  0  0  0  0  0  0  0  0
    3.4280    2.3841    0.5706 H   0  0  0  0  0  0  0  0  0  0  0  0
    5.8791    2.4250    0.8036 H   0  0  0  0  0  0  0  0  0  0  0  0
    6.1392   -1.4439   -1.0631 H   0  0  0  0  0  0  0  0  0  0  0  0
    3.6891   -1.5040   -1.3033 H   0  0  0  0  0  0  0  0  0  0  0  0
   -5.1020    0.7529    0.1753 H   0  0  0  0  0  0  0  0  0  0  0  0
   -5.0708   -0.5674   -1.0375 H   0  0  0  0  0  0  0  0  0  0  0  0
   -4.9899   -2.2620    0.5995 H   0  0  0  0  0  0  0  0  0  0  0  0
   -5.9662   -1.0962    1.4942 H   0  0  0  0  0  0  0  0  0  0  0  0
   -4.0430   -0.3846    2.8052 H   0  0  0  0  0  0  0  0  0  0  0  0
   -3.6316   -2.1091    2.5316 H   0  0  0  0  0  0  0  0  0  0  0  0
  1  2  1  0
  2  3  2  0
  3  4  1  0
  4  5  1  0
  5  6  2  0
  5  7  2  0
  5  8  1  0
  8  9  1  0
  9 10  2  0
 10 11  1  0
 11 12  2  0
 12 13  1  0
 12 14  1  0
 14 15  2  0
  4 16  2  0
 16 17  1  0
 17 18  2  0
 18 19  1  0
 19 20  1  0
 20 21  1  0
 18  2  1  0
 15  9  1  0
 21 17  1  0
  1 22  1  0
  1 23  1  0
  1 24  1  0
  8 25  1  0
  8 26  1  0
 10 27  1  0
 11 28  1  0
 14 29  1  0
 15 30  1  0
 19 31  1  0
 19 32  1  0
 20 33  1  0
 20 34  1  0
 21 35  1  0
 21 36  1  0
M  END
$$$$
