
     RDKit          3D

 31 33  0  0  0  0  0  0  0  0999 V2000
    0.1445   -1.0352    2.1448 O   0  0  0  0  0  0  0  0  0  0  0  0
    0.4099    0.0417    1.2133 S   0  0  0  0  0  6  0  0  0  0  0  0
    0.2141    1.4283    1.5893 O   0  0  0  0  0  0  0  0  0  0  0  0
    2.1027   -0.1504    0.6957 C   0  0  0  0  0  0  0  0  0  0  0  0
    2.9930    0.9229    0.7864 C   0  0  0  0  0  0  0  0  0  0  0  0
    4.3132    0.7517    0.3702 C   0  0  0  0  0  0  0  0  0  0  0  0
    4.7358   -0.4832   -0.1270 C   0  0  0  0  0  0  0  0  0  0  0  0
    3.8430   -1.5538   -0.2077 C   0  0  0  0  0  0  0  0  0  0  0  0
    2.5215   -1.3918    0.2061 C   0  0  0  0  0  0  0  0  0  0  0  0
   -0.4329   -0.2317   -0.2495 N   0  0  0  0  0  0  0  0  0  0  0  0
   -0.1824    0.7746   -1.3408 C   0  0  0  0  0  0  0  0  0  0  0  0
   -1.5168    1.4863   -1.6159 C   0  0  0  0  0  0  0  0  0  0  0  0
   -2.5015    0.5992   -0.9332 C   0  0  0  0  0  0  0  0  0  0  0  0
   -3.8851    0.6622   -0.9866 C   0  0  0  0  0  0  0  0  0  0  0  0
   -4.6194   -0.2455   -0.2200 C   0  0  0  0  0  0  0  0  0  0  0  0
   -3.9671   -1.1921    0.5851 C   0  0  0  0  0  0  0  0  0  0  0  0
   -2.5716   -1.2411    0.6354 C   0  0  0  0  0  0  0  0  0  0  0  0
   -1.8572   -0.3290   -0.1208 C   0  0  0  0  0  0  0  0  0  0  0  0
    2.6715    1.8844    1.1802 H   0  0  0  0  0  0  0  0  0  0  0  0
    5.0164    1.5785    0.4385 H   0  0  0  0  0  0  0  0  0  0  0  0
    5.7674   -0.6138   -0.4461 H   0  0  0  0  0  0  0  0  0  0  0  0
    4.1799   -2.5153   -0.5877 H   0  0  0  0  0  0  0  0  0  0  0  0
    1.8262   -2.2267    0.1510 H   0  0  0  0  0  0  0  0  0  0  0  0
    0.6025    1.4979   -1.1022 H   0  0  0  0  0  0  0  0  0  0  0  0
    0.1462    0.2215   -2.2296 H   0  0  0  0  0  0  0  0  0  0  0  0
   -1.7062    1.5752   -2.6895 H   0  0  0  0  0  0  0  0  0  0  0  0
   -1.5268    2.4804   -1.1566 H   0  0  0  0  0  0  0  0  0  0  0  0
   -4.3908    1.4002   -1.6011 H   0  0  0  0  0  0  0  0  0  0  0  0
   -5.7065   -0.2179   -0.2429 H   0  0  0  0  0  0  0  0  0  0  0  0
   -4.5518   -1.8941    1.1750 H   0  0  0  0  0  0  0  0  0  0  0  0
   -2.0717   -1.9831    1.2488 H   0  0  0  0  0  0  0  0  0  0  0  0
  1  2  2  0
  2  3  2  0
  2  4  1  0
  4  5  2  0
  5  6  1  0
  6  7  2  0
  7  8  1  0
  8  9  2  0
  2 10  1  0
 10 11  1  0
 11 12  1  0
 12 13  1  0
 13 14  2  0
 14 15  1  0
 15 16  2  0
 16 17  1  0
 17 18  2  0
  9  4  1  0
 18 10  1  0
 18 13  1  0
  5 19  1  0
  6 20  1  0
  7 21  1  0
  8 22  1  0
  9 23  1  0
 11 24  1  0
 11 25  1  0
 12 26  1  0
 12 27  1  0
 14 28  1  0
 15 29  1  0
 16 30  1  0
 17 31  1  0
M  END
$$$$
