
     RDKit          3D

 45 46  0  0  0  0  0  0  0  0999 V2000
    7.1152    1.2737    1.8552 C   0  0  0  0  0  0  0  0  0  0  0  0
    6.0199    1.6294    1.0194 O   0  0  0  0  0  0  0  0  0  0  0  0
    5.0946    0.6544    0.7681 C   0  0  0  0  0  0  0  0  0  0  0  0
    4.0461    1.0489   -0.0684 C   0  0  0  0  0  0  0  0  0  0  0  0
    3.0236    0.1569   -0.4067 C   0  0  0  0  0  0  0  0  0  0  0  0
    3.0346   -1.1453    0.1056 C   0  0  0  0  0  0  0  0  0  0  0  0
    1.9659   -2.1219   -0.2208 C   0  0  0  0  0  0  0  0  0  0  0  0
    2.2310   -3.3234   -0.2246 O   0  0  0  0  0  0  0  0  0  0  0  0
    0.5810   -1.6838   -0.5250 C   0  0  0  0  0  0  0  0  0  0  0  0
   -0.0391   -0.6925    0.1334 C   0  0  0  0  0  0  0  0  0  0  0  0
   -1.4264   -0.2854   -0.1366 C   0  0  0  0  0  0  0  0  0  0  0  0
   -2.4455   -1.2261   -0.3525 C   0  0  0  0  0  0  0  0  0  0  0  0
   -3.7599   -0.8124   -0.5834 C   0  0  0  0  0  0  0  0  0  0  0  0
   -4.8179   -1.6544   -0.8107 O   0  0  0  0  0  0  0  0  0  0  0  0
   -4.5319   -3.0346   -0.9895 C   0  0  0  0  0  0  0  0  0  0  0  0
   -4.0509    0.5620   -0.5661 C   0  0  0  0  0  0  0  0  0  0  0  0
   -5.3352    0.9832   -0.8356 O   0  0  0  0  0  0  0  0  0  0  0  0
   -6.0756    1.0845    0.3795 C   0  0  0  0  0  0  0  0  0  0  0  0
   -3.0447    1.5193   -0.3545 C   0  0  0  0  0  0  0  0  0  0  0  0
   -3.4413    2.8315   -0.3730 O   0  0  0  0  0  0  0  0  0  0  0  0
   -2.4275    3.8252   -0.3218 C   0  0  0  0  0  0  0  0  0  0  0  0
   -1.7372    1.0831   -0.1261 C   0  0  0  0  0  0  0  0  0  0  0  0
    4.1085   -1.5460    0.9134 C   0  0  0  0  0  0  0  0  0  0  0  0
    4.2313   -2.8187    1.4091 O   0  0  0  0  0  0  0  0  0  0  0  0
    5.1246   -0.6513    1.2560 C   0  0  0  0  0  0  0  0  0  0  0  0
    7.7570    2.1541    1.9570 H   0  0  0  0  0  0  0  0  0  0  0  0
    6.7727    0.9936    2.8568 H   0  0  0  0  0  0  0  0  0  0  0  0
    7.7137    0.4759    1.4031 H   0  0  0  0  0  0  0  0  0  0  0  0
    4.0317    2.0618   -0.4659 H   0  0  0  0  0  0  0  0  0  0  0  0
    2.2414    0.4947   -1.0810 H   0  0  0  0  0  0  0  0  0  0  0  0
    0.0772   -2.2907   -1.2707 H   0  0  0  0  0  0  0  0  0  0  0  0
    0.4671   -0.1304    0.9153 H   0  0  0  0  0  0  0  0  0  0  0  0
   -2.1974   -2.2820   -0.3216 H   0  0  0  0  0  0  0  0  0  0  0  0
   -4.1561   -3.4800   -0.0627 H   0  0  0  0  0  0  0  0  0  0  0  0
   -3.8323   -3.1925   -1.8173 H   0  0  0  0  0  0  0  0  0  0  0  0
   -5.4684   -3.5398   -1.2447 H   0  0  0  0  0  0  0  0  0  0  0  0
   -5.6320    1.8213    1.0581 H   0  0  0  0  0  0  0  0  0  0  0  0
   -6.1606    0.1132    0.8788 H   0  0  0  0  0  0  0  0  0  0  0  0
   -7.0852    1.4233    0.1282 H   0  0  0  0  0  0  0  0  0  0  0  0
   -2.9101    4.8014   -0.4294 H   0  0  0  0  0  0  0  0  0  0  0  0
   -1.7173    3.7123   -1.1478 H   0  0  0  0  0  0  0  0  0  0  0  0
   -1.9151    3.8128    0.6456 H   0  0  0  0  0  0  0  0  0  0  0  0
   -0.9394    1.7956    0.0582 H   0  0  0  0  0  0  0  0  0  0  0  0
    3.5849   -3.3910    0.9369 H   0  0  0  0  0  0  0  0  0  0  0  0
    5.9250   -1.0098    1.8943 H   0  0  0  0  0  0  0  0  0  0  0  0
  1  2  1  0
  2  3  1  0
  3  4  2  0
  4  5  1  0
  5  6  2  0
  6  7  1  0
  7  8  2  0
  7  9  1  0
  9 10  2  0
 10 11  1  0
 11 12  2  0
 12 13  1  0
 13 14  1  0
 14 15  1  0
 13 16  2  0
 16 17  1  0
 17 18  1  0
 16 19  1  0
 19 20  1  0
 20 21  1  0
 19 22  2  0
  6 23  1  0
 23 24  1  0
 23 25  2  0
 25  3  1  0
 22 11  1  0
  1 26  1  0
  1 27  1  0
  1 28  1  0
  4 29  1  0
  5 30  1  0
  9 31  1  0
 10 32  1  0
 12 33  1  0
 15 34  1  0
 15 35  1  0
 15 36  1  0
 18 37  1  0
 18 38  1  0
 18 39  1  0
 21 40  1  0
 21 41  1  0
 21 42  1  0
 22 43  1  0
 24 44  1  0
 25 45  1  0
M  END
$$$$
