
     RDKit          3D

 58 62  0  0  0  0  0  0  0  0999 V2000
    8.1871    2.7069    2.4759 C   0  0  0  0  0  0  0  0  0  0  0  0
    7.7402    1.3976    2.1474 O   0  0  0  0  0  0  0  0  0  0  0  0
    6.4927    1.2930    1.5957 C   0  0  0  0  0  0  0  0  0  0  0  0
    6.1004   -0.0103    1.2819 C   0  0  0  0  0  0  0  0  0  0  0  0
    4.8499   -0.2624    0.7134 C   0  0  0  0  0  0  0  0  0  0  0  0
    3.9728    0.7936    0.4459 C   0  0  0  0  0  0  0  0  0  0  0  0
    2.6103    0.5308   -0.1472 C   0  0  0  0  0  0  0  0  0  0  0  0
    1.5395    0.3734    0.9367 C   0  0  0  0  0  0  0  0  0  0  0  0
    0.2193    0.1091    0.3314 N   0  0  0  0  0  0  0  0  0  0  0  0
   -0.5722    1.2016   -0.0506 C   0  0  0  0  0  0  0  0  0  0  0  0
   -0.1204    2.4166    0.0963 N   0  0  0  0  0  0  0  0  0  0  0  0
   -1.9454    0.9578   -0.6337 C   0  0  0  0  0  0  0  0  0  0  0  0
   -2.8677    2.0732   -0.9939 C   0  0  0  0  0  0  0  0  0  0  0  0
   -2.4343    3.2015   -1.2112 O   0  0  0  0  0  0  0  0  0  0  0  0
   -4.2072    1.7773   -1.0029 N   0  0  0  0  0  0  0  0  0  0  0  0
   -5.1872    2.8256   -1.1726 C   0  0  0  0  0  0  0  0  0  0  0  0
   -6.5119    2.2006   -1.3977 C   0  0  0  0  0  0  0  0  0  0  0  0
   -7.4331    2.2716   -2.4221 C   0  0  0  0  0  0  0  0  0  0  0  0
   -8.5102    1.4314   -2.0502 C   0  0  0  0  0  0  0  0  0  0  0  0
   -8.1786    0.9007   -0.8260 C   0  0  0  0  0  0  0  0  0  0  0  0
   -6.9665    1.3593   -0.4211 O   0  0  0  0  0  0  0  0  0  0  0  0
   -2.2569   -0.3297   -0.8655 C   0  0  0  0  0  0  0  0  0  0  0  0
   -1.3683   -1.4336   -0.5289 C   0  0  0  0  0  0  0  0  0  0  0  0
   -1.7929   -2.8311   -0.8264 C   0  0  0  0  0  0  0  0  0  0  0  0
   -2.8951   -3.0380   -1.3398 O   0  0  0  0  0  0  0  0  0  0  0  0
   -0.8926   -3.8257   -0.4901 N   0  0  0  0  0  0  0  0  0  0  0  0
   -1.2124   -5.1555   -0.7441 C   0  0  0  0  0  0  0  0  0  0  0  0
   -0.3756   -6.1532   -0.4334 C   0  0  0  0  0  0  0  0  0  0  0  0
    0.8914   -5.8596    0.1809 C   0  0  0  0  0  0  0  0  0  0  0  0
    1.2391   -4.5944    0.4440 C   0  0  0  0  0  0  0  0  0  0  0  0
    0.3098   -3.4813    0.0985 C   0  0  0  0  0  0  0  0  0  0  0  0
    0.6726   -2.2684    0.3645 N   0  0  0  0  0  0  0  0  0  0  0  0
   -0.1666   -1.2225    0.0539 C   0  0  0  0  0  0  0  0  0  0  0  0
    4.3647    2.0991    0.7667 C   0  0  0  0  0  0  0  0  0  0  0  0
    5.6181    2.3481    1.3363 C   0  0  0  0  0  0  0  0  0  0  0  0
    9.1932    2.6205    2.8974 H   0  0  0  0  0  0  0  0  0  0  0  0
    7.5458    3.1637    3.2369 H   0  0  0  0  0  0  0  0  0  0  0  0
    8.2536    3.3374    1.5831 H   0  0  0  0  0  0  0  0  0  0  0  0
    6.7763   -0.8376    1.4834 H   0  0  0  0  0  0  0  0  0  0  0  0
    4.5669   -1.2865    0.4819 H   0  0  0  0  0  0  0  0  0  0  0  0
    2.6543   -0.3687   -0.7746 H   0  0  0  0  0  0  0  0  0  0  0  0
    2.3511    1.3487   -0.8314 H   0  0  0  0  0  0  0  0  0  0  0  0
    1.8145   -0.4343    1.6279 H   0  0  0  0  0  0  0  0  0  0  0  0
    1.4989    1.2685    1.5711 H   0  0  0  0  0  0  0  0  0  0  0  0
   -0.8076    3.1016   -0.2651 H   0  0  0  0  0  0  0  0  0  0  0  0
   -4.5417    0.9259   -0.5701 H   0  0  0  0  0  0  0  0  0  0  0  0
   -5.1966    3.4374   -0.2645 H   0  0  0  0  0  0  0  0  0  0  0  0
   -4.8968    3.4619   -2.0152 H   0  0  0  0  0  0  0  0  0  0  0  0
   -7.3365    2.8568   -3.3264 H   0  0  0  0  0  0  0  0  0  0  0  0
   -9.4166    1.2351   -2.6055 H   0  0  0  0  0  0  0  0  0  0  0  0
   -8.6708    0.2173   -0.1479 H   0  0  0  0  0  0  0  0  0  0  0  0
   -3.1950   -0.6035   -1.3412 H   0  0  0  0  0  0  0  0  0  0  0  0
   -2.1754   -5.3536   -1.2085 H   0  0  0  0  0  0  0  0  0  0  0  0
   -0.6332   -7.1879   -0.6356 H   0  0  0  0  0  0  0  0  0  0  0  0
    1.5536   -6.6843    0.4249 H   0  0  0  0  0  0  0  0  0  0  0  0
    2.1823   -4.3311    0.9062 H   0  0  0  0  0  0  0  0  0  0  0  0
    3.6912    2.9333    0.5750 H   0  0  0  0  0  0  0  0  0  0  0  0
    5.8758    3.3764    1.5653 H   0  0  0  0  0  0  0  0  0  0  0  0
  1  2  1  0
  2  3  1  0
  3  4  2  0
  4  5  1  0
  5  6  2  0
  6  7  1  0
  7  8  1  0
  8  9  1  0
  9 10  1  0
 10 11  2  3
 10 12  1  0
 12 13  1  0
 13 14  2  0
 13 15  1  0
 15 16  1  0
 16 17  1  0
 17 18  2  0
 18 19  1  0
 19 20  2  0
 20 21  1  0
 12 22  2  0
 22 23  1  0
 23 24  1  0
 24 25  2  0
 24 26  1  0
 26 27  1  0
 27 28  2  0
 28 29  1  0
 29 30  2  0
 30 31  1  0
 31 32  2  0
 32 33  1  0
  6 34  1  0
 34 35  2  0
 35  3  1  0
 33  9  1  0
 21 17  1  0
 33 23  2  0
 31 26  1  0
  1 36  1  0
  1 37  1  0
  1 38  1  0
  4 39  1  0
  5 40  1  0
  7 41  1  0
  7 42  1  0
  8 43  1  0
  8 44  1  0
 11 45  1  0
 15 46  1  0
 16 47  1  0
 16 48  1  0
 18 49  1  0
 19 50  1  0
 20 51  1  0
 22 52  1  0
 27 53  1  0
 28 54  1  0
 29 55  1  0
 30 56  1  0
 34 57  1  0
 35 58  1  0
M  END
$$$$
