
     RDKit          3D

 21 21  0  0  0  0  0  0  0  0999 V2000
    3.0606   -0.3125   -0.4818 C   0  0  0  0  0  0  0  0  0  0  0  0
    1.5971   -0.0279   -0.2811 C   0  0  0  0  0  0  0  0  0  0  0  0
    1.1237    1.2669   -0.5109 C   0  0  0  0  0  0  0  0  0  0  0  0
   -0.2246    1.5415   -0.3450 C   0  0  0  0  0  0  0  0  0  0  0  0
   -0.6403    2.8389   -0.4870 O   0  0  0  0  0  0  0  0  0  0  0  0
   -1.1588    0.5494   -0.0059 C   0  0  0  0  0  0  0  0  0  0  0  0
   -2.5147    0.9351    0.1307 N   0  0  0  0  0  0  0  0  0  0  0  0
   -0.6863   -0.7274    0.3515 C   0  0  0  0  0  0  0  0  0  0  0  0
   -1.6348   -1.7875    0.8528 C   0  0  0  0  0  0  0  0  0  0  0  0
    0.6897   -1.0163    0.1597 C   0  0  0  0  0  0  0  0  0  0  0  0
    1.2892   -2.6235    0.4558 Cl  0  0  0  0  0  0  0  0  0  0  0  0
    3.1991   -1.1038   -1.2255 H   0  0  0  0  0  0  0  0  0  0  0  0
    3.5948    0.5714   -0.8472 H   0  0  0  0  0  0  0  0  0  0  0  0
    3.5255   -0.6083    0.4641 H   0  0  0  0  0  0  0  0  0  0  0  0
    1.7970    2.0684   -0.8028 H   0  0  0  0  0  0  0  0  0  0  0  0
   -1.4315    2.9004    0.0818 H   0  0  0  0  0  0  0  0  0  0  0  0
   -2.7819    1.5785   -0.6143 H   0  0  0  0  0  0  0  0  0  0  0  0
   -3.1510    0.1427    0.1235 H   0  0  0  0  0  0  0  0  0  0  0  0
   -2.4806   -1.3530    1.3947 H   0  0  0  0  0  0  0  0  0  0  0  0
   -1.1562   -2.4569    1.5739 H   0  0  0  0  0  0  0  0  0  0  0  0
   -2.0160   -2.3762    0.0128 H   0  0  0  0  0  0  0  0  0  0  0  0
  1  2  1  0
  2  3  2  0
  3  4  1  0
  4  5  1  0
  4  6  2  0
  6  7  1  0
  6  8  1  0
  8  9  1  0
  8 10  2  0
 10 11  1  0
 10  2  1  0
  1 12  1  0
  1 13  1  0
  1 14  1  0
  3 15  1  0
  5 16  1  0
  7 17  1  0
  7 18  1  0
  9 19  1  0
  9 20  1  0
  9 21  1  0
M  END
$$$$
