
     RDKit          3D

 39 40  0  0  0  0  0  0  0  0999 V2000
   -0.7665   -3.4374    0.2523 C   0  0  0  0  0  0  0  0  0  0  0  0
   -1.2128   -1.9803    0.1246 C   0  0  0  0  0  0  0  0  0  0  0  0
   -2.2960   -1.9826   -0.7988 O   0  0  0  0  0  0  0  0  0  0  0  0
   -3.1494   -0.9143   -0.8560 C   0  0  0  0  0  0  0  0  0  0  0  0
   -2.9673    0.2922   -0.1714 C   0  0  0  0  0  0  0  0  0  0  0  0
   -3.8938    1.3332   -0.3071 C   0  0  0  0  0  0  0  0  0  0  0  0
   -5.0111    1.1683   -1.1344 C   0  0  0  0  0  0  0  0  0  0  0  0
   -5.9812    2.2609   -1.2740 N   0  0  0  0  0  4  0  0  0  0  0  0
   -6.9439    2.0832   -2.0327 O   0  0  0  0  0  0  0  0  0  0  0  0
   -5.7814    3.2939   -0.6196 O   0  0  0  0  0  1  0  0  0  0  0  0
   -5.2100   -0.0281   -1.8275 C   0  0  0  0  0  0  0  0  0  0  0  0
   -4.2782   -1.0597   -1.6852 C   0  0  0  0  0  0  0  0  0  0  0  0
   -4.5676   -2.5280   -2.5549 Cl  0  0  0  0  0  0  0  0  0  0  0  0
   -0.0003   -1.1141   -0.3018 C   0  0  0  0  0  0  0  0  0  0  0  0
    0.0489   -0.5643   -1.3981 O   0  0  0  0  0  0  0  0  0  0  0  0
    0.9599   -1.0084    0.6982 N   0  0  0  0  0  0  0  0  0  0  0  0
    2.1804   -0.3027    0.6454 C   0  0  0  0  0  0  0  0  0  0  0  0
    2.6398    0.3876   -0.4781 C   0  0  0  0  0  0  0  0  0  0  0  0
    3.8675    1.0642   -0.4505 C   0  0  0  0  0  0  0  0  0  0  0  0
    4.6477    1.0631    0.7094 C   0  0  0  0  0  0  0  0  0  0  0  0
    5.9580    1.7627    0.7934 C   0  0  0  0  0  0  0  0  0  0  0  0
    6.2085    2.7560   -0.1118 N   0  0  0  0  0  0  0  0  0  0  0  0
    6.7762    1.4876    1.6621 O   0  0  0  0  0  0  0  0  0  0  0  0
    4.1985    0.3601    1.8317 C   0  0  0  0  0  0  0  0  0  0  0  0
    2.9736   -0.3151    1.7996 C   0  0  0  0  0  0  0  0  0  0  0  0
   -1.6145   -4.0759    0.5237 H   0  0  0  0  0  0  0  0  0  0  0  0
    0.0166   -3.5657    1.0054 H   0  0  0  0  0  0  0  0  0  0  0  0
   -0.3814   -3.8094   -0.7042 H   0  0  0  0  0  0  0  0  0  0  0  0
   -1.5625   -1.6505    1.1115 H   0  0  0  0  0  0  0  0  0  0  0  0
   -2.1053    0.4716    0.4628 H   0  0  0  0  0  0  0  0  0  0  0  0
   -3.7229    2.2646    0.2308 H   0  0  0  0  0  0  0  0  0  0  0  0
   -6.0733   -0.1679   -2.4744 H   0  0  0  0  0  0  0  0  0  0  0  0
    0.7710   -1.4846    1.5717 H   0  0  0  0  0  0  0  0  0  0  0  0
    2.0751    0.4114   -1.4054 H   0  0  0  0  0  0  0  0  0  0  0  0
    4.2025    1.5604   -1.3565 H   0  0  0  0  0  0  0  0  0  0  0  0
    7.0541    3.2911    0.0422 H   0  0  0  0  0  0  0  0  0  0  0  0
    5.4805    3.1896   -0.6602 H   0  0  0  0  0  0  0  0  0  0  0  0
    4.8025    0.3360    2.7373 H   0  0  0  0  0  0  0  0  0  0  0  0
    2.6580   -0.8487    2.6926 H   0  0  0  0  0  0  0  0  0  0  0  0
  1  2  1  0
  2  3  1  0
  3  4  1  0
  4  5  2  0
  5  6  1  0
  6  7  2  0
  7  8  1  0
  8  9  2  0
  8 10  1  0
  7 11  1  0
 11 12  2  0
 12 13  1  0
  2 14  1  0
 14 15  2  0
 14 16  1  0
 16 17  1  0
 17 18  2  0
 18 19  1  0
 19 20  2  0
 20 21  1  0
 21 22  1  0
 21 23  2  0
 20 24  1  0
 24 25  2  0
 12  4  1  0
 25 17  1  0
  1 26  1  0
  1 27  1  0
  1 28  1  0
  2 29  1  0
  5 30  1  0
  6 31  1  0
 11 32  1  0
 16 33  1  0
 18 34  1  0
 19 35  1  0
 22 36  1  0
 22 37  1  0
 24 38  1  0
 25 39  1  0
M  CHG  2   8   1  10  -1
M  END
$$$$
