
     RDKit          3D

 38 40  0  0  0  0  0  0  0  0999 V2000
   -3.5720    0.0725    1.2422 C   0  0  0  0  0  0  0  0  0  0  0  0
   -3.1696   -0.4616   -0.1031 C   0  0  0  0  0  0  0  0  0  0  0  0
   -3.3692   -1.8303   -0.3589 C   0  0  0  0  0  0  0  0  0  0  0  0
   -3.0369   -2.3796   -1.5942 C   0  0  0  0  0  0  0  0  0  0  0  0
   -3.2357   -3.6865   -1.8081 F   0  0  0  0  0  0  0  0  0  0  0  0
   -2.5100   -1.5936   -2.6079 C   0  0  0  0  0  0  0  0  0  0  0  0
   -2.3122   -0.2323   -2.3840 C   0  0  0  0  0  0  0  0  0  0  0  0
   -2.6338    0.3353   -1.1371 C   0  0  0  0  0  0  0  0  0  0  0  0
   -2.3520    2.0953   -0.9400 S   0  0  0  0  0  6  0  0  0  0  0  0
   -3.4261    2.6396   -0.1377 O   0  0  0  0  0  0  0  0  0  0  0  0
   -2.0529    2.6510   -2.2436 O   0  0  0  0  0  0  0  0  0  0  0  0
   -0.9564    2.1589    0.0095 N   0  0  0  0  0  0  0  0  0  0  0  0
    0.1963    1.4319   -0.3980 C   0  0  0  0  0  0  0  0  0  0  0  0
    0.8737    1.7673   -1.5694 C   0  0  0  0  0  0  0  0  0  0  0  0
    1.9813    1.0214   -1.9744 C   0  0  0  0  0  0  0  0  0  0  0  0
    2.4057   -0.0609   -1.2026 C   0  0  0  0  0  0  0  0  0  0  0  0
    3.4871   -0.7942   -1.6086 O   0  0  0  0  0  0  0  0  0  0  0  0
    1.7340   -0.4045   -0.0207 C   0  0  0  0  0  0  0  0  0  0  0  0
    2.2295   -1.7941    0.9862 S   0  0  0  0  0  0  0  0  0  0  0  0
    3.4830   -1.0942    1.9804 C   0  0  0  0  0  0  0  0  0  0  0  0
    4.4937   -1.8504    2.5175 N   0  0  0  0  0  0  0  0  0  0  0  0
    5.1903   -0.9769    3.2038 C   0  0  0  0  0  0  0  0  0  0  0  0
    4.6101    0.2454    3.0985 N   0  0  0  0  0  0  0  0  0  0  0  0
    3.5034    0.1962    2.3421 N   0  0  0  0  0  0  0  0  0  0  0  0
    0.6210    0.3498    0.3736 C   0  0  0  0  0  0  0  0  0  0  0  0
   -2.7824    0.6920    1.6752 H   0  0  0  0  0  0  0  0  0  0  0  0
   -3.7500   -0.7413    1.9542 H   0  0  0  0  0  0  0  0  0  0  0  0
   -4.4993    0.6473    1.1616 H   0  0  0  0  0  0  0  0  0  0  0  0
   -3.7881   -2.4875    0.3994 H   0  0  0  0  0  0  0  0  0  0  0  0
   -2.2613   -2.0426   -3.5644 H   0  0  0  0  0  0  0  0  0  0  0  0
   -1.9032    0.3789   -3.1866 H   0  0  0  0  0  0  0  0  0  0  0  0
   -1.1645    2.2053    1.0053 H   0  0  0  0  0  0  0  0  0  0  0  0
    0.5517    2.6151   -2.1702 H   0  0  0  0  0  0  0  0  0  0  0  0
    2.4964    1.2983   -2.8893 H   0  0  0  0  0  0  0  0  0  0  0  0
    3.8433   -0.4187   -2.4294 H   0  0  0  0  0  0  0  0  0  0  0  0
    6.0871   -1.1668    3.7756 H   0  0  0  0  0  0  0  0  0  0  0  0
    4.8963    1.1282    3.5064 H   0  0  0  0  0  0  0  0  0  0  0  0
    0.0916    0.0862    1.2849 H   0  0  0  0  0  0  0  0  0  0  0  0
  1  2  1  0
  2  3  2  0
  3  4  1  0
  4  5  1  0
  4  6  2  0
  6  7  1  0
  7  8  2  0
  8  9  1  0
  9 10  2  0
  9 11  2  0
  9 12  1  0
 12 13  1  0
 13 14  2  0
 14 15  1  0
 15 16  2  0
 16 17  1  0
 16 18  1  0
 18 19  1  0
 19 20  1  0
 20 21  1  0
 21 22  2  0
 22 23  1  0
 23 24  1  0
 18 25  2  0
  8  2  1  0
 25 13  1  0
 24 20  2  0
  1 26  1  0
  1 27  1  0
  1 28  1  0
  3 29  1  0
  6 30  1  0
  7 31  1  0
 12 32  1  0
 14 33  1  0
 15 34  1  0
 17 35  1  0
 22 36  1  0
 23 37  1  0
 25 38  1  0
M  END
$$$$
