
     RDKit          3D

 35 37  0  0  0  0  0  0  0  0999 V2000
    6.5700   -1.9792    0.4362 C   0  0  0  0  0  0  0  0  0  0  0  0
    6.3689   -0.5721    0.3901 O   0  0  0  0  0  0  0  0  0  0  0  0
    5.0757   -0.1346    0.3194 C   0  0  0  0  0  0  0  0  0  0  0  0
    3.9370   -0.9380    0.2874 C   0  0  0  0  0  0  0  0  0  0  0  0
    2.6645   -0.3550    0.2139 C   0  0  0  0  0  0  0  0  0  0  0  0
    2.5095    1.0387    0.1711 C   0  0  0  0  0  0  0  0  0  0  0  0
    1.1959    1.6635    0.0946 C   0  0  0  0  0  0  0  0  0  0  0  0
    0.8572    2.9379    0.0552 N   0  0  0  0  0  0  0  0  0  0  0  0
   -0.5220    2.9723   -0.0138 N   0  0  0  0  0  0  0  0  0  0  0  0
   -0.9228    1.7200   -0.0097 C   0  0  0  0  0  0  0  0  0  0  0  0
   -2.2167    1.2902   -0.0726 N   0  0  0  0  0  0  0  0  0  0  0  0
   -2.5671   -0.0363   -0.0099 C   0  0  0  0  0  0  0  0  0  0  0  0
   -1.8089   -0.9858    0.1477 O   0  0  0  0  0  0  0  0  0  0  0  0
   -4.0305   -0.3075   -0.1111 C   0  0  0  0  0  0  0  0  0  0  0  0
   -4.8818    0.4853   -0.8965 C   0  0  0  0  0  0  0  0  0  0  0  0
   -6.2458    0.1877   -0.9613 C   0  0  0  0  0  0  0  0  0  0  0  0
   -6.7495   -0.8987   -0.2530 C   0  0  0  0  0  0  0  0  0  0  0  0
   -8.0570   -1.1789   -0.3203 F   0  0  0  0  0  0  0  0  0  0  0  0
   -5.9153   -1.7019    0.5156 C   0  0  0  0  0  0  0  0  0  0  0  0
   -4.5516   -1.4101    0.5834 C   0  0  0  0  0  0  0  0  0  0  0  0
    0.1082    0.8334    0.0527 O   0  0  0  0  0  0  0  0  0  0  0  0
    3.6606    1.8362    0.2042 C   0  0  0  0  0  0  0  0  0  0  0  0
    4.9298    1.2531    0.2775 C   0  0  0  0  0  0  0  0  0  0  0  0
    6.1966   -2.4613   -0.4733 H   0  0  0  0  0  0  0  0  0  0  0  0
    7.6477   -2.1611    0.4907 H   0  0  0  0  0  0  0  0  0  0  0  0
    6.1132   -2.4142    1.3313 H   0  0  0  0  0  0  0  0  0  0  0  0
    3.9981   -2.0210    0.3181 H   0  0  0  0  0  0  0  0  0  0  0  0
    1.7924   -1.0079    0.1912 H   0  0  0  0  0  0  0  0  0  0  0  0
   -2.9045    2.0269   -0.0945 H   0  0  0  0  0  0  0  0  0  0  0  0
   -4.5016    1.3143   -1.4870 H   0  0  0  0  0  0  0  0  0  0  0  0
   -6.9182    0.7876   -1.5676 H   0  0  0  0  0  0  0  0  0  0  0  0
   -6.3284   -2.5506    1.0520 H   0  0  0  0  0  0  0  0  0  0  0  0
   -3.8954   -2.0429    1.1789 H   0  0  0  0  0  0  0  0  0  0  0  0
    3.5795    2.9216    0.1732 H   0  0  0  0  0  0  0  0  0  0  0  0
    5.8123    1.8883    0.3022 H   0  0  0  0  0  0  0  0  0  0  0  0
  1  2  1  0
  2  3  1  0
  3  4  2  0
  4  5  1  0
  5  6  2  0
  6  7  1  0
  7  8  2  0
  8  9  1  0
  9 10  2  0
 10 11  1  0
 11 12  1  0
 12 13  2  0
 12 14  1  0
 14 15  2  0
 15 16  1  0
 16 17  2  0
 17 18  1  0
 17 19  1  0
 19 20  2  0
 10 21  1  0
  6 22  1  0
 22 23  2  0
 23  3  1  0
 21  7  1  0
 20 14  1  0
  1 24  1  0
  1 25  1  0
  1 26  1  0
  4 27  1  0
  5 28  1  0
 11 29  1  0
 15 30  1  0
 16 31  1  0
 19 32  1  0
 20 33  1  0
 22 34  1  0
 23 35  1  0
M  END
$$$$
