
     RDKit          3D

 56 61  0  0  0  0  0  0  0  0999 V2000
   -4.8248   -2.8636    1.6448 C   0  0  0  0  0  0  0  0  0  0  0  0
   -3.4002   -2.4017    1.7149 C   0  0  0  0  0  0  0  0  0  0  0  0
   -2.7370   -2.2443    2.9474 C   0  0  0  0  0  0  0  0  0  0  0  0
   -3.5401   -2.5712    4.4453 Cl  0  0  0  0  0  0  0  0  0  0  0  0
   -1.3973   -1.8156    3.0156 C   0  0  0  0  0  0  0  0  0  0  0  0
   -0.6774   -1.5349    1.8546 C   0  0  0  0  0  0  0  0  0  0  0  0
   -1.3149   -1.6906    0.6357 C   0  0  0  0  0  0  0  0  0  0  0  0
   -2.6509   -2.1170    0.5793 C   0  0  0  0  0  0  0  0  0  0  0  0
   -3.0572   -2.1986   -0.7515 N   0  0  0  0  0  0  0  0  0  0  0  0
   -2.0245   -1.8688   -1.6289 C   0  0  0  0  0  0  0  0  0  0  0  0
   -2.0919   -1.9356   -2.8470 O   0  0  0  0  0  0  0  0  0  0  0  0
   -0.8031   -1.4693   -0.7592 C   0  0  0  0  0  0  0  0  0  0  0  0
    0.4168   -2.2608   -1.1265 N   0  0  0  0  0  0  0  0  0  0  0  0
    1.4508   -1.3246   -1.7030 C   0  0  2  0  0  0  0  0  0  0  0  0
    2.8663   -1.5698   -1.1514 C   0  0  0  0  0  0  0  0  0  0  0  0
    3.0346   -1.5231    0.3526 C   0  0  0  0  0  0  0  0  0  0  0  0
    2.8792   -2.6848    1.1220 C   0  0  0  0  0  0  0  0  0  0  0  0
    3.0463   -2.6468    2.5076 C   0  0  0  0  0  0  0  0  0  0  0  0
    3.3675   -1.4468    3.1388 C   0  0  0  0  0  0  0  0  0  0  0  0
    3.5218   -0.2849    2.3850 C   0  0  0  0  0  0  0  0  0  0  0  0
    3.3579   -0.3227    0.9991 C   0  0  0  0  0  0  0  0  0  0  0  0
    0.8777    0.0140   -1.4526 C   0  0  0  0  0  0  0  0  0  0  0  0
   -0.3991   -0.0623   -0.9061 C   0  0  0  0  0  0  0  0  0  0  0  0
   -0.8590    1.2121   -0.6836 C   0  0  0  0  0  0  0  0  0  0  0  0
   -2.0199    1.6304   -0.1843 O   0  0  0  0  0  0  0  0  0  0  0  0
    0.1228    2.0971   -1.1711 N   0  0  0  0  0  0  0  0  0  0  0  0
    0.0097    3.5207   -1.2623 C   0  0  0  0  0  0  0  0  0  0  0  0
   -0.7205    4.2422   -0.3102 C   0  0  0  0  0  0  0  0  0  0  0  0
   -0.8169    5.6332   -0.4035 C   0  0  0  0  0  0  0  0  0  0  0  0
   -0.1967    6.3109   -1.4512 C   0  0  0  0  0  0  0  0  0  0  0  0
    0.5162    5.5993   -2.4133 C   0  0  0  0  0  0  0  0  0  0  0  0
    0.6185    4.2089   -2.3235 C   0  0  0  0  0  0  0  0  0  0  0  0
    1.2320    1.3286   -1.5796 C   0  0  0  0  0  0  0  0  0  0  0  0
    2.4100    1.8269   -1.9543 O   0  0  0  0  0  0  0  0  0  0  0  0
   -4.9134   -3.8797    2.0429 H   0  0  0  0  0  0  0  0  0  0  0  0
   -5.2099   -2.8803    0.6216 H   0  0  0  0  0  0  0  0  0  0  0  0
   -5.4730   -2.1907    2.2158 H   0  0  0  0  0  0  0  0  0  0  0  0
   -0.9078   -1.7015    3.9807 H   0  0  0  0  0  0  0  0  0  0  0  0
    0.3548   -1.2019    1.9068 H   0  0  0  0  0  0  0  0  0  0  0  0
   -3.9544   -2.5196   -1.0835 H   0  0  0  0  0  0  0  0  0  0  0  0
    0.1461   -2.8974   -1.8764 H   0  0  0  0  0  0  0  0  0  0  0  0
    1.4747   -1.4818   -2.7899 H   0  0  0  0  0  0  0  0  0  0  0  0
    3.5625   -0.8485   -1.6005 H   0  0  0  0  0  0  0  0  0  0  0  0
    3.2129   -2.5525   -1.5006 H   0  0  0  0  0  0  0  0  0  0  0  0
    2.6185   -3.6259    0.6429 H   0  0  0  0  0  0  0  0  0  0  0  0
    2.9227   -3.5542    3.0925 H   0  0  0  0  0  0  0  0  0  0  0  0
    3.4987   -1.4173    4.2169 H   0  0  0  0  0  0  0  0  0  0  0  0
    3.7738    0.6519    2.8746 H   0  0  0  0  0  0  0  0  0  0  0  0
    3.4870    0.5907    0.4232 H   0  0  0  0  0  0  0  0  0  0  0  0
   -2.5246    0.8503    0.1047 H   0  0  0  0  0  0  0  0  0  0  0  0
   -1.1982    3.7491    0.5322 H   0  0  0  0  0  0  0  0  0  0  0  0
   -1.3787    6.1868    0.3448 H   0  0  0  0  0  0  0  0  0  0  0  0
   -0.2798    7.3923   -1.5238 H   0  0  0  0  0  0  0  0  0  0  0  0
    0.9786    6.1253   -3.2449 H   0  0  0  0  0  0  0  0  0  0  0  0
    1.1305    3.6793   -3.1245 H   0  0  0  0  0  0  0  0  0  0  0  0
    2.4818    2.7388   -1.6189 H   0  0  0  0  0  0  0  0  0  0  0  0
  1  2  1  0
  2  3  2  0
  3  4  1  0
  3  5  1  0
  5  6  2  0
  6  7  1  0
  7  8  2  0
  8  9  1  0
  9 10  1  0
 10 11  2  0
 10 12  1  0
 12 13  1  0
 13 14  1  0
 14 15  1  0
 15 16  1  0
 16 17  2  0
 17 18  1  0
 18 19  2  0
 19 20  1  0
 20 21  2  0
 14 22  1  0
 22 23  1  0
 23 24  2  0
 24 25  1  0
 24 26  1  0
 26 27  1  0
 27 28  2  0
 28 29  1  0
 29 30  2  0
 30 31  1  0
 31 32  2  0
 26 33  1  0
 33 34  1  0
  8  2  1  0
 23 12  1  0
 32 27  1  0
 12  7  1  0
 21 16  1  0
 33 22  2  0
  1 35  1  0
  1 36  1  0
  1 37  1  0
  5 38  1  0
  6 39  1  0
  9 40  1  0
 13 41  1  0
 14 42  1  6
 15 43  1  0
 15 44  1  0
 17 45  1  0
 18 46  1  0
 19 47  1  0
 20 48  1  0
 21 49  1  0
 25 50  1  0
 28 51  1  0
 29 52  1  0
 30 53  1  0
 31 54  1  0
 32 55  1  0
 34 56  1  0
M  END
$$$$
