
     RDKit          3D

 41 44  0  0  0  0  0  0  0  0999 V2000
   -3.5092    3.0370   -0.5469 O   0  0  0  0  0  0  0  0  0  0  0  0
   -2.1543    2.5468   -0.6967 S   0  0  0  0  0  6  0  0  0  0  0  0
   -1.0586    3.4520   -0.9682 O   0  0  0  0  0  0  0  0  0  0  0  0
   -1.8243    1.6763    0.7124 N   0  0  0  0  0  0  0  0  0  0  0  0
   -0.6661    0.8390    0.7681 C   0  0  0  0  0  0  0  0  0  0  0  0
    0.5863    1.4603    0.8099 C   0  0  0  0  0  0  0  0  0  0  0  0
    1.7602    0.7056    0.8331 C   0  0  0  0  0  0  0  0  0  0  0  0
    3.3101    1.5967    0.7966 S   0  0  0  0  0  0  0  0  0  0  0  0
    4.0045    1.1902    2.3382 C   0  0  0  0  0  0  0  0  0  0  0  0
    4.2302   -0.1089    2.7186 N   0  0  0  0  0  0  0  0  0  0  0  0
    4.7769    0.0265    3.9050 C   0  0  0  0  0  0  0  0  0  0  0  0
    4.8828    1.3474    4.2092 N   0  0  0  0  0  0  0  0  0  0  0  0
    4.4032    2.1123    3.2168 N   0  0  0  0  0  0  0  0  0  0  0  0
    1.6576   -0.6933    0.8059 C   0  0  0  0  0  0  0  0  0  0  0  0
    2.7851   -1.4832    0.8286 O   0  0  0  0  0  0  0  0  0  0  0  0
    0.4048   -1.3474    0.7464 C   0  0  0  0  0  0  0  0  0  0  0  0
    0.3042   -2.7549    0.7022 C   0  0  0  0  0  0  0  0  0  0  0  0
   -0.9297   -3.4001    0.6407 C   0  0  0  0  0  0  0  0  0  0  0  0
   -2.0950   -2.6501    0.6225 C   0  0  0  0  0  0  0  0  0  0  0  0
   -2.0233   -1.2568    0.6676 C   0  0  0  0  0  0  0  0  0  0  0  0
   -0.7827   -0.5743    0.7305 C   0  0  0  0  0  0  0  0  0  0  0  0
   -2.1701    1.3020   -1.9655 C   0  0  0  0  0  0  0  0  0  0  0  0
   -3.3695    0.6581   -2.2862 C   0  0  0  0  0  0  0  0  0  0  0  0
   -3.3789   -0.3156   -3.2848 C   0  0  0  0  0  0  0  0  0  0  0  0
   -2.2005   -0.6322   -3.9631 C   0  0  0  0  0  0  0  0  0  0  0  0
   -1.0106    0.0295   -3.6547 C   0  0  0  0  0  0  0  0  0  0  0  0
   -0.9930    1.0066   -2.6602 C   0  0  0  0  0  0  0  0  0  0  0  0
   -2.6683    1.3694    1.1901 H   0  0  0  0  0  0  0  0  0  0  0  0
    0.6420    2.5480    0.8244 H   0  0  0  0  0  0  0  0  0  0  0  0
    5.1066   -0.7641    4.5644 H   0  0  0  0  0  0  0  0  0  0  0  0
    5.2605    1.7882    5.0410 H   0  0  0  0  0  0  0  0  0  0  0  0
    3.4756   -1.0032    1.3330 H   0  0  0  0  0  0  0  0  0  0  0  0
    1.2080   -3.3631    0.7107 H   0  0  0  0  0  0  0  0  0  0  0  0
   -0.9735   -4.4853    0.6035 H   0  0  0  0  0  0  0  0  0  0  0  0
   -3.0610   -3.1454    0.5689 H   0  0  0  0  0  0  0  0  0  0  0  0
   -2.9616   -0.7101    0.6419 H   0  0  0  0  0  0  0  0  0  0  0  0
   -4.2932    0.9075   -1.7696 H   0  0  0  0  0  0  0  0  0  0  0  0
   -4.3044   -0.8261   -3.5395 H   0  0  0  0  0  0  0  0  0  0  0  0
   -2.2098   -1.3927   -4.7405 H   0  0  0  0  0  0  0  0  0  0  0  0
   -0.0971   -0.2158   -4.1912 H   0  0  0  0  0  0  0  0  0  0  0  0
   -0.0638    1.5233   -2.4296 H   0  0  0  0  0  0  0  0  0  0  0  0
  1  2  2  0
  2  3  2  0
  2  4  1  0
  4  5  1  0
  5  6  2  0
  6  7  1  0
  7  8  1  0
  8  9  1  0
  9 10  1  0
 10 11  2  0
 11 12  1  0
 12 13  1  0
  7 14  2  0
 14 15  1  0
 14 16  1  0
 16 17  2  0
 17 18  1  0
 18 19  2  0
 19 20  1  0
 20 21  2  0
  2 22  1  0
 22 23  2  0
 23 24  1  0
 24 25  2  0
 25 26  1  0
 26 27  2  0
 21  5  1  0
 27 22  1  0
 13  9  2  0
 21 16  1  0
  4 28  1  0
  6 29  1  0
 11 30  1  0
 12 31  1  0
 15 32  1  0
 17 33  1  0
 18 34  1  0
 19 35  1  0
 20 36  1  0
 23 37  1  0
 24 38  1  0
 25 39  1  0
 26 40  1  0
 27 41  1  0
M  END
$$$$
