
     RDKit          3D

 50 53  0  0  0  0  0  0  0  0999 V2000
   -5.1149   -1.5315    5.3083 C   0  0  0  0  0  0  0  0  0  0  0  0
   -4.2865   -1.3780    4.0665 C   0  0  0  0  0  0  0  0  0  0  0  0
   -3.5503   -2.4591    3.5732 C   0  0  0  0  0  0  0  0  0  0  0  0
   -2.7505   -2.3118    2.4365 C   0  0  0  0  0  0  0  0  0  0  0  0
   -2.6779   -1.0800    1.7635 C   0  0  0  0  0  0  0  0  0  0  0  0
   -1.8422   -0.9778    0.6084 N   0  0  0  0  0  0  0  0  0  0  0  0
   -0.8954   -1.9337    0.4085 N   0  0  0  0  0  0  0  0  0  0  0  0
   -0.1473   -1.4812   -0.5979 C   0  0  0  0  0  0  0  0  0  0  0  0
    1.0497   -2.1150   -1.1324 C   0  0  0  0  0  0  0  0  0  0  0  0
    1.5456   -3.1375   -0.6673 O   0  0  0  0  0  0  0  0  0  0  0  0
    1.5834   -1.4218   -2.2376 N   0  0  0  0  0  0  0  0  0  0  0  0
    2.8184   -1.9273   -2.8401 C   0  0  0  0  0  0  0  0  0  0  0  0
    4.0463   -1.2745   -2.2043 C   0  0  0  0  0  0  0  0  0  0  0  0
    5.1348   -1.8371   -2.1274 O   0  0  0  0  0  0  0  0  0  0  0  0
    3.8652    0.0447   -1.8583 N   0  0  0  0  0  0  0  0  0  0  0  0
    4.9005    0.8323   -1.2452 C   0  0  0  0  0  0  0  0  0  0  0  0
    4.3940    2.2336   -1.1007 C   0  0  0  0  0  0  0  0  0  0  0  0
    3.7342    2.7966   -0.0230 C   0  0  0  0  0  0  0  0  0  0  0  0
    3.3959    4.1616   -0.2492 C   0  0  0  0  0  0  0  0  0  0  0  0
    3.8012    4.5962   -1.4912 C   0  0  0  0  0  0  0  0  0  0  0  0
    4.5902    3.3616   -2.3764 S   0  0  0  0  0  0  0  0  0  0  0  0
    1.0814   -0.2146   -2.7511 N   0  0  0  0  0  0  0  0  0  0  0  0
    0.0123    0.3392   -2.2454 C   0  0  0  0  0  0  0  0  0  0  0  0
   -0.4728    1.6306   -2.8406 C   0  0  0  0  0  0  0  0  0  0  0  0
   -0.6546   -0.2943   -1.1349 C   0  0  0  0  0  0  0  0  0  0  0  0
   -1.8038   -0.0180   -0.4116 C   0  0  0  0  0  0  0  0  0  0  0  0
   -2.8522    1.0092   -0.6408 C   0  0  0  0  0  0  0  0  0  0  0  0
   -3.3857    0.0107    2.2814 C   0  0  0  0  0  0  0  0  0  0  0  0
   -4.1835   -0.1393    3.4230 C   0  0  0  0  0  0  0  0  0  0  0  0
   -4.4803   -1.4443    6.1968 H   0  0  0  0  0  0  0  0  0  0  0  0
   -5.8948   -0.7637    5.3596 H   0  0  0  0  0  0  0  0  0  0  0  0
   -5.6154   -2.5078    5.3213 H   0  0  0  0  0  0  0  0  0  0  0  0
   -3.5835   -3.4232    4.0751 H   0  0  0  0  0  0  0  0  0  0  0  0
   -2.1925   -3.1774    2.0818 H   0  0  0  0  0  0  0  0  0  0  0  0
    2.8107   -1.7029   -3.9108 H   0  0  0  0  0  0  0  0  0  0  0  0
    2.8854   -3.0100   -2.7007 H   0  0  0  0  0  0  0  0  0  0  0  0
    2.9335    0.4333   -1.9851 H   0  0  0  0  0  0  0  0  0  0  0  0
    5.1163    0.3991   -0.2587 H   0  0  0  0  0  0  0  0  0  0  0  0
    5.8180    0.7668   -1.8480 H   0  0  0  0  0  0  0  0  0  0  0  0
    3.5106    2.2523    0.8858 H   0  0  0  0  0  0  0  0  0  0  0  0
    2.8847    4.7898    0.4665 H   0  0  0  0  0  0  0  0  0  0  0  0
    3.6729    5.5816   -1.9232 H   0  0  0  0  0  0  0  0  0  0  0  0
    0.2737    2.0359   -3.5266 H   0  0  0  0  0  0  0  0  0  0  0  0
   -0.6543    2.3671   -2.0523 H   0  0  0  0  0  0  0  0  0  0  0  0
   -1.3954    1.4510   -3.4016 H   0  0  0  0  0  0  0  0  0  0  0  0
   -2.9314    1.2610   -1.7012 H   0  0  0  0  0  0  0  0  0  0  0  0
   -3.8445    0.6510   -0.3517 H   0  0  0  0  0  0  0  0  0  0  0  0
   -2.6203    1.9273   -0.0947 H   0  0  0  0  0  0  0  0  0  0  0  0
   -3.3103    1.0051    1.8610 H   0  0  0  0  0  0  0  0  0  0  0  0
   -4.7184    0.7247    3.8129 H   0  0  0  0  0  0  0  0  0  0  0  0
  1  2  1  0
  2  3  2  0
  3  4  1  0
  4  5  2  0
  5  6  1  0
  6  7  1  0
  7  8  2  0
  8  9  1  0
  9 10  2  0
  9 11  1  0
 11 12  1  0
 12 13  1  0
 13 14  2  0
 13 15  1  0
 15 16  1  0
 16 17  1  0
 17 18  2  0
 18 19  1  0
 19 20  2  0
 20 21  1  0
 11 22  1  0
 22 23  2  0
 23 24  1  0
 23 25  1  0
 25 26  2  0
 26 27  1  0
  5 28  1  0
 28 29  2  0
 29  2  1  0
 26  6  1  0
 25  8  1  0
 21 17  1  0
  1 30  1  0
  1 31  1  0
  1 32  1  0
  3 33  1  0
  4 34  1  0
 12 35  1  0
 12 36  1  0
 15 37  1  0
 16 38  1  0
 16 39  1  0
 18 40  1  0
 19 41  1  0
 20 42  1  0
 24 43  1  0
 24 44  1  0
 24 45  1  0
 27 46  1  0
 27 47  1  0
 27 48  1  0
 28 49  1  0
 29 50  1  0
M  END
$$$$
