
     RDKit          3D

 48 49  0  0  0  0  0  0  0  0999 V2000
   -7.5017   -1.2289    1.9790 C   0  0  0  0  0  0  0  0  0  0  0  0
   -6.8169   -0.4653    0.8839 C   0  0  0  0  0  0  0  0  0  0  0  0
   -7.5568    0.2975   -0.0186 C   0  0  0  0  0  0  0  0  0  0  0  0
   -6.9084    1.0274   -1.0130 C   0  0  0  0  0  0  0  0  0  0  0  0
   -5.5068    1.0181   -1.1197 C   0  0  0  0  0  0  0  0  0  0  0  0
   -4.8742    1.8294   -2.2190 C   0  0  0  0  0  0  0  0  0  0  0  0
   -4.7470    0.2613   -0.2006 C   0  0  0  0  0  0  0  0  0  0  0  0
   -3.3360    0.2689   -0.3157 N   0  0  0  0  0  0  0  0  0  0  0  0
   -2.4087   -0.3978    0.4680 C   0  0  0  0  0  0  0  0  0  0  0  0
   -2.6357   -1.1321    1.4224 O   0  0  0  0  0  0  0  0  0  0  0  0
   -0.9917   -0.1159    0.0041 C   0  0  0  0  0  0  0  0  0  0  0  0
    0.0361   -0.8467    0.8596 C   0  0  0  0  0  0  0  0  0  0  0  0
    1.4494   -0.5657    0.3945 C   0  0  0  0  0  0  0  0  0  0  0  0
    1.6991    0.1534   -0.5685 O   0  0  0  0  0  0  0  0  0  0  0  0
    2.3903   -1.2191    1.1918 N   0  0  0  0  0  0  0  0  0  0  0  0
    3.7341   -1.2744    0.9192 N   0  0  0  0  0  0  0  0  0  0  0  0
    4.2969   -0.1973    0.4629 C   0  0  0  0  0  0  0  0  0  0  0  0
    5.7276   -0.1835    0.0874 C   0  0  0  0  0  0  0  0  0  0  0  0
    6.2681    1.0167   -0.3874 C   0  0  0  0  0  0  0  0  0  0  0  0
    7.6223    1.0617   -0.7519 C   0  0  0  0  0  0  0  0  0  0  0  0
    8.1977    2.3184   -1.2486 N   0  0  0  0  0  4  0  0  0  0  0  0
    9.3838    2.3090   -1.6054 O   0  0  0  0  0  0  0  0  0  0  0  0
    7.4609    3.3141   -1.2783 O   0  0  0  0  0  1  0  0  0  0  0  0
    8.4331   -0.0773   -0.6464 C   0  0  0  0  0  0  0  0  0  0  0  0
    7.8836   -1.2700   -0.1731 C   0  0  0  0  0  0  0  0  0  0  0  0
    6.5388   -1.3218    0.1904 C   0  0  0  0  0  0  0  0  0  0  0  0
    6.0791   -2.5281    0.6412 O   0  0  0  0  0  0  0  0  0  0  0  0
   -5.4162   -0.4663    0.7925 C   0  0  0  0  0  0  0  0  0  0  0  0
   -8.5182   -1.5106    1.6848 H   0  0  0  0  0  0  0  0  0  0  0  0
   -6.9617   -2.1545    2.2047 H   0  0  0  0  0  0  0  0  0  0  0  0
   -7.5538   -0.6175    2.8851 H   0  0  0  0  0  0  0  0  0  0  0  0
   -8.6421    0.3282    0.0451 H   0  0  0  0  0  0  0  0  0  0  0  0
   -7.5101    1.6097   -1.7080 H   0  0  0  0  0  0  0  0  0  0  0  0
   -4.2963    1.1811   -2.8856 H   0  0  0  0  0  0  0  0  0  0  0  0
   -4.2213    2.5993   -1.7954 H   0  0  0  0  0  0  0  0  0  0  0  0
   -5.6264    2.3388   -2.8310 H   0  0  0  0  0  0  0  0  0  0  0  0
   -2.9561    0.8296   -1.0663 H   0  0  0  0  0  0  0  0  0  0  0  0
   -0.8196    0.9663    0.0514 H   0  0  0  0  0  0  0  0  0  0  0  0
   -0.9008   -0.4289   -1.0431 H   0  0  0  0  0  0  0  0  0  0  0  0
   -0.1356   -1.9288    0.8121 H   0  0  0  0  0  0  0  0  0  0  0  0
   -0.0527   -0.5342    1.9071 H   0  0  0  0  0  0  0  0  0  0  0  0
    2.0555   -1.9988    1.7536 H   0  0  0  0  0  0  0  0  0  0  0  0
    3.7564    0.7596    0.3582 H   0  0  0  0  0  0  0  0  0  0  0  0
    5.6397    1.9009   -0.4741 H   0  0  0  0  0  0  0  0  0  0  0  0
    9.4847   -0.0542   -0.9262 H   0  0  0  0  0  0  0  0  0  0  0  0
    8.5012   -2.1614   -0.0878 H   0  0  0  0  0  0  0  0  0  0  0  0
    5.1230   -2.4236    0.8425 H   0  0  0  0  0  0  0  0  0  0  0  0
   -4.8668   -1.0534    1.5219 H   0  0  0  0  0  0  0  0  0  0  0  0
  1  2  1  0
  2  3  2  0
  3  4  1  0
  4  5  2  0
  5  6  1  0
  5  7  1  0
  7  8  1  0
  8  9  1  0
  9 10  2  0
  9 11  1  0
 11 12  1  0
 12 13  1  0
 13 14  2  0
 13 15  1  0
 15 16  1  0
 16 17  2  3
 17 18  1  0
 18 19  2  0
 19 20  1  0
 20 21  1  0
 21 22  2  0
 21 23  1  0
 20 24  2  0
 24 25  1  0
 25 26  2  0
 26 27  1  0
  7 28  2  0
 28  2  1  0
 26 18  1  0
  1 29  1  0
  1 30  1  0
  1 31  1  0
  3 32  1  0
  4 33  1  0
  6 34  1  0
  6 35  1  0
  6 36  1  0
  8 37  1  0
 11 38  1  0
 11 39  1  0
 12 40  1  0
 12 41  1  0
 15 42  1  0
 17 43  1  0
 19 44  1  0
 24 45  1  0
 25 46  1  0
 27 47  1  0
 28 48  1  0
M  CHG  2  21   1  23  -1
M  END
$$$$
