
     RDKit          3D

 40 42  0  0  0  0  0  0  0  0999 V2000
   -2.3540    1.0428   -2.7649 C   0  0  0  0  0  0  0  0  0  0  0  0
   -3.6099    0.6461   -2.2258 O   0  0  0  0  0  0  0  0  0  0  0  0
   -3.5843   -0.3594   -1.2926 C   0  0  0  0  0  0  0  0  0  0  0  0
   -2.4588   -1.0762   -0.8821 C   0  0  0  0  0  0  0  0  0  0  0  0
   -2.5738   -2.0768    0.0970 C   0  0  0  0  0  0  0  0  0  0  0  0
   -1.4156   -2.8716    0.5219 C   0  0  0  0  0  0  0  0  0  0  0  0
   -0.2783   -2.4194    1.0705 C   0  0  0  0  0  0  0  0  0  0  0  0
    1.0101   -3.4948    1.5239 S   0  0  0  0  0  0  0  0  0  0  0  0
    2.0443   -2.1942    2.1134 C   0  0  0  0  0  0  0  0  0  0  0  0
    3.5450   -2.4606    2.7918 S   0  0  0  0  0  0  0  0  0  0  0  0
    1.3774   -1.0024    1.9268 N   0  0  0  0  0  0  0  0  0  0  0  0
    1.9521    0.2473    2.2691 N   0  0  0  0  0  0  0  0  0  0  0  0
    2.6058    0.8590    1.1568 C   0  0  0  0  0  0  0  0  0  0  0  0
    2.8457    0.1270    0.0366 N   0  0  0  0  0  0  0  0  0  0  0  0
    3.5166    0.7147   -0.9824 C   0  0  0  0  0  0  0  0  0  0  0  0
    3.9683    2.0250   -0.9618 C   0  0  0  0  0  0  0  0  0  0  0  0
    4.7176    2.5783   -2.1337 C   0  0  0  0  0  0  0  0  0  0  0  0
    6.0324    2.2340   -2.1161 F   0  0  0  0  0  0  0  0  0  0  0  0
    4.6836    3.9372   -2.1958 F   0  0  0  0  0  0  0  0  0  0  0  0
    4.2287    2.1390   -3.3254 F   0  0  0  0  0  0  0  0  0  0  0  0
    3.7264    2.7713    0.1943 C   0  0  0  0  0  0  0  0  0  0  0  0
    3.0435    2.1881    1.2617 C   0  0  0  0  0  0  0  0  0  0  0  0
    2.7459    3.1373    2.6723 Cl  0  0  0  0  0  0  0  0  0  0  0  0
    0.0924   -1.0129    1.4081 C   0  0  0  0  0  0  0  0  0  0  0  0
   -0.6219   -0.0270    1.2839 O   0  0  0  0  0  0  0  0  0  0  0  0
   -3.8313   -2.3757    0.6390 C   0  0  0  0  0  0  0  0  0  0  0  0
   -4.9608   -1.6705    0.2263 C   0  0  0  0  0  0  0  0  0  0  0  0
   -4.8260   -0.6730   -0.7294 C   0  0  0  0  0  0  0  0  0  0  0  0
   -5.9493    0.0049   -1.1188 O   0  0  0  0  0  0  0  0  0  0  0  0
   -1.6801    1.4031   -1.9799 H   0  0  0  0  0  0  0  0  0  0  0  0
   -2.5338    1.8729   -3.4550 H   0  0  0  0  0  0  0  0  0  0  0  0
   -1.8978    0.2275   -3.3363 H   0  0  0  0  0  0  0  0  0  0  0  0
   -1.4812   -0.8698   -1.3052 H   0  0  0  0  0  0  0  0  0  0  0  0
   -1.5461   -3.9424    0.3684 H   0  0  0  0  0  0  0  0  0  0  0  0
    1.2239    0.8930    2.5896 H   0  0  0  0  0  0  0  0  0  0  0  0
    3.6845    0.0710   -1.8447 H   0  0  0  0  0  0  0  0  0  0  0  0
    4.0708    3.8016    0.2643 H   0  0  0  0  0  0  0  0  0  0  0  0
   -3.9422   -3.1568    1.3876 H   0  0  0  0  0  0  0  0  0  0  0  0
   -5.9371   -1.8972    0.6425 H   0  0  0  0  0  0  0  0  0  0  0  0
   -5.6329    0.6596   -1.7709 H   0  0  0  0  0  0  0  0  0  0  0  0
  1  2  1  0
  2  3  1  0
  3  4  2  0
  4  5  1  0
  5  6  1  0
  6  7  2  3
  7  8  1  0
  8  9  1  0
  9 10  2  0
  9 11  1  0
 11 12  1  0
 12 13  1  0
 13 14  2  0
 14 15  1  0
 15 16  2  0
 16 17  1  0
 17 18  1  0
 17 19  1  0
 17 20  1  0
 16 21  1  0
 21 22  2  0
 22 23  1  0
 11 24  1  0
 24 25  2  0
  5 26  2  0
 26 27  1  0
 27 28  2  0
 28 29  1  0
 28  3  1  0
 24  7  1  0
 22 13  1  0
  1 30  1  0
  1 31  1  0
  1 32  1  0
  4 33  1  0
  6 34  1  0
 12 35  1  0
 15 36  1  0
 21 37  1  0
 26 38  1  0
 27 39  1  0
 29 40  1  0
M  END
$$$$
