
     RDKit          3D

 68 71  0  0  0  0  0  0  0  0999 V2000
   -3.7496   -4.8853   -3.7132 C   0  0  0  0  0  0  0  0  0  0  0  0
   -2.8759   -3.8247   -3.1122 C   0  0  0  0  0  0  0  0  0  0  0  0
   -1.6731   -4.1669   -2.4881 C   0  0  0  0  0  0  0  0  0  0  0  0
   -0.8430   -3.1750   -1.9607 C   0  0  0  0  0  0  0  0  0  0  0  0
   -1.1930   -1.8148   -2.0497 C   0  0  0  0  0  0  0  0  0  0  0  0
   -0.2561   -0.7698   -1.4389 C   0  0  0  0  0  0  0  0  0  0  0  0
   -0.4173    0.6624   -2.0408 C   0  0  0  0  0  0  0  0  0  0  0  0
   -0.0766    0.9161   -3.1982 O   0  0  0  0  0  0  0  0  0  0  0  0
   -1.0869    1.5984   -1.2799 N   0  0  0  0  0  0  0  0  0  0  0  0
   -1.4177    2.9155   -1.8017 C   0  0  0  0  0  0  0  0  0  0  0  0
   -2.6574    2.8823   -2.6940 C   0  0  0  0  0  0  0  0  0  0  0  0
   -3.8304    2.8668   -1.7173 C   0  0  0  0  0  0  0  0  0  0  0  0
   -3.3204    3.5258   -0.4352 C   0  0  0  0  0  0  0  0  0  0  0  0
   -1.8491    3.8594   -0.6822 C   0  0  0  0  0  0  0  0  0  0  0  0
   -0.1146   -0.8723    0.0477 N   0  0  0  0  0  0  0  0  0  0  0  0
    1.1896   -1.0154    0.5415 C   0  0  0  0  0  0  0  0  0  0  0  0
    2.1880   -0.8803   -0.1703 O   0  0  0  0  0  0  0  0  0  0  0  0
    1.3392   -1.4957    1.9860 C   0  0  0  0  0  0  0  0  0  0  0  0
    2.7874   -1.8793    2.2863 C   0  0  0  0  0  0  0  0  0  0  0  0
    3.6581   -0.6508    2.4985 C   0  0  0  0  0  0  0  0  0  0  0  0
    3.1987    0.4009    2.9356 O   0  0  0  0  0  0  0  0  0  0  0  0
    4.9813   -0.8941    2.2132 N   0  0  0  0  0  0  0  0  0  0  0  0
    6.0069    0.0134    2.3532 C   0  0  0  0  0  0  0  0  0  0  0  0
    5.9791    1.3346    2.8495 C   0  0  0  0  0  0  0  0  0  0  0  0
    7.2805    1.7633    2.7626 C   0  0  0  0  0  0  0  0  0  0  0  0
    7.9748    3.0189    3.0928 C   0  0  0  0  0  0  0  0  0  0  0  0
    8.0437    0.7652    2.2449 O   0  0  0  0  0  0  0  0  0  0  0  0
    7.2476   -0.3354    1.9898 N   0  0  0  0  0  0  0  0  0  0  0  0
   -1.2190   -0.5748    0.9047 C   0  0  0  0  0  0  0  0  0  0  0  0
   -1.1011    0.4473    1.8625 C   0  0  0  0  0  0  0  0  0  0  0  0
   -2.1810    0.8023    2.6744 C   0  0  0  0  0  0  0  0  0  0  0  0
   -3.3983    0.1436    2.5375 C   0  0  0  0  0  0  0  0  0  0  0  0
   -3.5319   -0.8692    1.5920 C   0  0  0  0  0  0  0  0  0  0  0  0
   -2.4494   -1.2245    0.7803 C   0  0  0  0  0  0  0  0  0  0  0  0
   -2.3924   -1.4788   -2.6963 C   0  0  0  0  0  0  0  0  0  0  0  0
   -3.2208   -2.4738   -3.2250 C   0  0  0  0  0  0  0  0  0  0  0  0
   -3.6703   -5.8223   -3.1516 H   0  0  0  0  0  0  0  0  0  0  0  0
   -4.8025   -4.5823   -3.6921 H   0  0  0  0  0  0  0  0  0  0  0  0
   -3.4552   -5.0689   -4.7506 H   0  0  0  0  0  0  0  0  0  0  0  0
   -1.3709   -5.2092   -2.4128 H   0  0  0  0  0  0  0  0  0  0  0  0
    0.0891   -3.4679   -1.4802 H   0  0  0  0  0  0  0  0  0  0  0  0
    0.7208   -1.0546   -1.8579 H   0  0  0  0  0  0  0  0  0  0  0  0
   -1.6421    1.2595   -0.5076 H   0  0  0  0  0  0  0  0  0  0  0  0
   -0.5466    3.3015   -2.3420 H   0  0  0  0  0  0  0  0  0  0  0  0
   -2.6863    2.0292   -3.3788 H   0  0  0  0  0  0  0  0  0  0  0  0
   -2.7013    3.7979   -3.2974 H   0  0  0  0  0  0  0  0  0  0  0  0
   -4.7014    3.3878   -2.1281 H   0  0  0  0  0  0  0  0  0  0  0  0
   -4.1352    1.8349   -1.5056 H   0  0  0  0  0  0  0  0  0  0  0  0
   -3.8949    4.4212   -0.1806 H   0  0  0  0  0  0  0  0  0  0  0  0
   -3.4184    2.8269    0.4023 H   0  0  0  0  0  0  0  0  0  0  0  0
   -1.7711    4.8979   -1.0245 H   0  0  0  0  0  0  0  0  0  0  0  0
   -1.2486    3.7567    0.2280 H   0  0  0  0  0  0  0  0  0  0  0  0
    1.0070   -0.7341    2.6923 H   0  0  0  0  0  0  0  0  0  0  0  0
    0.7102   -2.3853    2.1095 H   0  0  0  0  0  0  0  0  0  0  0  0
    2.8241   -2.4573    3.2167 H   0  0  0  0  0  0  0  0  0  0  0  0
    3.1985   -2.5085    1.4896 H   0  0  0  0  0  0  0  0  0  0  0  0
    5.2675   -1.7681    1.7943 H   0  0  0  0  0  0  0  0  0  0  0  0
    5.1347    1.8988    3.2162 H   0  0  0  0  0  0  0  0  0  0  0  0
    8.9467    2.8171    3.5543 H   0  0  0  0  0  0  0  0  0  0  0  0
    8.1395    3.6127    2.1886 H   0  0  0  0  0  0  0  0  0  0  0  0
    7.3868    3.6189    3.7946 H   0  0  0  0  0  0  0  0  0  0  0  0
   -0.1777    1.0178    1.9586 H   0  0  0  0  0  0  0  0  0  0  0  0
   -2.0715    1.5998    3.4060 H   0  0  0  0  0  0  0  0  0  0  0  0
   -4.2414    0.4159    3.1678 H   0  0  0  0  0  0  0  0  0  0  0  0
   -4.4789   -1.3942    1.4891 H   0  0  0  0  0  0  0  0  0  0  0  0
   -2.5904   -2.0509    0.0920 H   0  0  0  0  0  0  0  0  0  0  0  0
   -2.7016   -0.4422   -2.8068 H   0  0  0  0  0  0  0  0  0  0  0  0
   -4.1388   -2.1838   -3.7324 H   0  0  0  0  0  0  0  0  0  0  0  0
  1  2  1  0
  2  3  2  0
  3  4  1  0
  4  5  2  0
  5  6  1  0
  6  7  1  0
  7  8  2  0
  7  9  1  0
  9 10  1  0
 10 11  1  0
 11 12  1  0
 12 13  1  0
 13 14  1  0
  6 15  1  0
 15 16  1  0
 16 17  2  0
 16 18  1  0
 18 19  1  0
 19 20  1  0
 20 21  2  0
 20 22  1  0
 22 23  1  0
 23 24  1  0
 24 25  2  0
 25 26  1  0
 25 27  1  0
 27 28  1  0
 15 29  1  0
 29 30  2  0
 30 31  1  0
 31 32  2  0
 32 33  1  0
 33 34  2  0
  5 35  1  0
 35 36  2  0
 36  2  1  0
 14 10  1  0
 28 23  2  0
 34 29  1  0
  1 37  1  0
  1 38  1  0
  1 39  1  0
  3 40  1  0
  4 41  1  0
  6 42  1  0
  9 43  1  0
 10 44  1  0
 11 45  1  0
 11 46  1  0
 12 47  1  0
 12 48  1  0
 13 49  1  0
 13 50  1  0
 14 51  1  0
 14 52  1  0
 18 53  1  0
 18 54  1  0
 19 55  1  0
 19 56  1  0
 22 57  1  0
 24 58  1  0
 26 59  1  0
 26 60  1  0
 26 61  1  0
 30 62  1  0
 31 63  1  0
 32 64  1  0
 33 65  1  0
 34 66  1  0
 35 67  1  0
 36 68  1  0
M  END
$$$$
