
     RDKit          3D

 54 57  0  0  0  0  0  0  0  0999 V2000
   -2.0999   -5.8954    1.6726 C   0  0  0  0  0  0  0  0  0  0  0  0
   -2.9694   -5.0276    0.9557 O   0  0  0  0  0  0  0  0  0  0  0  0
   -2.6432   -3.6996    0.9388 C   0  0  0  0  0  0  0  0  0  0  0  0
   -1.5084   -3.1262    1.5179 C   0  0  0  0  0  0  0  0  0  0  0  0
   -1.2931   -1.7480    1.4226 C   0  0  0  0  0  0  0  0  0  0  0  0
   -2.2057   -0.9485    0.7300 C   0  0  0  0  0  0  0  0  0  0  0  0
   -1.9717    0.5111    0.6591 C   0  0  0  0  0  0  0  0  0  0  0  0
   -2.0839    1.1747    1.7660 N   0  0  0  0  0  0  0  0  0  0  0  0
   -1.8777    2.5562    1.7469 C   0  0  0  0  0  0  0  0  0  0  0  0
   -1.9873    3.2704    2.9428 C   0  0  0  0  0  0  0  0  0  0  0  0
   -1.7917    4.6541    2.9680 C   0  0  0  0  0  0  0  0  0  0  0  0
   -1.4841    5.3368    1.7919 C   0  0  0  0  0  0  0  0  0  0  0  0
   -1.3730    4.6343    0.5927 C   0  0  0  0  0  0  0  0  0  0  0  0
   -1.5718    3.2476    0.5802 C   0  0  0  0  0  0  0  0  0  0  0  0
   -1.4532    2.4728   -0.6656 C   0  0  0  0  0  0  0  0  0  0  0  0
   -1.2047    3.0684   -1.7120 O   0  0  0  0  0  0  0  0  0  0  0  0
   -1.6460    1.0923   -0.5655 N   0  0  0  0  0  0  0  0  0  0  0  0
   -1.3656    0.3104   -1.7834 C   0  0  0  0  0  0  0  0  0  0  0  0
    0.0409   -0.3050   -1.7818 C   0  0  0  0  0  0  0  0  0  0  0  0
    1.0135    0.7397   -1.7623 O   0  0  0  0  0  0  0  0  0  0  0  0
    2.2803    0.3875   -1.3788 C   0  0  0  0  0  0  0  0  0  0  0  0
    2.8211   -0.8923   -1.5464 C   0  0  0  0  0  0  0  0  0  0  0  0
    4.1287   -1.1771   -1.1284 C   0  0  0  0  0  0  0  0  0  0  0  0
    4.7126   -2.5424   -1.3410 C   0  0  0  0  0  0  0  0  0  0  0  0
    4.9023   -0.1558   -0.5697 C   0  0  0  0  0  0  0  0  0  0  0  0
    4.3739    1.1267   -0.4163 C   0  0  0  0  0  0  0  0  0  0  0  0
    3.0646    1.4124   -0.8259 C   0  0  0  0  0  0  0  0  0  0  0  0
    2.5059    2.7964   -0.6431 C   0  0  0  0  0  0  0  0  0  0  0  0
   -3.3578   -1.5063    0.1751 C   0  0  0  0  0  0  0  0  0  0  0  0
   -3.5650   -2.8833    0.2729 C   0  0  0  0  0  0  0  0  0  0  0  0
   -2.5105   -6.9076    1.6083 H   0  0  0  0  0  0  0  0  0  0  0  0
   -2.0530   -5.6215    2.7318 H   0  0  0  0  0  0  0  0  0  0  0  0
   -1.1017   -5.9118    1.2230 H   0  0  0  0  0  0  0  0  0  0  0  0
   -0.7769   -3.7200    2.0561 H   0  0  0  0  0  0  0  0  0  0  0  0
   -0.4179   -1.2999    1.8883 H   0  0  0  0  0  0  0  0  0  0  0  0
   -2.2280    2.7395    3.8604 H   0  0  0  0  0  0  0  0  0  0  0  0
   -1.8802    5.1962    3.9062 H   0  0  0  0  0  0  0  0  0  0  0  0
   -1.3311    6.4130    1.8087 H   0  0  0  0  0  0  0  0  0  0  0  0
   -1.1312    5.1618   -0.3271 H   0  0  0  0  0  0  0  0  0  0  0  0
   -1.4693    0.9555   -2.6630 H   0  0  0  0  0  0  0  0  0  0  0  0
   -2.1082   -0.4832   -1.8918 H   0  0  0  0  0  0  0  0  0  0  0  0
    0.1622   -0.9613   -0.9142 H   0  0  0  0  0  0  0  0  0  0  0  0
    0.1658   -0.8929   -2.6985 H   0  0  0  0  0  0  0  0  0  0  0  0
    2.2435   -1.6811   -2.0179 H   0  0  0  0  0  0  0  0  0  0  0  0
    5.1601   -2.6069   -2.3376 H   0  0  0  0  0  0  0  0  0  0  0  0
    3.9418   -3.3145   -1.2471 H   0  0  0  0  0  0  0  0  0  0  0  0
    5.4824   -2.7603   -0.5932 H   0  0  0  0  0  0  0  0  0  0  0  0
    5.9254   -0.3490   -0.2551 H   0  0  0  0  0  0  0  0  0  0  0  0
    4.9939    1.9058    0.0212 H   0  0  0  0  0  0  0  0  0  0  0  0
    3.2784    3.5000   -0.3154 H   0  0  0  0  0  0  0  0  0  0  0  0
    2.0994    3.1750   -1.5866 H   0  0  0  0  0  0  0  0  0  0  0  0
    1.7169    2.7852    0.1152 H   0  0  0  0  0  0  0  0  0  0  0  0
   -4.0941   -0.8800   -0.3211 H   0  0  0  0  0  0  0  0  0  0  0  0
   -4.4582   -3.3264   -0.1618 H   0  0  0  0  0  0  0  0  0  0  0  0
  1  2  1  0
  2  3  1  0
  3  4  2  0
  4  5  1  0
  5  6  2  0
  6  7  1  0
  7  8  2  0
  8  9  1  0
  9 10  2  0
 10 11  1  0
 11 12  2  0
 12 13  1  0
 13 14  2  0
 14 15  1  0
 15 16  2  0
 15 17  1  0
 17 18  1  0
 18 19  1  0
 19 20  1  0
 20 21  1  0
 21 22  2  0
 22 23  1  0
 23 24  1  0
 23 25  2  0
 25 26  1  0
 26 27  2  0
 27 28  1  0
  6 29  1  0
 29 30  2  0
 30  3  1  0
 17  7  1  0
 27 21  1  0
 14  9  1  0
  1 31  1  0
  1 32  1  0
  1 33  1  0
  4 34  1  0
  5 35  1  0
 10 36  1  0
 11 37  1  0
 12 38  1  0
 13 39  1  0
 18 40  1  0
 18 41  1  0
 19 42  1  0
 19 43  1  0
 22 44  1  0
 24 45  1  0
 24 46  1  0
 24 47  1  0
 25 48  1  0
 26 49  1  0
 28 50  1  0
 28 51  1  0
 28 52  1  0
 29 53  1  0
 30 54  1  0
M  END
$$$$
