
     RDKit          3D

 59 64  0  0  0  0  0  0  0  0999 V2000
   -4.9177    2.7251    1.7459 C   0  0  0  0  0  0  0  0  0  0  0  0
   -4.4832    1.3691    1.8566 O   0  0  0  0  0  0  0  0  0  0  0  0
   -5.2716    0.5330    1.0958 C   0  0  0  0  0  0  0  0  0  0  0  0
   -6.6082    0.3530    1.4858 C   0  0  0  0  0  0  0  0  0  0  0  0
   -7.4523   -0.4555    0.7323 C   0  0  0  0  0  0  0  0  0  0  0  0
   -6.9564   -1.0891   -0.4003 C   0  0  0  0  0  0  0  0  0  0  0  0
   -5.6142   -0.9257   -0.7686 C   0  0  0  0  0  0  0  0  0  0  0  0
   -4.7191   -0.1320   -0.0256 C   0  0  0  0  0  0  0  0  0  0  0  0
   -3.3872   -0.0047   -0.4101 N   0  0  0  0  0  0  0  0  0  0  0  0
   -2.3301    0.1334    0.6158 C   0  0  0  0  0  0  0  0  0  0  0  0
   -1.0518   -0.6584    0.2492 C   0  0  0  0  0  0  0  0  0  0  0  0
   -0.5114   -0.3223   -1.1028 N   0  0  0  0  0  0  0  0  0  0  0  0
    0.7591    0.1987   -1.1539 C   0  0  0  0  0  0  0  0  0  0  0  0
    1.1777    1.4390   -1.6047 C   0  0  0  0  0  0  0  0  0  0  0  0
    2.5358    1.6010   -1.2572 C   0  0  0  0  0  0  0  0  0  0  0  0
    2.9440    0.4407   -0.6292 C   0  0  0  0  0  0  0  0  0  0  0  0
    4.2015    0.0493   -0.0276 C   0  0  0  0  0  0  0  0  0  0  0  0
    5.2881    1.0406    0.1990 C   0  0  0  0  0  0  0  0  0  0  0  0
    6.6061    0.6712   -0.0994 C   0  0  0  0  0  0  0  0  0  0  0  0
    7.6515    1.5687    0.1195 C   0  0  0  0  0  0  0  0  0  0  0  0
    7.3841    2.8332    0.6440 C   0  0  0  0  0  0  0  0  0  0  0  0
    6.0755    3.1966    0.9620 C   0  0  0  0  0  0  0  0  0  0  0  0
    5.0262    2.3003    0.7475 C   0  0  0  0  0  0  0  0  0  0  0  0
    4.4123   -1.1842    0.3250 N   0  0  0  0  0  0  0  0  0  0  0  0
    3.4065   -2.1450    0.1065 C   0  0  0  0  0  0  0  0  0  0  0  0
    3.7004   -3.4735    0.4252 C   0  0  0  0  0  0  0  0  0  0  0  0
    2.7708   -4.4871    0.1892 C   0  0  0  0  0  0  0  0  0  0  0  0
    1.5404   -4.1792   -0.3864 C   0  0  0  0  0  0  0  0  0  0  0  0
    1.2276   -2.8566   -0.7069 C   0  0  0  0  0  0  0  0  0  0  0  0
    2.1447   -1.8392   -0.4302 C   0  0  0  0  0  0  0  0  0  0  0  0
    1.9075   -0.4743   -0.7259 N   0  0  0  0  0  0  0  0  0  0  0  0
   -1.5305    0.2125   -2.0387 C   0  0  0  0  0  0  0  0  0  0  0  0
   -2.9294   -0.3769   -1.7601 C   0  0  0  0  0  0  0  0  0  0  0  0
   -5.7149    2.9234    2.4730 H   0  0  0  0  0  0  0  0  0  0  0  0
   -5.2479    2.9809    0.7297 H   0  0  0  0  0  0  0  0  0  0  0  0
   -4.0656    3.3661    1.9949 H   0  0  0  0  0  0  0  0  0  0  0  0
   -6.9879    0.8405    2.3795 H   0  0  0  0  0  0  0  0  0  0  0  0
   -8.4875   -0.5947    1.0305 H   0  0  0  0  0  0  0  0  0  0  0  0
   -7.6044   -1.7272   -0.9977 H   0  0  0  0  0  0  0  0  0  0  0  0
   -5.2742   -1.4673   -1.6465 H   0  0  0  0  0  0  0  0  0  0  0  0
   -2.6632   -0.2474    1.5885 H   0  0  0  0  0  0  0  0  0  0  0  0
   -2.0780    1.1952    0.7246 H   0  0  0  0  0  0  0  0  0  0  0  0
   -1.2968   -1.7278    0.2583 H   0  0  0  0  0  0  0  0  0  0  0  0
   -0.3021   -0.4959    1.0337 H   0  0  0  0  0  0  0  0  0  0  0  0
    0.5496    2.1923   -2.0596 H   0  0  0  0  0  0  0  0  0  0  0  0
    3.1366    2.4837   -1.4306 H   0  0  0  0  0  0  0  0  0  0  0  0
    6.8184   -0.3178   -0.5009 H   0  0  0  0  0  0  0  0  0  0  0  0
    8.6738    1.2802   -0.1107 H   0  0  0  0  0  0  0  0  0  0  0  0
    8.2005    3.5306    0.8171 H   0  0  0  0  0  0  0  0  0  0  0  0
    5.8741    4.1757    1.3879 H   0  0  0  0  0  0  0  0  0  0  0  0
    4.0164    2.5841    1.0302 H   0  0  0  0  0  0  0  0  0  0  0  0
    4.6708   -3.7155    0.8517 H   0  0  0  0  0  0  0  0  0  0  0  0
    3.0182   -5.5155    0.4374 H   0  0  0  0  0  0  0  0  0  0  0  0
    0.8276   -4.9718   -0.5978 H   0  0  0  0  0  0  0  0  0  0  0  0
    0.2840   -2.6552   -1.2013 H   0  0  0  0  0  0  0  0  0  0  0  0
   -1.5946    1.3046   -1.9521 H   0  0  0  0  0  0  0  0  0  0  0  0
   -1.2362   -0.0313   -3.0664 H   0  0  0  0  0  0  0  0  0  0  0  0
   -3.6192    0.0175   -2.5171 H   0  0  0  0  0  0  0  0  0  0  0  0
   -2.8944   -1.4693   -1.8547 H   0  0  0  0  0  0  0  0  0  0  0  0
  1  2  1  0
  2  3  1  0
  3  4  2  0
  4  5  1  0
  5  6  2  0
  6  7  1  0
  7  8  2  0
  8  9  1  0
  9 10  1  0
 10 11  1  0
 11 12  1  0
 12 13  1  0
 13 14  2  0
 14 15  1  0
 15 16  2  0
 16 17  1  0
 17 18  1  0
 18 19  2  0
 19 20  1  0
 20 21  2  0
 21 22  1  0
 22 23  2  0
 17 24  2  0
 24 25  1  0
 25 26  2  0
 26 27  1  0
 27 28  2  0
 28 29  1  0
 29 30  2  0
 30 31  1  0
 12 32  1  0
 32 33  1  0
  8  3  1  0
 33  9  1  0
 31 13  1  0
 31 16  1  0
 23 18  1  0
 30 25  1  0
  1 34  1  0
  1 35  1  0
  1 36  1  0
  4 37  1  0
  5 38  1  0
  6 39  1  0
  7 40  1  0
 10 41  1  0
 10 42  1  0
 11 43  1  0
 11 44  1  0
 14 45  1  0
 15 46  1  0
 19 47  1  0
 20 48  1  0
 21 49  1  0
 22 50  1  0
 23 51  1  0
 26 52  1  0
 27 53  1  0
 28 54  1  0
 29 55  1  0
 32 56  1  0
 32 57  1  0
 33 58  1  0
 33 59  1  0
M  END
$$$$
