
     RDKit          3D

 54 57  0  0  0  0  0  0  0  0999 V2000
    9.1439   -2.1997    0.8861 C   0  0  0  0  0  0  0  0  0  0  0  0
    8.4495   -1.0462    1.6152 C   0  0  0  0  0  0  0  0  0  0  0  0
    9.3464    0.1925    1.6546 C   0  0  0  0  0  0  0  0  0  0  0  0
    7.0955   -0.7329    1.0044 C   0  0  0  0  0  0  0  0  0  0  0  0
    5.9343   -0.8609    1.7784 C   0  0  0  0  0  0  0  0  0  0  0  0
    4.6725   -0.5776    1.2404 C   0  0  0  0  0  0  0  0  0  0  0  0
    4.5450   -0.1582   -0.0828 C   0  0  0  0  0  0  0  0  0  0  0  0
    3.3157    0.1549   -0.6996 N   0  0  0  0  0  0  0  0  0  0  0  0
    2.0449    0.0750   -0.1443 C   0  0  0  0  0  0  0  0  0  0  0  0
    1.7687   -0.3111    0.9872 O   0  0  0  0  0  0  0  0  0  0  0  0
    0.9679    0.5417   -1.1278 C   0  0  0  0  0  0  0  0  0  0  0  0
   -0.3381    0.3533   -0.5869 O   0  0  0  0  0  0  0  0  0  0  0  0
   -1.3320    0.8140   -1.3774 C   0  0  0  0  0  0  0  0  0  0  0  0
   -1.1886    1.3428   -2.4684 O   0  0  0  0  0  0  0  0  0  0  0  0
   -2.6563    0.5864   -0.7384 C   0  0  0  0  0  0  0  0  0  0  0  0
   -2.7891    0.0452    0.5462 C   0  0  0  0  0  0  0  0  0  0  0  0
   -4.0602   -0.1433    1.1042 C   0  0  0  0  0  0  0  0  0  0  0  0
   -5.2203    0.2013    0.3916 C   0  0  0  0  0  0  0  0  0  0  0  0
   -5.0735    0.7387   -0.8787 C   0  0  0  0  0  0  0  0  0  0  0  0
   -3.8074    0.9352   -1.4523 C   0  0  0  0  0  0  0  0  0  0  0  0
   -6.4785    1.1978   -1.8131 S   0  0  0  0  0  6  0  0  0  0  0  0
   -6.4363    0.4034   -3.0245 O   0  0  0  0  0  0  0  0  0  0  0  0
   -6.4900    2.6459   -1.8456 O   0  0  0  0  0  0  0  0  0  0  0  0
   -7.9158    0.7080   -0.9483 C   0  0  0  0  0  0  0  0  0  0  0  0
   -9.1559    0.8725   -1.5813 C   0  0  0  0  0  0  0  0  0  0  0  0
  -10.3232    0.5063   -0.9161 C   0  0  0  0  0  0  0  0  0  0  0  0
  -10.2485   -0.0192    0.3714 C   0  0  0  0  0  0  0  0  0  0  0  0
   -9.0060   -0.1820    0.9914 C   0  0  0  0  0  0  0  0  0  0  0  0
   -7.8204    0.1792    0.3315 C   0  0  0  0  0  0  0  0  0  0  0  0
   -6.5345   -0.0258    1.0384 C   0  0  0  0  0  0  0  0  0  0  0  0
   -6.5560   -0.4092    2.2045 O   0  0  0  0  0  0  0  0  0  0  0  0
    5.7018   -0.0268   -0.8601 C   0  0  0  0  0  0  0  0  0  0  0  0
    6.9628   -0.3111   -0.3242 C   0  0  0  0  0  0  0  0  0  0  0  0
   10.0739   -2.4726    1.3964 H   0  0  0  0  0  0  0  0  0  0  0  0
    9.3969   -1.9385   -0.1473 H   0  0  0  0  0  0  0  0  0  0  0  0
    8.5029   -3.0885    0.8593 H   0  0  0  0  0  0  0  0  0  0  0  0
    8.2979   -1.3682    2.6539 H   0  0  0  0  0  0  0  0  0  0  0  0
    8.8555    1.0150    2.1857 H   0  0  0  0  0  0  0  0  0  0  0  0
    9.5980    0.5487    0.6496 H   0  0  0  0  0  0  0  0  0  0  0  0
   10.2859   -0.0288    2.1729 H   0  0  0  0  0  0  0  0  0  0  0  0
    5.9956   -1.1829    2.8167 H   0  0  0  0  0  0  0  0  0  0  0  0
    3.8107   -0.6919    1.8912 H   0  0  0  0  0  0  0  0  0  0  0  0
    3.3774    0.4676   -1.6609 H   0  0  0  0  0  0  0  0  0  0  0  0
    1.1380    1.6070   -1.3275 H   0  0  0  0  0  0  0  0  0  0  0  0
    1.0669   -0.0406   -2.0514 H   0  0  0  0  0  0  0  0  0  0  0  0
   -1.9136   -0.2333    1.1318 H   0  0  0  0  0  0  0  0  0  0  0  0
   -4.1342   -0.5646    2.1073 H   0  0  0  0  0  0  0  0  0  0  0  0
   -3.7226    1.3617   -2.4523 H   0  0  0  0  0  0  0  0  0  0  0  0
   -9.2137    1.2871   -2.5865 H   0  0  0  0  0  0  0  0  0  0  0  0
  -11.2901    0.6329   -1.3988 H   0  0  0  0  0  0  0  0  0  0  0  0
  -11.1572   -0.3040    0.8968 H   0  0  0  0  0  0  0  0  0  0  0  0
   -8.9716   -0.5957    1.9992 H   0  0  0  0  0  0  0  0  0  0  0  0
    5.6447    0.2968   -1.8961 H   0  0  0  0  0  0  0  0  0  0  0  0
    7.8403   -0.1978   -0.9572 H   0  0  0  0  0  0  0  0  0  0  0  0
  1  2  1  0
  2  3  1  0
  2  4  1  0
  4  5  2  0
  5  6  1  0
  6  7  2  0
  7  8  1  0
  8  9  1  0
  9 10  2  0
  9 11  1  0
 11 12  1  0
 12 13  1  0
 13 14  2  0
 13 15  1  0
 15 16  2  0
 16 17  1  0
 17 18  2  0
 18 19  1  0
 19 20  2  0
 19 21  1  0
 21 22  2  0
 21 23  2  0
 21 24  1  0
 24 25  2  0
 25 26  1  0
 26 27  2  0
 27 28  1  0
 28 29  2  0
 29 30  1  0
 30 31  2  0
  7 32  1  0
 32 33  2  0
 33  4  1  0
 20 15  1  0
 29 24  1  0
 30 18  1  0
  1 34  1  0
  1 35  1  0
  1 36  1  0
  2 37  1  0
  3 38  1  0
  3 39  1  0
  3 40  1  0
  5 41  1  0
  6 42  1  0
  8 43  1  0
 11 44  1  0
 11 45  1  0
 16 46  1  0
 17 47  1  0
 20 48  1  0
 25 49  1  0
 26 50  1  0
 27 51  1  0
 28 52  1  0
 32 53  1  0
 33 54  1  0
M  END
$$$$
