
     RDKit          3D

 50 52  0  0  0  0  0  0  0  0999 V2000
    7.7172    2.4374    0.2374 C   0  0  0  0  0  0  0  0  0  0  0  0
    7.1303    2.0181   -0.9884 O   0  0  0  0  0  0  0  0  0  0  0  0
    5.8166    1.6433   -0.9465 C   0  0  0  0  0  0  0  0  0  0  0  0
    4.9996    1.6322    0.1820 C   0  0  0  0  0  0  0  0  0  0  0  0
    3.6615    1.2223    0.0859 C   0  0  0  0  0  0  0  0  0  0  0  0
    3.1261    0.8182   -1.1372 C   0  0  0  0  0  0  0  0  0  0  0  0
    1.7943    0.3962   -1.3173 N   0  0  0  0  0  0  0  0  0  0  0  0
    0.8153    0.2344   -0.3464 C   0  0  0  0  0  0  0  0  0  0  0  0
    0.9560    0.4112    0.8644 O   0  0  0  0  0  0  0  0  0  0  0  0
   -0.5457   -0.2281   -0.9316 C   0  0  0  0  0  0  0  0  0  0  0  0
   -1.5562   -0.1657    0.1127 N   0  0  0  0  0  0  0  0  0  0  0  0
   -2.8371    0.2578   -0.1479 C   0  0  0  0  0  0  0  0  0  0  0  0
   -3.2246    0.5702   -1.2689 O   0  0  0  0  0  0  0  0  0  0  0  0
   -3.7515    0.3644    1.0229 C   0  0  0  0  0  0  0  0  0  0  0  0
   -3.5795   -0.4121    2.1750 C   0  0  0  0  0  0  0  0  0  0  0  0
   -4.4650   -0.2780    3.2489 C   0  0  0  0  0  0  0  0  0  0  0  0
   -5.5399    0.6167    3.1778 C   0  0  0  0  0  0  0  0  0  0  0  0
   -6.4691    0.7818    4.3443 C   0  0  0  0  0  0  0  0  0  0  0  0
   -5.7085    1.3904    2.0236 C   0  0  0  0  0  0  0  0  0  0  0  0
   -4.8260    1.2581    0.9487 C   0  0  0  0  0  0  0  0  0  0  0  0
   -0.4872   -1.6270   -1.5221 C   0  0  0  0  0  0  0  0  0  0  0  0
   -1.1859   -1.9070   -2.7076 C   0  0  0  0  0  0  0  0  0  0  0  0
   -1.1539   -3.1848   -3.2679 C   0  0  0  0  0  0  0  0  0  0  0  0
   -0.4330   -4.2014   -2.6458 C   0  0  0  0  0  0  0  0  0  0  0  0
    0.2468   -3.9449   -1.4570 C   0  0  0  0  0  0  0  0  0  0  0  0
    0.2144   -2.6683   -0.8927 C   0  0  0  0  0  0  0  0  0  0  0  0
    3.9492    0.8337   -2.2680 C   0  0  0  0  0  0  0  0  0  0  0  0
    5.2830    1.2421   -2.1709 C   0  0  0  0  0  0  0  0  0  0  0  0
    7.7153    1.6269    0.9737 H   0  0  0  0  0  0  0  0  0  0  0  0
    7.2180    3.3298    0.6293 H   0  0  0  0  0  0  0  0  0  0  0  0
    8.7599    2.7011    0.0356 H   0  0  0  0  0  0  0  0  0  0  0  0
    5.3649    1.9366    1.1572 H   0  0  0  0  0  0  0  0  0  0  0  0
    3.0655    1.2370    0.9929 H   0  0  0  0  0  0  0  0  0  0  0  0
    1.5390    0.1294   -2.2621 H   0  0  0  0  0  0  0  0  0  0  0  0
   -0.8021    0.4963   -1.7160 H   0  0  0  0  0  0  0  0  0  0  0  0
   -1.2056   -0.1828    1.0634 H   0  0  0  0  0  0  0  0  0  0  0  0
   -2.7786   -1.1421    2.2477 H   0  0  0  0  0  0  0  0  0  0  0  0
   -4.3154   -0.8847    4.1398 H   0  0  0  0  0  0  0  0  0  0  0  0
   -6.0900    1.5569    5.0174 H   0  0  0  0  0  0  0  0  0  0  0  0
   -6.5661   -0.1555    4.9022 H   0  0  0  0  0  0  0  0  0  0  0  0
   -7.4723    1.0643    4.0079 H   0  0  0  0  0  0  0  0  0  0  0  0
   -6.5307    2.0992    1.9506 H   0  0  0  0  0  0  0  0  0  0  0  0
   -4.9758    1.8589    0.0538 H   0  0  0  0  0  0  0  0  0  0  0  0
   -1.7781   -1.1309   -3.1916 H   0  0  0  0  0  0  0  0  0  0  0  0
   -1.7027   -3.3887   -4.1839 H   0  0  0  0  0  0  0  0  0  0  0  0
   -0.4127   -5.1975   -3.0801 H   0  0  0  0  0  0  0  0  0  0  0  0
    0.7969   -4.7424   -0.9637 H   0  0  0  0  0  0  0  0  0  0  0  0
    0.7402   -2.4982    0.0453 H   0  0  0  0  0  0  0  0  0  0  0  0
    3.5723    0.5279   -3.2403 H   0  0  0  0  0  0  0  0  0  0  0  0
    5.9110    1.2473   -3.0585 H   0  0  0  0  0  0  0  0  0  0  0  0
  1  2  1  0
  2  3  1  0
  3  4  2  0
  4  5  1  0
  5  6  2  0
  6  7  1  0
  7  8  1  0
  8  9  2  0
  8 10  1  0
 10 11  1  0
 11 12  1  0
 12 13  2  0
 12 14  1  0
 14 15  2  0
 15 16  1  0
 16 17  2  0
 17 18  1  0
 17 19  1  0
 19 20  2  0
 10 21  1  0
 21 22  2  0
 22 23  1  0
 23 24  2  0
 24 25  1  0
 25 26  2  0
  6 27  1  0
 27 28  2  0
 28  3  1  0
 20 14  1  0
 26 21  1  0
  1 29  1  0
  1 30  1  0
  1 31  1  0
  4 32  1  0
  5 33  1  0
  7 34  1  0
 10 35  1  0
 11 36  1  0
 15 37  1  0
 16 38  1  0
 18 39  1  0
 18 40  1  0
 18 41  1  0
 19 42  1  0
 20 43  1  0
 22 44  1  0
 23 45  1  0
 24 46  1  0
 25 47  1  0
 26 48  1  0
 27 49  1  0
 28 50  1  0
M  END
$$$$
