
     RDKit          3D

 55 60  0  0  0  0  0  0  0  0999 V2000
    3.2025    1.5120    1.8928 O   0  0  0  0  0  0  0  0  0  0  0  0
    3.5306    0.4457    1.3757 C   0  0  0  0  0  0  0  0  0  0  0  0
    4.2751   -0.5420    2.1413 C   0  0  0  0  0  0  0  0  0  0  0  0
    4.2641   -0.7298    3.5553 C   0  0  0  0  0  0  0  0  0  0  0  0
    5.1501   -1.7449    3.8262 C   0  0  0  0  0  0  0  0  0  0  0  0
    5.7304   -2.1820    2.6802 O   0  0  0  0  0  0  0  0  0  0  0  0
    5.2153   -1.4369    1.6691 C   0  0  0  0  0  0  0  0  0  0  0  0
    3.2189    0.1492    0.0410 N   0  0  0  0  0  0  0  0  0  0  0  0
    2.7112   -1.1648   -0.3496 C   0  0  0  0  0  0  0  0  0  0  0  0
    1.1830   -1.1874   -0.2341 C   0  0  0  0  0  0  0  0  0  0  0  0
    0.5137   -0.0411   -1.0483 C   0  0  0  0  0  0  0  0  0  0  0  0
    1.1806    1.3129   -0.6850 C   0  0  0  0  0  0  0  0  0  0  0  0
    2.7041    1.2359   -0.7808 C   0  0  0  0  0  0  0  0  0  0  0  0
    0.8467   -0.3656   -2.4251 O   0  0  0  0  0  0  0  0  0  0  0  0
    0.0849    0.1810   -3.4135 C   0  0  0  0  0  0  0  0  0  0  0  0
    0.5880    0.0598   -4.7104 C   0  0  0  0  0  0  0  0  0  0  0  0
   -0.1121    0.6093   -5.7859 C   0  0  0  0  0  0  0  0  0  0  0  0
   -1.3125    1.2741   -5.5569 C   0  0  0  0  0  0  0  0  0  0  0  0
   -1.9783    1.8041   -6.5904 F   0  0  0  0  0  0  0  0  0  0  0  0
   -1.8310    1.3931   -4.2746 C   0  0  0  0  0  0  0  0  0  0  0  0
   -1.1279    0.8309   -3.2057 C   0  0  0  0  0  0  0  0  0  0  0  0
   -1.6560    0.9192   -1.8384 C   0  0  0  0  0  0  0  0  0  0  0  0
   -2.5505    1.7214   -1.5835 O   0  0  0  0  0  0  0  0  0  0  0  0
   -1.0239   -0.0176   -0.8155 C   0  0  0  0  0  0  0  0  0  0  0  0
   -1.4652    0.3398    0.5975 C   0  0  0  0  0  0  0  0  0  0  0  0
   -2.5901   -0.6276    0.7410 C   0  0  0  0  0  0  0  0  0  0  0  0
   -3.5661   -0.5415    1.8534 C   0  0  0  0  0  0  0  0  0  0  0  0
   -3.4348    0.4090    2.8730 C   0  0  0  0  0  0  0  0  0  0  0  0
   -4.3732    0.4581    3.9097 C   0  0  0  0  0  0  0  0  0  0  0  0
   -5.4388   -0.4406    3.9286 C   0  0  0  0  0  0  0  0  0  0  0  0
   -6.5881   -0.3762    5.2065 Cl  0  0  0  0  0  0  0  0  0  0  0  0
   -5.5766   -1.3905    2.9195 C   0  0  0  0  0  0  0  0  0  0  0  0
   -4.6406   -1.4415    1.8828 C   0  0  0  0  0  0  0  0  0  0  0  0
   -2.6236   -1.5603   -0.1566 N   0  0  0  0  0  0  0  0  0  0  0  0
   -1.5631   -1.3284   -1.0579 O   0  0  0  0  0  0  0  0  0  0  0  0
    3.6764   -0.1818    4.2791 H   0  0  0  0  0  0  0  0  0  0  0  0
    5.4741   -2.2370    4.7329 H   0  0  0  0  0  0  0  0  0  0  0  0
    5.6141   -1.6520    0.6872 H   0  0  0  0  0  0  0  0  0  0  0  0
    3.1136   -1.9612    0.2787 H   0  0  0  0  0  0  0  0  0  0  0  0
    3.0358   -1.3614   -1.3776 H   0  0  0  0  0  0  0  0  0  0  0  0
    0.9187   -1.1175    0.8260 H   0  0  0  0  0  0  0  0  0  0  0  0
    0.8352   -2.1631   -0.5952 H   0  0  0  0  0  0  0  0  0  0  0  0
    0.9030    1.6067    0.3338 H   0  0  0  0  0  0  0  0  0  0  0  0
    0.8402    2.1105   -1.3550 H   0  0  0  0  0  0  0  0  0  0  0  0
    3.0235    1.0573   -1.8141 H   0  0  0  0  0  0  0  0  0  0  0  0
    3.1486    2.1873   -0.4676 H   0  0  0  0  0  0  0  0  0  0  0  0
    1.5281   -0.4579   -4.8850 H   0  0  0  0  0  0  0  0  0  0  0  0
    0.2701    0.5244   -6.7987 H   0  0  0  0  0  0  0  0  0  0  0  0
   -2.7747    1.9083   -4.1207 H   0  0  0  0  0  0  0  0  0  0  0  0
   -1.7838    1.3780    0.7166 H   0  0  0  0  0  0  0  0  0  0  0  0
   -0.7226    0.1078    1.3648 H   0  0  0  0  0  0  0  0  0  0  0  0
   -2.6147    1.1208    2.8872 H   0  0  0  0  0  0  0  0  0  0  0  0
   -4.2674    1.1994    4.6981 H   0  0  0  0  0  0  0  0  0  0  0  0
   -6.4065   -2.0924    2.9304 H   0  0  0  0  0  0  0  0  0  0  0  0
   -4.7585   -2.1867    1.0979 H   0  0  0  0  0  0  0  0  0  0  0  0
  1  2  2  0
  2  3  1  0
  3  4  1  0
  4  5  2  0
  5  6  1  0
  6  7  1  0
  2  8  1  0
  8  9  1  0
  9 10  1  0
 10 11  1  0
 11 12  1  0
 12 13  1  0
 11 14  1  0
 14 15  1  0
 15 16  2  0
 16 17  1  0
 17 18  2  0
 18 19  1  0
 18 20  1  0
 20 21  2  0
 21 22  1  0
 22 23  2  0
 22 24  1  0
 24 25  1  0
 25 26  1  0
 26 27  1  0
 27 28  2  0
 28 29  1  0
 29 30  2  0
 30 31  1  0
 30 32  1  0
 32 33  2  0
 26 34  2  0
 34 35  1  0
  7  3  2  0
 13  8  1  0
 21 15  1  0
 35 24  1  0
 24 11  1  0
 33 27  1  0
  4 36  1  0
  5 37  1  0
  7 38  1  0
  9 39  1  0
  9 40  1  0
 10 41  1  0
 10 42  1  0
 12 43  1  0
 12 44  1  0
 13 45  1  0
 13 46  1  0
 16 47  1  0
 17 48  1  0
 20 49  1  0
 25 50  1  0
 25 51  1  0
 28 52  1  0
 29 53  1  0
 32 54  1  0
 33 55  1  0
M  END
$$$$
