
     RDKit          3D

 30 31  0  0  0  0  0  0  0  0999 V2000
   -2.7795    1.0055    1.4064 C   0  0  0  0  0  0  0  0  0  0  0  0
   -3.2844   -0.1804    0.5788 C   0  0  0  0  0  0  0  0  0  0  0  0
   -4.7455   -0.4572    0.9374 C   0  0  0  0  0  0  0  0  0  0  0  0
   -2.5618   -1.3757    0.9089 O   0  0  0  0  0  0  0  0  0  0  0  0
   -1.3665   -1.5840    0.3400 C   0  0  0  0  0  0  0  0  0  0  0  0
   -0.6304   -2.5234    0.5932 O   0  0  0  0  0  0  0  0  0  0  0  0
   -0.9994   -0.5397   -0.6775 C   0  0  0  0  0  0  0  0  0  0  0  0
    0.1959   -0.0427   -0.8277 N   0  0  0  0  0  0  0  0  0  0  0  0
    1.1821   -0.5398   -0.0263 N   0  0  0  0  0  0  0  0  0  0  0  0
    2.5048   -0.0914   -0.2456 C   0  0  0  0  0  0  0  0  0  0  0  0
    3.5612   -0.7304    0.4198 C   0  0  0  0  0  0  0  0  0  0  0  0
    4.8769   -0.2785    0.2815 C   0  0  0  0  0  0  0  0  0  0  0  0
    5.1515    0.8347   -0.5088 C   0  0  0  0  0  0  0  0  0  0  0  0
    4.1107    1.4998   -1.1519 C   0  0  0  0  0  0  0  0  0  0  0  0
    2.7963    1.0454   -1.0105 C   0  0  0  0  0  0  0  0  0  0  0  0
   -2.1272    0.0054   -1.5097 C   0  0  0  0  0  0  0  0  0  0  0  0
   -2.0048    0.2641   -2.6926 O   0  0  0  0  0  0  0  0  0  0  0  0
   -3.2721    0.1343   -0.8208 O   0  0  0  0  0  0  0  0  0  0  0  0
   -1.7345    1.2417    1.1824 H   0  0  0  0  0  0  0  0  0  0  0  0
   -2.8311    0.7880    2.4786 H   0  0  0  0  0  0  0  0  0  0  0  0
   -3.3599    1.9097    1.1937 H   0  0  0  0  0  0  0  0  0  0  0  0
   -5.1267   -1.3043    0.3548 H   0  0  0  0  0  0  0  0  0  0  0  0
   -4.8561   -0.7180    1.9955 H   0  0  0  0  0  0  0  0  0  0  0  0
   -5.3840    0.4034    0.7103 H   0  0  0  0  0  0  0  0  0  0  0  0
    1.1478   -1.5312    0.2444 H   0  0  0  0  0  0  0  0  0  0  0  0
    3.3671   -1.5910    1.0547 H   0  0  0  0  0  0  0  0  0  0  0  0
    5.6841   -0.7929    0.7958 H   0  0  0  0  0  0  0  0  0  0  0  0
    6.1732    1.1884   -0.6174 H   0  0  0  0  0  0  0  0  0  0  0  0
    4.3161    2.3756   -1.7614 H   0  0  0  0  0  0  0  0  0  0  0  0
    1.9959    1.5844   -1.5111 H   0  0  0  0  0  0  0  0  0  0  0  0
  1  2  1  0
  2  3  1  0
  2  4  1  0
  4  5  1  0
  5  6  2  0
  5  7  1  0
  7  8  2  3
  8  9  1  0
  9 10  1  0
 10 11  2  0
 11 12  1  0
 12 13  2  0
 13 14  1  0
 14 15  2  0
  7 16  1  0
 16 17  2  0
 16 18  1  0
 18  2  1  0
 15 10  1  0
  1 19  1  0
  1 20  1  0
  1 21  1  0
  3 22  1  0
  3 23  1  0
  3 24  1  0
  9 25  1  0
 11 26  1  0
 12 27  1  0
 13 28  1  0
 14 29  1  0
 15 30  1  0
M  END
$$$$
