
     RDKit          3D

 51 53  0  0  0  0  0  0  0  0999 V2000
    9.3961   -1.2726   -1.4635 C   0  0  0  0  0  0  0  0  0  0  0  0
    8.4054   -0.4021   -0.9311 O   0  0  0  0  0  0  0  0  0  0  0  0
    7.1030   -0.8066   -1.0407 C   0  0  0  0  0  0  0  0  0  0  0  0
    6.6591   -1.9901   -1.6267 C   0  0  0  0  0  0  0  0  0  0  0  0
    5.2930   -2.2757   -1.6686 C   0  0  0  0  0  0  0  0  0  0  0  0
    4.3649   -1.3827   -1.1264 C   0  0  0  0  0  0  0  0  0  0  0  0
    4.7963   -0.1953   -0.5370 C   0  0  0  0  0  0  0  0  0  0  0  0
    3.9302    0.7538    0.0311 N   0  0  0  0  0  0  0  0  0  0  0  0
    2.5550    0.7074    0.1133 C   0  0  0  0  0  0  0  0  0  0  0  0
    1.7823   -0.1540   -0.2847 O   0  0  0  0  0  0  0  0  0  0  0  0
    1.9777    1.9480    0.8178 C   0  0  0  0  0  0  0  0  0  0  0  0
    2.7419    2.8180    1.2159 O   0  0  0  0  0  0  0  0  0  0  0  0
    0.6010    1.9039    0.9055 N   0  0  0  0  0  0  0  0  0  0  0  0
   -0.0859    2.8692    1.5761 N   0  0  0  0  0  0  0  0  0  0  0  0
   -1.3851    2.8317    1.5993 C   0  0  0  0  0  0  0  0  0  0  0  0
   -2.2378    1.9171    0.8561 C   0  0  0  0  0  0  0  0  0  0  0  0
   -2.1045    1.4957   -0.4886 C   0  0  0  0  0  0  0  0  0  0  0  0
   -3.1436    0.6383   -0.7876 C   0  0  0  0  0  0  0  0  0  0  0  0
   -3.3338   -0.1252   -2.0551 C   0  0  0  0  0  0  0  0  0  0  0  0
   -3.9523    0.5326    0.3390 N   0  0  0  0  0  0  0  0  0  0  0  0
   -5.1232   -0.2729    0.4553 C   0  0  0  0  0  0  0  0  0  0  0  0
   -6.0811   -0.2758   -0.5648 C   0  0  0  0  0  0  0  0  0  0  0  0
   -7.2275   -1.0665   -0.4448 C   0  0  0  0  0  0  0  0  0  0  0  0
   -7.4222   -1.8597    0.6895 C   0  0  0  0  0  0  0  0  0  0  0  0
   -8.8625   -2.8096    0.7687 Cl  0  0  0  0  0  0  0  0  0  0  0  0
   -6.4641   -1.8606    1.7089 C   0  0  0  0  0  0  0  0  0  0  0  0
   -6.6314   -2.8223    3.1350 Cl  0  0  0  0  0  0  0  0  0  0  0  0
   -5.3164   -1.0679    1.5925 C   0  0  0  0  0  0  0  0  0  0  0  0
   -3.4147    1.3510    1.3358 C   0  0  0  0  0  0  0  0  0  0  0  0
   -4.0742    1.5866    2.6589 C   0  0  0  0  0  0  0  0  0  0  0  0
    6.1682    0.0833   -0.4995 C   0  0  0  0  0  0  0  0  0  0  0  0
    9.2685   -1.4024   -2.5433 H   0  0  0  0  0  0  0  0  0  0  0  0
    9.3930   -2.2374   -0.9454 H   0  0  0  0  0  0  0  0  0  0  0  0
   10.3732   -0.8087   -1.2971 H   0  0  0  0  0  0  0  0  0  0  0  0
    7.3454   -2.7105   -2.0587 H   0  0  0  0  0  0  0  0  0  0  0  0
    4.9459   -3.1995   -2.1256 H   0  0  0  0  0  0  0  0  0  0  0  0
    3.3133   -1.6457   -1.1804 H   0  0  0  0  0  0  0  0  0  0  0  0
    4.3456    1.5893    0.4410 H   0  0  0  0  0  0  0  0  0  0  0  0
    0.1309    1.0618    0.5765 H   0  0  0  0  0  0  0  0  0  0  0  0
   -1.8953    3.5688    2.2411 H   0  0  0  0  0  0  0  0  0  0  0  0
   -1.3185    1.7798   -1.1794 H   0  0  0  0  0  0  0  0  0  0  0  0
   -2.3889   -0.1896   -2.6061 H   0  0  0  0  0  0  0  0  0  0  0  0
   -4.0569    0.3760   -2.7051 H   0  0  0  0  0  0  0  0  0  0  0  0
   -3.6634   -1.1514   -1.8668 H   0  0  0  0  0  0  0  0  0  0  0  0
   -5.9778    0.3611   -1.4399 H   0  0  0  0  0  0  0  0  0  0  0  0
   -7.9713   -1.0528   -1.2387 H   0  0  0  0  0  0  0  0  0  0  0  0
   -4.5623   -1.1130    2.3742 H   0  0  0  0  0  0  0  0  0  0  0  0
   -3.8033    2.5663    3.0648 H   0  0  0  0  0  0  0  0  0  0  0  0
   -3.7592    0.8306    3.3844 H   0  0  0  0  0  0  0  0  0  0  0  0
   -5.1655    1.5785    2.5786 H   0  0  0  0  0  0  0  0  0  0  0  0
    6.5326    1.0018   -0.0453 H   0  0  0  0  0  0  0  0  0  0  0  0
  1  2  1  0
  2  3  1  0
  3  4  2  0
  4  5  1  0
  5  6  2  0
  6  7  1  0
  7  8  1  0
  8  9  1  0
  9 10  2  0
  9 11  1  0
 11 12  2  0
 11 13  1  0
 13 14  1  0
 14 15  2  3
 15 16  1  0
 16 17  1  0
 17 18  2  0
 18 19  1  0
 18 20  1  0
 20 21  1  0
 21 22  2  0
 22 23  1  0
 23 24  2  0
 24 25  1  0
 24 26  1  0
 26 27  1  0
 26 28  2  0
 20 29  1  0
 29 30  1  0
  7 31  2  0
 31  3  1  0
 29 16  2  0
 28 21  1  0
  1 32  1  0
  1 33  1  0
  1 34  1  0
  4 35  1  0
  5 36  1  0
  6 37  1  0
  8 38  1  0
 13 39  1  0
 15 40  1  0
 17 41  1  0
 19 42  1  0
 19 43  1  0
 19 44  1  0
 22 45  1  0
 23 46  1  0
 28 47  1  0
 30 48  1  0
 30 49  1  0
 30 50  1  0
 31 51  1  0
M  END
$$$$
