
     RDKit          3D

 33 35  0  0  0  0  0  0  0  0999 V2000
    5.0174    0.8973   -1.4927 C   0  0  0  0  0  0  0  0  0  0  0  0
    4.3059    0.2872   -0.3932 N   0  0  0  0  0  0  0  0  0  0  0  0
    4.8509   -0.3195    0.6969 C   0  0  0  0  0  0  0  0  0  0  0  0
    3.7804   -0.7309    1.4640 C   0  0  0  0  0  0  0  0  0  0  0  0
    3.8654   -1.3803    2.7277 N   0  0  0  0  0  4  0  0  0  0  0  0
    4.5732   -2.3937    2.7794 O   0  0  0  0  0  0  0  0  0  0  0  0
    3.2897   -0.8328    3.6738 O   0  0  0  0  0  1  0  0  0  0  0  0
    2.6233   -0.3636    0.7446 C   0  0  0  0  0  0  0  0  0  0  0  0
    1.2150   -0.6354    1.0782 C   0  0  0  0  0  0  0  0  0  0  0  0
    0.9156   -1.3739    2.0048 O   0  0  0  0  0  0  0  0  0  0  0  0
    0.3654    0.0135    0.2003 N   0  0  0  0  0  0  0  0  0  0  0  0
   -1.0186    0.0036    0.1872 C   0  0  0  0  0  0  0  0  0  0  0  0
   -1.9136   -0.8506    1.3825 S   0  0  0  0  0  0  0  0  0  0  0  0
   -3.3568   -0.3786    0.6922 C   0  0  0  0  0  0  0  0  0  0  0  0
   -3.2126    0.4084   -0.4149 C   0  0  0  0  0  0  0  0  0  0  0  0
   -1.8538    0.6436   -0.7238 C   0  0  0  0  0  0  0  0  0  0  0  0
   -1.3885    1.4322   -1.8226 C   0  0  0  0  0  0  0  0  0  0  0  0
   -0.9931    2.0687   -2.7088 N   0  0  0  0  0  0  0  0  0  0  0  0
   -4.5341    0.7939   -0.9712 C   0  0  0  0  0  0  0  0  0  0  0  0
   -5.5037   -0.1767   -0.2246 C   0  0  0  0  0  0  0  0  0  0  0  0
   -4.7637   -0.6542    1.0633 C   0  0  0  0  0  0  0  0  0  0  0  0
    2.9571    0.2930   -0.3925 N   0  0  0  0  0  0  0  0  0  0  0  0
    4.7315    0.3834   -2.4138 H   0  0  0  0  0  0  0  0  0  0  0  0
    6.0931    0.7997   -1.3279 H   0  0  0  0  0  0  0  0  0  0  0  0
    4.7395    1.9533   -1.5376 H   0  0  0  0  0  0  0  0  0  0  0  0
    5.9193   -0.3994    0.8474 H   0  0  0  0  0  0  0  0  0  0  0  0
    0.8514    0.5374   -0.5269 H   0  0  0  0  0  0  0  0  0  0  0  0
   -4.5957    0.6576   -2.0544 H   0  0  0  0  0  0  0  0  0  0  0  0
   -4.7664    1.8342   -0.7206 H   0  0  0  0  0  0  0  0  0  0  0  0
   -5.6994   -1.0464   -0.8660 H   0  0  0  0  0  0  0  0  0  0  0  0
   -6.4682    0.2899   -0.0015 H   0  0  0  0  0  0  0  0  0  0  0  0
   -4.9611   -1.7104    1.2653 H   0  0  0  0  0  0  0  0  0  0  0  0
   -5.0649   -0.0504    1.9254 H   0  0  0  0  0  0  0  0  0  0  0  0
  1  2  1  0
  2  3  1  0
  3  4  2  0
  4  5  1  0
  5  6  2  0
  5  7  1  0
  4  8  1  0
  8  9  1  0
  9 10  2  0
  9 11  1  0
 11 12  1  0
 12 13  1  0
 13 14  1  0
 14 15  2  0
 15 16  1  0
 16 17  1  0
 17 18  3  0
 15 19  1  0
 19 20  1  0
 20 21  1  0
  8 22  2  0
 22  2  1  0
 16 12  2  0
 21 14  1  0
  1 23  1  0
  1 24  1  0
  1 25  1  0
  3 26  1  0
 11 27  1  0
 19 28  1  0
 19 29  1  0
 20 30  1  0
 20 31  1  0
 21 32  1  0
 21 33  1  0
M  CHG  2   5   1   7  -1
M  END
$$$$
