
     RDKit          3D

 52 55  0  0  0  0  0  0  0  0999 V2000
   -4.2201    4.0145    1.7849 C   0  0  0  0  0  0  0  0  0  0  0  0
   -3.5234    3.2807    0.6528 C   0  0  0  0  0  0  0  0  0  0  0  0
   -4.3447    2.0918    0.1608 C   0  0  0  0  0  0  0  0  0  0  0  0
   -3.6901    1.4464   -0.9317 O   0  0  0  0  0  0  0  0  0  0  0  0
   -2.8100    0.4353   -0.6703 C   0  0  0  0  0  0  0  0  0  0  0  0
   -2.3323   -0.2219   -1.8071 C   0  0  0  0  0  0  0  0  0  0  0  0
   -1.4183   -1.2721   -1.6966 C   0  0  0  0  0  0  0  0  0  0  0  0
   -0.9707   -1.6787   -0.4361 C   0  0  0  0  0  0  0  0  0  0  0  0
    0.0214   -2.7385   -0.3127 C   0  0  0  0  0  0  0  0  0  0  0  0
    1.3911   -2.6758   -0.0625 C   0  0  0  0  0  0  0  0  0  0  0  0
    2.2895   -1.5320    0.1476 C   0  0  0  0  0  0  0  0  0  0  0  0
    3.4123   -1.6996    0.6196 O   0  0  0  0  0  0  0  0  0  0  0  0
    1.7871   -0.2898   -0.2424 N   0  0  0  0  0  0  0  0  0  0  0  0
    2.4875    0.8934   -0.2582 N   0  0  0  0  0  0  0  0  0  0  0  0
    3.3586    1.1076    0.6772 C   0  0  0  0  0  0  0  0  0  0  0  0
    4.1809    2.3354    0.7036 C   0  0  0  0  0  0  0  0  0  0  0  0
    5.1142    2.4967    1.7321 C   0  0  0  0  0  0  0  0  0  0  0  0
    5.9006    3.6492    1.7792 C   0  0  0  0  0  0  0  0  0  0  0  0
    5.7546    4.6353    0.8026 C   0  0  0  0  0  0  0  0  0  0  0  0
    4.8238    4.4724   -0.2242 C   0  0  0  0  0  0  0  0  0  0  0  0
    4.0353    3.3219   -0.2762 C   0  0  0  0  0  0  0  0  0  0  0  0
    1.8858   -3.9542    0.0007 N   0  0  0  0  0  0  0  0  0  0  0  0
    0.8985   -4.8041   -0.2044 N   0  0  0  0  0  0  0  0  0  0  0  0
   -0.2611   -4.1108   -0.3659 N   0  0  0  0  0  0  0  0  0  0  0  0
   -1.4971   -4.7825   -0.5524 C   0  0  0  0  0  0  0  0  0  0  0  0
   -2.6341   -4.1097   -0.7311 N   0  0  0  0  0  0  0  0  0  0  0  0
   -3.5979   -5.1036   -0.8877 O   0  0  0  0  0  0  0  0  0  0  0  0
   -3.0334   -6.3716   -0.8024 N   0  0  0  0  0  0  0  0  0  0  0  0
   -1.7345   -6.1702   -0.5847 C   0  0  0  0  0  0  0  0  0  0  0  0
   -0.8304   -7.1536   -0.4253 N   0  0  0  0  0  0  0  0  0  0  0  0
   -1.4410   -1.0175    0.7032 C   0  0  0  0  0  0  0  0  0  0  0  0
   -2.3568    0.0348    0.5858 C   0  0  0  0  0  0  0  0  0  0  0  0
   -4.3736    3.3534    2.6439 H   0  0  0  0  0  0  0  0  0  0  0  0
   -5.1952    4.3951    1.4648 H   0  0  0  0  0  0  0  0  0  0  0  0
   -3.6153    4.8650    2.1147 H   0  0  0  0  0  0  0  0  0  0  0  0
   -2.5328    2.9511    0.9849 H   0  0  0  0  0  0  0  0  0  0  0  0
   -3.3443    3.9695   -0.1817 H   0  0  0  0  0  0  0  0  0  0  0  0
   -5.2999    2.4615   -0.2309 H   0  0  0  0  0  0  0  0  0  0  0  0
   -4.6046    1.3918    0.9633 H   0  0  0  0  0  0  0  0  0  0  0  0
   -2.6807    0.0871   -2.7904 H   0  0  0  0  0  0  0  0  0  0  0  0
   -1.0696   -1.7639   -2.6021 H   0  0  0  0  0  0  0  0  0  0  0  0
    0.9891   -0.2719   -0.8674 H   0  0  0  0  0  0  0  0  0  0  0  0
    3.5151    0.4120    1.5190 H   0  0  0  0  0  0  0  0  0  0  0  0
    5.2402    1.7328    2.4951 H   0  0  0  0  0  0  0  0  0  0  0  0
    6.6295    3.7779    2.5756 H   0  0  0  0  0  0  0  0  0  0  0  0
    6.3691    5.5316    0.8400 H   0  0  0  0  0  0  0  0  0  0  0  0
    4.7130    5.2405   -0.9855 H   0  0  0  0  0  0  0  0  0  0  0  0
    3.3131    3.2004   -1.0797 H   0  0  0  0  0  0  0  0  0  0  0  0
   -1.0853   -8.1120   -0.6386 H   0  0  0  0  0  0  0  0  0  0  0  0
    0.1714   -6.9671   -0.4134 H   0  0  0  0  0  0  0  0  0  0  0  0
   -1.0993   -1.3079    1.6950 H   0  0  0  0  0  0  0  0  0  0  0  0
   -2.6851    0.5239    1.4966 H   0  0  0  0  0  0  0  0  0  0  0  0
  1  2  1  0
  2  3  1  0
  3  4  1  0
  4  5  1  0
  5  6  2  0
  6  7  1  0
  7  8  2  0
  8  9  1  0
  9 10  2  0
 10 11  1  0
 11 12  2  0
 11 13  1  0
 13 14  1  0
 14 15  2  3
 15 16  1  0
 16 17  2  0
 17 18  1  0
 18 19  2  0
 19 20  1  0
 20 21  2  0
 10 22  1  0
 22 23  2  0
 23 24  1  0
 24 25  1  0
 25 26  2  0
 26 27  1  0
 27 28  1  0
 28 29  2  0
 29 30  1  0
  8 31  1  0
 31 32  2  0
 32  5  1  0
 24  9  1  0
 29 25  1  0
 21 16  1  0
  1 33  1  0
  1 34  1  0
  1 35  1  0
  2 36  1  0
  2 37  1  0
  3 38  1  0
  3 39  1  0
  6 40  1  0
  7 41  1  0
 13 42  1  0
 15 43  1  0
 17 44  1  0
 18 45  1  0
 19 46  1  0
 20 47  1  0
 21 48  1  0
 30 49  1  0
 30 50  1  0
 31 51  1  0
 32 52  1  0
M  END
$$$$
