
     RDKit          3D

 60 65  0  0  0  0  0  0  0  0999 V2000
    5.6047   -2.9523   -2.0356 C   0  0  0  0  0  0  0  0  0  0  0  0
    4.9913   -1.6882   -2.5056 C   0  0  0  0  0  0  0  0  0  0  0  0
    5.0946   -1.3258   -3.7901 N   0  0  0  0  0  0  0  0  0  0  0  0
    4.4702   -0.0977   -3.8851 O   0  0  0  0  0  0  0  0  0  0  0  0
    3.9906    0.2662   -2.6661 C   0  0  0  0  0  0  0  0  0  0  0  0
    3.3627    1.5988   -2.5987 C   0  0  0  0  0  0  0  0  0  0  0  0
    4.2516   -0.7366   -1.7561 C   0  0  0  0  0  0  0  0  0  0  0  0
    3.9349   -0.7647   -0.3455 C   0  0  0  0  0  0  0  0  0  0  0  0
    4.8185   -0.9692    0.4830 O   0  0  0  0  0  0  0  0  0  0  0  0
    2.6021   -0.5623    0.0296 N   0  0  0  0  0  0  0  0  0  0  0  0
    2.3190   -0.4532    1.4575 C   0  0  0  0  0  0  0  0  0  0  0  0
    0.9408    0.1478    1.7052 C   0  0  0  0  0  0  0  0  0  0  0  0
   -0.1746   -0.7618    1.1230 C   0  0  0  0  0  0  0  0  0  0  0  0
    0.2996   -1.4514   -0.1877 C   0  0  0  0  0  0  0  0  0  0  0  0
    1.4615   -0.7330   -0.8694 C   0  0  0  0  0  0  0  0  0  0  0  0
   -0.2985   -1.8038    2.1345 O   0  0  0  0  0  0  0  0  0  0  0  0
   -1.4500   -2.5305    2.1705 C   0  0  0  0  0  0  0  0  0  0  0  0
   -1.4249   -3.6781    2.9654 C   0  0  0  0  0  0  0  0  0  0  0  0
   -2.5521   -4.4975    3.0459 C   0  0  0  0  0  0  0  0  0  0  0  0
   -3.6982   -4.1614    2.3327 C   0  0  0  0  0  0  0  0  0  0  0  0
   -4.7756   -4.9524    2.4079 F   0  0  0  0  0  0  0  0  0  0  0  0
   -3.7422   -3.0175    1.5473 C   0  0  0  0  0  0  0  0  0  0  0  0
   -2.6120   -2.1987    1.4819 C   0  0  0  0  0  0  0  0  0  0  0  0
   -2.6273   -0.9699    0.6802 C   0  0  0  0  0  0  0  0  0  0  0  0
   -3.5020   -0.8060   -0.1666 O   0  0  0  0  0  0  0  0  0  0  0  0
   -1.5053    0.0262    0.9571 C   0  0  0  0  0  0  0  0  0  0  0  0
   -1.4882    1.1262   -0.0961 C   0  0  0  0  0  0  0  0  0  0  0  0
   -2.3133    2.1408    0.6216 C   0  0  0  0  0  0  0  0  0  0  0  0
   -2.8689    3.3340   -0.0601 C   0  0  0  0  0  0  0  0  0  0  0  0
   -3.6801    4.2140    0.6700 C   0  0  0  0  0  0  0  0  0  0  0  0
   -4.2148    5.3526    0.0608 C   0  0  0  0  0  0  0  0  0  0  0  0
   -3.9383    5.6136   -1.2788 C   0  0  0  0  0  0  0  0  0  0  0  0
   -4.5925    7.0147   -2.0314 Cl  0  0  0  0  0  0  0  0  0  0  0  0
   -3.1322    4.7455   -2.0139 C   0  0  0  0  0  0  0  0  0  0  0  0
   -2.5958    3.6049   -1.4063 C   0  0  0  0  0  0  0  0  0  0  0  0
   -2.4681    1.9149    1.8872 N   0  0  0  0  0  0  0  0  0  0  0  0
   -1.8207    0.6974    2.1878 O   0  0  0  0  0  0  0  0  0  0  0  0
    5.0049   -3.4078   -1.2405 H   0  0  0  0  0  0  0  0  0  0  0  0
    6.6092   -2.7626   -1.6435 H   0  0  0  0  0  0  0  0  0  0  0  0
    5.6853   -3.6817   -2.8490 H   0  0  0  0  0  0  0  0  0  0  0  0
    3.2506    1.9348   -1.5637 H   0  0  0  0  0  0  0  0  0  0  0  0
    2.3723    1.5777   -3.0639 H   0  0  0  0  0  0  0  0  0  0  0  0
    3.9727    2.3397   -3.1254 H   0  0  0  0  0  0  0  0  0  0  0  0
    3.0888    0.1712    1.9258 H   0  0  0  0  0  0  0  0  0  0  0  0
    2.4000   -1.4554    1.8954 H   0  0  0  0  0  0  0  0  0  0  0  0
    0.9194    1.1487    1.2618 H   0  0  0  0  0  0  0  0  0  0  0  0
    0.8035    0.2732    2.7867 H   0  0  0  0  0  0  0  0  0  0  0  0
    0.6196   -2.4796    0.0314 H   0  0  0  0  0  0  0  0  0  0  0  0
   -0.5245   -1.5454   -0.9045 H   0  0  0  0  0  0  0  0  0  0  0  0
    1.1532    0.2637   -1.1984 H   0  0  0  0  0  0  0  0  0  0  0  0
    1.7536   -1.3013   -1.7576 H   0  0  0  0  0  0  0  0  0  0  0  0
   -0.5255   -3.9385    3.5186 H   0  0  0  0  0  0  0  0  0  0  0  0
   -2.5436   -5.3943    3.6582 H   0  0  0  0  0  0  0  0  0  0  0  0
   -4.6512   -2.7698    1.0071 H   0  0  0  0  0  0  0  0  0  0  0  0
   -1.9146    0.8321   -1.0576 H   0  0  0  0  0  0  0  0  0  0  0  0
   -0.5019    1.5641   -0.2634 H   0  0  0  0  0  0  0  0  0  0  0  0
   -3.9040    4.0189    1.7177 H   0  0  0  0  0  0  0  0  0  0  0  0
   -4.8438    6.0264    0.6371 H   0  0  0  0  0  0  0  0  0  0  0  0
   -2.9189    4.9509   -3.0602 H   0  0  0  0  0  0  0  0  0  0  0  0
   -1.9716    2.9493   -2.0054 H   0  0  0  0  0  0  0  0  0  0  0  0
  1  2  1  0
  2  3  2  0
  3  4  1  0
  4  5  1  0
  5  6  1  0
  5  7  2  0
  7  8  1  0
  8  9  2  0
  8 10  1  0
 10 11  1  0
 11 12  1  0
 12 13  1  0
 13 14  1  0
 14 15  1  0
 13 16  1  0
 16 17  1  0
 17 18  2  0
 18 19  1  0
 19 20  2  0
 20 21  1  0
 20 22  1  0
 22 23  2  0
 23 24  1  0
 24 25  2  0
 24 26  1  0
 26 27  1  0
 27 28  1  0
 28 29  1  0
 29 30  2  0
 30 31  1  0
 31 32  2  0
 32 33  1  0
 32 34  1  0
 34 35  2  0
 28 36  2  0
 36 37  1  0
  7  2  1  0
 15 10  1  0
 23 17  1  0
 37 26  1  0
 26 13  1  0
 35 29  1  0
  1 38  1  0
  1 39  1  0
  1 40  1  0
  6 41  1  0
  6 42  1  0
  6 43  1  0
 11 44  1  0
 11 45  1  0
 12 46  1  0
 12 47  1  0
 14 48  1  0
 14 49  1  0
 15 50  1  0
 15 51  1  0
 18 52  1  0
 19 53  1  0
 22 54  1  0
 27 55  1  0
 27 56  1  0
 30 57  1  0
 31 58  1  0
 34 59  1  0
 35 60  1  0
M  END
$$$$
