
     RDKit          3D

 59 62  0  0  0  0  0  0  0  0999 V2000
    7.0870   -0.5559    2.7771 C   0  0  0  0  0  0  0  0  0  0  0  0
    5.8208    0.0825    2.8878 O   0  0  0  0  0  0  0  0  0  0  0  0
    4.9841   -0.0057    1.8095 C   0  0  0  0  0  0  0  0  0  0  0  0
    5.2596   -0.6652    0.6091 C   0  0  0  0  0  0  0  0  0  0  0  0
    4.3124   -0.6814   -0.4225 C   0  0  0  0  0  0  0  0  0  0  0  0
    3.0849   -0.0373   -0.2580 C   0  0  0  0  0  0  0  0  0  0  0  0
    2.0676   -0.0411   -1.3083 C   0  0  0  0  0  0  0  0  0  0  0  0
    0.8745    0.5545   -1.1229 C   0  0  0  0  0  0  0  0  0  0  0  0
   -0.2175    0.5771   -2.1558 C   0  0  0  0  0  0  0  0  0  0  0  0
   -1.1902   -0.5267   -1.8967 N   0  0  0  0  0  0  0  0  0  0  0  0
   -0.7399   -1.8433   -2.4512 C   0  0  0  0  0  0  0  0  0  0  0  0
   -1.0485   -3.0035   -1.4997 C   0  0  0  0  0  0  0  0  0  0  0  0
   -0.5295   -2.8175   -0.0824 C   0  0  0  0  0  0  0  0  0  0  0  0
   -0.4484   -4.2458    0.3945 C   0  0  0  0  0  0  0  0  0  0  0  0
    0.0368   -4.9660   -0.8460 C   0  0  0  0  0  0  0  0  0  0  0  0
   -0.4119   -4.2082   -1.9808 O   0  0  0  0  0  0  0  0  0  0  0  0
   -2.8043   -0.1376   -2.3228 S   0  0  0  0  0  6  0  0  0  0  0  0
   -2.7591    0.5197   -3.6127 O   0  0  0  0  0  0  0  0  0  0  0  0
   -3.6300   -1.3064   -2.1098 O   0  0  0  0  0  0  0  0  0  0  0  0
   -3.2746    1.0510   -1.0918 C   0  0  0  0  0  0  0  0  0  0  0  0
   -3.4766    2.3884   -1.4414 C   0  0  0  0  0  0  0  0  0  0  0  0
   -3.8525    3.3093   -0.4582 C   0  0  0  0  0  0  0  0  0  0  0  0
   -4.0373    2.8907    0.8676 C   0  0  0  0  0  0  0  0  0  0  0  0
   -4.4267    3.8395    1.9533 C   0  0  0  0  0  0  0  0  0  0  0  0
   -4.4767    5.3140    1.6493 C   0  0  0  0  0  0  0  0  0  0  0  0
   -4.7057    3.4126    3.0722 O   0  0  0  0  0  0  0  0  0  0  0  0
   -3.8587    1.5387    1.1977 C   0  0  0  0  0  0  0  0  0  0  0  0
   -3.4796    0.6166    0.2204 C   0  0  0  0  0  0  0  0  0  0  0  0
    0.6180    1.3153    0.1381 C   0  0  0  0  0  0  0  0  0  0  0  0
   -0.4074    1.9679    0.3033 O   0  0  0  0  0  0  0  0  0  0  0  0
    1.5877    1.2729    1.1036 N   0  0  0  0  0  0  0  0  0  0  0  0
    2.8146    0.6203    0.9447 C   0  0  0  0  0  0  0  0  0  0  0  0
    3.7550    0.6393    1.9735 C   0  0  0  0  0  0  0  0  0  0  0  0
    6.9734   -1.6367    2.6423 H   0  0  0  0  0  0  0  0  0  0  0  0
    7.6812   -0.1162    1.9693 H   0  0  0  0  0  0  0  0  0  0  0  0
    7.6269   -0.3924    3.7148 H   0  0  0  0  0  0  0  0  0  0  0  0
    6.2017   -1.1777    0.4426 H   0  0  0  0  0  0  0  0  0  0  0  0
    4.5468   -1.2024   -1.3477 H   0  0  0  0  0  0  0  0  0  0  0  0
    2.2987   -0.5640   -2.2303 H   0  0  0  0  0  0  0  0  0  0  0  0
   -0.7025    1.5583   -2.1503 H   0  0  0  0  0  0  0  0  0  0  0  0
    0.2017    0.4639   -3.1642 H   0  0  0  0  0  0  0  0  0  0  0  0
   -1.1976   -2.0272   -3.4315 H   0  0  0  0  0  0  0  0  0  0  0  0
    0.3358   -1.8360   -2.6571 H   0  0  0  0  0  0  0  0  0  0  0  0
   -2.1244   -3.2073   -1.4743 H   0  0  0  0  0  0  0  0  0  0  0  0
    0.4748   -2.3796   -0.0842 H   0  0  0  0  0  0  0  0  0  0  0  0
   -1.1808   -2.1930    0.5350 H   0  0  0  0  0  0  0  0  0  0  0  0
    0.2118   -4.3864    1.2543 H   0  0  0  0  0  0  0  0  0  0  0  0
   -1.4474   -4.6047    0.6691 H   0  0  0  0  0  0  0  0  0  0  0  0
   -0.3451   -5.9887   -0.9123 H   0  0  0  0  0  0  0  0  0  0  0  0
    1.1307   -4.9992   -0.8824 H   0  0  0  0  0  0  0  0  0  0  0  0
   -3.3371    2.7228   -2.4670 H   0  0  0  0  0  0  0  0  0  0  0  0
   -3.9942    4.3451   -0.7522 H   0  0  0  0  0  0  0  0  0  0  0  0
   -4.6552    5.8659    2.5776 H   0  0  0  0  0  0  0  0  0  0  0  0
   -3.5214    5.6524    1.2396 H   0  0  0  0  0  0  0  0  0  0  0  0
   -5.2962    5.5284    0.9587 H   0  0  0  0  0  0  0  0  0  0  0  0
   -4.0050    1.2003    2.2221 H   0  0  0  0  0  0  0  0  0  0  0  0
   -3.3376   -0.4278    0.4880 H   0  0  0  0  0  0  0  0  0  0  0  0
    1.3879    1.7820    1.9544 H   0  0  0  0  0  0  0  0  0  0  0  0
    3.5456    1.1518    2.9083 H   0  0  0  0  0  0  0  0  0  0  0  0
  1  2  1  0
  2  3  1  0
  3  4  2  0
  4  5  1  0
  5  6  2  0
  6  7  1  0
  7  8  2  0
  8  9  1  0
  9 10  1  0
 10 11  1  0
 11 12  1  0
 12 13  1  0
 13 14  1  0
 14 15  1  0
 15 16  1  0
 10 17  1  0
 17 18  2  0
 17 19  2  0
 17 20  1  0
 20 21  2  0
 21 22  1  0
 22 23  2  0
 23 24  1  0
 24 25  1  0
 24 26  2  0
 23 27  1  0
 27 28  2  0
  8 29  1  0
 29 30  2  0
 29 31  1  0
 31 32  1  0
 32 33  2  0
 33  3  1  0
 32  6  1  0
 16 12  1  0
 28 20  1  0
  1 34  1  0
  1 35  1  0
  1 36  1  0
  4 37  1  0
  5 38  1  0
  7 39  1  0
  9 40  1  0
  9 41  1  0
 11 42  1  0
 11 43  1  0
 12 44  1  0
 13 45  1  0
 13 46  1  0
 14 47  1  0
 14 48  1  0
 15 49  1  0
 15 50  1  0
 21 51  1  0
 22 52  1  0
 25 53  1  0
 25 54  1  0
 25 55  1  0
 27 56  1  0
 28 57  1  0
 31 58  1  0
 33 59  1  0
M  END
$$$$
