
     RDKit          3D

 46 48  0  0  0  0  0  0  0  0999 V2000
    9.2221   -1.2550    0.6475 C   0  0  0  0  0  0  0  0  0  0  0  0
    7.8811   -1.1977    1.3526 C   0  0  0  0  0  0  0  0  0  0  0  0
    6.9303   -0.6094    0.4560 O   0  0  0  0  0  0  0  0  0  0  0  0
    5.6646   -0.5621    0.9454 C   0  0  0  0  0  0  0  0  0  0  0  0
    5.3075   -0.9754    2.0365 O   0  0  0  0  0  0  0  0  0  0  0  0
    4.7488    0.0605   -0.0489 C   0  0  0  0  0  0  0  0  0  0  0  0
    5.2310    0.7900   -1.1428 C   0  0  0  0  0  0  0  0  0  0  0  0
    4.3367    1.3789   -2.0344 C   0  0  0  0  0  0  0  0  0  0  0  0
    2.9617    1.2367   -1.8380 C   0  0  0  0  0  0  0  0  0  0  0  0
    2.4632    0.5020   -0.7539 C   0  0  0  0  0  0  0  0  0  0  0  0
    1.0598    0.4088   -0.6357 N   0  0  0  0  0  0  0  0  0  0  0  0
    0.3459   -0.3637    0.2621 C   0  0  0  0  0  0  0  0  0  0  0  0
    0.8058   -1.1646    1.0663 O   0  0  0  0  0  0  0  0  0  0  0  0
   -1.1360   -0.2226    0.1779 C   0  0  0  0  0  0  0  0  0  0  0  0
   -1.7509    0.9953   -0.1307 C   0  0  0  0  0  0  0  0  0  0  0  0
   -3.1479    1.0827   -0.1963 C   0  0  0  0  0  0  0  0  0  0  0  0
   -3.9433   -0.0373    0.0558 C   0  0  0  0  0  0  0  0  0  0  0  0
   -5.3487   -0.0301    0.0170 N   0  0  0  0  0  0  0  0  0  0  0  0
   -6.1990    1.0204   -0.2797 C   0  0  0  0  0  0  0  0  0  0  0  0
   -5.8483    2.1556   -0.5843 O   0  0  0  0  0  0  0  0  0  0  0  0
   -7.5990    0.6427   -0.1916 C   0  0  0  0  0  0  0  0  0  0  0  0
   -8.7553    1.3750   -0.3873 C   0  0  0  0  0  0  0  0  0  0  0  0
   -9.8395    0.4953   -0.1588 C   0  0  0  0  0  0  0  0  0  0  0  0
   -9.2845   -0.7220    0.1594 C   0  0  0  0  0  0  0  0  0  0  0  0
   -7.9286   -0.6465    0.1460 O   0  0  0  0  0  0  0  0  0  0  0  0
   -3.3223   -1.2492    0.3824 C   0  0  0  0  0  0  0  0  0  0  0  0
   -1.9288   -1.3419    0.4479 C   0  0  0  0  0  0  0  0  0  0  0  0
    3.3642   -0.0760    0.1437 C   0  0  0  0  0  0  0  0  0  0  0  0
    9.9880   -1.6842    1.2994 H   0  0  0  0  0  0  0  0  0  0  0  0
    9.1524   -1.8611   -0.2620 H   0  0  0  0  0  0  0  0  0  0  0  0
    9.5396   -0.2535    0.3374 H   0  0  0  0  0  0  0  0  0  0  0  0
    7.9626   -0.5822    2.2554 H   0  0  0  0  0  0  0  0  0  0  0  0
    7.5637   -2.2113    1.6244 H   0  0  0  0  0  0  0  0  0  0  0  0
    6.2987    0.9153   -1.3047 H   0  0  0  0  0  0  0  0  0  0  0  0
    4.7099    1.9514   -2.8796 H   0  0  0  0  0  0  0  0  0  0  0  0
    2.2867    1.7042   -2.5502 H   0  0  0  0  0  0  0  0  0  0  0  0
    0.5264    0.8972   -1.3422 H   0  0  0  0  0  0  0  0  0  0  0  0
   -1.1669    1.8980   -0.2898 H   0  0  0  0  0  0  0  0  0  0  0  0
   -3.5836    2.0496   -0.4311 H   0  0  0  0  0  0  0  0  0  0  0  0
   -5.8215   -0.9001    0.2398 H   0  0  0  0  0  0  0  0  0  0  0  0
   -8.7958    2.4218   -0.6577 H   0  0  0  0  0  0  0  0  0  0  0  0
  -10.8953    0.7189   -0.2199 H   0  0  0  0  0  0  0  0  0  0  0  0
   -9.6984   -1.6898    0.4098 H   0  0  0  0  0  0  0  0  0  0  0  0
   -3.9107   -2.1383    0.5962 H   0  0  0  0  0  0  0  0  0  0  0  0
   -1.4632   -2.2901    0.7117 H   0  0  0  0  0  0  0  0  0  0  0  0
    3.0168   -0.6359    1.0079 H   0  0  0  0  0  0  0  0  0  0  0  0
  1  2  1  0
  2  3  1  0
  3  4  1  0
  4  5  2  0
  4  6  1  0
  6  7  2  0
  7  8  1  0
  8  9  2  0
  9 10  1  0
 10 11  1  0
 11 12  1  0
 12 13  2  0
 12 14  1  0
 14 15  2  0
 15 16  1  0
 16 17  2  0
 17 18  1  0
 18 19  1  0
 19 20  2  0
 19 21  1  0
 21 22  2  0
 22 23  1  0
 23 24  2  0
 24 25  1  0
 17 26  1  0
 26 27  2  0
 10 28  2  0
 28  6  1  0
 27 14  1  0
 25 21  1  0
  1 29  1  0
  1 30  1  0
  1 31  1  0
  2 32  1  0
  2 33  1  0
  7 34  1  0
  8 35  1  0
  9 36  1  0
 11 37  1  0
 15 38  1  0
 16 39  1  0
 18 40  1  0
 22 41  1  0
 23 42  1  0
 24 43  1  0
 26 44  1  0
 27 45  1  0
 28 46  1  0
M  END
$$$$
