
     RDKit          3D

 69 74  0  0  0  0  0  0  0  0999 V2000
    6.8618   -2.6884    1.9717 C   0  0  0  0  0  0  0  0  0  0  0  0
    6.6601   -1.9594    0.7696 O   0  0  0  0  0  0  0  0  0  0  0  0
    5.3809   -1.5556    0.4775 C   0  0  0  0  0  0  0  0  0  0  0  0
    4.2492   -1.9267    1.2121 C   0  0  0  0  0  0  0  0  0  0  0  0
    2.9743   -1.4707    0.8440 C   0  0  0  0  0  0  0  0  0  0  0  0
    2.8301   -0.6061   -0.2555 C   0  0  0  0  0  0  0  0  0  0  0  0
    3.9658   -0.2530   -1.0043 C   0  0  0  0  0  0  0  0  0  0  0  0
    5.2358   -0.7220   -0.6487 C   0  0  0  0  0  0  0  0  0  0  0  0
    6.3918   -0.4144   -1.3238 O   0  0  0  0  0  0  0  0  0  0  0  0
    6.2719    0.2959   -2.5471 C   0  0  0  0  0  0  0  0  0  0  0  0
    1.4643   -0.0997   -0.6904 C   0  0  0  0  0  0  0  0  0  0  0  0
    0.4772   -0.2418    0.3919 N   0  0  0  0  0  0  0  0  0  0  0  0
   -0.7957    0.1274   -0.0828 C   0  0  0  0  0  0  0  0  0  0  0  0
   -1.4391   -0.6653   -0.9705 N   0  0  0  0  0  0  0  0  0  0  0  0
   -2.6617   -0.3131   -1.4203 C   0  0  0  0  0  0  0  0  0  0  0  0
   -3.3438   -1.2617   -2.4012 C   0  0  0  0  0  0  0  0  0  0  0  0
   -4.0608   -2.4008   -1.7809 N   0  0  0  0  0  0  0  0  0  0  0  0
   -4.5609   -3.3456   -2.8011 C   0  0  0  0  0  0  0  0  0  0  0  0
   -6.0581   -3.1823   -3.1085 C   0  0  0  0  0  0  0  0  0  0  0  0
   -6.8904   -3.3701   -1.9571 O   0  0  0  0  0  0  0  0  0  0  0  0
   -6.2407   -3.0123   -0.7281 C   0  0  0  0  0  0  0  0  0  0  0  0
   -5.1672   -1.9296   -0.9160 C   0  0  0  0  0  0  0  0  0  0  0  0
   -3.3395    0.7917   -1.0755 N   0  0  0  0  0  0  0  0  0  0  0  0
   -2.6761    1.5605   -0.1982 C   0  0  0  0  0  0  0  0  0  0  0  0
   -3.3669    3.0159    0.3592 S   0  0  0  0  0  0  0  0  0  0  0  0
   -2.0147    3.3530    1.3320 C   0  0  0  0  0  0  0  0  0  0  0  0
   -1.0467    2.3679    1.2571 C   0  0  0  0  0  0  0  0  0  0  0  0
   -1.4257    1.3134    0.3449 C   0  0  0  0  0  0  0  0  0  0  0  0
    0.2398    2.4617    2.0266 C   0  0  0  0  0  0  0  0  0  0  0  0
    0.1858    3.5492    3.1132 C   0  0  0  0  0  0  0  0  0  0  0  0
   -0.4914    4.8550    2.6440 C   0  0  0  0  0  0  0  0  0  0  0  0
    0.3232    5.5565    1.5522 C   0  0  0  0  0  0  0  0  0  0  0  0
   -1.9408    4.5837    2.1847 C   0  0  0  0  0  0  0  0  0  0  0  0
    0.4539   -1.6100    0.9300 C   0  0  0  0  0  0  0  0  0  0  0  0
    1.7707   -1.8580    1.6729 C   0  0  0  0  0  0  0  0  0  0  0  0
    6.3729   -3.6672    1.9239 H   0  0  0  0  0  0  0  0  0  0  0  0
    6.5247   -2.1183    2.8435 H   0  0  0  0  0  0  0  0  0  0  0  0
    7.9365   -2.8592    2.0835 H   0  0  0  0  0  0  0  0  0  0  0  0
    4.3302   -2.5745    2.0790 H   0  0  0  0  0  0  0  0  0  0  0  0
    3.8313    0.3992   -1.8615 H   0  0  0  0  0  0  0  0  0  0  0  0
    7.2719    0.3826   -2.9822 H   0  0  0  0  0  0  0  0  0  0  0  0
    5.8942    1.3094   -2.3784 H   0  0  0  0  0  0  0  0  0  0  0  0
    5.6452   -0.2465   -3.2623 H   0  0  0  0  0  0  0  0  0  0  0  0
    1.1695   -0.6652   -1.5850 H   0  0  0  0  0  0  0  0  0  0  0  0
    1.5535    0.9613   -0.9590 H   0  0  0  0  0  0  0  0  0  0  0  0
   -4.0201   -0.6831   -3.0437 H   0  0  0  0  0  0  0  0  0  0  0  0
   -2.5514   -1.6513   -3.0534 H   0  0  0  0  0  0  0  0  0  0  0  0
   -3.9784   -3.2891   -3.7279 H   0  0  0  0  0  0  0  0  0  0  0  0
   -4.4016   -4.3552   -2.4024 H   0  0  0  0  0  0  0  0  0  0  0  0
   -6.2638   -2.1880   -3.5209 H   0  0  0  0  0  0  0  0  0  0  0  0
   -6.3696   -3.9158   -3.8588 H   0  0  0  0  0  0  0  0  0  0  0  0
   -5.8082   -3.9203   -0.2914 H   0  0  0  0  0  0  0  0  0  0  0  0
   -7.0156   -2.6584   -0.0403 H   0  0  0  0  0  0  0  0  0  0  0  0
   -4.7654   -1.6449    0.0627 H   0  0  0  0  0  0  0  0  0  0  0  0
   -5.6525   -1.0483   -1.3567 H   0  0  0  0  0  0  0  0  0  0  0  0
    0.4708    1.5032    2.5047 H   0  0  0  0  0  0  0  0  0  0  0  0
    1.0541    2.6842    1.3259 H   0  0  0  0  0  0  0  0  0  0  0  0
    1.2010    3.7537    3.4739 H   0  0  0  0  0  0  0  0  0  0  0  0
   -0.3759    3.1602    3.9733 H   0  0  0  0  0  0  0  0  0  0  0  0
   -0.5331    5.5419    3.4992 H   0  0  0  0  0  0  0  0  0  0  0  0
    1.3446    5.7458    1.8993 H   0  0  0  0  0  0  0  0  0  0  0  0
   -0.1270    6.5228    1.3005 H   0  0  0  0  0  0  0  0  0  0  0  0
    0.3809    4.9684    0.6315 H   0  0  0  0  0  0  0  0  0  0  0  0
   -2.3432    5.4560    1.6571 H   0  0  0  0  0  0  0  0  0  0  0  0
   -2.5663    4.4219    3.0714 H   0  0  0  0  0  0  0  0  0  0  0  0
   -0.3749   -1.7406    1.6378 H   0  0  0  0  0  0  0  0  0  0  0  0
    0.3311   -2.3518    0.1282 H   0  0  0  0  0  0  0  0  0  0  0  0
    1.7893   -1.2618    2.5941 H   0  0  0  0  0  0  0  0  0  0  0  0
    1.8292   -2.9163    1.9522 H   0  0  0  0  0  0  0  0  0  0  0  0
  1  2  1  0
  2  3  1  0
  3  4  2  0
  4  5  1  0
  5  6  2  0
  6  7  1  0
  7  8  2  0
  8  9  1  0
  9 10  1  0
  6 11  1  0
 11 12  1  0
 12 13  1  0
 13 14  2  0
 14 15  1  0
 15 16  1  0
 16 17  1  0
 17 18  1  0
 18 19  1  0
 19 20  1  0
 20 21  1  0
 21 22  1  0
 15 23  2  0
 23 24  1  0
 24 25  1  0
 25 26  1  0
 26 27  2  0
 27 28  1  0
 27 29  1  0
 29 30  1  0
 30 31  1  0
 31 32  1  0
 31 33  1  0
 12 34  1  0
 34 35  1  0
  8  3  1  0
 28 13  1  0
 35  5  1  0
 22 17  1  0
 28 24  2  0
 33 26  1  0
  1 36  1  0
  1 37  1  0
  1 38  1  0
  4 39  1  0
  7 40  1  0
 10 41  1  0
 10 42  1  0
 10 43  1  0
 11 44  1  0
 11 45  1  0
 16 46  1  0
 16 47  1  0
 18 48  1  0
 18 49  1  0
 19 50  1  0
 19 51  1  0
 21 52  1  0
 21 53  1  0
 22 54  1  0
 22 55  1  0
 29 56  1  0
 29 57  1  0
 30 58  1  0
 30 59  1  0
 31 60  1  0
 32 61  1  0
 32 62  1  0
 32 63  1  0
 33 64  1  0
 33 65  1  0
 34 66  1  0
 34 67  1  0
 35 68  1  0
 35 69  1  0
M  END
$$$$
