
     RDKit          3D

 44 47  0  0  0  0  0  0  0  0999 V2000
   -1.1577   -1.0912    2.3231 O   0  0  0  0  0  0  0  0  0  0  0  0
   -1.6453   -0.5728    1.3299 C   0  0  0  0  0  0  0  0  0  0  0  0
   -2.1216   -1.2080    0.1998 O   0  0  0  0  0  0  0  0  0  0  0  0
   -1.9778   -2.6020    0.2479 C   0  0  0  0  0  0  0  0  0  0  0  0
   -3.0757   -3.3442    0.6908 C   0  0  0  0  0  0  0  0  0  0  0  0
   -2.9978   -4.7339    0.7087 C   0  0  0  0  0  0  0  0  0  0  0  0
   -1.8376   -5.3700    0.2682 C   0  0  0  0  0  0  0  0  0  0  0  0
   -0.7487   -4.6192   -0.1904 C   0  0  0  0  0  0  0  0  0  0  0  0
   -0.7965   -3.2180   -0.2012 C   0  0  0  0  0  0  0  0  0  0  0  0
    0.3202   -2.4093   -0.7178 C   0  0  0  0  0  0  0  0  0  0  0  0
    1.6166   -2.7245   -0.5690 C   0  0  0  0  0  0  0  0  0  0  0  0
    2.7161   -1.8718   -1.1089 C   0  0  0  0  0  0  0  0  0  0  0  0
    3.6634   -2.4525   -1.6388 O   0  0  0  0  0  0  0  0  0  0  0  0
    2.6267   -0.4320   -0.9643 C   0  0  0  0  0  0  0  0  0  0  0  0
    1.9511    0.3808   -0.0684 C   0  0  0  0  0  0  0  0  0  0  0  0
    2.2348    1.7237   -0.4261 C   0  0  0  0  0  0  0  0  0  0  0  0
    1.8691    2.9920    0.0564 C   0  0  0  0  0  0  0  0  0  0  0  0
    2.3780    4.1286   -0.5883 C   0  0  0  0  0  0  0  0  0  0  0  0
    3.2356    4.0111   -1.6857 C   0  0  0  0  0  0  0  0  0  0  0  0
    3.6142    2.7570   -2.1767 C   0  0  0  0  0  0  0  0  0  0  0  0
    3.0902    1.6484   -1.5169 C   0  0  0  0  0  0  0  0  0  0  0  0
    3.3363    0.3500   -1.8372 O   0  0  0  0  0  0  0  0  0  0  0  0
   -1.8039    0.8995    1.1809 C   0  0  0  0  0  0  0  0  0  0  0  0
   -2.0952    1.5063   -0.0487 C   0  0  0  0  0  0  0  0  0  0  0  0
   -2.2138    2.8958   -0.1327 C   0  0  0  0  0  0  0  0  0  0  0  0
   -2.0441    3.6836    1.0054 C   0  0  0  0  0  0  0  0  0  0  0  0
   -1.7501    3.0872    2.2306 C   0  0  0  0  0  0  0  0  0  0  0  0
   -1.6260    1.6995    2.3186 C   0  0  0  0  0  0  0  0  0  0  0  0
   -3.9806   -2.8441    1.0223 H   0  0  0  0  0  0  0  0  0  0  0  0
   -3.8417   -5.3226    1.0594 H   0  0  0  0  0  0  0  0  0  0  0  0
   -1.7806   -6.4561    0.2730 H   0  0  0  0  0  0  0  0  0  0  0  0
    0.1286   -5.1510   -0.5515 H   0  0  0  0  0  0  0  0  0  0  0  0
    0.0276   -1.5013   -1.2406 H   0  0  0  0  0  0  0  0  0  0  0  0
    1.9529   -3.6431   -0.1023 H   0  0  0  0  0  0  0  0  0  0  0  0
    1.3363    0.0459    0.7554 H   0  0  0  0  0  0  0  0  0  0  0  0
    1.2067    3.0945    0.9104 H   0  0  0  0  0  0  0  0  0  0  0  0
    2.1027    5.1166   -0.2252 H   0  0  0  0  0  0  0  0  0  0  0  0
    3.6193    4.9088   -2.1660 H   0  0  0  0  0  0  0  0  0  0  0  0
    4.2808    2.6457   -3.0232 H   0  0  0  0  0  0  0  0  0  0  0  0
   -2.2256    0.9171   -0.9530 H   0  0  0  0  0  0  0  0  0  0  0  0
   -2.4373    3.3648   -1.0884 H   0  0  0  0  0  0  0  0  0  0  0  0
   -2.1398    4.7648    0.9363 H   0  0  0  0  0  0  0  0  0  0  0  0
   -1.6169    3.7019    3.1178 H   0  0  0  0  0  0  0  0  0  0  0  0
   -1.3931    1.2440    3.2798 H   0  0  0  0  0  0  0  0  0  0  0  0
  1  2  2  0
  2  3  1  0
  3  4  1  0
  4  5  2  0
  5  6  1  0
  6  7  2  0
  7  8  1  0
  8  9  2  0
  9 10  1  0
 10 11  2  3
 11 12  1  0
 12 13  2  0
 12 14  1  0
 14 15  2  0
 15 16  1  0
 16 17  2  0
 17 18  1  0
 18 19  2  0
 19 20  1  0
 20 21  2  0
 21 22  1  0
  2 23  1  0
 23 24  2  0
 24 25  1  0
 25 26  2  0
 26 27  1  0
 27 28  2  0
  9  4  1  0
 22 14  1  0
 28 23  1  0
 21 16  1  0
  5 29  1  0
  6 30  1  0
  7 31  1  0
  8 32  1  0
 10 33  1  0
 11 34  1  0
 15 35  1  0
 17 36  1  0
 18 37  1  0
 19 38  1  0
 20 39  1  0
 24 40  1  0
 25 41  1  0
 26 42  1  0
 27 43  1  0
 28 44  1  0
M  END
$$$$
