
     RDKit          3D

 48 50  0  0  0  0  0  0  0  0999 V2000
   -5.3102   -1.4784    0.6494 C   0  0  0  0  0  0  0  0  0  0  0  0
   -4.4725   -0.4492    1.1833 O   0  0  0  0  0  0  0  0  0  0  0  0
   -3.6771    0.0709    0.1939 C   0  0  0  0  0  0  0  0  0  0  0  0
   -2.3347   -0.3031    0.1862 C   0  0  0  0  0  0  0  0  0  0  0  0
   -1.4744    0.2089   -0.7895 C   0  0  0  0  0  0  0  0  0  0  0  0
   -0.0532   -0.1606   -0.8177 C   0  0  0  0  0  0  0  0  0  0  0  0
    0.4223   -1.4050   -1.0222 C   0  0  0  0  0  0  0  0  0  0  0  0
   -0.3920   -2.5387   -1.2955 C   0  0  0  0  0  0  0  0  0  0  0  0
   -1.0847   -3.4529   -1.4752 N   0  0  0  0  0  0  0  0  0  0  0  0
    1.9009   -1.5957   -1.0626 C   0  0  0  0  0  0  0  0  0  0  0  0
    2.4114   -2.1234   -2.0417 O   0  0  0  0  0  0  0  0  0  0  0  0
    2.5377   -1.1489    0.0835 N   0  0  0  0  0  0  0  0  0  0  0  0
    3.9324   -1.1503    0.3649 C   0  0  0  0  0  0  0  0  0  0  0  0
    4.8664   -1.5700   -0.5888 C   0  0  0  0  0  0  0  0  0  0  0  0
    6.2272   -1.5565   -0.3023 C   0  0  0  0  0  0  0  0  0  0  0  0
    6.6682   -1.1193    0.9420 C   0  0  0  0  0  0  0  0  0  0  0  0
    5.7848   -0.6934    1.9178 C   0  0  0  0  0  0  0  0  0  0  0  0
    6.3132   -0.2915    3.0870 N   0  0  0  0  0  0  0  0  0  0  0  0
    5.4807    0.1225    4.0617 C   0  0  0  0  0  0  0  0  0  0  0  0
    4.1113    0.1590    3.9243 C   0  0  0  0  0  0  0  0  0  0  0  0
    3.5668   -0.2549    2.7109 C   0  0  0  0  0  0  0  0  0  0  0  0
    4.3933   -0.7018    1.6477 C   0  0  0  0  0  0  0  0  0  0  0  0
   -1.9636    1.1185   -1.7400 C   0  0  0  0  0  0  0  0  0  0  0  0
   -3.3069    1.5133   -1.7261 C   0  0  0  0  0  0  0  0  0  0  0  0
   -3.8612    2.4097   -2.6045 O   0  0  0  0  0  0  0  0  0  0  0  0
   -3.1653    2.6285   -3.8249 C   0  0  0  0  0  0  0  0  0  0  0  0
   -4.1560    1.0041   -0.7314 C   0  0  0  0  0  0  0  0  0  0  0  0
   -5.4785    1.3751   -0.7003 O   0  0  0  0  0  0  0  0  0  0  0  0
   -5.6379    2.5252    0.1298 C   0  0  0  0  0  0  0  0  0  0  0  0
   -6.0581   -1.0734   -0.0426 H   0  0  0  0  0  0  0  0  0  0  0  0
   -5.8441   -1.9377    1.4897 H   0  0  0  0  0  0  0  0  0  0  0  0
   -4.7128   -2.2600    0.1609 H   0  0  0  0  0  0  0  0  0  0  0  0
   -1.9814   -0.9968    0.9435 H   0  0  0  0  0  0  0  0  0  0  0  0
    0.6291    0.6808   -0.7027 H   0  0  0  0  0  0  0  0  0  0  0  0
    1.9390   -0.8178    0.8247 H   0  0  0  0  0  0  0  0  0  0  0  0
    4.5741   -1.9149   -1.5756 H   0  0  0  0  0  0  0  0  0  0  0  0
    6.9450   -1.8870   -1.0492 H   0  0  0  0  0  0  0  0  0  0  0  0
    7.7347   -1.1120    1.1575 H   0  0  0  0  0  0  0  0  0  0  0  0
    5.9641    0.4313    4.9847 H   0  0  0  0  0  0  0  0  0  0  0  0
    3.4811    0.4969    4.7402 H   0  0  0  0  0  0  0  0  0  0  0  0
    2.4866   -0.2238    2.6239 H   0  0  0  0  0  0  0  0  0  0  0  0
   -1.2777    1.5184   -2.4820 H   0  0  0  0  0  0  0  0  0  0  0  0
   -3.8202    3.2061   -4.4845 H   0  0  0  0  0  0  0  0  0  0  0  0
   -2.9330    1.6841   -4.3281 H   0  0  0  0  0  0  0  0  0  0  0  0
   -2.2591    3.2189   -3.6550 H   0  0  0  0  0  0  0  0  0  0  0  0
   -5.1112    3.3898   -0.2864 H   0  0  0  0  0  0  0  0  0  0  0  0
   -5.3008    2.3306    1.1533 H   0  0  0  0  0  0  0  0  0  0  0  0
   -6.7041    2.7667    0.1683 H   0  0  0  0  0  0  0  0  0  0  0  0
  1  2  1  0
  2  3  1  0
  3  4  2  0
  4  5  1  0
  5  6  1  0
  6  7  2  3
  7  8  1  0
  8  9  3  0
  7 10  1  0
 10 11  2  0
 10 12  1  0
 12 13  1  0
 13 14  2  0
 14 15  1  0
 15 16  2  0
 16 17  1  0
 17 18  2  0
 18 19  1  0
 19 20  2  0
 20 21  1  0
 21 22  2  0
  5 23  2  0
 23 24  1  0
 24 25  1  0
 25 26  1  0
 24 27  2  0
 27 28  1  0
 28 29  1  0
 27  3  1  0
 22 13  1  0
 22 17  1  0
  1 30  1  0
  1 31  1  0
  1 32  1  0
  4 33  1  0
  6 34  1  0
 12 35  1  0
 14 36  1  0
 15 37  1  0
 16 38  1  0
 19 39  1  0
 20 40  1  0
 21 41  1  0
 23 42  1  0
 26 43  1  0
 26 44  1  0
 26 45  1  0
 29 46  1  0
 29 47  1  0
 29 48  1  0
M  END
$$$$
