
     RDKit          3D

 35 37  0  0  0  0  0  0  0  0999 V2000
    4.9020    0.6098   -1.1340 C   0  0  0  0  0  0  0  0  0  0  0  0
    3.8674    0.2714   -0.1003 C   0  0  0  0  0  0  0  0  0  0  0  0
    4.2010    0.2828    1.2628 C   0  0  0  0  0  0  0  0  0  0  0  0
    3.2537    0.0043    2.2569 C   0  0  0  0  0  0  0  0  0  0  0  0
    1.9575   -0.2746    1.8232 C   0  0  0  0  0  0  0  0  0  0  0  0
    0.8022   -0.5792    2.4961 N   0  0  0  0  0  0  0  0  0  0  0  0
   -0.2184   -0.7563    1.5786 C   0  0  0  0  0  0  0  0  0  0  0  0
   -1.5306   -1.0816    2.0474 C   0  0  0  0  0  0  0  0  0  0  0  0
   -1.7033   -1.6363    3.3555 C   0  0  0  0  0  0  0  0  0  0  0  0
   -1.7951   -2.0608    4.4317 N   0  0  0  0  0  0  0  0  0  0  0  0
   -2.6415   -0.8763    1.3078 C   0  0  0  0  0  0  0  0  0  0  0  0
   -2.7540   -0.2958   -0.0360 C   0  0  0  0  0  0  0  0  0  0  0  0
   -2.3545   -1.0158   -1.1728 C   0  0  0  0  0  0  0  0  0  0  0  0
   -2.4893   -0.4635   -2.4508 C   0  0  0  0  0  0  0  0  0  0  0  0
   -3.0371    0.8057   -2.5838 C   0  0  0  0  0  0  0  0  0  0  0  0
   -3.1951    1.4007   -3.8050 O   0  0  0  0  0  0  0  0  0  0  0  0
   -3.4470    1.5166   -1.4587 C   0  0  0  0  0  0  0  0  0  0  0  0
   -3.9916    2.7615   -1.6015 O   0  0  0  0  0  0  0  0  0  0  0  0
   -3.3124    0.9786   -0.1861 C   0  0  0  0  0  0  0  0  0  0  0  0
    0.2544   -0.5850    0.3568 N   0  0  0  0  0  0  0  0  0  0  0  0
    1.5858   -0.2832    0.4882 C   0  0  0  0  0  0  0  0  0  0  0  0
    2.5454   -0.0014   -0.4947 C   0  0  0  0  0  0  0  0  0  0  0  0
    4.6871    0.1055   -2.0820 H   0  0  0  0  0  0  0  0  0  0  0  0
    4.9204    1.6906   -1.3044 H   0  0  0  0  0  0  0  0  0  0  0  0
    5.8966    0.2842   -0.8117 H   0  0  0  0  0  0  0  0  0  0  0  0
    5.2214    0.5136    1.5661 H   0  0  0  0  0  0  0  0  0  0  0  0
    3.5226    0.0121    3.3075 H   0  0  0  0  0  0  0  0  0  0  0  0
    0.7228   -0.6489    3.5009 H   0  0  0  0  0  0  0  0  0  0  0  0
   -3.6156   -1.1289    1.7294 H   0  0  0  0  0  0  0  0  0  0  0  0
   -1.9125   -2.0042   -1.0658 H   0  0  0  0  0  0  0  0  0  0  0  0
   -2.1582   -1.0337   -3.3121 H   0  0  0  0  0  0  0  0  0  0  0  0
   -2.8288    0.8015   -4.4781 H   0  0  0  0  0  0  0  0  0  0  0  0
   -3.9696    2.9260   -2.5654 H   0  0  0  0  0  0  0  0  0  0  0  0
   -3.6381    1.5566    0.6734 H   0  0  0  0  0  0  0  0  0  0  0  0
    2.2525    0.0020   -1.5390 H   0  0  0  0  0  0  0  0  0  0  0  0
  1  2  1  0
  2  3  2  0
  3  4  1  0
  4  5  2  0
  5  6  1  0
  6  7  1  0
  7  8  1  0
  8  9  1  0
  9 10  3  0
  8 11  2  3
 11 12  1  0
 12 13  2  0
 13 14  1  0
 14 15  2  0
 15 16  1  0
 15 17  1  0
 17 18  1  0
 17 19  2  0
  7 20  2  0
 20 21  1  0
 21 22  2  0
 22  2  1  0
 21  5  1  0
 19 12  1  0
  1 23  1  0
  1 24  1  0
  1 25  1  0
  3 26  1  0
  4 27  1  0
  6 28  1  0
 11 29  1  0
 13 30  1  0
 14 31  1  0
 16 32  1  0
 18 33  1  0
 19 34  1  0
 22 35  1  0
M  END
$$$$
