
     RDKit          3D

 38 38  0  0  0  0  0  0  0  0999 V2000
    4.2911    2.3142    3.1487 C   0  0  0  0  0  0  0  0  0  0  0  0
    5.4398    2.4358    2.3233 O   0  0  0  0  0  0  0  0  0  0  0  0
    5.6413    1.3362    1.4331 C   0  0  0  0  0  0  0  0  0  0  0  0
    4.6483    1.3040    0.2664 C   0  0  0  0  0  0  0  0  0  0  0  0
    3.3740    0.6882    0.6129 N   0  0  0  0  0  0  0  0  0  0  0  0
    2.2865    0.7984   -0.2286 C   0  0  0  0  0  0  0  0  0  0  0  0
    2.3338    1.4499   -1.2691 O   0  0  0  0  0  0  0  0  0  0  0  0
    1.0389    0.0657    0.1933 C   0  0  0  0  0  0  0  0  0  0  0  0
    1.0281   -0.5777    1.4567 C   0  0  0  0  0  0  0  0  0  0  0  0
    1.0973   -1.0888    2.4969 N   0  0  0  0  0  0  0  0  0  0  0  0
    0.0020    0.0839   -0.6718 C   0  0  0  0  0  0  0  0  0  0  0  0
   -1.3444   -0.5037   -0.6029 C   0  0  0  0  0  0  0  0  0  0  0  0
   -1.7588   -1.3092    0.6041 C   0  0  0  0  0  0  0  0  0  0  0  0
   -2.1732   -0.2940   -1.6495 C   0  0  0  0  0  0  0  0  0  0  0  0
   -3.5458   -0.7944   -1.7648 C   0  0  0  0  0  0  0  0  0  0  0  0
   -4.6142   -0.0366   -1.2742 C   0  0  0  0  0  0  0  0  0  0  0  0
   -5.9209   -0.5163   -1.3812 C   0  0  0  0  0  0  0  0  0  0  0  0
   -6.1637   -1.7531   -1.9781 C   0  0  0  0  0  0  0  0  0  0  0  0
   -5.1014   -2.5119   -2.4688 C   0  0  0  0  0  0  0  0  0  0  0  0
   -3.7939   -2.0342   -2.3629 C   0  0  0  0  0  0  0  0  0  0  0  0
    4.2585    1.3360    3.6378 H   0  0  0  0  0  0  0  0  0  0  0  0
    3.3804    2.4839    2.5690 H   0  0  0  0  0  0  0  0  0  0  0  0
    4.3449    3.0860    3.9216 H   0  0  0  0  0  0  0  0  0  0  0  0
    6.6463    1.4725    1.0192 H   0  0  0  0  0  0  0  0  0  0  0  0
    5.6477    0.3942    1.9939 H   0  0  0  0  0  0  0  0  0  0  0  0
    4.4574    2.3162   -0.1065 H   0  0  0  0  0  0  0  0  0  0  0  0
    5.0632    0.7053   -0.5520 H   0  0  0  0  0  0  0  0  0  0  0  0
    3.3677    0.0351    1.3876 H   0  0  0  0  0  0  0  0  0  0  0  0
    0.1694    0.6311   -1.6047 H   0  0  0  0  0  0  0  0  0  0  0  0
   -1.1040   -2.1774    0.7313 H   0  0  0  0  0  0  0  0  0  0  0  0
   -2.7767   -1.7037    0.5351 H   0  0  0  0  0  0  0  0  0  0  0  0
   -1.7311   -0.6913    1.5076 H   0  0  0  0  0  0  0  0  0  0  0  0
   -1.8594    0.2889   -2.5143 H   0  0  0  0  0  0  0  0  0  0  0  0
   -4.4353    0.9281   -0.8056 H   0  0  0  0  0  0  0  0  0  0  0  0
   -6.7489    0.0746   -0.9985 H   0  0  0  0  0  0  0  0  0  0  0  0
   -7.1814   -2.1259   -2.0609 H   0  0  0  0  0  0  0  0  0  0  0  0
   -5.2910   -3.4759   -2.9336 H   0  0  0  0  0  0  0  0  0  0  0  0
   -2.9725   -2.6342   -2.7469 H   0  0  0  0  0  0  0  0  0  0  0  0
  1  2  1  0
  2  3  1  0
  3  4  1  0
  4  5  1  0
  5  6  1  0
  6  7  2  0
  6  8  1  0
  8  9  1  0
  9 10  3  0
  8 11  2  3
 11 12  1  0
 12 13  1  0
 12 14  2  3
 14 15  1  0
 15 16  2  0
 16 17  1  0
 17 18  2  0
 18 19  1  0
 19 20  2  0
 20 15  1  0
  1 21  1  0
  1 22  1  0
  1 23  1  0
  3 24  1  0
  3 25  1  0
  4 26  1  0
  4 27  1  0
  5 28  1  0
 11 29  1  0
 13 30  1  0
 13 31  1  0
 13 32  1  0
 14 33  1  0
 16 34  1  0
 17 35  1  0
 18 36  1  0
 19 37  1  0
 20 38  1  0
M  END
$$$$
