
     RDKit          3D

 45 47  0  0  0  0  0  0  0  0999 V2000
    8.0779    0.6176    0.3880 C   0  0  0  0  0  0  0  0  0  0  0  0
    7.1102   -0.5238    0.1170 C   0  0  0  0  0  0  0  0  0  0  0  0
    6.2047   -0.8574    1.3078 C   0  0  0  0  0  0  0  0  0  0  0  0
    5.2826    0.2745    1.7715 C   0  0  0  0  0  0  0  0  0  0  0  0
    4.3010    0.6940    0.7265 C   0  0  0  0  0  0  0  0  0  0  0  0
    4.4671    1.7108   -0.0944 N   0  0  0  0  0  0  0  0  0  0  0  0
    3.3985    1.8582   -0.9551 N   0  0  0  0  0  0  0  0  0  0  0  0
    2.4654    0.9559   -0.7473 C   0  0  0  0  0  0  0  0  0  0  0  0
    1.3137    0.9252   -1.4931 N   0  0  0  0  0  0  0  0  0  0  0  0
    0.2691    0.0296   -1.3705 C   0  0  0  0  0  0  0  0  0  0  0  0
    0.1928   -0.8918   -0.5661 O   0  0  0  0  0  0  0  0  0  0  0  0
   -0.8511    0.3329   -2.3814 C   0  0  0  0  0  0  0  0  0  0  0  0
   -1.9346   -0.5790   -2.4184 O   0  0  0  0  0  0  0  0  0  0  0  0
   -2.9543   -0.4083   -1.5260 C   0  0  0  0  0  0  0  0  0  0  0  0
   -2.9239    0.3878   -0.3812 C   0  0  0  0  0  0  0  0  0  0  0  0
   -4.0444    0.4669    0.4611 C   0  0  0  0  0  0  0  0  0  0  0  0
   -5.2120   -0.2499    0.1763 C   0  0  0  0  0  0  0  0  0  0  0  0
   -6.4166   -0.2138    1.0161 C   0  0  0  0  0  0  0  0  0  0  0  0
   -6.4474    0.6265    2.2581 C   0  0  0  0  0  0  0  0  0  0  0  0
   -7.4742   -0.9487    0.6417 C   0  0  0  0  0  0  0  0  0  0  0  0
   -7.4935   -1.7881   -0.5663 C   0  0  0  0  0  0  0  0  0  0  0  0
   -8.4927   -2.4331   -0.8627 O   0  0  0  0  0  0  0  0  0  0  0  0
   -6.3436   -1.8044   -1.3350 O   0  0  0  0  0  0  0  0  0  0  0  0
   -5.2153   -1.0456   -0.9690 C   0  0  0  0  0  0  0  0  0  0  0  0
   -4.1079   -1.1356   -1.8135 C   0  0  0  0  0  0  0  0  0  0  0  0
    2.8140   -0.1378    0.5090 S   0  0  0  0  0  0  0  0  0  0  0  0
    7.5520    1.5673    0.5217 H   0  0  0  0  0  0  0  0  0  0  0  0
    8.7638    0.7362   -0.4573 H   0  0  0  0  0  0  0  0  0  0  0  0
    8.6756    0.4223    1.2841 H   0  0  0  0  0  0  0  0  0  0  0  0
    6.5081   -0.2902   -0.7682 H   0  0  0  0  0  0  0  0  0  0  0  0
    7.6919   -1.4196   -0.1324 H   0  0  0  0  0  0  0  0  0  0  0  0
    6.8347   -1.1579    2.1547 H   0  0  0  0  0  0  0  0  0  0  0  0
    5.6024   -1.7366    1.0459 H   0  0  0  0  0  0  0  0  0  0  0  0
    5.8743    1.1435    2.0812 H   0  0  0  0  0  0  0  0  0  0  0  0
    4.7446   -0.0541    2.6699 H   0  0  0  0  0  0  0  0  0  0  0  0
    1.2847    1.6461   -2.2016 H   0  0  0  0  0  0  0  0  0  0  0  0
   -0.3901    0.2913   -3.3762 H   0  0  0  0  0  0  0  0  0  0  0  0
   -1.2019    1.3645   -2.2487 H   0  0  0  0  0  0  0  0  0  0  0  0
   -2.0383    0.9438   -0.0929 H   0  0  0  0  0  0  0  0  0  0  0  0
   -3.9724    1.0933    1.3467 H   0  0  0  0  0  0  0  0  0  0  0  0
   -7.4093    0.5505    2.7775 H   0  0  0  0  0  0  0  0  0  0  0  0
   -6.2931    1.6837    2.0163 H   0  0  0  0  0  0  0  0  0  0  0  0
   -5.6729    0.3071    2.9636 H   0  0  0  0  0  0  0  0  0  0  0  0
   -8.3932   -0.9679    1.2165 H   0  0  0  0  0  0  0  0  0  0  0  0
   -4.1466   -1.7718   -2.6935 H   0  0  0  0  0  0  0  0  0  0  0  0
  1  2  1  0
  2  3  1  0
  3  4  1  0
  4  5  1  0
  5  6  2  0
  6  7  1  0
  7  8  2  0
  8  9  1  0
  9 10  1  0
 10 11  2  0
 10 12  1  0
 12 13  1  0
 13 14  1  0
 14 15  2  0
 15 16  1  0
 16 17  2  0
 17 18  1  0
 18 19  1  0
 18 20  2  0
 20 21  1  0
 21 22  2  0
 21 23  1  0
 23 24  1  0
 24 25  2  0
  8 26  1  0
 26  5  1  0
 25 14  1  0
 24 17  1  0
  1 27  1  0
  1 28  1  0
  1 29  1  0
  2 30  1  0
  2 31  1  0
  3 32  1  0
  3 33  1  0
  4 34  1  0
  4 35  1  0
  9 36  1  0
 12 37  1  0
 12 38  1  0
 15 39  1  0
 16 40  1  0
 19 41  1  0
 19 42  1  0
 19 43  1  0
 20 44  1  0
 25 45  1  0
M  END
$$$$
