
     RDKit          3D

 69 75  0  0  0  0  0  0  0  0999 V2000
   -4.1810    5.2871    0.7693 C   0  0  0  0  0  0  0  0  0  0  0  0
   -3.3147    4.2672    0.0930 C   0  0  0  0  0  0  0  0  0  0  0  0
   -3.0275    4.3408   -1.2840 C   0  0  0  0  0  0  0  0  0  0  0  0
   -3.6729    5.6106   -2.2669 Cl  0  0  0  0  0  0  0  0  0  0  0  0
   -2.2032    3.3908   -1.9197 C   0  0  0  0  0  0  0  0  0  0  0  0
   -1.6393    2.3374   -1.2003 C   0  0  0  0  0  0  0  0  0  0  0  0
   -1.9189    2.2528    0.1533 C   0  0  0  0  0  0  0  0  0  0  0  0
   -2.7338    3.2085    0.7800 C   0  0  0  0  0  0  0  0  0  0  0  0
   -2.8361    2.9147    2.1393 N   0  0  0  0  0  0  0  0  0  0  0  0
   -2.0957    1.7810    2.4862 C   0  0  0  0  0  0  0  0  0  0  0  0
   -1.9897    1.3392    3.6201 O   0  0  0  0  0  0  0  0  0  0  0  0
   -1.4616    1.2545    1.1752 C   0  0  1  0  0  0  0  0  0  0  0  0
   -1.9517   -0.0991    0.7967 C   0  0  0  0  0  0  0  0  0  0  0  0
   -0.9456   -1.0469    1.0428 C   0  0  0  0  0  0  0  0  0  0  0  0
   -1.3786   -2.2762    0.6394 C   0  0  0  0  0  0  0  0  0  0  0  0
   -0.6761   -3.4056    0.5635 O   0  0  0  0  0  0  0  0  0  0  0  0
   -2.7256   -2.1278    0.2441 N   0  0  0  0  0  0  0  0  0  0  0  0
   -3.6161   -3.1936   -0.1027 C   0  0  0  0  0  0  0  0  0  0  0  0
   -3.5009   -4.4402    0.5326 C   0  0  0  0  0  0  0  0  0  0  0  0
   -4.3634   -5.4863    0.1956 C   0  0  0  0  0  0  0  0  0  0  0  0
   -5.3483   -5.2958   -0.7707 C   0  0  0  0  0  0  0  0  0  0  0  0
   -5.4792   -4.0567   -1.3942 C   0  0  0  0  0  0  0  0  0  0  0  0
   -4.6211   -3.0056   -1.0592 C   0  0  0  0  0  0  0  0  0  0  0  0
   -3.0394   -0.7516    0.2716 C   0  0  0  0  0  0  0  0  0  0  0  0
   -4.2256   -0.2783   -0.1027 O   0  0  0  0  0  0  0  0  0  0  0  0
    0.2580   -0.4027    1.6055 C   0  0  1  0  0  0  0  0  0  0  0  0
    1.6168   -0.7965    1.0243 C   0  0  0  0  0  0  0  0  0  0  0  0
    2.6668    0.2115    1.3084 N   0  0  0  0  0  0  0  0  0  0  0  0
    4.0149   -0.0054    1.0820 C   0  0  0  0  0  0  0  0  0  0  0  0
    4.8928    0.7063    1.5628 O   0  0  0  0  0  0  0  0  0  0  0  0
    4.2953   -1.0920    0.2959 N   0  0  0  0  0  0  0  0  0  0  0  0
    5.6540   -1.4049   -0.0883 C   0  0  0  0  0  0  0  0  0  0  0  0
    5.9672   -0.8683   -1.4623 C   0  0  0  0  0  0  0  0  0  0  0  0
    6.3222    0.4776   -1.6314 C   0  0  0  0  0  0  0  0  0  0  0  0
    6.5924    0.9853   -2.9028 C   0  0  0  0  0  0  0  0  0  0  0  0
    6.5049    0.1548   -4.0184 C   0  0  0  0  0  0  0  0  0  0  0  0
    6.1446   -1.1829   -3.8642 C   0  0  0  0  0  0  0  0  0  0  0  0
    5.8734   -1.6925   -2.5929 C   0  0  0  0  0  0  0  0  0  0  0  0
    2.2858    1.3333    2.1838 C   0  0  0  0  0  0  0  0  0  0  0  0
    0.8956    1.9542    1.8676 C   0  0  0  0  0  0  0  0  0  0  0  0
   -0.0088    1.0127    1.2351 N   0  0  0  0  0  0  0  0  0  0  0  0
   -3.7051    6.2725    0.7320 H   0  0  0  0  0  0  0  0  0  0  0  0
   -4.3612    5.0513    1.8217 H   0  0  0  0  0  0  0  0  0  0  0  0
   -5.1617    5.3375    0.2848 H   0  0  0  0  0  0  0  0  0  0  0  0
   -1.9952    3.4769   -2.9846 H   0  0  0  0  0  0  0  0  0  0  0  0
   -0.9966    1.6081   -1.6857 H   0  0  0  0  0  0  0  0  0  0  0  0
   -3.3389    3.4506    2.8311 H   0  0  0  0  0  0  0  0  0  0  0  0
   -1.1311   -4.0153   -0.0454 H   0  0  0  0  0  0  0  0  0  0  0  0
   -2.7840   -4.6052    1.3347 H   0  0  0  0  0  0  0  0  0  0  0  0
   -4.2779   -6.4453    0.7009 H   0  0  0  0  0  0  0  0  0  0  0  0
   -6.0223   -6.1084   -1.0295 H   0  0  0  0  0  0  0  0  0  0  0  0
   -6.2518   -3.9049   -2.1440 H   0  0  0  0  0  0  0  0  0  0  0  0
   -4.7390   -2.0605   -1.5824 H   0  0  0  0  0  0  0  0  0  0  0  0
   -4.2139    0.6895   -0.0006 H   0  0  0  0  0  0  0  0  0  0  0  0
    0.2527   -0.5172    2.6980 H   0  0  0  0  0  0  0  0  0  0  0  0
    1.9393   -1.7623    1.4311 H   0  0  0  0  0  0  0  0  0  0  0  0
    1.5566   -0.9026   -0.0662 H   0  0  0  0  0  0  0  0  0  0  0  0
    3.5939   -1.3231   -0.3879 H   0  0  0  0  0  0  0  0  0  0  0  0
    6.3708   -1.0202    0.6457 H   0  0  0  0  0  0  0  0  0  0  0  0
    5.7433   -2.4970   -0.0825 H   0  0  0  0  0  0  0  0  0  0  0  0
    6.3843    1.1371   -0.7665 H   0  0  0  0  0  0  0  0  0  0  0  0
    6.8682    2.0300   -3.0204 H   0  0  0  0  0  0  0  0  0  0  0  0
    6.7156    0.5513   -5.0080 H   0  0  0  0  0  0  0  0  0  0  0  0
    6.0744   -1.8293   -4.7352 H   0  0  0  0  0  0  0  0  0  0  0  0
    5.5908   -2.7376   -2.4899 H   0  0  0  0  0  0  0  0  0  0  0  0
    3.0475    2.1201    2.1534 H   0  0  0  0  0  0  0  0  0  0  0  0
    2.2793    0.9303    3.2047 H   0  0  0  0  0  0  0  0  0  0  0  0
    0.4925    2.3618    2.8011 H   0  0  0  0  0  0  0  0  0  0  0  0
    1.0398    2.8004    1.1859 H   0  0  0  0  0  0  0  0  0  0  0  0
  1  2  1  0
  2  3  2  0
  3  4  1  0
  3  5  1  0
  5  6  2  0
  6  7  1  0
  7  8  2  0
  8  9  1  0
  9 10  1  0
 10 11  2  0
 10 12  1  0
 12 13  1  0
 13 14  1  0
 14 15  2  0
 15 16  1  0
 15 17  1  0
 17 18  1  0
 18 19  2  0
 19 20  1  0
 20 21  2  0
 21 22  1  0
 22 23  2  0
 17 24  1  0
 24 25  1  0
 14 26  1  0
 26 27  1  0
 27 28  1  0
 28 29  1  0
 29 30  2  0
 29 31  1  0
 31 32  1  0
 32 33  1  0
 33 34  2  0
 34 35  1  0
 35 36  2  0
 36 37  1  0
 37 38  2  0
 28 39  1  0
 39 40  1  0
 40 41  1  0
  8  2  1  0
 12 41  1  1
 12  7  1  0
 24 13  2  0
 41 26  1  0
 23 18  1  0
 38 33  1  0
  1 42  1  0
  1 43  1  0
  1 44  1  0
  5 45  1  0
  6 46  1  0
  9 47  1  0
 16 48  1  0
 19 49  1  0
 20 50  1  0
 21 51  1  0
 22 52  1  0
 23 53  1  0
 25 54  1  0
 26 55  1  1
 27 56  1  0
 27 57  1  0
 31 58  1  0
 32 59  1  0
 32 60  1  0
 34 61  1  0
 35 62  1  0
 36 63  1  0
 37 64  1  0
 38 65  1  0
 39 66  1  0
 39 67  1  0
 40 68  1  0
 40 69  1  0
M  END
$$$$
