
     RDKit          3D

 38 40  0  0  0  0  0  0  0  0999 V2000
    1.3724   -1.3064   -1.7875 O   0  0  0  0  0  0  0  0  0  0  0  0
    0.6824   -1.0620   -0.8016 C   0  0  0  0  0  0  0  0  0  0  0  0
    1.1333   -1.2653    0.4783 N   0  0  0  0  0  0  0  0  0  0  0  0
    2.4785   -1.7427    0.7196 C   0  0  0  0  0  0  0  0  0  0  0  0
    3.4265   -0.5980    0.9817 C   0  0  0  0  0  0  0  0  0  0  0  0
    3.9917    0.1116   -0.0887 C   0  0  0  0  0  0  0  0  0  0  0  0
    4.8512    1.1868    0.1471 C   0  0  0  0  0  0  0  0  0  0  0  0
    5.1462    1.5614    1.4554 C   0  0  0  0  0  0  0  0  0  0  0  0
    6.2040    2.8865    1.7486 Cl  0  0  0  0  0  0  0  0  0  0  0  0
    4.5871    0.8721    2.5297 C   0  0  0  0  0  0  0  0  0  0  0  0
    3.7264   -0.2029    2.2940 C   0  0  0  0  0  0  0  0  0  0  0  0
   -0.6134   -0.5651   -0.8857 N   0  0  0  0  0  0  0  0  0  0  0  0
   -1.1540   -0.3659   -2.2274 C   0  0  0  0  0  0  0  0  0  0  0  0
   -2.1771    0.7654   -2.2554 C   0  0  0  0  0  0  0  0  0  0  0  0
   -3.2329    0.5803   -1.1984 C   0  0  0  0  0  0  0  0  0  0  0  0
   -4.4851    1.1937   -1.3396 C   0  0  0  0  0  0  0  0  0  0  0  0
   -5.4575    1.0467   -0.3515 C   0  0  0  0  0  0  0  0  0  0  0  0
   -5.1842    0.2941    0.7875 C   0  0  0  0  0  0  0  0  0  0  0  0
   -3.9352   -0.3079    0.9425 C   0  0  0  0  0  0  0  0  0  0  0  0
   -2.9448   -0.1648   -0.0422 C   0  0  0  0  0  0  0  0  0  0  0  0
   -1.6027   -0.8312    0.1606 C   0  0  0  0  0  0  0  0  0  0  0  0
    0.8053   -0.5838    1.1439 H   0  0  0  0  0  0  0  0  0  0  0  0
    2.4311   -2.3973    1.5971 H   0  0  0  0  0  0  0  0  0  0  0  0
    2.8358   -2.3534   -0.1173 H   0  0  0  0  0  0  0  0  0  0  0  0
    3.7572   -0.1704   -1.1149 H   0  0  0  0  0  0  0  0  0  0  0  0
    5.2811    1.7256   -0.6929 H   0  0  0  0  0  0  0  0  0  0  0  0
    4.8161    1.1669    3.5503 H   0  0  0  0  0  0  0  0  0  0  0  0
    3.2943   -0.7309    3.1414 H   0  0  0  0  0  0  0  0  0  0  0  0
   -1.6054   -1.3148   -2.5450 H   0  0  0  0  0  0  0  0  0  0  0  0
   -0.3504   -0.1345   -2.9355 H   0  0  0  0  0  0  0  0  0  0  0  0
   -1.6762    1.7242   -2.0732 H   0  0  0  0  0  0  0  0  0  0  0  0
   -2.6363    0.8066   -3.2499 H   0  0  0  0  0  0  0  0  0  0  0  0
   -4.7086    1.7891   -2.2220 H   0  0  0  0  0  0  0  0  0  0  0  0
   -6.4281    1.5212   -0.4701 H   0  0  0  0  0  0  0  0  0  0  0  0
   -5.9432    0.1787    1.5569 H   0  0  0  0  0  0  0  0  0  0  0  0
   -3.7368   -0.8900    1.8399 H   0  0  0  0  0  0  0  0  0  0  0  0
   -1.7464   -1.9183    0.1986 H   0  0  0  0  0  0  0  0  0  0  0  0
   -1.2022   -0.5052    1.1257 H   0  0  0  0  0  0  0  0  0  0  0  0
  1  2  2  0
  2  3  1  0
  3  4  1  0
  4  5  1  0
  5  6  2  0
  6  7  1  0
  7  8  2  0
  8  9  1  0
  8 10  1  0
 10 11  2  0
  2 12  1  0
 12 13  1  0
 13 14  1  0
 14 15  1  0
 15 16  2  0
 16 17  1  0
 17 18  2  0
 18 19  1  0
 19 20  2  0
 20 21  1  0
 11  5  1  0
 21 12  1  0
 20 15  1  0
  3 22  1  0
  4 23  1  0
  4 24  1  0
  6 25  1  0
  7 26  1  0
 10 27  1  0
 11 28  1  0
 13 29  1  0
 13 30  1  0
 14 31  1  0
 14 32  1  0
 16 33  1  0
 17 34  1  0
 18 35  1  0
 19 36  1  0
 21 37  1  0
 21 38  1  0
M  END
$$$$
