
     RDKit          3D

 32 34  0  0  0  0  0  0  0  0999 V2000
    5.0816    1.3738   -0.5438 C   0  0  0  0  0  0  0  0  0  0  0  0
    4.4023    0.2289    0.1818 C   0  0  0  0  0  0  0  0  0  0  0  0
    2.9874    0.3438   -0.0326 O   0  0  0  0  0  0  0  0  0  0  0  0
    2.2554   -0.6457    0.5604 C   0  0  0  0  0  0  0  0  0  0  0  0
    2.7281   -1.5255    1.2616 O   0  0  0  0  0  0  0  0  0  0  0  0
    0.8135   -0.4796    0.2521 C   0  0  0  0  0  0  0  0  0  0  0  0
    0.2573    0.7523    0.1078 C   0  0  0  0  0  0  0  0  0  0  0  0
    0.9383    1.9544    0.1642 O   0  0  0  0  0  0  0  0  0  0  0  0
   -1.1892    0.9008   -0.1062 C   0  0  0  0  0  0  0  0  0  0  0  0
   -1.8980    2.0907   -0.2723 C   0  0  0  0  0  0  0  0  0  0  0  0
   -3.2975    2.0677   -0.4663 C   0  0  0  0  0  0  0  0  0  0  0  0
   -4.0109    0.8585   -0.4977 C   0  0  0  0  0  0  0  0  0  0  0  0
   -3.3050   -0.3160   -0.3340 C   0  0  0  0  0  0  0  0  0  0  0  0
   -1.9344   -0.2565   -0.1420 C   0  0  0  0  0  0  0  0  0  0  0  0
   -1.3847   -1.5152   -0.0037 N   0  0  0  0  0  0  0  0  0  0  0  0
   -0.0396   -1.7247    0.1553 C   0  0  0  0  0  0  0  0  0  0  0  0
    0.4427   -2.8531    0.1833 O   0  0  0  0  0  0  0  0  0  0  0  0
   -2.4371   -2.5208   -0.1487 C   0  0  0  0  0  0  0  0  0  0  0  0
   -3.7666   -1.7414   -0.3137 C   0  0  0  0  0  0  0  0  0  0  0  0
    4.7158    2.3366   -0.1719 H   0  0  0  0  0  0  0  0  0  0  0  0
    4.8553    1.3397   -1.6146 H   0  0  0  0  0  0  0  0  0  0  0  0
    6.1661    1.3320   -0.4101 H   0  0  0  0  0  0  0  0  0  0  0  0
    4.6191    0.2902    1.2541 H   0  0  0  0  0  0  0  0  0  0  0  0
    4.7605   -0.7271   -0.2163 H   0  0  0  0  0  0  0  0  0  0  0  0
    1.8979    1.7741    0.1328 H   0  0  0  0  0  0  0  0  0  0  0  0
   -1.3780    3.0458   -0.2520 H   0  0  0  0  0  0  0  0  0  0  0  0
   -3.8309    3.0081   -0.5925 H   0  0  0  0  0  0  0  0  0  0  0  0
   -5.0860    0.8556   -0.6465 H   0  0  0  0  0  0  0  0  0  0  0  0
   -2.2164   -3.1387   -1.0263 H   0  0  0  0  0  0  0  0  0  0  0  0
   -2.4446   -3.1683    0.7346 H   0  0  0  0  0  0  0  0  0  0  0  0
   -4.4328   -1.9243    0.5350 H   0  0  0  0  0  0  0  0  0  0  0  0
   -4.2693   -2.0160   -1.2457 H   0  0  0  0  0  0  0  0  0  0  0  0
  1  2  1  0
  2  3  1  0
  3  4  1  0
  4  5  2  0
  4  6  1  0
  6  7  2  0
  7  8  1  0
  7  9  1  0
  9 10  2  0
 10 11  1  0
 11 12  2  0
 12 13  1  0
 13 14  2  0
 14 15  1  0
 15 16  1  0
 16 17  2  0
 15 18  1  0
 18 19  1  0
 16  6  1  0
 14  9  1  0
 19 13  1  0
  1 20  1  0
  1 21  1  0
  1 22  1  0
  2 23  1  0
  2 24  1  0
  8 25  1  0
 10 26  1  0
 11 27  1  0
 12 28  1  0
 18 29  1  0
 18 30  1  0
 19 31  1  0
 19 32  1  0
M  END
$$$$
