
     RDKit          3D

 51 55  0  0  0  0  0  0  0  0999 V2000
    5.0157   -2.2116    0.3817 F   0  0  0  0  0  0  0  0  0  0  0  0
    5.5170   -1.0606    0.8530 C   0  0  0  0  0  0  0  0  0  0  0  0
    6.8405   -1.0296    1.2814 C   0  0  0  0  0  0  0  0  0  0  0  0
    7.3792    0.1598    1.7682 C   0  0  0  0  0  0  0  0  0  0  0  0
    6.5901    1.3096    1.8204 C   0  0  0  0  0  0  0  0  0  0  0  0
    5.2616    1.2723    1.3883 C   0  0  0  0  0  0  0  0  0  0  0  0
    4.7092    0.0795    0.9034 C   0  0  0  0  0  0  0  0  0  0  0  0
    3.2816    0.0260    0.4184 C   0  0  0  0  0  0  0  0  0  0  0  0
    3.1977    0.1839   -1.1117 C   0  0  0  0  0  0  0  0  0  0  0  0
    1.8615    0.0959   -1.7141 N   0  0  0  0  0  0  0  0  0  0  0  0
    1.1987   -1.2090   -1.5276 C   0  0  0  0  0  0  0  0  0  0  0  0
   -0.0520   -1.1802   -0.6241 C   0  0  0  0  0  0  0  0  0  0  0  0
   -1.0489   -0.2090   -1.1118 N   0  0  0  0  0  0  0  0  0  0  0  0
   -2.3171   -0.1960   -0.5383 C   0  0  0  0  0  0  0  0  0  0  0  0
   -2.4808   -0.8203    0.6033 N   0  0  0  0  0  0  0  0  0  0  0  0
   -3.7261   -0.8161    1.2587 C   0  0  0  0  0  0  0  0  0  0  0  0
   -3.8363   -1.4890    2.4772 C   0  0  0  0  0  0  0  0  0  0  0  0
   -5.0468   -1.5086    3.1753 C   0  0  0  0  0  0  0  0  0  0  0  0
   -6.1631   -0.8503    2.6585 C   0  0  0  0  0  0  0  0  0  0  0  0
   -6.0754   -0.1713    1.4426 C   0  0  0  0  0  0  0  0  0  0  0  0
   -4.8576   -0.1614    0.7557 C   0  0  0  0  0  0  0  0  0  0  0  0
   -4.6858    0.4806   -0.4810 N   0  0  0  0  0  0  0  0  0  0  0  0
   -5.6008    1.1757   -1.2359 C   0  0  0  0  0  0  0  0  0  0  0  0
   -4.9904    1.5550   -2.4104 C   0  0  0  0  0  0  0  0  0  0  0  0
   -3.6570    1.0871   -2.3577 C   0  0  0  0  0  0  0  0  0  0  0  0
   -3.4727    0.4606   -1.1368 C   0  0  0  0  0  0  0  0  0  0  0  0
   -0.4908    0.9794   -1.7760 C   0  0  0  0  0  0  0  0  0  0  0  0
    0.9801    1.2232   -1.3709 C   0  0  0  0  0  0  0  0  0  0  0  0
    7.4417   -1.9320    1.2318 H   0  0  0  0  0  0  0  0  0  0  0  0
    8.4121    0.1920    2.1058 H   0  0  0  0  0  0  0  0  0  0  0  0
    7.0106    2.2389    2.1988 H   0  0  0  0  0  0  0  0  0  0  0  0
    4.6624    2.1793    1.4339 H   0  0  0  0  0  0  0  0  0  0  0  0
    2.7074    0.8114    0.9226 H   0  0  0  0  0  0  0  0  0  0  0  0
    2.8373   -0.9234    0.7405 H   0  0  0  0  0  0  0  0  0  0  0  0
    3.6465    1.1439   -1.4010 H   0  0  0  0  0  0  0  0  0  0  0  0
    3.8318   -0.5745   -1.5902 H   0  0  0  0  0  0  0  0  0  0  0  0
    1.8970   -1.9726   -1.1641 H   0  0  0  0  0  0  0  0  0  0  0  0
    0.8870   -1.5482   -2.5243 H   0  0  0  0  0  0  0  0  0  0  0  0
    0.2391   -0.9300    0.4034 H   0  0  0  0  0  0  0  0  0  0  0  0
   -0.4926   -2.1843   -0.6138 H   0  0  0  0  0  0  0  0  0  0  0  0
   -2.9679   -2.0014    2.8826 H   0  0  0  0  0  0  0  0  0  0  0  0
   -5.1161   -2.0390    4.1215 H   0  0  0  0  0  0  0  0  0  0  0  0
   -7.1040   -0.8700    3.2035 H   0  0  0  0  0  0  0  0  0  0  0  0
   -6.9581    0.3291    1.0588 H   0  0  0  0  0  0  0  0  0  0  0  0
   -6.6151    1.3336   -0.8996 H   0  0  0  0  0  0  0  0  0  0  0  0
   -5.4593    2.0972   -3.2212 H   0  0  0  0  0  0  0  0  0  0  0  0
   -2.9148    1.1971   -3.1358 H   0  0  0  0  0  0  0  0  0  0  0  0
   -0.5575    0.8466   -2.8621 H   0  0  0  0  0  0  0  0  0  0  0  0
   -1.0591    1.8780   -1.5098 H   0  0  0  0  0  0  0  0  0  0  0  0
    0.9987    1.4274   -0.2940 H   0  0  0  0  0  0  0  0  0  0  0  0
    1.3416    2.1254   -1.8780 H   0  0  0  0  0  0  0  0  0  0  0  0
  1  2  1  0
  2  3  2  0
  3  4  1  0
  4  5  2  0
  5  6  1  0
  6  7  2  0
  7  8  1  0
  8  9  1  0
  9 10  1  0
 10 11  1  0
 11 12  1  0
 12 13  1  0
 13 14  1  0
 14 15  2  0
 15 16  1  0
 16 17  2  0
 17 18  1  0
 18 19  2  0
 19 20  1  0
 20 21  2  0
 21 22  1  0
 22 23  1  0
 23 24  2  0
 24 25  1  0
 25 26  2  0
 13 27  1  0
 27 28  1  0
  7  2  1  0
 28 10  1  0
 26 14  1  0
 21 16  1  0
 26 22  1  0
  3 29  1  0
  4 30  1  0
  5 31  1  0
  6 32  1  0
  8 33  1  0
  8 34  1  0
  9 35  1  0
  9 36  1  0
 11 37  1  0
 11 38  1  0
 12 39  1  0
 12 40  1  0
 17 41  1  0
 18 42  1  0
 19 43  1  0
 20 44  1  0
 23 45  1  0
 24 46  1  0
 25 47  1  0
 27 48  1  0
 27 49  1  0
 28 50  1  0
 28 51  1  0
M  END
$$$$
