
     RDKit          3D

 67 71  0  0  0  0  0  0  0  0999 V2000
   -2.9923   -3.9761    4.2733 C   0  0  0  0  0  0  0  0  0  0  0  0
   -3.1426   -4.3085    2.8985 O   0  0  0  0  0  0  0  0  0  0  0  0
   -3.2647   -3.2669    2.0180 C   0  0  0  0  0  0  0  0  0  0  0  0
   -3.4554   -3.6525    0.6861 C   0  0  0  0  0  0  0  0  0  0  0  0
   -3.5933   -2.6956   -0.3191 C   0  0  0  0  0  0  0  0  0  0  0  0
   -3.7851   -2.9478   -1.6500 O   0  0  0  0  0  0  0  0  0  0  0  0
   -3.8092   -4.3127   -2.0482 C   0  0  0  0  0  0  0  0  0  0  0  0
   -3.5397   -1.3415    0.0162 C   0  0  0  0  0  0  0  0  0  0  0  0
   -3.3481   -0.9367    1.3432 C   0  0  0  0  0  0  0  0  0  0  0  0
   -3.2726    0.4921    1.6751 C   0  0  0  0  0  0  0  0  0  0  0  0
   -4.4909    1.1601    2.6742 S   0  0  0  0  0  0  0  0  0  0  0  0
   -3.8156    2.7364    2.6009 C   0  0  0  0  0  0  0  0  0  0  0  0
   -4.3105    3.8972    3.2259 C   0  0  0  0  0  0  0  0  0  0  0  0
   -3.6268    5.1075    3.0630 C   0  0  0  0  0  0  0  0  0  0  0  0
   -2.4712    5.1691    2.2967 C   0  0  0  0  0  0  0  0  0  0  0  0
   -1.7165    6.2868    2.0664 O   0  0  0  0  0  0  0  0  0  0  0  0
   -2.1607    7.4994    2.6617 C   0  0  0  0  0  0  0  0  0  0  0  0
   -1.9903    4.0073    1.6810 C   0  0  0  0  0  0  0  0  0  0  0  0
   -2.6609    2.7632    1.8188 C   0  0  0  0  0  0  0  0  0  0  0  0
   -2.3546    1.4546    1.2816 C   0  0  0  0  0  0  0  0  0  0  0  0
   -1.2216    1.1313    0.4194 C   0  0  0  0  0  0  0  0  0  0  0  0
   -1.1599    1.6491   -0.8773 C   0  0  0  0  0  0  0  0  0  0  0  0
   -0.0768    1.3380   -1.7027 C   0  0  0  0  0  0  0  0  0  0  0  0
    0.9540    0.5122   -1.2466 C   0  0  0  0  0  0  0  0  0  0  0  0
    1.9497    0.2881   -2.1569 O   0  0  0  0  0  0  0  0  0  0  0  0
    3.0247   -0.5638   -1.7488 C   0  0  0  0  0  0  0  0  0  0  0  0
    3.9956   -0.6996   -2.9334 C   0  0  0  0  0  0  0  0  0  0  0  0
    5.1463   -1.5719   -2.6483 N   0  0  0  0  0  0  0  0  0  0  0  0
    5.7721   -2.0287   -3.9096 C   0  0  0  0  0  0  0  0  0  0  0  0
    7.2097   -2.5183   -3.6844 C   0  0  0  0  0  0  0  0  0  0  0  0
    8.0861   -1.4766   -3.2322 O   0  0  0  0  0  0  0  0  0  0  0  0
    7.4027   -0.4379   -2.5193 C   0  0  0  0  0  0  0  0  0  0  0  0
    6.1550   -0.9368   -1.7708 C   0  0  0  0  0  0  0  0  0  0  0  0
    0.8954   -0.0006    0.0497 C   0  0  0  0  0  0  0  0  0  0  0  0
   -0.1873    0.3099    0.8807 C   0  0  0  0  0  0  0  0  0  0  0  0
   -3.2091   -1.9110    2.3430 C   0  0  0  0  0  0  0  0  0  0  0  0
   -3.8591   -3.4181    4.6425 H   0  0  0  0  0  0  0  0  0  0  0  0
   -2.9332   -4.9112    4.8385 H   0  0  0  0  0  0  0  0  0  0  0  0
   -2.0625   -3.4240    4.4454 H   0  0  0  0  0  0  0  0  0  0  0  0
   -3.4930   -4.7147    0.4675 H   0  0  0  0  0  0  0  0  0  0  0  0
   -4.6490   -4.8431   -1.5874 H   0  0  0  0  0  0  0  0  0  0  0  0
   -2.8577   -4.8066   -1.8248 H   0  0  0  0  0  0  0  0  0  0  0  0
   -3.9524   -4.3418   -3.1326 H   0  0  0  0  0  0  0  0  0  0  0  0
   -3.6480   -0.5988   -0.7714 H   0  0  0  0  0  0  0  0  0  0  0  0
   -5.2135    3.8561    3.8289 H   0  0  0  0  0  0  0  0  0  0  0  0
   -4.0326    5.9846    3.5565 H   0  0  0  0  0  0  0  0  0  0  0  0
   -3.1484    7.7854    2.2853 H   0  0  0  0  0  0  0  0  0  0  0  0
   -1.4561    8.2878    2.3799 H   0  0  0  0  0  0  0  0  0  0  0  0
   -2.1590    7.4264    3.7543 H   0  0  0  0  0  0  0  0  0  0  0  0
   -1.0811    4.0635    1.0860 H   0  0  0  0  0  0  0  0  0  0  0  0
   -1.9531    2.2890   -1.2563 H   0  0  0  0  0  0  0  0  0  0  0  0
   -0.0383    1.7404   -2.7120 H   0  0  0  0  0  0  0  0  0  0  0  0
    2.6383   -1.5562   -1.4852 H   0  0  0  0  0  0  0  0  0  0  0  0
    3.5336   -0.1201   -0.8863 H   0  0  0  0  0  0  0  0  0  0  0  0
    4.3228    0.2934   -3.2695 H   0  0  0  0  0  0  0  0  0  0  0  0
    3.4158   -1.1156   -3.7691 H   0  0  0  0  0  0  0  0  0  0  0  0
    5.7978   -1.2100   -4.6411 H   0  0  0  0  0  0  0  0  0  0  0  0
    5.1703   -2.8406   -4.3328 H   0  0  0  0  0  0  0  0  0  0  0  0
    7.2357   -3.3310   -2.9490 H   0  0  0  0  0  0  0  0  0  0  0  0
    7.6244   -2.9117   -4.6181 H   0  0  0  0  0  0  0  0  0  0  0  0
    8.1162   -0.0052   -1.8106 H   0  0  0  0  0  0  0  0  0  0  0  0
    7.1367    0.3504   -3.2332 H   0  0  0  0  0  0  0  0  0  0  0  0
    5.7335   -0.1164   -1.1807 H   0  0  0  0  0  0  0  0  0  0  0  0
    6.4720   -1.7029   -1.0519 H   0  0  0  0  0  0  0  0  0  0  0  0
    1.6712   -0.6461    0.4471 H   0  0  0  0  0  0  0  0  0  0  0  0
   -0.2164   -0.0972    1.8887 H   0  0  0  0  0  0  0  0  0  0  0  0
   -3.0507   -1.5846    3.3657 H   0  0  0  0  0  0  0  0  0  0  0  0
  1  2  1  0
  2  3  1  0
  3  4  2  0
  4  5  1  0
  5  6  1  0
  6  7  1  0
  5  8  2  0
  8  9  1  0
  9 10  1  0
 10 11  1  0
 11 12  1  0
 12 13  2  0
 13 14  1  0
 14 15  2  0
 15 16  1  0
 16 17  1  0
 15 18  1  0
 18 19  2  0
 19 20  1  0
 20 21  1  0
 21 22  2  0
 22 23  1  0
 23 24  2  0
 24 25  1  0
 25 26  1  0
 26 27  1  0
 27 28  1  0
 28 29  1  0
 29 30  1  0
 30 31  1  0
 31 32  1  0
 32 33  1  0
 24 34  1  0
 34 35  2  0
  9 36  2  0
 36  3  1  0
 20 10  2  0
 35 21  1  0
 19 12  1  0
 33 28  1  0
  1 37  1  0
  1 38  1  0
  1 39  1  0
  4 40  1  0
  7 41  1  0
  7 42  1  0
  7 43  1  0
  8 44  1  0
 13 45  1  0
 14 46  1  0
 17 47  1  0
 17 48  1  0
 17 49  1  0
 18 50  1  0
 22 51  1  0
 23 52  1  0
 26 53  1  0
 26 54  1  0
 27 55  1  0
 27 56  1  0
 29 57  1  0
 29 58  1  0
 30 59  1  0
 30 60  1  0
 32 61  1  0
 32 62  1  0
 33 63  1  0
 33 64  1  0
 34 65  1  0
 35 66  1  0
 36 67  1  0
M  END
$$$$
