
     RDKit          3D

 32 32  0  0  0  0  0  0  0  0999 V2000
   -6.1000   -0.2522   -1.6381 C   0  0  0  0  0  0  0  0  0  0  0  0
   -4.9618    0.0763   -1.4382 C   0  0  0  0  0  0  0  0  0  0  0  0
   -3.5682    0.4837   -1.1919 C   0  0  0  0  0  0  0  0  0  0  0  0
   -2.7533   -0.6362   -0.7084 N   0  0  0  0  0  0  0  0  0  0  0  0
   -2.4923   -1.6209   -1.7585 C   0  0  0  0  0  0  0  0  0  0  0  0
   -1.5150   -0.1948   -0.0461 C   0  0  0  0  0  0  0  0  0  0  0  0
   -0.5258    0.6054   -0.9087 C   0  0  0  0  0  0  0  0  0  0  0  0
    0.7024    1.0346   -0.1043 C   0  0  0  0  0  0  0  0  0  0  0  0
    1.4171   -0.1313    0.2977 O   0  0  0  0  0  0  0  0  0  0  0  0
    2.5411    0.0301    1.0628 C   0  0  0  0  0  0  0  0  0  0  0  0
    3.0773    1.2676    1.4344 C   0  0  0  0  0  0  0  0  0  0  0  0
    4.2343    1.3294    2.2189 C   0  0  0  0  0  0  0  0  0  0  0  0
    4.8602    0.1561    2.6339 C   0  0  0  0  0  0  0  0  0  0  0  0
    6.2821    0.2432    3.5978 Cl  0  0  0  0  0  0  0  0  0  0  0  0
    4.3434   -1.0832    2.2732 C   0  0  0  0  0  0  0  0  0  0  0  0
    3.1883   -1.1434    1.4899 C   0  0  0  0  0  0  0  0  0  0  0  0
    2.5819   -2.7077    1.0656 Cl  0  0  0  0  0  0  0  0  0  0  0  0
   -7.1079   -0.5519   -1.8088 H   0  0  0  0  0  0  0  0  0  0  0  0
   -3.1431    0.9253   -2.1014 H   0  0  0  0  0  0  0  0  0  0  0  0
   -3.5920    1.2774   -0.4342 H   0  0  0  0  0  0  0  0  0  0  0  0
   -1.9850   -1.1853   -2.6260 H   0  0  0  0  0  0  0  0  0  0  0  0
   -3.4233   -2.0807   -2.1073 H   0  0  0  0  0  0  0  0  0  0  0  0
   -1.8747   -2.4410   -1.3749 H   0  0  0  0  0  0  0  0  0  0  0  0
   -1.7915    0.4078    0.8291 H   0  0  0  0  0  0  0  0  0  0  0  0
   -1.0121   -1.0783    0.3680 H   0  0  0  0  0  0  0  0  0  0  0  0
   -1.0076    1.5037   -1.3092 H   0  0  0  0  0  0  0  0  0  0  0  0
   -0.1954   -0.0071   -1.7552 H   0  0  0  0  0  0  0  0  0  0  0  0
    0.3841    1.6118    0.7721 H   0  0  0  0  0  0  0  0  0  0  0  0
    1.3390    1.6559   -0.7453 H   0  0  0  0  0  0  0  0  0  0  0  0
    2.6230    2.2050    1.1298 H   0  0  0  0  0  0  0  0  0  0  0  0
    4.6414    2.2975    2.5013 H   0  0  0  0  0  0  0  0  0  0  0  0
    4.8334   -1.9969    2.5976 H   0  0  0  0  0  0  0  0  0  0  0  0
  1  2  3  0
  2  3  1  0
  3  4  1  0
  4  5  1  0
  4  6  1  0
  6  7  1  0
  7  8  1  0
  8  9  1  0
  9 10  1  0
 10 11  2  0
 11 12  1  0
 12 13  2  0
 13 14  1  0
 13 15  1  0
 15 16  2  0
 16 17  1  0
 16 10  1  0
  1 18  1  0
  3 19  1  0
  3 20  1  0
  5 21  1  0
  5 22  1  0
  5 23  1  0
  6 24  1  0
  6 25  1  0
  7 26  1  0
  7 27  1  0
  8 28  1  0
  8 29  1  0
 11 30  1  0
 12 31  1  0
 15 32  1  0
M  END
$$$$
