
     RDKit          3D

 49 53  0  0  0  0  0  0  0  0999 V2000
    4.4816   -1.8089    3.9741 C   0  0  0  0  0  0  0  0  0  0  0  0
    3.5915   -0.7520    3.4025 C   0  0  0  0  0  0  0  0  0  0  0  0
    2.5904    0.1478    4.4494 S   0  0  0  0  0  0  0  0  0  0  0  0
    1.9445    1.0530    3.1684 C   0  0  0  0  0  0  0  0  0  0  0  0
    1.0211    1.9952    3.4254 N   0  0  0  0  0  0  0  0  0  0  0  0
    0.6102    2.6258    2.3284 C   0  0  0  0  0  0  0  0  0  0  0  0
    1.0072    2.4015    1.0719 N   0  0  0  0  0  0  0  0  0  0  0  0
    1.9289    1.4400    0.8544 C   0  0  0  0  0  0  0  0  0  0  0  0
    2.4517    1.1871   -0.8171 S   0  0  0  0  0  0  0  0  0  0  0  0
    0.8432    0.8040   -1.6470 C   0  0  0  0  0  0  0  0  0  0  0  0
    0.0576    2.0918   -1.8900 C   0  0  0  0  0  0  0  0  0  0  0  0
    0.0867   -0.3186   -0.8922 C   0  0  0  0  0  0  0  0  0  0  0  0
    0.6737   -1.2077   -0.2691 O   0  0  0  0  0  0  0  0  0  0  0  0
   -1.3069   -0.2857   -1.0308 N   0  0  0  0  0  0  0  0  0  0  0  0
   -2.1425   -0.1138    0.1313 C   0  0  0  0  0  0  0  0  0  0  0  0
   -1.5821   -0.1900    1.4240 C   0  0  0  0  0  0  0  0  0  0  0  0
   -2.3465   -0.0037    2.5803 C   0  0  0  0  0  0  0  0  0  0  0  0
   -3.6999    0.2709    2.4761 C   0  0  0  0  0  0  0  0  0  0  0  0
   -4.2791    0.3652    1.2147 C   0  0  0  0  0  0  0  0  0  0  0  0
   -3.5135    0.1792    0.0475 C   0  0  0  0  0  0  0  0  0  0  0  0
   -4.3633    0.4354   -1.4864 S   0  0  0  0  0  0  0  0  0  0  0  0
   -3.2465   -0.3518   -2.6089 C   0  0  0  0  0  0  0  0  0  0  0  0
   -3.7628   -0.6823   -3.8753 C   0  0  0  0  0  0  0  0  0  0  0  0
   -2.9654   -1.2919   -4.8396 C   0  0  0  0  0  0  0  0  0  0  0  0
   -1.6435   -1.5839   -4.5430 C   0  0  0  0  0  0  0  0  0  0  0  0
   -1.1227   -1.2526   -3.2889 C   0  0  0  0  0  0  0  0  0  0  0  0
   -1.9041   -0.6138   -2.3002 C   0  0  0  0  0  0  0  0  0  0  0  0
    2.4641    0.7029    1.9288 C   0  0  0  0  0  0  0  0  0  0  0  0
    3.4410   -0.3731    2.0734 C   0  0  0  0  0  0  0  0  0  0  0  0
    4.1897   -1.0107    0.9425 C   0  0  0  0  0  0  0  0  0  0  0  0
    4.4016   -1.8815    5.0638 H   0  0  0  0  0  0  0  0  0  0  0  0
    4.2230   -2.7871    3.5554 H   0  0  0  0  0  0  0  0  0  0  0  0
    5.5275   -1.5937    3.7315 H   0  0  0  0  0  0  0  0  0  0  0  0
   -0.1332    3.4045    2.4675 H   0  0  0  0  0  0  0  0  0  0  0  0
    1.1283    0.3959   -2.6225 H   0  0  0  0  0  0  0  0  0  0  0  0
   -0.7153    1.9325   -2.6495 H   0  0  0  0  0  0  0  0  0  0  0  0
    0.6989    2.8962   -2.2669 H   0  0  0  0  0  0  0  0  0  0  0  0
   -0.4585    2.4461   -0.9934 H   0  0  0  0  0  0  0  0  0  0  0  0
   -0.5322   -0.4226    1.5778 H   0  0  0  0  0  0  0  0  0  0  0  0
   -1.8738   -0.0784    3.5574 H   0  0  0  0  0  0  0  0  0  0  0  0
   -4.3015    0.4172    3.3691 H   0  0  0  0  0  0  0  0  0  0  0  0
   -5.3402    0.5983    1.1447 H   0  0  0  0  0  0  0  0  0  0  0  0
   -4.8020   -0.4661   -4.1181 H   0  0  0  0  0  0  0  0  0  0  0  0
   -3.3807   -1.5469   -5.8112 H   0  0  0  0  0  0  0  0  0  0  0  0
   -1.0162   -2.0817   -5.2787 H   0  0  0  0  0  0  0  0  0  0  0  0
   -0.0951   -1.5517   -3.0930 H   0  0  0  0  0  0  0  0  0  0  0  0
    3.4965   -1.4706    0.2320 H   0  0  0  0  0  0  0  0  0  0  0  0
    4.8056   -0.2692    0.4245 H   0  0  0  0  0  0  0  0  0  0  0  0
    4.8630   -1.8004    1.2898 H   0  0  0  0  0  0  0  0  0  0  0  0
  1  2  1  0
  2  3  1  0
  3  4  1  0
  4  5  2  0
  5  6  1  0
  6  7  2  0
  7  8  1  0
  8  9  1  0
  9 10  1  0
 10 11  1  0
 10 12  1  0
 12 13  2  0
 12 14  1  0
 14 15  1  0
 15 16  2  0
 16 17  1  0
 17 18  2  0
 18 19  1  0
 19 20  2  0
 20 21  1  0
 21 22  1  0
 22 23  2  0
 23 24  1  0
 24 25  2  0
 25 26  1  0
 26 27  2  0
  8 28  2  0
 28 29  1  0
 29 30  1  0
 29  2  2  0
 28  4  1  0
 27 14  1  0
 20 15  1  0
 27 22  1  0
  1 31  1  0
  1 32  1  0
  1 33  1  0
  6 34  1  0
 10 35  1  0
 11 36  1  0
 11 37  1  0
 11 38  1  0
 16 39  1  0
 17 40  1  0
 18 41  1  0
 19 42  1  0
 23 43  1  0
 24 44  1  0
 25 45  1  0
 26 46  1  0
 30 47  1  0
 30 48  1  0
 30 49  1  0
M  END
$$$$
