
     RDKit          3D

 61 65  0  0  0  0  0  0  0  0999 V2000
   -9.2343   -0.0787    0.6268 C   0  0  0  0  0  0  0  0  0  0  0  0
   -8.3669    1.0364    0.5126 O   0  0  0  0  0  0  0  0  0  0  0  0
   -7.0172    0.8056    0.5939 C   0  0  0  0  0  0  0  0  0  0  0  0
   -6.4323   -0.4634    0.6131 C   0  0  0  0  0  0  0  0  0  0  0  0
   -5.0419   -0.6013    0.7125 C   0  0  0  0  0  0  0  0  0  0  0  0
   -4.2128    0.5258    0.8001 C   0  0  0  0  0  0  0  0  0  0  0  0
   -2.7646    0.4151    0.9564 C   0  0  0  0  0  0  0  0  0  0  0  0
   -1.8794    1.3690    1.1829 N   0  0  0  0  0  0  0  0  0  0  0  0
   -0.6734    0.7015    1.2807 C   0  0  0  0  0  0  0  0  0  0  0  0
    0.5724    1.4443    1.5846 C   0  0  0  0  0  0  0  0  0  0  0  0
    1.4460    1.5263    0.4307 N   0  0  0  0  0  0  0  0  0  0  0  0
    2.6860    0.9531    0.2728 C   0  0  0  0  0  0  0  0  0  0  0  0
    3.4058   -0.0911    1.4530 S   0  0  0  0  0  0  0  0  0  0  0  0
    5.1727    0.1044    1.0930 C   0  0  0  0  0  0  0  0  0  0  0  0
    5.7389   -1.0640    0.3241 C   0  0  0  0  0  0  0  0  0  0  0  0
    6.1388   -2.2303    0.9936 C   0  0  0  0  0  0  0  0  0  0  0  0
    6.6796   -3.3065    0.2841 C   0  0  0  0  0  0  0  0  0  0  0  0
    6.8189   -3.2433   -1.1093 C   0  0  0  0  0  0  0  0  0  0  0  0
    7.4493   -4.3739   -1.8568 C   0  0  0  0  0  0  0  0  0  0  0  0
    6.4173   -2.0824   -1.7800 C   0  0  0  0  0  0  0  0  0  0  0  0
    5.8707   -1.0077   -1.0721 C   0  0  0  0  0  0  0  0  0  0  0  0
    3.2498    1.3063   -0.8586 N   0  0  0  0  0  0  0  0  0  0  0  0
    2.3530    2.1440   -1.4696 C   0  0  0  0  0  0  0  0  0  0  0  0
    2.4514    2.8074   -2.6948 C   0  0  0  0  0  0  0  0  0  0  0  0
    1.3752    3.6085   -3.0311 C   0  0  0  0  0  0  0  0  0  0  0  0
    0.2684    3.7763   -2.2668 N   0  0  0  0  0  0  0  0  0  0  0  0
    0.1662    3.1219   -1.0827 C   0  0  0  0  0  0  0  0  0  0  0  0
    1.2155    2.3073   -0.6845 C   0  0  0  0  0  0  0  0  0  0  0  0
   -0.8821   -0.6525    1.0915 C   0  0  0  0  0  0  0  0  0  0  0  0
   -0.0233   -1.8543    1.0775 C   0  0  0  0  0  0  0  0  0  0  0  0
   -2.2202   -0.8429    0.8840 O   0  0  0  0  0  0  0  0  0  0  0  0
   -4.8038    1.7988    0.7609 C   0  0  0  0  0  0  0  0  0  0  0  0
   -6.1927    1.9464    0.6426 C   0  0  0  0  0  0  0  0  0  0  0  0
   -6.8295    3.1632    0.6105 O   0  0  0  0  0  0  0  0  0  0  0  0
   -6.0474    4.2791    0.1815 C   0  0  0  0  0  0  0  0  0  0  0  0
   -9.1533   -0.7231   -0.2571 H   0  0  0  0  0  0  0  0  0  0  0  0
  -10.2583    0.3008    0.6706 H   0  0  0  0  0  0  0  0  0  0  0  0
   -9.0467   -0.6437    1.5497 H   0  0  0  0  0  0  0  0  0  0  0  0
   -7.0297   -1.3684    0.5524 H   0  0  0  0  0  0  0  0  0  0  0  0
   -4.6167   -1.6049    0.7335 H   0  0  0  0  0  0  0  0  0  0  0  0
    0.3456    2.4726    1.8851 H   0  0  0  0  0  0  0  0  0  0  0  0
    1.0955    0.9809    2.4250 H   0  0  0  0  0  0  0  0  0  0  0  0
    5.6923    0.1714    2.0561 H   0  0  0  0  0  0  0  0  0  0  0  0
    5.3833    1.0566    0.5864 H   0  0  0  0  0  0  0  0  0  0  0  0
    6.0348   -2.3084    2.0704 H   0  0  0  0  0  0  0  0  0  0  0  0
    6.9898   -4.1951    0.8273 H   0  0  0  0  0  0  0  0  0  0  0  0
    7.1891   -5.3320   -1.4009 H   0  0  0  0  0  0  0  0  0  0  0  0
    7.1045   -4.3989   -2.8990 H   0  0  0  0  0  0  0  0  0  0  0  0
    8.5309   -4.2566   -1.8440 H   0  0  0  0  0  0  0  0  0  0  0  0
    6.5245   -2.0030   -2.8591 H   0  0  0  0  0  0  0  0  0  0  0  0
    5.5536   -0.1192   -1.6164 H   0  0  0  0  0  0  0  0  0  0  0  0
    3.3182    2.7025   -3.3359 H   0  0  0  0  0  0  0  0  0  0  0  0
    1.3751    4.1671   -3.9678 H   0  0  0  0  0  0  0  0  0  0  0  0
   -0.7367    3.2769   -0.5068 H   0  0  0  0  0  0  0  0  0  0  0  0
    0.5480   -1.9060    0.1433 H   0  0  0  0  0  0  0  0  0  0  0  0
    0.6801   -1.8376    1.9158 H   0  0  0  0  0  0  0  0  0  0  0  0
   -0.6222   -2.7666    1.1657 H   0  0  0  0  0  0  0  0  0  0  0  0
   -4.1570    2.6704    0.8433 H   0  0  0  0  0  0  0  0  0  0  0  0
   -6.7315    5.1160   -0.0078 H   0  0  0  0  0  0  0  0  0  0  0  0
   -5.5164    4.0619   -0.7547 H   0  0  0  0  0  0  0  0  0  0  0  0
   -5.3509    4.5919    0.9679 H   0  0  0  0  0  0  0  0  0  0  0  0
  1  2  1  0
  2  3  1  0
  3  4  2  0
  4  5  1  0
  5  6  2  0
  6  7  1  0
  7  8  2  0
  8  9  1  0
  9 10  1  0
 10 11  1  0
 11 12  1  0
 12 13  1  0
 13 14  1  0
 14 15  1  0
 15 16  2  0
 16 17  1  0
 17 18  2  0
 18 19  1  0
 18 20  1  0
 20 21  2  0
 12 22  2  0
 22 23  1  0
 23 24  2  0
 24 25  1  0
 25 26  2  0
 26 27  1  0
 27 28  2  0
  9 29  2  0
 29 30  1  0
 29 31  1  0
  6 32  1  0
 32 33  2  0
 33 34  1  0
 34 35  1  0
 33  3  1  0
 31  7  1  0
 28 11  1  0
 21 15  1  0
 28 23  1  0
  1 36  1  0
  1 37  1  0
  1 38  1  0
  4 39  1  0
  5 40  1  0
 10 41  1  0
 10 42  1  0
 14 43  1  0
 14 44  1  0
 16 45  1  0
 17 46  1  0
 19 47  1  0
 19 48  1  0
 19 49  1  0
 20 50  1  0
 21 51  1  0
 24 52  1  0
 25 53  1  0
 27 54  1  0
 30 55  1  0
 30 56  1  0
 30 57  1  0
 32 58  1  0
 35 59  1  0
 35 60  1  0
 35 61  1  0
M  END
$$$$
