
     RDKit          3D

 32 32  0  0  0  0  0  0  0  0999 V2000
    0.9162    1.8628   -5.0173 C   0  0  0  0  0  0  0  0  0  0  0  0
    0.1510    2.0017   -4.1017 C   0  0  0  0  0  0  0  0  0  0  0  0
   -0.7885    2.1788   -2.9821 C   0  0  0  0  0  0  0  0  0  0  0  0
   -1.2328    0.9002   -2.4145 N   0  0  0  0  0  0  0  0  0  0  0  0
   -2.3117    1.1135   -1.4515 C   0  0  0  0  0  0  0  0  0  0  0  0
   -0.1558    0.0632   -1.8566 C   0  0  0  0  0  0  0  0  0  0  0  0
    0.6915    0.6893   -0.7372 C   0  0  0  0  0  0  0  0  0  0  0  0
    1.7674   -0.2780   -0.2383 C   0  0  0  0  0  0  0  0  0  0  0  0
    1.2050   -1.4815    0.2801 O   0  0  0  0  0  0  0  0  0  0  0  0
    0.7607   -1.5323    1.5740 C   0  0  0  0  0  0  0  0  0  0  0  0
    0.8178   -0.4712    2.4829 C   0  0  0  0  0  0  0  0  0  0  0  0
    0.3300   -0.6326    3.7831 C   0  0  0  0  0  0  0  0  0  0  0  0
    0.4040    0.6858    4.8879 Cl  0  0  0  0  0  0  0  0  0  0  0  0
   -0.2172   -1.8444    4.1964 C   0  0  0  0  0  0  0  0  0  0  0  0
   -0.2797   -2.9093    3.2998 C   0  0  0  0  0  0  0  0  0  0  0  0
    0.2056   -2.7539    1.9973 C   0  0  0  0  0  0  0  0  0  0  0  0
    0.0952   -4.1110    0.9303 Cl  0  0  0  0  0  0  0  0  0  0  0  0
    1.5887    1.7310   -5.8331 H   0  0  0  0  0  0  0  0  0  0  0  0
   -1.6608    2.7174   -3.3751 H   0  0  0  0  0  0  0  0  0  0  0  0
   -0.3470    2.8279   -2.2170 H   0  0  0  0  0  0  0  0  0  0  0  0
   -3.1707    1.5880   -1.9393 H   0  0  0  0  0  0  0  0  0  0  0  0
   -2.0071    1.7478   -0.6123 H   0  0  0  0  0  0  0  0  0  0  0  0
   -2.6728    0.1594   -1.0516 H   0  0  0  0  0  0  0  0  0  0  0  0
    0.5083   -0.2510   -2.6715 H   0  0  0  0  0  0  0  0  0  0  0  0
   -0.6046   -0.8715   -1.4955 H   0  0  0  0  0  0  0  0  0  0  0  0
    1.1912    1.5951   -1.0964 H   0  0  0  0  0  0  0  0  0  0  0  0
    0.0420    0.9776    0.0950 H   0  0  0  0  0  0  0  0  0  0  0  0
    2.4457    0.1978    0.4786 H   0  0  0  0  0  0  0  0  0  0  0  0
    2.3992   -0.5713   -1.0854 H   0  0  0  0  0  0  0  0  0  0  0  0
    1.2311    0.4932    2.2101 H   0  0  0  0  0  0  0  0  0  0  0  0
   -0.5950   -1.9656    5.2083 H   0  0  0  0  0  0  0  0  0  0  0  0
   -0.7069   -3.8571    3.6177 H   0  0  0  0  0  0  0  0  0  0  0  0
  1  2  3  0
  2  3  1  0
  3  4  1  0
  4  5  1  0
  4  6  1  0
  6  7  1  0
  7  8  1  0
  8  9  1  0
  9 10  1  0
 10 11  2  0
 11 12  1  0
 12 13  1  0
 12 14  2  0
 14 15  1  0
 15 16  2  0
 16 17  1  0
 16 10  1  0
  1 18  1  0
  3 19  1  0
  3 20  1  0
  5 21  1  0
  5 22  1  0
  5 23  1  0
  6 24  1  0
  6 25  1  0
  7 26  1  0
  7 27  1  0
  8 28  1  0
  8 29  1  0
 11 30  1  0
 14 31  1  0
 15 32  1  0
M  END
$$$$
