
     RDKit          3D

 44 46  0  0  0  0  0  0  0  0999 V2000
   -5.4673   -0.2865   -3.5451 C   0  0  0  0  0  0  0  0  0  0  0  0
   -4.7119   -0.7227   -2.3238 C   0  0  0  0  0  0  0  0  0  0  0  0
   -4.3815    0.2073   -1.3282 C   0  0  0  0  0  0  0  0  0  0  0  0
   -3.7092   -0.1994   -0.1749 C   0  0  0  0  0  0  0  0  0  0  0  0
   -3.3652   -1.5441   -0.0180 C   0  0  0  0  0  0  0  0  0  0  0  0
   -2.5166   -2.0723    1.4471 S   0  0  0  0  0  6  0  0  0  0  0  0
   -2.9906   -3.4032    1.7669 O   0  0  0  0  0  0  0  0  0  0  0  0
   -2.5633   -1.0119    2.4302 O   0  0  0  0  0  0  0  0  0  0  0  0
   -0.9234   -2.2671    0.9068 N   0  0  0  0  0  0  0  0  0  0  0  0
   -0.1201   -1.1008    0.7758 C   0  0  0  0  0  0  0  0  0  0  0  0
   -0.1334   -0.3905   -0.4230 C   0  0  0  0  0  0  0  0  0  0  0  0
    0.6139    0.7860   -0.5554 C   0  0  0  0  0  0  0  0  0  0  0  0
    0.5974    1.5494   -1.8487 C   0  0  0  0  0  0  0  0  0  0  0  0
    1.3789    1.2299    0.5341 C   0  0  0  0  0  0  0  0  0  0  0  0
    2.1039    2.3790    0.3498 O   0  0  0  0  0  0  0  0  0  0  0  0
    1.3878    0.5281    1.7525 C   0  0  0  0  0  0  0  0  0  0  0  0
    2.2451    1.0845    3.2203 S   0  0  0  0  0  0  0  0  0  0  0  0
    3.9100    0.9864    2.7300 C   0  0  0  0  0  0  0  0  0  0  0  0
    4.8086    0.2331    3.3661 N   0  0  0  0  0  0  0  0  0  0  0  0
    5.9222    0.4953    2.6655 N   0  0  0  0  0  0  0  0  0  0  0  0
    5.6768    1.3811    1.6538 C   0  0  0  0  0  0  0  0  0  0  0  0
    6.7237    1.8486    0.7221 C   0  0  0  0  0  0  0  0  0  0  0  0
    4.4036    1.7146    1.6780 N   0  0  0  0  0  0  0  0  0  0  0  0
    0.6220   -0.6405    1.8626 C   0  0  0  0  0  0  0  0  0  0  0  0
   -3.7123   -2.4874   -0.9881 C   0  0  0  0  0  0  0  0  0  0  0  0
   -4.3862   -2.0736   -2.1382 C   0  0  0  0  0  0  0  0  0  0  0  0
   -6.5441   -0.3387   -3.3574 H   0  0  0  0  0  0  0  0  0  0  0  0
   -5.2043    0.7404   -3.8203 H   0  0  0  0  0  0  0  0  0  0  0  0
   -5.2258   -0.9239   -4.4022 H   0  0  0  0  0  0  0  0  0  0  0  0
   -4.6492    1.2557   -1.4450 H   0  0  0  0  0  0  0  0  0  0  0  0
   -3.4561    0.5337    0.5883 H   0  0  0  0  0  0  0  0  0  0  0  0
   -0.4995   -3.0835    1.3463 H   0  0  0  0  0  0  0  0  0  0  0  0
   -0.7212   -0.7556   -1.2618 H   0  0  0  0  0  0  0  0  0  0  0  0
   -0.0708    1.0840   -2.5811 H   0  0  0  0  0  0  0  0  0  0  0  0
    0.2431    2.5718   -1.6819 H   0  0  0  0  0  0  0  0  0  0  0  0
    1.6013    1.5783   -2.2844 H   0  0  0  0  0  0  0  0  0  0  0  0
    2.8734    2.3521    0.9571 H   0  0  0  0  0  0  0  0  0  0  0  0
    6.7935    0.0475    2.9281 H   0  0  0  0  0  0  0  0  0  0  0  0
    7.1641    1.0054    0.1813 H   0  0  0  0  0  0  0  0  0  0  0  0
    6.3030    2.5419   -0.0127 H   0  0  0  0  0  0  0  0  0  0  0  0
    7.5191    2.3687    1.2647 H   0  0  0  0  0  0  0  0  0  0  0  0
    0.5864   -1.1810    2.8056 H   0  0  0  0  0  0  0  0  0  0  0  0
   -3.4658   -3.5381   -0.8539 H   0  0  0  0  0  0  0  0  0  0  0  0
   -4.6601   -2.8121   -2.8891 H   0  0  0  0  0  0  0  0  0  0  0  0
  1  2  1  0
  2  3  2  0
  3  4  1  0
  4  5  2  0
  5  6  1  0
  6  7  2  0
  6  8  2  0
  6  9  1  0
  9 10  1  0
 10 11  2  0
 11 12  1  0
 12 13  1  0
 12 14  2  0
 14 15  1  0
 14 16  1  0
 16 17  1  0
 17 18  1  0
 18 19  2  0
 19 20  1  0
 20 21  1  0
 21 22  1  0
 21 23  2  0
 16 24  2  0
  5 25  1  0
 25 26  2  0
 26  2  1  0
 24 10  1  0
 23 18  1  0
  1 27  1  0
  1 28  1  0
  1 29  1  0
  3 30  1  0
  4 31  1  0
  9 32  1  0
 11 33  1  0
 13 34  1  0
 13 35  1  0
 13 36  1  0
 15 37  1  0
 20 38  1  0
 22 39  1  0
 22 40  1  0
 22 41  1  0
 24 42  1  0
 25 43  1  0
 26 44  1  0
M  END
$$$$
