
     RDKit          3D

 51 55  0  0  0  0  0  0  0  0999 V2000
    9.8146    0.4593   -0.0298 Cl  0  0  0  0  0  0  0  0  0  0  0  0
    8.1280    0.0898    0.0328 C   0  0  0  0  0  0  0  0  0  0  0  0
    7.3733    0.2982   -1.1250 C   0  0  0  0  0  0  0  0  0  0  0  0
    6.0046    0.0187   -1.1337 C   0  0  0  0  0  0  0  0  0  0  0  0
    5.3756   -0.4770    0.0150 C   0  0  0  0  0  0  0  0  0  0  0  0
    3.8915   -0.7630    0.0147 C   0  0  0  0  0  0  0  0  0  0  0  0
    3.0744    0.4746    0.4242 C   0  0  0  0  0  0  0  0  0  0  0  0
    1.6336    0.2014    0.5016 N   0  0  0  0  0  0  0  0  0  0  0  0
    1.0336   -0.1363   -0.8090 C   0  0  0  0  0  0  0  0  0  0  0  0
   -0.4164    0.3613   -1.0318 C   0  0  0  0  0  0  0  0  0  0  0  0
   -1.1967    0.2559    0.2025 N   0  0  0  0  0  0  0  0  0  0  0  0
   -2.5772    0.1008    0.1476 C   0  0  0  0  0  0  0  0  0  0  0  0
   -3.3365    0.9617    0.7785 N   0  0  0  0  0  0  0  0  0  0  0  0
   -4.7404    0.8646    0.7150 C   0  0  0  0  0  0  0  0  0  0  0  0
   -5.5022    1.8194    1.3914 C   0  0  0  0  0  0  0  0  0  0  0  0
   -6.8985    1.7778    1.3514 C   0  0  0  0  0  0  0  0  0  0  0  0
   -7.5487    0.7758    0.6301 C   0  0  0  0  0  0  0  0  0  0  0  0
   -6.8079   -0.1893   -0.0531 C   0  0  0  0  0  0  0  0  0  0  0  0
   -5.4117   -0.1341   -0.0041 C   0  0  0  0  0  0  0  0  0  0  0  0
   -4.5900   -1.0729   -0.6480 N   0  0  0  0  0  0  0  0  0  0  0  0
   -4.9373   -2.1739   -1.3949 C   0  0  0  0  0  0  0  0  0  0  0  0
   -3.7817   -2.8376   -1.7460 C   0  0  0  0  0  0  0  0  0  0  0  0
   -2.6986   -2.1041   -1.2088 C   0  0  0  0  0  0  0  0  0  0  0  0
   -3.2174   -0.9906   -0.5714 C   0  0  0  0  0  0  0  0  0  0  0  0
   -0.6055    0.9899    1.3395 C   0  0  0  0  0  0  0  0  0  0  0  0
    0.8980    1.3050    1.1401 C   0  0  0  0  0  0  0  0  0  0  0  0
    6.1370   -0.6794    1.1757 C   0  0  0  0  0  0  0  0  0  0  0  0
    7.5083   -0.3997    1.1868 C   0  0  0  0  0  0  0  0  0  0  0  0
    8.3733   -0.6775    2.6567 Cl  0  0  0  0  0  0  0  0  0  0  0  0
    7.8466    0.6797   -2.0268 H   0  0  0  0  0  0  0  0  0  0  0  0
    5.4338    0.1889   -2.0449 H   0  0  0  0  0  0  0  0  0  0  0  0
    3.6834   -1.5954    0.6995 H   0  0  0  0  0  0  0  0  0  0  0  0
    3.6005   -1.1136   -0.9832 H   0  0  0  0  0  0  0  0  0  0  0  0
    3.2731    1.3080   -0.2628 H   0  0  0  0  0  0  0  0  0  0  0  0
    3.4278    0.7974    1.4127 H   0  0  0  0  0  0  0  0  0  0  0  0
    1.0422   -1.2295   -0.8975 H   0  0  0  0  0  0  0  0  0  0  0  0
    1.6377    0.2555   -1.6374 H   0  0  0  0  0  0  0  0  0  0  0  0
   -0.4011    1.4121   -1.3498 H   0  0  0  0  0  0  0  0  0  0  0  0
   -0.8589   -0.2009   -1.8593 H   0  0  0  0  0  0  0  0  0  0  0  0
   -4.9985    2.6018    1.9527 H   0  0  0  0  0  0  0  0  0  0  0  0
   -7.4766    2.5285    1.8840 H   0  0  0  0  0  0  0  0  0  0  0  0
   -8.6354    0.7468    0.6028 H   0  0  0  0  0  0  0  0  0  0  0  0
   -7.3353   -0.9609   -0.6037 H   0  0  0  0  0  0  0  0  0  0  0  0
   -5.9684   -2.4192   -1.6030 H   0  0  0  0  0  0  0  0  0  0  0  0
   -3.7281   -3.7575   -2.3139 H   0  0  0  0  0  0  0  0  0  0  0  0
   -1.6503   -2.3628   -1.2751 H   0  0  0  0  0  0  0  0  0  0  0  0
   -0.7263    0.3738    2.2387 H   0  0  0  0  0  0  0  0  0  0  0  0
   -1.1280    1.9388    1.5088 H   0  0  0  0  0  0  0  0  0  0  0  0
    1.3260    1.5301    2.1247 H   0  0  0  0  0  0  0  0  0  0  0  0
    0.9987    2.2175    0.5367 H   0  0  0  0  0  0  0  0  0  0  0  0
    5.6579   -1.0581    2.0770 H   0  0  0  0  0  0  0  0  0  0  0  0
  1  2  1  0
  2  3  2  0
  3  4  1  0
  4  5  2  0
  5  6  1  0
  6  7  1  0
  7  8  1  0
  8  9  1  0
  9 10  1  0
 10 11  1  0
 11 12  1  0
 12 13  2  0
 13 14  1  0
 14 15  2  0
 15 16  1  0
 16 17  2  0
 17 18  1  0
 18 19  2  0
 19 20  1  0
 20 21  1  0
 21 22  2  0
 22 23  1  0
 23 24  2  0
 11 25  1  0
 25 26  1  0
  5 27  1  0
 27 28  2  0
 28 29  1  0
 28  2  1  0
 26  8  1  0
 24 12  1  0
 19 14  1  0
 24 20  1  0
  3 30  1  0
  4 31  1  0
  6 32  1  0
  6 33  1  0
  7 34  1  0
  7 35  1  0
  9 36  1  0
  9 37  1  0
 10 38  1  0
 10 39  1  0
 15 40  1  0
 16 41  1  0
 17 42  1  0
 18 43  1  0
 21 44  1  0
 22 45  1  0
 23 46  1  0
 25 47  1  0
 25 48  1  0
 26 49  1  0
 26 50  1  0
 27 51  1  0
M  END
$$$$
