
     RDKit          3D

 43 45  0  0  0  0  0  0  0  0999 V2000
   -7.7935    0.1740    1.3368 C   0  0  0  0  0  0  0  0  0  0  0  0
   -6.3838    0.4185    1.0864 N   0  0  0  0  0  0  0  0  0  0  0  0
   -5.7345    1.3783    1.9691 C   0  0  0  0  0  0  0  0  0  0  0  0
   -5.8302   -0.0737   -0.0942 C   0  0  0  0  0  0  0  0  0  0  0  0
   -6.4947   -0.5914   -0.9898 O   0  0  0  0  0  0  0  0  0  0  0  0
   -4.3643    0.0065   -0.2955 C   0  0  0  0  0  0  0  0  0  0  0  0
   -3.8748    0.4888   -1.5103 C   0  0  0  0  0  0  0  0  0  0  0  0
   -2.4954    0.5426   -1.7325 C   0  0  0  0  0  0  0  0  0  0  0  0
   -1.5925    0.1056   -0.7516 C   0  0  0  0  0  0  0  0  0  0  0  0
   -0.2190    0.1975   -1.0622 N   0  0  0  0  0  0  0  0  0  0  0  0
    0.8628   -0.1141   -0.2476 C   0  0  0  0  0  0  0  0  0  0  0  0
    0.7617   -0.4949    0.9150 O   0  0  0  0  0  0  0  0  0  0  0  0
    2.1598    0.0640   -0.8906 C   0  0  0  0  0  0  0  0  0  0  0  0
    2.5605    0.4015   -2.1721 C   0  0  0  0  0  0  0  0  0  0  0  0
    3.9794    0.4108   -2.1727 C   0  0  0  0  0  0  0  0  0  0  0  0
    4.3809    0.0773   -0.8957 C   0  0  0  0  0  0  0  0  0  0  0  0
    5.6741   -0.0893   -0.2354 C   0  0  0  0  0  0  0  0  0  0  0  0
    5.7574   -0.4599    1.1171 C   0  0  0  0  0  0  0  0  0  0  0  0
    6.9966   -0.6186    1.7468 C   0  0  0  0  0  0  0  0  0  0  0  0
    8.1687   -0.4076    1.0275 C   0  0  0  0  0  0  0  0  0  0  0  0
    9.6944   -0.6012    1.7975 Cl  0  0  0  0  0  0  0  0  0  0  0  0
    8.1114   -0.0399   -0.3139 C   0  0  0  0  0  0  0  0  0  0  0  0
    6.8700    0.1180   -0.9411 C   0  0  0  0  0  0  0  0  0  0  0  0
    3.2771   -0.1331   -0.1218 O   0  0  0  0  0  0  0  0  0  0  0  0
   -2.0951   -0.4021    0.4497 C   0  0  0  0  0  0  0  0  0  0  0  0
   -3.4756   -0.4616    0.6755 C   0  0  0  0  0  0  0  0  0  0  0  0
   -7.9372   -0.0323    2.4015 H   0  0  0  0  0  0  0  0  0  0  0  0
   -8.3602    1.0662    1.0546 H   0  0  0  0  0  0  0  0  0  0  0  0
   -8.1621   -0.6793    0.7607 H   0  0  0  0  0  0  0  0  0  0  0  0
   -5.5884    0.9087    2.9458 H   0  0  0  0  0  0  0  0  0  0  0  0
   -6.3865    2.2505    2.0819 H   0  0  0  0  0  0  0  0  0  0  0  0
   -4.7772    1.7276    1.5796 H   0  0  0  0  0  0  0  0  0  0  0  0
   -4.5662    0.8168   -2.2835 H   0  0  0  0  0  0  0  0  0  0  0  0
   -2.1431    0.9274   -2.6861 H   0  0  0  0  0  0  0  0  0  0  0  0
   -0.0063    0.5556   -1.9812 H   0  0  0  0  0  0  0  0  0  0  0  0
    1.9242    0.6122   -3.0192 H   0  0  0  0  0  0  0  0  0  0  0  0
    4.6265    0.6317   -3.0098 H   0  0  0  0  0  0  0  0  0  0  0  0
    4.8518   -0.6305    1.6978 H   0  0  0  0  0  0  0  0  0  0  0  0
    7.0339   -0.9062    2.7941 H   0  0  0  0  0  0  0  0  0  0  0  0
    9.0253    0.1253   -0.8783 H   0  0  0  0  0  0  0  0  0  0  0  0
    6.8544    0.4056   -1.9893 H   0  0  0  0  0  0  0  0  0  0  0  0
   -1.4426   -0.7775    1.2322 H   0  0  0  0  0  0  0  0  0  0  0  0
   -3.8476   -0.8861    1.6047 H   0  0  0  0  0  0  0  0  0  0  0  0
  1  2  1  0
  2  3  1  0
  2  4  1  0
  4  5  2  0
  4  6  1  0
  6  7  2  0
  7  8  1  0
  8  9  2  0
  9 10  1  0
 10 11  1  0
 11 12  2  0
 11 13  1  0
 13 14  2  0
 14 15  1  0
 15 16  2  0
 16 17  1  0
 17 18  2  0
 18 19  1  0
 19 20  2  0
 20 21  1  0
 20 22  1  0
 22 23  2  0
 16 24  1  0
  9 25  1  0
 25 26  2  0
 26  6  1  0
 24 13  1  0
 23 17  1  0
  1 27  1  0
  1 28  1  0
  1 29  1  0
  3 30  1  0
  3 31  1  0
  3 32  1  0
  7 33  1  0
  8 34  1  0
 10 35  1  0
 14 36  1  0
 15 37  1  0
 18 38  1  0
 19 39  1  0
 22 40  1  0
 23 41  1  0
 25 42  1  0
 26 43  1  0
M  END
$$$$
