
     RDKit          3D

 38 40  0  0  0  0  0  0  0  0999 V2000
   -7.1311    1.5757   -1.1888 C   0  0  0  0  0  0  0  0  0  0  0  0
   -6.4439    0.2255   -1.2483 C   0  0  0  0  0  0  0  0  0  0  0  0
   -6.2020   -0.2117    0.0889 O   0  0  0  0  0  0  0  0  0  0  0  0
   -5.5660   -1.4936    0.1467 C   0  0  0  0  0  0  0  0  0  0  0  0
   -4.0982   -1.3345   -0.0718 C   0  0  0  0  0  0  0  0  0  0  0  0
   -3.4654   -1.6458   -1.1860 N   0  0  0  0  0  0  0  0  0  0  0  0
   -2.1124   -1.3874   -1.0984 N   0  0  0  0  0  0  0  0  0  0  0  0
   -1.7740   -0.8996    0.0750 C   0  0  0  0  0  0  0  0  0  0  0  0
   -0.4809   -0.5696    0.3812 N   0  0  0  0  0  0  0  0  0  0  0  0
    0.0018   -0.0731    1.5692 C   0  0  0  0  0  0  0  0  0  0  0  0
   -0.6412    0.1614    2.5883 O   0  0  0  0  0  0  0  0  0  0  0  0
    1.5113    0.1871    1.5333 C   0  0  0  0  0  0  0  0  0  0  0  0
    2.0666   -0.1746    0.2703 O   0  0  0  0  0  0  0  0  0  0  0  0
    3.4134    0.0134    0.1108 C   0  0  0  0  0  0  0  0  0  0  0  0
    3.9057   -0.3597   -1.1568 C   0  0  0  0  0  0  0  0  0  0  0  0
    5.2613   -0.2274   -1.4739 C   0  0  0  0  0  0  0  0  0  0  0  0
    6.0943    0.2796   -0.5033 C   0  0  0  0  0  0  0  0  0  0  0  0
    5.6196    0.6446    0.7340 C   0  0  0  0  0  0  0  0  0  0  0  0
    4.2864    0.5251    1.0747 C   0  0  0  0  0  0  0  0  0  0  0  0
    6.6028    1.1209    1.5455 O   0  0  0  0  0  0  0  0  0  0  0  0
    7.7495    1.0138    0.6755 C   0  0  0  0  0  0  0  0  0  0  0  0
    7.4328    0.4796   -0.6267 O   0  0  0  0  0  0  0  0  0  0  0  0
   -3.0725   -0.7179    1.1609 S   0  0  0  0  0  0  0  0  0  0  0  0
   -6.5047    2.3039   -0.6631 H   0  0  0  0  0  0  0  0  0  0  0  0
   -8.0724    1.5054   -0.6337 H   0  0  0  0  0  0  0  0  0  0  0  0
   -7.3413    1.9512   -2.1942 H   0  0  0  0  0  0  0  0  0  0  0  0
   -7.0891   -0.4956   -1.7619 H   0  0  0  0  0  0  0  0  0  0  0  0
   -5.5003    0.3184   -1.7957 H   0  0  0  0  0  0  0  0  0  0  0  0
   -6.0084   -2.1792   -0.5850 H   0  0  0  0  0  0  0  0  0  0  0  0
   -5.7564   -1.9119    1.1410 H   0  0  0  0  0  0  0  0  0  0  0  0
    0.1846   -0.7238   -0.3683 H   0  0  0  0  0  0  0  0  0  0  0  0
    1.9599   -0.4178    2.3298 H   0  0  0  0  0  0  0  0  0  0  0  0
    1.6563    1.2578    1.7177 H   0  0  0  0  0  0  0  0  0  0  0  0
    3.2222   -0.7577   -1.9040 H   0  0  0  0  0  0  0  0  0  0  0  0
    5.6428   -0.5131   -2.4475 H   0  0  0  0  0  0  0  0  0  0  0  0
    3.9705    0.8287    2.0644 H   0  0  0  0  0  0  0  0  0  0  0  0
    8.1875    2.0105    0.5488 H   0  0  0  0  0  0  0  0  0  0  0  0
    8.4907    0.3615    1.1515 H   0  0  0  0  0  0  0  0  0  0  0  0
  1  2  1  0
  2  3  1  0
  3  4  1  0
  4  5  1  0
  5  6  2  0
  6  7  1  0
  7  8  2  0
  8  9  1  0
  9 10  1  0
 10 11  2  0
 10 12  1  0
 12 13  1  0
 13 14  1  0
 14 15  2  0
 15 16  1  0
 16 17  2  0
 17 18  1  0
 18 19  2  0
 18 20  1  0
 20 21  1  0
 21 22  1  0
  8 23  1  0
 23  5  1  0
 19 14  1  0
 22 17  1  0
  1 24  1  0
  1 25  1  0
  1 26  1  0
  2 27  1  0
  2 28  1  0
  4 29  1  0
  4 30  1  0
  9 31  1  0
 12 32  1  0
 12 33  1  0
 15 34  1  0
 16 35  1  0
 19 36  1  0
 21 37  1  0
 21 38  1  0
M  END
$$$$
