
     RDKit          3D

 40 41  0  0  0  0  0  0  0  0999 V2000
    5.7272    2.0171   -0.8554 C   0  0  0  0  0  0  0  0  0  0  0  0
    6.3114    0.4825   -1.6146 S   0  0  0  0  0  0  0  0  0  0  0  0
    6.0208   -0.6683   -0.2348 C   0  0  0  0  0  0  0  0  0  0  0  0
    4.5608   -0.8568    0.0954 C   0  0  0  0  0  0  0  0  0  0  0  0
    3.7155   -1.5504   -0.7834 C   0  0  0  0  0  0  0  0  0  0  0  0
    2.3651   -1.7316   -0.4760 C   0  0  0  0  0  0  0  0  0  0  0  0
    1.8372   -1.2131    0.7110 C   0  0  0  0  0  0  0  0  0  0  0  0
    0.3926   -1.4299    0.9974 C   0  0  0  0  0  0  0  0  0  0  0  0
   -0.1936   -2.3980    0.5275 O   0  0  0  0  0  0  0  0  0  0  0  0
   -0.2305   -0.4698    1.7679 N   0  0  0  0  0  0  0  0  0  0  0  0
   -1.6510   -0.5483    2.0698 C   0  0  0  0  0  0  0  0  0  0  0  0
   -2.5245   -0.1968    0.8642 C   0  0  0  0  0  0  0  0  0  0  0  0
   -4.2826   -0.1383    1.3573 S   0  0  0  0  0  0  0  0  0  0  0  0
   -5.0176    0.3860   -0.1804 C   0  0  0  0  0  0  0  0  0  0  0  0
   -5.8080    1.5404   -0.1960 C   0  0  0  0  0  0  0  0  0  0  0  0
   -6.4071    1.9722   -1.3827 C   0  0  0  0  0  0  0  0  0  0  0  0
   -6.2227    1.2416   -2.5545 C   0  0  0  0  0  0  0  0  0  0  0  0
   -7.0320    1.8231   -4.1604 Br  0  0  0  0  0  0  0  0  0  0  0  0
   -5.4503    0.0821   -2.5489 C   0  0  0  0  0  0  0  0  0  0  0  0
   -4.8524   -0.3471   -1.3605 C   0  0  0  0  0  0  0  0  0  0  0  0
    2.6767   -0.5343    1.6022 C   0  0  0  0  0  0  0  0  0  0  0  0
    4.0291   -0.3560    1.2932 C   0  0  0  0  0  0  0  0  0  0  0  0
    5.9495    2.8520   -1.5256 H   0  0  0  0  0  0  0  0  0  0  0  0
    4.6462    1.9860   -0.6985 H   0  0  0  0  0  0  0  0  0  0  0  0
    6.2364    2.1940    0.0955 H   0  0  0  0  0  0  0  0  0  0  0  0
    6.4496   -1.6403   -0.5049 H   0  0  0  0  0  0  0  0  0  0  0  0
    6.5816   -0.3203    0.6399 H   0  0  0  0  0  0  0  0  0  0  0  0
    4.1061   -1.9550   -1.7159 H   0  0  0  0  0  0  0  0  0  0  0  0
    1.7249   -2.2767   -1.1672 H   0  0  0  0  0  0  0  0  0  0  0  0
    0.2465    0.4011    1.9572 H   0  0  0  0  0  0  0  0  0  0  0  0
   -1.8266    0.1455    2.8995 H   0  0  0  0  0  0  0  0  0  0  0  0
   -1.8688   -1.5649    2.4180 H   0  0  0  0  0  0  0  0  0  0  0  0
   -2.2342    0.7816    0.4653 H   0  0  0  0  0  0  0  0  0  0  0  0
   -2.3875   -0.9364    0.0697 H   0  0  0  0  0  0  0  0  0  0  0  0
   -5.9634    2.1138    0.7151 H   0  0  0  0  0  0  0  0  0  0  0  0
   -7.0151    2.8728   -1.3791 H   0  0  0  0  0  0  0  0  0  0  0  0
   -5.3120   -0.4981   -3.4576 H   0  0  0  0  0  0  0  0  0  0  0  0
   -4.2693   -1.2651   -1.3671 H   0  0  0  0  0  0  0  0  0  0  0  0
    2.3039   -0.1657    2.5535 H   0  0  0  0  0  0  0  0  0  0  0  0
    4.6681    0.1690    2.0006 H   0  0  0  0  0  0  0  0  0  0  0  0
  1  2  1  0
  2  3  1  0
  3  4  1  0
  4  5  2  0
  5  6  1  0
  6  7  2  0
  7  8  1  0
  8  9  2  0
  8 10  1  0
 10 11  1  0
 11 12  1  0
 12 13  1  0
 13 14  1  0
 14 15  2  0
 15 16  1  0
 16 17  2  0
 17 18  1  0
 17 19  1  0
 19 20  2  0
  7 21  1  0
 21 22  2  0
 22  4  1  0
 20 14  1  0
  1 23  1  0
  1 24  1  0
  1 25  1  0
  3 26  1  0
  3 27  1  0
  5 28  1  0
  6 29  1  0
 10 30  1  0
 11 31  1  0
 11 32  1  0
 12 33  1  0
 12 34  1  0
 15 35  1  0
 16 36  1  0
 19 37  1  0
 20 38  1  0
 21 39  1  0
 22 40  1  0
M  END
$$$$
