
     RDKit          3D

 51 54  0  0  0  0  0  0  0  0999 V2000
   -3.6532   -4.3602    2.1939 C   0  0  0  0  0  0  0  0  0  0  0  0
   -2.2674   -4.3646    1.8757 O   0  0  0  0  0  0  0  0  0  0  0  0
   -1.6671   -3.1540    1.6613 C   0  0  0  0  0  0  0  0  0  0  0  0
   -2.3186   -1.9239    1.6514 C   0  0  0  0  0  0  0  0  0  0  0  0
   -1.5927   -0.7362    1.4356 C   0  0  0  0  0  0  0  0  0  0  0  0
   -2.3135    0.5458    1.4108 C   0  0  0  0  0  0  0  0  0  0  0  0
   -3.5198    0.5582    1.6498 O   0  0  0  0  0  0  0  0  0  0  0  0
   -1.5717    1.6774    1.1139 N   0  0  0  0  0  0  0  0  0  0  0  0
   -2.2947    2.9347    0.9827 C   0  0  0  0  0  0  0  0  0  0  0  0
   -2.8242    3.0604   -0.4049 C   0  0  0  0  0  0  0  0  0  0  0  0
   -3.9536    2.5772   -1.0351 C   0  0  0  0  0  0  0  0  0  0  0  0
   -3.8930    3.0357   -2.3725 C   0  0  0  0  0  0  0  0  0  0  0  0
   -2.7349    3.7692   -2.4735 C   0  0  0  0  0  0  0  0  0  0  0  0
   -2.0820    3.7937   -1.2836 O   0  0  0  0  0  0  0  0  0  0  0  0
   -0.1963    1.7010    0.9483 C   0  0  0  0  0  0  0  0  0  0  0  0
    0.4240    2.7473    0.7427 O   0  0  0  0  0  0  0  0  0  0  0  0
    0.4740    0.4849    1.0570 N   0  0  0  0  0  0  0  0  0  0  0  0
    1.9266    0.5210    0.8660 C   0  0  0  0  0  0  0  0  0  0  0  0
    2.2991    0.3271   -0.6035 C   0  0  0  0  0  0  0  0  0  0  0  0
    1.6309   -0.3638   -1.3726 O   0  0  0  0  0  0  0  0  0  0  0  0
    3.5499    0.9583   -1.1160 C   0  0  0  0  0  0  0  0  0  0  0  0
    4.5850    1.3692   -0.2654 C   0  0  0  0  0  0  0  0  0  0  0  0
    5.7427    1.9442   -0.7979 C   0  0  0  0  0  0  0  0  0  0  0  0
    5.8745    2.1058   -2.1770 C   0  0  0  0  0  0  0  0  0  0  0  0
    4.8483    1.6893   -3.0228 C   0  0  0  0  0  0  0  0  0  0  0  0
    5.0315    1.9029   -4.8922 Br  0  0  0  0  0  0  0  0  0  0  0  0
    3.6903    1.1145   -2.5021 C   0  0  0  0  0  0  0  0  0  0  0  0
   -0.2127   -0.7457    1.2417 C   0  0  0  0  0  0  0  0  0  0  0  0
    0.4360   -1.9862    1.2410 C   0  0  0  0  0  0  0  0  0  0  0  0
   -0.2874   -3.1706    1.4271 C   0  0  0  0  0  0  0  0  0  0  0  0
    0.4266   -4.3443    1.4411 O   0  0  0  0  0  0  0  0  0  0  0  0
    0.3239   -4.9955    0.1738 C   0  0  0  0  0  0  0  0  0  0  0  0
   -3.8476   -3.7921    3.1096 H   0  0  0  0  0  0  0  0  0  0  0  0
   -4.2474   -3.9793    1.3569 H   0  0  0  0  0  0  0  0  0  0  0  0
   -3.9579   -5.3955    2.3739 H   0  0  0  0  0  0  0  0  0  0  0  0
   -3.3913   -1.8536    1.8046 H   0  0  0  0  0  0  0  0  0  0  0  0
   -3.1261    2.9627    1.6971 H   0  0  0  0  0  0  0  0  0  0  0  0
   -1.6462    3.7857    1.2187 H   0  0  0  0  0  0  0  0  0  0  0  0
   -4.7178    1.9618   -0.5792 H   0  0  0  0  0  0  0  0  0  0  0  0
   -4.6022    2.8516   -3.1667 H   0  0  0  0  0  0  0  0  0  0  0  0
   -2.2572    4.3088   -3.2791 H   0  0  0  0  0  0  0  0  0  0  0  0
    2.4247   -0.2328    1.4820 H   0  0  0  0  0  0  0  0  0  0  0  0
    2.2963    1.4923    1.2103 H   0  0  0  0  0  0  0  0  0  0  0  0
    4.5259    1.2448    0.8122 H   0  0  0  0  0  0  0  0  0  0  0  0
    6.5458    2.2645   -0.1369 H   0  0  0  0  0  0  0  0  0  0  0  0
    6.7787    2.5537   -2.5820 H   0  0  0  0  0  0  0  0  0  0  0  0
    2.8941    0.7907   -3.1701 H   0  0  0  0  0  0  0  0  0  0  0  0
    1.5031   -2.0836    1.0732 H   0  0  0  0  0  0  0  0  0  0  0  0
    0.8140   -5.9699    0.2580 H   0  0  0  0  0  0  0  0  0  0  0  0
   -0.7154   -5.1645   -0.1268 H   0  0  0  0  0  0  0  0  0  0  0  0
    0.8461   -4.4179   -0.5972 H   0  0  0  0  0  0  0  0  0  0  0  0
  1  2  1  0
  2  3  1  0
  3  4  2  0
  4  5  1  0
  5  6  1  0
  6  7  2  0
  6  8  1  0
  8  9  1  0
  9 10  1  0
 10 11  2  0
 11 12  1  0
 12 13  2  0
 13 14  1  0
  8 15  1  0
 15 16  2  0
 15 17  1  0
 17 18  1  0
 18 19  1  0
 19 20  2  0
 19 21  1  0
 21 22  2  0
 22 23  1  0
 23 24  2  0
 24 25  1  0
 25 26  1  0
 25 27  2  0
 17 28  1  0
 28 29  1  0
 29 30  2  0
 30 31  1  0
 31 32  1  0
 30  3  1  0
 28  5  2  0
 14 10  1  0
 27 21  1  0
  1 33  1  0
  1 34  1  0
  1 35  1  0
  4 36  1  0
  9 37  1  0
  9 38  1  0
 11 39  1  0
 12 40  1  0
 13 41  1  0
 18 42  1  0
 18 43  1  0
 22 44  1  0
 23 45  1  0
 24 46  1  0
 27 47  1  0
 29 48  1  0
 32 49  1  0
 32 50  1  0
 32 51  1  0
M  END
$$$$
