
     RDKit          3D

 57 61  0  0  0  0  0  0  0  0999 V2000
   -7.3016   -0.7843   -2.7050 C   0  0  0  0  0  0  0  0  0  0  0  0
   -6.5082   -0.9891   -1.4486 C   0  0  0  0  0  0  0  0  0  0  0  0
   -7.0539   -0.6561   -0.2042 C   0  0  0  0  0  0  0  0  0  0  0  0
   -6.3281   -0.8728    0.9692 C   0  0  0  0  0  0  0  0  0  0  0  0
   -5.0482   -1.4415    0.9198 C   0  0  0  0  0  0  0  0  0  0  0  0
   -4.2590   -1.6627    2.1854 C   0  0  0  0  0  0  0  0  0  0  0  0
   -3.5835   -0.4540    2.6074 N   0  0  0  0  0  0  0  0  0  0  0  0
   -4.1291    0.3571    3.5486 N   0  0  0  0  0  0  0  0  0  0  0  0
   -3.2887    1.3735    3.7448 N   0  0  0  0  0  0  0  0  0  0  0  0
   -2.2153    1.1722    2.9335 C   0  0  0  0  0  0  0  0  0  0  0  0
   -1.0214    1.9476    2.7403 C   0  0  0  0  0  0  0  0  0  0  0  0
   -0.7392    2.9894    3.3210 O   0  0  0  0  0  0  0  0  0  0  0  0
   -0.1735    1.3774    1.7969 N   0  0  0  0  0  0  0  0  0  0  0  0
   -0.4280    0.1795    1.1391 C   0  0  0  0  0  0  0  0  0  0  0  0
    0.6155   -0.2974    0.1355 C   0  0  0  0  0  0  0  0  0  0  0  0
    1.9842   -0.5076    0.7894 C   0  0  0  0  0  0  0  0  0  0  0  0
    3.0886   -0.4825   -0.2554 C   0  0  0  0  0  0  0  0  0  0  0  0
    3.1532    0.8353   -0.9367 N   0  0  0  0  0  0  0  0  0  0  0  0
    4.4764    1.8398   -0.5331 S   0  0  0  0  0  6  0  0  0  0  0  0
    4.4995    1.8984    0.9158 O   0  0  0  0  0  0  0  0  0  0  0  0
    4.3964    3.0522   -1.3171 O   0  0  0  0  0  0  0  0  0  0  0  0
    5.8819    0.9339   -1.0759 C   0  0  0  0  0  0  0  0  0  0  0  0
    6.8882    0.5775   -0.1719 C   0  0  0  0  0  0  0  0  0  0  0  0
    7.9971   -0.1389   -0.6264 C   0  0  0  0  0  0  0  0  0  0  0  0
    8.0979   -0.4924   -1.9737 C   0  0  0  0  0  0  0  0  0  0  0  0
    7.0905   -0.1291   -2.8691 C   0  0  0  0  0  0  0  0  0  0  0  0
    5.9846    0.5857   -2.4160 C   0  0  0  0  0  0  0  0  0  0  0  0
    5.0299    0.9115   -3.2972 F   0  0  0  0  0  0  0  0  0  0  0  0
    1.8697    1.5737   -1.0501 C   0  0  0  0  0  0  0  0  0  0  0  0
    0.6804    0.6232   -1.0921 C   0  0  0  0  0  0  0  0  0  0  0  0
   -1.5048   -0.5367    1.3173 N   0  0  0  0  0  0  0  0  0  0  0  0
   -2.3613    0.0113    2.2141 C   0  0  0  0  0  0  0  0  0  0  0  0
   -4.5055   -1.7790   -0.3276 C   0  0  0  0  0  0  0  0  0  0  0  0
   -5.2330   -1.5622   -1.5001 C   0  0  0  0  0  0  0  0  0  0  0  0
   -7.9707    0.0772   -2.6086 H   0  0  0  0  0  0  0  0  0  0  0  0
   -6.6414   -0.5883   -3.5564 H   0  0  0  0  0  0  0  0  0  0  0  0
   -7.8999   -1.6753   -2.9189 H   0  0  0  0  0  0  0  0  0  0  0  0
   -8.0477   -0.2181   -0.1396 H   0  0  0  0  0  0  0  0  0  0  0  0
   -6.7678   -0.5875    1.9238 H   0  0  0  0  0  0  0  0  0  0  0  0
   -4.9153   -1.9931    2.9991 H   0  0  0  0  0  0  0  0  0  0  0  0
   -3.5019   -2.4438    2.0500 H   0  0  0  0  0  0  0  0  0  0  0  0
    0.6880    1.8862    1.6640 H   0  0  0  0  0  0  0  0  0  0  0  0
    0.2664   -1.2761   -0.2252 H   0  0  0  0  0  0  0  0  0  0  0  0
    2.1902    0.2503    1.5538 H   0  0  0  0  0  0  0  0  0  0  0  0
    1.9893   -1.4716    1.3126 H   0  0  0  0  0  0  0  0  0  0  0  0
    2.9170   -1.2515   -1.0183 H   0  0  0  0  0  0  0  0  0  0  0  0
    4.0422   -0.7335    0.2196 H   0  0  0  0  0  0  0  0  0  0  0  0
    6.8206    0.8565    0.8778 H   0  0  0  0  0  0  0  0  0  0  0  0
    8.7868   -0.4173    0.0686 H   0  0  0  0  0  0  0  0  0  0  0  0
    8.9644   -1.0471   -2.3270 H   0  0  0  0  0  0  0  0  0  0  0  0
    7.1616   -0.3964   -3.9194 H   0  0  0  0  0  0  0  0  0  0  0  0
    1.8861    2.1586   -1.9767 H   0  0  0  0  0  0  0  0  0  0  0  0
    1.7606    2.2719   -0.2136 H   0  0  0  0  0  0  0  0  0  0  0  0
   -0.2477    1.1957   -1.2070 H   0  0  0  0  0  0  0  0  0  0  0  0
    0.7702   -0.0018   -1.9909 H   0  0  0  0  0  0  0  0  0  0  0  0
   -3.5081   -2.2092   -0.3963 H   0  0  0  0  0  0  0  0  0  0  0  0
   -4.7947   -1.8387   -2.4564 H   0  0  0  0  0  0  0  0  0  0  0  0
  1  2  1  0
  2  3  2  0
  3  4  1  0
  4  5  2  0
  5  6  1  0
  6  7  1  0
  7  8  1  0
  8  9  2  0
  9 10  1  0
 10 11  1  0
 11 12  2  0
 11 13  1  0
 13 14  1  0
 14 15  1  0
 15 16  1  0
 16 17  1  0
 17 18  1  0
 18 19  1  0
 19 20  2  0
 19 21  2  0
 19 22  1  0
 22 23  2  0
 23 24  1  0
 24 25  2  0
 25 26  1  0
 26 27  2  0
 27 28  1  0
 18 29  1  0
 29 30  1  0
 14 31  2  0
 31 32  1  0
  5 33  1  0
 33 34  2  0
 34  2  1  0
 32  7  1  0
 32 10  2  0
 30 15  1  0
 27 22  1  0
  1 35  1  0
  1 36  1  0
  1 37  1  0
  3 38  1  0
  4 39  1  0
  6 40  1  0
  6 41  1  0
 13 42  1  0
 15 43  1  0
 16 44  1  0
 16 45  1  0
 17 46  1  0
 17 47  1  0
 23 48  1  0
 24 49  1  0
 25 50  1  0
 26 51  1  0
 29 52  1  0
 29 53  1  0
 30 54  1  0
 30 55  1  0
 33 56  1  0
 34 57  1  0
M  END
$$$$
