
     RDKit          3D

 55 58  0  0  0  0  0  0  0  0999 V2000
    2.1386   -2.2863    4.0756 C   0  0  0  0  0  0  0  0  0  0  0  0
    2.3227   -0.7807    4.0958 C   0  0  0  0  0  0  0  0  0  0  0  0
    3.2310   -0.3775    3.0590 O   0  0  0  0  0  0  0  0  0  0  0  0
    2.6837   -0.1657    1.8370 C   0  0  0  0  0  0  0  0  0  0  0  0
    1.5005   -0.3007    1.5540 O   0  0  0  0  0  0  0  0  0  0  0  0
    3.7209    0.2466    0.8416 C   0  0  0  0  0  0  0  0  0  0  0  0
    5.0234    0.5577    1.2743 C   0  0  0  0  0  0  0  0  0  0  0  0
    5.9949    0.9650    0.3619 C   0  0  0  0  0  0  0  0  0  0  0  0
    5.6742    1.0679   -0.9864 C   0  0  0  0  0  0  0  0  0  0  0  0
    4.3841    0.7631   -1.4304 C   0  0  0  0  0  0  0  0  0  0  0  0
    3.3918    0.3484   -0.5334 C   0  0  0  0  0  0  0  0  0  0  0  0
    2.0788    0.0263   -0.9616 N   0  0  0  0  0  0  0  0  0  0  0  0
    1.5388    0.1021   -2.2288 C   0  0  0  0  0  0  0  0  0  0  0  0
    2.1157    0.4357   -3.2560 O   0  0  0  0  0  0  0  0  0  0  0  0
    0.0955   -0.3047   -2.2707 C   0  0  0  0  0  0  0  0  0  0  0  0
   -0.7418    0.3122   -1.4210 C   0  0  0  0  0  0  0  0  0  0  0  0
   -2.1124    0.0696   -1.3478 N   0  0  0  0  0  0  0  0  0  0  0  0
   -2.9202    0.7479   -0.3549 C   0  0  0  0  0  0  0  0  0  0  0  0
   -4.2674    1.0571   -0.5804 C   0  0  0  0  0  0  0  0  0  0  0  0
   -5.0281    1.7324    0.3833 C   0  0  0  0  0  0  0  0  0  0  0  0
   -4.4667    2.1139    1.6000 C   0  0  0  0  0  0  0  0  0  0  0  0
   -5.3173    2.7646    2.4484 O   0  0  0  0  0  0  0  0  0  0  0  0
   -4.7950    3.1491    3.7135 C   0  0  0  0  0  0  0  0  0  0  0  0
   -3.1312    1.8121    1.8460 C   0  0  0  0  0  0  0  0  0  0  0  0
   -2.3685    1.1392    0.8788 C   0  0  0  0  0  0  0  0  0  0  0  0
   -2.7151   -0.8596   -2.2310 C   0  0  0  0  0  0  0  0  0  0  0  0
   -3.8984   -1.1963   -2.2254 O   0  0  0  0  0  0  0  0  0  0  0  0
   -1.8266   -1.5271   -3.2263 C   0  0  0  0  0  0  0  0  0  0  0  0
   -2.3839   -2.4404   -4.1369 C   0  0  0  0  0  0  0  0  0  0  0  0
   -1.5741   -3.0934   -5.0635 C   0  0  0  0  0  0  0  0  0  0  0  0
   -0.2067   -2.8398   -5.0819 C   0  0  0  0  0  0  0  0  0  0  0  0
    0.3512   -1.9331   -4.1759 C   0  0  0  0  0  0  0  0  0  0  0  0
   -0.4514   -1.2617   -3.2392 C   0  0  0  0  0  0  0  0  0  0  0  0
    1.6925   -2.6151    3.1319 H   0  0  0  0  0  0  0  0  0  0  0  0
    1.4935   -2.6084    4.8978 H   0  0  0  0  0  0  0  0  0  0  0  0
    3.1047   -2.7934    4.1643 H   0  0  0  0  0  0  0  0  0  0  0  0
    2.7688   -0.4767    5.0482 H   0  0  0  0  0  0  0  0  0  0  0  0
    1.3635   -0.2578    4.0084 H   0  0  0  0  0  0  0  0  0  0  0  0
    5.2973    0.4925    2.3248 H   0  0  0  0  0  0  0  0  0  0  0  0
    6.9991    1.2044    0.7029 H   0  0  0  0  0  0  0  0  0  0  0  0
    6.4278    1.3862   -1.7038 H   0  0  0  0  0  0  0  0  0  0  0  0
    4.1893    0.8583   -2.4946 H   0  0  0  0  0  0  0  0  0  0  0  0
    1.4582   -0.2950   -0.2161 H   0  0  0  0  0  0  0  0  0  0  0  0
   -0.3599    1.0866   -0.7611 H   0  0  0  0  0  0  0  0  0  0  0  0
   -4.7550    0.8128   -1.5203 H   0  0  0  0  0  0  0  0  0  0  0  0
   -6.0703    1.9613    0.1745 H   0  0  0  0  0  0  0  0  0  0  0  0
   -4.4847    2.2739    4.2944 H   0  0  0  0  0  0  0  0  0  0  0  0
   -5.5951    3.6500    4.2671 H   0  0  0  0  0  0  0  0  0  0  0  0
   -3.9711    3.8616    3.6011 H   0  0  0  0  0  0  0  0  0  0  0  0
   -2.6484    2.0745    2.7812 H   0  0  0  0  0  0  0  0  0  0  0  0
   -1.3440    0.8878    1.1432 H   0  0  0  0  0  0  0  0  0  0  0  0
   -3.4526   -2.6465   -4.1234 H   0  0  0  0  0  0  0  0  0  0  0  0
   -2.0101   -3.7980   -5.7672 H   0  0  0  0  0  0  0  0  0  0  0  0
    0.4310   -3.3447   -5.8040 H   0  0  0  0  0  0  0  0  0  0  0  0
    1.4245   -1.7578   -4.2253 H   0  0  0  0  0  0  0  0  0  0  0  0
  1  2  1  0
  2  3  1  0
  3  4  1  0
  4  5  2  0
  4  6  1  0
  6  7  2  0
  7  8  1  0
  8  9  2  0
  9 10  1  0
 10 11  2  0
 11 12  1  0
 12 13  1  0
 13 14  2  0
 13 15  1  0
 15 16  2  0
 16 17  1  0
 17 18  1  0
 18 19  2  0
 19 20  1  0
 20 21  2  0
 21 22  1  0
 22 23  1  0
 21 24  1  0
 24 25  2  0
 17 26  1  0
 26 27  2  0
 26 28  1  0
 28 29  2  0
 29 30  1  0
 30 31  2  0
 31 32  1  0
 32 33  2  0
 11  6  1  0
 33 15  1  0
 25 18  1  0
 33 28  1  0
  1 34  1  0
  1 35  1  0
  1 36  1  0
  2 37  1  0
  2 38  1  0
  7 39  1  0
  8 40  1  0
  9 41  1  0
 10 42  1  0
 12 43  1  0
 16 44  1  0
 19 45  1  0
 20 46  1  0
 23 47  1  0
 23 48  1  0
 23 49  1  0
 24 50  1  0
 25 51  1  0
 29 52  1  0
 30 53  1  0
 31 54  1  0
 32 55  1  0
M  END
$$$$
