
     RDKit          3D

 51 54  0  0  0  0  0  0  0  0999 V2000
    7.7716   -0.9174    0.2371 C   0  0  0  0  0  0  0  0  0  0  0  0
    6.2957   -1.1786    0.1887 C   0  0  0  0  0  0  0  0  0  0  0  0
    5.4331   -0.5715    1.1075 C   0  0  0  0  0  0  0  0  0  0  0  0
    4.0342   -0.7646    1.0621 C   0  0  0  0  0  0  0  0  0  0  0  0
    3.2136    0.0505    2.0241 C   0  0  0  0  0  0  0  0  0  0  0  0
    3.4980   -1.6389    0.0995 C   0  0  0  0  0  0  0  0  0  0  0  0
    2.1267   -1.9735   -0.0201 N   0  0  0  0  0  0  0  0  0  0  0  0
    1.1964   -2.1280    0.9863 C   0  0  0  0  0  0  0  0  0  0  0  0
    1.4425   -2.0993    2.1913 O   0  0  0  0  0  0  0  0  0  0  0  0
   -0.2004   -2.5218    0.5233 C   0  0  0  0  0  0  0  0  0  0  0  0
   -0.6400   -1.9758   -1.1529 S   0  0  0  0  0  0  0  0  0  0  0  0
   -0.8907   -0.2926   -0.8561 C   0  0  0  0  0  0  0  0  0  0  0  0
    0.0003    0.5289   -0.3597 N   0  0  0  0  0  0  0  0  0  0  0  0
   -0.5904    1.7636   -0.2472 N   0  0  0  0  0  0  0  0  0  0  0  0
   -1.8282    1.6764   -0.6956 C   0  0  0  0  0  0  0  0  0  0  0  0
   -2.8016    2.7583   -0.7000 C   0  0  0  0  0  0  0  0  0  0  0  0
   -3.2935    3.2464    0.5106 C   0  0  0  0  0  0  0  0  0  0  0  0
   -4.2330    4.2604    0.4745 C   0  0  0  0  0  0  0  0  0  0  0  0
   -4.7002    4.8070   -0.6691 N   0  0  0  0  0  0  0  0  0  0  0  0
   -4.1834    4.3423   -1.8258 C   0  0  0  0  0  0  0  0  0  0  0  0
   -3.2420    3.3301   -1.8941 C   0  0  0  0  0  0  0  0  0  0  0  0
   -2.0608    0.3743   -1.0924 N   0  0  0  0  0  0  0  0  0  0  0  0
   -3.3097   -0.1680   -1.5891 C   0  0  0  0  0  0  0  0  0  0  0  0
   -4.2293   -0.4797   -0.4673 C   0  0  0  0  0  0  0  0  0  0  0  0
   -5.3558    0.1391    0.0364 C   0  0  0  0  0  0  0  0  0  0  0  0
   -5.7825   -0.6439    1.1354 C   0  0  0  0  0  0  0  0  0  0  0  0
   -4.8974   -1.6923    1.2269 C   0  0  0  0  0  0  0  0  0  0  0  0
   -3.9550   -1.6048    0.2540 O   0  0  0  0  0  0  0  0  0  0  0  0
    4.3695   -2.1911   -0.8650 C   0  0  0  0  0  0  0  0  0  0  0  0
    3.7646   -3.2055   -2.1383 Cl  0  0  0  0  0  0  0  0  0  0  0  0
    5.7489   -1.9699   -0.8200 C   0  0  0  0  0  0  0  0  0  0  0  0
    8.0272   -0.0900   -0.4322 H   0  0  0  0  0  0  0  0  0  0  0  0
    8.0927   -0.6611    1.2522 H   0  0  0  0  0  0  0  0  0  0  0  0
    8.3332   -1.8075   -0.0658 H   0  0  0  0  0  0  0  0  0  0  0  0
    5.8501    0.0920    1.8652 H   0  0  0  0  0  0  0  0  0  0  0  0
    3.1067   -0.4725    2.9783 H   0  0  0  0  0  0  0  0  0  0  0  0
    3.7009    1.0119    2.2262 H   0  0  0  0  0  0  0  0  0  0  0  0
    2.2328    0.3008    1.6109 H   0  0  0  0  0  0  0  0  0  0  0  0
    1.8645   -2.3775   -0.9141 H   0  0  0  0  0  0  0  0  0  0  0  0
   -0.2582   -3.6150    0.5490 H   0  0  0  0  0  0  0  0  0  0  0  0
   -0.9322   -2.1248    1.2343 H   0  0  0  0  0  0  0  0  0  0  0  0
   -2.9522    2.8453    1.4600 H   0  0  0  0  0  0  0  0  0  0  0  0
   -4.6459    4.6742    1.3902 H   0  0  0  0  0  0  0  0  0  0  0  0
   -4.5564    4.8248   -2.7255 H   0  0  0  0  0  0  0  0  0  0  0  0
   -2.8540    3.0122   -2.8554 H   0  0  0  0  0  0  0  0  0  0  0  0
   -3.7542    0.5638   -2.2718 H   0  0  0  0  0  0  0  0  0  0  0  0
   -3.1062   -1.0610   -2.1873 H   0  0  0  0  0  0  0  0  0  0  0  0
   -5.8096    1.0489   -0.3344 H   0  0  0  0  0  0  0  0  0  0  0  0
   -6.6299   -0.4667    1.7836 H   0  0  0  0  0  0  0  0  0  0  0  0
   -4.8060   -2.5386    1.8946 H   0  0  0  0  0  0  0  0  0  0  0  0
    6.3955   -2.4194   -1.5698 H   0  0  0  0  0  0  0  0  0  0  0  0
  1  2  1  0
  2  3  2  0
  3  4  1  0
  4  5  1  0
  4  6  2  0
  6  7  1  0
  7  8  1  0
  8  9  2  0
  8 10  1  0
 10 11  1  0
 11 12  1  0
 12 13  2  0
 13 14  1  0
 14 15  2  0
 15 16  1  0
 16 17  2  0
 17 18  1  0
 18 19  2  0
 19 20  1  0
 20 21  2  0
 15 22  1  0
 22 23  1  0
 23 24  1  0
 24 25  2  0
 25 26  1  0
 26 27  2  0
 27 28  1  0
  6 29  1  0
 29 30  1  0
 29 31  2  0
 31  2  1  0
 22 12  1  0
 28 24  1  0
 21 16  1  0
  1 32  1  0
  1 33  1  0
  1 34  1  0
  3 35  1  0
  5 36  1  0
  5 37  1  0
  5 38  1  0
  7 39  1  0
 10 40  1  0
 10 41  1  0
 17 42  1  0
 18 43  1  0
 20 44  1  0
 21 45  1  0
 23 46  1  0
 23 47  1  0
 25 48  1  0
 26 49  1  0
 27 50  1  0
 31 51  1  0
M  END
$$$$
