
     RDKit          3D

 51 53  0  0  0  0  0  0  0  0999 V2000
    9.1069   -2.5764   -1.1127 C   0  0  0  0  0  0  0  0  0  0  0  0
    9.4180   -1.2407   -0.7373 O   0  0  0  0  0  0  0  0  0  0  0  0
    8.3668   -0.4134   -0.4510 C   0  0  0  0  0  0  0  0  0  0  0  0
    8.7310    0.8821   -0.0832 C   0  0  0  0  0  0  0  0  0  0  0  0
    7.7567    1.8263    0.2347 C   0  0  0  0  0  0  0  0  0  0  0  0
    6.4051    1.4804    0.1867 C   0  0  0  0  0  0  0  0  0  0  0  0
    6.0239    0.1890   -0.1797 C   0  0  0  0  0  0  0  0  0  0  0  0
    4.6853   -0.2337   -0.2513 N   0  0  0  0  0  0  0  0  0  0  0  0
    3.5468    0.4979    0.0106 C   0  0  0  0  0  0  0  0  0  0  0  0
    3.4330    1.6650    0.3604 O   0  0  0  0  0  0  0  0  0  0  0  0
    2.2692   -0.3366   -0.1855 C   0  0  0  0  0  0  0  0  0  0  0  0
    2.3691   -1.5051   -0.5371 O   0  0  0  0  0  0  0  0  0  0  0  0
    1.1274    0.3942    0.0783 N   0  0  0  0  0  0  0  0  0  0  0  0
   -0.1063   -0.1730   -0.0389 N   0  0  0  0  0  0  0  0  0  0  0  0
   -1.1041    0.6051    0.2319 C   0  0  0  0  0  0  0  0  0  0  0  0
   -2.4531    0.0811    0.1292 C   0  0  0  0  0  0  0  0  0  0  0  0
   -2.8341   -1.2261   -0.2552 C   0  0  0  0  0  0  0  0  0  0  0  0
   -4.2114   -1.3083   -0.2365 C   0  0  0  0  0  0  0  0  0  0  0  0
   -5.0405   -2.4714   -0.6666 C   0  0  0  0  0  0  0  0  0  0  0  0
   -4.7093   -0.0723    0.1622 N   0  0  0  0  0  0  0  0  0  0  0  0
   -6.0880    0.2730    0.2801 C   0  0  0  0  0  0  0  0  0  0  0  0
   -6.5562    1.4813   -0.2495 C   0  0  0  0  0  0  0  0  0  0  0  0
   -7.9090    1.8146   -0.1396 C   0  0  0  0  0  0  0  0  0  0  0  0
   -8.7994    0.9473    0.4997 C   0  0  0  0  0  0  0  0  0  0  0  0
  -10.4562    1.4260    0.5979 Cl  0  0  0  0  0  0  0  0  0  0  0  0
   -8.3328   -0.2601    1.0307 C   0  0  0  0  0  0  0  0  0  0  0  0
   -9.3727   -1.3761    1.8432 Cl  0  0  0  0  0  0  0  0  0  0  0  0
   -6.9790   -0.5976    0.9199 C   0  0  0  0  0  0  0  0  0  0  0  0
   -3.6254    0.7741    0.4138 C   0  0  0  0  0  0  0  0  0  0  0  0
   -3.7658    2.1525    0.9773 C   0  0  0  0  0  0  0  0  0  0  0  0
    7.0126   -0.7556   -0.4981 C   0  0  0  0  0  0  0  0  0  0  0  0
    8.5212   -2.6000   -2.0375 H   0  0  0  0  0  0  0  0  0  0  0  0
   10.0496   -3.0986   -1.3024 H   0  0  0  0  0  0  0  0  0  0  0  0
    8.5911   -3.1037   -0.3035 H   0  0  0  0  0  0  0  0  0  0  0  0
    9.7823    1.1571   -0.0440 H   0  0  0  0  0  0  0  0  0  0  0  0
    8.0492    2.8334    0.5205 H   0  0  0  0  0  0  0  0  0  0  0  0
    5.6761    2.2430    0.4411 H   0  0  0  0  0  0  0  0  0  0  0  0
    4.5036   -1.1971   -0.5289 H   0  0  0  0  0  0  0  0  0  0  0  0
    1.2403    1.3659    0.3633 H   0  0  0  0  0  0  0  0  0  0  0  0
   -0.9708    1.6575    0.5342 H   0  0  0  0  0  0  0  0  0  0  0  0
   -2.1600   -2.0250   -0.5446 H   0  0  0  0  0  0  0  0  0  0  0  0
   -4.4520   -3.1463   -1.2983 H   0  0  0  0  0  0  0  0  0  0  0  0
   -5.3791   -3.0478    0.1992 H   0  0  0  0  0  0  0  0  0  0  0  0
   -5.9069   -2.1574   -1.2563 H   0  0  0  0  0  0  0  0  0  0  0  0
   -5.8951    2.1556   -0.7887 H   0  0  0  0  0  0  0  0  0  0  0  0
   -8.2650    2.7506   -0.5646 H   0  0  0  0  0  0  0  0  0  0  0  0
   -6.6259   -1.5203    1.3734 H   0  0  0  0  0  0  0  0  0  0  0  0
   -3.8600    2.8876    0.1726 H   0  0  0  0  0  0  0  0  0  0  0  0
   -4.6267    2.2373    1.6471 H   0  0  0  0  0  0  0  0  0  0  0  0
   -2.8880    2.4215    1.5736 H   0  0  0  0  0  0  0  0  0  0  0  0
    6.7079   -1.7570   -0.7819 H   0  0  0  0  0  0  0  0  0  0  0  0
  1  2  1  0
  2  3  1  0
  3  4  2  0
  4  5  1  0
  5  6  2  0
  6  7  1  0
  7  8  1  0
  8  9  1  0
  9 10  2  0
  9 11  1  0
 11 12  2  0
 11 13  1  0
 13 14  1  0
 14 15  2  3
 15 16  1  0
 16 17  1  0
 17 18  2  0
 18 19  1  0
 18 20  1  0
 20 21  1  0
 21 22  2  0
 22 23  1  0
 23 24  2  0
 24 25  1  0
 24 26  1  0
 26 27  1  0
 26 28  2  0
 20 29  1  0
 29 30  1  0
  7 31  2  0
 31  3  1  0
 29 16  2  0
 28 21  1  0
  1 32  1  0
  1 33  1  0
  1 34  1  0
  4 35  1  0
  5 36  1  0
  6 37  1  0
  8 38  1  0
 13 39  1  0
 15 40  1  0
 17 41  1  0
 19 42  1  0
 19 43  1  0
 19 44  1  0
 22 45  1  0
 23 46  1  0
 28 47  1  0
 30 48  1  0
 30 49  1  0
 30 50  1  0
 31 51  1  0
M  END
$$$$
