
     RDKit          3D

 38 38  0  0  0  0  0  0  0  0999 V2000
    5.8997    1.9796    3.2604 C   0  0  0  0  0  0  0  0  0  0  0  0
    5.1902    2.9832    2.5444 O   0  0  0  0  0  0  0  0  0  0  0  0
    3.9496    2.5112    2.0156 C   0  0  0  0  0  0  0  0  0  0  0  0
    4.1480    1.7504    0.7009 C   0  0  0  0  0  0  0  0  0  0  0  0
    2.8959    1.4132    0.0459 N   0  0  0  0  0  0  0  0  0  0  0  0
    2.1116    0.3746    0.4976 C   0  0  0  0  0  0  0  0  0  0  0  0
    2.4346   -0.3068    1.4680 O   0  0  0  0  0  0  0  0  0  0  0  0
    0.8374    0.1242   -0.2526 C   0  0  0  0  0  0  0  0  0  0  0  0
    0.5127    0.9174   -1.3857 C   0  0  0  0  0  0  0  0  0  0  0  0
    0.2935    1.6007   -2.2984 N   0  0  0  0  0  0  0  0  0  0  0  0
    0.0535   -0.8838    0.1821 C   0  0  0  0  0  0  0  0  0  0  0  0
   -1.2146   -1.3188   -0.3954 C   0  0  0  0  0  0  0  0  0  0  0  0
   -1.2218   -2.7606   -0.8353 C   0  0  0  0  0  0  0  0  0  0  0  0
   -2.2641   -0.4782   -0.4771 C   0  0  0  0  0  0  0  0  0  0  0  0
   -3.5725   -0.8239   -1.0359 C   0  0  0  0  0  0  0  0  0  0  0  0
   -3.8898   -0.4447   -2.3442 C   0  0  0  0  0  0  0  0  0  0  0  0
   -5.1345   -0.7705   -2.8858 C   0  0  0  0  0  0  0  0  0  0  0  0
   -6.0654   -1.4744   -2.1224 C   0  0  0  0  0  0  0  0  0  0  0  0
   -5.7541   -1.8531   -0.8168 C   0  0  0  0  0  0  0  0  0  0  0  0
   -4.5100   -1.5284   -0.2730 C   0  0  0  0  0  0  0  0  0  0  0  0
    6.1852    1.1557    2.6011 H   0  0  0  0  0  0  0  0  0  0  0  0
    5.2994    1.6057    4.0954 H   0  0  0  0  0  0  0  0  0  0  0  0
    6.8115    2.4288    3.6637 H   0  0  0  0  0  0  0  0  0  0  0  0
    3.4150    1.9112    2.7613 H   0  0  0  0  0  0  0  0  0  0  0  0
    3.3321    3.3962    1.8239 H   0  0  0  0  0  0  0  0  0  0  0  0
    4.7118    0.8271    0.8725 H   0  0  0  0  0  0  0  0  0  0  0  0
    4.7343    2.3560    0.0011 H   0  0  0  0  0  0  0  0  0  0  0  0
    2.6122    1.9970   -0.7327 H   0  0  0  0  0  0  0  0  0  0  0  0
    0.3786   -1.4877    1.0312 H   0  0  0  0  0  0  0  0  0  0  0  0
   -2.1534   -3.0577   -1.3249 H   0  0  0  0  0  0  0  0  0  0  0  0
   -1.0763   -3.4230    0.0251 H   0  0  0  0  0  0  0  0  0  0  0  0
   -0.4128   -2.9435   -1.5516 H   0  0  0  0  0  0  0  0  0  0  0  0
   -2.1982    0.5485   -0.1222 H   0  0  0  0  0  0  0  0  0  0  0  0
   -3.1704    0.1040   -2.9483 H   0  0  0  0  0  0  0  0  0  0  0  0
   -5.3771   -0.4746   -3.9031 H   0  0  0  0  0  0  0  0  0  0  0  0
   -7.0344   -1.7272   -2.5452 H   0  0  0  0  0  0  0  0  0  0  0  0
   -6.4803   -2.4007   -0.2219 H   0  0  0  0  0  0  0  0  0  0  0  0
   -4.2770   -1.8274    0.7460 H   0  0  0  0  0  0  0  0  0  0  0  0
  1  2  1  0
  2  3  1  0
  3  4  1  0
  4  5  1  0
  5  6  1  0
  6  7  2  0
  6  8  1  0
  8  9  1  0
  9 10  3  0
  8 11  2  3
 11 12  1  0
 12 13  1  0
 12 14  2  3
 14 15  1  0
 15 16  2  0
 16 17  1  0
 17 18  2  0
 18 19  1  0
 19 20  2  0
 20 15  1  0
  1 21  1  0
  1 22  1  0
  1 23  1  0
  3 24  1  0
  3 25  1  0
  4 26  1  0
  4 27  1  0
  5 28  1  0
 11 29  1  0
 13 30  1  0
 13 31  1  0
 13 32  1  0
 14 33  1  0
 16 34  1  0
 17 35  1  0
 18 36  1  0
 19 37  1  0
 20 38  1  0
M  END
$$$$
