
     RDKit          3D

 46 48  0  0  0  0  0  0  0  0999 V2000
    4.3646    0.1521   -1.3509 C   0  0  0  0  0  0  0  0  0  0  0  0
    3.5259    0.4951   -2.5718 C   0  0  0  0  0  0  0  0  0  0  0  0
    2.0418    0.0638   -2.4557 N   0  0  0  0  0  4  0  0  0  0  0  0
    1.9473   -1.4566   -2.3149 C   0  0  0  0  0  0  0  0  0  0  0  0
    1.3648    0.4706   -3.7708 C   0  0  0  0  0  0  0  0  0  0  0  0
    1.3777    0.7808   -1.2550 C   0  0  0  0  0  0  0  0  0  0  0  0
   -0.1480    0.6191   -1.1925 C   0  0  0  0  0  0  0  0  0  0  0  0
   -0.7159    1.1568    0.0980 C   0  0  0  0  0  0  0  0  0  0  0  0
   -1.2840    0.4731    1.1193 C   0  0  0  0  0  0  0  0  0  0  0  0
   -2.0082    1.2593    2.1567 C   0  0  0  0  0  0  0  0  0  0  0  0
   -1.4317    2.3693    2.7933 C   0  0  0  0  0  0  0  0  0  0  0  0
   -2.1462    3.0782    3.7611 C   0  0  0  0  0  0  0  0  0  0  0  0
   -3.4366    2.6829    4.1067 C   0  0  0  0  0  0  0  0  0  0  0  0
   -4.0146    1.5701    3.4946 C   0  0  0  0  0  0  0  0  0  0  0  0
   -3.3046    0.8469    2.5290 C   0  0  0  0  0  0  0  0  0  0  0  0
   -4.0911   -0.5884    1.7898 S   0  0  0  0  0  0  0  0  0  0  0  0
   -2.6589   -1.5883    1.3919 C   0  0  0  0  0  0  0  0  0  0  0  0
   -2.8000   -2.9823    1.3740 C   0  0  0  0  0  0  0  0  0  0  0  0
   -1.6970   -3.8005    1.1193 C   0  0  0  0  0  0  0  0  0  0  0  0
   -0.4485   -3.2244    0.9079 C   0  0  0  0  0  0  0  0  0  0  0  0
    0.9214   -4.2167    0.5952 Cl  0  0  0  0  0  0  0  0  0  0  0  0
   -0.2936   -1.8392    0.9292 C   0  0  0  0  0  0  0  0  0  0  0  0
   -1.4048   -1.0073    1.1206 C   0  0  0  0  0  0  0  0  0  0  0  0
    4.0207    0.6740   -0.4540 H   0  0  0  0  0  0  0  0  0  0  0  0
    5.4004    0.4635   -1.5242 H   0  0  0  0  0  0  0  0  0  0  0  0
    4.3813   -0.9220   -1.1486 H   0  0  0  0  0  0  0  0  0  0  0  0
    3.9363   -0.0012   -3.4590 H   0  0  0  0  0  0  0  0  0  0  0  0
    3.5316    1.5775   -2.7450 H   0  0  0  0  0  0  0  0  0  0  0  0
    0.9059   -1.7615   -2.4448 H   0  0  0  0  0  0  0  0  0  0  0  0
    2.5661   -1.9138   -3.0925 H   0  0  0  0  0  0  0  0  0  0  0  0
    2.2997   -1.7415   -1.3210 H   0  0  0  0  0  0  0  0  0  0  0  0
    1.3705    1.5623   -3.8368 H   0  0  0  0  0  0  0  0  0  0  0  0
    1.9284    0.0312   -4.5997 H   0  0  0  0  0  0  0  0  0  0  0  0
    0.3420    0.0851   -3.7799 H   0  0  0  0  0  0  0  0  0  0  0  0
    1.8398    0.3744   -0.3494 H   0  0  0  0  0  0  0  0  0  0  0  0
    1.6419    1.8423   -1.3350 H   0  0  0  0  0  0  0  0  0  0  0  0
   -0.4478   -0.4184   -1.3529 H   0  0  0  0  0  0  0  0  0  0  0  0
   -0.6117    1.1893   -2.0068 H   0  0  0  0  0  0  0  0  0  0  0  0
   -0.7462    2.2482    0.1294 H   0  0  0  0  0  0  0  0  0  0  0  0
   -0.4209    2.6875    2.5537 H   0  0  0  0  0  0  0  0  0  0  0  0
   -1.6956    3.9385    4.2511 H   0  0  0  0  0  0  0  0  0  0  0  0
   -3.9924    3.2362    4.8606 H   0  0  0  0  0  0  0  0  0  0  0  0
   -5.0194    1.2688    3.7836 H   0  0  0  0  0  0  0  0  0  0  0  0
   -3.7675   -3.4411    1.5715 H   0  0  0  0  0  0  0  0  0  0  0  0
   -1.8197   -4.8811    1.1095 H   0  0  0  0  0  0  0  0  0  0  0  0
    0.6965   -1.4126    0.8152 H   0  0  0  0  0  0  0  0  0  0  0  0
  1  2  1  0
  2  3  1  0
  3  4  1  0
  3  5  1  0
  3  6  1  0
  6  7  1  0
  7  8  1  0
  8  9  2  3
  9 10  1  0
 10 11  2  0
 11 12  1  0
 12 13  2  0
 13 14  1  0
 14 15  2  0
 15 16  1  0
 16 17  1  0
 17 18  2  0
 18 19  1  0
 19 20  2  0
 20 21  1  0
 20 22  1  0
 22 23  2  0
 23  9  1  0
 15 10  1  0
 23 17  1  0
  1 24  1  0
  1 25  1  0
  1 26  1  0
  2 27  1  0
  2 28  1  0
  4 29  1  0
  4 30  1  0
  4 31  1  0
  5 32  1  0
  5 33  1  0
  5 34  1  0
  6 35  1  0
  6 36  1  0
  7 37  1  0
  7 38  1  0
  8 39  1  0
 11 40  1  0
 12 41  1  0
 13 42  1  0
 14 43  1  0
 18 44  1  0
 19 45  1  0
 22 46  1  0
M  CHG  1   3   1
M  END
$$$$
