
     RDKit          3D

 51 55  0  0  0  0  0  0  0  0999 V2000
    5.7718   -0.9798    1.6144 F   0  0  0  0  0  0  0  0  0  0  0  0
    5.8136    0.2613    1.1093 C   0  0  0  0  0  0  0  0  0  0  0  0
    6.7961    1.1356    1.5663 C   0  0  0  0  0  0  0  0  0  0  0  0
    6.8530    2.4331    1.0541 C   0  0  0  0  0  0  0  0  0  0  0  0
    5.9255    2.8437    0.0912 C   0  0  0  0  0  0  0  0  0  0  0  0
    4.9392    1.9592   -0.3566 C   0  0  0  0  0  0  0  0  0  0  0  0
    4.8767    0.6538    0.1451 C   0  0  0  0  0  0  0  0  0  0  0  0
    3.8051   -0.3065   -0.3112 C   0  0  0  0  0  0  0  0  0  0  0  0
    2.5551   -0.2221    0.5811 C   0  0  0  0  0  0  0  0  0  0  0  0
    1.5483   -1.2546    0.2703 N   0  0  0  0  0  0  0  0  0  0  0  0
    0.5042   -1.2765    1.3248 C   0  0  0  0  0  0  0  0  0  0  0  0
   -0.5988   -2.3230    1.0475 C   0  0  0  0  0  0  0  0  0  0  0  0
   -1.2360   -2.0706   -0.2609 N   0  0  0  0  0  0  0  0  0  0  0  0
   -2.3037   -1.1815   -0.3204 C   0  0  0  0  0  0  0  0  0  0  0  0
   -2.2003   -0.1092   -1.0602 N   0  0  0  0  0  0  0  0  0  0  0  0
   -3.2496    0.8320   -1.1105 C   0  0  0  0  0  0  0  0  0  0  0  0
   -3.0832    1.9720   -1.9015 C   0  0  0  0  0  0  0  0  0  0  0  0
   -4.0880    2.9404   -1.9792 C   0  0  0  0  0  0  0  0  0  0  0  0
   -5.2733    2.7761   -1.2623 C   0  0  0  0  0  0  0  0  0  0  0  0
   -5.4624    1.6457   -0.4658 C   0  0  0  0  0  0  0  0  0  0  0  0
   -4.4488    0.6872   -0.3978 C   0  0  0  0  0  0  0  0  0  0  0  0
   -4.5623   -0.4850    0.3652 N   0  0  0  0  0  0  0  0  0  0  0  0
   -5.6080   -0.9280    1.1407 C   0  0  0  0  0  0  0  0  0  0  0  0
   -5.2775   -2.1701    1.6374 C   0  0  0  0  0  0  0  0  0  0  0  0
   -3.9836   -2.4815    1.1588 C   0  0  0  0  0  0  0  0  0  0  0  0
   -3.5443   -1.4086    0.4038 C   0  0  0  0  0  0  0  0  0  0  0  0
   -0.2245   -2.0410   -1.3389 C   0  0  0  0  0  0  0  0  0  0  0  0
    0.8995   -1.0219   -1.0442 C   0  0  0  0  0  0  0  0  0  0  0  0
    7.5056    0.8023    2.3165 H   0  0  0  0  0  0  0  0  0  0  0  0
    7.6175    3.1227    1.4045 H   0  0  0  0  0  0  0  0  0  0  0  0
    5.9692    3.8544   -0.3080 H   0  0  0  0  0  0  0  0  0  0  0  0
    4.2229    2.2949   -1.1048 H   0  0  0  0  0  0  0  0  0  0  0  0
    4.2045   -1.3294   -0.3015 H   0  0  0  0  0  0  0  0  0  0  0  0
    3.5559   -0.0867   -1.3577 H   0  0  0  0  0  0  0  0  0  0  0  0
    2.8788   -0.3551    1.6230 H   0  0  0  0  0  0  0  0  0  0  0  0
    2.1157    0.7831    0.5196 H   0  0  0  0  0  0  0  0  0  0  0  0
    0.0429   -0.2835    1.4254 H   0  0  0  0  0  0  0  0  0  0  0  0
    0.9662   -1.5245    2.2878 H   0  0  0  0  0  0  0  0  0  0  0  0
   -1.3248   -2.2958    1.8673 H   0  0  0  0  0  0  0  0  0  0  0  0
   -0.1651   -3.3322    1.0442 H   0  0  0  0  0  0  0  0  0  0  0  0
   -2.1609    2.1014   -2.4611 H   0  0  0  0  0  0  0  0  0  0  0  0
   -3.9441    3.8211   -2.6017 H   0  0  0  0  0  0  0  0  0  0  0  0
   -6.0524    3.5313   -1.3278 H   0  0  0  0  0  0  0  0  0  0  0  0
   -6.3939    1.5379    0.0789 H   0  0  0  0  0  0  0  0  0  0  0  0
   -6.5105   -0.3494    1.2672 H   0  0  0  0  0  0  0  0  0  0  0  0
   -5.9062   -2.7883    2.2651 H   0  0  0  0  0  0  0  0  0  0  0  0
   -3.4292   -3.3950    1.3396 H   0  0  0  0  0  0  0  0  0  0  0  0
    0.2136   -3.0454   -1.4311 H   0  0  0  0  0  0  0  0  0  0  0  0
   -0.6897   -1.8213   -2.3077 H   0  0  0  0  0  0  0  0  0  0  0  0
    0.5007   -0.0021   -1.0933 H   0  0  0  0  0  0  0  0  0  0  0  0
    1.6396   -1.1206   -1.8454 H   0  0  0  0  0  0  0  0  0  0  0  0
  1  2  1  0
  2  3  2  0
  3  4  1  0
  4  5  2  0
  5  6  1  0
  6  7  2  0
  7  8  1  0
  8  9  1  0
  9 10  1  0
 10 11  1  0
 11 12  1  0
 12 13  1  0
 13 14  1  0
 14 15  2  0
 15 16  1  0
 16 17  2  0
 17 18  1  0
 18 19  2  0
 19 20  1  0
 20 21  2  0
 21 22  1  0
 22 23  1  0
 23 24  2  0
 24 25  1  0
 25 26  2  0
 13 27  1  0
 27 28  1  0
  7  2  1  0
 28 10  1  0
 26 14  1  0
 21 16  1  0
 26 22  1  0
  3 29  1  0
  4 30  1  0
  5 31  1  0
  6 32  1  0
  8 33  1  0
  8 34  1  0
  9 35  1  0
  9 36  1  0
 11 37  1  0
 11 38  1  0
 12 39  1  0
 12 40  1  0
 17 41  1  0
 18 42  1  0
 19 43  1  0
 20 44  1  0
 23 45  1  0
 24 46  1  0
 25 47  1  0
 27 48  1  0
 27 49  1  0
 28 50  1  0
 28 51  1  0
M  END
$$$$
