
     RDKit          3D

 37 39  0  0  0  0  0  0  0  0999 V2000
    5.0735    1.5523    2.7323 O   0  0  0  0  0  0  0  0  0  0  0  0
    5.7815    0.6537    1.8839 C   0  0  0  0  0  0  0  0  0  0  0  0
    5.2760    0.7926    0.4491 C   0  0  0  0  0  0  0  0  0  0  0  0
    3.8683    0.3192    0.3650 N   0  0  0  0  0  4  0  0  0  0  0  0
    3.6012   -0.9364   -0.0587 C   0  0  0  0  0  0  0  0  0  0  0  0
    2.2902   -1.3908   -0.1495 C   0  0  0  0  0  0  0  0  0  0  0  0
    1.2384   -0.5411    0.1869 C   0  0  0  0  0  0  0  0  0  0  0  0
   -0.1388   -1.0400    0.1099 C   0  0  0  0  0  0  0  0  0  0  0  0
   -1.1632   -0.3236   -0.3847 C   0  0  0  0  0  0  0  0  0  0  0  0
   -2.5222   -0.7596   -0.4886 C   0  0  0  0  0  0  0  0  0  0  0  0
   -3.0360   -1.9509   -0.0220 C   0  0  0  0  0  0  0  0  0  0  0  0
   -4.3753   -1.9789   -0.3153 N   0  0  0  0  0  0  0  0  0  0  0  0
   -4.7459   -0.8249   -0.9653 C   0  0  0  0  0  0  0  0  0  0  0  0
   -5.9999   -0.4285   -1.4458 C   0  0  0  0  0  0  0  0  0  0  0  0
   -6.0900    0.8153   -2.0759 C   0  0  0  0  0  0  0  0  0  0  0  0
   -4.9695    1.6285   -2.2188 C   0  0  0  0  0  0  0  0  0  0  0  0
   -3.7227    1.2171   -1.7323 C   0  0  0  0  0  0  0  0  0  0  0  0
   -3.6011   -0.0350   -1.0902 C   0  0  0  0  0  0  0  0  0  0  0  0
    1.5375    0.7433    0.6374 C   0  0  0  0  0  0  0  0  0  0  0  0
    2.8628    1.1555    0.7149 C   0  0  0  0  0  0  0  0  0  0  0  0
    5.4825    1.5077    3.6197 H   0  0  0  0  0  0  0  0  0  0  0  0
    5.6370   -0.3642    2.2584 H   0  0  0  0  0  0  0  0  0  0  0  0
    6.8452    0.9063    1.9295 H   0  0  0  0  0  0  0  0  0  0  0  0
    5.8784    0.1975   -0.2447 H   0  0  0  0  0  0  0  0  0  0  0  0
    5.2826    1.8361    0.1147 H   0  0  0  0  0  0  0  0  0  0  0  0
    4.4413   -1.5724   -0.3220 H   0  0  0  0  0  0  0  0  0  0  0  0
    2.0957   -2.4050   -0.4943 H   0  0  0  0  0  0  0  0  0  0  0  0
   -0.2973   -2.0570    0.4613 H   0  0  0  0  0  0  0  0  0  0  0  0
   -0.9675    0.6783   -0.7607 H   0  0  0  0  0  0  0  0  0  0  0  0
   -2.5836   -2.7853    0.4955 H   0  0  0  0  0  0  0  0  0  0  0  0
   -5.0082   -2.7339   -0.0882 H   0  0  0  0  0  0  0  0  0  0  0  0
   -6.8765   -1.0593   -1.3371 H   0  0  0  0  0  0  0  0  0  0  0  0
   -7.0509    1.1513   -2.4602 H   0  0  0  0  0  0  0  0  0  0  0  0
   -5.0634    2.5923   -2.7135 H   0  0  0  0  0  0  0  0  0  0  0  0
   -2.8607    1.8646   -1.8548 H   0  0  0  0  0  0  0  0  0  0  0  0
    0.7486    1.4275    0.9443 H   0  0  0  0  0  0  0  0  0  0  0  0
    3.1320    2.1478    1.0676 H   0  0  0  0  0  0  0  0  0  0  0  0
  1  2  1  0
  2  3  1  0
  3  4  1  0
  4  5  2  0
  5  6  1  0
  6  7  2  0
  7  8  1  0
  8  9  2  3
  9 10  1  0
 10 11  2  0
 11 12  1  0
 12 13  1  0
 13 14  2  0
 14 15  1  0
 15 16  2  0
 16 17  1  0
 17 18  2  0
  7 19  1  0
 19 20  2  0
 20  4  1  0
 18 10  1  0
 18 13  1  0
  1 21  1  0
  2 22  1  0
  2 23  1  0
  3 24  1  0
  3 25  1  0
  5 26  1  0
  6 27  1  0
  8 28  1  0
  9 29  1  0
 11 30  1  0
 12 31  1  0
 14 32  1  0
 15 33  1  0
 16 34  1  0
 17 35  1  0
 19 36  1  0
 20 37  1  0
M  CHG  1   4   1
M  END
$$$$
