
     RDKit          3D

 36 37  0  0  0  0  0  0  0  0999 V2000
   -0.2284   -1.2355   -2.2377 O   0  0  0  0  0  0  0  0  0  0  0  0
   -0.4561   -1.7758   -1.1573 C   0  0  0  0  0  0  0  0  0  0  0  0
    0.6602   -2.2940   -0.2445 C   0  0  0  0  0  0  0  0  0  0  0  0
    1.8404   -1.4909   -0.3053 O   0  0  0  0  0  0  0  0  0  0  0  0
    1.6520   -0.2000    0.0649 C   0  0  0  0  0  0  0  0  0  0  0  0
    0.6202    0.3123    0.4716 O   0  0  0  0  0  0  0  0  0  0  0  0
    2.8927    0.5436   -0.1819 C   0  0  0  0  0  0  0  0  0  0  0  0
    2.8872    1.4632   -1.2388 C   0  0  0  0  0  0  0  0  0  0  0  0
    4.0376    2.1998   -1.5215 C   0  0  0  0  0  0  0  0  0  0  0  0
    5.1853    2.0218   -0.7482 C   0  0  0  0  0  0  0  0  0  0  0  0
    5.1848    1.1123    0.3130 C   0  0  0  0  0  0  0  0  0  0  0  0
    4.0373    0.3696    0.6018 C   0  0  0  0  0  0  0  0  0  0  0  0
    4.0931   -0.8127    2.0839 Br  0  0  0  0  0  0  0  0  0  0  0  0
   -1.7309   -1.9135   -0.6401 N   0  0  0  0  0  0  0  0  0  0  0  0
   -2.8254   -1.1565   -1.2291 C   0  0  0  0  0  0  0  0  0  0  0  0
   -2.8272    0.3072   -0.7539 C   0  0  0  0  0  0  0  0  0  0  0  0
   -3.4020    0.4666    0.5745 N   0  0  0  0  0  0  0  0  0  0  0  0
   -2.7930    0.1296    1.7603 C   0  0  0  0  0  0  0  0  0  0  0  0
   -1.5190   -0.3485    1.8037 O   0  0  0  0  0  0  0  0  0  0  0  0
   -3.5675    0.2487    2.8423 C   0  0  0  0  0  0  0  0  0  0  0  0
   -5.1520    0.8159    2.4322 S   0  0  0  0  0  0  0  0  0  0  0  0
   -4.7367    0.8384    0.7088 C   0  0  0  0  0  0  0  0  0  0  0  0
   -5.5306    1.1152   -0.1741 O   0  0  0  0  0  0  0  0  0  0  0  0
    0.3262   -2.3743    0.7962 H   0  0  0  0  0  0  0  0  0  0  0  0
    0.9238   -3.3005   -0.5869 H   0  0  0  0  0  0  0  0  0  0  0  0
    1.9933    1.5987   -1.8452 H   0  0  0  0  0  0  0  0  0  0  0  0
    4.0407    2.9104   -2.3455 H   0  0  0  0  0  0  0  0  0  0  0  0
    6.0821    2.5970   -0.9694 H   0  0  0  0  0  0  0  0  0  0  0  0
    6.0846    1.0011    0.9133 H   0  0  0  0  0  0  0  0  0  0  0  0
   -1.8134   -2.1079    0.3535 H   0  0  0  0  0  0  0  0  0  0  0  0
   -3.7576   -1.6643   -0.9628 H   0  0  0  0  0  0  0  0  0  0  0  0
   -2.7188   -1.1857   -2.3195 H   0  0  0  0  0  0  0  0  0  0  0  0
   -3.4310    0.8911   -1.4592 H   0  0  0  0  0  0  0  0  0  0  0  0
   -1.8236    0.7451   -0.7617 H   0  0  0  0  0  0  0  0  0  0  0  0
   -0.9608    0.1638    1.1775 H   0  0  0  0  0  0  0  0  0  0  0  0
   -3.2675    0.0087    3.8529 H   0  0  0  0  0  0  0  0  0  0  0  0
  1  2  2  0
  2  3  1  0
  3  4  1  0
  4  5  1  0
  5  6  2  0
  5  7  1  0
  7  8  2  0
  8  9  1  0
  9 10  2  0
 10 11  1  0
 11 12  2  0
 12 13  1  0
  2 14  1  0
 14 15  1  0
 15 16  1  0
 16 17  1  0
 17 18  1  0
 18 19  1  0
 18 20  2  0
 20 21  1  0
 21 22  1  0
 22 23  2  0
 12  7  1  0
 22 17  1  0
  3 24  1  0
  3 25  1  0
  8 26  1  0
  9 27  1  0
 10 28  1  0
 11 29  1  0
 14 30  1  0
 15 31  1  0
 15 32  1  0
 16 33  1  0
 16 34  1  0
 19 35  1  0
 20 36  1  0
M  END
$$$$
