
     RDKit          3D

 58 62  0  0  0  0  0  0  0  0999 V2000
    8.6096    2.4415    0.9078 C   0  0  0  0  0  0  0  0  0  0  0  0
    7.9838    1.1666    0.9412 O   0  0  0  0  0  0  0  0  0  0  0  0
    6.6434    1.1328    0.6718 C   0  0  0  0  0  0  0  0  0  0  0  0
    6.1021   -0.1504    0.5635 C   0  0  0  0  0  0  0  0  0  0  0  0
    4.7473   -0.3308    0.2781 C   0  0  0  0  0  0  0  0  0  0  0  0
    3.9125    0.7770    0.0954 C   0  0  0  0  0  0  0  0  0  0  0  0
    2.4485    0.5872   -0.2155 C   0  0  0  0  0  0  0  0  0  0  0  0
    1.5875    0.5343    1.0514 C   0  0  0  0  0  0  0  0  0  0  0  0
    0.1848    0.2307    0.6999 N   0  0  0  0  0  0  0  0  0  0  0  0
   -0.6572    1.2911    0.3343 C   0  0  0  0  0  0  0  0  0  0  0  0
   -0.2019    2.5140    0.3730 N   0  0  0  0  0  0  0  0  0  0  0  0
   -2.0815    1.0068   -0.1128 C   0  0  0  0  0  0  0  0  0  0  0  0
   -3.0114    2.1125   -0.5121 C   0  0  0  0  0  0  0  0  0  0  0  0
   -2.6270    3.2829   -0.5003 O   0  0  0  0  0  0  0  0  0  0  0  0
   -4.2937    1.7771   -0.8725 N   0  0  0  0  0  0  0  0  0  0  0  0
   -5.2627    2.8118   -1.1617 C   0  0  0  0  0  0  0  0  0  0  0  0
   -6.4655    2.1720   -1.7437 C   0  0  0  0  0  0  0  0  0  0  0  0
   -6.9256    2.0054   -3.0344 C   0  0  0  0  0  0  0  0  0  0  0  0
   -8.1484    1.2942   -2.9325 C   0  0  0  0  0  0  0  0  0  0  0  0
   -8.3523    1.0660   -1.5896 C   0  0  0  0  0  0  0  0  0  0  0  0
   -7.3326    1.5888   -0.8619 O   0  0  0  0  0  0  0  0  0  0  0  0
   -2.4107   -0.2973   -0.1566 C   0  0  0  0  0  0  0  0  0  0  0  0
   -1.4981   -1.3699    0.2186 C   0  0  0  0  0  0  0  0  0  0  0  0
   -1.9643   -2.7849    0.1495 C   0  0  0  0  0  0  0  0  0  0  0  0
   -3.1165   -3.0297   -0.2172 O   0  0  0  0  0  0  0  0  0  0  0  0
   -1.0423   -3.7494    0.5138 N   0  0  0  0  0  0  0  0  0  0  0  0
   -1.4034   -5.0921    0.4810 C   0  0  0  0  0  0  0  0  0  0  0  0
   -0.5443   -6.0612    0.8208 C   0  0  0  0  0  0  0  0  0  0  0  0
    0.7918   -5.7223    1.2323 C   0  0  0  0  0  0  0  0  0  0  0  0
    1.1813   -4.4431    1.2786 C   0  0  0  0  0  0  0  0  0  0  0  0
    0.2264   -3.3619    0.9019 C   0  0  0  0  0  0  0  0  0  0  0  0
    0.6299   -2.1343    0.9573 N   0  0  0  0  0  0  0  0  0  0  0  0
   -0.2349   -1.1159    0.6256 C   0  0  0  0  0  0  0  0  0  0  0  0
    4.4520    2.0630    0.2243 C   0  0  0  0  0  0  0  0  0  0  0  0
    5.8103    2.2402    0.5098 C   0  0  0  0  0  0  0  0  0  0  0  0
    8.4717    2.9282   -0.0624 H   0  0  0  0  0  0  0  0  0  0  0  0
    9.6827    2.2882    1.0509 H   0  0  0  0  0  0  0  0  0  0  0  0
    8.2513    3.0783    1.7229 H   0  0  0  0  0  0  0  0  0  0  0  0
    6.7439   -1.0178    0.6959 H   0  0  0  0  0  0  0  0  0  0  0  0
    4.3503   -1.3402    0.1948 H   0  0  0  0  0  0  0  0  0  0  0  0
    2.3227   -0.3330   -0.8019 H   0  0  0  0  0  0  0  0  0  0  0  0
    2.1104    1.3977   -0.8749 H   0  0  0  0  0  0  0  0  0  0  0  0
    1.9811   -0.2144    1.7516 H   0  0  0  0  0  0  0  0  0  0  0  0
    1.6572    1.4816    1.6025 H   0  0  0  0  0  0  0  0  0  0  0  0
   -0.9374    3.1802    0.0735 H   0  0  0  0  0  0  0  0  0  0  0  0
   -4.6750    0.8605   -0.6813 H   0  0  0  0  0  0  0  0  0  0  0  0
   -4.8228    3.5420   -1.8502 H   0  0  0  0  0  0  0  0  0  0  0  0
   -5.5068    3.3267   -0.2250 H   0  0  0  0  0  0  0  0  0  0  0  0
   -6.4386    2.3529   -3.9346 H   0  0  0  0  0  0  0  0  0  0  0  0
   -8.8032    0.9829   -3.7363 H   0  0  0  0  0  0  0  0  0  0  0  0
   -9.1316    0.5723   -1.0191 H   0  0  0  0  0  0  0  0  0  0  0  0
   -3.3860   -0.6314   -0.4931 H   0  0  0  0  0  0  0  0  0  0  0  0
   -2.4181   -5.3244    0.1663 H   0  0  0  0  0  0  0  0  0  0  0  0
   -0.8342   -7.1066    0.7931 H   0  0  0  0  0  0  0  0  0  0  0  0
    1.4710   -6.5243    1.5041 H   0  0  0  0  0  0  0  0  0  0  0  0
    2.1765   -4.1456    1.5852 H   0  0  0  0  0  0  0  0  0  0  0  0
    3.8159    2.9382    0.0992 H   0  0  0  0  0  0  0  0  0  0  0  0
    6.1822    3.2552    0.5993 H   0  0  0  0  0  0  0  0  0  0  0  0
  1  2  1  0
  2  3  1  0
  3  4  2  0
  4  5  1  0
  5  6  2  0
  6  7  1  0
  7  8  1  0
  8  9  1  0
  9 10  1  0
 10 11  2  3
 10 12  1  0
 12 13  1  0
 13 14  2  0
 13 15  1  0
 15 16  1  0
 16 17  1  0
 17 18  2  0
 18 19  1  0
 19 20  2  0
 20 21  1  0
 12 22  2  0
 22 23  1  0
 23 24  1  0
 24 25  2  0
 24 26  1  0
 26 27  1  0
 27 28  2  0
 28 29  1  0
 29 30  2  0
 30 31  1  0
 31 32  2  0
 32 33  1  0
  6 34  1  0
 34 35  2  0
 35  3  1  0
 33  9  1  0
 21 17  1  0
 33 23  2  0
 31 26  1  0
  1 36  1  0
  1 37  1  0
  1 38  1  0
  4 39  1  0
  5 40  1  0
  7 41  1  0
  7 42  1  0
  8 43  1  0
  8 44  1  0
 11 45  1  0
 15 46  1  0
 16 47  1  0
 16 48  1  0
 18 49  1  0
 19 50  1  0
 20 51  1  0
 22 52  1  0
 27 53  1  0
 28 54  1  0
 29 55  1  0
 30 56  1  0
 34 57  1  0
 35 58  1  0
M  END
$$$$
