
     RDKit          3D

 35 35  0  0  0  0  0  0  0  0999 V2000
   -4.5923   -0.2243   -1.4194 C   0  0  0  0  0  0  0  0  0  0  0  0
   -3.2535   -0.6177   -0.7800 C   0  0  0  0  0  0  0  0  0  0  0  0
   -3.4986   -1.4677    0.4729 C   0  0  0  0  0  0  0  0  0  0  0  0
   -2.3944    0.5730   -0.5839 N   0  0  0  0  0  0  0  0  0  0  0  0
   -2.8622    1.4655    0.4805 C   0  0  0  0  0  0  0  0  0  0  0  0
   -0.9841    0.1883   -0.3690 C   0  0  0  0  0  0  0  0  0  0  0  0
    0.0123    1.3439   -0.5684 C   0  0  0  0  0  0  0  0  0  0  0  0
    1.3664    0.8538   -0.5467 O   0  0  0  0  0  0  0  0  0  0  0  0
    1.8802    0.6413    0.6898 C   0  0  0  0  0  0  0  0  0  0  0  0
    1.3289    0.8354    1.7580 O   0  0  0  0  0  0  0  0  0  0  0  0
    3.2458    0.1107    0.5345 C   0  0  0  0  0  0  0  0  0  0  0  0
    4.1878    0.8915   -0.1532 C   0  0  0  0  0  0  0  0  0  0  0  0
    5.4991    0.4381   -0.2985 C   0  0  0  0  0  0  0  0  0  0  0  0
    5.8730   -0.7915    0.2414 C   0  0  0  0  0  0  0  0  0  0  0  0
    4.9367   -1.5722    0.9239 C   0  0  0  0  0  0  0  0  0  0  0  0
    3.6195   -1.1244    1.0734 C   0  0  0  0  0  0  0  0  0  0  0  0
    2.3998   -2.2722    1.9665 Br  0  0  0  0  0  0  0  0  0  0  0  0
   -5.1399   -1.1197   -1.7344 H   0  0  0  0  0  0  0  0  0  0  0  0
   -5.2379    0.3269   -0.7286 H   0  0  0  0  0  0  0  0  0  0  0  0
   -4.4351    0.3930   -2.3109 H   0  0  0  0  0  0  0  0  0  0  0  0
   -2.7619   -1.2630   -1.5209 H   0  0  0  0  0  0  0  0  0  0  0  0
   -2.5592   -1.8019    0.9237 H   0  0  0  0  0  0  0  0  0  0  0  0
   -4.0710   -0.9241    1.2316 H   0  0  0  0  0  0  0  0  0  0  0  0
   -4.0706   -2.3661    0.2145 H   0  0  0  0  0  0  0  0  0  0  0  0
   -2.7499    1.0247    1.4770 H   0  0  0  0  0  0  0  0  0  0  0  0
   -2.3090    2.4102    0.4658 H   0  0  0  0  0  0  0  0  0  0  0  0
   -3.9114    1.7437    0.3432 H   0  0  0  0  0  0  0  0  0  0  0  0
   -0.8427   -0.2609    0.6216 H   0  0  0  0  0  0  0  0  0  0  0  0
   -0.7010   -0.5927   -1.0875 H   0  0  0  0  0  0  0  0  0  0  0  0
   -0.1090    2.1385    0.1763 H   0  0  0  0  0  0  0  0  0  0  0  0
   -0.1380    1.7992   -1.5536 H   0  0  0  0  0  0  0  0  0  0  0  0
    3.9028    1.8548   -0.5709 H   0  0  0  0  0  0  0  0  0  0  0  0
    6.2293    1.0441   -0.8301 H   0  0  0  0  0  0  0  0  0  0  0  0
    6.8953   -1.1459    0.1291 H   0  0  0  0  0  0  0  0  0  0  0  0
    5.2447   -2.5322    1.3325 H   0  0  0  0  0  0  0  0  0  0  0  0
  1  2  1  0
  2  3  1  0
  2  4  1  0
  4  5  1  0
  4  6  1  0
  6  7  1  0
  7  8  1  0
  8  9  1  0
  9 10  2  0
  9 11  1  0
 11 12  2  0
 12 13  1  0
 13 14  2  0
 14 15  1  0
 15 16  2  0
 16 17  1  0
 16 11  1  0
  1 18  1  0
  1 19  1  0
  1 20  1  0
  2 21  1  0
  3 22  1  0
  3 23  1  0
  3 24  1  0
  5 25  1  0
  5 26  1  0
  5 27  1  0
  6 28  1  0
  6 29  1  0
  7 30  1  0
  7 31  1  0
 12 32  1  0
 13 33  1  0
 14 34  1  0
 15 35  1  0
M  END
$$$$
