
     RDKit          3D

 34 36  0  0  0  0  0  0  0  0999 V2000
    3.5450    0.0622   -1.5251 C   0  0  0  0  0  0  0  0  0  0  0  0
    4.0029   -0.1491   -0.1697 N   0  0  0  0  0  0  0  0  0  0  0  0
    5.2166   -0.7081    0.0192 N   0  0  0  0  0  0  0  0  0  0  0  0
    5.3825   -0.6535    1.3428 C   0  0  0  0  0  0  0  0  0  0  0  0
    4.2713   -0.0950    1.9961 C   0  0  0  0  0  0  0  0  0  0  0  0
    4.1224    0.1113    3.6713 Cl  0  0  0  0  0  0  0  0  0  0  0  0
    3.3619    0.1921    0.9978 C   0  0  0  0  0  0  0  0  0  0  0  0
    2.0490    0.7819    1.1158 C   0  0  0  0  0  0  0  0  0  0  0  0
    1.8704    1.8015    1.7679 O   0  0  0  0  0  0  0  0  0  0  0  0
    1.0847    0.0604    0.4393 N   0  0  0  0  0  0  0  0  0  0  0  0
   -0.2686    0.3443    0.3135 C   0  0  0  0  0  0  0  0  0  0  0  0
   -0.9517    1.7578    0.9932 S   0  0  0  0  0  0  0  0  0  0  0  0
   -2.4655    1.3185    0.4582 C   0  0  0  0  0  0  0  0  0  0  0  0
   -2.4971    0.1425   -0.2402 C   0  0  0  0  0  0  0  0  0  0  0  0
   -1.2030   -0.4477   -0.3679 C   0  0  0  0  0  0  0  0  0  0  0  0
   -0.8032   -1.6731   -1.0590 C   0  0  0  0  0  0  0  0  0  0  0  0
   -1.7546   -2.3184   -1.7910 N   0  0  0  0  0  0  0  0  0  0  0  0
    0.3465   -2.1086   -1.0268 O   0  0  0  0  0  0  0  0  0  0  0  0
   -3.8913   -0.1660   -0.6592 C   0  0  0  0  0  0  0  0  0  0  0  0
   -4.7370    0.8284    0.1949 C   0  0  0  0  0  0  0  0  0  0  0  0
   -3.7805    1.9810    0.6153 C   0  0  0  0  0  0  0  0  0  0  0  0
    2.9274    0.9625   -1.5637 H   0  0  0  0  0  0  0  0  0  0  0  0
    4.4122    0.1943   -2.1778 H   0  0  0  0  0  0  0  0  0  0  0  0
    2.9727   -0.8163   -1.8312 H   0  0  0  0  0  0  0  0  0  0  0  0
    6.3024   -1.0256    1.7745 H   0  0  0  0  0  0  0  0  0  0  0  0
    1.3561   -0.8355    0.0355 H   0  0  0  0  0  0  0  0  0  0  0  0
   -1.4498   -3.1136   -2.3360 H   0  0  0  0  0  0  0  0  0  0  0  0
   -2.6509   -1.9132   -2.0040 H   0  0  0  0  0  0  0  0  0  0  0  0
   -4.1806   -1.1990   -0.4471 H   0  0  0  0  0  0  0  0  0  0  0  0
   -4.0246    0.0407   -1.7264 H   0  0  0  0  0  0  0  0  0  0  0  0
   -5.6185    1.1924   -0.3418 H   0  0  0  0  0  0  0  0  0  0  0  0
   -5.0911    0.3111    1.0966 H   0  0  0  0  0  0  0  0  0  0  0  0
   -3.9822    2.3113    1.6378 H   0  0  0  0  0  0  0  0  0  0  0  0
   -3.8738    2.8286   -0.0713 H   0  0  0  0  0  0  0  0  0  0  0  0
  1  2  1  0
  2  3  1  0
  3  4  2  0
  4  5  1  0
  5  6  1  0
  5  7  2  0
  7  8  1  0
  8  9  2  0
  8 10  1  0
 10 11  1  0
 11 12  1  0
 12 13  1  0
 13 14  2  0
 14 15  1  0
 15 16  1  0
 16 17  1  0
 16 18  2  0
 14 19  1  0
 19 20  1  0
 20 21  1  0
  7  2  1  0
 15 11  2  0
 21 13  1  0
  1 22  1  0
  1 23  1  0
  1 24  1  0
  4 25  1  0
 10 26  1  0
 17 27  1  0
 17 28  1  0
 19 29  1  0
 19 30  1  0
 20 31  1  0
 20 32  1  0
 21 33  1  0
 21 34  1  0
M  END
$$$$
