
     RDKit          3D

 23 24  0  0  0  0  0  0  0  0999 V2000
    0.2433    2.1301    0.7439 O   0  0  0  0  0  0  0  0  0  0  0  0
    1.2630    1.5937    0.3591 C   0  0  0  0  0  0  0  0  0  0  0  0
    2.5233    2.0615    0.6000 O   0  0  0  0  0  0  0  0  0  0  0  0
    3.4855    1.1136    0.1393 C   0  0  0  0  0  0  0  0  0  0  0  0
    2.8027    0.3249   -0.9467 C   0  0  0  0  0  0  0  0  0  0  0  0
    1.3944    0.3702   -0.4753 C   0  0  0  0  0  0  0  0  0  0  0  0
    0.4735   -0.5711   -0.7330 C   0  0  0  0  0  0  0  0  0  0  0  0
   -0.9157   -0.6092   -0.2670 C   0  0  0  0  0  0  0  0  0  0  0  0
   -1.3502   -1.7063    0.4871 C   0  0  0  0  0  0  0  0  0  0  0  0
   -2.6791   -1.7941    0.9085 C   0  0  0  0  0  0  0  0  0  0  0  0
   -3.5850   -0.7903    0.5717 C   0  0  0  0  0  0  0  0  0  0  0  0
   -3.1637    0.2992   -0.1883 C   0  0  0  0  0  0  0  0  0  0  0  0
   -1.8354    0.3864   -0.6118 C   0  0  0  0  0  0  0  0  0  0  0  0
    3.7910    0.4857    0.9843 H   0  0  0  0  0  0  0  0  0  0  0  0
    4.3670    1.6412   -0.2377 H   0  0  0  0  0  0  0  0  0  0  0  0
    2.8838    0.8421   -1.9094 H   0  0  0  0  0  0  0  0  0  0  0  0
    3.2176   -0.6818   -1.0452 H   0  0  0  0  0  0  0  0  0  0  0  0
    0.7549   -1.4331   -1.3354 H   0  0  0  0  0  0  0  0  0  0  0  0
   -0.6570   -2.4985    0.7590 H   0  0  0  0  0  0  0  0  0  0  0  0
   -3.0061   -2.6439    1.5017 H   0  0  0  0  0  0  0  0  0  0  0  0
   -4.6177   -0.8539    0.9039 H   0  0  0  0  0  0  0  0  0  0  0  0
   -3.8657    1.0872   -0.4477 H   0  0  0  0  0  0  0  0  0  0  0  0
   -1.5245    1.2464   -1.2003 H   0  0  0  0  0  0  0  0  0  0  0  0
  1  2  2  0
  2  3  1  0
  3  4  1  0
  4  5  1  0
  5  6  1  0
  6  7  2  3
  7  8  1  0
  8  9  2  0
  9 10  1  0
 10 11  2  0
 11 12  1  0
 12 13  2  0
  6  2  1  0
 13  8  1  0
  4 14  1  0
  4 15  1  0
  5 16  1  0
  5 17  1  0
  7 18  1  0
  9 19  1  0
 10 20  1  0
 11 21  1  0
 12 22  1  0
 13 23  1  0
M  END
$$$$
