
     RDKit          3D

 28 28  0  0  0  0  0  0  0  0999 V2000
   -1.1201   -2.2754    0.3553 C   0  0  0  0  0  0  0  0  0  0  0  0
   -2.1648   -1.1543    0.2887 C   0  0  0  0  0  0  0  0  0  0  0  0
   -2.6215   -0.9392   -1.1605 C   0  0  0  0  0  0  0  0  0  0  0  0
   -3.3817   -1.5792    1.1315 C   0  0  0  0  0  0  0  0  0  0  0  0
   -1.6014    0.1757    0.8372 C   0  0  0  0  0  0  0  0  0  0  0  0
   -2.2279    0.8402    1.6699 O   0  0  0  0  0  0  0  0  0  0  0  0
   -0.2749    0.6852    0.3029 C   0  0  0  0  0  0  0  0  0  0  0  0
    1.0353    0.3575    1.5127 S   0  0  0  0  0  0  0  0  0  0  0  0
    2.4007    1.1366    0.6917 C   0  0  0  0  0  0  0  0  0  0  0  0
    3.5182    1.3026    1.4182 N   0  0  0  0  0  0  0  0  0  0  0  0
    4.5595    1.8844    0.7962 C   0  0  0  0  0  0  0  0  0  0  0  0
    4.5254    2.2965   -0.5134 C   0  0  0  0  0  0  0  0  0  0  0  0
    3.3393    2.0751   -1.1704 C   0  0  0  0  0  0  0  0  0  0  0  0
    2.2663    1.4976   -0.5971 N   0  0  0  0  0  0  0  0  0  0  0  0
   -0.2611   -2.0751   -0.2934 H   0  0  0  0  0  0  0  0  0  0  0  0
   -1.5475   -3.2330    0.0366 H   0  0  0  0  0  0  0  0  0  0  0  0
   -0.7417   -2.4021    1.3758 H   0  0  0  0  0  0  0  0  0  0  0  0
   -3.1082   -1.8360   -1.5602 H   0  0  0  0  0  0  0  0  0  0  0  0
   -3.3344   -0.1094   -1.2298 H   0  0  0  0  0  0  0  0  0  0  0  0
   -1.7814   -0.6998   -1.8209 H   0  0  0  0  0  0  0  0  0  0  0  0
   -3.1060   -1.7130    2.1840 H   0  0  0  0  0  0  0  0  0  0  0  0
   -3.8048   -2.5244    0.7728 H   0  0  0  0  0  0  0  0  0  0  0  0
   -4.1771   -0.8256    1.0941 H   0  0  0  0  0  0  0  0  0  0  0  0
   -0.3793    1.7622    0.1311 H   0  0  0  0  0  0  0  0  0  0  0  0
   -0.0469    0.2147   -0.6563 H   0  0  0  0  0  0  0  0  0  0  0  0
    5.4501    2.0120    1.4048 H   0  0  0  0  0  0  0  0  0  0  0  0
    5.3742    2.7624   -0.9937 H   0  0  0  0  0  0  0  0  0  0  0  0
    3.2118    2.3641   -2.2097 H   0  0  0  0  0  0  0  0  0  0  0  0
  1  2  1  0
  2  3  1  0
  2  4  1  0
  2  5  1  0
  5  6  2  0
  5  7  1  0
  7  8  1  0
  8  9  1  0
  9 10  2  0
 10 11  1  0
 11 12  2  0
 12 13  1  0
 13 14  2  0
 14  9  1  0
  1 15  1  0
  1 16  1  0
  1 17  1  0
  3 18  1  0
  3 19  1  0
  3 20  1  0
  4 21  1  0
  4 22  1  0
  4 23  1  0
  7 24  1  0
  7 25  1  0
 11 26  1  0
 12 27  1  0
 13 28  1  0
M  END
$$$$
