
     RDKit          3D

 68 74  0  0  0  0  0  0  0  0999 V2000
   -4.4156   -3.7818   -3.3614 C   0  0  0  0  0  0  0  0  0  0  0  0
   -3.8945   -3.3031   -2.0400 C   0  0  0  0  0  0  0  0  0  0  0  0
   -4.2974   -3.8991   -0.8290 C   0  0  0  0  0  0  0  0  0  0  0  0
   -5.4171   -5.2194   -0.8095 Cl  0  0  0  0  0  0  0  0  0  0  0  0
   -3.8057   -3.4551    0.4150 C   0  0  0  0  0  0  0  0  0  0  0  0
   -2.8996   -2.3976    0.4889 C   0  0  0  0  0  0  0  0  0  0  0  0
   -2.5045   -1.7967   -0.6949 C   0  0  0  0  0  0  0  0  0  0  0  0
   -2.9907   -2.2532   -1.9302 C   0  0  0  0  0  0  0  0  0  0  0  0
   -2.4166   -1.5103   -2.9624 N   0  0  0  0  0  0  0  0  0  0  0  0
   -1.5383   -0.5383   -2.4775 C   0  0  0  0  0  0  0  0  0  0  0  0
   -0.8814    0.2191   -3.1769 O   0  0  0  0  0  0  0  0  0  0  0  0
   -1.5545   -0.6610   -0.9352 C   0  0  1  0  0  0  0  0  0  0  0  0
   -2.0372    0.5667   -0.2495 C   0  0  0  0  0  0  0  0  0  0  0  0
   -0.9610    1.2486    0.3455 C   0  0  0  0  0  0  0  0  0  0  0  0
   -1.4381    2.3609    0.9839 C   0  0  0  0  0  0  0  0  0  0  0  0
   -0.7863    3.3279    1.6242 O   0  0  0  0  0  0  0  0  0  0  0  0
   -2.8322    2.3954    0.7681 N   0  0  0  0  0  0  0  0  0  0  0  0
   -3.7220    3.4426    1.1711 C   0  0  0  0  0  0  0  0  0  0  0  0
   -3.4872    4.1651    2.3475 C   0  0  0  0  0  0  0  0  0  0  0  0
   -4.3657    5.1794    2.7380 C   0  0  0  0  0  0  0  0  0  0  0  0
   -5.4756    5.4866    1.9539 C   0  0  0  0  0  0  0  0  0  0  0  0
   -5.7072    4.7854    0.7729 C   0  0  0  0  0  0  0  0  0  0  0  0
   -4.8337    3.7687    0.3787 C   0  0  0  0  0  0  0  0  0  0  0  0
   -3.1938    1.2352    0.0490 C   0  0  0  0  0  0  0  0  0  0  0  0
   -4.4460    0.8627   -0.2134 O   0  0  0  0  0  0  0  0  0  0  0  0
    0.3036    0.5544    0.0289 C   0  0  1  0  0  0  0  0  0  0  0  0
    1.3690    0.3910    1.1126 C   0  0  0  0  0  0  0  0  0  0  0  0
    2.4388   -0.4691    0.5776 N   0  0  0  0  0  0  0  0  0  0  0  0
    3.5994    0.1298    0.1205 C   0  0  0  0  0  0  0  0  0  0  0  0
    3.8603    1.3147    0.2967 O   0  0  0  0  0  0  0  0  0  0  0  0
    4.4013   -0.7365   -0.5484 O   0  0  0  0  0  0  0  0  0  0  0  0
    5.6407   -0.2043   -1.0283 C   0  0  0  0  0  0  0  0  0  0  0  0
    6.7450   -0.5495   -0.0639 C   0  0  0  0  0  0  0  0  0  0  0  0
    7.1563    0.3767    0.9045 C   0  0  0  0  0  0  0  0  0  0  0  0
    8.1674    0.0514    1.8100 C   0  0  0  0  0  0  0  0  0  0  0  0
    8.7710   -1.2043    1.7614 C   0  0  0  0  0  0  0  0  0  0  0  0
    8.3599   -2.1383    0.8116 C   0  0  0  0  0  0  0  0  0  0  0  0
    7.3488   -1.8146   -0.0947 C   0  0  0  0  0  0  0  0  0  0  0  0
    1.9810   -1.7875    0.1008 C   0  0  0  0  0  0  0  0  0  0  0  0
    0.8016   -1.6532   -0.9046 C   0  0  0  0  0  0  0  0  0  0  0  0
   -0.2237   -0.8105   -0.3052 N   0  0  0  0  0  0  0  0  0  0  0  0
   -5.5046   -3.6757   -3.4015 H   0  0  0  0  0  0  0  0  0  0  0  0
   -4.1458   -4.8312   -3.5190 H   0  0  0  0  0  0  0  0  0  0  0  0
   -4.0077   -3.2161   -4.2034 H   0  0  0  0  0  0  0  0  0  0  0  0
   -4.1347   -3.9370    1.3333 H   0  0  0  0  0  0  0  0  0  0  0  0
   -2.5202   -2.0501    1.4451 H   0  0  0  0  0  0  0  0  0  0  0  0
   -2.5890   -1.6277   -3.9487 H   0  0  0  0  0  0  0  0  0  0  0  0
    0.1690    3.1882    1.5001 H   0  0  0  0  0  0  0  0  0  0  0  0
   -2.6437    3.9388    2.9943 H   0  0  0  0  0  0  0  0  0  0  0  0
   -4.1801    5.7300    3.6568 H   0  0  0  0  0  0  0  0  0  0  0  0
   -6.1527    6.2809    2.2576 H   0  0  0  0  0  0  0  0  0  0  0  0
   -6.5592    5.0416    0.1481 H   0  0  0  0  0  0  0  0  0  0  0  0
   -5.0108    3.2843   -0.5794 H   0  0  0  0  0  0  0  0  0  0  0  0
   -5.0387    1.2899    0.4312 H   0  0  0  0  0  0  0  0  0  0  0  0
    0.7430    1.0157   -0.8673 H   0  0  0  0  0  0  0  0  0  0  0  0
    1.7623    1.3649    1.4216 H   0  0  0  0  0  0  0  0  0  0  0  0
    0.9638   -0.0964    2.0082 H   0  0  0  0  0  0  0  0  0  0  0  0
    5.8429   -0.6726   -1.9990 H   0  0  0  0  0  0  0  0  0  0  0  0
    5.5961    0.8745   -1.2232 H   0  0  0  0  0  0  0  0  0  0  0  0
    6.6831    1.3557    0.9619 H   0  0  0  0  0  0  0  0  0  0  0  0
    8.4798    0.7772    2.5566 H   0  0  0  0  0  0  0  0  0  0  0  0
    9.5566   -1.4570    2.4684 H   0  0  0  0  0  0  0  0  0  0  0  0
    8.8239   -3.1207    0.7796 H   0  0  0  0  0  0  0  0  0  0  0  0
    7.0299   -2.5562   -0.8239 H   0  0  0  0  0  0  0  0  0  0  0  0
    1.6485   -2.3441    0.9858 H   0  0  0  0  0  0  0  0  0  0  0  0
    2.7934   -2.3580   -0.3575 H   0  0  0  0  0  0  0  0  0  0  0  0
    0.4092   -2.6535   -1.1174 H   0  0  0  0  0  0  0  0  0  0  0  0
    1.1673   -1.2242   -1.8449 H   0  0  0  0  0  0  0  0  0  0  0  0
  1  2  1  0
  2  3  2  0
  3  4  1  0
  3  5  1  0
  5  6  2  0
  6  7  1  0
  7  8  2  0
  8  9  1  0
  9 10  1  0
 10 11  2  0
 10 12  1  0
 12 13  1  0
 13 14  1  0
 14 15  2  0
 15 16  1  0
 15 17  1  0
 17 18  1  0
 18 19  2  0
 19 20  1  0
 20 21  2  0
 21 22  1  0
 22 23  2  0
 17 24  1  0
 24 25  1  0
 14 26  1  0
 26 27  1  0
 27 28  1  0
 28 29  1  0
 29 30  2  0
 29 31  1  0
 31 32  1  0
 32 33  1  0
 33 34  2  0
 34 35  1  0
 35 36  2  0
 36 37  1  0
 37 38  2  0
 28 39  1  0
 39 40  1  0
 40 41  1  0
  8  2  1  0
 12 41  1  1
 12  7  1  0
 24 13  2  0
 41 26  1  0
 23 18  1  0
 38 33  1  0
  1 42  1  0
  1 43  1  0
  1 44  1  0
  5 45  1  0
  6 46  1  0
  9 47  1  0
 16 48  1  0
 19 49  1  0
 20 50  1  0
 21 51  1  0
 22 52  1  0
 23 53  1  0
 25 54  1  0
 26 55  1  6
 27 56  1  0
 27 57  1  0
 32 58  1  0
 32 59  1  0
 34 60  1  0
 35 61  1  0
 36 62  1  0
 37 63  1  0
 38 64  1  0
 39 65  1  0
 39 66  1  0
 40 67  1  0
 40 68  1  0
M  END
$$$$
