
     RDKit          3D

 47 48  0  0  0  0  0  0  0  0999 V2000
   -4.5441    2.4390    1.2481 C   0  0  0  0  0  0  0  0  0  0  0  0
   -3.8608    1.7924    2.4458 C   0  0  0  0  0  0  0  0  0  0  0  0
   -3.2016    0.5273    2.0803 N   0  0  0  0  0  0  0  0  0  0  0  0
   -3.8184   -0.6984    2.6093 C   0  0  0  0  0  0  0  0  0  0  0  0
   -4.9445   -1.1859    1.7104 C   0  0  0  0  0  0  0  0  0  0  0  0
   -2.0472    0.4916    1.3038 C   0  0  0  0  0  0  0  0  0  0  0  0
   -1.2513    1.6305    1.1019 C   0  0  0  0  0  0  0  0  0  0  0  0
   -0.0842    1.6041    0.3285 C   0  0  0  0  0  0  0  0  0  0  0  0
    0.3309    0.4204   -0.2795 C   0  0  0  0  0  0  0  0  0  0  0  0
    1.5483    0.3959   -1.0994 C   0  0  0  0  0  0  0  0  0  0  0  0
    2.7548    0.6778   -0.5864 C   0  0  0  0  0  0  0  0  0  0  0  0
    3.9740    0.5387   -1.3797 C   0  0  0  0  0  0  0  0  0  0  0  0
    4.6242    1.6853   -1.8467 C   0  0  0  0  0  0  0  0  0  0  0  0
    5.7733    1.5660   -2.6174 C   0  0  0  0  0  0  0  0  0  0  0  0
    6.2586    0.3023   -2.9146 C   0  0  0  0  0  0  0  0  0  0  0  0
    5.5907   -0.8163   -2.4319 C   0  0  0  0  0  0  0  0  0  0  0  0
    4.4756   -0.6931   -1.6731 N   0  0  0  0  0  4  0  0  0  0  0  0
    3.8185   -1.9213   -1.1749 C   0  0  0  0  0  0  0  0  0  0  0  0
   -0.4436   -0.7384   -0.1192 C   0  0  0  0  0  0  0  0  0  0  0  0
    0.0269   -1.8712   -0.7456 O   0  0  0  0  0  0  0  0  0  0  0  0
   -0.8600   -2.9848   -0.8062 C   0  0  0  0  0  0  0  0  0  0  0  0
   -1.6057   -0.6876    0.6700 C   0  0  0  0  0  0  0  0  0  0  0  0
   -5.2768    1.7625    0.7973 H   0  0  0  0  0  0  0  0  0  0  0  0
   -3.8288    2.7191    0.4695 H   0  0  0  0  0  0  0  0  0  0  0  0
   -5.0696    3.3470    1.5609 H   0  0  0  0  0  0  0  0  0  0  0  0
   -4.6288    1.6103    3.2080 H   0  0  0  0  0  0  0  0  0  0  0  0
   -3.1549    2.4855    2.9164 H   0  0  0  0  0  0  0  0  0  0  0  0
   -3.0775   -1.4919    2.7613 H   0  0  0  0  0  0  0  0  0  0  0  0
   -4.2240   -0.5059    3.6106 H   0  0  0  0  0  0  0  0  0  0  0  0
   -5.3570   -2.1229    2.0976 H   0  0  0  0  0  0  0  0  0  0  0  0
   -5.7583   -0.4554    1.6677 H   0  0  0  0  0  0  0  0  0  0  0  0
   -4.6001   -1.3620    0.6869 H   0  0  0  0  0  0  0  0  0  0  0  0
   -1.5149    2.5812    1.5563 H   0  0  0  0  0  0  0  0  0  0  0  0
    0.4812    2.5247    0.2074 H   0  0  0  0  0  0  0  0  0  0  0  0
    1.4059    0.0643   -2.1260 H   0  0  0  0  0  0  0  0  0  0  0  0
    2.8803    0.9968    0.4457 H   0  0  0  0  0  0  0  0  0  0  0  0
    4.2312    2.6748   -1.6182 H   0  0  0  0  0  0  0  0  0  0  0  0
    6.2826    2.4547   -2.9875 H   0  0  0  0  0  0  0  0  0  0  0  0
    7.1548    0.1880   -3.5213 H   0  0  0  0  0  0  0  0  0  0  0  0
    5.9464   -1.8198   -2.6500 H   0  0  0  0  0  0  0  0  0  0  0  0
    4.4956   -2.7719   -1.2909 H   0  0  0  0  0  0  0  0  0  0  0  0
    3.5927   -1.8015   -0.1125 H   0  0  0  0  0  0  0  0  0  0  0  0
    2.9172   -2.0864   -1.7698 H   0  0  0  0  0  0  0  0  0  0  0  0
   -1.8147   -2.7110   -1.2676 H   0  0  0  0  0  0  0  0  0  0  0  0
   -0.3925   -3.7466   -1.4377 H   0  0  0  0  0  0  0  0  0  0  0  0
   -1.0061   -3.4219    0.1867 H   0  0  0  0  0  0  0  0  0  0  0  0
   -2.1985   -1.5861    0.7857 H   0  0  0  0  0  0  0  0  0  0  0  0
  1  2  1  0
  2  3  1  0
  3  4  1  0
  4  5  1  0
  3  6  1  0
  6  7  2  0
  7  8  1  0
  8  9  2  0
  9 10  1  0
 10 11  2  3
 11 12  1  0
 12 13  2  0
 13 14  1  0
 14 15  2  0
 15 16  1  0
 16 17  2  0
 17 18  1  0
  9 19  1  0
 19 20  1  0
 20 21  1  0
 19 22  2  0
 22  6  1  0
 17 12  1  0
  1 23  1  0
  1 24  1  0
  1 25  1  0
  2 26  1  0
  2 27  1  0
  4 28  1  0
  4 29  1  0
  5 30  1  0
  5 31  1  0
  5 32  1  0
  7 33  1  0
  8 34  1  0
 10 35  1  0
 11 36  1  0
 13 37  1  0
 14 38  1  0
 15 39  1  0
 16 40  1  0
 18 41  1  0
 18 42  1  0
 18 43  1  0
 21 44  1  0
 21 45  1  0
 21 46  1  0
 22 47  1  0
M  CHG  1  17   1
M  END
$$$$
