
     RDKit          3D

 68 74  0  0  0  0  0  0  0  0999 V2000
   -3.5777   -3.1265   -4.3187 C   0  0  0  0  0  0  0  0  0  0  0  0
   -3.1114   -2.8542   -2.9199 C   0  0  0  0  0  0  0  0  0  0  0  0
   -3.2790   -3.8009   -1.8904 C   0  0  0  0  0  0  0  0  0  0  0  0
   -4.0388   -5.3263   -2.1919 Cl  0  0  0  0  0  0  0  0  0  0  0  0
   -2.8348   -3.5515   -0.5765 C   0  0  0  0  0  0  0  0  0  0  0  0
   -2.2083   -2.3491   -0.2491 C   0  0  0  0  0  0  0  0  0  0  0  0
   -2.0423   -1.4095   -1.2526 C   0  0  0  0  0  0  0  0  0  0  0  0
   -2.4819   -1.6690   -2.5604 C   0  0  0  0  0  0  0  0  0  0  0  0
   -2.1794   -0.5808   -3.3786 N   0  0  0  0  0  0  0  0  0  0  0  0
   -1.5208    0.4328   -2.6774 C   0  0  0  0  0  0  0  0  0  0  0  0
   -1.1080    1.4702   -3.1733 O   0  0  0  0  0  0  0  0  0  0  0  0
   -1.4131   -0.0489   -1.2093 C   0  0  1  0  0  0  0  0  0  0  0  0
   -2.1629    0.8166   -0.2590 C   0  0  0  0  0  0  0  0  0  0  0  0
   -1.2639    1.5799    0.5026 C   0  0  0  0  0  0  0  0  0  0  0  0
   -1.9723    2.3766    1.3602 C   0  0  0  0  0  0  0  0  0  0  0  0
   -1.5388    3.3080    2.2059 O   0  0  0  0  0  0  0  0  0  0  0  0
   -3.3457    2.1000    1.1592 N   0  0  0  0  0  0  0  0  0  0  0  0
   -4.4467    2.7057    1.8613 C   0  0  0  0  0  0  0  0  0  0  0  0
   -4.2704    3.2501    3.1421 C   0  0  0  0  0  0  0  0  0  0  0  0
   -5.3413    3.8379    3.8243 C   0  0  0  0  0  0  0  0  0  0  0  0
   -6.6014    3.8912    3.2369 C   0  0  0  0  0  0  0  0  0  0  0  0
   -6.7922    3.3557    1.9670 C   0  0  0  0  0  0  0  0  0  0  0  0
   -5.7233    2.7664    1.2830 C   0  0  0  0  0  0  0  0  0  0  0  0
   -3.4394    1.1199    0.1418 C   0  0  0  0  0  0  0  0  0  0  0  0
   -4.5990    0.5959   -0.2497 O   0  0  0  0  0  0  0  0  0  0  0  0
    0.1285    1.3031    0.0842 C   0  0  1  0  0  0  0  0  0  0  0  0
    1.1738    1.0800    1.1766 C   0  0  0  0  0  0  0  0  0  0  0  0
    2.3754    0.3950    0.6726 N   0  0  0  0  0  0  0  0  0  0  0  0
    3.4490    0.2569    1.5283 C   0  0  0  0  0  0  0  0  0  0  0  0
    3.4249    0.5952    2.7061 O   0  0  0  0  0  0  0  0  0  0  0  0
    4.5344   -0.2819    0.9185 O   0  0  0  0  0  0  0  0  0  0  0  0
    5.6639   -0.4387    1.7784 C   0  0  0  0  0  0  0  0  0  0  0  0
    6.7809   -1.0392    0.9643 C   0  0  0  0  0  0  0  0  0  0  0  0
    7.6681   -0.2150    0.2575 C   0  0  0  0  0  0  0  0  0  0  0  0
    8.6911   -0.7722   -0.5113 C   0  0  0  0  0  0  0  0  0  0  0  0
    8.8321   -2.1566   -0.5878 C   0  0  0  0  0  0  0  0  0  0  0  0
    7.9475   -2.9859    0.0992 C   0  0  0  0  0  0  0  0  0  0  0  0
    6.9234   -2.4309    0.8685 C   0  0  0  0  0  0  0  0  0  0  0  0
    2.4436    0.0936   -0.7678 C   0  0  0  0  0  0  0  0  0  0  0  0
    1.1070   -0.4143   -1.3808 C   0  0  0  0  0  0  0  0  0  0  0  0
   -0.0586    0.0160   -0.6321 N   0  0  0  0  0  0  0  0  0  0  0  0
   -3.4131   -2.2773   -4.9874 H   0  0  0  0  0  0  0  0  0  0  0  0
   -3.0371   -3.9807   -4.7392 H   0  0  0  0  0  0  0  0  0  0  0  0
   -4.6526   -3.3349   -4.3285 H   0  0  0  0  0  0  0  0  0  0  0  0
   -2.9759   -4.3035    0.1978 H   0  0  0  0  0  0  0  0  0  0  0  0
   -1.8607   -2.1566    0.7625 H   0  0  0  0  0  0  0  0  0  0  0  0
   -2.3642   -0.5076   -4.3682 H   0  0  0  0  0  0  0  0  0  0  0  0
   -0.5740    3.3829    2.1185 H   0  0  0  0  0  0  0  0  0  0  0  0
   -3.3160    3.2015    3.6568 H   0  0  0  0  0  0  0  0  0  0  0  0
   -5.1871    4.2483    4.8188 H   0  0  0  0  0  0  0  0  0  0  0  0
   -7.4319    4.3491    3.7668 H   0  0  0  0  0  0  0  0  0  0  0  0
   -7.7726    3.4001    1.4998 H   0  0  0  0  0  0  0  0  0  0  0  0
   -5.9144    2.3963    0.2807 H   0  0  0  0  0  0  0  0  0  0  0  0
   -4.4154   -0.1384   -0.8604 H   0  0  0  0  0  0  0  0  0  0  0  0
    0.4570    2.0832   -0.6161 H   0  0  0  0  0  0  0  0  0  0  0  0
    0.7737    0.4706    1.9977 H   0  0  0  0  0  0  0  0  0  0  0  0
    1.4773    2.0396    1.6126 H   0  0  0  0  0  0  0  0  0  0  0  0
    5.9759    0.5337    2.1798 H   0  0  0  0  0  0  0  0  0  0  0  0
    5.4150   -1.1002    2.6176 H   0  0  0  0  0  0  0  0  0  0  0  0
    7.5650    0.8670    0.3010 H   0  0  0  0  0  0  0  0  0  0  0  0
    9.3767   -0.1259   -1.0530 H   0  0  0  0  0  0  0  0  0  0  0  0
    9.6290   -2.5891   -1.1867 H   0  0  0  0  0  0  0  0  0  0  0  0
    8.0536   -4.0657    0.0333 H   0  0  0  0  0  0  0  0  0  0  0  0
    6.2344   -3.0901    1.3922 H   0  0  0  0  0  0  0  0  0  0  0  0
    2.7277    1.0354   -1.2541 H   0  0  0  0  0  0  0  0  0  0  0  0
    3.2363   -0.6307   -0.9802 H   0  0  0  0  0  0  0  0  0  0  0  0
    1.0776   -0.0916   -2.4272 H   0  0  0  0  0  0  0  0  0  0  0  0
    1.1234   -1.5104   -1.3867 H   0  0  0  0  0  0  0  0  0  0  0  0
  1  2  1  0
  2  3  2  0
  3  4  1  0
  3  5  1  0
  5  6  2  0
  6  7  1  0
  7  8  2  0
  8  9  1  0
  9 10  1  0
 10 11  2  0
 10 12  1  0
 12 13  1  0
 13 14  1  0
 14 15  2  0
 15 16  1  0
 15 17  1  0
 17 18  1  0
 18 19  2  0
 19 20  1  0
 20 21  2  0
 21 22  1  0
 22 23  2  0
 17 24  1  0
 24 25  1  0
 14 26  1  0
 26 27  1  0
 27 28  1  0
 28 29  1  0
 29 30  2  0
 29 31  1  0
 31 32  1  0
 32 33  1  0
 33 34  2  0
 34 35  1  0
 35 36  2  0
 36 37  1  0
 37 38  2  0
 28 39  1  0
 39 40  1  0
 40 41  1  0
  8  2  1  0
 12 41  1  1
 12  7  1  0
 24 13  2  0
 41 26  1  0
 23 18  1  0
 38 33  1  0
  1 42  1  0
  1 43  1  0
  1 44  1  0
  5 45  1  0
  6 46  1  0
  9 47  1  0
 16 48  1  0
 19 49  1  0
 20 50  1  0
 21 51  1  0
 22 52  1  0
 23 53  1  0
 25 54  1  0
 26 55  1  6
 27 56  1  0
 27 57  1  0
 32 58  1  0
 32 59  1  0
 34 60  1  0
 35 61  1  0
 36 62  1  0
 37 63  1  0
 38 64  1  0
 39 65  1  0
 39 66  1  0
 40 67  1  0
 40 68  1  0
M  END
$$$$
