
     RDKit          3D

 58 63  0  0  0  0  0  0  0  0999 V2000
    7.2309   -0.8925    2.1389 C   0  0  0  0  0  0  0  0  0  0  0  0
    6.4532   -0.8175    0.8701 C   0  0  0  0  0  0  0  0  0  0  0  0
    6.8899   -0.4486   -0.3850 C   0  0  0  0  0  0  0  0  0  0  0  0
    5.8491   -0.5105   -1.3562 C   0  0  0  0  0  0  0  0  0  0  0  0
    4.6376   -0.8847   -0.8077 C   0  0  0  0  0  0  0  0  0  0  0  0
    3.3829   -1.1007   -1.5138 C   0  0  0  0  0  0  0  0  0  0  0  0
    3.3582   -1.6868   -2.5976 O   0  0  0  0  0  0  0  0  0  0  0  0
    2.1930   -0.6245   -0.9286 N   0  0  0  0  0  0  0  0  0  0  0  0
    0.9510   -1.0116   -1.5818 C   0  0  0  0  0  0  0  0  0  0  0  0
   -0.2403   -0.9222   -0.6295 C   0  0  0  0  0  0  0  0  0  0  0  0
   -0.3720    0.4786    0.0226 C   0  0  0  0  0  0  0  0  0  0  0  0
    0.9920    0.7842    0.7043 C   0  0  0  0  0  0  0  0  0  0  0  0
    2.1582    0.6802   -0.2739 C   0  0  0  0  0  0  0  0  0  0  0  0
   -0.5996    1.3968   -1.0751 O   0  0  0  0  0  0  0  0  0  0  0  0
   -0.9671    2.6667   -0.7318 C   0  0  0  0  0  0  0  0  0  0  0  0
   -0.8172    3.6375   -1.7214 C   0  0  0  0  0  0  0  0  0  0  0  0
   -1.1497    4.9672   -1.4516 C   0  0  0  0  0  0  0  0  0  0  0  0
   -1.6366    5.3208   -0.1929 C   0  0  0  0  0  0  0  0  0  0  0  0
   -2.0415    6.9598    0.1336 Cl  0  0  0  0  0  0  0  0  0  0  0  0
   -1.8039    4.3555    0.7965 C   0  0  0  0  0  0  0  0  0  0  0  0
   -1.4760    3.0251    0.5156 C   0  0  0  0  0  0  0  0  0  0  0  0
   -1.6829    1.9744    1.5305 C   0  0  0  0  0  0  0  0  0  0  0  0
   -1.9833    2.2923    2.6762 O   0  0  0  0  0  0  0  0  0  0  0  0
   -1.5570    0.5401    1.0286 C   0  0  0  0  0  0  0  0  0  0  0  0
   -2.9181    0.1259    0.4805 C   0  0  0  0  0  0  0  0  0  0  0  0
   -3.0172   -1.2302    1.0871 C   0  0  0  0  0  0  0  0  0  0  0  0
   -4.0536   -2.2029    0.6708 C   0  0  0  0  0  0  0  0  0  0  0  0
   -4.0070   -3.5042    1.1860 C   0  0  0  0  0  0  0  0  0  0  0  0
   -4.9651   -4.4457    0.8063 C   0  0  0  0  0  0  0  0  0  0  0  0
   -5.9742   -4.0915   -0.0870 C   0  0  0  0  0  0  0  0  0  0  0  0
   -6.0286   -2.7961   -0.5999 C   0  0  0  0  0  0  0  0  0  0  0  0
   -5.0714   -1.8504   -0.2227 C   0  0  0  0  0  0  0  0  0  0  0  0
   -2.1312   -1.4826    1.9960 N   0  0  0  0  0  0  0  0  0  0  0  0
   -1.3244   -0.3308    2.1398 O   0  0  0  0  0  0  0  0  0  0  0  0
    4.7975   -1.2496    0.8595 S   0  0  0  0  0  0  0  0  0  0  0  0
    8.2776   -0.6171    1.9727 H   0  0  0  0  0  0  0  0  0  0  0  0
    6.8188   -0.2068    2.8864 H   0  0  0  0  0  0  0  0  0  0  0  0
    7.2129   -1.9083    2.5476 H   0  0  0  0  0  0  0  0  0  0  0  0
    7.9118   -0.1620   -0.6034 H   0  0  0  0  0  0  0  0  0  0  0  0
    5.9763   -0.2901   -2.4098 H   0  0  0  0  0  0  0  0  0  0  0  0
    1.0349   -2.0413   -1.9490 H   0  0  0  0  0  0  0  0  0  0  0  0
    0.8107   -0.3664   -2.4575 H   0  0  0  0  0  0  0  0  0  0  0  0
   -1.1378   -1.1688   -1.2076 H   0  0  0  0  0  0  0  0  0  0  0  0
   -0.1210   -1.6886    0.1457 H   0  0  0  0  0  0  0  0  0  0  0  0
    1.0083    1.7918    1.1334 H   0  0  0  0  0  0  0  0  0  0  0  0
    1.1597    0.0816    1.5305 H   0  0  0  0  0  0  0  0  0  0  0  0
    2.0736    1.4376   -1.0633 H   0  0  0  0  0  0  0  0  0  0  0  0
    3.0912    0.8992    0.2485 H   0  0  0  0  0  0  0  0  0  0  0  0
   -0.4310    3.3646   -2.7011 H   0  0  0  0  0  0  0  0  0  0  0  0
   -1.0240    5.7218   -2.2247 H   0  0  0  0  0  0  0  0  0  0  0  0
   -2.1928    4.6315    1.7745 H   0  0  0  0  0  0  0  0  0  0  0  0
   -2.9638    0.1057   -0.6106 H   0  0  0  0  0  0  0  0  0  0  0  0
   -3.7416    0.7388    0.8638 H   0  0  0  0  0  0  0  0  0  0  0  0
   -3.2257   -3.7942    1.8862 H   0  0  0  0  0  0  0  0  0  0  0  0
   -4.9232   -5.4543    1.2103 H   0  0  0  0  0  0  0  0  0  0  0  0
   -6.7210   -4.8254   -0.3804 H   0  0  0  0  0  0  0  0  0  0  0  0
   -6.8211   -2.5223   -1.2924 H   0  0  0  0  0  0  0  0  0  0  0  0
   -5.1484   -0.8482   -0.6327 H   0  0  0  0  0  0  0  0  0  0  0  0
  1  2  1  0
  2  3  2  0
  3  4  1  0
  4  5  2  0
  5  6  1  0
  6  7  2  0
  6  8  1  0
  8  9  1  0
  9 10  1  0
 10 11  1  0
 11 12  1  0
 12 13  1  0
 11 14  1  0
 14 15  1  0
 15 16  2  0
 16 17  1  0
 17 18  2  0
 18 19  1  0
 18 20  1  0
 20 21  2  0
 21 22  1  0
 22 23  2  0
 22 24  1  0
 24 25  1  0
 25 26  1  0
 26 27  1  0
 27 28  2  0
 28 29  1  0
 29 30  2  0
 30 31  1  0
 31 32  2  0
 26 33  2  0
 33 34  1  0
  5 35  1  0
 35  2  1  0
 13  8  1  0
 21 15  1  0
 34 24  1  0
 24 11  1  0
 32 27  1  0
  1 36  1  0
  1 37  1  0
  1 38  1  0
  3 39  1  0
  4 40  1  0
  9 41  1  0
  9 42  1  0
 10 43  1  0
 10 44  1  0
 12 45  1  0
 12 46  1  0
 13 47  1  0
 13 48  1  0
 16 49  1  0
 17 50  1  0
 20 51  1  0
 25 52  1  0
 25 53  1  0
 28 54  1  0
 29 55  1  0
 30 56  1  0
 31 57  1  0
 32 58  1  0
M  END
$$$$
