
     RDKit          3D

 43 45  0  0  0  0  0  0  0  0999 V2000
   -6.7046   -1.3687   -0.9410 C   0  0  0  0  0  0  0  0  0  0  0  0
   -6.0188   -0.1061   -0.6720 N   0  0  0  0  0  0  0  0  0  0  0  0
   -6.8826    1.0682   -0.5556 C   0  0  0  0  0  0  0  0  0  0  0  0
   -4.8076   -0.1228    0.0310 C   0  0  0  0  0  0  0  0  0  0  0  0
   -4.2060    1.0568    0.5070 C   0  0  0  0  0  0  0  0  0  0  0  0
   -2.9838    1.0527    1.1957 C   0  0  0  0  0  0  0  0  0  0  0  0
   -2.3111   -0.1438    1.4234 C   0  0  0  0  0  0  0  0  0  0  0  0
   -1.0273   -0.1522    2.1248 C   0  0  0  0  0  0  0  0  0  0  0  0
    0.1836   -0.0771    1.5473 C   0  0  0  0  0  0  0  0  0  0  0  0
    0.4404    0.0304    0.1238 C   0  0  0  0  0  0  0  0  0  0  0  0
    1.6312    0.1000   -0.4928 C   0  0  0  0  0  0  0  0  0  0  0  0
    1.7532    0.2258   -2.2067 S   0  0  0  0  0  0  0  0  0  0  0  0
    3.5075    0.3805   -2.1776 C   0  0  0  0  0  0  0  0  0  0  0  0
    4.3204    0.7810   -3.5866 S   0  0  0  0  0  0  0  0  0  0  0  0
    3.9759    0.2120   -0.8798 N   0  0  0  0  0  0  0  0  0  0  0  0
    5.3644    0.1825   -0.5154 C   0  0  0  0  0  0  0  0  0  0  0  0
    5.8130    0.8232    0.6511 C   0  0  0  0  0  0  0  0  0  0  0  0
    7.1621    0.7959    1.0188 C   0  0  0  0  0  0  0  0  0  0  0  0
    8.0861    0.1167    0.2321 C   0  0  0  0  0  0  0  0  0  0  0  0
    7.6600   -0.5420   -0.9165 C   0  0  0  0  0  0  0  0  0  0  0  0
    6.3105   -0.5125   -1.2843 C   0  0  0  0  0  0  0  0  0  0  0  0
    2.9979    0.0759    0.1102 C   0  0  0  0  0  0  0  0  0  0  0  0
    3.1837   -0.0826    1.3108 O   0  0  0  0  0  0  0  0  0  0  0  0
   -2.8685   -1.3285    0.9519 C   0  0  0  0  0  0  0  0  0  0  0  0
   -4.0915   -1.3111    0.2644 C   0  0  0  0  0  0  0  0  0  0  0  0
   -6.0840   -2.0368   -1.5477 H   0  0  0  0  0  0  0  0  0  0  0  0
   -7.6211   -1.2064   -1.5194 H   0  0  0  0  0  0  0  0  0  0  0  0
   -6.9856   -1.8706   -0.0084 H   0  0  0  0  0  0  0  0  0  0  0  0
   -7.1498    1.2596    0.4896 H   0  0  0  0  0  0  0  0  0  0  0  0
   -6.4036    1.9558   -0.9825 H   0  0  0  0  0  0  0  0  0  0  0  0
   -7.8159    0.9338   -1.1140 H   0  0  0  0  0  0  0  0  0  0  0  0
   -4.6704    2.0246    0.3457 H   0  0  0  0  0  0  0  0  0  0  0  0
   -2.5644    1.9950    1.5394 H   0  0  0  0  0  0  0  0  0  0  0  0
   -1.0993   -0.2275    3.2078 H   0  0  0  0  0  0  0  0  0  0  0  0
    1.0419   -0.0982    2.2160 H   0  0  0  0  0  0  0  0  0  0  0  0
   -0.4523    0.0594   -0.5026 H   0  0  0  0  0  0  0  0  0  0  0  0
    5.1256    1.3769    1.2872 H   0  0  0  0  0  0  0  0  0  0  0  0
    7.4867    1.3061    1.9224 H   0  0  0  0  0  0  0  0  0  0  0  0
    9.1344    0.0928    0.5186 H   0  0  0  0  0  0  0  0  0  0  0  0
    8.3754   -1.0901   -1.5252 H   0  0  0  0  0  0  0  0  0  0  0  0
    6.0184   -1.0841   -2.1613 H   0  0  0  0  0  0  0  0  0  0  0  0
   -2.3584   -2.2766    1.1047 H   0  0  0  0  0  0  0  0  0  0  0  0
   -4.4658   -2.2680   -0.0856 H   0  0  0  0  0  0  0  0  0  0  0  0
  1  2  1  0
  2  3  1  0
  2  4  1  0
  4  5  2  0
  5  6  1  0
  6  7  2  0
  7  8  1  0
  8  9  2  3
  9 10  1  0
 10 11  2  3
 11 12  1  0
 12 13  1  0
 13 14  2  0
 13 15  1  0
 15 16  1  0
 16 17  2  0
 17 18  1  0
 18 19  2  0
 19 20  1  0
 20 21  2  0
 15 22  1  0
 22 23  2  0
  7 24  1  0
 24 25  2  0
 25  4  1  0
 22 11  1  0
 21 16  1  0
  1 26  1  0
  1 27  1  0
  1 28  1  0
  3 29  1  0
  3 30  1  0
  3 31  1  0
  5 32  1  0
  6 33  1  0
  8 34  1  0
  9 35  1  0
 10 36  1  0
 17 37  1  0
 18 38  1  0
 19 39  1  0
 20 40  1  0
 21 41  1  0
 24 42  1  0
 25 43  1  0
M  END
$$$$
