
     RDKit          3D

 51 55  0  0  0  0  0  0  0  0999 V2000
   -7.5579   -1.5560   -1.9878 F   0  0  0  0  0  0  0  0  0  0  0  0
   -7.0423   -0.7909   -1.0163 C   0  0  0  0  0  0  0  0  0  0  0  0
   -7.8814    0.0375   -0.2802 C   0  0  0  0  0  0  0  0  0  0  0  0
   -7.3450    0.8341    0.7294 C   0  0  0  0  0  0  0  0  0  0  0  0
   -5.9732    0.7943    0.9950 C   0  0  0  0  0  0  0  0  0  0  0  0
   -5.1263   -0.0462    0.2555 C   0  0  0  0  0  0  0  0  0  0  0  0
   -3.6410   -0.0757    0.5306 C   0  0  0  0  0  0  0  0  0  0  0  0
   -2.8845    0.9511   -0.3325 C   0  0  0  0  0  0  0  0  0  0  0  0
   -1.4227    0.9564   -0.2120 N   0  0  0  0  0  0  0  0  0  0  0  0
   -0.9271    1.3775    1.1071 C   0  0  0  0  0  0  0  0  0  0  0  0
    0.6078    1.2428    1.2378 C   0  0  0  0  0  0  0  0  0  0  0  0
    1.0913   -0.1316    0.9602 N   0  0  0  0  0  0  0  0  0  0  0  0
    2.4051   -0.2641    0.5014 C   0  0  0  0  0  0  0  0  0  0  0  0
    2.6204   -0.8764   -0.6369 N   0  0  0  0  0  0  0  0  0  0  0  0
    3.9224   -0.9897   -1.1609 C   0  0  0  0  0  0  0  0  0  0  0  0
    4.0899   -1.6396   -2.3852 C   0  0  0  0  0  0  0  0  0  0  0  0
    5.3580   -1.7680   -2.9578 C   0  0  0  0  0  0  0  0  0  0  0  0
    6.4756   -1.2438   -2.3077 C   0  0  0  0  0  0  0  0  0  0  0  0
    6.3321   -0.5913   -1.0826 C   0  0  0  0  0  0  0  0  0  0  0  0
    5.0566   -0.4704   -0.5227 C   0  0  0  0  0  0  0  0  0  0  0  0
    4.8227    0.1574    0.7112 N   0  0  0  0  0  0  0  0  0  0  0  0
    5.7178    0.7335    1.5813 C   0  0  0  0  0  0  0  0  0  0  0  0
    5.0260    1.1493    2.6977 C   0  0  0  0  0  0  0  0  0  0  0  0
    3.6641    0.8290    2.4888 C   0  0  0  0  0  0  0  0  0  0  0  0
    3.5519    0.2513    1.2363 C   0  0  0  0  0  0  0  0  0  0  0  0
    0.0569   -1.0134    0.3802 C   0  0  0  0  0  0  0  0  0  0  0  0
   -0.7655   -0.2755   -0.6953 C   0  0  0  0  0  0  0  0  0  0  0  0
   -5.6751   -0.8387   -0.7613 C   0  0  0  0  0  0  0  0  0  0  0  0
   -8.9444    0.0570   -0.4983 H   0  0  0  0  0  0  0  0  0  0  0  0
   -7.9929    1.4871    1.3099 H   0  0  0  0  0  0  0  0  0  0  0  0
   -5.5689    1.4253    1.7844 H   0  0  0  0  0  0  0  0  0  0  0  0
   -3.2687   -1.0913    0.3497 H   0  0  0  0  0  0  0  0  0  0  0  0
   -3.4789    0.1181    1.5974 H   0  0  0  0  0  0  0  0  0  0  0  0
   -3.1371    0.7966   -1.3901 H   0  0  0  0  0  0  0  0  0  0  0  0
   -3.2559    1.9588   -0.1016 H   0  0  0  0  0  0  0  0  0  0  0  0
   -1.3884    0.7887    1.9089 H   0  0  0  0  0  0  0  0  0  0  0  0
   -1.2012    2.4250    1.2793 H   0  0  0  0  0  0  0  0  0  0  0  0
    1.0828    1.9489    0.5440 H   0  0  0  0  0  0  0  0  0  0  0  0
    0.8891    1.5309    2.2550 H   0  0  0  0  0  0  0  0  0  0  0  0
    3.2207   -2.0460   -2.8950 H   0  0  0  0  0  0  0  0  0  0  0  0
    5.4707   -2.2764   -3.9119 H   0  0  0  0  0  0  0  0  0  0  0  0
    7.4603   -1.3457   -2.7572 H   0  0  0  0  0  0  0  0  0  0  0  0
    7.2158   -0.1947   -0.5945 H   0  0  0  0  0  0  0  0  0  0  0  0
    6.7733    0.7888    1.3594 H   0  0  0  0  0  0  0  0  0  0  0  0
    5.4584    1.6194    3.5715 H   0  0  0  0  0  0  0  0  0  0  0  0
    2.8557    0.9964    3.1862 H   0  0  0  0  0  0  0  0  0  0  0  0
    0.4891   -1.9298   -0.0378 H   0  0  0  0  0  0  0  0  0  0  0  0
   -0.6056   -1.3489    1.1886 H   0  0  0  0  0  0  0  0  0  0  0  0
   -0.0934    0.0183   -1.5111 H   0  0  0  0  0  0  0  0  0  0  0  0
   -1.4859   -0.9737   -1.1377 H   0  0  0  0  0  0  0  0  0  0  0  0
   -5.0516   -1.4958   -1.3607 H   0  0  0  0  0  0  0  0  0  0  0  0
  1  2  1  0
  2  3  2  0
  3  4  1  0
  4  5  2  0
  5  6  1  0
  6  7  1  0
  7  8  1  0
  8  9  1  0
  9 10  1  0
 10 11  1  0
 11 12  1  0
 12 13  1  0
 13 14  2  0
 14 15  1  0
 15 16  2  0
 16 17  1  0
 17 18  2  0
 18 19  1  0
 19 20  2  0
 20 21  1  0
 21 22  1  0
 22 23  2  0
 23 24  1  0
 24 25  2  0
 12 26  1  0
 26 27  1  0
  6 28  2  0
 28  2  1  0
 27  9  1  0
 25 13  1  0
 20 15  1  0
 25 21  1  0
  3 29  1  0
  4 30  1  0
  5 31  1  0
  7 32  1  0
  7 33  1  0
  8 34  1  0
  8 35  1  0
 10 36  1  0
 10 37  1  0
 11 38  1  0
 11 39  1  0
 16 40  1  0
 17 41  1  0
 18 42  1  0
 19 43  1  0
 22 44  1  0
 23 45  1  0
 24 46  1  0
 26 47  1  0
 26 48  1  0
 27 49  1  0
 27 50  1  0
 28 51  1  0
M  END
$$$$
