
     RDKit          3D

 52 56  0  0  0  0  0  0  0  0999 V2000
    1.2805    0.1052    4.1414 O   0  0  0  0  0  0  0  0  0  0  0  0
    1.2807   -0.7457    3.2565 C   0  0  0  0  0  0  0  0  0  0  0  0
    0.5600   -2.0714    3.4590 C   0  0  0  0  0  0  0  0  0  0  0  0
   -1.1483   -1.9846    2.8498 S   0  0  0  0  0  0  0  0  0  0  0  0
   -0.9049   -2.0447    1.1349 C   0  0  0  0  0  0  0  0  0  0  0  0
    0.2399   -2.3662    0.5726 N   0  0  0  0  0  0  0  0  0  0  0  0
    0.0604   -2.3731   -0.7781 N   0  0  0  0  0  0  0  0  0  0  0  0
   -1.2038   -2.0772   -1.0306 C   0  0  0  0  0  0  0  0  0  0  0  0
   -1.7527   -1.8763   -2.4103 C   0  0  0  0  0  0  0  0  0  0  0  0
   -2.2010   -0.4666   -2.6849 C   0  0  0  0  0  0  0  0  0  0  0  0
   -1.4702    0.7047   -2.5927 C   0  0  0  0  0  0  0  0  0  0  0  0
   -2.2396    1.8535   -2.9371 C   0  0  0  0  0  0  0  0  0  0  0  0
   -3.5281    1.5206   -3.2910 C   0  0  0  0  0  0  0  0  0  0  0  0
   -3.8007   -0.1636   -3.2308 S   0  0  0  0  0  0  0  0  0  0  0  0
   -1.8845   -1.8891    0.1706 N   0  0  0  0  0  0  0  0  0  0  0  0
   -3.2582   -1.5781    0.3492 C   0  0  0  0  0  0  0  0  0  0  0  0
   -3.6335   -0.5275    1.1943 C   0  0  0  0  0  0  0  0  0  0  0  0
   -4.9798   -0.1897    1.3270 C   0  0  0  0  0  0  0  0  0  0  0  0
   -5.9527   -0.9002    0.6258 C   0  0  0  0  0  0  0  0  0  0  0  0
   -5.5831   -1.9576   -0.2022 C   0  0  0  0  0  0  0  0  0  0  0  0
   -4.2383   -2.3027   -0.3409 C   0  0  0  0  0  0  0  0  0  0  0  0
    1.9071   -0.6498    2.0236 N   0  0  0  0  0  0  0  0  0  0  0  0
    2.6993    0.4029    1.5302 C   0  0  0  0  0  0  0  0  0  0  0  0
    3.0040    1.5608    2.2514 C   0  0  0  0  0  0  0  0  0  0  0  0
    3.8295    2.5451    1.6953 C   0  0  0  0  0  0  0  0  0  0  0  0
    4.3614    2.3707    0.4184 C   0  0  0  0  0  0  0  0  0  0  0  0
    4.0314    1.2358   -0.3201 C   0  0  0  0  0  0  0  0  0  0  0  0
    3.2115    0.2525    0.2368 C   0  0  0  0  0  0  0  0  0  0  0  0
    4.4915    1.0081   -1.5971 O   0  0  0  0  0  0  0  0  0  0  0  0
    5.0811    2.1854   -2.1708 C   0  0  0  0  0  0  0  0  0  0  0  0
    5.9730    2.8899   -1.1617 C   0  0  0  0  0  0  0  0  0  0  0  0
    5.1996    3.3551   -0.0480 O   0  0  0  0  0  0  0  0  0  0  0  0
    1.1095   -2.8931    2.9939 H   0  0  0  0  0  0  0  0  0  0  0  0
    0.5351   -2.2797    4.5346 H   0  0  0  0  0  0  0  0  0  0  0  0
   -2.5428   -2.6095   -2.6112 H   0  0  0  0  0  0  0  0  0  0  0  0
   -0.9543   -2.1088   -3.1331 H   0  0  0  0  0  0  0  0  0  0  0  0
   -0.4282    0.7369   -2.2883 H   0  0  0  0  0  0  0  0  0  0  0  0
   -1.8691    2.8696   -2.9229 H   0  0  0  0  0  0  0  0  0  0  0  0
   -4.3293    2.1843   -3.5903 H   0  0  0  0  0  0  0  0  0  0  0  0
   -2.8973    0.0800    1.7168 H   0  0  0  0  0  0  0  0  0  0  0  0
   -5.2656    0.6403    1.9653 H   0  0  0  0  0  0  0  0  0  0  0  0
   -6.9997   -0.6182    0.7151 H   0  0  0  0  0  0  0  0  0  0  0  0
   -6.3471   -2.5110   -0.7465 H   0  0  0  0  0  0  0  0  0  0  0  0
   -3.9853   -3.1470   -0.9748 H   0  0  0  0  0  0  0  0  0  0  0  0
    1.7173   -1.4030    1.3615 H   0  0  0  0  0  0  0  0  0  0  0  0
    2.6139    1.7341    3.2504 H   0  0  0  0  0  0  0  0  0  0  0  0
    4.0675    3.4382    2.2629 H   0  0  0  0  0  0  0  0  0  0  0  0
    2.9795   -0.6327   -0.3548 H   0  0  0  0  0  0  0  0  0  0  0  0
    5.6742    1.8717   -3.0369 H   0  0  0  0  0  0  0  0  0  0  0  0
    4.2717    2.8423   -2.5274 H   0  0  0  0  0  0  0  0  0  0  0  0
    6.4576    3.7592   -1.6242 H   0  0  0  0  0  0  0  0  0  0  0  0
    6.7606    2.2203   -0.7868 H   0  0  0  0  0  0  0  0  0  0  0  0
  1  2  2  0
  2  3  1  0
  3  4  1  0
  4  5  1  0
  5  6  2  0
  6  7  1  0
  7  8  2  0
  8  9  1  0
  9 10  1  0
 10 11  2  0
 11 12  1  0
 12 13  2  0
 13 14  1  0
  8 15  1  0
 15 16  1  0
 16 17  2  0
 17 18  1  0
 18 19  2  0
 19 20  1  0
 20 21  2  0
  2 22  1  0
 22 23  1  0
 23 24  2  0
 24 25  1  0
 25 26  2  0
 26 27  1  0
 27 28  2  0
 27 29  1  0
 29 30  1  0
 30 31  1  0
 31 32  1  0
 15  5  1  0
 21 16  1  0
 28 23  1  0
 14 10  1  0
 32 26  1  0
  3 33  1  0
  3 34  1  0
  9 35  1  0
  9 36  1  0
 11 37  1  0
 12 38  1  0
 13 39  1  0
 17 40  1  0
 18 41  1  0
 19 42  1  0
 20 43  1  0
 21 44  1  0
 22 45  1  0
 24 46  1  0
 25 47  1  0
 28 48  1  0
 30 49  1  0
 30 50  1  0
 31 51  1  0
 31 52  1  0
M  END
$$$$
