
     RDKit          3D

 31 31  0  0  0  0  0  0  0  0999 V2000
    5.4299   -0.1737    1.0100 C   0  0  0  0  0  0  0  0  0  0  0  0
    4.2935    0.4307    0.4109 O   0  0  0  0  0  0  0  0  0  0  0  0
    3.0805   -0.0930    0.9460 C   0  0  0  0  0  0  0  0  0  0  0  0
    1.9716    0.5513    0.3158 O   0  0  0  0  0  0  0  0  0  0  0  0
    0.7634    0.0317    0.7140 C   0  0  0  0  0  0  0  0  0  0  0  0
   -0.3594    0.2096   -0.0003 C   0  0  0  0  0  0  0  0  0  0  0  0
   -0.3017    0.9291   -1.1731 N   0  0  0  0  0  0  0  0  0  0  0  0
   -1.3262    1.2182   -2.0528 C   0  0  0  0  0  0  0  0  0  0  0  0
   -0.8596    2.0410   -3.2275 C   0  0  0  0  0  0  0  0  0  0  0  0
   -2.4939    0.8557   -1.9648 O   0  0  0  0  0  0  0  0  0  0  0  0
   -1.6072   -0.3747    0.5088 C   0  0  0  0  0  0  0  0  0  0  0  0
   -2.4100    0.3432    1.4052 C   0  0  0  0  0  0  0  0  0  0  0  0
   -3.5723   -0.2301    1.9249 C   0  0  0  0  0  0  0  0  0  0  0  0
   -3.9373   -1.5243    1.5555 C   0  0  0  0  0  0  0  0  0  0  0  0
   -3.1437   -2.2461    0.6647 C   0  0  0  0  0  0  0  0  0  0  0  0
   -1.9807   -1.6749    0.1440 C   0  0  0  0  0  0  0  0  0  0  0  0
    6.3277    0.2630    0.5643 H   0  0  0  0  0  0  0  0  0  0  0  0
    5.4360   -1.2516    0.8214 H   0  0  0  0  0  0  0  0  0  0  0  0
    5.4454    0.0205    2.0868 H   0  0  0  0  0  0  0  0  0  0  0  0
    3.0493    0.1010    2.0253 H   0  0  0  0  0  0  0  0  0  0  0  0
    3.0392   -1.1723    0.7518 H   0  0  0  0  0  0  0  0  0  0  0  0
    0.7807   -0.5124    1.6504 H   0  0  0  0  0  0  0  0  0  0  0  0
    0.6248    1.2817   -1.3959 H   0  0  0  0  0  0  0  0  0  0  0  0
   -0.0584    2.7264   -2.9365 H   0  0  0  0  0  0  0  0  0  0  0  0
   -1.6944    2.6385   -3.6050 H   0  0  0  0  0  0  0  0  0  0  0  0
   -0.5024    1.3738   -4.0161 H   0  0  0  0  0  0  0  0  0  0  0  0
   -2.1391    1.3565    1.6909 H   0  0  0  0  0  0  0  0  0  0  0  0
   -4.1973    0.3370    2.6092 H   0  0  0  0  0  0  0  0  0  0  0  0
   -4.8475   -1.9659    1.9525 H   0  0  0  0  0  0  0  0  0  0  0  0
   -3.4354   -3.2493    0.3663 H   0  0  0  0  0  0  0  0  0  0  0  0
   -1.3754   -2.2406   -0.5595 H   0  0  0  0  0  0  0  0  0  0  0  0
  1  2  1  0
  2  3  1  0
  3  4  1  0
  4  5  1  0
  5  6  2  3
  6  7  1  0
  7  8  1  0
  8  9  1  0
  8 10  2  0
  6 11  1  0
 11 12  2  0
 12 13  1  0
 13 14  2  0
 14 15  1  0
 15 16  2  0
 16 11  1  0
  1 17  1  0
  1 18  1  0
  1 19  1  0
  3 20  1  0
  3 21  1  0
  5 22  1  0
  7 23  1  0
  9 24  1  0
  9 25  1  0
  9 26  1  0
 12 27  1  0
 13 28  1  0
 14 29  1  0
 15 30  1  0
 16 31  1  0
M  END
$$$$
