
     RDKit          3D

 57 60  0  0  0  0  0  0  0  0999 V2000
   -4.9357   -2.4273    1.1476 C   0  0  0  0  0  0  0  0  0  0  0  0
   -3.8917   -2.7016    0.0663 C   0  0  0  0  0  0  0  0  0  0  0  0
   -4.2312   -3.9987   -0.6695 C   0  0  0  0  0  0  0  0  0  0  0  0
   -3.8411   -1.5245   -0.9117 C   0  0  0  0  0  0  0  0  0  0  0  0
   -4.5040   -1.5425   -1.9505 O   0  0  0  0  0  0  0  0  0  0  0  0
   -3.0714   -0.4247   -0.5624 N   0  0  0  0  0  0  0  0  0  0  0  0
   -3.0147    0.7237   -1.4792 C   0  0  0  0  0  0  0  0  0  0  0  0
   -1.5869    1.2712   -1.6514 C   0  0  0  0  0  0  0  0  0  0  0  0
   -0.9193    1.5735   -0.3577 N   0  0  0  0  0  0  0  0  0  0  0  0
   -0.5945    2.9478   -0.1856 C   0  0  0  0  0  0  0  0  0  0  0  0
   -1.5625    3.9617   -0.2186 C   0  0  0  0  0  0  0  0  0  0  0  0
   -1.1986    5.2931   -0.0113 C   0  0  0  0  0  0  0  0  0  0  0  0
    0.1333    5.6234    0.2343 C   0  0  0  0  0  0  0  0  0  0  0  0
    1.1119    4.6277    0.2695 C   0  0  0  0  0  0  0  0  0  0  0  0
    0.7575    3.2963    0.0565 C   0  0  0  0  0  0  0  0  0  0  0  0
    1.6702    2.2215    0.0530 N   0  0  0  0  0  0  0  0  0  0  0  0
    3.0336    2.2505    0.2352 C   0  0  0  0  0  0  0  0  0  0  0  0
    3.7260    3.2452    0.4178 O   0  0  0  0  0  0  0  0  0  0  0  0
    3.7067    0.9199    0.1689 C   0  0  0  0  0  0  0  0  0  0  0  0
    5.0294    0.8652   -0.2943 C   0  0  0  0  0  0  0  0  0  0  0  0
    5.6987   -0.3582   -0.3752 C   0  0  0  0  0  0  0  0  0  0  0  0
    5.0530   -1.5275    0.0175 C   0  0  0  0  0  0  0  0  0  0  0  0
    3.7298   -1.4797    0.4692 C   0  0  0  0  0  0  0  0  0  0  0  0
    3.0622   -0.2592    0.5657 C   0  0  0  0  0  0  0  0  0  0  0  0
    3.0254   -2.5941    0.8487 O   0  0  0  0  0  0  0  0  0  0  0  0
    3.6639   -3.7937    0.3941 C   0  0  0  0  0  0  0  0  0  0  0  0
    5.1573   -3.7462    0.6714 C   0  0  0  0  0  0  0  0  0  0  0  0
    5.7760   -2.6889   -0.0691 O   0  0  0  0  0  0  0  0  0  0  0  0
   -1.6004    1.0363    0.8449 C   0  0  0  0  0  0  0  0  0  0  0  0
   -2.1413   -0.3784    0.5752 C   0  0  0  0  0  0  0  0  0  0  0  0
   -5.9379   -2.3399    0.7129 H   0  0  0  0  0  0  0  0  0  0  0  0
   -4.7374   -1.4927    1.6801 H   0  0  0  0  0  0  0  0  0  0  0  0
   -4.9543   -3.2378    1.8834 H   0  0  0  0  0  0  0  0  0  0  0  0
   -2.9078   -2.8394    0.5265 H   0  0  0  0  0  0  0  0  0  0  0  0
   -3.5083   -4.1910   -1.4696 H   0  0  0  0  0  0  0  0  0  0  0  0
   -4.2107   -4.8505    0.0177 H   0  0  0  0  0  0  0  0  0  0  0  0
   -5.2262   -3.9570   -1.1256 H   0  0  0  0  0  0  0  0  0  0  0  0
   -3.6643    1.4961   -1.0507 H   0  0  0  0  0  0  0  0  0  0  0  0
   -3.4240    0.4640   -2.4604 H   0  0  0  0  0  0  0  0  0  0  0  0
   -1.5977    2.1349   -2.3278 H   0  0  0  0  0  0  0  0  0  0  0  0
   -0.9786    0.5021   -2.1446 H   0  0  0  0  0  0  0  0  0  0  0  0
   -2.6067    3.7246   -0.3963 H   0  0  0  0  0  0  0  0  0  0  0  0
   -1.9544    6.0742   -0.0376 H   0  0  0  0  0  0  0  0  0  0  0  0
    0.4170    6.6604    0.3977 H   0  0  0  0  0  0  0  0  0  0  0  0
    2.1402    4.9181    0.4589 H   0  0  0  0  0  0  0  0  0  0  0  0
    1.2092    1.3483   -0.1837 H   0  0  0  0  0  0  0  0  0  0  0  0
    5.5410    1.7783   -0.5929 H   0  0  0  0  0  0  0  0  0  0  0  0
    6.7245   -0.3947   -0.7319 H   0  0  0  0  0  0  0  0  0  0  0  0
    2.0520   -0.2465    0.9620 H   0  0  0  0  0  0  0  0  0  0  0  0
    3.4575   -3.9143   -0.6765 H   0  0  0  0  0  0  0  0  0  0  0  0
    3.2071   -4.6338    0.9265 H   0  0  0  0  0  0  0  0  0  0  0  0
    5.3622   -3.5918    1.7383 H   0  0  0  0  0  0  0  0  0  0  0  0
    5.6291   -4.6850    0.3658 H   0  0  0  0  0  0  0  0  0  0  0  0
   -0.8891    0.9947    1.6786 H   0  0  0  0  0  0  0  0  0  0  0  0
   -2.4363    1.6806    1.1481 H   0  0  0  0  0  0  0  0  0  0  0  0
   -1.3124   -1.0558    0.3359 H   0  0  0  0  0  0  0  0  0  0  0  0
   -2.6354   -0.7578    1.4726 H   0  0  0  0  0  0  0  0  0  0  0  0
  1  2  1  0
  2  3  1  0
  2  4  1  0
  4  5  2  0
  4  6  1  0
  6  7  1  0
  7  8  1  0
  8  9  1  0
  9 10  1  0
 10 11  2  0
 11 12  1  0
 12 13  2  0
 13 14  1  0
 14 15  2  0
 15 16  1  0
 16 17  1  0
 17 18  2  0
 17 19  1  0
 19 20  2  0
 20 21  1  0
 21 22  2  0
 22 23  1  0
 23 24  2  0
 23 25  1  0
 25 26  1  0
 26 27  1  0
 27 28  1  0
  9 29  1  0
 29 30  1  0
 30  6  1  0
 15 10  1  0
 24 19  1  0
 28 22  1  0
  1 31  1  0
  1 32  1  0
  1 33  1  0
  2 34  1  0
  3 35  1  0
  3 36  1  0
  3 37  1  0
  7 38  1  0
  7 39  1  0
  8 40  1  0
  8 41  1  0
 11 42  1  0
 12 43  1  0
 13 44  1  0
 14 45  1  0
 16 46  1  0
 20 47  1  0
 21 48  1  0
 24 49  1  0
 26 50  1  0
 26 51  1  0
 27 52  1  0
 27 53  1  0
 29 54  1  0
 29 55  1  0
 30 56  1  0
 30 57  1  0
M  END
$$$$
