
     RDKit          3D

 47 50  0  0  0  0  0  0  0  0999 V2000
   -3.9438    3.0497    0.8479 C   0  0  0  0  0  0  0  0  0  0  0  0
   -3.9894    1.5249    0.9593 C   0  0  0  0  0  0  0  0  0  0  0  0
   -2.5979    0.9362    1.1386 C   0  0  0  0  0  0  0  0  0  0  0  0
   -1.7869    0.9075   -0.1383 C   0  0  0  0  0  0  0  0  0  0  0  0
   -0.9451    1.7855   -0.3572 O   0  0  0  0  0  0  0  0  0  0  0  0
   -1.9494   -0.1810   -0.9884 N   0  0  0  0  0  0  0  0  0  0  0  0
   -1.0424   -0.2881   -2.1375 C   0  0  0  0  0  0  0  0  0  0  0  0
    0.3325   -0.8442   -1.7454 C   0  0  0  0  0  0  0  0  0  0  0  0
    0.6495   -1.9951   -2.0365 O   0  0  0  0  0  0  0  0  0  0  0  0
    1.1070    0.0717   -1.0539 N   0  0  0  0  0  0  0  0  0  0  0  0
    2.4112   -0.0966   -0.5512 C   0  0  0  0  0  0  0  0  0  0  0  0
    3.1781   -1.2495   -0.7383 C   0  0  0  0  0  0  0  0  0  0  0  0
    4.4722   -1.3346   -0.2120 C   0  0  0  0  0  0  0  0  0  0  0  0
    5.0071   -0.2661    0.5004 C   0  0  0  0  0  0  0  0  0  0  0  0
    4.2381    0.8796    0.7141 C   0  0  0  0  0  0  0  0  0  0  0  0
    2.9532    0.9702    0.1778 C   0  0  0  0  0  0  0  0  0  0  0  0
    4.6831    1.9597    1.4341 O   0  0  0  0  0  0  0  0  0  0  0  0
    5.8437    1.6290    2.2058 C   0  0  0  0  0  0  0  0  0  0  0  0
    6.8414    0.8471    1.3675 C   0  0  0  0  0  0  0  0  0  0  0  0
    6.2879   -0.4115    0.9669 O   0  0  0  0  0  0  0  0  0  0  0  0
   -2.9869   -1.1565   -0.8517 C   0  0  0  0  0  0  0  0  0  0  0  0
   -2.6790   -2.5124   -1.0546 C   0  0  0  0  0  0  0  0  0  0  0  0
   -3.6546   -3.5022   -0.9147 C   0  0  0  0  0  0  0  0  0  0  0  0
   -4.9594   -3.1527   -0.5884 C   0  0  0  0  0  0  0  0  0  0  0  0
   -5.2927   -1.8109   -0.4125 C   0  0  0  0  0  0  0  0  0  0  0  0
   -4.3193   -0.8074   -0.5374 C   0  0  0  0  0  0  0  0  0  0  0  0
   -4.9094    0.8821   -0.4834 S   0  0  0  0  0  0  0  0  0  0  0  0
   -3.3967    3.3815   -0.0417 H   0  0  0  0  0  0  0  0  0  0  0  0
   -3.4451    3.4825    1.7225 H   0  0  0  0  0  0  0  0  0  0  0  0
   -4.9521    3.4777    0.8094 H   0  0  0  0  0  0  0  0  0  0  0  0
   -4.5784    1.2739    1.8494 H   0  0  0  0  0  0  0  0  0  0  0  0
   -2.6487   -0.0746    1.5620 H   0  0  0  0  0  0  0  0  0  0  0  0
   -2.0332    1.5145    1.8816 H   0  0  0  0  0  0  0  0  0  0  0  0
   -1.4778   -0.9177   -2.9222 H   0  0  0  0  0  0  0  0  0  0  0  0
   -0.9026    0.7046   -2.5836 H   0  0  0  0  0  0  0  0  0  0  0  0
    0.6532    0.9620   -0.8365 H   0  0  0  0  0  0  0  0  0  0  0  0
    2.8025   -2.1012   -1.2965 H   0  0  0  0  0  0  0  0  0  0  0  0
    5.0625   -2.2327   -0.3714 H   0  0  0  0  0  0  0  0  0  0  0  0
    2.3788    1.8774    0.3468 H   0  0  0  0  0  0  0  0  0  0  0  0
    5.5252    1.0585    3.0871 H   0  0  0  0  0  0  0  0  0  0  0  0
    6.2911    2.5667    2.5498 H   0  0  0  0  0  0  0  0  0  0  0  0
    7.7456    0.6416    1.9490 H   0  0  0  0  0  0  0  0  0  0  0  0
    7.1327    1.4026    0.4673 H   0  0  0  0  0  0  0  0  0  0  0  0
   -1.6665   -2.8320   -1.2900 H   0  0  0  0  0  0  0  0  0  0  0  0
   -3.3900   -4.5470   -1.0616 H   0  0  0  0  0  0  0  0  0  0  0  0
   -5.7220   -3.9212   -0.4889 H   0  0  0  0  0  0  0  0  0  0  0  0
   -6.3276   -1.5515   -0.1974 H   0  0  0  0  0  0  0  0  0  0  0  0
  1  2  1  0
  2  3  1  0
  3  4  1  0
  4  5  2  0
  4  6  1  0
  6  7  1  0
  7  8  1  0
  8  9  2  0
  8 10  1  0
 10 11  1  0
 11 12  2  0
 12 13  1  0
 13 14  2  0
 14 15  1  0
 15 16  2  0
 15 17  1  0
 17 18  1  0
 18 19  1  0
 19 20  1  0
  6 21  1  0
 21 22  2  0
 22 23  1  0
 23 24  2  0
 24 25  1  0
 25 26  2  0
 26 27  1  0
 27  2  1  0
 16 11  1  0
 26 21  1  0
 20 14  1  0
  1 28  1  0
  1 29  1  0
  1 30  1  0
  2 31  1  0
  3 32  1  0
  3 33  1  0
  7 34  1  0
  7 35  1  0
 10 36  1  0
 12 37  1  0
 13 38  1  0
 16 39  1  0
 18 40  1  0
 18 41  1  0
 19 42  1  0
 19 43  1  0
 22 44  1  0
 23 45  1  0
 24 46  1  0
 25 47  1  0
M  END
$$$$
