
     RDKit          3D

 36 37  0  0  0  0  0  0  0  0999 V2000
   -0.9544    3.1232    0.7911 O   0  0  0  0  0  0  0  0  0  0  0  0
   -0.2425    2.1312    0.9136 C   0  0  0  0  0  0  0  0  0  0  0  0
    1.0642    2.1559    1.7099 C   0  0  0  0  0  0  0  0  0  0  0  0
    1.9196    1.0339    1.4678 O   0  0  0  0  0  0  0  0  0  0  0  0
    2.7093    1.1518    0.3715 C   0  0  0  0  0  0  0  0  0  0  0  0
    2.7176    2.0904   -0.4061 O   0  0  0  0  0  0  0  0  0  0  0  0
    3.5703   -0.0509    0.2144 C   0  0  0  0  0  0  0  0  0  0  0  0
    4.3780   -0.1392   -0.9293 C   0  0  0  0  0  0  0  0  0  0  0  0
    5.2022   -1.2485   -1.1283 C   0  0  0  0  0  0  0  0  0  0  0  0
    5.2240   -2.2753   -0.1854 C   0  0  0  0  0  0  0  0  0  0  0  0
    4.4235   -2.1878    0.9528 C   0  0  0  0  0  0  0  0  0  0  0  0
    4.4530   -3.4579    2.1138 Cl  0  0  0  0  0  0  0  0  0  0  0  0
    3.5975   -1.0833    1.1609 C   0  0  0  0  0  0  0  0  0  0  0  0
   -0.5854    0.8934    0.4146 N   0  0  0  0  0  0  0  0  0  0  0  0
   -1.7923    0.6754   -0.3614 C   0  0  0  0  0  0  0  0  0  0  0  0
   -3.0634    0.6666    0.4959 C   0  0  0  0  0  0  0  0  0  0  0  0
   -4.2095    0.1459   -0.2300 N   0  0  0  0  0  0  0  0  0  0  0  0
   -4.4992   -1.1930   -0.3260 C   0  0  0  0  0  0  0  0  0  0  0  0
   -3.6947   -2.0904    0.3103 O   0  0  0  0  0  0  0  0  0  0  0  0
   -5.5742   -1.4784   -1.0693 C   0  0  0  0  0  0  0  0  0  0  0  0
   -6.2903   -0.0353   -1.7189 S   0  0  0  0  0  0  0  0  0  0  0  0
   -5.0528    0.9792   -0.9475 C   0  0  0  0  0  0  0  0  0  0  0  0
   -5.0016    2.1900   -1.0739 O   0  0  0  0  0  0  0  0  0  0  0  0
    0.7981    2.1333    2.7719 H   0  0  0  0  0  0  0  0  0  0  0  0
    1.5889    3.0994    1.5197 H   0  0  0  0  0  0  0  0  0  0  0  0
    4.3683    0.6586   -1.6714 H   0  0  0  0  0  0  0  0  0  0  0  0
    5.8264   -1.3100   -2.0171 H   0  0  0  0  0  0  0  0  0  0  0  0
    5.8670   -3.1380   -0.3422 H   0  0  0  0  0  0  0  0  0  0  0  0
    2.9885   -1.0357    2.0594 H   0  0  0  0  0  0  0  0  0  0  0  0
    0.0271    0.1101    0.6053 H   0  0  0  0  0  0  0  0  0  0  0  0
   -1.6622   -0.2842   -0.8734 H   0  0  0  0  0  0  0  0  0  0  0  0
   -1.8623    1.4537   -1.1301 H   0  0  0  0  0  0  0  0  0  0  0  0
   -2.9164    0.0708    1.4050 H   0  0  0  0  0  0  0  0  0  0  0  0
   -3.2901    1.6871    0.8270 H   0  0  0  0  0  0  0  0  0  0  0  0
   -4.0617   -2.9800    0.1691 H   0  0  0  0  0  0  0  0  0  0  0  0
   -5.9706   -2.4620   -1.2730 H   0  0  0  0  0  0  0  0  0  0  0  0
  1  2  2  0
  2  3  1  0
  3  4  1  0
  4  5  1  0
  5  6  2  0
  5  7  1  0
  7  8  2  0
  8  9  1  0
  9 10  2  0
 10 11  1  0
 11 12  1  0
 11 13  2  0
  2 14  1  0
 14 15  1  0
 15 16  1  0
 16 17  1  0
 17 18  1  0
 18 19  1  0
 18 20  2  0
 20 21  1  0
 21 22  1  0
 22 23  2  0
 13  7  1  0
 22 17  1  0
  3 24  1  0
  3 25  1  0
  8 26  1  0
  9 27  1  0
 10 28  1  0
 13 29  1  0
 14 30  1  0
 15 31  1  0
 15 32  1  0
 16 33  1  0
 16 34  1  0
 19 35  1  0
 20 36  1  0
M  END
$$$$
