
     RDKit          3D

 54 57  0  0  0  0  0  0  0  0999 V2000
   -4.3956   -0.8830   -4.3215 C   0  0  0  0  0  0  0  0  0  0  0  0
   -3.7423   -1.4648   -3.2003 O   0  0  0  0  0  0  0  0  0  0  0  0
   -3.2799   -0.6090   -2.2389 C   0  0  0  0  0  0  0  0  0  0  0  0
   -2.6818   -1.2378   -1.1408 C   0  0  0  0  0  0  0  0  0  0  0  0
   -2.1643   -0.4876   -0.0839 C   0  0  0  0  0  0  0  0  0  0  0  0
   -2.2341    0.9038   -0.1406 C   0  0  0  0  0  0  0  0  0  0  0  0
   -1.6881    1.7159    0.9656 C   0  0  0  0  0  0  0  0  0  0  0  0
   -2.5209    2.1313    1.8659 N   0  0  0  0  0  0  0  0  0  0  0  0
   -2.0358    2.9029    2.9261 C   0  0  0  0  0  0  0  0  0  0  0  0
   -2.9345    3.3634    3.8913 C   0  0  0  0  0  0  0  0  0  0  0  0
   -2.4899    4.1335    4.9699 C   0  0  0  0  0  0  0  0  0  0  0  0
   -1.1371    4.4491    5.0922 C   0  0  0  0  0  0  0  0  0  0  0  0
   -0.2305    3.9947    4.1354 C   0  0  0  0  0  0  0  0  0  0  0  0
   -0.6886    3.2250    3.0589 C   0  0  0  0  0  0  0  0  0  0  0  0
    0.2383    2.7275    2.0296 C   0  0  0  0  0  0  0  0  0  0  0  0
    1.4413    2.9559    2.1355 O   0  0  0  0  0  0  0  0  0  0  0  0
   -0.3247    1.9984    0.9826 N   0  0  0  0  0  0  0  0  0  0  0  0
    0.6067    1.5316   -0.0522 C   0  0  0  0  0  0  0  0  0  0  0  0
    1.3945    0.2919    0.3828 C   0  0  0  0  0  0  0  0  0  0  0  0
    2.0350   -0.2516   -0.7725 O   0  0  0  0  0  0  0  0  0  0  0  0
    2.6671   -1.4590   -0.6306 C   0  0  0  0  0  0  0  0  0  0  0  0
    2.9289   -2.0828    0.5920 C   0  0  0  0  0  0  0  0  0  0  0  0
    3.5855   -3.3167    0.6317 C   0  0  0  0  0  0  0  0  0  0  0  0
    4.0044   -3.9377   -0.5477 C   0  0  0  0  0  0  0  0  0  0  0  0
    4.6805   -5.2759   -0.5064 C   0  0  0  0  0  0  0  0  0  0  0  0
    3.7361   -3.3162   -1.7725 C   0  0  0  0  0  0  0  0  0  0  0  0
    3.0768   -2.0772   -1.8248 C   0  0  0  0  0  0  0  0  0  0  0  0
    2.8112   -1.4296   -3.1560 C   0  0  0  0  0  0  0  0  0  0  0  0
   -2.8446    1.5457   -1.2200 C   0  0  0  0  0  0  0  0  0  0  0  0
   -3.3632    0.7858   -2.2730 C   0  0  0  0  0  0  0  0  0  0  0  0
   -5.2895   -0.3296   -4.0157 H   0  0  0  0  0  0  0  0  0  0  0  0
   -3.7101   -0.2454   -4.8893 H   0  0  0  0  0  0  0  0  0  0  0  0
   -4.7166   -1.6957   -4.9803 H   0  0  0  0  0  0  0  0  0  0  0  0
   -2.6253   -2.3237   -1.1092 H   0  0  0  0  0  0  0  0  0  0  0  0
   -1.7212   -0.9892    0.7712 H   0  0  0  0  0  0  0  0  0  0  0  0
   -3.9894    3.1169    3.7986 H   0  0  0  0  0  0  0  0  0  0  0  0
   -3.2014    4.4847    5.7134 H   0  0  0  0  0  0  0  0  0  0  0  0
   -0.7899    5.0477    5.9309 H   0  0  0  0  0  0  0  0  0  0  0  0
    0.8253    4.2387    4.2269 H   0  0  0  0  0  0  0  0  0  0  0  0
    1.3135    2.3384   -0.2858 H   0  0  0  0  0  0  0  0  0  0  0  0
    0.0812    1.3320   -0.9909 H   0  0  0  0  0  0  0  0  0  0  0  0
    0.7099   -0.4470    0.8149 H   0  0  0  0  0  0  0  0  0  0  0  0
    2.1443    0.5723    1.1313 H   0  0  0  0  0  0  0  0  0  0  0  0
    2.6428   -1.6335    1.5373 H   0  0  0  0  0  0  0  0  0  0  0  0
    3.7726   -3.7865    1.5949 H   0  0  0  0  0  0  0  0  0  0  0  0
    5.3899   -5.3805   -1.3342 H   0  0  0  0  0  0  0  0  0  0  0  0
    5.2468   -5.3998    0.4227 H   0  0  0  0  0  0  0  0  0  0  0  0
    3.9351   -6.0741   -0.5753 H   0  0  0  0  0  0  0  0  0  0  0  0
    4.0461   -3.8002   -2.6970 H   0  0  0  0  0  0  0  0  0  0  0  0
    1.7347   -1.2946   -3.3038 H   0  0  0  0  0  0  0  0  0  0  0  0
    3.3115   -0.4572   -3.2108 H   0  0  0  0  0  0  0  0  0  0  0  0
    3.1850   -2.0420   -3.9835 H   0  0  0  0  0  0  0  0  0  0  0  0
   -2.9192    2.6298   -1.2425 H   0  0  0  0  0  0  0  0  0  0  0  0
   -3.8264    1.3109   -3.1015 H   0  0  0  0  0  0  0  0  0  0  0  0
  1  2  1  0
  2  3  1  0
  3  4  2  0
  4  5  1  0
  5  6  2  0
  6  7  1  0
  7  8  2  0
  8  9  1  0
  9 10  2  0
 10 11  1  0
 11 12  2  0
 12 13  1  0
 13 14  2  0
 14 15  1  0
 15 16  2  0
 15 17  1  0
 17 18  1  0
 18 19  1  0
 19 20  1  0
 20 21  1  0
 21 22  2  0
 22 23  1  0
 23 24  2  0
 24 25  1  0
 24 26  1  0
 26 27  2  0
 27 28  1  0
  6 29  1  0
 29 30  2  0
 30  3  1  0
 17  7  1  0
 27 21  1  0
 14  9  1  0
  1 31  1  0
  1 32  1  0
  1 33  1  0
  4 34  1  0
  5 35  1  0
 10 36  1  0
 11 37  1  0
 12 38  1  0
 13 39  1  0
 18 40  1  0
 18 41  1  0
 19 42  1  0
 19 43  1  0
 22 44  1  0
 23 45  1  0
 25 46  1  0
 25 47  1  0
 25 48  1  0
 26 49  1  0
 28 50  1  0
 28 51  1  0
 28 52  1  0
 29 53  1  0
 30 54  1  0
M  END
$$$$
