
     RDKit          3D

 61 67  0  0  0  0  0  0  0  0999 V2000
    3.4089   -0.1895    2.8730 O   0  0  0  0  0  0  0  0  0  0  0  0
    3.2636   -0.0997    1.6565 C   0  0  0  0  0  0  0  0  0  0  0  0
    4.2970    0.6468    0.9100 C   0  0  0  0  0  0  0  0  0  0  0  0
    4.5286    1.9982    1.2409 C   0  0  0  0  0  0  0  0  0  0  0  0
    5.5220    2.7245    0.5771 C   0  0  0  0  0  0  0  0  0  0  0  0
    6.2605    2.0665   -0.3847 C   0  0  0  0  0  0  0  0  0  0  0  0
    6.0454    0.7400   -0.6882 C   0  0  0  0  0  0  0  0  0  0  0  0
    5.0751   -0.0057   -0.0547 C   0  0  0  0  0  0  0  0  0  0  0  0
    6.8898    0.2861   -1.6528 O   0  0  0  0  0  0  0  0  0  0  0  0
    7.6666    1.4749   -1.9172 C   0  0  0  0  0  0  0  0  0  0  0  0
    7.2649    2.6103   -1.1228 O   0  0  0  0  0  0  0  0  0  0  0  0
    2.1905   -0.6560    0.9636 N   0  0  0  0  0  0  0  0  0  0  0  0
    1.3308   -1.6063    1.6574 C   0  0  0  0  0  0  0  0  0  0  0  0
   -0.1409   -1.2347    1.5014 C   0  0  0  0  0  0  0  0  0  0  0  0
   -0.5449   -1.0749    0.0148 C   0  0  0  0  0  0  0  0  0  0  0  0
    0.4331   -0.0781   -0.6637 C   0  0  0  0  0  0  0  0  0  0  0  0
    1.8992   -0.4617   -0.4557 C   0  0  0  0  0  0  0  0  0  0  0  0
   -0.2959   -2.3279   -0.6768 O   0  0  0  0  0  0  0  0  0  0  0  0
   -1.2591   -3.2906   -0.6287 C   0  0  0  0  0  0  0  0  0  0  0  0
   -0.8864   -4.5526   -1.0935 C   0  0  0  0  0  0  0  0  0  0  0  0
   -1.8006   -5.6092   -1.0663 C   0  0  0  0  0  0  0  0  0  0  0  0
   -3.0890   -5.3999   -0.5740 C   0  0  0  0  0  0  0  0  0  0  0  0
   -4.2099   -6.7038   -0.5379 Cl  0  0  0  0  0  0  0  0  0  0  0  0
   -3.4729   -4.1425   -0.1153 C   0  0  0  0  0  0  0  0  0  0  0  0
   -2.5521   -3.0902   -0.1582 C   0  0  0  0  0  0  0  0  0  0  0  0
   -2.9336   -1.7472    0.2979 C   0  0  0  0  0  0  0  0  0  0  0  0
   -3.9288   -1.6047    1.0035 O   0  0  0  0  0  0  0  0  0  0  0  0
   -2.0208   -0.6095   -0.1463 C   0  0  0  0  0  0  0  0  0  0  0  0
   -2.3826    0.6896    0.5611 C   0  0  0  0  0  0  0  0  0  0  0  0
   -3.2614    1.2866   -0.4849 C   0  0  0  0  0  0  0  0  0  0  0  0
   -4.1134    2.4693   -0.2151 C   0  0  0  0  0  0  0  0  0  0  0  0
   -4.9424    2.9528   -1.2359 C   0  0  0  0  0  0  0  0  0  0  0  0
   -5.7499    4.0708   -1.0172 C   0  0  0  0  0  0  0  0  0  0  0  0
   -5.7325    4.7115    0.2207 C   0  0  0  0  0  0  0  0  0  0  0  0
   -4.9094    4.2358    1.2410 C   0  0  0  0  0  0  0  0  0  0  0  0
   -4.0992    3.1172    1.0260 C   0  0  0  0  0  0  0  0  0  0  0  0
   -3.1897    0.7158   -1.6455 N   0  0  0  0  0  0  0  0  0  0  0  0
   -2.2955   -0.3697   -1.5373 O   0  0  0  0  0  0  0  0  0  0  0  0
    3.9365    2.4725    2.0211 H   0  0  0  0  0  0  0  0  0  0  0  0
    5.7145    3.7650    0.8150 H   0  0  0  0  0  0  0  0  0  0  0  0
    4.9313   -1.0544   -0.2880 H   0  0  0  0  0  0  0  0  0  0  0  0
    7.5606    1.7336   -2.9773 H   0  0  0  0  0  0  0  0  0  0  0  0
    8.7209    1.2582   -1.7105 H   0  0  0  0  0  0  0  0  0  0  0  0
    1.5800   -1.6616    2.7222 H   0  0  0  0  0  0  0  0  0  0  0  0
    1.5308   -2.5978    1.2345 H   0  0  0  0  0  0  0  0  0  0  0  0
   -0.7388   -2.0137    1.9883 H   0  0  0  0  0  0  0  0  0  0  0  0
   -0.3238   -0.2985    2.0431 H   0  0  0  0  0  0  0  0  0  0  0  0
    0.2491   -0.0371   -1.7443 H   0  0  0  0  0  0  0  0  0  0  0  0
    0.2902    0.9334   -0.2694 H   0  0  0  0  0  0  0  0  0  0  0  0
    2.5210    0.3277   -0.8847 H   0  0  0  0  0  0  0  0  0  0  0  0
    2.1438   -1.3949   -0.9759 H   0  0  0  0  0  0  0  0  0  0  0  0
    0.1196   -4.7177   -1.4736 H   0  0  0  0  0  0  0  0  0  0  0  0
   -1.5021   -6.5905   -1.4286 H   0  0  0  0  0  0  0  0  0  0  0  0
   -4.4793   -3.9764    0.2617 H   0  0  0  0  0  0  0  0  0  0  0  0
   -2.8960    0.5502    1.5153 H   0  0  0  0  0  0  0  0  0  0  0  0
   -1.5354    1.3628    0.7111 H   0  0  0  0  0  0  0  0  0  0  0  0
   -4.9661    2.4621   -2.2076 H   0  0  0  0  0  0  0  0  0  0  0  0
   -6.3913    4.4401   -1.8143 H   0  0  0  0  0  0  0  0  0  0  0  0
   -6.3620    5.5820    0.3905 H   0  0  0  0  0  0  0  0  0  0  0  0
   -4.8992    4.7375    2.2059 H   0  0  0  0  0  0  0  0  0  0  0  0
   -3.4693    2.7753    1.8413 H   0  0  0  0  0  0  0  0  0  0  0  0
  1  2  2  0
  2  3  1  0
  3  4  2  0
  4  5  1  0
  5  6  2  0
  6  7  1  0
  7  8  2  0
  7  9  1  0
  9 10  1  0
 10 11  1  0
  2 12  1  0
 12 13  1  0
 13 14  1  0
 14 15  1  0
 15 16  1  0
 16 17  1  0
 15 18  1  0
 18 19  1  0
 19 20  2  0
 20 21  1  0
 21 22  2  0
 22 23  1  0
 22 24  1  0
 24 25  2  0
 25 26  1  0
 26 27  2  0
 26 28  1  0
 28 29  1  0
 29 30  1  0
 30 31  1  0
 31 32  2  0
 32 33  1  0
 33 34  2  0
 34 35  1  0
 35 36  2  0
 30 37  2  0
 37 38  1  0
  8  3  1  0
 17 12  1  0
 25 19  1  0
 38 28  1  0
 11  6  1  0
 28 15  1  0
 36 31  1  0
  4 39  1  0
  5 40  1  0
  8 41  1  0
 10 42  1  0
 10 43  1  0
 13 44  1  0
 13 45  1  0
 14 46  1  0
 14 47  1  0
 16 48  1  0
 16 49  1  0
 17 50  1  0
 17 51  1  0
 20 52  1  0
 21 53  1  0
 24 54  1  0
 29 55  1  0
 29 56  1  0
 32 57  1  0
 33 58  1  0
 34 59  1  0
 35 60  1  0
 36 61  1  0
M  END
$$$$
