
     RDKit          3D

 57 61  0  0  0  0  0  0  0  0999 V2000
   -1.0129    2.9279    0.6345 O   0  0  0  0  0  0  0  0  0  0  0  0
   -0.1615    1.9262    0.0601 C   0  0  0  0  0  0  0  0  0  0  0  0
    1.3081    2.2767    0.3349 C   0  0  0  0  0  0  0  0  0  0  0  0
    2.1872    1.5081   -0.5363 N   0  0  0  0  0  0  0  0  0  0  0  0
    3.4213    1.0518   -0.1323 C   0  0  0  0  0  0  0  0  0  0  0  0
    3.7085    0.9854    1.1380 N   0  0  0  0  0  0  0  0  0  0  0  0
    4.9699    0.5195    1.5583 C   0  0  0  0  0  0  0  0  0  0  0  0
    5.2295    0.4551    2.9280 C   0  0  0  0  0  0  0  0  0  0  0  0
    6.4643    0.0020    3.3982 C   0  0  0  0  0  0  0  0  0  0  0  0
    7.4553   -0.3923    2.4973 C   0  0  0  0  0  0  0  0  0  0  0  0
    7.2181   -0.3381    1.1238 C   0  0  0  0  0  0  0  0  0  0  0  0
    5.9786    0.1167    0.6691 C   0  0  0  0  0  0  0  0  0  0  0  0
    5.6535    0.1966   -0.6941 N   0  0  0  0  0  0  0  0  0  0  0  0
    6.4105   -0.1157   -1.7981 C   0  0  0  0  0  0  0  0  0  0  0  0
    5.6432    0.1025   -2.9225 C   0  0  0  0  0  0  0  0  0  0  0  0
    4.3830    0.5740   -2.4860 C   0  0  0  0  0  0  0  0  0  0  0  0
    4.4156    0.6357   -1.1036 C   0  0  0  0  0  0  0  0  0  0  0  0
   -0.5384    0.5504    0.6546 C   0  0  0  0  0  0  0  0  0  0  0  0
   -1.9894    0.2937    0.5172 N   0  0  0  0  0  0  0  0  0  0  0  0
   -2.4200   -0.7968    1.4200 C   0  0  0  0  0  0  0  0  0  0  0  0
   -3.9088   -1.1742    1.2299 C   0  0  0  0  0  0  0  0  0  0  0  0
   -4.2183   -1.5356   -0.1726 N   0  0  0  0  0  0  0  0  0  0  0  0
   -5.5484   -1.3539   -0.5519 C   0  0  0  0  0  0  0  0  0  0  0  0
   -5.9334   -0.6822   -1.7193 C   0  0  0  0  0  0  0  0  0  0  0  0
   -7.2807   -0.5201   -2.0657 C   0  0  0  0  0  0  0  0  0  0  0  0
   -8.2801   -1.0347   -1.2501 C   0  0  0  0  0  0  0  0  0  0  0  0
   -7.9306   -1.7146   -0.0909 C   0  0  0  0  0  0  0  0  0  0  0  0
   -6.5828   -1.8702    0.2479 C   0  0  0  0  0  0  0  0  0  0  0  0
   -3.1148   -1.3340   -1.1222 C   0  0  0  0  0  0  0  0  0  0  0  0
   -2.3933    0.0134   -0.8844 C   0  0  0  0  0  0  0  0  0  0  0  0
   -1.8787    2.4801    0.7432 H   0  0  0  0  0  0  0  0  0  0  0  0
   -0.3435    1.9402   -1.0198 H   0  0  0  0  0  0  0  0  0  0  0  0
    1.5255    2.1203    1.3988 H   0  0  0  0  0  0  0  0  0  0  0  0
    1.4751    3.3452    0.1482 H   0  0  0  0  0  0  0  0  0  0  0  0
    2.1372    1.7846   -1.5088 H   0  0  0  0  0  0  0  0  0  0  0  0
    4.4600    0.7633    3.6316 H   0  0  0  0  0  0  0  0  0  0  0  0
    6.6511   -0.0430    4.4678 H   0  0  0  0  0  0  0  0  0  0  0  0
    8.4142   -0.7419    2.8667 H   0  0  0  0  0  0  0  0  0  0  0  0
    8.0023   -0.6528    0.4425 H   0  0  0  0  0  0  0  0  0  0  0  0
    7.4269   -0.4712   -1.7108 H   0  0  0  0  0  0  0  0  0  0  0  0
    5.9609   -0.0600   -3.9443 H   0  0  0  0  0  0  0  0  0  0  0  0
    3.5464    0.8376   -3.1173 H   0  0  0  0  0  0  0  0  0  0  0  0
    0.0542   -0.2541    0.2035 H   0  0  0  0  0  0  0  0  0  0  0  0
   -0.2981    0.5771    1.7252 H   0  0  0  0  0  0  0  0  0  0  0  0
   -1.7978   -1.6878    1.2667 H   0  0  0  0  0  0  0  0  0  0  0  0
   -2.2805   -0.4811    2.4604 H   0  0  0  0  0  0  0  0  0  0  0  0
   -4.5190   -0.3188    1.5506 H   0  0  0  0  0  0  0  0  0  0  0  0
   -4.1424   -2.0213    1.8848 H   0  0  0  0  0  0  0  0  0  0  0  0
   -5.1969   -0.2386   -2.3787 H   0  0  0  0  0  0  0  0  0  0  0  0
   -7.5424    0.0149   -2.9738 H   0  0  0  0  0  0  0  0  0  0  0  0
   -9.3249   -0.9084   -1.5174 H   0  0  0  0  0  0  0  0  0  0  0  0
   -8.7002   -2.1307    0.5515 H   0  0  0  0  0  0  0  0  0  0  0  0
   -6.3441   -2.4305    1.1474 H   0  0  0  0  0  0  0  0  0  0  0  0
   -3.4271   -1.4250   -2.1678 H   0  0  0  0  0  0  0  0  0  0  0  0
   -2.3941   -2.1489   -0.9756 H   0  0  0  0  0  0  0  0  0  0  0  0
   -3.0629    0.8270   -1.1875 H   0  0  0  0  0  0  0  0  0  0  0  0
   -1.5340    0.0503   -1.5655 H   0  0  0  0  0  0  0  0  0  0  0  0
  1  2  1  0
  2  3  1  0
  3  4  1  0
  4  5  1  0
  5  6  2  0
  6  7  1  0
  7  8  2  0
  8  9  1  0
  9 10  2  0
 10 11  1  0
 11 12  2  0
 12 13  1  0
 13 14  1  0
 14 15  2  0
 15 16  1  0
 16 17  2  0
  2 18  1  0
 18 19  1  0
 19 20  1  0
 20 21  1  0
 21 22  1  0
 22 23  1  0
 23 24  2  0
 24 25  1  0
 25 26  2  0
 26 27  1  0
 27 28  2  0
 22 29  1  0
 29 30  1  0
 17  5  1  0
 30 19  1  0
 12  7  1  0
 17 13  1  0
 28 23  1  0
  1 31  1  0
  2 32  1  0
  3 33  1  0
  3 34  1  0
  4 35  1  0
  8 36  1  0
  9 37  1  0
 10 38  1  0
 11 39  1  0
 14 40  1  0
 15 41  1  0
 16 42  1  0
 18 43  1  0
 18 44  1  0
 20 45  1  0
 20 46  1  0
 21 47  1  0
 21 48  1  0
 24 49  1  0
 25 50  1  0
 26 51  1  0
 27 52  1  0
 28 53  1  0
 29 54  1  0
 29 55  1  0
 30 56  1  0
 30 57  1  0
M  END
$$$$
