
     RDKit          3D

 59 62  0  0  0  0  0  0  0  0999 V2000
   -6.4052   -1.5051   -4.1533 C   0  0  0  0  0  0  0  0  0  0  0  0
   -6.1278   -2.4479   -2.9959 C   0  0  0  0  0  0  0  0  0  0  0  0
   -5.8839   -1.7357   -1.7508 N   0  0  0  0  0  0  0  0  0  0  0  0
   -6.8585   -1.4182   -0.8235 C   0  0  0  0  0  0  0  0  0  0  0  0
   -8.2453   -1.6481   -0.8198 C   0  0  0  0  0  0  0  0  0  0  0  0
   -8.9866   -1.2089    0.2815 C   0  0  0  0  0  0  0  0  0  0  0  0
   -8.3701   -0.5578    1.3442 C   0  0  0  0  0  0  0  0  0  0  0  0
   -6.9908   -0.3275    1.3302 C   0  0  0  0  0  0  0  0  0  0  0  0
   -6.2187   -0.7631    0.2308 C   0  0  0  0  0  0  0  0  0  0  0  0
   -4.8270   -0.6857   -0.0891 C   0  0  0  0  0  0  0  0  0  0  0  0
   -3.7032   -0.1429    0.5748 C   0  0  0  0  0  0  0  0  0  0  0  0
   -2.4290   -0.2109   -0.0097 C   0  0  0  0  0  0  0  0  0  0  0  0
   -1.3663    0.3691    0.7164 N   0  0  0  0  0  0  0  0  0  0  0  0
   -0.0277    0.4468    0.3513 C   0  0  0  0  0  0  0  0  0  0  0  0
    0.4680   -0.0237   -0.6693 O   0  0  0  0  0  0  0  0  0  0  0  0
    0.8243    1.2008    1.3924 C   0  0  0  0  0  0  0  0  0  0  0  0
    0.4443    2.6785    1.4175 C   0  0  0  0  0  0  0  0  0  0  0  0
    2.2096    1.0793    1.0366 O   0  0  0  0  0  0  0  0  0  0  0  0
    3.0943    1.1717    2.0550 C   0  0  0  0  0  0  0  0  0  0  0  0
    2.8159    1.3702    3.2264 O   0  0  0  0  0  0  0  0  0  0  0  0
    4.4835    1.0277    1.5434 C   0  0  0  0  0  0  0  0  0  0  0  0
    4.7629    0.6299    0.2313 C   0  0  0  0  0  0  0  0  0  0  0  0
    6.0888    0.5179   -0.2018 C   0  0  0  0  0  0  0  0  0  0  0  0
    7.1540    0.8042    0.6629 C   0  0  0  0  0  0  0  0  0  0  0  0
    8.4582    0.6749    0.1386 N   0  0  0  0  0  0  0  0  0  0  0  0
    9.6547    0.9470    0.7866 C   0  0  0  0  0  0  0  0  0  0  0  0
    9.7757    1.3720    1.9323 O   0  0  0  0  0  0  0  0  0  0  0  0
   10.8774    0.6760   -0.0622 C   0  0  0  0  0  0  0  0  0  0  0  0
   11.5263   -0.5596    0.3734 C   0  0  0  0  0  0  0  0  0  0  0  0
   12.0518   -1.5505    0.6714 N   0  0  0  0  0  0  0  0  0  0  0  0
    6.8702    1.1915    1.9738 C   0  0  0  0  0  0  0  0  0  0  0  0
    5.5445    1.2997    2.4129 C   0  0  0  0  0  0  0  0  0  0  0  0
   -2.2827   -0.8242   -1.2505 C   0  0  0  0  0  0  0  0  0  0  0  0
   -3.3791   -1.3743   -1.9291 C   0  0  0  0  0  0  0  0  0  0  0  0
   -4.6440   -1.2942   -1.3293 C   0  0  0  0  0  0  0  0  0  0  0  0
   -6.6082   -2.0745   -5.0653 H   0  0  0  0  0  0  0  0  0  0  0  0
   -5.5473   -0.8522   -4.3438 H   0  0  0  0  0  0  0  0  0  0  0  0
   -7.2704   -0.8669   -3.9490 H   0  0  0  0  0  0  0  0  0  0  0  0
   -6.9711   -3.1297   -2.8418 H   0  0  0  0  0  0  0  0  0  0  0  0
   -5.2542   -3.0738   -3.2066 H   0  0  0  0  0  0  0  0  0  0  0  0
   -8.7422   -2.1520   -1.6424 H   0  0  0  0  0  0  0  0  0  0  0  0
  -10.0608   -1.3799    0.3057 H   0  0  0  0  0  0  0  0  0  0  0  0
   -8.9635   -0.2236    2.1925 H   0  0  0  0  0  0  0  0  0  0  0  0
   -6.5196    0.1834    2.1643 H   0  0  0  0  0  0  0  0  0  0  0  0
   -3.8513    0.3303    1.5400 H   0  0  0  0  0  0  0  0  0  0  0  0
   -1.6206    0.7672    1.6119 H   0  0  0  0  0  0  0  0  0  0  0  0
    0.6370    0.7297    2.3663 H   0  0  0  0  0  0  0  0  0  0  0  0
    1.0774    3.2360    2.1156 H   0  0  0  0  0  0  0  0  0  0  0  0
   -0.6003    2.8279    1.7086 H   0  0  0  0  0  0  0  0  0  0  0  0
    0.5878    3.1305    0.4286 H   0  0  0  0  0  0  0  0  0  0  0  0
    3.9591    0.4001   -0.4663 H   0  0  0  0  0  0  0  0  0  0  0  0
    6.2684    0.2069   -1.2282 H   0  0  0  0  0  0  0  0  0  0  0  0
    8.5038    0.3475   -0.8197 H   0  0  0  0  0  0  0  0  0  0  0  0
   10.6068    0.6092   -1.1212 H   0  0  0  0  0  0  0  0  0  0  0  0
   11.5548    1.5327    0.0376 H   0  0  0  0  0  0  0  0  0  0  0  0
    7.6543    1.4144    2.6916 H   0  0  0  0  0  0  0  0  0  0  0  0
    5.3499    1.6019    3.4409 H   0  0  0  0  0  0  0  0  0  0  0  0
   -1.3147   -0.8991   -1.7354 H   0  0  0  0  0  0  0  0  0  0  0  0
   -3.2342   -1.8447   -2.8964 H   0  0  0  0  0  0  0  0  0  0  0  0
  1  2  1  0
  2  3  1  0
  3  4  1  0
  4  5  2  0
  5  6  1  0
  6  7  2  0
  7  8  1  0
  8  9  2  0
  9 10  1  0
 10 11  2  0
 11 12  1  0
 12 13  1  0
 13 14  1  0
 14 15  2  0
 14 16  1  0
 16 17  1  0
 16 18  1  0
 18 19  1  0
 19 20  2  0
 19 21  1  0
 21 22  2  0
 22 23  1  0
 23 24  2  0
 24 25  1  0
 25 26  1  0
 26 27  2  0
 26 28  1  0
 28 29  1  0
 29 30  3  0
 24 31  1  0
 31 32  2  0
 12 33  2  0
 33 34  1  0
 34 35  2  0
 35  3  1  0
  9  4  1  0
 35 10  1  0
 32 21  1  0
  1 36  1  0
  1 37  1  0
  1 38  1  0
  2 39  1  0
  2 40  1  0
  5 41  1  0
  6 42  1  0
  7 43  1  0
  8 44  1  0
 11 45  1  0
 13 46  1  0
 16 47  1  0
 17 48  1  0
 17 49  1  0
 17 50  1  0
 22 51  1  0
 23 52  1  0
 25 53  1  0
 28 54  1  0
 28 55  1  0
 31 56  1  0
 32 57  1  0
 33 58  1  0
 34 59  1  0
M  END
$$$$
