
     RDKit          3D

 48 52  0  0  0  0  0  0  0  0999 V2000
   -2.9031   -3.2695   -0.9548 C   0  0  0  0  0  0  0  0  0  0  0  0
   -2.4880   -1.9318   -0.5990 N   0  0  0  0  0  0  0  0  0  0  0  0
   -1.1895   -1.5072   -0.5618 C   0  0  0  0  0  0  0  0  0  0  0  0
   -1.1666   -0.1696   -0.2005 C   0  0  0  0  0  0  0  0  0  0  0  0
    0.0315    0.7255   -0.0102 C   0  0  0  0  0  0  0  0  0  0  0  0
    0.1801    1.6162   -1.2467 C   0  0  0  0  0  0  0  0  0  0  0  0
    0.5744    2.9474   -1.0667 C   0  0  0  0  0  0  0  0  0  0  0  0
    0.7259    3.7747   -2.1770 C   0  0  0  0  0  0  0  0  0  0  0  0
    0.4872    3.2625   -3.4446 C   0  0  0  0  0  0  0  0  0  0  0  0
    0.1124    1.9356   -3.5509 C   0  0  0  0  0  0  0  0  0  0  0  0
   -0.0357    1.1088   -2.4944 N   0  0  0  0  0  0  0  0  0  0  0  0
    1.3502    0.0244    0.2188 C   0  0  0  0  0  0  0  0  0  0  0  0
    2.2128   -0.5287   -0.7153 C   0  0  0  0  0  0  0  0  0  0  0  0
    3.2925   -1.0548   -0.0649 N   0  0  0  0  0  0  0  0  0  0  0  0
    4.4040   -1.7096   -0.7166 C   0  0  0  0  0  0  0  0  0  0  0  0
    3.1648   -0.8777    1.2945 C   0  0  0  0  0  0  0  0  0  0  0  0
    4.0076   -1.2494    2.3547 C   0  0  0  0  0  0  0  0  0  0  0  0
    3.6030   -0.9417    3.6563 C   0  0  0  0  0  0  0  0  0  0  0  0
    2.3985   -0.2885    3.8940 C   0  0  0  0  0  0  0  0  0  0  0  0
    1.5671    0.0789    2.8304 C   0  0  0  0  0  0  0  0  0  0  0  0
    1.9526   -0.2132    1.5035 C   0  0  0  0  0  0  0  0  0  0  0  0
   -2.5396    0.2122    0.0021 C   0  0  0  0  0  0  0  0  0  0  0  0
   -3.1715    1.4179    0.3783 C   0  0  0  0  0  0  0  0  0  0  0  0
   -4.5648    1.4667    0.4952 C   0  0  0  0  0  0  0  0  0  0  0  0
   -5.3351    0.3365    0.2430 C   0  0  0  0  0  0  0  0  0  0  0  0
   -4.7377   -0.8694   -0.1338 C   0  0  0  0  0  0  0  0  0  0  0  0
   -3.3384   -0.9073   -0.2482 C   0  0  0  0  0  0  0  0  0  0  0  0
   -2.0256   -3.8759   -1.1932 H   0  0  0  0  0  0  0  0  0  0  0  0
   -3.5572   -3.2082   -1.8283 H   0  0  0  0  0  0  0  0  0  0  0  0
   -3.4328   -3.7053   -0.1039 H   0  0  0  0  0  0  0  0  0  0  0  0
   -0.3741   -2.1773   -0.8018 H   0  0  0  0  0  0  0  0  0  0  0  0
   -0.1760    1.3710    0.8541 H   0  0  0  0  0  0  0  0  0  0  0  0
    0.7685    3.3375   -0.0723 H   0  0  0  0  0  0  0  0  0  0  0  0
    1.0299    4.8096   -2.0510 H   0  0  0  0  0  0  0  0  0  0  0  0
    0.5930    3.8800   -4.3287 H   0  0  0  0  0  0  0  0  0  0  0  0
   -0.0853    1.4846   -4.5186 H   0  0  0  0  0  0  0  0  0  0  0  0
    2.1263   -0.5783   -1.7943 H   0  0  0  0  0  0  0  0  0  0  0  0
    4.4624   -2.7381   -0.3512 H   0  0  0  0  0  0  0  0  0  0  0  0
    5.3181   -1.1605   -0.4767 H   0  0  0  0  0  0  0  0  0  0  0  0
    4.2474   -1.7106   -1.7983 H   0  0  0  0  0  0  0  0  0  0  0  0
    4.9460   -1.7645    2.1782 H   0  0  0  0  0  0  0  0  0  0  0  0
    4.2373   -1.2219    4.4940 H   0  0  0  0  0  0  0  0  0  0  0  0
    2.0962   -0.0638    4.9136 H   0  0  0  0  0  0  0  0  0  0  0  0
    0.6251    0.5796    3.0334 H   0  0  0  0  0  0  0  0  0  0  0  0
   -2.5841    2.3103    0.5702 H   0  0  0  0  0  0  0  0  0  0  0  0
   -5.0471    2.3975    0.7818 H   0  0  0  0  0  0  0  0  0  0  0  0
   -6.4170    0.3909    0.3361 H   0  0  0  0  0  0  0  0  0  0  0  0
   -5.3455   -1.7457   -0.3328 H   0  0  0  0  0  0  0  0  0  0  0  0
  1  2  1  0
  2  3  1  0
  3  4  2  0
  4  5  1  0
  5  6  1  0
  6  7  2  0
  7  8  1  0
  8  9  2  0
  9 10  1  0
 10 11  2  0
  5 12  1  0
 12 13  2  0
 13 14  1  0
 14 15  1  0
 14 16  1  0
 16 17  2  0
 17 18  1  0
 18 19  2  0
 19 20  1  0
 20 21  2  0
  4 22  1  0
 22 23  2  0
 23 24  1  0
 24 25  2  0
 25 26  1  0
 26 27  2  0
 27  2  1  0
 11  6  1  0
 21 12  1  0
 27 22  1  0
 21 16  1  0
  1 28  1  0
  1 29  1  0
  1 30  1  0
  3 31  1  0
  5 32  1  0
  7 33  1  0
  8 34  1  0
  9 35  1  0
 10 36  1  0
 13 37  1  0
 15 38  1  0
 15 39  1  0
 15 40  1  0
 17 41  1  0
 18 42  1  0
 19 43  1  0
 20 44  1  0
 23 45  1  0
 24 46  1  0
 25 47  1  0
 26 48  1  0
M  END
$$$$
