
     RDKit          3D

 48 51  0  0  0  0  0  0  0  0999 V2000
    3.1330   -2.3102   -2.5268 C   0  0  0  0  0  0  0  0  0  0  0  0
    2.9472   -0.8077   -2.3761 C   0  0  0  0  0  0  0  0  0  0  0  0
    2.6833   -0.4468   -0.9849 N   0  0  0  0  0  0  0  0  0  0  0  0
    1.4479   -0.4408   -0.3296 C   0  0  0  0  0  0  0  0  0  0  0  0
    0.2413   -0.6328   -0.8979 C   0  0  0  0  0  0  0  0  0  0  0  0
   -1.0457   -0.6462   -0.1814 C   0  0  0  0  0  0  0  0  0  0  0  0
   -1.4651   -1.8851    0.2845 C   0  0  0  0  0  0  0  0  0  0  0  0
   -2.6591   -1.9931    0.9529 C   0  0  0  0  0  0  0  0  0  0  0  0
   -3.4243   -0.8586    1.1657 C   0  0  0  0  0  0  0  0  0  0  0  0
   -4.6256   -1.0472    1.8551 C   0  0  0  0  0  0  0  0  0  0  0  0
   -5.4574    0.0209    2.1260 C   0  0  0  0  0  0  0  0  0  0  0  0
   -5.0836    1.2889    1.7148 C   0  0  0  0  0  0  0  0  0  0  0  0
   -3.8749    1.5333    1.0113 C   0  0  0  0  0  0  0  0  0  0  0  0
   -3.6614    2.9988    0.7220 C   0  0  0  0  0  0  0  0  0  0  0  0
   -3.0006    0.4429    0.7027 C   0  0  0  0  0  0  0  0  0  0  0  0
   -1.7948    0.4916    0.0034 N   0  0  0  0  0  4  0  0  0  0  0  0
   -1.2712    1.7445   -0.6109 C   0  0  0  0  0  0  0  0  0  0  0  0
   -1.8364    1.9013   -2.0117 C   0  0  0  0  0  0  0  0  0  0  0  0
    1.5626   -0.1105    1.4241 S   0  0  0  0  0  0  0  0  0  0  0  0
    3.3401   -0.0459    1.2543 C   0  0  0  0  0  0  0  0  0  0  0  0
    4.2429    0.1670    2.2870 C   0  0  0  0  0  0  0  0  0  0  0  0
    5.6029    0.1745    1.9857 C   0  0  0  0  0  0  0  0  0  0  0  0
    6.0347   -0.0309    0.6700 C   0  0  0  0  0  0  0  0  0  0  0  0
    5.1135   -0.2454   -0.3640 C   0  0  0  0  0  0  0  0  0  0  0  0
    3.7515   -0.2538   -0.0816 C   0  0  0  0  0  0  0  0  0  0  0  0
    2.2445   -2.8546   -2.1905 H   0  0  0  0  0  0  0  0  0  0  0  0
    3.3105   -2.5658   -3.5761 H   0  0  0  0  0  0  0  0  0  0  0  0
    3.9858   -2.6689   -1.9417 H   0  0  0  0  0  0  0  0  0  0  0  0
    3.8200   -0.2761   -2.7713 H   0  0  0  0  0  0  0  0  0  0  0  0
    2.1149   -0.4849   -3.0124 H   0  0  0  0  0  0  0  0  0  0  0  0
    0.1601   -0.8372   -1.9608 H   0  0  0  0  0  0  0  0  0  0  0  0
   -0.8572   -2.7759    0.1309 H   0  0  0  0  0  0  0  0  0  0  0  0
   -2.9759   -2.9727    1.3112 H   0  0  0  0  0  0  0  0  0  0  0  0
   -4.9345   -2.0356    2.1971 H   0  0  0  0  0  0  0  0  0  0  0  0
   -6.3908   -0.1299    2.6656 H   0  0  0  0  0  0  0  0  0  0  0  0
   -5.7586    2.1111    1.9623 H   0  0  0  0  0  0  0  0  0  0  0  0
   -4.5320    3.6040    1.0035 H   0  0  0  0  0  0  0  0  0  0  0  0
   -3.5238    3.1865   -0.3430 H   0  0  0  0  0  0  0  0  0  0  0  0
   -2.8280    3.3867    1.3151 H   0  0  0  0  0  0  0  0  0  0  0  0
   -0.1806    1.7219   -0.6562 H   0  0  0  0  0  0  0  0  0  0  0  0
   -1.4605    2.5876    0.0421 H   0  0  0  0  0  0  0  0  0  0  0  0
   -1.5356    2.8642   -2.4355 H   0  0  0  0  0  0  0  0  0  0  0  0
   -1.4657    1.1130   -2.6745 H   0  0  0  0  0  0  0  0  0  0  0  0
   -2.9283    1.8427   -2.0245 H   0  0  0  0  0  0  0  0  0  0  0  0
    3.9055    0.3201    3.3070 H   0  0  0  0  0  0  0  0  0  0  0  0
    6.3340    0.3370    2.7750 H   0  0  0  0  0  0  0  0  0  0  0  0
    7.1007   -0.0255    0.4490 H   0  0  0  0  0  0  0  0  0  0  0  0
    5.4947   -0.4031   -1.3668 H   0  0  0  0  0  0  0  0  0  0  0  0
  1  2  1  0
  2  3  1  0
  3  4  1  0
  4  5  2  3
  5  6  1  0
  6  7  2  0
  7  8  1  0
  8  9  2  0
  9 10  1  0
 10 11  2  0
 11 12  1  0
 12 13  2  0
 13 14  1  0
 13 15  1  0
 15 16  2  0
 16 17  1  0
 17 18  1  0
  4 19  1  0
 19 20  1  0
 20 21  2  0
 21 22  1  0
 22 23  2  0
 23 24  1  0
 24 25  2  0
 25  3  1  0
 16  6  1  0
 25 20  1  0
 15  9  1  0
  1 26  1  0
  1 27  1  0
  1 28  1  0
  2 29  1  0
  2 30  1  0
  5 31  1  0
  7 32  1  0
  8 33  1  0
 10 34  1  0
 11 35  1  0
 12 36  1  0
 14 37  1  0
 14 38  1  0
 14 39  1  0
 17 40  1  0
 17 41  1  0
 18 42  1  0
 18 43  1  0
 18 44  1  0
 21 45  1  0
 22 46  1  0
 23 47  1  0
 24 48  1  0
M  CHG  1  16   1
M  END
$$$$
