
     RDKit          3D

 34 36  0  0  0  0  0  0  0  0999 V2000
    0.0556    0.9490    2.1261 O   0  0  0  0  0  0  0  0  0  0  0  0
    0.4013    0.3939    1.0919 C   0  0  0  0  0  0  0  0  0  0  0  0
    1.8250    0.0454    0.9131 C   0  0  0  0  0  0  0  0  0  0  0  0
    2.5554    0.5570   -0.1653 C   0  0  0  0  0  0  0  0  0  0  0  0
    3.9053    0.2264   -0.3027 C   0  0  0  0  0  0  0  0  0  0  0  0
    4.5175   -0.5982    0.6430 C   0  0  0  0  0  0  0  0  0  0  0  0
    6.1799   -1.0050    0.4690 Cl  0  0  0  0  0  0  0  0  0  0  0  0
    3.7955   -1.0886    1.7319 C   0  0  0  0  0  0  0  0  0  0  0  0
    2.4456   -0.7600    1.8734 C   0  0  0  0  0  0  0  0  0  0  0  0
   -0.4874    0.0641    0.1016 N   0  0  0  0  0  0  0  0  0  0  0  0
   -0.2605   -0.7714   -1.0866 C   0  0  0  0  0  0  0  0  0  0  0  0
   -0.4358    0.1503   -2.2680 C   0  0  0  0  0  0  0  0  0  0  0  0
   -1.7428    0.4496   -2.3649 C   0  0  0  0  0  0  0  0  0  0  0  0
   -2.4291   -0.2250   -1.1872 C   0  0  0  0  0  0  0  0  0  0  0  0
   -1.5895   -1.5184   -1.2062 C   0  0  0  0  0  0  0  0  0  0  0  0
   -1.9612    0.4436    0.1626 C   0  0  0  0  0  0  0  0  0  0  0  0
   -2.7581   -0.1291    1.3371 C   0  0  0  0  0  0  0  0  0  0  0  0
   -2.5360    0.4694    2.5207 F   0  0  0  0  0  0  0  0  0  0  0  0
   -4.0914   -0.0419    1.0979 F   0  0  0  0  0  0  0  0  0  0  0  0
   -2.5023   -1.4488    1.5217 F   0  0  0  0  0  0  0  0  0  0  0  0
   -2.2694    1.9404    0.1872 C   0  0  0  0  0  0  0  0  0  0  0  0
   -3.5711    2.1666   -0.1246 F   0  0  0  0  0  0  0  0  0  0  0  0
   -2.0439    2.5356    1.3740 F   0  0  0  0  0  0  0  0  0  0  0  0
   -1.5392    2.6303   -0.7253 F   0  0  0  0  0  0  0  0  0  0  0  0
    2.0870    1.2254   -0.8831 H   0  0  0  0  0  0  0  0  0  0  0  0
    4.4769    0.6224   -1.1384 H   0  0  0  0  0  0  0  0  0  0  0  0
    4.2786   -1.7171    2.4759 H   0  0  0  0  0  0  0  0  0  0  0  0
    1.8825   -1.1243    2.7301 H   0  0  0  0  0  0  0  0  0  0  0  0
    0.6345   -1.3926   -1.0815 H   0  0  0  0  0  0  0  0  0  0  0  0
    0.3541    0.5051   -2.9127 H   0  0  0  0  0  0  0  0  0  0  0  0
   -2.2057    1.1088   -3.0853 H   0  0  0  0  0  0  0  0  0  0  0  0
   -3.5023   -0.3744   -1.3172 H   0  0  0  0  0  0  0  0  0  0  0  0
   -1.7804   -2.1950   -0.3711 H   0  0  0  0  0  0  0  0  0  0  0  0
   -1.6886   -2.0935   -2.1370 H   0  0  0  0  0  0  0  0  0  0  0  0
  1  2  2  0
  2  3  1  0
  3  4  2  0
  4  5  1  0
  5  6  2  0
  6  7  1  0
  6  8  1  0
  8  9  2  0
  2 10  1  0
 10 11  1  0
 11 12  1  0
 12 13  2  0
 13 14  1  0
 14 15  1  0
 14 16  1  0
 16 17  1  0
 17 18  1  0
 17 19  1  0
 17 20  1  0
 16 21  1  0
 21 22  1  0
 21 23  1  0
 21 24  1  0
  9  3  1  0
 16 10  1  0
 15 11  1  0
  4 25  1  0
  5 26  1  0
  8 27  1  0
  9 28  1  0
 11 29  1  0
 12 30  1  0
 13 31  1  0
 14 32  1  0
 15 33  1  0
 15 34  1  0
M  END
$$$$
