
     RDKit          3D

 46 49  0  0  0  0  0  0  0  0999 V2000
   -6.8487    1.8304    1.4707 C   0  0  0  0  0  0  0  0  0  0  0  0
   -5.7289    1.6911    2.3375 O   0  0  0  0  0  0  0  0  0  0  0  0
   -4.6197    1.0798    1.8255 C   0  0  0  0  0  0  0  0  0  0  0  0
   -3.5457    0.9920    2.7116 C   0  0  0  0  0  0  0  0  0  0  0  0
   -2.3445    0.3878    2.3265 C   0  0  0  0  0  0  0  0  0  0  0  0
   -2.2086   -0.1376    1.0367 C   0  0  0  0  0  0  0  0  0  0  0  0
   -0.9973   -0.7724    0.6363 N   0  0  0  0  0  0  0  0  0  0  0  0
    0.3134   -0.3976    0.9164 C   0  0  0  0  0  0  0  0  0  0  0  0
    0.7916    1.1058    1.6606 S   0  0  0  0  0  0  0  0  0  0  0  0
    2.4754    0.6843    2.1979 C   0  0  0  0  0  0  0  0  0  0  0  0
    3.5358    0.6971    1.1051 C   0  0  0  0  0  0  0  0  0  0  0  0
    4.6669    0.2725    1.3543 O   0  0  0  0  0  0  0  0  0  0  0  0
    3.1878    1.3193   -0.0712 N   0  0  0  0  0  0  0  0  0  0  0  0
    4.0055    1.4737   -1.1964 C   0  0  0  0  0  0  0  0  0  0  0  0
    3.8311    2.6822   -1.7900 N   0  0  0  0  0  0  0  0  0  0  0  0
    4.6112    2.9712   -2.8577 C   0  0  0  0  0  0  0  0  0  0  0  0
    5.5398    2.0969   -3.3935 C   0  0  0  0  0  0  0  0  0  0  0  0
    6.4934    2.5418   -4.7465 Cl  0  0  0  0  0  0  0  0  0  0  0  0
    5.6632    0.8388   -2.8222 C   0  0  0  0  0  0  0  0  0  0  0  0
    4.8755    0.5043   -1.7151 C   0  0  0  0  0  0  0  0  0  0  0  0
    4.9155   -1.1481   -1.2122 Cl  0  0  0  0  0  0  0  0  0  0  0  0
    1.1936   -1.2365    0.4295 N   0  0  0  0  0  0  0  0  0  0  0  0
    0.4662   -2.2008   -0.2023 C   0  0  0  0  0  0  0  0  0  0  0  0
    0.9283   -3.3389   -0.8802 C   0  0  0  0  0  0  0  0  0  0  0  0
   -0.0033   -4.2325   -1.4194 C   0  0  0  0  0  0  0  0  0  0  0  0
   -1.3701   -4.0057   -1.2701 C   0  0  0  0  0  0  0  0  0  0  0  0
   -1.8482   -2.8717   -0.6022 C   0  0  0  0  0  0  0  0  0  0  0  0
   -0.9030   -1.9577   -0.0975 C   0  0  0  0  0  0  0  0  0  0  0  0
   -3.2868   -0.0562    0.1470 C   0  0  0  0  0  0  0  0  0  0  0  0
   -4.4851    0.5531    0.5413 C   0  0  0  0  0  0  0  0  0  0  0  0
   -7.2384    0.8537    1.1652 H   0  0  0  0  0  0  0  0  0  0  0  0
   -6.6009    2.4475    0.5994 H   0  0  0  0  0  0  0  0  0  0  0  0
   -7.6385    2.3434    2.0299 H   0  0  0  0  0  0  0  0  0  0  0  0
   -3.6490    1.3906    3.7168 H   0  0  0  0  0  0  0  0  0  0  0  0
   -1.5545    0.3029    3.0725 H   0  0  0  0  0  0  0  0  0  0  0  0
    2.7777    1.4168    2.9515 H   0  0  0  0  0  0  0  0  0  0  0  0
    2.4730   -0.3014    2.6722 H   0  0  0  0  0  0  0  0  0  0  0  0
    2.4641    2.0245   -0.0065 H   0  0  0  0  0  0  0  0  0  0  0  0
    4.4591    3.9608   -3.2805 H   0  0  0  0  0  0  0  0  0  0  0  0
    6.3508    0.1130   -3.2445 H   0  0  0  0  0  0  0  0  0  0  0  0
    1.9921   -3.5204   -0.9692 H   0  0  0  0  0  0  0  0  0  0  0  0
    0.3456   -5.1214   -1.9387 H   0  0  0  0  0  0  0  0  0  0  0  0
   -2.0760   -4.7289   -1.6664 H   0  0  0  0  0  0  0  0  0  0  0  0
   -2.9143   -2.7347   -0.4634 H   0  0  0  0  0  0  0  0  0  0  0  0
   -3.2048   -0.4192   -0.8746 H   0  0  0  0  0  0  0  0  0  0  0  0
   -5.2904    0.6067   -0.1840 H   0  0  0  0  0  0  0  0  0  0  0  0
  1  2  1  0
  2  3  1  0
  3  4  2  0
  4  5  1  0
  5  6  2  0
  6  7  1  0
  7  8  1  0
  8  9  1  0
  9 10  1  0
 10 11  1  0
 11 12  2  0
 11 13  1  0
 13 14  1  0
 14 15  2  0
 15 16  1  0
 16 17  2  0
 17 18  1  0
 17 19  1  0
 19 20  2  0
 20 21  1  0
  8 22  2  0
 22 23  1  0
 23 24  2  0
 24 25  1  0
 25 26  2  0
 26 27  1  0
 27 28  2  0
  6 29  1  0
 29 30  2  0
 30  3  1  0
 28  7  1  0
 20 14  1  0
 28 23  1  0
  1 31  1  0
  1 32  1  0
  1 33  1  0
  4 34  1  0
  5 35  1  0
 10 36  1  0
 10 37  1  0
 13 38  1  0
 16 39  1  0
 19 40  1  0
 24 41  1  0
 25 42  1  0
 26 43  1  0
 27 44  1  0
 29 45  1  0
 30 46  1  0
M  END
$$$$
