
     RDKit          3D

 63 67  0  0  0  0  0  0  0  0999 V2000
    3.2501    5.8758   -1.8852 C   0  0  0  0  0  0  0  0  0  0  0  0
    2.4336    4.8481   -2.4305 O   0  0  0  0  0  0  0  0  0  0  0  0
    2.7425    3.5624   -2.0824 C   0  0  0  0  0  0  0  0  0  0  0  0
    1.9003    2.5917   -2.6285 C   0  0  0  0  0  0  0  0  0  0  0  0
    2.1009    1.2361   -2.3538 C   0  0  0  0  0  0  0  0  0  0  0  0
    3.1526    0.8296   -1.5252 C   0  0  0  0  0  0  0  0  0  0  0  0
    3.3506   -0.5932   -1.2184 C   0  0  0  0  0  0  0  0  0  0  0  0
    4.8071   -1.3385   -1.7211 S   0  0  0  0  0  0  0  0  0  0  0  0
    4.3477   -2.8698   -1.0975 C   0  0  0  0  0  0  0  0  0  0  0  0
    5.0989   -4.0599   -1.1438 C   0  0  0  0  0  0  0  0  0  0  0  0
    4.5711   -5.2258   -0.5773 C   0  0  0  0  0  0  0  0  0  0  0  0
    3.3221   -5.2146    0.0280 C   0  0  0  0  0  0  0  0  0  0  0  0
    2.7034   -6.2833    0.6171 O   0  0  0  0  0  0  0  0  0  0  0  0
    3.4046   -7.5203    0.6083 C   0  0  0  0  0  0  0  0  0  0  0  0
    2.5859   -4.0243    0.0665 C   0  0  0  0  0  0  0  0  0  0  0  0
    3.0865   -2.8239   -0.5037 C   0  0  0  0  0  0  0  0  0  0  0  0
    2.5118   -1.4976   -0.5827 C   0  0  0  0  0  0  0  0  0  0  0  0
    1.2037   -1.1038   -0.0663 C   0  0  0  0  0  0  0  0  0  0  0  0
    1.1001   -0.2050    1.0010 C   0  0  0  0  0  0  0  0  0  0  0  0
   -0.1557    0.1776    1.4864 C   0  0  0  0  0  0  0  0  0  0  0  0
   -1.3168   -0.3382    0.9102 C   0  0  0  0  0  0  0  0  0  0  0  0
   -2.5987   -0.0452    1.2832 O   0  0  0  0  0  0  0  0  0  0  0  0
   -2.7723    0.9435    2.3016 C   0  0  0  0  0  0  0  0  0  0  0  0
   -4.2769    1.2016    2.5179 C   0  0  0  0  0  0  0  0  0  0  0  0
   -4.8748    2.1584    1.5645 N   0  0  0  0  0  0  0  0  0  0  0  0
   -4.7807    1.6805    0.1655 C   0  0  0  0  0  0  0  0  0  0  0  0
   -5.8341    2.3425   -0.7363 C   0  0  0  0  0  0  0  0  0  0  0  0
   -7.1779    2.0145   -0.3535 O   0  0  0  0  0  0  0  0  0  0  0  0
   -7.3081    1.7304    1.0461 C   0  0  0  0  0  0  0  0  0  0  0  0
   -6.2782    2.4747    1.9106 C   0  0  0  0  0  0  0  0  0  0  0  0
   -1.2112   -1.2457   -0.1471 C   0  0  0  0  0  0  0  0  0  0  0  0
    0.0401   -1.6291   -0.6356 C   0  0  0  0  0  0  0  0  0  0  0  0
    3.9959    1.8069   -0.9792 C   0  0  0  0  0  0  0  0  0  0  0  0
    3.7932    3.1648   -1.2562 C   0  0  0  0  0  0  0  0  0  0  0  0
    3.1925    5.8875   -0.7920 H   0  0  0  0  0  0  0  0  0  0  0  0
    2.8681    6.8347   -2.2489 H   0  0  0  0  0  0  0  0  0  0  0  0
    4.2858    5.7793   -2.2260 H   0  0  0  0  0  0  0  0  0  0  0  0
    1.0782    2.8928   -3.2730 H   0  0  0  0  0  0  0  0  0  0  0  0
    1.4284    0.5025   -2.7922 H   0  0  0  0  0  0  0  0  0  0  0  0
    6.0787   -4.0751   -1.6137 H   0  0  0  0  0  0  0  0  0  0  0  0
    5.1732   -6.1272   -0.6290 H   0  0  0  0  0  0  0  0  0  0  0  0
    3.5730   -7.8710   -0.4152 H   0  0  0  0  0  0  0  0  0  0  0  0
    4.3467   -7.4442    1.1611 H   0  0  0  0  0  0  0  0  0  0  0  0
    2.7803   -8.2620    1.1157 H   0  0  0  0  0  0  0  0  0  0  0  0
    1.6099   -4.0234    0.5474 H   0  0  0  0  0  0  0  0  0  0  0  0
    1.9952    0.2075    1.4610 H   0  0  0  0  0  0  0  0  0  0  0  0
   -0.1882    0.8791    2.3130 H   0  0  0  0  0  0  0  0  0  0  0  0
   -2.3529    0.5613    3.2404 H   0  0  0  0  0  0  0  0  0  0  0  0
   -2.2690    1.8808    2.0335 H   0  0  0  0  0  0  0  0  0  0  0  0
   -4.3787    1.6296    3.5233 H   0  0  0  0  0  0  0  0  0  0  0  0
   -4.8265    0.2518    2.5014 H   0  0  0  0  0  0  0  0  0  0  0  0
   -3.7826    1.9024   -0.2271 H   0  0  0  0  0  0  0  0  0  0  0  0
   -4.9373    0.5945    0.1209 H   0  0  0  0  0  0  0  0  0  0  0  0
   -5.7010    2.0160   -1.7728 H   0  0  0  0  0  0  0  0  0  0  0  0
   -5.7300    3.4341   -0.7232 H   0  0  0  0  0  0  0  0  0  0  0  0
   -7.2217    0.6464    1.1855 H   0  0  0  0  0  0  0  0  0  0  0  0
   -8.3226    2.0153    1.3431 H   0  0  0  0  0  0  0  0  0  0  0  0
   -6.4837    2.3001    2.9733 H   0  0  0  0  0  0  0  0  0  0  0  0
   -6.4084    3.5523    1.7468 H   0  0  0  0  0  0  0  0  0  0  0  0
   -2.1119   -1.6552   -0.5977 H   0  0  0  0  0  0  0  0  0  0  0  0
    0.0972   -2.3314   -1.4638 H   0  0  0  0  0  0  0  0  0  0  0  0
    4.8167    1.5186   -0.3259 H   0  0  0  0  0  0  0  0  0  0  0  0
    4.4733    3.8820   -0.8095 H   0  0  0  0  0  0  0  0  0  0  0  0
  1  2  1  0
  2  3  1  0
  3  4  2  0
  4  5  1  0
  5  6  2  0
  6  7  1  0
  7  8  1  0
  8  9  1  0
  9 10  2  0
 10 11  1  0
 11 12  2  0
 12 13  1  0
 13 14  1  0
 12 15  1  0
 15 16  2  0
 16 17  1  0
 17 18  1  0
 18 19  2  0
 19 20  1  0
 20 21  2  0
 21 22  1  0
 22 23  1  0
 23 24  1  0
 24 25  1  0
 25 26  1  0
 26 27  1  0
 27 28  1  0
 28 29  1  0
 29 30  1  0
 21 31  1  0
 31 32  2  0
  6 33  1  0
 33 34  2  0
 34  3  1  0
 17  7  2  0
 32 18  1  0
 16  9  1  0
 30 25  1  0
  1 35  1  0
  1 36  1  0
  1 37  1  0
  4 38  1  0
  5 39  1  0
 10 40  1  0
 11 41  1  0
 14 42  1  0
 14 43  1  0
 14 44  1  0
 15 45  1  0
 19 46  1  0
 20 47  1  0
 23 48  1  0
 23 49  1  0
 24 50  1  0
 24 51  1  0
 26 52  1  0
 26 53  1  0
 27 54  1  0
 27 55  1  0
 29 56  1  0
 29 57  1  0
 30 58  1  0
 30 59  1  0
 31 60  1  0
 32 61  1  0
 33 62  1  0
 34 63  1  0
M  END
$$$$
