
     RDKit          3D

 56 60  0  0  0  0  0  0  0  0999 V2000
   -5.1958   -1.7562   -2.4270 C   0  0  0  0  0  0  0  0  0  0  0  0
   -3.8511   -1.5365   -1.7947 C   0  0  0  0  0  0  0  0  0  0  0  0
   -2.7218   -1.5274   -2.6314 C   0  0  0  0  0  0  0  0  0  0  0  0
   -1.4352   -1.3432   -2.1144 C   0  0  0  0  0  0  0  0  0  0  0  0
   -1.2273   -1.1707   -0.7406 C   0  0  0  0  0  0  0  0  0  0  0  0
    0.1279   -0.9830   -0.2044 C   0  0  0  0  0  0  0  0  0  0  0  0
    0.7146    0.1668   -0.6027 N   0  0  0  0  0  0  0  0  0  0  0  0
    1.9673    0.4901   -0.1614 N   0  0  0  0  0  0  0  0  0  0  0  0
    2.6461   -0.3270    0.6712 C   0  0  0  0  0  0  0  0  0  0  0  0
    3.9304    0.0501    1.1518 N   0  0  0  0  0  0  0  0  0  0  0  0
    4.7684    1.0895    0.6821 C   0  0  0  0  0  0  0  0  0  0  0  0
    5.7331    1.6318    1.5669 C   0  0  0  0  0  0  0  0  0  0  0  0
    6.6379    2.6169    1.1529 C   0  0  0  0  0  0  0  0  0  0  0  0
    6.5768    3.0259   -0.1587 C   0  0  0  0  0  0  0  0  0  0  0  0
    5.6726    2.4850   -1.0395 C   0  0  0  0  0  0  0  0  0  0  0  0
    4.7708    1.5128   -0.6550 C   0  0  0  0  0  0  0  0  0  0  0  0
    5.7920    3.0082   -2.2904 O   0  0  0  0  0  0  0  0  0  0  0  0
    6.8681    3.9469   -2.0901 C   0  0  0  0  0  0  0  0  0  0  0  0
    7.3724    3.9629   -0.7383 O   0  0  0  0  0  0  0  0  0  0  0  0
    2.0853   -1.5579    1.0894 C   0  0  0  0  0  0  0  0  0  0  0  0
    2.7701   -2.4796    1.9231 C   0  0  0  0  0  0  0  0  0  0  0  0
    2.1907   -3.6844    2.3229 C   0  0  0  0  0  0  0  0  0  0  0  0
    0.9138   -4.0074    1.8934 C   0  0  0  0  0  0  0  0  0  0  0  0
    0.2225   -3.1292    1.0591 C   0  0  0  0  0  0  0  0  0  0  0  0
    0.7849   -1.8945    0.6438 C   0  0  0  0  0  0  0  0  0  0  0  0
   -2.3510   -1.1617    0.0974 C   0  0  0  0  0  0  0  0  0  0  0  0
   -3.6500   -1.3430   -0.4169 C   0  0  0  0  0  0  0  0  0  0  0  0
   -4.9663   -1.3357    0.7912 S   0  0  0  0  0  6  0  0  0  0  0  0
   -4.4819   -2.0677    1.9420 O   0  0  0  0  0  0  0  0  0  0  0  0
   -6.2321   -1.6606    0.1765 O   0  0  0  0  0  0  0  0  0  0  0  0
   -4.9990    0.2780    1.2353 N   0  0  0  0  0  0  0  0  0  0  0  0
   -5.8005    1.2139    0.4326 C   0  0  0  0  0  0  0  0  0  0  0  0
   -5.4975    2.6405    0.8932 C   0  0  0  0  0  0  0  0  0  0  0  0
   -5.8259    2.7780    2.2766 O   0  0  0  0  0  0  0  0  0  0  0  0
   -5.6378   -2.6911   -2.0710 H   0  0  0  0  0  0  0  0  0  0  0  0
   -5.1154   -1.8426   -3.5169 H   0  0  0  0  0  0  0  0  0  0  0  0
   -5.8617   -0.9113   -2.2284 H   0  0  0  0  0  0  0  0  0  0  0  0
   -2.8319   -1.6660   -3.7065 H   0  0  0  0  0  0  0  0  0  0  0  0
   -0.5856   -1.3365   -2.7969 H   0  0  0  0  0  0  0  0  0  0  0  0
    3.9177    0.0112    2.1663 H   0  0  0  0  0  0  0  0  0  0  0  0
    5.7817    1.2886    2.5974 H   0  0  0  0  0  0  0  0  0  0  0  0
    7.3658    3.0378    1.8372 H   0  0  0  0  0  0  0  0  0  0  0  0
    4.0924    1.0948   -1.3895 H   0  0  0  0  0  0  0  0  0  0  0  0
    7.6904    3.6881   -2.7675 H   0  0  0  0  0  0  0  0  0  0  0  0
    6.5099    4.9519   -2.3418 H   0  0  0  0  0  0  0  0  0  0  0  0
    3.7853   -2.2729    2.2576 H   0  0  0  0  0  0  0  0  0  0  0  0
    2.7418   -4.3704    2.9625 H   0  0  0  0  0  0  0  0  0  0  0  0
    0.4540   -4.9435    2.1986 H   0  0  0  0  0  0  0  0  0  0  0  0
   -0.7709   -3.4281    0.7282 H   0  0  0  0  0  0  0  0  0  0  0  0
   -2.2163   -1.0069    1.1688 H   0  0  0  0  0  0  0  0  0  0  0  0
   -5.0449    0.4216    2.2464 H   0  0  0  0  0  0  0  0  0  0  0  0
   -6.8611    0.9971    0.6002 H   0  0  0  0  0  0  0  0  0  0  0  0
   -5.5653    1.1122   -0.6303 H   0  0  0  0  0  0  0  0  0  0  0  0
   -4.4344    2.8742    0.7687 H   0  0  0  0  0  0  0  0  0  0  0  0
   -6.0921    3.3596    0.3214 H   0  0  0  0  0  0  0  0  0  0  0  0
   -5.6320    3.7007    2.5206 H   0  0  0  0  0  0  0  0  0  0  0  0
  1  2  1  0
  2  3  2  0
  3  4  1  0
  4  5  2  0
  5  6  1  0
  6  7  2  0
  7  8  1  0
  8  9  2  0
  9 10  1  0
 10 11  1  0
 11 12  2  0
 12 13  1  0
 13 14  2  0
 14 15  1  0
 15 16  2  0
 15 17  1  0
 17 18  1  0
 18 19  1  0
  9 20  1  0
 20 21  2  0
 21 22  1  0
 22 23  2  0
 23 24  1  0
 24 25  2  0
  5 26  1  0
 26 27  2  0
 27 28  1  0
 28 29  2  0
 28 30  2  0
 28 31  1  0
 31 32  1  0
 32 33  1  0
 33 34  1  0
 27  2  1  0
 25  6  1  0
 16 11  1  0
 25 20  1  0
 19 14  1  0
  1 35  1  0
  1 36  1  0
  1 37  1  0
  3 38  1  0
  4 39  1  0
 10 40  1  0
 12 41  1  0
 13 42  1  0
 16 43  1  0
 18 44  1  0
 18 45  1  0
 21 46  1  0
 22 47  1  0
 23 48  1  0
 24 49  1  0
 26 50  1  0
 31 51  1  0
 32 52  1  0
 32 53  1  0
 33 54  1  0
 33 55  1  0
 34 56  1  0
M  END
$$$$
