
     RDKit          3D

 43 46  0  0  0  0  0  0  0  0999 V2000
    6.4123    1.9941    0.9751 C   0  0  0  0  0  0  0  0  0  0  0  0
    5.0290    1.4364    0.8043 C   0  0  0  0  0  0  0  0  0  0  0  0
    4.5157    1.1912   -0.4728 C   0  0  0  0  0  0  0  0  0  0  0  0
    3.2390    0.6432   -0.6352 C   0  0  0  0  0  0  0  0  0  0  0  0
    2.4657    0.3222    0.4806 C   0  0  0  0  0  0  0  0  0  0  0  0
    1.0290   -0.2903    0.3133 C   0  0  0  0  0  0  0  0  0  0  0  0
    0.1337   -0.5840    1.3357 C   0  0  0  0  0  0  0  0  0  0  0  0
   -1.0498   -1.0738    0.7789 N   0  0  0  0  0  4  0  0  0  0  0  0
   -2.2450   -1.5002    1.5020 C   0  0  0  0  0  0  0  0  0  0  0  0
   -3.4181   -0.6493    1.0824 C   0  0  0  0  0  0  0  0  0  0  0  0
   -4.6061   -1.2441    0.6344 C   0  0  0  0  0  0  0  0  0  0  0  0
   -5.6933   -0.4540    0.2468 C   0  0  0  0  0  0  0  0  0  0  0  0
   -5.6131    0.9402    0.3053 C   0  0  0  0  0  0  0  0  0  0  0  0
   -6.9886    1.8488   -0.2030 Cl  0  0  0  0  0  0  0  0  0  0  0  0
   -4.4399    1.5450    0.7625 C   0  0  0  0  0  0  0  0  0  0  0  0
   -4.2526    3.2581    0.8611 Cl  0  0  0  0  0  0  0  0  0  0  0  0
   -3.3532    0.7527    1.1543 C   0  0  0  0  0  0  0  0  0  0  0  0
   -0.8793   -1.1072   -0.5391 C   0  0  0  0  0  0  0  0  0  0  0  0
    0.3404   -0.6637   -0.8270 N   0  0  0  0  0  0  0  0  0  0  0  0
    0.6039   -0.6895   -2.2591 C   0  0  0  0  0  0  0  0  0  0  0  0
   -0.5659   -1.5400   -2.8272 C   0  0  0  0  0  0  0  0  0  0  0  0
   -1.6555   -1.5020   -1.7375 C   0  0  0  0  0  0  0  0  0  0  0  0
    2.9788    0.5565    1.7616 C   0  0  0  0  0  0  0  0  0  0  0  0
    4.2556    1.1038    1.9199 C   0  0  0  0  0  0  0  0  0  0  0  0
    6.4833    2.5879    1.8924 H   0  0  0  0  0  0  0  0  0  0  0  0
    7.1406    1.1788    1.0235 H   0  0  0  0  0  0  0  0  0  0  0  0
    6.6731    2.6535    0.1406 H   0  0  0  0  0  0  0  0  0  0  0  0
    5.1102    1.4323   -1.3530 H   0  0  0  0  0  0  0  0  0  0  0  0
    2.8840    0.4944   -1.6463 H   0  0  0  0  0  0  0  0  0  0  0  0
    0.1830   -0.4879    2.4072 H   0  0  0  0  0  0  0  0  0  0  0  0
   -2.4112   -2.5585    1.2719 H   0  0  0  0  0  0  0  0  0  0  0  0
   -2.0845   -1.4061    2.5814 H   0  0  0  0  0  0  0  0  0  0  0  0
   -4.7084   -2.3279    0.5843 H   0  0  0  0  0  0  0  0  0  0  0  0
   -6.6089   -0.9325   -0.0982 H   0  0  0  0  0  0  0  0  0  0  0  0
   -2.4491    1.2398    1.5161 H   0  0  0  0  0  0  0  0  0  0  0  0
    0.5707    0.3345   -2.6423 H   0  0  0  0  0  0  0  0  0  0  0  0
    1.5673   -1.1574   -2.4731 H   0  0  0  0  0  0  0  0  0  0  0  0
   -0.2239   -2.5738   -2.9558 H   0  0  0  0  0  0  0  0  0  0  0  0
   -0.9197   -1.1803   -3.7971 H   0  0  0  0  0  0  0  0  0  0  0  0
   -2.3903   -0.7131   -1.9111 H   0  0  0  0  0  0  0  0  0  0  0  0
   -2.1245   -2.4697   -1.5564 H   0  0  0  0  0  0  0  0  0  0  0  0
    2.4195    0.3199    2.6617 H   0  0  0  0  0  0  0  0  0  0  0  0
    4.6461    1.2718    2.9227 H   0  0  0  0  0  0  0  0  0  0  0  0
  1  2  1  0
  2  3  2  0
  3  4  1  0
  4  5  2  0
  5  6  1  0
  6  7  2  0
  7  8  1  0
  8  9  1  0
  9 10  1  0
 10 11  2  0
 11 12  1  0
 12 13  2  0
 13 14  1  0
 13 15  1  0
 15 16  1  0
 15 17  2  0
  8 18  2  0
 18 19  1  0
 19 20  1  0
 20 21  1  0
 21 22  1  0
  5 23  1  0
 23 24  2  0
 24  2  1  0
 19  6  1  0
 17 10  1  0
 22 18  1  0
  1 25  1  0
  1 26  1  0
  1 27  1  0
  3 28  1  0
  4 29  1  0
  7 30  1  0
  9 31  1  0
  9 32  1  0
 11 33  1  0
 12 34  1  0
 17 35  1  0
 20 36  1  0
 20 37  1  0
 21 38  1  0
 21 39  1  0
 22 40  1  0
 22 41  1  0
 23 42  1  0
 24 43  1  0
M  CHG  1   8   1
M  END
$$$$
