
     RDKit          3D

 33 34  0  0  0  0  0  0  0  0999 V2000
   -4.7154    1.4703    0.1009 C   0  0  0  0  0  0  0  0  0  0  0  0
   -3.8429    0.3270   -0.3303 C   0  0  0  0  0  0  0  0  0  0  0  0
   -4.4171   -0.8780   -0.7499 C   0  0  0  0  0  0  0  0  0  0  0  0
   -3.6093   -1.9540   -1.1150 C   0  0  0  0  0  0  0  0  0  0  0  0
   -2.2230   -1.8355   -1.0565 C   0  0  0  0  0  0  0  0  0  0  0  0
   -1.5122   -2.9478   -1.4235 O   0  0  0  0  0  0  0  0  0  0  0  0
   -1.6218   -0.6384   -0.6382 C   0  0  0  0  0  0  0  0  0  0  0  0
   -0.1324   -0.5367   -0.5846 C   0  0  0  0  0  0  0  0  0  0  0  0
    0.5305   -1.5689   -0.7071 O   0  0  0  0  0  0  0  0  0  0  0  0
    0.5127    0.8050   -0.3386 C   0  0  0  0  0  0  0  0  0  0  0  0
    1.9492    0.8519   -0.7970 C   0  0  0  0  0  0  0  0  0  0  0  0
    2.2669    1.0570   -1.9654 O   0  0  0  0  0  0  0  0  0  0  0  0
    3.0042    0.5691    0.1939 C   0  0  0  0  0  0  0  0  0  0  0  0
    3.7310   -0.6174    0.0378 C   0  0  0  0  0  0  0  0  0  0  0  0
    4.7390   -0.9390    0.9465 C   0  0  0  0  0  0  0  0  0  0  0  0
    5.0273   -0.0738    2.0018 C   0  0  0  0  0  0  0  0  0  0  0  0
    4.3129    1.1183    2.1469 C   0  0  0  0  0  0  0  0  0  0  0  0
    3.3009    1.4465    1.2402 C   0  0  0  0  0  0  0  0  0  0  0  0
    2.4846    2.9536    1.4474 Cl  0  0  0  0  0  0  0  0  0  0  0  0
   -2.4441    0.4355   -0.2623 C   0  0  0  0  0  0  0  0  0  0  0  0
   -4.9086    1.4079    1.1762 H   0  0  0  0  0  0  0  0  0  0  0  0
   -4.2364    2.4302   -0.1188 H   0  0  0  0  0  0  0  0  0  0  0  0
   -5.6718    1.4556   -0.4322 H   0  0  0  0  0  0  0  0  0  0  0  0
   -5.4987   -0.9891   -0.7937 H   0  0  0  0  0  0  0  0  0  0  0  0
   -4.0587   -2.8885   -1.4410 H   0  0  0  0  0  0  0  0  0  0  0  0
   -0.5584   -2.7611   -1.2731 H   0  0  0  0  0  0  0  0  0  0  0  0
   -0.0104    1.5946   -0.8881 H   0  0  0  0  0  0  0  0  0  0  0  0
    0.4392    1.0229    0.7307 H   0  0  0  0  0  0  0  0  0  0  0  0
    3.5075   -1.2917   -0.7876 H   0  0  0  0  0  0  0  0  0  0  0  0
    5.3009   -1.8631    0.8287 H   0  0  0  0  0  0  0  0  0  0  0  0
    5.8165   -0.3237    2.7077 H   0  0  0  0  0  0  0  0  0  0  0  0
    4.5590    1.7908    2.9655 H   0  0  0  0  0  0  0  0  0  0  0  0
   -2.0211    1.3702    0.0955 H   0  0  0  0  0  0  0  0  0  0  0  0
  1  2  1  0
  2  3  2  0
  3  4  1  0
  4  5  2  0
  5  6  1  0
  5  7  1  0
  7  8  1  0
  8  9  2  0
  8 10  1  0
 10 11  1  0
 11 12  2  0
 11 13  1  0
 13 14  2  0
 14 15  1  0
 15 16  2  0
 16 17  1  0
 17 18  2  0
 18 19  1  0
  7 20  2  0
 20  2  1  0
 18 13  1  0
  1 21  1  0
  1 22  1  0
  1 23  1  0
  3 24  1  0
  4 25  1  0
  6 26  1  0
 10 27  1  0
 10 28  1  0
 14 29  1  0
 15 30  1  0
 16 31  1  0
 17 32  1  0
 20 33  1  0
M  END
$$$$
