
     RDKit          3D

 38 40  0  0  0  0  0  0  0  0999 V2000
   -7.8679    0.3047   -1.8373 C   0  0  0  0  0  0  0  0  0  0  0  0
   -7.1956   -0.6838   -0.9014 C   0  0  0  0  0  0  0  0  0  0  0  0
   -5.7843   -0.4918   -0.8645 O   0  0  0  0  0  0  0  0  0  0  0  0
   -5.3838    0.5872   -0.0177 C   0  0  0  0  0  0  0  0  0  0  0  0
   -3.8932    0.6576   -0.0407 C   0  0  0  0  0  0  0  0  0  0  0  0
   -3.1906    1.6399   -0.5705 N   0  0  0  0  0  0  0  0  0  0  0  0
   -1.8324    1.4373   -0.4286 N   0  0  0  0  0  0  0  0  0  0  0  0
   -1.5605    0.3196    0.2082 C   0  0  0  0  0  0  0  0  0  0  0  0
   -0.2753   -0.0848    0.4534 N   0  0  0  0  0  0  0  0  0  0  0  0
    0.1381   -1.2100    1.1268 C   0  0  0  0  0  0  0  0  0  0  0  0
   -0.5730   -2.0622    1.6514 O   0  0  0  0  0  0  0  0  0  0  0  0
    1.6635   -1.3409    1.1830 C   0  0  0  0  0  0  0  0  0  0  0  0
    2.3014   -0.2312    0.5559 O   0  0  0  0  0  0  0  0  0  0  0  0
    3.6702   -0.2335    0.5306 C   0  0  0  0  0  0  0  0  0  0  0  0
    4.5001   -1.2289    1.0809 C   0  0  0  0  0  0  0  0  0  0  0  0
    5.8946   -1.1235    0.9950 C   0  0  0  0  0  0  0  0  0  0  0  0
    6.4199   -0.0214    0.3580 C   0  0  0  0  0  0  0  0  0  0  0  0
    5.6135    0.9512   -0.1801 C   0  0  0  0  0  0  0  0  0  0  0  0
    4.2388    0.8740   -0.1098 C   0  0  0  0  0  0  0  0  0  0  0  0
    6.3260    1.9521   -0.7624 O   0  0  0  0  0  0  0  0  0  0  0  0
    7.6751    1.4961   -0.5302 C   0  0  0  0  0  0  0  0  0  0  0  0
    7.7414    0.2431    0.1828 O   0  0  0  0  0  0  0  0  0  0  0  0
   -2.9316   -0.5647    0.6935 S   0  0  0  0  0  0  0  0  0  0  0  0
   -7.3929    0.2868   -2.8235 H   0  0  0  0  0  0  0  0  0  0  0  0
   -7.7872    1.3282   -1.4596 H   0  0  0  0  0  0  0  0  0  0  0  0
   -8.9294    0.0665   -1.9509 H   0  0  0  0  0  0  0  0  0  0  0  0
   -7.6214   -0.6331    0.1070 H   0  0  0  0  0  0  0  0  0  0  0  0
   -7.3681   -1.6978   -1.2772 H   0  0  0  0  0  0  0  0  0  0  0  0
   -5.7989    1.5305   -0.3868 H   0  0  0  0  0  0  0  0  0  0  0  0
   -5.7427    0.4183    1.0040 H   0  0  0  0  0  0  0  0  0  0  0  0
    0.4395    0.5374    0.0923 H   0  0  0  0  0  0  0  0  0  0  0  0
    1.9420   -1.3856    2.2423 H   0  0  0  0  0  0  0  0  0  0  0  0
    1.9239   -2.2705    0.6638 H   0  0  0  0  0  0  0  0  0  0  0  0
    4.0930   -2.1000    1.5850 H   0  0  0  0  0  0  0  0  0  0  0  0
    6.5427   -1.8844    1.4155 H   0  0  0  0  0  0  0  0  0  0  0  0
    3.6208    1.6537   -0.5408 H   0  0  0  0  0  0  0  0  0  0  0  0
    8.2080    2.2582    0.0502 H   0  0  0  0  0  0  0  0  0  0  0  0
    8.1762    1.3760   -1.4975 H   0  0  0  0  0  0  0  0  0  0  0  0
  1  2  1  0
  2  3  1  0
  3  4  1  0
  4  5  1  0
  5  6  2  0
  6  7  1  0
  7  8  2  0
  8  9  1  0
  9 10  1  0
 10 11  2  0
 10 12  1  0
 12 13  1  0
 13 14  1  0
 14 15  2  0
 15 16  1  0
 16 17  2  0
 17 18  1  0
 18 19  2  0
 18 20  1  0
 20 21  1  0
 21 22  1  0
  8 23  1  0
 23  5  1  0
 19 14  1  0
 22 17  1  0
  1 24  1  0
  1 25  1  0
  1 26  1  0
  2 27  1  0
  2 28  1  0
  4 29  1  0
  4 30  1  0
  9 31  1  0
 12 32  1  0
 12 33  1  0
 15 34  1  0
 16 35  1  0
 19 36  1  0
 21 37  1  0
 21 38  1  0
M  END
$$$$
