
     RDKit          3D

 39 41  0  0  0  0  0  0  0  0999 V2000
   -1.7173   -2.1438   -1.3134 O   0  0  0  0  0  0  0  0  0  0  0  0
   -2.3376   -1.7378   -0.3355 C   0  0  0  0  0  0  0  0  0  0  0  0
   -3.7680   -2.2225   -0.0684 C   0  0  0  0  0  0  0  0  0  0  0  0
   -4.5436   -1.3529    0.7479 O   0  0  0  0  0  0  0  0  0  0  0  0
   -5.1207   -0.2627    0.1551 C   0  0  0  0  0  0  0  0  0  0  0  0
   -4.9386    0.1523   -1.1654 C   0  0  0  0  0  0  0  0  0  0  0  0
   -5.5822    1.3020   -1.6340 C   0  0  0  0  0  0  0  0  0  0  0  0
   -6.4054    2.0421   -0.7876 C   0  0  0  0  0  0  0  0  0  0  0  0
   -6.5880    1.6338    0.5304 C   0  0  0  0  0  0  0  0  0  0  0  0
   -5.9452    0.4869    0.9989 C   0  0  0  0  0  0  0  0  0  0  0  0
   -1.8871   -0.8746    0.6369 N   0  0  0  0  0  0  0  0  0  0  0  0
   -0.6591   -0.2728    0.7127 C   0  0  0  0  0  0  0  0  0  0  0  0
   -0.3633    0.5960    1.6537 N   0  0  0  0  0  0  0  0  0  0  0  0
    0.9279    1.0700    1.5402 N   0  0  0  0  0  0  0  0  0  0  0  0
    1.5635    0.5283    0.5199 C   0  0  0  0  0  0  0  0  0  0  0  0
    2.9676    0.8453    0.1211 C   0  0  0  0  0  0  0  0  0  0  0  0
    3.7658   -0.2979    0.4274 O   0  0  0  0  0  0  0  0  0  0  0  0
    5.1152   -0.1790    0.2384 C   0  0  0  0  0  0  0  0  0  0  0  0
    5.8639   -1.2748    0.6776 C   0  0  0  0  0  0  0  0  0  0  0  0
    7.2544   -1.2827    0.5540 C   0  0  0  0  0  0  0  0  0  0  0  0
    7.9060   -0.1929   -0.0178 C   0  0  0  0  0  0  0  0  0  0  0  0
    7.1657    0.9000   -0.4657 C   0  0  0  0  0  0  0  0  0  0  0  0
    5.7724    0.9087   -0.3396 C   0  0  0  0  0  0  0  0  0  0  0  0
    0.6086   -0.5826   -0.3805 S   0  0  0  0  0  0  0  0  0  0  0  0
   -4.2772   -2.4494   -1.0125 H   0  0  0  0  0  0  0  0  0  0  0  0
   -3.6768   -3.1722    0.4724 H   0  0  0  0  0  0  0  0  0  0  0  0
   -4.3039   -0.3857   -1.8622 H   0  0  0  0  0  0  0  0  0  0  0  0
   -5.4375    1.6223   -2.6631 H   0  0  0  0  0  0  0  0  0  0  0  0
   -6.9032    2.9354   -1.1560 H   0  0  0  0  0  0  0  0  0  0  0  0
   -7.2282    2.2067    1.1959 H   0  0  0  0  0  0  0  0  0  0  0  0
   -6.0928    0.1759    2.0304 H   0  0  0  0  0  0  0  0  0  0  0  0
   -2.5418   -0.5775    1.3521 H   0  0  0  0  0  0  0  0  0  0  0  0
    3.0102    1.0703   -0.9512 H   0  0  0  0  0  0  0  0  0  0  0  0
    3.3105    1.7154    0.6941 H   0  0  0  0  0  0  0  0  0  0  0  0
    5.3595   -2.1278    1.1264 H   0  0  0  0  0  0  0  0  0  0  0  0
    7.8257   -2.1371    0.9081 H   0  0  0  0  0  0  0  0  0  0  0  0
    8.9885   -0.1952   -0.1147 H   0  0  0  0  0  0  0  0  0  0  0  0
    7.6739    1.7513   -0.9117 H   0  0  0  0  0  0  0  0  0  0  0  0
    5.2380    1.7792   -0.7035 H   0  0  0  0  0  0  0  0  0  0  0  0
  1  2  2  0
  2  3  1  0
  3  4  1  0
  4  5  1  0
  5  6  2  0
  6  7  1  0
  7  8  2  0
  8  9  1  0
  9 10  2  0
  2 11  1  0
 11 12  1  0
 12 13  2  0
 13 14  1  0
 14 15  2  0
 15 16  1  0
 16 17  1  0
 17 18  1  0
 18 19  2  0
 19 20  1  0
 20 21  2  0
 21 22  1  0
 22 23  2  0
 15 24  1  0
 10  5  1  0
 24 12  1  0
 23 18  1  0
  3 25  1  0
  3 26  1  0
  6 27  1  0
  7 28  1  0
  8 29  1  0
  9 30  1  0
 10 31  1  0
 11 32  1  0
 16 33  1  0
 16 34  1  0
 19 35  1  0
 20 36  1  0
 21 37  1  0
 22 38  1  0
 23 39  1  0
M  END
$$$$
