
     RDKit          3D

 59 62  0  0  0  0  0  0  0  0999 V2000
   -5.6857    1.3686   -4.1630 C   0  0  0  0  0  0  0  0  0  0  0  0
   -4.3751    0.8169   -4.1907 O   0  0  0  0  0  0  0  0  0  0  0  0
   -3.7200    0.7240   -2.9938 C   0  0  0  0  0  0  0  0  0  0  0  0
   -4.2366    1.0754   -1.7467 C   0  0  0  0  0  0  0  0  0  0  0  0
   -3.4553    0.9258   -0.5962 C   0  0  0  0  0  0  0  0  0  0  0  0
   -2.1559    0.4186   -0.6789 C   0  0  0  0  0  0  0  0  0  0  0  0
   -1.3433    0.2661    0.5169 C   0  0  0  0  0  0  0  0  0  0  0  0
   -0.2950    1.0399    0.9734 C   0  0  0  0  0  0  0  0  0  0  0  0
    0.2268    0.5397    2.1370 N   0  0  0  0  0  0  0  0  0  0  0  0
   -0.4812   -0.5367    2.3950 C   0  0  0  0  0  0  0  0  0  0  0  0
   -0.1883   -1.5854    3.7434 S   0  0  0  0  0  0  0  0  0  0  0  0
    1.3565   -0.8962    4.4062 C   0  0  0  0  0  0  0  0  0  0  0  0
    2.5456   -1.3024    3.5467 C   0  0  0  0  0  0  0  0  0  0  0  0
    3.2021   -2.3017    3.8281 O   0  0  0  0  0  0  0  0  0  0  0  0
    2.7536   -0.4464    2.4888 N   0  0  0  0  0  0  0  0  0  0  0  0
    3.7123   -0.5369    1.5184 C   0  0  0  0  0  0  0  0  0  0  0  0
    3.6707    0.2338    0.4580 N   0  0  0  0  0  0  0  0  0  0  0  0
    4.7426   -0.0345   -0.3825 C   0  0  0  0  0  0  0  0  0  0  0  0
    4.8715    0.7297   -1.6916 C   0  0  0  0  0  0  0  0  0  0  0  0
    4.5559   -0.2080   -2.8718 C   0  0  0  0  0  0  0  0  0  0  0  0
    6.2990    1.2864   -1.8575 C   0  0  0  0  0  0  0  0  0  0  0  0
    3.8915    1.9202   -1.7439 C   0  0  0  0  0  0  0  0  0  0  0  0
    5.5876   -1.0248    0.0918 C   0  0  0  0  0  0  0  0  0  0  0  0
    5.0311   -1.6056    1.6036 S   0  0  0  0  0  0  0  0  0  0  0  0
   -1.4590   -0.7491    1.4532 N   0  0  0  0  0  0  0  0  0  0  0  0
   -2.3873   -1.8695    1.3834 C   0  0  0  0  0  0  0  0  0  0  0  0
   -3.6776   -1.5443    2.0421 C   0  0  0  0  0  0  0  0  0  0  0  0
   -4.0423   -1.2155    3.3326 C   0  0  0  0  0  0  0  0  0  0  0  0
   -5.4455   -1.0318    3.3196 C   0  0  0  0  0  0  0  0  0  0  0  0
   -5.8505   -1.2678    2.0281 C   0  0  0  0  0  0  0  0  0  0  0  0
   -4.7868   -1.5833    1.2477 O   0  0  0  0  0  0  0  0  0  0  0  0
   -1.6363    0.0750   -1.9280 C   0  0  0  0  0  0  0  0  0  0  0  0
   -2.4183    0.2236   -3.0764 C   0  0  0  0  0  0  0  0  0  0  0  0
   -6.0699    1.3682   -5.1876 H   0  0  0  0  0  0  0  0  0  0  0  0
   -6.3615    0.7565   -3.5551 H   0  0  0  0  0  0  0  0  0  0  0  0
   -5.6674    2.4066   -3.8145 H   0  0  0  0  0  0  0  0  0  0  0  0
   -5.2416    1.4693   -1.6309 H   0  0  0  0  0  0  0  0  0  0  0  0
   -3.8733    1.2093    0.3672 H   0  0  0  0  0  0  0  0  0  0  0  0
    0.1118    1.9312    0.5112 H   0  0  0  0  0  0  0  0  0  0  0  0
    1.5146   -1.2996    5.4122 H   0  0  0  0  0  0  0  0  0  0  0  0
    1.3012    0.1935    4.5088 H   0  0  0  0  0  0  0  0  0  0  0  0
    2.0202    0.2254    2.2662 H   0  0  0  0  0  0  0  0  0  0  0  0
    3.5383   -0.6087   -2.7969 H   0  0  0  0  0  0  0  0  0  0  0  0
    4.6373    0.3175   -3.8301 H   0  0  0  0  0  0  0  0  0  0  0  0
    5.2414   -1.0620   -2.9028 H   0  0  0  0  0  0  0  0  0  0  0  0
    6.5693    1.9405   -1.0186 H   0  0  0  0  0  0  0  0  0  0  0  0
    6.3915    1.8716   -2.7792 H   0  0  0  0  0  0  0  0  0  0  0  0
    7.0448    0.4844   -1.9042 H   0  0  0  0  0  0  0  0  0  0  0  0
    2.8513    1.5862   -1.6651 H   0  0  0  0  0  0  0  0  0  0  0  0
    3.9881    2.4733   -2.6839 H   0  0  0  0  0  0  0  0  0  0  0  0
    4.0754    2.6221   -0.9230 H   0  0  0  0  0  0  0  0  0  0  0  0
    6.4809   -1.4274   -0.3639 H   0  0  0  0  0  0  0  0  0  0  0  0
   -1.9259   -2.7464    1.8468 H   0  0  0  0  0  0  0  0  0  0  0  0
   -2.5311   -2.1201    0.3268 H   0  0  0  0  0  0  0  0  0  0  0  0
   -3.3794   -1.1186    4.1808 H   0  0  0  0  0  0  0  0  0  0  0  0
   -6.0837   -0.7644    4.1494 H   0  0  0  0  0  0  0  0  0  0  0  0
   -6.8092   -1.2555    1.5285 H   0  0  0  0  0  0  0  0  0  0  0  0
   -0.6229   -0.3088   -2.0186 H   0  0  0  0  0  0  0  0  0  0  0  0
   -2.0070   -0.0478   -4.0462 H   0  0  0  0  0  0  0  0  0  0  0  0
  1  2  1  0
  2  3  1  0
  3  4  2  0
  4  5  1  0
  5  6  2  0
  6  7  1  0
  7  8  2  0
  8  9  1  0
  9 10  2  0
 10 11  1  0
 11 12  1  0
 12 13  1  0
 13 14  2  0
 13 15  1  0
 15 16  1  0
 16 17  2  0
 17 18  1  0
 18 19  1  0
 19 20  1  0
 19 21  1  0
 19 22  1  0
 18 23  2  0
 23 24  1  0
 10 25  1  0
 25 26  1  0
 26 27  1  0
 27 28  2  0
 28 29  1  0
 29 30  2  0
 30 31  1  0
  6 32  1  0
 32 33  2  0
 33  3  1  0
 25  7  1  0
 31 27  1  0
 24 16  1  0
  1 34  1  0
  1 35  1  0
  1 36  1  0
  4 37  1  0
  5 38  1  0
  8 39  1  0
 12 40  1  0
 12 41  1  0
 15 42  1  0
 20 43  1  0
 20 44  1  0
 20 45  1  0
 21 46  1  0
 21 47  1  0
 21 48  1  0
 22 49  1  0
 22 50  1  0
 22 51  1  0
 23 52  1  0
 26 53  1  0
 26 54  1  0
 28 55  1  0
 29 56  1  0
 30 57  1  0
 32 58  1  0
 33 59  1  0
M  END
$$$$
