
     RDKit          3D

 67 72  0  0  0  0  0  0  0  0999 V2000
   -4.6580    4.9975   -0.3755 C   0  0  0  0  0  0  0  0  0  0  0  0
   -3.7268    3.9227   -0.8419 C   0  0  0  0  0  0  0  0  0  0  0  0
   -3.5924    3.6189   -2.2040 C   0  0  0  0  0  0  0  0  0  0  0  0
   -2.7232    2.6032   -2.6420 C   0  0  0  0  0  0  0  0  0  0  0  0
   -1.9578    1.8726   -1.7297 C   0  0  0  0  0  0  0  0  0  0  0  0
   -2.0688    2.1794   -0.3812 C   0  0  0  0  0  0  0  0  0  0  0  0
   -2.9533    3.1824    0.0397 C   0  0  0  0  0  0  0  0  0  0  0  0
   -2.9459    3.2772    1.4262 N   0  0  0  0  0  0  0  0  0  0  0  0
   -2.0730    2.3529    2.0032 C   0  0  0  0  0  0  0  0  0  0  0  0
   -1.9142    2.2194    3.2069 O   0  0  0  0  0  0  0  0  0  0  0  0
   -1.3984    1.5794    0.8292 C   0  0  1  0  0  0  0  0  0  0  0  0
   -1.6934    0.1300    0.8340 C   0  0  0  0  0  0  0  0  0  0  0  0
   -0.5198   -0.6066    0.9877 C   0  0  0  0  0  0  0  0  0  0  0  0
   -0.8333   -1.9344    1.0485 C   0  0  0  0  0  0  0  0  0  0  0  0
   -0.0251   -2.9506    1.3395 O   0  0  0  0  0  0  0  0  0  0  0  0
   -2.2182   -2.0480    0.8076 N   0  0  0  0  0  0  0  0  0  0  0  0
   -2.9410   -3.2716    0.6218 C   0  0  0  0  0  0  0  0  0  0  0  0
   -2.3044   -4.3880    0.0569 C   0  0  0  0  0  0  0  0  0  0  0  0
   -3.0085   -5.5797   -0.1399 C   0  0  0  0  0  0  0  0  0  0  0  0
   -4.3497   -5.6672    0.2201 C   0  0  0  0  0  0  0  0  0  0  0  0
   -4.9913   -4.5622    0.7751 C   0  0  0  0  0  0  0  0  0  0  0  0
   -4.2930   -3.3661    0.9703 C   0  0  0  0  0  0  0  0  0  0  0  0
   -2.7493   -0.7435    0.7387 C   0  0  0  0  0  0  0  0  0  0  0  0
   -4.0424   -0.5038    0.5315 O   0  0  0  0  0  0  0  0  0  0  0  0
    0.6688    0.2587    1.1345 C   0  0  1  0  0  0  0  0  0  0  0  0
    1.8098   -0.0821    0.1538 C   0  0  0  0  0  0  0  0  0  0  0  0
    2.8134    0.9873    0.0626 N   0  0  0  0  0  0  0  0  0  0  0  0
    4.1413    0.7689   -0.2410 C   0  0  0  0  0  0  0  0  0  0  0  0
    4.9668    1.6672   -0.3239 O   0  0  0  0  0  0  0  0  0  0  0  0
    4.4115   -0.5458   -0.4408 O   0  0  0  0  0  0  0  0  0  0  0  0
    5.7514   -0.9898   -0.7758 C   0  0  0  0  0  0  0  0  0  0  0  0
    5.6390   -2.5186   -0.8811 C   0  0  0  0  0  0  0  0  0  0  0  0
    6.7549   -0.6525    0.3334 C   0  0  0  0  0  0  0  0  0  0  0  0
    6.1925   -0.4361   -2.1350 C   0  0  0  0  0  0  0  0  0  0  0  0
    2.3462    2.3595    0.2587 C   0  0  0  0  0  0  0  0  0  0  0  0
    0.8285    2.4949    0.0499 C   0  0  0  0  0  0  0  0  0  0  0  0
    0.0870    1.6382    0.9699 N   0  0  0  0  0  0  0  0  0  0  0  0
   -5.3778    4.5892    0.3419 H   0  0  0  0  0  0  0  0  0  0  0  0
   -5.2259    5.4275   -1.2083 H   0  0  0  0  0  0  0  0  0  0  0  0
   -4.0935    5.8062    0.1000 H   0  0  0  0  0  0  0  0  0  0  0  0
   -4.1716    4.1672   -2.9466 H   0  0  0  0  0  0  0  0  0  0  0  0
   -2.6488    2.3817   -3.7054 H   0  0  0  0  0  0  0  0  0  0  0  0
   -1.2963    1.0816   -2.0727 H   0  0  0  0  0  0  0  0  0  0  0  0
   -3.4992    3.9117    1.9822 H   0  0  0  0  0  0  0  0  0  0  0  0
   -0.5612   -3.6544    1.7494 H   0  0  0  0  0  0  0  0  0  0  0  0
   -1.2758   -4.3419   -0.2937 H   0  0  0  0  0  0  0  0  0  0  0  0
   -2.5129   -6.4338   -0.5952 H   0  0  0  0  0  0  0  0  0  0  0  0
   -4.8990   -6.5930    0.0634 H   0  0  0  0  0  0  0  0  0  0  0  0
   -6.0397   -4.6269    1.0568 H   0  0  0  0  0  0  0  0  0  0  0  0
   -4.8237   -2.5341    1.4244 H   0  0  0  0  0  0  0  0  0  0  0  0
   -4.1573    0.4507    0.3760 H   0  0  0  0  0  0  0  0  0  0  0  0
    1.0516    0.1941    2.1613 H   0  0  0  0  0  0  0  0  0  0  0  0
    1.4180   -0.2231   -0.8643 H   0  0  0  0  0  0  0  0  0  0  0  0
    2.2823   -1.0283    0.4455 H   0  0  0  0  0  0  0  0  0  0  0  0
    5.2882   -2.9490    0.0639 H   0  0  0  0  0  0  0  0  0  0  0  0
    4.9059   -2.8045   -1.6442 H   0  0  0  0  0  0  0  0  0  0  0  0
    6.5993   -2.9797   -1.1339 H   0  0  0  0  0  0  0  0  0  0  0  0
    6.9375    0.4241    0.4086 H   0  0  0  0  0  0  0  0  0  0  0  0
    7.7235   -1.1335    0.1547 H   0  0  0  0  0  0  0  0  0  0  0  0
    6.3787   -0.9781    1.3100 H   0  0  0  0  0  0  0  0  0  0  0  0
    7.1304   -0.8946   -2.4669 H   0  0  0  0  0  0  0  0  0  0  0  0
    5.4264   -0.6176   -2.8974 H   0  0  0  0  0  0  0  0  0  0  0  0
    6.3509    0.6459   -2.1016 H   0  0  0  0  0  0  0  0  0  0  0  0
    2.8766    3.0279   -0.4293 H   0  0  0  0  0  0  0  0  0  0  0  0
    2.6214    2.6525    1.2795 H   0  0  0  0  0  0  0  0  0  0  0  0
    0.5387    3.5411    0.1936 H   0  0  0  0  0  0  0  0  0  0  0  0
    0.6235    2.2272   -0.9916 H   0  0  0  0  0  0  0  0  0  0  0  0
  1  2  1  0
  2  3  2  0
  3  4  1  0
  4  5  2  0
  5  6  1  0
  6  7  2  0
  7  8  1  0
  8  9  1  0
  9 10  2  0
  9 11  1  0
 11 12  1  0
 12 13  1  0
 13 14  2  0
 14 15  1  0
 14 16  1  0
 16 17  1  0
 17 18  2  0
 18 19  1  0
 19 20  2  0
 20 21  1  0
 21 22  2  0
 16 23  1  0
 23 24  1  0
 13 25  1  0
 25 26  1  0
 26 27  1  0
 27 28  1  0
 28 29  2  0
 28 30  1  0
 30 31  1  0
 31 32  1  0
 31 33  1  0
 31 34  1  0
 27 35  1  0
 35 36  1  0
 36 37  1  0
  7  2  1  0
 11 37  1  6
 11  6  1  0
 23 12  2  0
 37 25  1  0
 22 17  1  0
  1 38  1  0
  1 39  1  0
  1 40  1  0
  3 41  1  0
  4 42  1  0
  5 43  1  0
  8 44  1  0
 15 45  1  0
 18 46  1  0
 19 47  1  0
 20 48  1  0
 21 49  1  0
 22 50  1  0
 24 51  1  0
 25 52  1  1
 26 53  1  0
 26 54  1  0
 32 55  1  0
 32 56  1  0
 32 57  1  0
 33 58  1  0
 33 59  1  0
 33 60  1  0
 34 61  1  0
 34 62  1  0
 34 63  1  0
 35 64  1  0
 35 65  1  0
 36 66  1  0
 36 67  1  0
M  END
$$$$
