
     RDKit          3D

 59 62  0  0  0  0  0  0  0  0999 V2000
    9.7985    0.5202    2.0689 C   0  0  0  0  0  0  0  0  0  0  0  0
    8.3236    0.3275    1.8622 C   0  0  0  0  0  0  0  0  0  0  0  0
    7.5638   -0.3648    2.8123 C   0  0  0  0  0  0  0  0  0  0  0  0
    6.1864   -0.5456    2.6357 C   0  0  0  0  0  0  0  0  0  0  0  0
    5.5405   -0.0157    1.5130 C   0  0  0  0  0  0  0  0  0  0  0  0
    4.1416   -0.1931    1.2757 N   0  0  0  0  0  0  0  0  0  0  0  0
    3.6626    0.0265    0.0204 N   0  0  0  0  0  0  0  0  0  0  0  0
    2.4130   -0.4442    0.0384 C   0  0  0  0  0  0  0  0  0  0  0  0
    1.4918   -0.5014   -1.0900 C   0  0  0  0  0  0  0  0  0  0  0  0
    1.7723   -0.1103   -2.2217 O   0  0  0  0  0  0  0  0  0  0  0  0
    0.2405   -1.0553   -0.7412 N   0  0  0  0  0  0  0  0  0  0  0  0
   -0.8150   -1.1166   -1.7445 C   0  0  0  0  0  0  0  0  0  0  0  0
   -1.6965    0.1295   -1.7029 C   0  0  0  0  0  0  0  0  0  0  0  0
   -2.8296    0.0367   -2.7205 C   0  0  0  0  0  0  0  0  0  0  0  0
   -3.7755    1.2188   -2.6315 C   0  0  0  0  0  0  0  0  0  0  0  0
   -3.5663    2.2009   -1.9294 O   0  0  0  0  0  0  0  0  0  0  0  0
   -4.8789    1.0771   -3.4448 N   0  0  0  0  0  0  0  0  0  0  0  0
   -5.9919    1.9978   -3.3717 C   0  0  0  0  0  0  0  0  0  0  0  0
   -7.1271    1.3111   -2.7019 C   0  0  0  0  0  0  0  0  0  0  0  0
   -8.3056    0.7554   -3.1590 C   0  0  0  0  0  0  0  0  0  0  0  0
   -8.9750    0.2408   -2.0184 C   0  0  0  0  0  0  0  0  0  0  0  0
   -8.1662    0.5162   -0.9369 C   0  0  0  0  0  0  0  0  0  0  0  0
   -8.2751    0.2545    0.5121 C   0  0  0  0  0  0  0  0  0  0  0  0
   -7.0405    1.1638   -1.3473 O   0  0  0  0  0  0  0  0  0  0  0  0
   -0.1264   -1.4767    0.5426 N   0  0  0  0  0  0  0  0  0  0  0  0
    0.7106   -1.4024    1.5393 C   0  0  0  0  0  0  0  0  0  0  0  0
    0.2568   -1.8831    2.8889 C   0  0  0  0  0  0  0  0  0  0  0  0
    2.0323   -0.8681    1.3163 C   0  0  0  0  0  0  0  0  0  0  0  0
    3.1120   -0.5908    2.1386 C   0  0  0  0  0  0  0  0  0  0  0  0
    3.2101   -0.6208    3.6207 C   0  0  0  0  0  0  0  0  0  0  0  0
    6.3084    0.6669    0.5553 C   0  0  0  0  0  0  0  0  0  0  0  0
    7.6841    0.8448    0.7338 C   0  0  0  0  0  0  0  0  0  0  0  0
   10.2721   -0.4300    2.3402 H   0  0  0  0  0  0  0  0  0  0  0  0
    9.9729    1.2515    2.8658 H   0  0  0  0  0  0  0  0  0  0  0  0
   10.2870    0.8806    1.1567 H   0  0  0  0  0  0  0  0  0  0  0  0
    8.0486   -0.7878    3.6907 H   0  0  0  0  0  0  0  0  0  0  0  0
    5.6718   -1.1453    3.3750 H   0  0  0  0  0  0  0  0  0  0  0  0
   -1.4100   -2.0181   -1.5547 H   0  0  0  0  0  0  0  0  0  0  0  0
   -0.3659   -1.2262   -2.7380 H   0  0  0  0  0  0  0  0  0  0  0  0
   -2.1130    0.2547   -0.6950 H   0  0  0  0  0  0  0  0  0  0  0  0
   -1.0906    1.0235   -1.8975 H   0  0  0  0  0  0  0  0  0  0  0  0
   -3.4077   -0.8788   -2.5485 H   0  0  0  0  0  0  0  0  0  0  0  0
   -2.4206   -0.0002   -3.7361 H   0  0  0  0  0  0  0  0  0  0  0  0
   -5.0424    0.1863   -3.8905 H   0  0  0  0  0  0  0  0  0  0  0  0
   -5.7190    2.9141   -2.8372 H   0  0  0  0  0  0  0  0  0  0  0  0
   -6.2602    2.2623   -4.4006 H   0  0  0  0  0  0  0  0  0  0  0  0
   -8.6414    0.7268   -4.1882 H   0  0  0  0  0  0  0  0  0  0  0  0
   -9.9307   -0.2658   -1.9874 H   0  0  0  0  0  0  0  0  0  0  0  0
   -9.3091    0.0293    0.7934 H   0  0  0  0  0  0  0  0  0  0  0  0
   -7.9467    1.1262    1.0882 H   0  0  0  0  0  0  0  0  0  0  0  0
   -7.6498   -0.5982    0.7904 H   0  0  0  0  0  0  0  0  0  0  0  0
    1.0151   -2.5313    3.3347 H   0  0  0  0  0  0  0  0  0  0  0  0
   -0.6739   -2.4520    2.7964 H   0  0  0  0  0  0  0  0  0  0  0  0
    0.0743   -1.0243    3.5411 H   0  0  0  0  0  0  0  0  0  0  0  0
    3.5168   -1.6106    3.9712 H   0  0  0  0  0  0  0  0  0  0  0  0
    2.2458   -0.3871    4.0807 H   0  0  0  0  0  0  0  0  0  0  0  0
    3.9030    0.1358    4.0016 H   0  0  0  0  0  0  0  0  0  0  0  0
    5.8458    1.0806   -0.3408 H   0  0  0  0  0  0  0  0  0  0  0  0
    8.2486    1.3846   -0.0229 H   0  0  0  0  0  0  0  0  0  0  0  0
  1  2  1  0
  2  3  2  0
  3  4  1  0
  4  5  2  0
  5  6  1  0
  6  7  1  0
  7  8  2  0
  8  9  1  0
  9 10  2  0
  9 11  1  0
 11 12  1  0
 12 13  1  0
 13 14  1  0
 14 15  1  0
 15 16  2  0
 15 17  1  0
 17 18  1  0
 18 19  1  0
 19 20  2  0
 20 21  1  0
 21 22  2  0
 22 23  1  0
 22 24  1  0
 11 25  1  0
 25 26  2  0
 26 27  1  0
 26 28  1  0
 28 29  2  0
 29 30  1  0
  5 31  1  0
 31 32  2  0
 32  2  1  0
 29  6  1  0
 28  8  1  0
 24 19  1  0
  1 33  1  0
  1 34  1  0
  1 35  1  0
  3 36  1  0
  4 37  1  0
 12 38  1  0
 12 39  1  0
 13 40  1  0
 13 41  1  0
 14 42  1  0
 14 43  1  0
 17 44  1  0
 18 45  1  0
 18 46  1  0
 20 47  1  0
 21 48  1  0
 23 49  1  0
 23 50  1  0
 23 51  1  0
 27 52  1  0
 27 53  1  0
 27 54  1  0
 30 55  1  0
 30 56  1  0
 30 57  1  0
 31 58  1  0
 32 59  1  0
M  END
$$$$
