
     RDKit          3D

 57 60  0  0  0  0  0  0  0  0999 V2000
   -0.3767   -0.1767    3.2174 C   0  0  0  0  0  0  0  0  0  0  0  0
   -1.0749    0.7807    2.2571 C   0  0  0  0  0  0  0  0  0  0  0  0
   -0.3982    0.9566    0.8849 C   0  0  0  0  0  0  0  0  0  0  0  0
   -0.1296   -0.5972   -0.0462 S   0  0  0  0  0  0  0  0  0  0  0  0
   -1.7814   -1.1598   -0.2373 C   0  0  0  0  0  0  0  0  0  0  0  0
   -2.6604   -0.2398   -0.5050 N   0  0  0  0  0  0  0  0  0  0  0  0
   -3.9661   -0.7013   -0.6450 C   0  0  0  0  0  0  0  0  0  0  0  0
   -5.0672    0.1269   -0.9531 C   0  0  0  0  0  0  0  0  0  0  0  0
   -6.2338   -0.6105   -1.0164 C   0  0  0  0  0  0  0  0  0  0  0  0
   -5.9605   -2.2803   -0.6991 S   0  0  0  0  0  0  0  0  0  0  0  0
   -4.3002   -2.0105   -0.4850 C   0  0  0  0  0  0  0  0  0  0  0  0
   -3.3370   -3.0231   -0.1702 C   0  0  0  0  0  0  0  0  0  0  0  0
   -3.6260   -4.2033    0.0196 O   0  0  0  0  0  0  0  0  0  0  0  0
   -2.0273   -2.5286   -0.0859 N   0  0  0  0  0  0  0  0  0  0  0  0
   -0.9826   -3.5267    0.1752 C   0  0  0  0  0  0  0  0  0  0  0  0
   -0.3271   -4.0406   -1.0935 C   0  0  0  0  0  0  0  0  0  0  0  0
    1.0016   -3.7093   -1.3991 C   0  0  0  0  0  0  0  0  0  0  0  0
    1.6053   -4.1779   -2.5712 C   0  0  0  0  0  0  0  0  0  0  0  0
    0.8895   -4.9939   -3.4527 C   0  0  0  0  0  0  0  0  0  0  0  0
    1.4849   -5.5149   -4.7064 C   0  0  0  0  0  0  0  0  0  0  0  0
    0.9324   -6.2461   -5.5081 O   0  0  0  0  0  0  0  0  0  0  0  0
    2.7486   -5.0958   -4.9005 O   0  0  0  0  0  0  0  0  0  0  0  0
   -0.4308   -5.3403   -3.1500 C   0  0  0  0  0  0  0  0  0  0  0  0
   -1.0330   -4.8685   -1.9800 C   0  0  0  0  0  0  0  0  0  0  0  0
    0.9399    1.7017    1.0567 C   0  0  0  0  0  0  0  0  0  0  0  0
    2.0090    1.1130    1.1917 O   0  0  0  0  0  0  0  0  0  0  0  0
    0.7722    3.0820    1.0987 N   0  0  0  0  0  0  0  0  0  0  0  0
    1.7669    4.0649    1.2928 C   0  0  0  0  0  0  0  0  0  0  0  0
    3.1214    3.7855    1.4675 C   0  0  0  0  0  0  0  0  0  0  0  0
    4.0444    4.8201    1.6641 C   0  0  0  0  0  0  0  0  0  0  0  0
    3.6323    6.1588    1.6921 C   0  0  0  0  0  0  0  0  0  0  0  0
    4.6458    7.2429    1.9234 C   0  0  0  0  0  0  0  0  0  0  0  0
    2.2700    6.4356    1.5186 C   0  0  0  0  0  0  0  0  0  0  0  0
    1.6658    8.0551    1.5485 Cl  0  0  0  0  0  0  0  0  0  0  0  0
    1.3488    5.4004    1.3181 C   0  0  0  0  0  0  0  0  0  0  0  0
   -0.8995   -0.1795    4.1793 H   0  0  0  0  0  0  0  0  0  0  0  0
   -0.3778   -1.2037    2.8418 H   0  0  0  0  0  0  0  0  0  0  0  0
    0.6579    0.1254    3.4042 H   0  0  0  0  0  0  0  0  0  0  0  0
   -1.1437    1.7595    2.7493 H   0  0  0  0  0  0  0  0  0  0  0  0
   -2.1091    0.4431    2.1226 H   0  0  0  0  0  0  0  0  0  0  0  0
   -1.0366    1.5924    0.2591 H   0  0  0  0  0  0  0  0  0  0  0  0
   -5.0193    1.1946   -1.1208 H   0  0  0  0  0  0  0  0  0  0  0  0
   -7.2331   -0.2580   -1.2318 H   0  0  0  0  0  0  0  0  0  0  0  0
   -1.4009   -4.3870    0.7117 H   0  0  0  0  0  0  0  0  0  0  0  0
   -0.2302   -3.1168    0.8568 H   0  0  0  0  0  0  0  0  0  0  0  0
    1.5861   -3.0798   -0.7301 H   0  0  0  0  0  0  0  0  0  0  0  0
    2.6344   -3.8985   -2.7848 H   0  0  0  0  0  0  0  0  0  0  0  0
    3.0019   -5.5030   -5.7548 H   0  0  0  0  0  0  0  0  0  0  0  0
   -0.9981   -5.9816   -3.8227 H   0  0  0  0  0  0  0  0  0  0  0  0
   -2.0581   -5.1663   -1.7665 H   0  0  0  0  0  0  0  0  0  0  0  0
   -0.1700    3.4332    0.9763 H   0  0  0  0  0  0  0  0  0  0  0  0
    3.5038    2.7692    1.4577 H   0  0  0  0  0  0  0  0  0  0  0  0
    5.0939    4.5632    1.7979 H   0  0  0  0  0  0  0  0  0  0  0  0
    4.6237    7.9733    1.1074 H   0  0  0  0  0  0  0  0  0  0  0  0
    5.6619    6.8380    1.9725 H   0  0  0  0  0  0  0  0  0  0  0  0
    4.4454    7.7516    2.8717 H   0  0  0  0  0  0  0  0  0  0  0  0
    0.3012    5.6518    1.1814 H   0  0  0  0  0  0  0  0  0  0  0  0
  1  2  1  0
  2  3  1  0
  3  4  1  0
  4  5  1  0
  5  6  2  0
  6  7  1  0
  7  8  1  0
  8  9  2  0
  9 10  1  0
 10 11  1  0
 11 12  1  0
 12 13  2  0
 12 14  1  0
 14 15  1  0
 15 16  1  0
 16 17  2  0
 17 18  1  0
 18 19  2  0
 19 20  1  0
 20 21  2  0
 20 22  1  0
 19 23  1  0
 23 24  2  0
  3 25  1  0
 25 26  2  0
 25 27  1  0
 27 28  1  0
 28 29  2  0
 29 30  1  0
 30 31  2  0
 31 32  1  0
 31 33  1  0
 33 34  1  0
 33 35  2  0
 14  5  1  0
 24 16  1  0
 35 28  1  0
 11  7  2  0
  1 36  1  0
  1 37  1  0
  1 38  1  0
  2 39  1  0
  2 40  1  0
  3 41  1  0
  8 42  1  0
  9 43  1  0
 15 44  1  0
 15 45  1  0
 17 46  1  0
 18 47  1  0
 22 48  1  0
 23 49  1  0
 24 50  1  0
 27 51  1  0
 29 52  1  0
 30 53  1  0
 32 54  1  0
 32 55  1  0
 32 56  1  0
 35 57  1  0
M  END
$$$$
