
     RDKit          3D

 38 39  0  0  0  0  0  0  0  0999 V2000
    0.0036   -1.9878   -0.5232 C   0  0  0  0  0  0  0  0  0  0  0  0
   -0.3402   -0.6164   -0.8716 N   0  0  0  0  0  0  0  0  0  0  0  0
   -1.7672   -0.2941   -0.9726 C   0  0  0  0  0  0  0  0  0  0  0  0
   -2.3723    0.0546    0.3860 C   0  0  0  0  0  0  0  0  0  0  0  0
   -3.8286    0.4115    0.2531 C   0  0  0  0  0  0  0  0  0  0  0  0
   -4.2424    1.7382    0.3306 C   0  0  0  0  0  0  0  0  0  0  0  0
   -5.5975    2.0285    0.1983 C   0  0  0  0  0  0  0  0  0  0  0  0
   -6.4978    0.9929   -0.0122 C   0  0  0  0  0  0  0  0  0  0  0  0
   -6.0027   -0.2969   -0.0839 C   0  0  0  0  0  0  0  0  0  0  0  0
   -4.6942   -0.6098    0.0456 N   0  0  0  0  0  0  0  0  0  0  0  0
    0.5695    0.4357   -0.9360 C   0  0  0  0  0  0  0  0  0  0  0  0
    0.2666    1.5864   -1.2269 O   0  0  0  0  0  0  0  0  0  0  0  0
    1.9866    0.1660   -0.6357 C   0  0  0  0  0  0  0  0  0  0  0  0
    2.9166    0.1509   -1.6790 C   0  0  0  0  0  0  0  0  0  0  0  0
    4.2633   -0.0741   -1.3897 C   0  0  0  0  0  0  0  0  0  0  0  0
    4.6887   -0.2528   -0.0660 C   0  0  0  0  0  0  0  0  0  0  0  0
    6.0354   -0.4374    0.0794 O   0  0  0  0  0  0  0  0  0  0  0  0
    6.5796   -0.2299    1.3771 C   0  0  0  0  0  0  0  0  0  0  0  0
    6.2036   -1.2178    2.2178 F   0  0  0  0  0  0  0  0  0  0  0  0
    6.2086    0.9620    1.8856 F   0  0  0  0  0  0  0  0  0  0  0  0
    7.9267   -0.2379    1.2930 F   0  0  0  0  0  0  0  0  0  0  0  0
    3.7463   -0.2340    0.9729 C   0  0  0  0  0  0  0  0  0  0  0  0
    2.3938   -0.0211    0.6886 C   0  0  0  0  0  0  0  0  0  0  0  0
   -0.2104   -2.1491    0.5359 H   0  0  0  0  0  0  0  0  0  0  0  0
   -0.5990   -2.6742   -1.1278 H   0  0  0  0  0  0  0  0  0  0  0  0
    1.0564   -2.1997   -0.7136 H   0  0  0  0  0  0  0  0  0  0  0  0
   -1.8909    0.5551   -1.6548 H   0  0  0  0  0  0  0  0  0  0  0  0
   -2.2849   -1.1412   -1.4360 H   0  0  0  0  0  0  0  0  0  0  0  0
   -1.8181    0.8781    0.8491 H   0  0  0  0  0  0  0  0  0  0  0  0
   -2.2795   -0.7966    1.0718 H   0  0  0  0  0  0  0  0  0  0  0  0
   -3.5258    2.5363    0.4881 H   0  0  0  0  0  0  0  0  0  0  0  0
   -5.9455    3.0569    0.2528 H   0  0  0  0  0  0  0  0  0  0  0  0
   -7.5586    1.1874   -0.1197 H   0  0  0  0  0  0  0  0  0  0  0  0
   -6.6665   -1.1406   -0.2474 H   0  0  0  0  0  0  0  0  0  0  0  0
    2.5981    0.3261   -2.7004 H   0  0  0  0  0  0  0  0  0  0  0  0
    4.9894   -0.0865   -2.1991 H   0  0  0  0  0  0  0  0  0  0  0  0
    4.0244   -0.3770    2.0177 H   0  0  0  0  0  0  0  0  0  0  0  0
    1.6651    0.0082    1.4953 H   0  0  0  0  0  0  0  0  0  0  0  0
  1  2  1  0
  2  3  1  0
  3  4  1  0
  4  5  1  0
  5  6  2  0
  6  7  1  0
  7  8  2  0
  8  9  1  0
  9 10  2  0
  2 11  1  0
 11 12  2  0
 11 13  1  0
 13 14  2  0
 14 15  1  0
 15 16  2  0
 16 17  1  0
 17 18  1  0
 18 19  1  0
 18 20  1  0
 18 21  1  0
 16 22  1  0
 22 23  2  0
 10  5  1  0
 23 13  1  0
  1 24  1  0
  1 25  1  0
  1 26  1  0
  3 27  1  0
  3 28  1  0
  4 29  1  0
  4 30  1  0
  6 31  1  0
  7 32  1  0
  8 33  1  0
  9 34  1  0
 14 35  1  0
 15 36  1  0
 22 37  1  0
 23 38  1  0
M  END
$$$$
