
     RDKit          3D

 41 43  0  0  0  0  0  0  0  0999 V2000
    1.8201   -2.6322   -0.7624 O   0  0  0  0  0  0  0  0  0  0  0  0
    1.3137   -1.5920   -0.3491 C   0  0  0  0  0  0  0  0  0  0  0  0
    1.8790   -0.8779    0.8691 C   0  0  0  0  0  0  0  0  0  0  0  0
    2.8573    0.5610    0.3147 S   0  0  0  0  0  0  0  0  0  0  0  0
    3.9095    0.8225    1.7482 C   0  0  0  0  0  0  0  0  0  0  0  0
    5.2608    1.1317    1.5064 C   0  0  0  0  0  0  0  0  0  0  0  0
    6.1377    1.3674    2.5632 C   0  0  0  0  0  0  0  0  0  0  0  0
    5.6765    1.3072    3.8699 C   0  0  0  0  0  0  0  0  0  0  0  0
    4.3361    1.0142    4.1043 C   0  0  0  0  0  0  0  0  0  0  0  0
    3.4392    0.7745    3.0683 N   0  0  0  0  0  4  0  0  0  0  0  0
    2.2239    0.5221    3.3612 O   0  0  0  0  0  1  0  0  0  0  0  0
    0.2143   -0.9459   -0.8862 N   0  0  0  0  0  0  0  0  0  0  0  0
   -0.5645   -1.3264   -2.0002 C   0  0  0  0  0  0  0  0  0  0  0  0
   -0.3596   -2.4973   -2.7312 C   0  0  0  0  0  0  0  0  0  0  0  0
   -1.1767   -2.8005   -3.8271 C   0  0  0  0  0  0  0  0  0  0  0  0
   -2.2020   -1.9352   -4.2065 C   0  0  0  0  0  0  0  0  0  0  0  0
   -2.4203   -0.7635   -3.4866 C   0  0  0  0  0  0  0  0  0  0  0  0
   -1.6163   -0.4732   -2.3790 C   0  0  0  0  0  0  0  0  0  0  0  0
   -1.7931    0.7012   -1.6741 O   0  0  0  0  0  0  0  0  0  0  0  0
   -3.0268    0.9054   -1.0959 C   0  0  0  0  0  0  0  0  0  0  0  0
   -3.7550   -0.1035   -0.4596 C   0  0  0  0  0  0  0  0  0  0  0  0
   -4.9821    0.1964    0.1346 C   0  0  0  0  0  0  0  0  0  0  0  0
   -5.4728    1.5021    0.1057 C   0  0  0  0  0  0  0  0  0  0  0  0
   -4.7350    2.5123   -0.5113 C   0  0  0  0  0  0  0  0  0  0  0  0
   -3.5084    2.2154   -1.1061 C   0  0  0  0  0  0  0  0  0  0  0  0
    1.0484   -0.5643    1.5080 H   0  0  0  0  0  0  0  0  0  0  0  0
    2.5049   -1.5858    1.4223 H   0  0  0  0  0  0  0  0  0  0  0  0
    5.6347    1.1856    0.4853 H   0  0  0  0  0  0  0  0  0  0  0  0
    7.1817    1.6001    2.3614 H   0  0  0  0  0  0  0  0  0  0  0  0
    6.3491    1.4901    4.7038 H   0  0  0  0  0  0  0  0  0  0  0  0
    3.8819    0.9518    5.0822 H   0  0  0  0  0  0  0  0  0  0  0  0
   -0.0491   -0.0569   -0.4693 H   0  0  0  0  0  0  0  0  0  0  0  0
    0.4300   -3.1975   -2.4773 H   0  0  0  0  0  0  0  0  0  0  0  0
   -1.0026   -3.7157   -4.3884 H   0  0  0  0  0  0  0  0  0  0  0  0
   -2.8252   -2.1723   -5.0648 H   0  0  0  0  0  0  0  0  0  0  0  0
   -3.2094   -0.0808   -3.7886 H   0  0  0  0  0  0  0  0  0  0  0  0
   -3.3773   -1.1210   -0.4116 H   0  0  0  0  0  0  0  0  0  0  0  0
   -5.5521   -0.5878    0.6264 H   0  0  0  0  0  0  0  0  0  0  0  0
   -6.4273    1.7336    0.5717 H   0  0  0  0  0  0  0  0  0  0  0  0
   -5.1129    3.5313   -0.5249 H   0  0  0  0  0  0  0  0  0  0  0  0
   -2.9304    3.0038   -1.5804 H   0  0  0  0  0  0  0  0  0  0  0  0
  1  2  2  0
  2  3  1  0
  3  4  1  0
  4  5  1  0
  5  6  2  0
  6  7  1  0
  7  8  2  0
  8  9  1  0
  9 10  2  0
 10 11  1  0
  2 12  1  0
 12 13  1  0
 13 14  2  0
 14 15  1  0
 15 16  2  0
 16 17  1  0
 17 18  2  0
 18 19  1  0
 19 20  1  0
 20 21  2  0
 21 22  1  0
 22 23  2  0
 23 24  1  0
 24 25  2  0
 10  5  1  0
 18 13  1  0
 25 20  1  0
  3 26  1  0
  3 27  1  0
  6 28  1  0
  7 29  1  0
  8 30  1  0
  9 31  1  0
 12 32  1  0
 14 33  1  0
 15 34  1  0
 16 35  1  0
 17 36  1  0
 21 37  1  0
 22 38  1  0
 23 39  1  0
 24 40  1  0
 25 41  1  0
M  CHG  2  10   1  11  -1
M  END
$$$$
