
     RDKit          3D

 67 72  0  0  0  0  0  0  0  0999 V2000
   -4.1907    5.0554   -0.5214 C   0  0  0  0  0  0  0  0  0  0  0  0
   -3.4585    3.8422   -1.0034 C   0  0  0  0  0  0  0  0  0  0  0  0
   -3.5063    3.4540   -2.3499 C   0  0  0  0  0  0  0  0  0  0  0  0
   -2.8350    2.3031   -2.8003 C   0  0  0  0  0  0  0  0  0  0  0  0
   -2.0910    1.5165   -1.9180 C   0  0  0  0  0  0  0  0  0  0  0  0
   -2.0188    1.9036   -0.5866 C   0  0  0  0  0  0  0  0  0  0  0  0
   -2.7108    3.0425   -0.1514 C   0  0  0  0  0  0  0  0  0  0  0  0
   -2.5562    3.2011    1.2202 N   0  0  0  0  0  0  0  0  0  0  0  0
   -1.7694    2.1896    1.7733 C   0  0  0  0  0  0  0  0  0  0  0  0
   -1.5172    2.0925    2.9654 O   0  0  0  0  0  0  0  0  0  0  0  0
   -1.3209    1.2706    0.5927 C   0  0  1  0  0  0  0  0  0  0  0  0
   -1.8092   -0.1203    0.7203 C   0  0  0  0  0  0  0  0  0  0  0  0
   -0.7400   -0.9948    0.8990 C   0  0  0  0  0  0  0  0  0  0  0  0
   -1.2137   -2.2752    0.9556 C   0  0  0  0  0  0  0  0  0  0  0  0
   -0.5073   -3.4042    0.9680 O   0  0  0  0  0  0  0  0  0  0  0  0
   -2.6207   -2.1987    0.9273 N   0  0  0  0  0  0  0  0  0  0  0  0
   -3.5213   -3.2969    1.1048 C   0  0  0  0  0  0  0  0  0  0  0  0
   -4.7600   -3.3209    0.4524 C   0  0  0  0  0  0  0  0  0  0  0  0
   -5.6231   -4.4074    0.6208 C   0  0  0  0  0  0  0  0  0  0  0  0
   -5.2627   -5.4693    1.4483 C   0  0  0  0  0  0  0  0  0  0  0  0
   -4.0414   -5.4444    2.1171 C   0  0  0  0  0  0  0  0  0  0  0  0
   -3.1739   -4.3619    1.9513 C   0  0  0  0  0  0  0  0  0  0  0  0
   -2.9724   -0.8519    0.7037 C   0  0  0  0  0  0  0  0  0  0  0  0
   -4.2353   -0.4516    0.5741 O   0  0  0  0  0  0  0  0  0  0  0  0
    0.5617   -0.2957    0.9066 C   0  0  1  0  0  0  0  0  0  0  0  0
    1.5984   -0.9048   -0.0592 C   0  0  0  0  0  0  0  0  0  0  0  0
    2.7239   -0.0023   -0.3042 N   0  0  0  0  0  0  0  0  0  0  0  0
    3.9991   -0.5085   -0.4426 C   0  0  0  0  0  0  0  0  0  0  0  0
    4.2664   -1.7021   -0.3980 O   0  0  0  0  0  0  0  0  0  0  0  0
    4.9129    0.4783   -0.6353 O   0  0  0  0  0  0  0  0  0  0  0  0
    6.3219    0.1695   -0.7889 C   0  0  0  0  0  0  0  0  0  0  0  0
    6.9981    1.5373   -0.9775 C   0  0  0  0  0  0  0  0  0  0  0  0
    6.8899   -0.4858    0.4766 C   0  0  0  0  0  0  0  0  0  0  0  0
    6.5768   -0.6767   -2.0424 C   0  0  0  0  0  0  0  0  0  0  0  0
    2.4238    1.4272   -0.4053 C   0  0  0  0  0  0  0  0  0  0  0  0
    0.9133    1.7122   -0.5126 C   0  0  0  0  0  0  0  0  0  0  0  0
    0.1706    1.1333    0.6041 N   0  0  0  0  0  0  0  0  0  0  0  0
   -4.9295    4.7753    0.2363 H   0  0  0  0  0  0  0  0  0  0  0  0
   -4.7228    5.5536   -1.3387 H   0  0  0  0  0  0  0  0  0  0  0  0
   -3.4889    5.7776   -0.0909 H   0  0  0  0  0  0  0  0  0  0  0  0
   -4.0769    4.0398   -3.0690 H   0  0  0  0  0  0  0  0  0  0  0  0
   -2.9014    2.0204   -3.8491 H   0  0  0  0  0  0  0  0  0  0  0  0
   -1.5892    0.6190   -2.2704 H   0  0  0  0  0  0  0  0  0  0  0  0
   -2.9610    3.9331    1.7851 H   0  0  0  0  0  0  0  0  0  0  0  0
   -1.0724   -4.1345    0.6572 H   0  0  0  0  0  0  0  0  0  0  0  0
   -5.0654   -2.5223   -0.2184 H   0  0  0  0  0  0  0  0  0  0  0  0
   -6.5790   -4.4227    0.1032 H   0  0  0  0  0  0  0  0  0  0  0  0
   -5.9394   -6.3099    1.5809 H   0  0  0  0  0  0  0  0  0  0  0  0
   -3.7693   -6.2611    2.7820 H   0  0  0  0  0  0  0  0  0  0  0  0
   -2.2561   -4.3475    2.5362 H   0  0  0  0  0  0  0  0  0  0  0  0
   -4.2395    0.5179    0.4785 H   0  0  0  0  0  0  0  0  0  0  0  0
    0.9766   -0.3003    1.9227 H   0  0  0  0  0  0  0  0  0  0  0  0
    1.9563   -1.8651    0.3293 H   0  0  0  0  0  0  0  0  0  0  0  0
    1.1454   -1.1095   -1.0385 H   0  0  0  0  0  0  0  0  0  0  0  0
    6.5787    2.0632   -1.8437 H   0  0  0  0  0  0  0  0  0  0  0  0
    6.8215    2.1829   -0.1086 H   0  0  0  0  0  0  0  0  0  0  0  0
    8.0794    1.4390   -1.1209 H   0  0  0  0  0  0  0  0  0  0  0  0
    6.5096   -1.5021    0.6166 H   0  0  0  0  0  0  0  0  0  0  0  0
    7.9829   -0.5484    0.4370 H   0  0  0  0  0  0  0  0  0  0  0  0
    6.6055    0.0836    1.3700 H   0  0  0  0  0  0  0  0  0  0  0  0
    6.1696   -1.6881   -1.9459 H   0  0  0  0  0  0  0  0  0  0  0  0
    7.6488   -0.7748   -2.2463 H   0  0  0  0  0  0  0  0  0  0  0  0
    6.0952   -0.2252   -2.9176 H   0  0  0  0  0  0  0  0  0  0  0  0
    2.9367    1.8329   -1.2869 H   0  0  0  0  0  0  0  0  0  0  0  0
    2.8462    1.9188    0.4814 H   0  0  0  0  0  0  0  0  0  0  0  0
    0.7651    2.7978   -0.5394 H   0  0  0  0  0  0  0  0  0  0  0  0
    0.5722    1.3010   -1.4689 H   0  0  0  0  0  0  0  0  0  0  0  0
  1  2  1  0
  2  3  2  0
  3  4  1  0
  4  5  2  0
  5  6  1  0
  6  7  2  0
  7  8  1  0
  8  9  1  0
  9 10  2  0
  9 11  1  0
 11 12  1  0
 12 13  1  0
 13 14  2  0
 14 15  1  0
 14 16  1  0
 16 17  1  0
 17 18  2  0
 18 19  1  0
 19 20  2  0
 20 21  1  0
 21 22  2  0
 16 23  1  0
 23 24  1  0
 13 25  1  0
 25 26  1  0
 26 27  1  0
 27 28  1  0
 28 29  2  0
 28 30  1  0
 30 31  1  0
 31 32  1  0
 31 33  1  0
 31 34  1  0
 27 35  1  0
 35 36  1  0
 36 37  1  0
  7  2  1  0
 11 37  1  6
 11  6  1  0
 23 12  2  0
 37 25  1  0
 22 17  1  0
  1 38  1  0
  1 39  1  0
  1 40  1  0
  3 41  1  0
  4 42  1  0
  5 43  1  0
  8 44  1  0
 15 45  1  0
 18 46  1  0
 19 47  1  0
 20 48  1  0
 21 49  1  0
 22 50  1  0
 24 51  1  0
 25 52  1  1
 26 53  1  0
 26 54  1  0
 32 55  1  0
 32 56  1  0
 32 57  1  0
 33 58  1  0
 33 59  1  0
 33 60  1  0
 34 61  1  0
 34 62  1  0
 34 63  1  0
 35 64  1  0
 35 65  1  0
 36 66  1  0
 36 67  1  0
M  END
$$$$
