
     RDKit          3D

 59 62  0  0  0  0  0  0  0  0999 V2000
    6.0125    2.0096    2.5567 C   0  0  0  0  0  0  0  0  0  0  0  0
    5.9259    0.7718    1.8586 O   0  0  0  0  0  0  0  0  0  0  0  0
    4.8051    0.5615    1.1022 C   0  0  0  0  0  0  0  0  0  0  0  0
    4.7815   -0.6617    0.4282 C   0  0  0  0  0  0  0  0  0  0  0  0
    3.7010   -1.0086   -0.3887 C   0  0  0  0  0  0  0  0  0  0  0  0
    2.6330   -0.1232   -0.5400 C   0  0  0  0  0  0  0  0  0  0  0  0
    1.4794   -0.4459   -1.3776 C   0  0  0  0  0  0  0  0  0  0  0  0
    0.4545    0.4153   -1.5243 C   0  0  0  0  0  0  0  0  0  0  0  0
   -0.7651    0.1302   -2.3567 C   0  0  0  0  0  0  0  0  0  0  0  0
   -1.5362   -1.0006   -1.7380 N   0  0  0  0  0  0  0  0  0  0  0  0
   -1.3956   -2.2693   -2.5272 C   0  0  0  0  0  0  0  0  0  0  0  0
   -1.5492   -3.5358   -1.6775 C   0  0  0  0  0  0  0  0  0  0  0  0
   -0.7381   -3.5409   -0.3907 C   0  0  0  0  0  0  0  0  0  0  0  0
   -0.6407   -5.0193   -0.1062 C   0  0  0  0  0  0  0  0  0  0  0  0
   -0.4661   -5.5995   -1.4960 C   0  0  0  0  0  0  0  0  0  0  0  0
   -1.0679   -4.6788   -2.4215 O   0  0  0  0  0  0  0  0  0  0  0  0
   -3.1670   -0.6083   -1.3666 S   0  0  0  0  0  6  0  0  0  0  0  0
   -3.7536   -0.0530   -2.5697 O   0  0  0  0  0  0  0  0  0  0  0  0
   -3.7780   -1.7352   -0.6933 O   0  0  0  0  0  0  0  0  0  0  0  0
   -3.0024    0.6825   -0.1591 C   0  0  0  0  0  0  0  0  0  0  0  0
   -2.3082    0.4231    1.0255 C   0  0  0  0  0  0  0  0  0  0  0  0
   -2.1151    1.4553    1.9453 C   0  0  0  0  0  0  0  0  0  0  0  0
   -2.6154    2.7424    1.6855 C   0  0  0  0  0  0  0  0  0  0  0  0
   -2.3386    3.8244    2.6791 C   0  0  0  0  0  0  0  0  0  0  0  0
   -2.8054    5.2252    2.3789 C   0  0  0  0  0  0  0  0  0  0  0  0
   -1.7313    3.5644    3.7178 O   0  0  0  0  0  0  0  0  0  0  0  0
   -3.3380    2.9788    0.5077 C   0  0  0  0  0  0  0  0  0  0  0  0
   -3.5354    1.9473   -0.4143 C   0  0  0  0  0  0  0  0  0  0  0  0
    0.5313    1.7590   -0.8730 C   0  0  0  0  0  0  0  0  0  0  0  0
   -0.3157    2.6259   -1.0695 O   0  0  0  0  0  0  0  0  0  0  0  0
    1.5975    1.9964   -0.0450 N   0  0  0  0  0  0  0  0  0  0  0  0
    2.6590    1.1006    0.1348 C   0  0  0  0  0  0  0  0  0  0  0  0
    3.7336    1.4459    0.9596 C   0  0  0  0  0  0  0  0  0  0  0  0
    5.2175    2.0888    3.3044 H   0  0  0  0  0  0  0  0  0  0  0  0
    6.9732    2.0339    3.0837 H   0  0  0  0  0  0  0  0  0  0  0  0
    5.9944    2.8556    1.8607 H   0  0  0  0  0  0  0  0  0  0  0  0
    5.6157   -1.3525    0.5394 H   0  0  0  0  0  0  0  0  0  0  0  0
    3.7114   -1.9654   -0.9013 H   0  0  0  0  0  0  0  0  0  0  0  0
    1.4708   -1.4163   -1.8605 H   0  0  0  0  0  0  0  0  0  0  0  0
   -1.3888    1.0216   -2.4726 H   0  0  0  0  0  0  0  0  0  0  0  0
   -0.4585   -0.1238   -3.3797 H   0  0  0  0  0  0  0  0  0  0  0  0
   -2.1075   -2.2797   -3.3624 H   0  0  0  0  0  0  0  0  0  0  0  0
   -0.4070   -2.2995   -3.0018 H   0  0  0  0  0  0  0  0  0  0  0  0
   -2.6043   -3.7343   -1.4629 H   0  0  0  0  0  0  0  0  0  0  0  0
    0.2700   -3.1439   -0.5632 H   0  0  0  0  0  0  0  0  0  0  0  0
   -1.2045   -2.9734    0.4209 H   0  0  0  0  0  0  0  0  0  0  0  0
    0.1772   -5.2814    0.5702 H   0  0  0  0  0  0  0  0  0  0  0  0
   -1.5784   -5.3709    0.3428 H   0  0  0  0  0  0  0  0  0  0  0  0
    0.5933   -5.6799   -1.7560 H   0  0  0  0  0  0  0  0  0  0  0  0
   -0.9255   -6.5853   -1.6040 H   0  0  0  0  0  0  0  0  0  0  0  0
   -1.9148   -0.5705    1.2290 H   0  0  0  0  0  0  0  0  0  0  0  0
   -1.5662    1.2549    2.8633 H   0  0  0  0  0  0  0  0  0  0  0  0
   -2.3491    5.5817    1.4538 H   0  0  0  0  0  0  0  0  0  0  0  0
   -2.4876    5.8912    3.1861 H   0  0  0  0  0  0  0  0  0  0  0  0
   -3.8966    5.2600    2.3168 H   0  0  0  0  0  0  0  0  0  0  0  0
   -3.7394    3.9613    0.2721 H   0  0  0  0  0  0  0  0  0  0  0  0
   -4.0804    2.1452   -1.3324 H   0  0  0  0  0  0  0  0  0  0  0  0
    1.6149    2.9046    0.3976 H   0  0  0  0  0  0  0  0  0  0  0  0
    3.7190    2.3982    1.4738 H   0  0  0  0  0  0  0  0  0  0  0  0
  1  2  1  0
  2  3  1  0
  3  4  2  0
  4  5  1  0
  5  6  2  0
  6  7  1  0
  7  8  2  0
  8  9  1  0
  9 10  1  0
 10 11  1  0
 11 12  1  0
 12 13  1  0
 13 14  1  0
 14 15  1  0
 15 16  1  0
 10 17  1  0
 17 18  2  0
 17 19  2  0
 17 20  1  0
 20 21  2  0
 21 22  1  0
 22 23  2  0
 23 24  1  0
 24 25  1  0
 24 26  2  0
 23 27  1  0
 27 28  2  0
  8 29  1  0
 29 30  2  0
 29 31  1  0
 31 32  1  0
 32 33  2  0
 33  3  1  0
 32  6  1  0
 16 12  1  0
 28 20  1  0
  1 34  1  0
  1 35  1  0
  1 36  1  0
  4 37  1  0
  5 38  1  0
  7 39  1  0
  9 40  1  0
  9 41  1  0
 11 42  1  0
 11 43  1  0
 12 44  1  0
 13 45  1  0
 13 46  1  0
 14 47  1  0
 14 48  1  0
 15 49  1  0
 15 50  1  0
 21 51  1  0
 22 52  1  0
 25 53  1  0
 25 54  1  0
 25 55  1  0
 27 56  1  0
 28 57  1  0
 31 58  1  0
 33 59  1  0
M  END
$$$$
