
     RDKit          3D

 36 37  0  0  0  0  0  0  0  0999 V2000
   -3.5561   -2.3335   -0.5431 C   0  0  0  0  0  0  0  0  0  0  0  0
   -2.0428   -2.2911   -0.4508 C   0  0  0  0  0  0  0  0  0  0  0  0
   -1.6173   -1.0435    0.1232 O   0  0  0  0  0  0  0  0  0  0  0  0
   -1.4530   -0.0177   -0.7520 C   0  0  0  0  0  0  0  0  0  0  0  0
   -1.6414   -0.0793   -1.9568 O   0  0  0  0  0  0  0  0  0  0  0  0
   -1.0371    1.2313   -0.0543 C   0  0  0  0  0  0  0  0  0  0  0  0
   -1.1671    2.4236   -0.7890 C   0  0  0  0  0  0  0  0  0  0  0  0
   -0.7980    3.6491   -0.2330 C   0  0  0  0  0  0  0  0  0  0  0  0
   -0.2923    3.6977    1.0619 C   0  0  0  0  0  0  0  0  0  0  0  0
   -0.1515    2.5223    1.8002 C   0  0  0  0  0  0  0  0  0  0  0  0
   -0.5177    1.2864    1.2536 C   0  0  0  0  0  0  0  0  0  0  0  0
   -0.2988    0.1153    2.0482 N   0  0  0  0  0  0  0  0  0  0  0  0
    1.2882   -0.4102    2.3206 S   0  0  0  0  0  6  0  0  0  0  0  0
    2.0279    0.6134    3.0235 O   0  0  0  0  0  0  0  0  0  0  0  0
    1.1590   -1.7394    2.8855 O   0  0  0  0  0  0  0  0  0  0  0  0
    1.9497   -0.6044    0.6949 C   0  0  0  0  0  0  0  0  0  0  0  0
    1.8449   -1.8444    0.0512 C   0  0  0  0  0  0  0  0  0  0  0  0
    2.3704   -2.0046   -1.2320 C   0  0  0  0  0  0  0  0  0  0  0  0
    3.0081   -0.9363   -1.8636 C   0  0  0  0  0  0  0  0  0  0  0  0
    3.1259    0.2907   -1.2101 C   0  0  0  0  0  0  0  0  0  0  0  0
    2.6020    0.4511    0.0706 C   0  0  0  0  0  0  0  0  0  0  0  0
    2.7203    1.6504    0.6523 F   0  0  0  0  0  0  0  0  0  0  0  0
   -3.8945   -3.3018   -0.9225 H   0  0  0  0  0  0  0  0  0  0  0  0
   -3.9316   -1.5476   -1.2059 H   0  0  0  0  0  0  0  0  0  0  0  0
   -4.0059   -2.1624    0.4404 H   0  0  0  0  0  0  0  0  0  0  0  0
   -1.5738   -2.4616   -1.4266 H   0  0  0  0  0  0  0  0  0  0  0  0
   -1.6915   -3.0841    0.2175 H   0  0  0  0  0  0  0  0  0  0  0  0
   -1.5586    2.4031   -1.8054 H   0  0  0  0  0  0  0  0  0  0  0  0
   -0.9027    4.5641   -0.8118 H   0  0  0  0  0  0  0  0  0  0  0  0
    0.0025    4.6490    1.4991 H   0  0  0  0  0  0  0  0  0  0  0  0
    0.2542    2.5782    2.8091 H   0  0  0  0  0  0  0  0  0  0  0  0
   -0.9079   -0.6801    1.8345 H   0  0  0  0  0  0  0  0  0  0  0  0
    1.3587   -2.6870    0.5389 H   0  0  0  0  0  0  0  0  0  0  0  0
    2.2874   -2.9635   -1.7393 H   0  0  0  0  0  0  0  0  0  0  0  0
    3.4171   -1.0607   -2.8639 H   0  0  0  0  0  0  0  0  0  0  0  0
    3.6233    1.1273   -1.6926 H   0  0  0  0  0  0  0  0  0  0  0  0
  1  2  1  0
  2  3  1  0
  3  4  1  0
  4  5  2  0
  4  6  1  0
  6  7  2  0
  7  8  1  0
  8  9  2  0
  9 10  1  0
 10 11  2  0
 11 12  1  0
 12 13  1  0
 13 14  2  0
 13 15  2  0
 13 16  1  0
 16 17  2  0
 17 18  1  0
 18 19  2  0
 19 20  1  0
 20 21  2  0
 21 22  1  0
 11  6  1  0
 21 16  1  0
  1 23  1  0
  1 24  1  0
  1 25  1  0
  2 26  1  0
  2 27  1  0
  7 28  1  0
  8 29  1  0
  9 30  1  0
 10 31  1  0
 12 32  1  0
 17 33  1  0
 18 34  1  0
 19 35  1  0
 20 36  1  0
M  END
$$$$
