
     RDKit          3D

 23 23  0  0  0  0  0  0  0  0999 V2000
   -2.1729    1.2802    0.9922 C   0  0  0  0  0  0  0  0  0  0  0  0
   -1.4175    0.5488   -0.0843 C   0  0  0  0  0  0  0  0  0  0  0  0
   -0.6677    1.4094   -0.9900 C   0  0  0  0  0  0  0  0  0  0  0  0
    0.6505    1.4291   -1.2474 C   0  0  0  0  0  0  0  0  0  0  0  0
    1.6343    0.6093   -0.6244 C   0  0  0  0  0  0  0  0  0  0  0  0
    2.9676    0.4491   -0.9920 C   0  0  0  0  0  0  0  0  0  0  0  0
    3.5727   -0.4484   -0.0806 C   0  0  0  0  0  0  0  0  0  0  0  0
    2.5891   -0.7926    0.8087 C   0  0  0  0  0  0  0  0  0  0  0  0
    1.4311   -0.1653    0.4967 O   0  0  0  0  0  0  0  0  0  0  0  0
   -1.4425   -0.7841   -0.2751 C   0  0  0  0  0  0  0  0  0  0  0  0
   -2.1400   -1.7459    0.5916 C   0  0  0  0  0  0  0  0  0  0  0  0
   -2.7299   -1.5427    1.6340 O   0  0  0  0  0  0  0  0  0  0  0  0
   -2.0528   -2.9796    0.0635 O   0  0  0  0  0  0  0  0  0  0  0  0
   -1.6001    1.2771    1.9253 H   0  0  0  0  0  0  0  0  0  0  0  0
   -3.1573    0.8395    1.1744 H   0  0  0  0  0  0  0  0  0  0  0  0
   -2.3572    2.3252    0.7166 H   0  0  0  0  0  0  0  0  0  0  0  0
   -1.2867    2.1402   -1.5119 H   0  0  0  0  0  0  0  0  0  0  0  0
    1.0110    2.1463   -1.9809 H   0  0  0  0  0  0  0  0  0  0  0  0
    3.4449    0.9322   -1.8336 H   0  0  0  0  0  0  0  0  0  0  0  0
    4.5957   -0.7961   -0.0725 H   0  0  0  0  0  0  0  0  0  0  0  0
    2.5518   -1.4363    1.6763 H   0  0  0  0  0  0  0  0  0  0  0  0
   -0.8907   -1.2318   -1.0959 H   0  0  0  0  0  0  0  0  0  0  0  0
   -2.5335   -3.5368    0.7097 H   0  0  0  0  0  0  0  0  0  0  0  0
  1  2  1  0
  2  3  1  0
  3  4  2  3
  4  5  1  0
  5  6  2  0
  6  7  1  0
  7  8  2  0
  8  9  1  0
  2 10  2  3
 10 11  1  0
 11 12  2  0
 11 13  1  0
  9  5  1  0
  1 14  1  0
  1 15  1  0
  1 16  1  0
  3 17  1  0
  4 18  1  0
  6 19  1  0
  7 20  1  0
  8 21  1  0
 10 22  1  0
 13 23  1  0
M  END
$$$$
