
     RDKit          3D

 51 54  0  0  0  0  0  0  0  0999 V2000
    7.2112   -2.3944    0.7778 N   0  0  0  0  0  0  0  0  0  0  0  0
    5.9717   -2.1773    1.8986 S   0  0  0  0  0  6  0  0  0  0  0  0
    6.5634   -1.4457    2.9954 O   0  0  0  0  0  0  0  0  0  0  0  0
    5.3040   -3.4444    2.0799 O   0  0  0  0  0  0  0  0  0  0  0  0
    4.8822   -1.0932    1.0154 C   0  0  0  0  0  0  0  0  0  0  0  0
    4.9398    0.2841    1.2315 C   0  0  0  0  0  0  0  0  0  0  0  0
    4.0701    1.1309    0.5356 C   0  0  0  0  0  0  0  0  0  0  0  0
    3.1393    0.6065   -0.3647 C   0  0  0  0  0  0  0  0  0  0  0  0
    2.2216    1.3851   -1.0940 N   0  0  0  0  0  0  0  0  0  0  0  0
    1.9969    2.7490   -1.0035 C   0  0  0  0  0  0  0  0  0  0  0  0
    2.6087    3.5358   -0.2845 O   0  0  0  0  0  0  0  0  0  0  0  0
    0.8733    3.2365   -1.9097 C   0  0  0  0  0  0  0  0  0  0  0  0
   -0.7421    3.0476   -1.0950 S   0  0  0  0  0  0  0  0  0  0  0  0
   -0.9657    1.3285   -1.1915 C   0  0  0  0  0  0  0  0  0  0  0  0
   -0.2864    0.5570   -2.0106 N   0  0  0  0  0  0  0  0  0  0  0  0
   -0.5532   -0.7386   -1.6853 N   0  0  0  0  0  0  0  0  0  0  0  0
   -1.4349   -0.7475   -0.7003 C   0  0  0  0  0  0  0  0  0  0  0  0
   -2.1304   -1.9779   -0.2083 C   0  0  0  0  0  0  0  0  0  0  0  0
   -3.5826   -2.0286   -0.5988 C   0  0  0  0  0  0  0  0  0  0  0  0
   -4.6958   -1.8521    0.2014 C   0  0  0  0  0  0  0  0  0  0  0  0
   -5.9141   -1.9681   -0.5280 C   0  0  0  0  0  0  0  0  0  0  0  0
   -5.6944   -2.2391   -1.8590 C   0  0  0  0  0  0  0  0  0  0  0  0
   -4.0289   -2.3590   -2.2231 S   0  0  0  0  0  0  0  0  0  0  0  0
   -1.7043    0.5610   -0.3070 N   0  0  0  0  0  0  0  0  0  0  0  0
   -2.5238    0.9938    0.7654 C   0  0  0  0  0  0  0  0  0  0  0  0
   -3.4430    2.0321    0.5726 C   0  0  0  0  0  0  0  0  0  0  0  0
   -4.2516    2.4489    1.6313 C   0  0  0  0  0  0  0  0  0  0  0  0
   -4.1409    1.8397    2.8802 C   0  0  0  0  0  0  0  0  0  0  0  0
   -3.2196    0.8124    3.0770 C   0  0  0  0  0  0  0  0  0  0  0  0
   -2.4097    0.3864    2.0228 C   0  0  0  0  0  0  0  0  0  0  0  0
    3.0887   -0.7812   -0.5640 C   0  0  0  0  0  0  0  0  0  0  0  0
    3.9535   -1.6338    0.1253 C   0  0  0  0  0  0  0  0  0  0  0  0
    6.9961   -2.0069   -0.1404 H   0  0  0  0  0  0  0  0  0  0  0  0
    8.0726   -2.0016    1.1628 H   0  0  0  0  0  0  0  0  0  0  0  0
    5.6475    0.7120    1.9388 H   0  0  0  0  0  0  0  0  0  0  0  0
    4.1410    2.1978    0.7248 H   0  0  0  0  0  0  0  0  0  0  0  0
    1.5692    0.8601   -1.6794 H   0  0  0  0  0  0  0  0  0  0  0  0
    1.0385    4.3001   -2.1115 H   0  0  0  0  0  0  0  0  0  0  0  0
    0.9016    2.7230   -2.8761 H   0  0  0  0  0  0  0  0  0  0  0  0
   -1.6216   -2.8576   -0.6260 H   0  0  0  0  0  0  0  0  0  0  0  0
   -2.0261   -2.0824    0.8755 H   0  0  0  0  0  0  0  0  0  0  0  0
   -4.6453   -1.6425    1.2634 H   0  0  0  0  0  0  0  0  0  0  0  0
   -6.9018   -1.8595   -0.0971 H   0  0  0  0  0  0  0  0  0  0  0  0
   -6.4318   -2.3782   -2.6373 H   0  0  0  0  0  0  0  0  0  0  0  0
   -3.5744    2.5075   -0.3971 H   0  0  0  0  0  0  0  0  0  0  0  0
   -4.9707    3.2510    1.4806 H   0  0  0  0  0  0  0  0  0  0  0  0
   -4.7679    2.1728    3.7035 H   0  0  0  0  0  0  0  0  0  0  0  0
   -3.1216    0.3540    4.0584 H   0  0  0  0  0  0  0  0  0  0  0  0
   -1.6652   -0.3793    2.2241 H   0  0  0  0  0  0  0  0  0  0  0  0
    2.3648   -1.2155   -1.2521 H   0  0  0  0  0  0  0  0  0  0  0  0
    3.8919   -2.7091   -0.0319 H   0  0  0  0  0  0  0  0  0  0  0  0
  1  2  1  0
  2  3  2  0
  2  4  2  0
  2  5  1  0
  5  6  2  0
  6  7  1  0
  7  8  2  0
  8  9  1  0
  9 10  1  0
 10 11  2  0
 10 12  1  0
 12 13  1  0
 13 14  1  0
 14 15  2  0
 15 16  1  0
 16 17  2  0
 17 18  1  0
 18 19  1  0
 19 20  2  0
 20 21  1  0
 21 22  2  0
 22 23  1  0
 17 24  1  0
 24 25  1  0
 25 26  2  0
 26 27  1  0
 27 28  2  0
 28 29  1  0
 29 30  2  0
  8 31  1  0
 31 32  2  0
 32  5  1  0
 24 14  1  0
 30 25  1  0
 23 19  1  0
  1 33  1  0
  1 34  1  0
  6 35  1  0
  7 36  1  0
  9 37  1  0
 12 38  1  0
 12 39  1  0
 18 40  1  0
 18 41  1  0
 20 42  1  0
 21 43  1  0
 22 44  1  0
 26 45  1  0
 27 46  1  0
 28 47  1  0
 29 48  1  0
 30 49  1  0
 31 50  1  0
 32 51  1  0
M  END
$$$$
