
     RDKit          3D

 67 72  0  0  0  0  0  0  0  0999 V2000
    1.8996   -2.2603    2.5011 O   0  0  0  0  0  0  0  0  0  0  0  0
    1.8238   -1.4060    1.6152 C   0  0  0  0  0  0  0  0  0  0  0  0
    2.9114   -0.3235    1.4284 C   0  0  0  0  0  0  0  0  0  0  0  0
    4.2207   -0.7644    2.1069 C   0  0  0  0  0  0  0  0  0  0  0  0
    5.2655    0.3296    2.1460 C   0  0  0  0  0  0  0  0  0  0  0  0
    5.2187    1.3212    3.1358 C   0  0  0  0  0  0  0  0  0  0  0  0
    6.1730    2.3395    3.1605 C   0  0  0  0  0  0  0  0  0  0  0  0
    7.1790    2.3778    2.1966 C   0  0  0  0  0  0  0  0  0  0  0  0
    7.2327    1.3978    1.2070 C   0  0  0  0  0  0  0  0  0  0  0  0
    6.2815    0.3771    1.1815 C   0  0  0  0  0  0  0  0  0  0  0  0
    3.1333   -0.0859   -0.0012 N   0  0  0  0  0  0  0  0  0  0  0  0
    1.9502    0.2620   -0.6621 C   0  0  0  0  0  0  0  0  0  0  0  0
    2.0983    1.1298   -1.6706 N   0  0  0  0  0  0  0  0  0  0  0  0
    0.9870    1.4262   -2.3440 C   0  0  0  0  0  0  0  0  0  0  0  0
   -0.2454    0.9876   -2.0638 N   0  0  0  0  0  0  0  0  0  0  0  0
   -0.3893    0.1503   -1.0151 C   0  0  0  0  0  0  0  0  0  0  0  0
   -1.7061   -0.1329   -0.6039 N   0  0  0  0  0  0  0  0  0  0  0  0
   -2.0694    0.5708    0.6613 C   0  0  0  0  0  0  0  0  0  0  0  0
   -3.1462    1.6603    0.4544 C   0  0  0  0  0  0  0  0  0  0  0  0
   -4.3827    1.1051   -0.1601 N   0  0  0  0  0  0  0  0  0  0  0  0
   -5.2527    2.1257   -0.5763 C   0  0  0  0  0  0  0  0  0  0  0  0
   -5.9277    2.8791    0.3991 C   0  0  0  0  0  0  0  0  0  0  0  0
   -6.7930    3.9206    0.0501 C   0  0  0  0  0  0  0  0  0  0  0  0
   -6.9982    4.2324   -1.2899 C   0  0  0  0  0  0  0  0  0  0  0  0
   -6.3378    3.5035   -2.2750 C   0  0  0  0  0  0  0  0  0  0  0  0
   -5.4730    2.4612   -1.9196 C   0  0  0  0  0  0  0  0  0  0  0  0
   -4.1493   -0.0468   -1.0652 C   0  0  0  0  0  0  0  0  0  0  0  0
   -2.7313   -0.0121   -1.6727 C   0  0  0  0  0  0  0  0  0  0  0  0
    0.7260   -0.3139   -0.2975 C   0  0  0  0  0  0  0  0  0  0  0  0
    0.7105   -1.2878    0.7672 N   0  0  0  0  0  0  0  0  0  0  0  0
   -0.2447   -2.3952    0.7613 C   0  0  0  0  0  0  0  0  0  0  0  0
    0.1569   -3.5016   -0.1961 C   0  0  0  0  0  0  0  0  0  0  0  0
    1.0183   -4.5281    0.2218 C   0  0  0  0  0  0  0  0  0  0  0  0
    1.4079   -5.5355   -0.6634 C   0  0  0  0  0  0  0  0  0  0  0  0
    0.9402   -5.5205   -1.9752 C   0  0  0  0  0  0  0  0  0  0  0  0
    1.4687   -6.8818   -3.1754 Br  0  0  0  0  0  0  0  0  0  0  0  0
    0.0872   -4.5087   -2.4092 C   0  0  0  0  0  0  0  0  0  0  0  0
   -0.3017   -3.5025   -1.5218 C   0  0  0  0  0  0  0  0  0  0  0  0
    2.5423    0.5939    1.9086 H   0  0  0  0  0  0  0  0  0  0  0  0
    4.6320   -1.6483    1.6005 H   0  0  0  0  0  0  0  0  0  0  0  0
    4.0297   -1.0827    3.1403 H   0  0  0  0  0  0  0  0  0  0  0  0
    4.4436    1.3043    3.8984 H   0  0  0  0  0  0  0  0  0  0  0  0
    6.1345    3.1019    3.9346 H   0  0  0  0  0  0  0  0  0  0  0  0
    7.9229    3.1702    2.2177 H   0  0  0  0  0  0  0  0  0  0  0  0
    8.0175    1.4269    0.4551 H   0  0  0  0  0  0  0  0  0  0  0  0
    6.3363   -0.3814    0.4023 H   0  0  0  0  0  0  0  0  0  0  0  0
    3.8442    0.6015   -0.2398 H   0  0  0  0  0  0  0  0  0  0  0  0
    1.0875    2.1003   -3.1882 H   0  0  0  0  0  0  0  0  0  0  0  0
   -2.4628   -0.1819    1.3554 H   0  0  0  0  0  0  0  0  0  0  0  0
   -1.1998    1.0252    1.1519 H   0  0  0  0  0  0  0  0  0  0  0  0
   -3.3827    2.1027    1.4292 H   0  0  0  0  0  0  0  0  0  0  0  0
   -2.7283    2.4512   -0.1833 H   0  0  0  0  0  0  0  0  0  0  0  0
   -5.7941    2.6379    1.4513 H   0  0  0  0  0  0  0  0  0  0  0  0
   -7.3069    4.4809    0.8268 H   0  0  0  0  0  0  0  0  0  0  0  0
   -7.6695    5.0412   -1.5665 H   0  0  0  0  0  0  0  0  0  0  0  0
   -6.4882    3.7473   -3.3236 H   0  0  0  0  0  0  0  0  0  0  0  0
   -4.9577    1.9387   -2.7194 H   0  0  0  0  0  0  0  0  0  0  0  0
   -4.2549   -0.9590   -0.4634 H   0  0  0  0  0  0  0  0  0  0  0  0
   -4.9066   -0.1245   -1.8532 H   0  0  0  0  0  0  0  0  0  0  0  0
   -2.6183   -0.8497   -2.3705 H   0  0  0  0  0  0  0  0  0  0  0  0
   -2.6264    0.9207   -2.2403 H   0  0  0  0  0  0  0  0  0  0  0  0
   -1.2642   -2.0775    0.5518 H   0  0  0  0  0  0  0  0  0  0  0  0
   -0.3060   -2.8190    1.7724 H   0  0  0  0  0  0  0  0  0  0  0  0
    1.3959   -4.5460    1.2432 H   0  0  0  0  0  0  0  0  0  0  0  0
    2.0774   -6.3197   -0.3203 H   0  0  0  0  0  0  0  0  0  0  0  0
   -0.2760   -4.4900   -3.4334 H   0  0  0  0  0  0  0  0  0  0  0  0
   -0.9631   -2.7152   -1.8741 H   0  0  0  0  0  0  0  0  0  0  0  0
  1  2  2  0
  2  3  1  0
  3  4  1  0
  4  5  1  0
  5  6  2  0
  6  7  1  0
  7  8  2  0
  8  9  1  0
  9 10  2  0
  3 11  1  0
 11 12  1  0
 12 13  2  0
 13 14  1  0
 14 15  2  0
 15 16  1  0
 16 17  1  0
 17 18  1  0
 18 19  1  0
 19 20  1  0
 20 21  1  0
 21 22  2  0
 22 23  1  0
 23 24  2  0
 24 25  1  0
 25 26  2  0
 20 27  1  0
 27 28  1  0
 16 29  2  0
 29 30  1  0
 30 31  1  0
 31 32  1  0
 32 33  2  0
 33 34  1  0
 34 35  2  0
 35 36  1  0
 35 37  1  0
 37 38  2  0
 30  2  1  0
 38 32  1  0
 10  5  1  0
 29 12  1  0
 28 17  1  0
 26 21  1  0
  3 39  1  0
  4 40  1  0
  4 41  1  0
  6 42  1  0
  7 43  1  0
  8 44  1  0
  9 45  1  0
 10 46  1  0
 11 47  1  0
 14 48  1  0
 18 49  1  0
 18 50  1  0
 19 51  1  0
 19 52  1  0
 22 53  1  0
 23 54  1  0
 24 55  1  0
 25 56  1  0
 26 57  1  0
 27 58  1  0
 27 59  1  0
 28 60  1  0
 28 61  1  0
 31 62  1  0
 31 63  1  0
 33 64  1  0
 34 65  1  0
 37 66  1  0
 38 67  1  0
M  END
$$$$
