
     RDKit          3D

 32 32  0  0  0  0  0  0  0  0999 V2000
   -3.9443   -0.4694   -2.8183 C   0  0  0  0  0  0  0  0  0  0  0  0
   -3.4061    0.5637   -2.5246 C   0  0  0  0  0  0  0  0  0  0  0  0
   -2.7541    1.8332   -2.1593 C   0  0  0  0  0  0  0  0  0  0  0  0
   -1.3382    1.9281   -2.5494 N   0  0  0  0  0  0  0  0  0  0  0  0
   -1.1861    1.9747   -4.0046 C   0  0  0  0  0  0  0  0  0  0  0  0
   -0.4706    0.8938   -1.9670 C   0  0  0  0  0  0  0  0  0  0  0  0
   -0.4300    0.9151   -0.4363 C   0  0  0  0  0  0  0  0  0  0  0  0
    0.5999   -0.0774    0.0996 C   0  0  0  0  0  0  0  0  0  0  0  0
    0.5670   -0.0159    1.5253 O   0  0  0  0  0  0  0  0  0  0  0  0
    1.4127   -0.8348    2.2269 C   0  0  0  0  0  0  0  0  0  0  0  0
    2.3208   -1.7246    1.6427 C   0  0  0  0  0  0  0  0  0  0  0  0
    3.1419   -2.5181    2.4488 C   0  0  0  0  0  0  0  0  0  0  0  0
    4.2544   -3.6087    1.7159 Cl  0  0  0  0  0  0  0  0  0  0  0  0
    3.0723   -2.4384    3.8374 C   0  0  0  0  0  0  0  0  0  0  0  0
    2.1713   -1.5551    4.4298 C   0  0  0  0  0  0  0  0  0  0  0  0
    1.3465   -0.7581    3.6296 C   0  0  0  0  0  0  0  0  0  0  0  0
    0.2488    0.3175    4.4230 Cl  0  0  0  0  0  0  0  0  0  0  0  0
   -4.4229   -1.3852   -3.0783 H   0  0  0  0  0  0  0  0  0  0  0  0
   -3.3062    2.6648   -2.6160 H   0  0  0  0  0  0  0  0  0  0  0  0
   -2.8528    1.9998   -1.0807 H   0  0  0  0  0  0  0  0  0  0  0  0
   -0.1465    2.1949   -4.2726 H   0  0  0  0  0  0  0  0  0  0  0  0
   -1.7916    2.7808   -4.4340 H   0  0  0  0  0  0  0  0  0  0  0  0
   -1.4682    1.0331   -4.4886 H   0  0  0  0  0  0  0  0  0  0  0  0
   -0.7549   -0.1068   -2.3169 H   0  0  0  0  0  0  0  0  0  0  0  0
    0.5539    1.0651   -2.3236 H   0  0  0  0  0  0  0  0  0  0  0  0
   -0.1858    1.9213   -0.0726 H   0  0  0  0  0  0  0  0  0  0  0  0
   -1.4083    0.6647   -0.0098 H   0  0  0  0  0  0  0  0  0  0  0  0
    1.5970    0.1980   -0.2641 H   0  0  0  0  0  0  0  0  0  0  0  0
    0.3420   -1.0885   -0.2377 H   0  0  0  0  0  0  0  0  0  0  0  0
    2.4109   -1.8204    0.5661 H   0  0  0  0  0  0  0  0  0  0  0  0
    3.7128   -3.0572    4.4605 H   0  0  0  0  0  0  0  0  0  0  0  0
    2.1142   -1.4901    5.5136 H   0  0  0  0  0  0  0  0  0  0  0  0
  1  2  3  0
  2  3  1  0
  3  4  1  0
  4  5  1  0
  4  6  1  0
  6  7  1  0
  7  8  1  0
  8  9  1  0
  9 10  1  0
 10 11  2  0
 11 12  1  0
 12 13  1  0
 12 14  2  0
 14 15  1  0
 15 16  2  0
 16 17  1  0
 16 10  1  0
  1 18  1  0
  3 19  1  0
  3 20  1  0
  5 21  1  0
  5 22  1  0
  5 23  1  0
  6 24  1  0
  6 25  1  0
  7 26  1  0
  7 27  1  0
  8 28  1  0
  8 29  1  0
 11 30  1  0
 14 31  1  0
 15 32  1  0
M  END
$$$$
