
     RDKit          3D

 28 28  0  0  0  0  0  0  0  0999 V2000
   -2.7771   -0.7566   -0.9365 C   0  0  0  0  0  0  0  0  0  0  0  0
   -2.0813   -1.2945    0.3211 C   0  0  0  0  0  0  0  0  0  0  0  0
   -2.1615   -0.2639    1.4542 C   0  0  0  0  0  0  0  0  0  0  0  0
   -2.8093   -2.5719    0.7793 C   0  0  0  0  0  0  0  0  0  0  0  0
   -0.6157   -1.6377   -0.0274 C   0  0  0  0  0  0  0  0  0  0  0  0
   -0.2385   -2.8109   -0.1196 O   0  0  0  0  0  0  0  0  0  0  0  0
    0.3566   -0.5045   -0.3018 C   0  0  0  0  0  0  0  0  0  0  0  0
    1.4193   -0.2500    1.1452 S   0  0  0  0  0  0  0  0  0  0  0  0
    2.4889    1.0143    0.5107 C   0  0  0  0  0  0  0  0  0  0  0  0
    2.1557    1.6356   -0.6349 N   0  0  0  0  0  0  0  0  0  0  0  0
    3.0003    2.5935   -1.0621 C   0  0  0  0  0  0  0  0  0  0  0  0
    4.1457    2.9509   -0.3931 C   0  0  0  0  0  0  0  0  0  0  0  0
    4.3895    2.2601    0.7686 C   0  0  0  0  0  0  0  0  0  0  0  0
    3.5805    1.2949    1.2414 N   0  0  0  0  0  0  0  0  0  0  0  0
   -3.8437   -0.5821   -0.7556 H   0  0  0  0  0  0  0  0  0  0  0  0
   -2.6876   -1.4638   -1.7693 H   0  0  0  0  0  0  0  0  0  0  0  0
   -2.3412    0.1913   -1.2690 H   0  0  0  0  0  0  0  0  0  0  0  0
   -1.7358    0.7016    1.1619 H   0  0  0  0  0  0  0  0  0  0  0  0
   -3.2012   -0.0811    1.7490 H   0  0  0  0  0  0  0  0  0  0  0  0
   -1.6191   -0.6097    2.3413 H   0  0  0  0  0  0  0  0  0  0  0  0
   -2.3239   -3.0090    1.6597 H   0  0  0  0  0  0  0  0  0  0  0  0
   -2.8110   -3.3356   -0.0072 H   0  0  0  0  0  0  0  0  0  0  0  0
   -3.8531   -2.3641    1.0405 H   0  0  0  0  0  0  0  0  0  0  0  0
    0.9559   -0.7870   -1.1743 H   0  0  0  0  0  0  0  0  0  0  0  0
   -0.1873    0.4093   -0.5520 H   0  0  0  0  0  0  0  0  0  0  0  0
    2.7180    3.0816   -1.9907 H   0  0  0  0  0  0  0  0  0  0  0  0
    4.8097    3.7231   -0.7551 H   0  0  0  0  0  0  0  0  0  0  0  0
    5.2676    2.4662    1.3738 H   0  0  0  0  0  0  0  0  0  0  0  0
  1  2  1  0
  2  3  1  0
  2  4  1  0
  2  5  1  0
  5  6  2  0
  5  7  1  0
  7  8  1  0
  8  9  1  0
  9 10  2  0
 10 11  1  0
 11 12  2  0
 12 13  1  0
 13 14  2  0
 14  9  1  0
  1 15  1  0
  1 16  1  0
  1 17  1  0
  3 18  1  0
  3 19  1  0
  3 20  1  0
  4 21  1  0
  4 22  1  0
  4 23  1  0
  7 24  1  0
  7 25  1  0
 11 26  1  0
 12 27  1  0
 13 28  1  0
M  END
$$$$
