
     RDKit          3D

 45 49  0  0  0  0  0  0  0  0999 V2000
    1.3402   -1.4849    0.9340 O   0  0  0  0  0  0  0  0  0  0  0  0
    1.6105   -0.6757    0.0589 C   0  0  0  0  0  0  0  0  0  0  0  0
    0.7362    0.0058   -0.7402 O   0  0  0  0  0  0  0  0  0  0  0  0
   -0.6017   -0.1432   -0.3373 C   0  0  0  0  0  0  0  0  0  0  0  0
   -1.1724    0.6351    0.6157 C   0  0  0  0  0  0  0  0  0  0  0  0
   -0.3751    1.6753    1.2896 C   0  0  0  0  0  0  0  0  0  0  0  0
   -0.1476    2.9095    0.6662 C   0  0  0  0  0  0  0  0  0  0  0  0
    0.6436    3.8765    1.2888 C   0  0  0  0  0  0  0  0  0  0  0  0
    1.2129    3.6158    2.5347 C   0  0  0  0  0  0  0  0  0  0  0  0
    0.9902    2.3903    3.1613 C   0  0  0  0  0  0  0  0  0  0  0  0
    0.1983    1.4223    2.5418 C   0  0  0  0  0  0  0  0  0  0  0  0
   -2.6267    0.4436    1.0012 C   0  0  0  0  0  0  0  0  0  0  0  0
   -3.1601    1.1234    1.8742 O   0  0  0  0  0  0  0  0  0  0  0  0
   -3.2972   -0.5252    0.3015 N   0  0  0  0  0  0  0  0  0  0  0  0
   -2.7039   -1.2848   -0.6899 C   0  0  0  0  0  0  0  0  0  0  0  0
   -3.6003   -2.1804   -1.2494 C   0  0  0  0  0  0  0  0  0  0  0  0
   -3.1722   -3.0143   -2.2624 C   0  0  0  0  0  0  0  0  0  0  0  0
   -1.8356   -2.9136   -2.6819 C   0  0  0  0  0  0  0  0  0  0  0  0
   -0.9459   -1.9892   -2.0897 C   0  0  0  0  0  0  0  0  0  0  0  0
   -1.3839   -1.1502   -1.0653 C   0  0  0  0  0  0  0  0  0  0  0  0
   -4.9404   -2.0476   -0.5923 C   0  0  0  0  0  0  0  0  0  0  0  0
   -4.6954   -0.9246    0.4471 C   0  0  0  0  0  0  0  0  0  0  0  0
    3.0083   -0.3174   -0.3072 C   0  0  0  0  0  0  0  0  0  0  0  0
    3.3151    0.7774   -1.1289 C   0  0  0  0  0  0  0  0  0  0  0  0
    4.6474    1.0748   -1.4337 C   0  0  0  0  0  0  0  0  0  0  0  0
    5.6725    0.2836   -0.9168 C   0  0  0  0  0  0  0  0  0  0  0  0
    7.3093    0.6529   -1.2944 Cl  0  0  0  0  0  0  0  0  0  0  0  0
    5.3795   -0.8023   -0.0941 C   0  0  0  0  0  0  0  0  0  0  0  0
    4.0490   -1.1013    0.2127 C   0  0  0  0  0  0  0  0  0  0  0  0
   -0.5893    3.1256   -0.3036 H   0  0  0  0  0  0  0  0  0  0  0  0
    0.8109    4.8353    0.8053 H   0  0  0  0  0  0  0  0  0  0  0  0
    1.8251    4.3705    3.0217 H   0  0  0  0  0  0  0  0  0  0  0  0
    1.4295    2.1878    4.1347 H   0  0  0  0  0  0  0  0  0  0  0  0
    0.0347    0.4674    3.0380 H   0  0  0  0  0  0  0  0  0  0  0  0
   -3.8436   -3.7307   -2.7252 H   0  0  0  0  0  0  0  0  0  0  0  0
   -1.4752   -3.5629   -3.4778 H   0  0  0  0  0  0  0  0  0  0  0  0
    0.0812   -1.9462   -2.4415 H   0  0  0  0  0  0  0  0  0  0  0  0
   -5.7081   -1.7513   -1.3136 H   0  0  0  0  0  0  0  0  0  0  0  0
   -5.2349   -2.9789   -0.0992 H   0  0  0  0  0  0  0  0  0  0  0  0
   -4.8633   -1.2717    1.4725 H   0  0  0  0  0  0  0  0  0  0  0  0
   -5.3372   -0.0547    0.2696 H   0  0  0  0  0  0  0  0  0  0  0  0
    2.5324    1.4168   -1.5307 H   0  0  0  0  0  0  0  0  0  0  0  0
    4.8778    1.9262   -2.0694 H   0  0  0  0  0  0  0  0  0  0  0  0
    6.1779   -1.4170    0.3139 H   0  0  0  0  0  0  0  0  0  0  0  0
    3.8275   -1.9479    0.8611 H   0  0  0  0  0  0  0  0  0  0  0  0
  1  2  2  0
  2  3  1  0
  3  4  1  0
  4  5  2  0
  5  6  1  0
  6  7  2  0
  7  8  1  0
  8  9  2  0
  9 10  1  0
 10 11  2  0
  5 12  1  0
 12 13  2  0
 12 14  1  0
 14 15  1  0
 15 16  2  0
 16 17  1  0
 17 18  2  0
 18 19  1  0
 19 20  2  0
 16 21  1  0
 21 22  1  0
  2 23  1  0
 23 24  2  0
 24 25  1  0
 25 26  2  0
 26 27  1  0
 26 28  1  0
 28 29  2  0
 20  4  1  0
 29 23  1  0
 11  6  1  0
 22 14  1  0
 20 15  1  0
  7 30  1  0
  8 31  1  0
  9 32  1  0
 10 33  1  0
 11 34  1  0
 17 35  1  0
 18 36  1  0
 19 37  1  0
 21 38  1  0
 21 39  1  0
 22 40  1  0
 22 41  1  0
 24 42  1  0
 25 43  1  0
 28 44  1  0
 29 45  1  0
M  END
$$$$
