
     RDKit          3D

 41 43  0  0  0  0  0  0  0  0999 V2000
    6.9366    2.6388    1.2425 C   0  0  0  0  0  0  0  0  0  0  0  0
    5.8287    1.8823    1.2193 C   0  0  0  0  0  0  0  0  0  0  0  0
    4.6897    2.2744    0.3989 C   0  0  0  0  0  0  0  0  0  0  0  0
    3.5784    1.5171    0.3730 C   0  0  0  0  0  0  0  0  0  0  0  0
    3.4755    0.2731    1.1679 C   0  0  0  0  0  0  0  0  0  0  0  0
    2.3586   -0.4968    1.1451 C   0  0  0  0  0  0  0  0  0  0  0  0
    2.1921   -1.6578    1.8554 N   0  0  0  0  0  0  0  0  0  0  0  0
    1.0044   -2.3281    1.7319 C   0  0  0  0  0  0  0  0  0  0  0  0
    0.7238   -3.3662    2.3083 O   0  0  0  0  0  0  0  0  0  0  0  0
    0.1303   -1.5857    0.7911 C   0  0  0  0  0  0  0  0  0  0  0  0
   -1.1028   -2.0217    0.4991 C   0  0  0  0  0  0  0  0  0  0  0  0
   -2.0536   -1.3667   -0.4045 C   0  0  0  0  0  0  0  0  0  0  0  0
   -1.8218   -1.3189   -1.7806 C   0  0  0  0  0  0  0  0  0  0  0  0
   -2.7435   -0.7023   -2.6307 C   0  0  0  0  0  0  0  0  0  0  0  0
   -3.9106   -0.1307   -2.1136 C   0  0  0  0  0  0  0  0  0  0  0  0
   -4.8699    0.4942   -2.8716 O   0  0  0  0  0  0  0  0  0  0  0  0
   -4.6518    0.5782   -4.2722 C   0  0  0  0  0  0  0  0  0  0  0  0
   -4.1537   -0.1824   -0.7256 C   0  0  0  0  0  0  0  0  0  0  0  0
   -5.3230    0.3980   -0.2976 O   0  0  0  0  0  0  0  0  0  0  0  0
   -5.5910    0.3928    1.0970 C   0  0  0  0  0  0  0  0  0  0  0  0
   -3.2242   -0.8037    0.1181 C   0  0  0  0  0  0  0  0  0  0  0  0
    0.9172   -0.1614    0.2089 S   0  0  0  0  0  0  0  0  0  0  0  0
    4.6463   -0.0984    1.9935 C   0  0  0  0  0  0  0  0  0  0  0  0
    5.7553    0.6632    2.0151 C   0  0  0  0  0  0  0  0  0  0  0  0
    7.8000    2.3722    1.8441 H   0  0  0  0  0  0  0  0  0  0  0  0
    7.0182    3.5515    0.6603 H   0  0  0  0  0  0  0  0  0  0  0  0
    4.7462    3.1841   -0.1905 H   0  0  0  0  0  0  0  0  0  0  0  0
    2.7482    1.8382   -0.2471 H   0  0  0  0  0  0  0  0  0  0  0  0
    2.8914   -2.0462    2.4674 H   0  0  0  0  0  0  0  0  0  0  0  0
   -1.4755   -2.9313    0.9678 H   0  0  0  0  0  0  0  0  0  0  0  0
   -0.9233   -1.7613   -2.2052 H   0  0  0  0  0  0  0  0  0  0  0  0
   -2.5203   -0.6870   -3.6919 H   0  0  0  0  0  0  0  0  0  0  0  0
   -5.5021    1.1084   -4.7120 H   0  0  0  0  0  0  0  0  0  0  0  0
   -4.6110   -0.4174   -4.7261 H   0  0  0  0  0  0  0  0  0  0  0  0
   -3.7486    1.1546   -4.4981 H   0  0  0  0  0  0  0  0  0  0  0  0
   -4.8231    0.9442    1.6496 H   0  0  0  0  0  0  0  0  0  0  0  0
   -6.5453    0.9041    1.2560 H   0  0  0  0  0  0  0  0  0  0  0  0
   -5.6954   -0.6294    1.4751 H   0  0  0  0  0  0  0  0  0  0  0  0
   -3.3883   -0.8576    1.1893 H   0  0  0  0  0  0  0  0  0  0  0  0
    4.6319   -0.9957    2.5988 H   0  0  0  0  0  0  0  0  0  0  0  0
    6.6061    0.3775    2.6257 H   0  0  0  0  0  0  0  0  0  0  0  0
  1  2  2  0
  2  3  1  0
  3  4  2  0
  4  5  1  0
  5  6  2  3
  6  7  1  0
  7  8  1  0
  8  9  2  0
  8 10  1  0
 10 11  2  3
 11 12  1  0
 12 13  2  0
 13 14  1  0
 14 15  2  0
 15 16  1  0
 16 17  1  0
 15 18  1  0
 18 19  1  0
 19 20  1  0
 18 21  2  0
 10 22  1  0
  5 23  1  0
 23 24  2  0
 24  2  1  0
 22  6  1  0
 21 12  1  0
  1 25  1  0
  1 26  1  0
  3 27  1  0
  4 28  1  0
  7 29  1  0
 11 30  1  0
 13 31  1  0
 14 32  1  0
 17 33  1  0
 17 34  1  0
 17 35  1  0
 20 36  1  0
 20 37  1  0
 20 38  1  0
 21 39  1  0
 23 40  1  0
 24 41  1  0
M  END
$$$$
