
     RDKit          3D

 42 44  0  0  0  0  0  0  0  0999 V2000
   -8.2737   -0.6811    1.3926 C   0  0  0  0  0  0  0  0  0  0  0  0
   -7.6295   -0.1897    0.1226 C   0  0  0  0  0  0  0  0  0  0  0  0
   -8.3106    0.1838   -0.8301 O   0  0  0  0  0  0  0  0  0  0  0  0
   -6.1388   -0.1602    0.0328 C   0  0  0  0  0  0  0  0  0  0  0  0
   -5.3170   -0.5600    1.0904 C   0  0  0  0  0  0  0  0  0  0  0  0
   -3.9234   -0.5127    0.9544 C   0  0  0  0  0  0  0  0  0  0  0  0
   -3.3299   -0.0701   -0.2349 C   0  0  0  0  0  0  0  0  0  0  0  0
   -1.9205   -0.0500   -0.2832 N   0  0  0  0  0  0  0  0  0  0  0  0
   -1.1237    0.2714   -1.3679 C   0  0  0  0  0  0  0  0  0  0  0  0
   -1.4991    0.5294   -2.5049 O   0  0  0  0  0  0  0  0  0  0  0  0
    0.3428    0.2478   -1.0995 C   0  0  0  0  0  0  0  0  0  0  0  0
    1.2035   -0.1595   -2.1230 C   0  0  0  0  0  0  0  0  0  0  0  0
    2.5848   -0.1960   -1.9073 C   0  0  0  0  0  0  0  0  0  0  0  0
    3.1256    0.1813   -0.6717 C   0  0  0  0  0  0  0  0  0  0  0  0
    4.5236    0.1129   -0.5375 N   0  0  0  0  0  0  0  0  0  0  0  0
    5.2984    0.4064    0.5713 C   0  0  0  0  0  0  0  0  0  0  0  0
    4.8712    0.7777    1.6595 O   0  0  0  0  0  0  0  0  0  0  0  0
    6.7177    0.2223    0.3221 C   0  0  0  0  0  0  0  0  0  0  0  0
    7.8170    0.4031    1.1402 C   0  0  0  0  0  0  0  0  0  0  0  0
    8.9580    0.0733    0.3706 C   0  0  0  0  0  0  0  0  0  0  0  0
    8.4910   -0.2894   -0.8702 C   0  0  0  0  0  0  0  0  0  0  0  0
    7.1362   -0.2045   -0.9142 O   0  0  0  0  0  0  0  0  0  0  0  0
    2.2630    0.6076    0.3408 C   0  0  0  0  0  0  0  0  0  0  0  0
    0.8785    0.6471    0.1295 C   0  0  0  0  0  0  0  0  0  0  0  0
   -4.1538    0.3319   -1.2860 C   0  0  0  0  0  0  0  0  0  0  0  0
   -5.5476    0.2864   -1.1542 C   0  0  0  0  0  0  0  0  0  0  0  0
   -9.3619   -0.6461    1.2802 H   0  0  0  0  0  0  0  0  0  0  0  0
   -7.9989   -0.0359    2.2309 H   0  0  0  0  0  0  0  0  0  0  0  0
   -7.9875   -1.7181    1.5864 H   0  0  0  0  0  0  0  0  0  0  0  0
   -5.7297   -0.9121    2.0310 H   0  0  0  0  0  0  0  0  0  0  0  0
   -3.3106   -0.8304    1.7948 H   0  0  0  0  0  0  0  0  0  0  0  0
   -1.4483   -0.3715    0.5515 H   0  0  0  0  0  0  0  0  0  0  0  0
    0.8009   -0.4509   -3.0916 H   0  0  0  0  0  0  0  0  0  0  0  0
    3.2277   -0.5215   -2.7218 H   0  0  0  0  0  0  0  0  0  0  0  0
    5.0525   -0.1924   -1.3483 H   0  0  0  0  0  0  0  0  0  0  0  0
    7.7838    0.7352    2.1695 H   0  0  0  0  0  0  0  0  0  0  0  0
    9.9933    0.0973    0.6816 H   0  0  0  0  0  0  0  0  0  0  0  0
    8.9702   -0.6162   -1.7831 H   0  0  0  0  0  0  0  0  0  0  0  0
    2.6358    0.9320    1.3079 H   0  0  0  0  0  0  0  0  0  0  0  0
    0.2432    1.0234    0.9267 H   0  0  0  0  0  0  0  0  0  0  0  0
   -3.7474    0.6924   -2.2263 H   0  0  0  0  0  0  0  0  0  0  0  0
   -6.1669    0.6056   -1.9913 H   0  0  0  0  0  0  0  0  0  0  0  0
  1  2  1  0
  2  3  2  0
  2  4  1  0
  4  5  2  0
  5  6  1  0
  6  7  2  0
  7  8  1  0
  8  9  1  0
  9 10  2  0
  9 11  1  0
 11 12  2  0
 12 13  1  0
 13 14  2  0
 14 15  1  0
 15 16  1  0
 16 17  2  0
 16 18  1  0
 18 19  2  0
 19 20  1  0
 20 21  2  0
 21 22  1  0
 14 23  1  0
 23 24  2  0
  7 25  1  0
 25 26  2  0
 26  4  1  0
 24 11  1  0
 22 18  1  0
  1 27  1  0
  1 28  1  0
  1 29  1  0
  5 30  1  0
  6 31  1  0
  8 32  1  0
 12 33  1  0
 13 34  1  0
 15 35  1  0
 19 36  1  0
 20 37  1  0
 21 38  1  0
 23 39  1  0
 24 40  1  0
 25 41  1  0
 26 42  1  0
M  END
$$$$
