
     RDKit          3D

 46 49  0  0  0  0  0  0  0  0999 V2000
    0.0971    1.0756   -2.8114 O   0  0  0  0  0  0  0  0  0  0  0  0
    0.0489    0.3014   -1.8521 C   0  0  0  0  0  0  0  0  0  0  0  0
   -1.0902   -0.7083   -1.7805 C   0  0  0  0  0  0  0  0  0  0  0  0
   -0.8762   -1.8290   -0.8787 N   0  0  0  0  0  0  0  0  0  0  0  0
   -1.3511   -1.9544    0.4129 C   0  0  0  0  0  0  0  0  0  0  0  0
   -2.1838   -0.9276    1.1164 C   0  0  0  0  0  0  0  0  0  0  0  0
   -1.4616    0.3013    1.0440 O   0  0  0  0  0  0  0  0  0  0  0  0
   -2.0960    1.4176    1.5158 C   0  0  0  0  0  0  0  0  0  0  0  0
   -3.2355    1.4285    2.3204 C   0  0  0  0  0  0  0  0  0  0  0  0
   -3.7881    2.6461    2.7336 C   0  0  0  0  0  0  0  0  0  0  0  0
   -3.2068    3.8522    2.3447 C   0  0  0  0  0  0  0  0  0  0  0  0
   -2.0668    3.8449    1.5460 C   0  0  0  0  0  0  0  0  0  0  0  0
   -1.5118    2.6302    1.1377 C   0  0  0  0  0  0  0  0  0  0  0  0
   -0.9552   -3.0977    0.9391 N   0  0  0  0  0  0  0  0  0  0  0  0
   -0.2069   -3.7225   -0.0231 C   0  0  0  0  0  0  0  0  0  0  0  0
    0.4511   -4.9594    0.0248 C   0  0  0  0  0  0  0  0  0  0  0  0
    1.1693   -5.3845   -1.0990 C   0  0  0  0  0  0  0  0  0  0  0  0
    1.2330   -4.5918   -2.2467 C   0  0  0  0  0  0  0  0  0  0  0  0
    0.5821   -3.3541   -2.3118 C   0  0  0  0  0  0  0  0  0  0  0  0
   -0.1351   -2.9503   -1.1775 C   0  0  0  0  0  0  0  0  0  0  0  0
    0.9374    0.3113   -0.7937 N   0  0  0  0  0  0  0  0  0  0  0  0
    2.0488    1.1651   -0.5812 C   0  0  0  0  0  0  0  0  0  0  0  0
    2.4083    2.1994   -1.4518 C   0  0  0  0  0  0  0  0  0  0  0  0
    3.5154    3.0142   -1.1716 C   0  0  0  0  0  0  0  0  0  0  0  0
    3.8879    4.2771   -2.2956 Cl  0  0  0  0  0  0  0  0  0  0  0  0
    4.2754    2.7970   -0.0154 C   0  0  0  0  0  0  0  0  0  0  0  0
    5.6489    3.7655    0.3885 Cl  0  0  0  0  0  0  0  0  0  0  0  0
    3.9281    1.7686    0.8614 C   0  0  0  0  0  0  0  0  0  0  0  0
    2.8240    0.9622    0.5794 C   0  0  0  0  0  0  0  0  0  0  0  0
    2.4328   -0.2994    1.6994 Cl  0  0  0  0  0  0  0  0  0  0  0  0
   -1.2409   -1.1311   -2.7829 H   0  0  0  0  0  0  0  0  0  0  0  0
   -2.0146   -0.1919   -1.4969 H   0  0  0  0  0  0  0  0  0  0  0  0
   -3.1585   -0.8453    0.6232 H   0  0  0  0  0  0  0  0  0  0  0  0
   -2.3179   -1.2289    2.1622 H   0  0  0  0  0  0  0  0  0  0  0  0
   -3.7143    0.5125    2.6533 H   0  0  0  0  0  0  0  0  0  0  0  0
   -4.6758    2.6530    3.3620 H   0  0  0  0  0  0  0  0  0  0  0  0
   -3.6419    4.7969    2.6647 H   0  0  0  0  0  0  0  0  0  0  0  0
   -1.6138    4.7818    1.2331 H   0  0  0  0  0  0  0  0  0  0  0  0
   -0.6232    2.6338    0.5123 H   0  0  0  0  0  0  0  0  0  0  0  0
    0.4025   -5.5664    0.9218 H   0  0  0  0  0  0  0  0  0  0  0  0
    1.6837   -6.3422   -1.0744 H   0  0  0  0  0  0  0  0  0  0  0  0
    1.8010   -4.9438   -3.1067 H   0  0  0  0  0  0  0  0  0  0  0  0
    0.6391   -2.7458   -3.2091 H   0  0  0  0  0  0  0  0  0  0  0  0
    0.7955   -0.3623   -0.0419 H   0  0  0  0  0  0  0  0  0  0  0  0
    1.8419    2.4032   -2.3579 H   0  0  0  0  0  0  0  0  0  0  0  0
    4.5135    1.5971    1.7634 H   0  0  0  0  0  0  0  0  0  0  0  0
  1  2  2  0
  2  3  1  0
  3  4  1  0
  4  5  1  0
  5  6  1  0
  6  7  1  0
  7  8  1  0
  8  9  2  0
  9 10  1  0
 10 11  2  0
 11 12  1  0
 12 13  2  0
  5 14  2  0
 14 15  1  0
 15 16  2  0
 16 17  1  0
 17 18  2  0
 18 19  1  0
 19 20  2  0
  2 21  1  0
 21 22  1  0
 22 23  2  0
 23 24  1  0
 24 25  1  0
 24 26  2  0
 26 27  1  0
 26 28  1  0
 28 29  2  0
 29 30  1  0
 20  4  1  0
 29 22  1  0
 13  8  1  0
 20 15  1  0
  3 31  1  0
  3 32  1  0
  6 33  1  0
  6 34  1  0
  9 35  1  0
 10 36  1  0
 11 37  1  0
 12 38  1  0
 13 39  1  0
 16 40  1  0
 17 41  1  0
 18 42  1  0
 19 43  1  0
 21 44  1  0
 23 45  1  0
 28 46  1  0
M  END
$$$$
