
     RDKit          3D

 47 48  0  0  0  0  0  0  0  0999 V2000
   -3.7712    1.4317    4.0128 C   0  0  0  0  0  0  0  0  0  0  0  0
   -3.8365    1.9034    2.5671 C   0  0  0  0  0  0  0  0  0  0  0  0
   -3.4341    0.8320    1.6415 N   0  0  0  0  0  0  0  0  0  0  0  0
   -4.5296   -0.0192    1.1535 C   0  0  0  0  0  0  0  0  0  0  0  0
   -5.0939    0.5141   -0.1557 C   0  0  0  0  0  0  0  0  0  0  0  0
   -2.1079    0.6328    1.2710 C   0  0  0  0  0  0  0  0  0  0  0  0
   -1.0529    1.3462    1.8609 C   0  0  0  0  0  0  0  0  0  0  0  0
    0.2846    1.1576    1.4902 C   0  0  0  0  0  0  0  0  0  0  0  0
    0.6221    0.2399    0.4969 C   0  0  0  0  0  0  0  0  0  0  0  0
    2.0447    0.0873    0.1603 C   0  0  0  0  0  0  0  0  0  0  0  0
    2.4905    0.2691   -1.0914 C   0  0  0  0  0  0  0  0  0  0  0  0
    3.8852    0.0456   -1.4598 C   0  0  0  0  0  0  0  0  0  0  0  0
    4.8757    0.9518   -1.0668 C   0  0  0  0  0  0  0  0  0  0  0  0
    6.1975    0.7372   -1.4347 C   0  0  0  0  0  0  0  0  0  0  0  0
    6.5151   -0.3807   -2.1902 C   0  0  0  0  0  0  0  0  0  0  0  0
    5.5077   -1.2632   -2.5608 C   0  0  0  0  0  0  0  0  0  0  0  0
    4.2212   -1.0470   -2.1985 N   0  0  0  0  0  4  0  0  0  0  0  0
    3.1911   -2.0332   -2.5880 C   0  0  0  0  0  0  0  0  0  0  0  0
   -0.3978   -0.5129   -0.1077 C   0  0  0  0  0  0  0  0  0  0  0  0
   -0.0032   -1.4266   -1.0612 O   0  0  0  0  0  0  0  0  0  0  0  0
   -1.0001   -2.3203   -1.5484 C   0  0  0  0  0  0  0  0  0  0  0  0
   -1.7339   -0.2978    0.2797 C   0  0  0  0  0  0  0  0  0  0  0  0
   -4.0907    2.2333    4.6861 H   0  0  0  0  0  0  0  0  0  0  0  0
   -2.7580    1.1332    4.2978 H   0  0  0  0  0  0  0  0  0  0  0  0
   -4.4279    0.5707    4.1758 H   0  0  0  0  0  0  0  0  0  0  0  0
   -4.8678    2.2099    2.3495 H   0  0  0  0  0  0  0  0  0  0  0  0
   -3.2404    2.8114    2.4225 H   0  0  0  0  0  0  0  0  0  0  0  0
   -4.2176   -1.0645    1.0503 H   0  0  0  0  0  0  0  0  0  0  0  0
   -5.3389   -0.0419    1.8945 H   0  0  0  0  0  0  0  0  0  0  0  0
   -5.4766    1.5327   -0.0329 H   0  0  0  0  0  0  0  0  0  0  0  0
   -4.3367    0.5384   -0.9451 H   0  0  0  0  0  0  0  0  0  0  0  0
   -5.9190   -0.1189   -0.4968 H   0  0  0  0  0  0  0  0  0  0  0  0
   -1.2392    2.0739    2.6454 H   0  0  0  0  0  0  0  0  0  0  0  0
    1.0504    1.7462    1.9906 H   0  0  0  0  0  0  0  0  0  0  0  0
    2.6978   -0.1872    0.9855 H   0  0  0  0  0  0  0  0  0  0  0  0
    1.8131    0.5477   -1.8955 H   0  0  0  0  0  0  0  0  0  0  0  0
    4.6170    1.8308   -0.4783 H   0  0  0  0  0  0  0  0  0  0  0  0
    6.9734    1.4399   -1.1343 H   0  0  0  0  0  0  0  0  0  0  0  0
    7.5452   -0.5664   -2.4879 H   0  0  0  0  0  0  0  0  0  0  0  0
    5.7272   -2.1510   -3.1475 H   0  0  0  0  0  0  0  0  0  0  0  0
    2.7612   -2.4576   -1.6771 H   0  0  0  0  0  0  0  0  0  0  0  0
    2.4386   -1.5244   -3.1958 H   0  0  0  0  0  0  0  0  0  0  0  0
    3.6460   -2.8332   -3.1778 H   0  0  0  0  0  0  0  0  0  0  0  0
   -1.7534   -1.7846   -2.1349 H   0  0  0  0  0  0  0  0  0  0  0  0
   -1.4568   -2.8919   -0.7336 H   0  0  0  0  0  0  0  0  0  0  0  0
   -0.5068   -3.0329   -2.2166 H   0  0  0  0  0  0  0  0  0  0  0  0
   -2.5145   -0.8613   -0.2145 H   0  0  0  0  0  0  0  0  0  0  0  0
  1  2  1  0
  2  3  1  0
  3  4  1  0
  4  5  1  0
  3  6  1  0
  6  7  2  0
  7  8  1  0
  8  9  2  0
  9 10  1  0
 10 11  2  3
 11 12  1  0
 12 13  2  0
 13 14  1  0
 14 15  2  0
 15 16  1  0
 16 17  2  0
 17 18  1  0
  9 19  1  0
 19 20  1  0
 20 21  1  0
 19 22  2  0
 22  6  1  0
 17 12  1  0
  1 23  1  0
  1 24  1  0
  1 25  1  0
  2 26  1  0
  2 27  1  0
  4 28  1  0
  4 29  1  0
  5 30  1  0
  5 31  1  0
  5 32  1  0
  7 33  1  0
  8 34  1  0
 10 35  1  0
 11 36  1  0
 13 37  1  0
 14 38  1  0
 15 39  1  0
 16 40  1  0
 18 41  1  0
 18 42  1  0
 18 43  1  0
 21 44  1  0
 21 45  1  0
 21 46  1  0
 22 47  1  0
M  CHG  1  17   1
M  END
$$$$
