
     RDKit          3D

 48 50  0  0  0  0  0  0  0  0999 V2000
    9.4630   -0.0498    0.5109 C   0  0  0  0  0  0  0  0  0  0  0  0
    8.0862    0.4849    0.6649 C   0  0  0  0  0  0  0  0  0  0  0  0
    7.7237    1.6548    1.3048 C   0  0  0  0  0  0  0  0  0  0  0  0
    6.0242    1.8543    1.2332 S   0  0  0  0  0  0  0  0  0  0  0  0
    5.8981    0.3979    0.3657 C   0  0  0  0  0  0  0  0  0  0  0  0
    4.7092   -0.1144   -0.0860 N   0  0  0  0  0  0  0  0  0  0  0  0
    3.4584    0.4532    0.0291 C   0  0  0  0  0  0  0  0  0  0  0  0
    3.1807    1.5246    0.5576 O   0  0  0  0  0  0  0  0  0  0  0  0
    2.4012   -0.3708   -0.6905 C   0  0  0  0  0  0  0  0  0  0  0  0
    0.9978   -0.1459   -0.1347 C   0  0  0  0  0  0  0  0  0  0  0  0
    0.6594   -1.2195    0.8097 N   0  0  0  0  0  0  0  0  0  0  0  0
   -0.3953   -0.9168    2.0814 S   0  0  0  0  0  6  0  0  0  0  0  0
   -0.7271   -2.2018    2.6524 O   0  0  0  0  0  0  0  0  0  0  0  0
    0.1459    0.1616    2.8755 O   0  0  0  0  0  0  0  0  0  0  0  0
   -1.8425   -0.3161    1.2460 C   0  0  0  0  0  0  0  0  0  0  0  0
   -2.2112    1.0242    1.3499 C   0  0  0  0  0  0  0  0  0  0  0  0
   -3.3564    1.4804    0.6864 C   0  0  0  0  0  0  0  0  0  0  0  0
   -4.1448    0.6060   -0.0830 C   0  0  0  0  0  0  0  0  0  0  0  0
   -3.7547   -0.7306   -0.1693 C   0  0  0  0  0  0  0  0  0  0  0  0
   -2.6133   -1.2032    0.4959 C   0  0  0  0  0  0  0  0  0  0  0  0
   -4.5468   -1.6592   -0.9870 C   0  0  0  0  0  0  0  0  0  0  0  0
   -4.1291   -2.8016   -1.1623 O   0  0  0  0  0  0  0  0  0  0  0  0
   -5.7178   -1.1633   -1.5356 N   0  0  0  0  0  0  0  0  0  0  0  0
   -6.5281   -2.0751   -2.3230 C   0  0  0  0  0  0  0  0  0  0  0  0
   -6.0962    0.1739   -1.5248 C   0  0  0  0  0  0  0  0  0  0  0  0
   -7.0770    0.5702   -2.1582 O   0  0  0  0  0  0  0  0  0  0  0  0
   -5.3051    1.0423   -0.7757 N   0  0  0  0  0  0  0  0  0  0  0  0
   -5.6947    2.4463   -0.7157 C   0  0  0  0  0  0  0  0  0  0  0  0
    7.0263   -0.2333    0.1358 N   0  0  0  0  0  0  0  0  0  0  0  0
    9.5391   -0.6690   -0.3880 H   0  0  0  0  0  0  0  0  0  0  0  0
    9.7278   -0.6639    1.3768 H   0  0  0  0  0  0  0  0  0  0  0  0
   10.1928    0.7621    0.4246 H   0  0  0  0  0  0  0  0  0  0  0  0
    8.3550    2.3833    1.7944 H   0  0  0  0  0  0  0  0  0  0  0  0
    4.8292   -0.9905   -0.5741 H   0  0  0  0  0  0  0  0  0  0  0  0
    2.4273   -0.0350   -1.7352 H   0  0  0  0  0  0  0  0  0  0  0  0
    2.6670   -1.4357   -0.6783 H   0  0  0  0  0  0  0  0  0  0  0  0
    0.8871    0.8381    0.3290 H   0  0  0  0  0  0  0  0  0  0  0  0
    0.2811   -0.2073   -0.9620 H   0  0  0  0  0  0  0  0  0  0  0  0
    0.6168   -2.1815    0.4757 H   0  0  0  0  0  0  0  0  0  0  0  0
   -1.6185    1.7209    1.9420 H   0  0  0  0  0  0  0  0  0  0  0  0
   -3.6077    2.5329    0.7928 H   0  0  0  0  0  0  0  0  0  0  0  0
   -2.3353   -2.2534    0.4295 H   0  0  0  0  0  0  0  0  0  0  0  0
   -6.3673   -3.1143   -2.0237 H   0  0  0  0  0  0  0  0  0  0  0  0
   -7.5894   -1.8385   -2.2081 H   0  0  0  0  0  0  0  0  0  0  0  0
   -6.2533   -1.9609   -3.3766 H   0  0  0  0  0  0  0  0  0  0  0  0
   -6.5992    2.6521   -1.2950 H   0  0  0  0  0  0  0  0  0  0  0  0
   -4.8892    3.0649   -1.1239 H   0  0  0  0  0  0  0  0  0  0  0  0
   -5.8976    2.7223    0.3243 H   0  0  0  0  0  0  0  0  0  0  0  0
  1  2  1  0
  2  3  2  0
  3  4  1  0
  4  5  1  0
  5  6  1  0
  6  7  1  0
  7  8  2  0
  7  9  1  0
  9 10  1  0
 10 11  1  0
 11 12  1  0
 12 13  2  0
 12 14  2  0
 12 15  1  0
 15 16  2  0
 16 17  1  0
 17 18  2  0
 18 19  1  0
 19 20  2  0
 19 21  1  0
 21 22  2  0
 21 23  1  0
 23 24  1  0
 23 25  1  0
 25 26  2  0
 25 27  1  0
 27 28  1  0
  5 29  2  0
 29  2  1  0
 20 15  1  0
 27 18  1  0
  1 30  1  0
  1 31  1  0
  1 32  1  0
  3 33  1  0
  6 34  1  0
  9 35  1  0
  9 36  1  0
 10 37  1  0
 10 38  1  0
 11 39  1  0
 16 40  1  0
 17 41  1  0
 20 42  1  0
 24 43  1  0
 24 44  1  0
 24 45  1  0
 28 46  1  0
 28 47  1  0
 28 48  1  0
M  END
$$$$
