
     RDKit          3D

 58 63  0  0  0  0  0  0  0  0999 V2000
    7.0373   -1.4821    2.6803 C   0  0  0  0  0  0  0  0  0  0  0  0
    5.8393   -0.8288    2.0818 C   0  0  0  0  0  0  0  0  0  0  0  0
    4.5916   -0.6440    2.6397 C   0  0  0  0  0  0  0  0  0  0  0  0
    3.7017    0.0314    1.7546 C   0  0  0  0  0  0  0  0  0  0  0  0
    4.2911    0.3231    0.5384 C   0  0  0  0  0  0  0  0  0  0  0  0
    3.7317    1.0129   -0.6130 C   0  0  0  0  0  0  0  0  0  0  0  0
    4.3153    1.9498   -1.1601 O   0  0  0  0  0  0  0  0  0  0  0  0
    2.4653    0.6109   -1.0618 N   0  0  0  0  0  0  0  0  0  0  0  0
    1.8529    1.3997   -2.1213 C   0  0  0  0  0  0  0  0  0  0  0  0
    0.4100    0.9780   -2.4094 C   0  0  0  0  0  0  0  0  0  0  0  0
   -0.3360    0.5752   -1.1083 C   0  0  0  0  0  0  0  0  0  0  0  0
    0.4181   -0.6433   -0.4877 C   0  0  0  0  0  0  0  0  0  0  0  0
    1.9015   -0.7150   -0.8638 C   0  0  0  0  0  0  0  0  0  0  0  0
   -0.2122    1.6338   -0.1213 O   0  0  0  0  0  0  0  0  0  0  0  0
   -0.9682    2.7497   -0.3397 C   0  0  0  0  0  0  0  0  0  0  0  0
   -0.5663    3.9054    0.3286 C   0  0  0  0  0  0  0  0  0  0  0  0
   -1.2735    5.0966    0.1506 C   0  0  0  0  0  0  0  0  0  0  0  0
   -2.3851    5.1258   -0.6920 C   0  0  0  0  0  0  0  0  0  0  0  0
   -3.2518    6.5952   -0.9078 Cl  0  0  0  0  0  0  0  0  0  0  0  0
   -2.8015    3.9728   -1.3530 C   0  0  0  0  0  0  0  0  0  0  0  0
   -2.0911    2.7829   -1.1643 C   0  0  0  0  0  0  0  0  0  0  0  0
   -2.5293    1.5368   -1.8213 C   0  0  0  0  0  0  0  0  0  0  0  0
   -3.4324    1.5768   -2.6503 O   0  0  0  0  0  0  0  0  0  0  0  0
   -1.8379    0.2603   -1.3510 C   0  0  0  0  0  0  0  0  0  0  0  0
   -2.6062   -0.2581   -0.1406 C   0  0  0  0  0  0  0  0  0  0  0  0
   -2.7979   -1.6745   -0.5545 C   0  0  0  0  0  0  0  0  0  0  0  0
   -3.3540   -2.6910    0.3693 C   0  0  0  0  0  0  0  0  0  0  0  0
   -3.4070   -4.0276   -0.0452 C   0  0  0  0  0  0  0  0  0  0  0  0
   -3.9207   -5.0082    0.8055 C   0  0  0  0  0  0  0  0  0  0  0  0
   -4.3857   -4.6583    2.0718 C   0  0  0  0  0  0  0  0  0  0  0  0
   -4.3387   -3.3288    2.4891 C   0  0  0  0  0  0  0  0  0  0  0  0
   -3.8242   -2.3439    1.6412 C   0  0  0  0  0  0  0  0  0  0  0  0
   -2.4362   -1.9432   -1.7673 N   0  0  0  0  0  0  0  0  0  0  0  0
   -1.9767   -0.7460   -2.3596 O   0  0  0  0  0  0  0  0  0  0  0  0
    5.9253   -0.1811    0.4996 S   0  0  0  0  0  0  0  0  0  0  0  0
    6.8605   -1.7350    3.7313 H   0  0  0  0  0  0  0  0  0  0  0  0
    7.2771   -2.4081    2.1471 H   0  0  0  0  0  0  0  0  0  0  0  0
    7.9079   -0.8188    2.6393 H   0  0  0  0  0  0  0  0  0  0  0  0
    4.3306   -0.9678    3.6403 H   0  0  0  0  0  0  0  0  0  0  0  0
    2.6802    0.2974    1.9985 H   0  0  0  0  0  0  0  0  0  0  0  0
    1.8890    2.4552   -1.8255 H   0  0  0  0  0  0  0  0  0  0  0  0
    2.4602    1.2968   -3.0285 H   0  0  0  0  0  0  0  0  0  0  0  0
   -0.0816    1.8034   -2.9357 H   0  0  0  0  0  0  0  0  0  0  0  0
    0.4113    0.1295   -3.1064 H   0  0  0  0  0  0  0  0  0  0  0  0
    0.3437   -0.5961    0.6062 H   0  0  0  0  0  0  0  0  0  0  0  0
   -0.0225   -1.5962   -0.7927 H   0  0  0  0  0  0  0  0  0  0  0  0
    2.4487   -1.3078   -0.1282 H   0  0  0  0  0  0  0  0  0  0  0  0
    2.0198   -1.2514   -1.8147 H   0  0  0  0  0  0  0  0  0  0  0  0
    0.3074    3.8857    0.9766 H   0  0  0  0  0  0  0  0  0  0  0  0
   -0.9497    5.9976    0.6665 H   0  0  0  0  0  0  0  0  0  0  0  0
   -3.6731    3.9962   -2.0039 H   0  0  0  0  0  0  0  0  0  0  0  0
   -2.0491   -0.1785    0.7961 H   0  0  0  0  0  0  0  0  0  0  0  0
   -3.5879    0.2116   -0.0155 H   0  0  0  0  0  0  0  0  0  0  0  0
   -3.0520   -4.3147   -1.0333 H   0  0  0  0  0  0  0  0  0  0  0  0
   -3.9610   -6.0438    0.4769 H   0  0  0  0  0  0  0  0  0  0  0  0
   -4.7900   -5.4223    2.7318 H   0  0  0  0  0  0  0  0  0  0  0  0
   -4.7080   -3.0587    3.4758 H   0  0  0  0  0  0  0  0  0  0  0  0
   -3.8103   -1.3174    1.9940 H   0  0  0  0  0  0  0  0  0  0  0  0
  1  2  1  0
  2  3  2  0
  3  4  1  0
  4  5  2  0
  5  6  1  0
  6  7  2  0
  6  8  1  0
  8  9  1  0
  9 10  1  0
 10 11  1  0
 11 12  1  0
 12 13  1  0
 11 14  1  0
 14 15  1  0
 15 16  2  0
 16 17  1  0
 17 18  2  0
 18 19  1  0
 18 20  1  0
 20 21  2  0
 21 22  1  0
 22 23  2  0
 22 24  1  0
 24 25  1  0
 25 26  1  0
 26 27  1  0
 27 28  2  0
 28 29  1  0
 29 30  2  0
 30 31  1  0
 31 32  2  0
 26 33  2  0
 33 34  1  0
  5 35  1  0
 35  2  1  0
 13  8  1  0
 21 15  1  0
 34 24  1  0
 24 11  1  0
 32 27  1  0
  1 36  1  0
  1 37  1  0
  1 38  1  0
  3 39  1  0
  4 40  1  0
  9 41  1  0
  9 42  1  0
 10 43  1  0
 10 44  1  0
 12 45  1  0
 12 46  1  0
 13 47  1  0
 13 48  1  0
 16 49  1  0
 17 50  1  0
 20 51  1  0
 25 52  1  0
 25 53  1  0
 28 54  1  0
 29 55  1  0
 30 56  1  0
 31 57  1  0
 32 58  1  0
M  END
$$$$
