
     RDKit          3D

 97 99  0  0  0  0  0  0  0  0999 V2000
   -1.9521    4.6331    0.9806 C   0  0  0  0  0  0  0  0  0  0  0  0
   -1.2755    3.4221    0.4160 C   0  0  0  0  0  0  0  0  0  0  0  0
   -0.1650    3.4318   -0.0921 O   0  0  0  0  0  0  0  0  0  0  0  0
   -2.0666    2.3344    0.5801 O   0  0  0  0  0  0  0  0  0  0  0  0
   -1.5639    1.0581    0.0966 C   0  0  1  0  0  0  0  0  0  0  0  0
   -0.9518    0.2392    1.2759 C   0  0  2  0  0  0  0  0  0  0  0  0
   -1.8445    0.3376    2.4075 O   0  0  0  0  0  0  0  0  0  0  0  0
   -1.8663   -0.7093    3.2706 C   0  0  0  0  0  0  0  0  0  0  0  0
   -2.8448   -0.4427    4.3743 C   0  0  0  0  0  0  0  0  0  0  0  0
   -1.1571   -1.7025    3.2150 O   0  0  0  0  0  0  0  0  0  0  0  0
    0.4568    0.6840    1.6717 C   0  0  0  0  0  0  0  0  0  0  0  0
    0.5790    1.6216    2.8472 C   0  0  0  0  0  0  0  0  0  0  0  0
    1.5786    0.2513    1.0518 C   0  0  0  0  0  0  0  0  0  0  0  0
    1.6713   -0.6193   -0.1986 C   0  0  1  0  0  0  0  0  0  0  0  0
    2.7051   -0.0966   -1.2332 C   0  0  1  0  0  0  0  0  0  0  0  0
    2.9664    1.3058   -1.1630 O   0  0  0  0  0  0  0  0  0  0  0  0
    2.1218    2.0872   -1.8827 C   0  0  0  0  0  0  0  0  0  0  0  0
    1.2043    1.6856   -2.5810 O   0  0  0  0  0  0  0  0  0  0  0  0
    2.5183    3.5149   -1.7663 C   0  0  0  0  0  0  0  0  0  0  0  0
    3.3699    3.9742   -0.7529 C   0  0  0  0  0  0  0  0  0  0  0  0
    3.7103    5.3267   -0.6850 C   0  0  0  0  0  0  0  0  0  0  0  0
    3.2026    6.2245   -1.6250 C   0  0  0  0  0  0  0  0  0  0  0  0
    2.3478    5.7745   -2.6309 C   0  0  0  0  0  0  0  0  0  0  0  0
    2.0038    4.4234   -2.7008 C   0  0  0  0  0  0  0  0  0  0  0  0
    3.9696   -0.9217   -1.0079 C   0  0  1  0  0  0  0  0  0  0  0  0
    4.8635   -0.4794    0.1476 C   0  0  0  0  0  0  0  0  0  0  0  0
    3.3843   -2.3185   -0.8110 C   0  0  0  0  0  0  0  0  0  0  0  0
    2.0614   -2.1377   -0.0061 C   0  0  1  0  0  0  0  0  0  0  0  0
    2.3288   -2.3225    1.4212 O   0  0  0  0  0  0  0  0  0  0  0  0
    2.7359   -3.5174    1.9137 C   0  0  0  0  0  0  0  0  0  0  0  0
    2.7645   -3.4839    3.4102 C   0  0  0  0  0  0  0  0  0  0  0  0
    3.0178   -4.5031    1.2487 O   0  0  0  0  0  0  0  0  0  0  0  0
    0.9659   -3.1687   -0.4980 C   0  0  1  0  0  0  0  0  0  0  0  0
   -0.0503   -3.2899    0.5319 O   0  0  0  0  0  0  0  0  0  0  0  0
   -0.5308   -4.5385    0.7852 C   0  0  0  0  0  0  0  0  0  0  0  0
   -1.5373   -4.4977    1.8909 C   0  0  0  0  0  0  0  0  0  0  0  0
   -0.1990   -5.5642    0.2075 O   0  0  0  0  0  0  0  0  0  0  0  0
    0.2907   -2.8558   -1.8861 C   0  0  1  0  0  0  0  0  0  0  0  0
   -0.0202   -4.1473   -2.6571 C   0  0  0  0  0  0  0  0  0  0  0  0
   -1.0065   -2.0693   -1.7755 C   0  0  0  0  0  0  0  0  0  0  0  0
   -1.2422   -0.8655   -2.3285 C   0  0  0  0  0  0  0  0  0  0  0  0
   -2.5107   -0.0387   -2.1061 C   0  0  0  0  0  0  0  0  0  0  0  0
   -3.7258   -0.8195   -2.6625 C   0  0  0  0  0  0  0  0  0  0  0  0
   -2.4172    1.2741   -2.9160 C   0  0  0  0  0  0  0  0  0  0  0  0
   -2.7405    0.2684   -0.5763 C   0  0  2  0  0  0  0  0  0  0  0  0
   -3.9825    1.0081   -0.4445 O   0  0  0  0  0  0  0  0  0  0  0  0
   -4.7886    0.6648    0.5944 C   0  0  0  0  0  0  0  0  0  0  0  0
   -5.9669    1.5883    0.6452 C   0  0  0  0  0  0  0  0  0  0  0  0
   -4.5985   -0.2529    1.3802 O   0  0  0  0  0  0  0  0  0  0  0  0
   -1.3740    5.5249    0.7199 H   0  0  0  0  0  0  0  0  0  0  0  0
   -2.0097    4.5489    2.0696 H   0  0  0  0  0  0  0  0  0  0  0  0
   -2.9522    4.7361    0.5481 H   0  0  0  0  0  0  0  0  0  0  0  0
   -0.7793    1.2236   -0.6455 H   0  0  0  0  0  0  0  0  0  0  0  0
   -0.8962   -0.8097    0.9637 H   0  0  0  0  0  0  0  0  0  0  0  0
   -3.1768   -1.3940    4.7981 H   0  0  0  0  0  0  0  0  0  0  0  0
   -3.7261    0.0761    3.9899 H   0  0  0  0  0  0  0  0  0  0  0  0
   -2.3657    0.1596    5.1482 H   0  0  0  0  0  0  0  0  0  0  0  0
   -0.1420    2.4396    2.7750 H   0  0  0  0  0  0  0  0  0  0  0  0
    0.4073    1.0841    3.7854 H   0  0  0  0  0  0  0  0  0  0  0  0
    1.5729    2.0821    2.9029 H   0  0  0  0  0  0  0  0  0  0  0  0
    2.5334    0.5933    1.4461 H   0  0  0  0  0  0  0  0  0  0  0  0
    0.7111   -0.5372   -0.6920 H   0  0  0  0  0  0  0  0  0  0  0  0
    2.3512   -0.3508   -2.2433 H   0  0  0  0  0  0  0  0  0  0  0  0
    3.7640    3.2894   -0.0046 H   0  0  0  0  0  0  0  0  0  0  0  0
    4.3700    5.6803    0.1040 H   0  0  0  0  0  0  0  0  0  0  0  0
    3.4679    7.2767   -1.5687 H   0  0  0  0  0  0  0  0  0  0  0  0
    1.9466    6.4753   -3.3592 H   0  0  0  0  0  0  0  0  0  0  0  0
    1.3305    4.0784   -3.4834 H   0  0  0  0  0  0  0  0  0  0  0  0
    4.5866   -0.8954   -1.9143 H   0  0  0  0  0  0  0  0  0  0  0  0
    5.1687    0.5652    0.0321 H   0  0  0  0  0  0  0  0  0  0  0  0
    5.7723   -1.0902    0.1662 H   0  0  0  0  0  0  0  0  0  0  0  0
    4.3850   -0.5934    1.1227 H   0  0  0  0  0  0  0  0  0  0  0  0
    4.1124   -2.9777   -0.3306 H   0  0  0  0  0  0  0  0  0  0  0  0
    3.1719   -2.7435   -1.7992 H   0  0  0  0  0  0  0  0  0  0  0  0
    1.8799   -3.9938    3.7984 H   0  0  0  0  0  0  0  0  0  0  0  0
    2.7738   -2.4519    3.7756 H   0  0  0  0  0  0  0  0  0  0  0  0
    3.6749   -3.9759    3.7625 H   0  0  0  0  0  0  0  0  0  0  0  0
    1.4854   -4.1301   -0.5917 H   0  0  0  0  0  0  0  0  0  0  0  0
   -2.2415   -3.6756    1.7266 H   0  0  0  0  0  0  0  0  0  0  0  0
   -1.0263   -4.3906    2.8505 H   0  0  0  0  0  0  0  0  0  0  0  0
   -2.1083   -5.4314    1.8907 H   0  0  0  0  0  0  0  0  0  0  0  0
    1.0082   -2.3067   -2.5057 H   0  0  0  0  0  0  0  0  0  0  0  0
   -0.8051   -4.7375   -2.1739 H   0  0  0  0  0  0  0  0  0  0  0  0
    0.8737   -4.7748   -2.7469 H   0  0  0  0  0  0  0  0  0  0  0  0
   -0.3653   -3.9164   -3.6719 H   0  0  0  0  0  0  0  0  0  0  0  0
   -1.7887   -2.5396   -1.1770 H   0  0  0  0  0  0  0  0  0  0  0  0
   -0.4634   -0.4017   -2.9342 H   0  0  0  0  0  0  0  0  0  0  0  0
   -3.9225   -1.7280   -2.0825 H   0  0  0  0  0  0  0  0  0  0  0  0
   -3.5646   -1.1174   -3.7063 H   0  0  0  0  0  0  0  0  0  0  0  0
   -4.6392   -0.2154   -2.6365 H   0  0  0  0  0  0  0  0  0  0  0  0
   -1.5480    1.8751   -2.6314 H   0  0  0  0  0  0  0  0  0  0  0  0
   -2.3314    1.0716   -3.9915 H   0  0  0  0  0  0  0  0  0  0  0  0
   -3.3051    1.9005   -2.7742 H   0  0  0  0  0  0  0  0  0  0  0  0
   -2.8505   -0.7065   -0.0843 H   0  0  0  0  0  0  0  0  0  0  0  0
   -5.6249    2.6094    0.8361 H   0  0  0  0  0  0  0  0  0  0  0  0
   -6.6365    1.2855    1.4557 H   0  0  0  0  0  0  0  0  0  0  0  0
   -6.5183    1.5387   -0.2963 H   0  0  0  0  0  0  0  0  0  0  0  0
  1  2  1  0
  2  3  2  0
  2  4  1  0
  4  5  1  0
  5  6  1  0
  6  7  1  0
  7  8  1  0
  8  9  1  0
  8 10  2  0
  6 11  1  0
 11 12  1  0
 11 13  2  0
 13 14  1  0
 14 15  1  0
 15 16  1  0
 16 17  1  0
 17 18  2  0
 17 19  1  0
 19 20  2  0
 20 21  1  0
 21 22  2  0
 22 23  1  0
 23 24  2  0
 15 25  1  0
 25 26  1  0
 25 27  1  0
 27 28  1  0
 28 29  1  1
 29 30  1  0
 30 31  1  0
 30 32  2  0
 28 33  1  0
 33 34  1  0
 34 35  1  0
 35 36  1  0
 35 37  2  0
 33 38  1  0
 38 39  1  0
 38 40  1  0
 40 41  2  0
 41 42  1  0
 42 43  1  0
 42 44  1  0
 42 45  1  0
 45 46  1  0
 46 47  1  0
 47 48  1  0
 47 49  2  0
 45  5  1  0
 28 14  1  0
 24 19  1  0
  1 50  1  0
  1 51  1  0
  1 52  1  0
  5 53  1  6
  6 54  1  6
  9 55  1  0
  9 56  1  0
  9 57  1  0
 12 58  1  0
 12 59  1  0
 12 60  1  0
 13 61  1  0
 14 62  1  6
 15 63  1  6
 20 64  1  0
 21 65  1  0
 22 66  1  0
 23 67  1  0
 24 68  1  0
 25 69  1  6
 26 70  1  0
 26 71  1  0
 26 72  1  0
 27 73  1  0
 27 74  1  0
 31 75  1  0
 31 76  1  0
 31 77  1  0
 33 78  1  6
 36 79  1  0
 36 80  1  0
 36 81  1  0
 38 82  1  6
 39 83  1  0
 39 84  1  0
 39 85  1  0
 40 86  1  0
 41 87  1  0
 43 88  1  0
 43 89  1  0
 43 90  1  0
 44 91  1  0
 44 92  1  0
 44 93  1  0
 45 94  1  1
 48 95  1  0
 48 96  1  0
 48 97  1  0
M  END
$$$$
