
     RDKit          3D

 37 39  0  0  0  0  0  0  0  0999 V2000
   -2.5903    0.1789    1.5050 O   0  0  0  0  0  0  0  0  0  0  0  0
   -3.0351   -0.2850    0.4597 C   0  0  0  0  0  0  0  0  0  0  0  0
   -2.2775   -1.0346   -0.4267 N   0  0  0  0  0  0  0  0  0  0  0  0
   -0.8902   -1.0539   -0.1868 N   0  0  0  0  0  0  0  0  0  0  0  0
   -0.1090   -0.0486   -0.7276 C   0  0  0  0  0  0  0  0  0  0  0  0
   -0.4808    0.8160   -1.5105 O   0  0  0  0  0  0  0  0  0  0  0  0
    1.2919   -0.2163   -0.2520 C   0  0  0  0  0  0  0  0  0  0  0  0
    2.2523    0.6564   -0.5862 C   0  0  0  0  0  0  0  0  0  0  0  0
    3.6574    0.6080   -0.1651 C   0  0  0  0  0  0  0  0  0  0  0  0
    4.1744    1.6711    0.5923 C   0  0  0  0  0  0  0  0  0  0  0  0
    5.5126    1.6715    0.9928 C   0  0  0  0  0  0  0  0  0  0  0  0
    6.3274    0.6114    0.6280 C   0  0  0  0  0  0  0  0  0  0  0  0
    7.6354    0.6111    1.0189 O   0  0  0  0  0  0  0  0  0  0  0  0
    5.8275   -0.4442   -0.1299 C   0  0  0  0  0  0  0  0  0  0  0  0
    6.6899   -1.4554   -0.4548 O   0  0  0  0  0  0  0  0  0  0  0  0
    4.4969   -0.4527   -0.5364 C   0  0  0  0  0  0  0  0  0  0  0  0
    1.4253   -1.6165    0.7475 S   0  0  0  0  0  0  0  0  0  0  0  0
   -0.2884   -2.0076    0.6076 C   0  0  0  0  0  0  0  0  0  0  0  0
   -0.9800   -3.3575    1.3020 S   0  0  0  0  0  0  0  0  0  0  0  0
   -4.4419   -0.0237    0.0521 C   0  0  0  0  0  0  0  0  0  0  0  0
   -5.1480   -0.9048   -0.7781 C   0  0  0  0  0  0  0  0  0  0  0  0
   -6.4676   -0.6182   -1.1358 C   0  0  0  0  0  0  0  0  0  0  0  0
   -7.0854    0.5396   -0.6627 C   0  0  0  0  0  0  0  0  0  0  0  0
   -6.3911    1.4106    0.1761 C   0  0  0  0  0  0  0  0  0  0  0  0
   -5.0730    1.1282    0.5377 C   0  0  0  0  0  0  0  0  0  0  0  0
   -2.5375   -1.0189   -1.4080 H   0  0  0  0  0  0  0  0  0  0  0  0
    2.0002    1.5179   -1.2045 H   0  0  0  0  0  0  0  0  0  0  0  0
    3.5384    2.5052    0.8819 H   0  0  0  0  0  0  0  0  0  0  0  0
    5.9134    2.4899    1.5831 H   0  0  0  0  0  0  0  0  0  0  0  0
    8.0000   -0.2200    0.6547 H   0  0  0  0  0  0  0  0  0  0  0  0
    6.1937   -2.1329   -0.9455 H   0  0  0  0  0  0  0  0  0  0  0  0
    4.1099   -1.2685   -1.1385 H   0  0  0  0  0  0  0  0  0  0  0  0
   -4.7017   -1.8302   -1.1312 H   0  0  0  0  0  0  0  0  0  0  0  0
   -7.0201   -1.3029   -1.7751 H   0  0  0  0  0  0  0  0  0  0  0  0
   -8.1141    0.7589   -0.9396 H   0  0  0  0  0  0  0  0  0  0  0  0
   -6.8765    2.3078    0.5526 H   0  0  0  0  0  0  0  0  0  0  0  0
   -4.5386    1.8099    1.1970 H   0  0  0  0  0  0  0  0  0  0  0  0
  1  2  2  0
  2  3  1  0
  3  4  1  0
  4  5  1  0
  5  6  2  0
  5  7  1  0
  7  8  2  3
  8  9  1  0
  9 10  2  0
 10 11  1  0
 11 12  2  0
 12 13  1  0
 12 14  1  0
 14 15  1  0
 14 16  2  0
  7 17  1  0
 17 18  1  0
 18 19  2  0
  2 20  1  0
 20 21  2  0
 21 22  1  0
 22 23  2  0
 23 24  1  0
 24 25  2  0
 18  4  1  0
 25 20  1  0
 16  9  1  0
  3 26  1  0
  8 27  1  0
 10 28  1  0
 11 29  1  0
 13 30  1  0
 15 31  1  0
 16 32  1  0
 21 33  1  0
 22 34  1  0
 23 35  1  0
 24 36  1  0
 25 37  1  0
M  END
$$$$
