
     RDKit          3D

 36 38  0  0  0  0  0  0  0  0999 V2000
    4.0383    2.7347   -0.1047 C   0  0  0  0  0  0  0  0  0  0  0  0
    3.8638    1.2532    0.0630 C   0  0  0  0  0  0  0  0  0  0  0  0
    4.9791    0.4317    0.2444 C   0  0  0  0  0  0  0  0  0  0  0  0
    4.8505   -0.9556    0.3580 C   0  0  0  0  0  0  0  0  0  0  0  0
    3.5639   -1.4999    0.2803 C   0  0  0  0  0  0  0  0  0  0  0  0
    3.1612   -2.8142    0.3393 N   0  0  0  0  0  0  0  0  0  0  0  0
    1.8013   -2.8998    0.2000 C   0  0  0  0  0  0  0  0  0  0  0  0
    1.3055   -1.6196    0.0779 C   0  0  0  0  0  0  0  0  0  0  0  0
   -0.0898   -1.3504   -0.0675 C   0  0  0  0  0  0  0  0  0  0  0  0
   -0.7260   -0.2740    0.4242 C   0  0  0  0  0  0  0  0  0  0  0  0
   -2.1633   -0.0243    0.2707 C   0  0  0  0  0  0  0  0  0  0  0  0
   -3.1142   -1.0360    0.3958 C   0  0  0  0  0  0  0  0  0  0  0  0
   -4.4653   -0.7327    0.2695 C   0  0  0  0  0  0  0  0  0  0  0  0
   -4.8670    0.5352    0.0294 N   0  0  0  0  0  4  0  0  0  0  0  0
   -6.3041    0.8336   -0.0919 C   0  0  0  0  0  0  0  0  0  0  0  0
   -3.9653    1.5367   -0.0725 C   0  0  0  0  0  0  0  0  0  0  0  0
   -2.6044    1.2792    0.0494 C   0  0  0  0  0  0  0  0  0  0  0  0
    2.4185   -0.7200    0.1040 C   0  0  0  0  0  0  0  0  0  0  0  0
    2.5838    0.6781   -0.0246 C   0  0  0  0  0  0  0  0  0  0  0  0
    4.1889    2.9762   -1.1613 H   0  0  0  0  0  0  0  0  0  0  0  0
    4.8999    3.0941    0.4678 H   0  0  0  0  0  0  0  0  0  0  0  0
    3.1586    3.2751    0.2603 H   0  0  0  0  0  0  0  0  0  0  0  0
    5.9752    0.8690    0.2928 H   0  0  0  0  0  0  0  0  0  0  0  0
    5.7263   -1.5827    0.4925 H   0  0  0  0  0  0  0  0  0  0  0  0
    3.7886   -3.5986    0.4554 H   0  0  0  0  0  0  0  0  0  0  0  0
    1.3125   -3.8648    0.2167 H   0  0  0  0  0  0  0  0  0  0  0  0
   -0.6554   -2.1089   -0.6047 H   0  0  0  0  0  0  0  0  0  0  0  0
   -0.1691    0.4782    0.9794 H   0  0  0  0  0  0  0  0  0  0  0  0
   -2.8157   -2.0615    0.6054 H   0  0  0  0  0  0  0  0  0  0  0  0
   -5.2319   -1.4966    0.3654 H   0  0  0  0  0  0  0  0  0  0  0  0
   -6.8177   -0.0390   -0.5039 H   0  0  0  0  0  0  0  0  0  0  0  0
   -6.6752    1.0680    0.9088 H   0  0  0  0  0  0  0  0  0  0  0  0
   -6.4378    1.6832   -0.7665 H   0  0  0  0  0  0  0  0  0  0  0  0
   -4.3419    2.5406   -0.2483 H   0  0  0  0  0  0  0  0  0  0  0  0
   -1.8937    2.0994   -0.0376 H   0  0  0  0  0  0  0  0  0  0  0  0
    1.7220    1.3124   -0.2031 H   0  0  0  0  0  0  0  0  0  0  0  0
  1  2  1  0
  2  3  2  0
  3  4  1  0
  4  5  2  0
  5  6  1  0
  6  7  1  0
  7  8  2  0
  8  9  1  0
  9 10  2  3
 10 11  1  0
 11 12  2  0
 12 13  1  0
 13 14  2  0
 14 15  1  0
 14 16  1  0
 16 17  2  0
  8 18  1  0
 18 19  2  0
 19  2  1  0
 18  5  1  0
 17 11  1  0
  1 20  1  0
  1 21  1  0
  1 22  1  0
  3 23  1  0
  4 24  1  0
  6 25  1  0
  7 26  1  0
  9 27  1  0
 10 28  1  0
 12 29  1  0
 13 30  1  0
 15 31  1  0
 15 32  1  0
 15 33  1  0
 16 34  1  0
 17 35  1  0
 19 36  1  0
M  CHG  1  14   1
M  END
$$$$
