
     RDKit          3D

 49 50  0  0  0  0  0  0  0  0999 V2000
    6.0768   -0.5209    1.2643 C   0  0  0  0  0  0  0  0  0  0  0  0
    5.7324   -1.1664   -0.0646 C   0  0  0  0  0  0  0  0  0  0  0  0
    4.5779   -0.5352   -0.6334 O   0  0  0  0  0  0  0  0  0  0  0  0
    3.3676   -1.0412   -0.2543 C   0  0  0  0  0  0  0  0  0  0  0  0
    3.2440   -1.9781    0.5276 O   0  0  0  0  0  0  0  0  0  0  0  0
    2.2320   -0.3419   -0.8785 C   0  0  0  0  0  0  0  0  0  0  0  0
    2.2371    0.8349   -1.7115 C   0  0  0  0  0  0  0  0  0  0  0  0
    3.4450    1.6018   -2.1400 C   0  0  0  0  0  0  0  0  0  0  0  0
    0.9173    1.1272   -2.0326 C   0  0  0  0  0  0  0  0  0  0  0  0
    0.3582    2.2377   -2.8610 C   0  0  0  0  0  0  0  0  0  0  0  0
    0.1128    0.1793   -1.4272 N   0  0  0  0  0  0  0  0  0  0  0  0
   -1.3546    0.1334   -1.5160 C   0  0  0  0  0  0  0  0  0  0  0  0
   -2.0514    0.5045   -0.2234 C   0  0  0  0  0  0  0  0  0  0  0  0
   -1.5631    1.5299    0.6016 C   0  0  0  0  0  0  0  0  0  0  0  0
   -2.2371    1.8891    1.7672 C   0  0  0  0  0  0  0  0  0  0  0  0
   -3.4285    1.2528    2.1163 C   0  0  0  0  0  0  0  0  0  0  0  0
   -3.9588    0.2477    1.3032 C   0  0  0  0  0  0  0  0  0  0  0  0
   -5.1472   -0.3910    1.5456 O   0  0  0  0  0  0  0  0  0  0  0  0
   -5.9229    0.0544    2.6501 C   0  0  0  0  0  0  0  0  0  0  0  0
   -3.2518   -0.1360    0.1444 C   0  0  0  0  0  0  0  0  0  0  0  0
   -3.7256   -1.0915   -0.7260 O   0  0  0  0  0  0  0  0  0  0  0  0
   -3.9360   -2.3585   -0.1025 C   0  0  0  0  0  0  0  0  0  0  0  0
    0.8994   -0.7329   -0.7498 C   0  0  0  0  0  0  0  0  0  0  0  0
    0.3397   -1.9015   -0.0015 C   0  0  0  0  0  0  0  0  0  0  0  0
    5.2656   -0.6522    1.9880 H   0  0  0  0  0  0  0  0  0  0  0  0
    6.2213    0.5577    1.1406 H   0  0  0  0  0  0  0  0  0  0  0  0
    6.9903   -0.9540    1.6812 H   0  0  0  0  0  0  0  0  0  0  0  0
    6.5571   -1.0174   -0.7695 H   0  0  0  0  0  0  0  0  0  0  0  0
    5.5910   -2.2483    0.0380 H   0  0  0  0  0  0  0  0  0  0  0  0
    3.1934    2.4710   -2.7526 H   0  0  0  0  0  0  0  0  0  0  0  0
    4.1081    0.9667   -2.7365 H   0  0  0  0  0  0  0  0  0  0  0  0
    3.9937    1.9685   -1.2665 H   0  0  0  0  0  0  0  0  0  0  0  0
   -0.1021    1.8394   -3.7712 H   0  0  0  0  0  0  0  0  0  0  0  0
   -0.3958    2.7993   -2.3000 H   0  0  0  0  0  0  0  0  0  0  0  0
    1.1266    2.9517   -3.1668 H   0  0  0  0  0  0  0  0  0  0  0  0
   -1.6876    0.8114   -2.3070 H   0  0  0  0  0  0  0  0  0  0  0  0
   -1.5948   -0.8812   -1.8513 H   0  0  0  0  0  0  0  0  0  0  0  0
   -0.6444    2.0568    0.3492 H   0  0  0  0  0  0  0  0  0  0  0  0
   -1.8360    2.6760    2.4015 H   0  0  0  0  0  0  0  0  0  0  0  0
   -3.9228    1.5755    3.0264 H   0  0  0  0  0  0  0  0  0  0  0  0
   -6.8476   -0.5305    2.6658 H   0  0  0  0  0  0  0  0  0  0  0  0
   -5.4007   -0.1258    3.5954 H   0  0  0  0  0  0  0  0  0  0  0  0
   -6.1984    1.1089    2.5428 H   0  0  0  0  0  0  0  0  0  0  0  0
   -3.2902   -2.5200    0.7687 H   0  0  0  0  0  0  0  0  0  0  0  0
   -3.6992   -3.1321   -0.8395 H   0  0  0  0  0  0  0  0  0  0  0  0
   -4.9892   -2.4733    0.1708 H   0  0  0  0  0  0  0  0  0  0  0  0
   -0.6791   -2.1562   -0.3020 H   0  0  0  0  0  0  0  0  0  0  0  0
    0.3357   -1.6921    1.0735 H   0  0  0  0  0  0  0  0  0  0  0  0
    0.9422   -2.7973   -0.1808 H   0  0  0  0  0  0  0  0  0  0  0  0
  1  2  1  0
  2  3  1  0
  3  4  1  0
  4  5  2  0
  4  6  1  0
  6  7  1  0
  7  8  1  0
  7  9  2  0
  9 10  1  0
  9 11  1  0
 11 12  1  0
 12 13  1  0
 13 14  2  0
 14 15  1  0
 15 16  2  0
 16 17  1  0
 17 18  1  0
 18 19  1  0
 17 20  2  0
 20 21  1  0
 21 22  1  0
 11 23  1  0
 23 24  1  0
 23  6  2  0
 20 13  1  0
  1 25  1  0
  1 26  1  0
  1 27  1  0
  2 28  1  0
  2 29  1  0
  8 30  1  0
  8 31  1  0
  8 32  1  0
 10 33  1  0
 10 34  1  0
 10 35  1  0
 12 36  1  0
 12 37  1  0
 14 38  1  0
 15 39  1  0
 16 40  1  0
 19 41  1  0
 19 42  1  0
 19 43  1  0
 22 44  1  0
 22 45  1  0
 22 46  1  0
 24 47  1  0
 24 48  1  0
 24 49  1  0
M  END
$$$$
