
     RDKit          3D

 54 57  0  0  0  0  0  0  0  0999 V2000
   -5.5981   -2.6768   -2.5010 C   0  0  0  0  0  0  0  0  0  0  0  0
   -4.9424   -2.8525   -1.2514 O   0  0  0  0  0  0  0  0  0  0  0  0
   -4.2329   -1.7877   -0.7682 C   0  0  0  0  0  0  0  0  0  0  0  0
   -3.6291   -2.0085    0.4755 C   0  0  0  0  0  0  0  0  0  0  0  0
   -2.8725   -1.0088    1.0882 C   0  0  0  0  0  0  0  0  0  0  0  0
   -2.7108    0.2140    0.4385 C   0  0  0  0  0  0  0  0  0  0  0  0
   -1.9151    1.2815    1.0753 C   0  0  0  0  0  0  0  0  0  0  0  0
   -2.5434    2.1170    1.8393 N   0  0  0  0  0  0  0  0  0  0  0  0
   -1.8188    3.1429    2.4533 C   0  0  0  0  0  0  0  0  0  0  0  0
   -2.4973    4.0549    3.2653 C   0  0  0  0  0  0  0  0  0  0  0  0
   -1.8098    5.0933    3.9001 C   0  0  0  0  0  0  0  0  0  0  0  0
   -0.4325    5.2274    3.7273 C   0  0  0  0  0  0  0  0  0  0  0  0
    0.2557    4.3230    2.9195 C   0  0  0  0  0  0  0  0  0  0  0  0
   -0.4447    3.2878    2.2881 C   0  0  0  0  0  0  0  0  0  0  0  0
    0.2473    2.3127    1.4301 C   0  0  0  0  0  0  0  0  0  0  0  0
    1.4675    2.3801    1.2951 O   0  0  0  0  0  0  0  0  0  0  0  0
   -0.5478    1.3402    0.8232 N   0  0  0  0  0  0  0  0  0  0  0  0
    0.1590    0.3778   -0.0313 C   0  0  0  0  0  0  0  0  0  0  0  0
    0.8693   -0.7106    0.7812 C   0  0  0  0  0  0  0  0  0  0  0  0
    1.4310   -1.7048   -0.0758 O   0  0  0  0  0  0  0  0  0  0  0  0
    2.6692   -1.4916   -0.6214 C   0  0  0  0  0  0  0  0  0  0  0  0
    3.4662   -0.3656   -0.4024 C   0  0  0  0  0  0  0  0  0  0  0  0
    4.7169   -0.2497   -1.0179 C   0  0  0  0  0  0  0  0  0  0  0  0
    5.1875   -1.2517   -1.8692 C   0  0  0  0  0  0  0  0  0  0  0  0
    6.5428   -1.1422   -2.5016 C   0  0  0  0  0  0  0  0  0  0  0  0
    4.3975   -2.3871   -2.0775 C   0  0  0  0  0  0  0  0  0  0  0  0
    3.1396   -2.5142   -1.4652 C   0  0  0  0  0  0  0  0  0  0  0  0
    2.3117   -3.7448   -1.7169 C   0  0  0  0  0  0  0  0  0  0  0  0
   -3.3216    0.4572   -0.7935 C   0  0  0  0  0  0  0  0  0  0  0  0
   -4.0795   -0.5498   -1.3990 C   0  0  0  0  0  0  0  0  0  0  0  0
   -6.1190   -3.6091   -2.7392 H   0  0  0  0  0  0  0  0  0  0  0  0
   -6.3482   -1.8811   -2.4446 H   0  0  0  0  0  0  0  0  0  0  0  0
   -4.8765   -2.4847   -3.3017 H   0  0  0  0  0  0  0  0  0  0  0  0
   -3.7574   -2.9679    0.9715 H   0  0  0  0  0  0  0  0  0  0  0  0
   -2.4243   -1.1847    2.0620 H   0  0  0  0  0  0  0  0  0  0  0  0
   -3.5708    3.9513    3.4024 H   0  0  0  0  0  0  0  0  0  0  0  0
   -2.3514    5.7953    4.5294 H   0  0  0  0  0  0  0  0  0  0  0  0
    0.1035    6.0343    4.2211 H   0  0  0  0  0  0  0  0  0  0  0  0
    1.3298    4.4238    2.7826 H   0  0  0  0  0  0  0  0  0  0  0  0
   -0.5202   -0.0882   -0.7509 H   0  0  0  0  0  0  0  0  0  0  0  0
    0.8861    0.9257   -0.6422 H   0  0  0  0  0  0  0  0  0  0  0  0
    0.1273   -1.2298    1.3986 H   0  0  0  0  0  0  0  0  0  0  0  0
    1.6012   -0.3167    1.4951 H   0  0  0  0  0  0  0  0  0  0  0  0
    3.1539    0.4504    0.2420 H   0  0  0  0  0  0  0  0  0  0  0  0
    5.3194    0.6353   -0.8243 H   0  0  0  0  0  0  0  0  0  0  0  0
    6.5483   -1.6087   -3.4924 H   0  0  0  0  0  0  0  0  0  0  0  0
    6.8305   -0.0940   -2.6351 H   0  0  0  0  0  0  0  0  0  0  0  0
    7.2902   -1.6353   -1.8725 H   0  0  0  0  0  0  0  0  0  0  0  0
    4.7646   -3.1821   -2.7238 H   0  0  0  0  0  0  0  0  0  0  0  0
    2.8200   -4.4410   -2.3923 H   0  0  0  0  0  0  0  0  0  0  0  0
    2.1228   -4.2735   -0.7769 H   0  0  0  0  0  0  0  0  0  0  0  0
    1.3577   -3.4715   -2.1796 H   0  0  0  0  0  0  0  0  0  0  0  0
   -3.2128    1.4236   -1.2791 H   0  0  0  0  0  0  0  0  0  0  0  0
   -4.5397   -0.3353   -2.3579 H   0  0  0  0  0  0  0  0  0  0  0  0
  1  2  1  0
  2  3  1  0
  3  4  2  0
  4  5  1  0
  5  6  2  0
  6  7  1  0
  7  8  2  0
  8  9  1  0
  9 10  2  0
 10 11  1  0
 11 12  2  0
 12 13  1  0
 13 14  2  0
 14 15  1  0
 15 16  2  0
 15 17  1  0
 17 18  1  0
 18 19  1  0
 19 20  1  0
 20 21  1  0
 21 22  2  0
 22 23  1  0
 23 24  2  0
 24 25  1  0
 24 26  1  0
 26 27  2  0
 27 28  1  0
  6 29  1  0
 29 30  2  0
 30  3  1  0
 17  7  1  0
 27 21  1  0
 14  9  1  0
  1 31  1  0
  1 32  1  0
  1 33  1  0
  4 34  1  0
  5 35  1  0
 10 36  1  0
 11 37  1  0
 12 38  1  0
 13 39  1  0
 18 40  1  0
 18 41  1  0
 19 42  1  0
 19 43  1  0
 22 44  1  0
 23 45  1  0
 25 46  1  0
 25 47  1  0
 25 48  1  0
 26 49  1  0
 28 50  1  0
 28 51  1  0
 28 52  1  0
 29 53  1  0
 30 54  1  0
M  END
$$$$
