
     RDKit          3D

 57 62  0  0  0  0  0  0  0  0999 V2000
    4.8357   -0.9898    2.1704 C   0  0  0  0  0  0  0  0  0  0  0  0
    5.1480   -1.4987    0.8794 O   0  0  0  0  0  0  0  0  0  0  0  0
    4.1095   -1.6023   -0.0077 C   0  0  0  0  0  0  0  0  0  0  0  0
    4.4678   -2.1465   -1.2588 C   0  0  0  0  0  0  0  0  0  0  0  0
    3.5237   -2.3265   -2.2741 C   0  0  0  0  0  0  0  0  0  0  0  0
    2.2291   -1.9430   -2.0039 C   0  0  0  0  0  0  0  0  0  0  0  0
    1.8532   -1.3898   -0.7767 C   0  0  0  0  0  0  0  0  0  0  0  0
    2.7868   -1.2218    0.2384 C   0  0  0  0  0  0  0  0  0  0  0  0
    0.3862   -1.0835   -0.8159 C   0  0  0  0  0  0  0  0  0  0  0  0
   -0.4074   -1.7302    0.2777 N   0  0  0  0  0  0  0  0  0  0  0  0
   -1.3500   -0.7175    0.8771 C   0  0  2  0  0  0  0  0  0  0  0  0
   -2.8205   -0.9137    0.4502 C   0  0  0  0  0  0  0  0  0  0  0  0
   -3.4038   -2.2508    0.8454 C   0  0  0  0  0  0  0  0  0  0  0  0
   -3.6842   -3.2159   -0.1324 C   0  0  0  0  0  0  0  0  0  0  0  0
   -4.2130   -4.4554    0.2294 C   0  0  0  0  0  0  0  0  0  0  0  0
   -4.4682   -4.7412    1.5693 C   0  0  0  0  0  0  0  0  0  0  0  0
   -4.1963   -3.7873    2.5485 C   0  0  0  0  0  0  0  0  0  0  0  0
   -3.6671   -2.5468    2.1893 C   0  0  0  0  0  0  0  0  0  0  0  0
   -0.7971    0.5602    0.3756 C   0  0  0  0  0  0  0  0  0  0  0  0
    0.1689    0.3545   -0.6051 C   0  0  0  0  0  0  0  0  0  0  0  0
    0.6164    1.5711   -1.0470 C   0  0  0  0  0  0  0  0  0  0  0  0
    1.5873    1.8209   -1.9241 O   0  0  0  0  0  0  0  0  0  0  0  0
   -0.0971    2.5534   -0.3342 N   0  0  0  0  0  0  0  0  0  0  0  0
    0.0501    3.9637   -0.4786 C   0  0  0  0  0  0  0  0  0  0  0  0
    0.0121    4.7921    0.6511 C   0  0  0  0  0  0  0  0  0  0  0  0
    0.1584    6.1727    0.5065 C   0  0  0  0  0  0  0  0  0  0  0  0
    0.3385    6.7287   -0.7595 C   0  0  0  0  0  0  0  0  0  0  0  0
    0.3743    5.9070   -1.8854 C   0  0  0  0  0  0  0  0  0  0  0  0
    0.2324    4.5251   -1.7495 C   0  0  0  0  0  0  0  0  0  0  0  0
   -0.9885    1.9041    0.5410 C   0  0  0  0  0  0  0  0  0  0  0  0
   -1.8929    2.5164    1.3038 O   0  0  0  0  0  0  0  0  0  0  0  0
   -0.0307   -1.5874   -2.2261 C   0  0  0  0  0  0  0  0  0  0  0  0
   -1.1530   -1.6302   -2.7103 O   0  0  0  0  0  0  0  0  0  0  0  0
    1.1302   -2.0525   -2.8473 N   0  0  0  0  0  0  0  0  0  0  0  0
    4.4722    0.0415    2.1107 H   0  0  0  0  0  0  0  0  0  0  0  0
    5.7583   -0.9832    2.7588 H   0  0  0  0  0  0  0  0  0  0  0  0
    4.1166   -1.6346    2.6866 H   0  0  0  0  0  0  0  0  0  0  0  0
    5.5018   -2.4369   -1.4325 H   0  0  0  0  0  0  0  0  0  0  0  0
    3.8092   -2.7536   -3.2277 H   0  0  0  0  0  0  0  0  0  0  0  0
    2.4611   -0.8031    1.1832 H   0  0  0  0  0  0  0  0  0  0  0  0
   -0.9532   -2.4901   -0.1259 H   0  0  0  0  0  0  0  0  0  0  0  0
   -1.2543   -0.7745    1.9672 H   0  0  0  0  0  0  0  0  0  0  0  0
   -2.9221   -0.7760   -0.6351 H   0  0  0  0  0  0  0  0  0  0  0  0
   -3.4421   -0.1250    0.8960 H   0  0  0  0  0  0  0  0  0  0  0  0
   -3.4905   -3.0074   -1.1837 H   0  0  0  0  0  0  0  0  0  0  0  0
   -4.4265   -5.1974   -0.5355 H   0  0  0  0  0  0  0  0  0  0  0  0
   -4.8802   -5.7066    1.8501 H   0  0  0  0  0  0  0  0  0  0  0  0
   -4.3966   -4.0094    3.5932 H   0  0  0  0  0  0  0  0  0  0  0  0
   -3.4623   -1.8124    2.9650 H   0  0  0  0  0  0  0  0  0  0  0  0
    1.9572    2.7039   -1.7460 H   0  0  0  0  0  0  0  0  0  0  0  0
   -0.0838    4.3798    1.6541 H   0  0  0  0  0  0  0  0  0  0  0  0
    0.1422    6.8159    1.3834 H   0  0  0  0  0  0  0  0  0  0  0  0
    0.4505    7.8049   -0.8690 H   0  0  0  0  0  0  0  0  0  0  0  0
    0.5024    6.3455   -2.8726 H   0  0  0  0  0  0  0  0  0  0  0  0
    0.2188    3.9113   -2.6487 H   0  0  0  0  0  0  0  0  0  0  0  0
   -2.0549    3.4087    0.9485 H   0  0  0  0  0  0  0  0  0  0  0  0
    1.1372   -2.4405   -3.7775 H   0  0  0  0  0  0  0  0  0  0  0  0
  1  2  1  0
  2  3  1  0
  3  4  2  0
  4  5  1  0
  5  6  2  0
  6  7  1  0
  7  8  2  0
  7  9  1  0
  9 10  1  0
 10 11  1  0
 11 12  1  0
 12 13  1  0
 13 14  2  0
 14 15  1  0
 15 16  2  0
 16 17  1  0
 17 18  2  0
 11 19  1  0
 19 20  1  0
 20 21  2  0
 21 22  1  0
 21 23  1  0
 23 24  1  0
 24 25  2  0
 25 26  1  0
 26 27  2  0
 27 28  1  0
 28 29  2  0
 23 30  1  0
 30 31  1  0
  9 32  1  0
 32 33  2  0
 32 34  1  0
  8  3  1  0
 20  9  1  0
 29 24  1  0
 34  6  1  0
 18 13  1  0
 30 19  2  0
  1 35  1  0
  1 36  1  0
  1 37  1  0
  4 38  1  0
  5 39  1  0
  8 40  1  0
 10 41  1  0
 11 42  1  1
 12 43  1  0
 12 44  1  0
 14 45  1  0
 15 46  1  0
 16 47  1  0
 17 48  1  0
 18 49  1  0
 22 50  1  0
 25 51  1  0
 26 52  1  0
 27 53  1  0
 28 54  1  0
 29 55  1  0
 31 56  1  0
 34 57  1  0
M  END
$$$$
