
     RDKit          3D

 51 55  0  0  0  0  0  0  0  0999 V2000
    5.5975   -2.7785   -3.6707 C   0  0  0  0  0  0  0  0  0  0  0  0
    4.1568   -2.4759   -3.2998 C   0  0  0  0  0  0  0  0  0  0  0  0
    4.0105   -1.0588   -3.2238 O   0  0  0  0  0  0  0  0  0  0  0  0
    2.7749   -0.5743   -2.8961 C   0  0  0  0  0  0  0  0  0  0  0  0
    2.6919    0.8212   -2.8467 C   0  0  0  0  0  0  0  0  0  0  0  0
    1.4921    1.4557   -2.5190 C   0  0  0  0  0  0  0  0  0  0  0  0
    0.3709    0.6839   -2.2150 C   0  0  0  0  0  0  0  0  0  0  0  0
   -1.1751    1.4740   -1.8081 S   0  0  0  0  0  6  0  0  0  0  0  0
   -1.1932    2.7711   -2.4538 O   0  0  0  0  0  0  0  0  0  0  0  0
   -2.2183    0.5146   -2.1191 O   0  0  0  0  0  0  0  0  0  0  0  0
   -1.1195    1.6975   -0.1249 N   0  0  0  0  0  0  0  0  0  0  0  0
   -0.3555    2.7703    0.4179 C   0  0  0  0  0  0  0  0  0  0  0  0
    0.6037    3.2529   -0.1723 O   0  0  0  0  0  0  0  0  0  0  0  0
   -0.7892    3.2626    1.7163 C   0  0  0  0  0  0  0  0  0  0  0  0
   -0.2093    4.1985    2.5562 C   0  0  0  0  0  0  0  0  0  0  0  0
   -1.0509    4.3151    3.6884 C   0  0  0  0  0  0  0  0  0  0  0  0
   -2.0992    3.4538    3.4734 C   0  0  0  0  0  0  0  0  0  0  0  0
   -1.9541    2.8176    2.2842 O   0  0  0  0  0  0  0  0  0  0  0  0
   -1.1354    0.4871    0.6788 C   0  0  0  0  0  0  0  0  0  0  0  0
    0.0883   -0.1034    1.0386 C   0  0  0  0  0  0  0  0  0  0  0  0
    0.0758   -1.2885    1.7477 C   0  0  0  0  0  0  0  0  0  0  0  0
    1.4531   -2.2217    2.2964 S   0  0  0  0  0  0  0  0  0  0  0  0
    0.3256   -3.3914    2.9910 C   0  0  0  0  0  0  0  0  0  0  0  0
    0.7135   -4.3907    3.5802 O   0  0  0  0  0  0  0  0  0  0  0  0
   -1.0239   -3.0978    2.8192 O   0  0  0  0  0  0  0  0  0  0  0  0
   -1.1207   -1.8969    2.1047 C   0  0  0  0  0  0  0  0  0  0  0  0
   -2.3623   -1.3433    1.7676 C   0  0  0  0  0  0  0  0  0  0  0  0
   -3.5766   -1.9584    2.1339 C   0  0  0  0  0  0  0  0  0  0  0  0
   -4.8016   -1.3883    1.7943 C   0  0  0  0  0  0  0  0  0  0  0  0
   -4.8325   -0.1947    1.0872 C   0  0  0  0  0  0  0  0  0  0  0  0
   -3.6386    0.4277    0.7167 C   0  0  0  0  0  0  0  0  0  0  0  0
   -2.3775   -0.1262    1.0361 C   0  0  0  0  0  0  0  0  0  0  0  0
    0.4325   -0.7120   -2.2959 C   0  0  0  0  0  0  0  0  0  0  0  0
    1.6383   -1.3389   -2.6264 C   0  0  0  0  0  0  0  0  0  0  0  0
    5.8538   -2.3167   -4.6300 H   0  0  0  0  0  0  0  0  0  0  0  0
    6.2830   -2.3639   -2.9241 H   0  0  0  0  0  0  0  0  0  0  0  0
    5.7634   -3.8571   -3.7423 H   0  0  0  0  0  0  0  0  0  0  0  0
    3.9335   -2.9339   -2.3293 H   0  0  0  0  0  0  0  0  0  0  0  0
    3.4950   -2.8855   -4.0715 H   0  0  0  0  0  0  0  0  0  0  0  0
    3.5716    1.4204   -3.0726 H   0  0  0  0  0  0  0  0  0  0  0  0
    1.4474    2.5429   -2.5018 H   0  0  0  0  0  0  0  0  0  0  0  0
    0.7128    4.7310    2.3622 H   0  0  0  0  0  0  0  0  0  0  0  0
   -0.9145    4.9526    4.5512 H   0  0  0  0  0  0  0  0  0  0  0  0
   -2.9846    3.1940    4.0379 H   0  0  0  0  0  0  0  0  0  0  0  0
    1.0388    0.3444    0.7584 H   0  0  0  0  0  0  0  0  0  0  0  0
   -3.5772   -2.8940    2.6910 H   0  0  0  0  0  0  0  0  0  0  0  0
   -5.7293   -1.8765    2.0818 H   0  0  0  0  0  0  0  0  0  0  0  0
   -5.7842    0.2566    0.8171 H   0  0  0  0  0  0  0  0  0  0  0  0
   -3.7059    1.3648    0.1661 H   0  0  0  0  0  0  0  0  0  0  0  0
   -0.4498   -1.3202   -2.1050 H   0  0  0  0  0  0  0  0  0  0  0  0
    1.6543   -2.4231   -2.6726 H   0  0  0  0  0  0  0  0  0  0  0  0
  1  2  1  0
  2  3  1  0
  3  4  1  0
  4  5  2  0
  5  6  1  0
  6  7  2  0
  7  8  1  0
  8  9  2  0
  8 10  2  0
  8 11  1  0
 11 12  1  0
 12 13  2  0
 12 14  1  0
 14 15  2  0
 15 16  1  0
 16 17  2  0
 17 18  1  0
 11 19  1  0
 19 20  2  0
 20 21  1  0
 21 22  1  0
 22 23  1  0
 23 24  2  0
 23 25  1  0
 25 26  1  0
 26 27  1  0
 27 28  2  0
 28 29  1  0
 29 30  2  0
 30 31  1  0
 31 32  2  0
  7 33  1  0
 33 34  2  0
 34  4  1  0
 18 14  1  0
 32 19  1  0
 26 21  2  0
 32 27  1  0
  1 35  1  0
  1 36  1  0
  1 37  1  0
  2 38  1  0
  2 39  1  0
  5 40  1  0
  6 41  1  0
 15 42  1  0
 16 43  1  0
 17 44  1  0
 20 45  1  0
 28 46  1  0
 29 47  1  0
 30 48  1  0
 31 49  1  0
 33 50  1  0
 34 51  1  0
M  END
$$$$
