
     RDKit          3D

 50 53  0  0  0  0  0  0  0  0999 V2000
    7.8947    0.7797    2.1327 C   0  0  0  0  0  0  0  0  0  0  0  0
    7.7450    0.6347    0.6276 C   0  0  0  0  0  0  0  0  0  0  0  0
    6.8693   -0.4454    0.3029 O   0  0  0  0  0  0  0  0  0  0  0  0
    5.5199   -0.2473    0.2616 C   0  0  0  0  0  0  0  0  0  0  0  0
    4.8757    0.9738    0.4865 C   0  0  0  0  0  0  0  0  0  0  0  0
    3.4788    1.0772    0.3825 C   0  0  0  0  0  0  0  0  0  0  0  0
    2.7059   -0.0421    0.0410 C   0  0  0  0  0  0  0  0  0  0  0  0
    1.2253    0.0344   -0.0837 C   0  0  0  0  0  0  0  0  0  0  0  0
    0.5737   -0.9157    0.3296 O   0  0  0  0  0  0  0  0  0  0  0  0
    0.7475    1.1837   -0.6849 N   0  0  0  0  0  0  0  0  0  0  0  0
   -0.5963    1.4911   -0.9934 C   0  0  0  0  0  0  0  0  0  0  0  0
   -0.8433    2.7253   -1.6099 C   0  0  0  0  0  0  0  0  0  0  0  0
   -2.1412    3.0999   -1.9663 C   0  0  0  0  0  0  0  0  0  0  0  0
   -3.2075    2.2402   -1.7148 C   0  0  0  0  0  0  0  0  0  0  0  0
   -2.9775    1.0025   -1.1042 C   0  0  0  0  0  0  0  0  0  0  0  0
   -4.0976    0.0848   -0.8435 C   0  0  0  0  0  0  0  0  0  0  0  0
   -4.7347    0.1727    0.3350 C   0  0  0  0  0  0  0  0  0  0  0  0
   -5.8351   -0.7254    0.6411 C   0  0  0  0  0  0  0  0  0  0  0  0
   -6.5325   -0.6614    1.8503 C   0  0  0  0  0  0  0  0  0  0  0  0
   -7.5729   -1.5607    2.1059 C   0  0  0  0  0  0  0  0  0  0  0  0
   -7.9182   -2.5278    1.1573 C   0  0  0  0  0  0  0  0  0  0  0  0
   -7.2280   -2.5955   -0.0519 C   0  0  0  0  0  0  0  0  0  0  0  0
   -6.1980   -1.6903   -0.2951 C   0  0  0  0  0  0  0  0  0  0  0  0
   -5.5362   -1.7810   -1.5326 O   0  0  0  0  0  0  0  0  0  0  0  0
   -4.5026   -0.9132   -1.8736 C   0  0  0  0  0  0  0  0  0  0  0  0
   -3.9644   -0.9726   -2.9749 O   0  0  0  0  0  0  0  0  0  0  0  0
   -1.6718    0.6377   -0.7371 C   0  0  0  0  0  0  0  0  0  0  0  0
    3.3260   -1.2760   -0.1620 C   0  0  0  0  0  0  0  0  0  0  0  0
    4.7184   -1.3574   -0.0467 C   0  0  0  0  0  0  0  0  0  0  0  0
    5.3335   -2.6509   -0.2693 N   0  0  0  0  0  4  0  0  0  0  0  0
    5.2553   -3.1135   -1.4168 O   0  0  0  0  0  0  0  0  0  0  0  0
    5.8470   -3.2141    0.7078 O   0  0  0  0  0  1  0  0  0  0  0  0
    8.2107   -0.1690    2.5818 H   0  0  0  0  0  0  0  0  0  0  0  0
    8.6353    1.5477    2.3749 H   0  0  0  0  0  0  0  0  0  0  0  0
    6.9471    1.0537    2.6057 H   0  0  0  0  0  0  0  0  0  0  0  0
    7.4532    1.5734    0.1424 H   0  0  0  0  0  0  0  0  0  0  0  0
    8.7231    0.3738    0.2067 H   0  0  0  0  0  0  0  0  0  0  0  0
    5.4254    1.8710    0.7535 H   0  0  0  0  0  0  0  0  0  0  0  0
    3.0084    2.0351    0.5995 H   0  0  0  0  0  0  0  0  0  0  0  0
    1.4286    1.8559   -1.0110 H   0  0  0  0  0  0  0  0  0  0  0  0
   -0.0305    3.4128   -1.8275 H   0  0  0  0  0  0  0  0  0  0  0  0
   -2.3195    4.0576   -2.4501 H   0  0  0  0  0  0  0  0  0  0  0  0
   -4.2131    2.5339   -2.0090 H   0  0  0  0  0  0  0  0  0  0  0  0
   -4.4436    0.9010    1.0874 H   0  0  0  0  0  0  0  0  0  0  0  0
   -6.2738    0.0796    2.6039 H   0  0  0  0  0  0  0  0  0  0  0  0
   -8.1123   -1.5103    3.0495 H   0  0  0  0  0  0  0  0  0  0  0  0
   -8.7238   -3.2284    1.3626 H   0  0  0  0  0  0  0  0  0  0  0  0
   -7.4868   -3.3470   -0.7938 H   0  0  0  0  0  0  0  0  0  0  0  0
   -1.5199   -0.3317   -0.2718 H   0  0  0  0  0  0  0  0  0  0  0  0
    2.7334   -2.1564   -0.4060 H   0  0  0  0  0  0  0  0  0  0  0  0
  1  2  1  0
  2  3  1  0
  3  4  1  0
  4  5  2  0
  5  6  1  0
  6  7  2  0
  7  8  1  0
  8  9  2  0
  8 10  1  0
 10 11  1  0
 11 12  2  0
 12 13  1  0
 13 14  2  0
 14 15  1  0
 15 16  1  0
 16 17  2  0
 17 18  1  0
 18 19  2  0
 19 20  1  0
 20 21  2  0
 21 22  1  0
 22 23  2  0
 23 24  1  0
 24 25  1  0
 25 26  2  0
 15 27  2  0
  7 28  1  0
 28 29  2  0
 29 30  1  0
 30 31  2  0
 30 32  1  0
 29  4  1  0
 27 11  1  0
 25 16  1  0
 23 18  1  0
  1 33  1  0
  1 34  1  0
  1 35  1  0
  2 36  1  0
  2 37  1  0
  5 38  1  0
  6 39  1  0
 10 40  1  0
 12 41  1  0
 13 42  1  0
 14 43  1  0
 17 44  1  0
 19 45  1  0
 20 46  1  0
 21 47  1  0
 22 48  1  0
 27 49  1  0
 28 50  1  0
M  CHG  2  30   1  32  -1
M  END
$$$$
