
     RDKit          3D

 42 44  0  0  0  0  0  0  0  0999 V2000
   -5.1747    1.2290    0.4614 C   0  0  0  0  0  0  0  0  0  0  0  0
   -4.1488    0.9111   -0.5867 C   0  0  0  0  0  0  0  0  0  0  0  0
   -4.4653    1.0330   -1.9402 C   0  0  0  0  0  0  0  0  0  0  0  0
   -3.5171    0.7752   -2.9357 C   0  0  0  0  0  0  0  0  0  0  0  0
   -2.2228    0.3964   -2.5429 C   0  0  0  0  0  0  0  0  0  0  0  0
   -1.8702    0.2690   -1.1991 C   0  0  0  0  0  0  0  0  0  0  0  0
   -2.8465    0.5431   -0.2132 C   0  0  0  0  0  0  0  0  0  0  0  0
   -0.4987   -0.1279   -1.1585 C   0  0  0  0  0  0  0  0  0  0  0  0
    0.2481   -0.3680    0.0379 C   0  0  0  0  0  0  0  0  0  0  0  0
    1.5230    0.0039    0.2429 C   0  0  0  0  0  0  0  0  0  0  0  0
    2.2570   -0.2325    1.4901 C   0  0  0  0  0  0  0  0  0  0  0  0
    3.5992   -0.6020    1.4284 C   0  0  0  0  0  0  0  0  0  0  0  0
    4.3141   -0.8046    2.6036 C   0  0  0  0  0  0  0  0  0  0  0  0
    3.7246   -0.6290    3.8071 N   0  0  0  0  0  4  0  0  0  0  0  0
    4.4982   -0.8595    5.0389 C   0  0  0  0  0  0  0  0  0  0  0  0
    2.4267   -0.2615    3.8923 C   0  0  0  0  0  0  0  0  0  0  0  0
    1.6734   -0.0503    2.7430 C   0  0  0  0  0  0  0  0  0  0  0  0
   -0.0542   -0.2825   -2.4623 C   0  0  0  0  0  0  0  0  0  0  0  0
    1.2489   -0.7665   -3.0030 C   0  0  0  0  0  0  0  0  0  0  0  0
   -1.0986    0.0947   -3.2875 N   0  0  0  0  0  0  0  0  0  0  0  0
   -1.0429    0.1478   -4.7353 C   0  0  0  0  0  0  0  0  0  0  0  0
   -5.0001    0.6424    1.3695 H   0  0  0  0  0  0  0  0  0  0  0  0
   -6.1826    0.9870    0.1081 H   0  0  0  0  0  0  0  0  0  0  0  0
   -5.1336    2.2930    0.7142 H   0  0  0  0  0  0  0  0  0  0  0  0
   -5.4678    1.3341   -2.2401 H   0  0  0  0  0  0  0  0  0  0  0  0
   -3.7910    0.8714   -3.9815 H   0  0  0  0  0  0  0  0  0  0  0  0
   -2.5864    0.4648    0.8379 H   0  0  0  0  0  0  0  0  0  0  0  0
   -0.3039   -0.8631    0.8335 H   0  0  0  0  0  0  0  0  0  0  0  0
    2.0702    0.5141   -0.5476 H   0  0  0  0  0  0  0  0  0  0  0  0
    4.0924   -0.7454    0.4685 H   0  0  0  0  0  0  0  0  0  0  0  0
    5.3576   -1.1070    2.5907 H   0  0  0  0  0  0  0  0  0  0  0  0
    4.3686   -1.9089    5.3148 H   0  0  0  0  0  0  0  0  0  0  0  0
    4.1232   -0.2001    5.8258 H   0  0  0  0  0  0  0  0  0  0  0  0
    5.5508   -0.6335    4.8495 H   0  0  0  0  0  0  0  0  0  0  0  0
    2.0006   -0.1355    4.8837 H   0  0  0  0  0  0  0  0  0  0  0  0
    0.6361    0.2660    2.8361 H   0  0  0  0  0  0  0  0  0  0  0  0
    1.1072   -1.3781   -3.8999 H   0  0  0  0  0  0  0  0  0  0  0  0
    1.8924    0.0817   -3.2568 H   0  0  0  0  0  0  0  0  0  0  0  0
    1.7749   -1.3936   -2.2770 H   0  0  0  0  0  0  0  0  0  0  0  0
   -1.7460    0.8975   -5.1048 H   0  0  0  0  0  0  0  0  0  0  0  0
   -0.0369    0.4362   -5.0495 H   0  0  0  0  0  0  0  0  0  0  0  0
   -1.2992   -0.8422   -5.1201 H   0  0  0  0  0  0  0  0  0  0  0  0
  1  2  1  0
  2  3  2  0
  3  4  1  0
  4  5  2  0
  5  6  1  0
  6  7  2  0
  6  8  1  0
  8  9  1  0
  9 10  2  3
 10 11  1  0
 11 12  2  0
 12 13  1  0
 13 14  2  0
 14 15  1  0
 14 16  1  0
 16 17  2  0
  8 18  2  0
 18 19  1  0
 18 20  1  0
 20 21  1  0
  7  2  1  0
 17 11  1  0
 20  5  1  0
  1 22  1  0
  1 23  1  0
  1 24  1  0
  3 25  1  0
  4 26  1  0
  7 27  1  0
  9 28  1  0
 10 29  1  0
 12 30  1  0
 13 31  1  0
 15 32  1  0
 15 33  1  0
 15 34  1  0
 16 35  1  0
 17 36  1  0
 19 37  1  0
 19 38  1  0
 19 39  1  0
 21 40  1  0
 21 41  1  0
 21 42  1  0
M  CHG  1  14   1
M  END
$$$$
