
     RDKit          3D

 33 34  0  0  0  0  0  0  0  0999 V2000
   -6.3301    0.8152   -1.1254 C   0  0  0  0  0  0  0  0  0  0  0  0
   -5.1659    0.0271   -0.5524 C   0  0  0  0  0  0  0  0  0  0  0  0
   -3.9893    0.8241   -0.6794 O   0  0  0  0  0  0  0  0  0  0  0  0
   -2.8185    0.2818   -0.2281 C   0  0  0  0  0  0  0  0  0  0  0  0
   -1.6959    1.0976   -0.3972 C   0  0  0  0  0  0  0  0  0  0  0  0
   -0.4306    0.6708    0.0177 C   0  0  0  0  0  0  0  0  0  0  0  0
   -0.2782   -0.5904    0.6025 C   0  0  0  0  0  0  0  0  0  0  0  0
    1.0449   -1.1004    1.0604 C   0  0  0  0  0  0  0  0  0  0  0  0
    1.1091   -1.9715    1.9207 O   0  0  0  0  0  0  0  0  0  0  0  0
    2.1545   -0.5701    0.4429 N   0  0  0  0  0  0  0  0  0  0  0  0
    3.4638   -1.1208    0.7048 C   0  0  0  0  0  0  0  0  0  0  0  0
    4.4839   -0.1994    0.1503 C   0  0  0  0  0  0  0  0  0  0  0  0
    5.5008    0.5394    0.7187 C   0  0  0  0  0  0  0  0  0  0  0  0
    6.1349    1.2287   -0.3426 C   0  0  0  0  0  0  0  0  0  0  0  0
    5.4634    0.8725   -1.4882 C   0  0  0  0  0  0  0  0  0  0  0  0
    4.4579    0.0065   -1.2009 O   0  0  0  0  0  0  0  0  0  0  0  0
   -1.4047   -1.4004    0.7888 C   0  0  0  0  0  0  0  0  0  0  0  0
   -2.6693   -0.9680    0.3724 C   0  0  0  0  0  0  0  0  0  0  0  0
   -7.2569    0.2369   -1.0702 H   0  0  0  0  0  0  0  0  0  0  0  0
   -6.4667    1.7528   -0.5754 H   0  0  0  0  0  0  0  0  0  0  0  0
   -6.1395    1.0835   -2.1706 H   0  0  0  0  0  0  0  0  0  0  0  0
   -5.0550   -0.9077   -1.1144 H   0  0  0  0  0  0  0  0  0  0  0  0
   -5.3669   -0.1901    0.5031 H   0  0  0  0  0  0  0  0  0  0  0  0
   -1.8112    2.0802   -0.8492 H   0  0  0  0  0  0  0  0  0  0  0  0
    0.4123    1.3452   -0.1003 H   0  0  0  0  0  0  0  0  0  0  0  0
    2.0449   -0.0862   -0.4383 H   0  0  0  0  0  0  0  0  0  0  0  0
    3.5258   -2.1019    0.2227 H   0  0  0  0  0  0  0  0  0  0  0  0
    3.5943   -1.2573    1.7837 H   0  0  0  0  0  0  0  0  0  0  0  0
    5.7510    0.5737    1.7706 H   0  0  0  0  0  0  0  0  0  0  0  0
    6.9773    1.9032   -0.2811 H   0  0  0  0  0  0  0  0  0  0  0  0
    5.5731    1.1312   -2.5323 H   0  0  0  0  0  0  0  0  0  0  0  0
   -1.3012   -2.3758    1.2609 H   0  0  0  0  0  0  0  0  0  0  0  0
   -3.5120   -1.6305    0.5377 H   0  0  0  0  0  0  0  0  0  0  0  0
  1  2  1  0
  2  3  1  0
  3  4  1  0
  4  5  2  0
  5  6  1  0
  6  7  2  0
  7  8  1  0
  8  9  2  0
  8 10  1  0
 10 11  1  0
 11 12  1  0
 12 13  2  0
 13 14  1  0
 14 15  2  0
 15 16  1  0
  7 17  1  0
 17 18  2  0
 18  4  1  0
 16 12  1  0
  1 19  1  0
  1 20  1  0
  1 21  1  0
  2 22  1  0
  2 23  1  0
  5 24  1  0
  6 25  1  0
 10 26  1  0
 11 27  1  0
 11 28  1  0
 13 29  1  0
 14 30  1  0
 15 31  1  0
 17 32  1  0
 18 33  1  0
M  END
$$$$
