
     RDKit          3D

 53 55  0  0  0  0  0  0  0  0999 V2000
    9.2778   -0.3097   -0.1732 C   0  0  0  0  0  0  0  0  0  0  0  0
    8.0556   -0.8936   -0.6114 O   0  0  0  0  0  0  0  0  0  0  0  0
    6.9352   -0.6137    0.1232 C   0  0  0  0  0  0  0  0  0  0  0  0
    5.7739   -1.2585   -0.3176 C   0  0  0  0  0  0  0  0  0  0  0  0
    4.5561   -1.0626    0.3375 C   0  0  0  0  0  0  0  0  0  0  0  0
    4.5033   -0.2053    1.4376 C   0  0  0  0  0  0  0  0  0  0  0  0
    2.9540    0.0455    2.2648 S   0  0  0  0  0  6  0  0  0  0  0  0
    3.1810    0.8919    3.4148 O   0  0  0  0  0  0  0  0  0  0  0  0
    2.3145   -1.2435    2.3994 O   0  0  0  0  0  0  0  0  0  0  0  0
    2.0829    0.9391    1.1310 N   0  0  0  0  0  0  0  0  0  0  0  0
    2.5853    2.2738    0.7795 C   0  0  0  0  0  0  0  0  0  0  0  0
    1.3554    2.9104    0.1759 C   0  0  0  0  0  0  0  0  0  0  0  0
    0.2759    2.4321    0.9823 O   0  0  0  0  0  0  0  0  0  0  0  0
    0.6592    1.1276    1.4830 C   0  0  0  0  0  0  0  0  0  0  0  0
   -0.2233    0.0631    0.8049 C   0  0  0  0  0  0  0  0  0  0  0  0
   -1.6421    0.3127    0.9977 N   0  0  0  0  0  0  0  0  0  0  0  0
   -2.5859   -0.6456    0.7121 C   0  0  0  0  0  0  0  0  0  0  0  0
   -2.3704   -1.8242    0.4630 O   0  0  0  0  0  0  0  0  0  0  0  0
   -4.0338   -0.1072    0.6870 C   0  0  0  0  0  0  0  0  0  0  0  0
   -4.2422    1.0933    0.7831 O   0  0  0  0  0  0  0  0  0  0  0  0
   -4.9759   -1.0947    0.5263 N   0  0  0  0  0  0  0  0  0  0  0  0
   -6.3780   -0.8153    0.3339 C   0  0  0  0  0  0  0  0  0  0  0  0
   -6.8380   -0.8789   -1.1079 C   0  0  0  0  0  0  0  0  0  0  0  0
   -5.9467   -1.1312   -2.1676 C   0  0  0  0  0  0  0  0  0  0  0  0
   -6.3947   -1.1854   -3.4912 C   0  0  0  0  0  0  0  0  0  0  0  0
   -7.7420   -0.9933   -3.7843 C   0  0  0  0  0  0  0  0  0  0  0  0
   -8.6415   -0.7387   -2.7528 C   0  0  0  0  0  0  0  0  0  0  0  0
   -8.1957   -0.6810   -1.4272 C   0  0  0  0  0  0  0  0  0  0  0  0
   -9.3797   -0.3678   -0.2061 Cl  0  0  0  0  0  0  0  0  0  0  0  0
    5.6553    0.4400    1.8934 C   0  0  0  0  0  0  0  0  0  0  0  0
    6.8714    0.2351    1.2317 C   0  0  0  0  0  0  0  0  0  0  0  0
    9.2340    0.7829   -0.2237 H   0  0  0  0  0  0  0  0  0  0  0  0
   10.0686   -0.6424   -0.8517 H   0  0  0  0  0  0  0  0  0  0  0  0
    9.5377   -0.6485    0.8361 H   0  0  0  0  0  0  0  0  0  0  0  0
    5.8225   -1.9232   -1.1783 H   0  0  0  0  0  0  0  0  0  0  0  0
    3.6634   -1.5774   -0.0102 H   0  0  0  0  0  0  0  0  0  0  0  0
    2.8909    2.8251    1.6752 H   0  0  0  0  0  0  0  0  0  0  0  0
    3.4117    2.2348    0.0664 H   0  0  0  0  0  0  0  0  0  0  0  0
    1.3856    4.0034    0.1922 H   0  0  0  0  0  0  0  0  0  0  0  0
    1.1899    2.5720   -0.8541 H   0  0  0  0  0  0  0  0  0  0  0  0
    0.4901    1.1465    2.5650 H   0  0  0  0  0  0  0  0  0  0  0  0
    0.0124   -0.9426    1.1687 H   0  0  0  0  0  0  0  0  0  0  0  0
   -0.0565    0.0667   -0.2801 H   0  0  0  0  0  0  0  0  0  0  0  0
   -1.9721    1.2779    0.9879 H   0  0  0  0  0  0  0  0  0  0  0  0
   -4.6285   -2.0426    0.4091 H   0  0  0  0  0  0  0  0  0  0  0  0
   -6.6003    0.1776    0.7444 H   0  0  0  0  0  0  0  0  0  0  0  0
   -6.9144   -1.5740    0.9152 H   0  0  0  0  0  0  0  0  0  0  0  0
   -4.8831   -1.2940   -1.9847 H   0  0  0  0  0  0  0  0  0  0  0  0
   -5.6841   -1.3809   -4.2939 H   0  0  0  0  0  0  0  0  0  0  0  0
   -8.0899   -1.0377   -4.8136 H   0  0  0  0  0  0  0  0  0  0  0  0
   -9.6947   -0.5871   -2.9872 H   0  0  0  0  0  0  0  0  0  0  0  0
    5.6205    1.0974    2.7592 H   0  0  0  0  0  0  0  0  0  0  0  0
    7.7492    0.7515    1.6075 H   0  0  0  0  0  0  0  0  0  0  0  0
  1  2  1  0
  2  3  1  0
  3  4  2  0
  4  5  1  0
  5  6  2  0
  6  7  1  0
  7  8  2  0
  7  9  2  0
  7 10  1  0
 10 11  1  0
 11 12  1  0
 12 13  1  0
 13 14  1  0
 14 15  1  0
 15 16  1  0
 16 17  1  0
 17 18  2  0
 17 19  1  0
 19 20  2  0
 19 21  1  0
 21 22  1  0
 22 23  1  0
 23 24  2  0
 24 25  1  0
 25 26  2  0
 26 27  1  0
 27 28  2  0
 28 29  1  0
  6 30  1  0
 30 31  2  0
 31  3  1  0
 14 10  1  0
 28 23  1  0
  1 32  1  0
  1 33  1  0
  1 34  1  0
  4 35  1  0
  5 36  1  0
 11 37  1  0
 11 38  1  0
 12 39  1  0
 12 40  1  0
 14 41  1  0
 15 42  1  0
 15 43  1  0
 16 44  1  0
 21 45  1  0
 22 46  1  0
 22 47  1  0
 24 48  1  0
 25 49  1  0
 26 50  1  0
 27 51  1  0
 30 52  1  0
 31 53  1  0
M  END
$$$$
