
     RDKit          3D

 50 53  0  0  0  0  0  0  0  0999 V2000
   -5.2219   -1.0684    5.3343 C   0  0  0  0  0  0  0  0  0  0  0  0
   -4.4396   -0.8891    4.0671 C   0  0  0  0  0  0  0  0  0  0  0  0
   -4.9507   -1.3497    2.8480 C   0  0  0  0  0  0  0  0  0  0  0  0
   -4.2072   -1.2270    1.6661 C   0  0  0  0  0  0  0  0  0  0  0  0
   -2.9370   -0.6367    1.6888 C   0  0  0  0  0  0  0  0  0  0  0  0
   -2.1302   -0.5130    0.5162 N   0  0  0  0  0  0  0  0  0  0  0  0
   -0.7906   -0.3124    0.6661 N   0  0  0  0  0  0  0  0  0  0  0  0
   -0.2769   -0.5064   -0.5508 C   0  0  0  0  0  0  0  0  0  0  0  0
    1.1355   -0.4956   -0.9026 C   0  0  0  0  0  0  0  0  0  0  0  0
    2.0485   -0.3097   -0.0969 O   0  0  0  0  0  0  0  0  0  0  0  0
    1.3563   -0.6987   -2.2795 N   0  0  0  0  0  0  0  0  0  0  0  0
    2.7311   -0.7725   -2.7614 C   0  0  0  0  0  0  0  0  0  0  0  0
    3.3366    0.6225   -2.8959 C   0  0  0  0  0  0  0  0  0  0  0  0
    3.3853    1.2217   -3.9685 O   0  0  0  0  0  0  0  0  0  0  0  0
    3.8160    1.1471   -1.7116 N   0  0  0  0  0  0  0  0  0  0  0  0
    4.3249    2.4950   -1.6364 C   0  0  0  0  0  0  0  0  0  0  0  0
    5.3712    2.5477   -0.5680 C   0  0  0  0  0  0  0  0  0  0  0  0
    5.1980    2.6868    0.7982 C   0  0  0  0  0  0  0  0  0  0  0  0
    6.4389    2.7021    1.5019 C   0  0  0  0  0  0  0  0  0  0  0  0
    7.5194    2.5707    0.6516 C   0  0  0  0  0  0  0  0  0  0  0  0
    7.0353    2.4334   -0.9820 S   0  0  0  0  0  0  0  0  0  0  0  0
    0.3527   -0.9042   -3.2358 N   0  0  0  0  0  0  0  0  0  0  0  0
   -0.9075   -0.9041   -2.8984 C   0  0  0  0  0  0  0  0  0  0  0  0
   -1.9368   -1.1302   -3.9693 C   0  0  0  0  0  0  0  0  0  0  0  0
   -1.2707   -0.6966   -1.5169 C   0  0  0  0  0  0  0  0  0  0  0  0
   -2.4738   -0.5833   -0.8402 C   0  0  0  0  0  0  0  0  0  0  0  0
   -3.8589   -0.4858   -1.3692 C   0  0  0  0  0  0  0  0  0  0  0  0
   -2.4145   -0.2013    2.9205 C   0  0  0  0  0  0  0  0  0  0  0  0
   -3.1582   -0.3262    4.0976 C   0  0  0  0  0  0  0  0  0  0  0  0
   -5.0470   -2.0696    5.7426 H   0  0  0  0  0  0  0  0  0  0  0  0
   -4.9293   -0.3266    6.0860 H   0  0  0  0  0  0  0  0  0  0  0  0
   -6.2966   -0.9399    5.1482 H   0  0  0  0  0  0  0  0  0  0  0  0
   -5.9305   -1.8265    2.8102 H   0  0  0  0  0  0  0  0  0  0  0  0
   -4.6354   -1.6552    0.7664 H   0  0  0  0  0  0  0  0  0  0  0  0
    2.7567   -1.2684   -3.7385 H   0  0  0  0  0  0  0  0  0  0  0  0
    3.3358   -1.3676   -2.0647 H   0  0  0  0  0  0  0  0  0  0  0  0
    3.5226    0.7022   -0.8418 H   0  0  0  0  0  0  0  0  0  0  0  0
    3.4842    3.1485   -1.3749 H   0  0  0  0  0  0  0  0  0  0  0  0
    4.7139    2.8181   -2.6093 H   0  0  0  0  0  0  0  0  0  0  0  0
    4.2229    2.7670    1.2751 H   0  0  0  0  0  0  0  0  0  0  0  0
    6.5372    2.7966    2.5794 H   0  0  0  0  0  0  0  0  0  0  0  0
    8.5703    2.5495    0.9117 H   0  0  0  0  0  0  0  0  0  0  0  0
   -2.4445   -0.1877   -4.1910 H   0  0  0  0  0  0  0  0  0  0  0  0
   -1.4619   -1.4967   -4.8854 H   0  0  0  0  0  0  0  0  0  0  0  0
   -2.6683   -1.8734   -3.6365 H   0  0  0  0  0  0  0  0  0  0  0  0
   -4.5083    0.1005   -0.7142 H   0  0  0  0  0  0  0  0  0  0  0  0
   -4.2888   -1.4807   -1.5242 H   0  0  0  0  0  0  0  0  0  0  0  0
   -3.8648    0.0385   -2.3314 H   0  0  0  0  0  0  0  0  0  0  0  0
   -1.4201    0.2420    2.9827 H   0  0  0  0  0  0  0  0  0  0  0  0
   -2.7231    0.0135    5.0364 H   0  0  0  0  0  0  0  0  0  0  0  0
  1  2  1  0
  2  3  2  0
  3  4  1  0
  4  5  2  0
  5  6  1  0
  6  7  1  0
  7  8  2  0
  8  9  1  0
  9 10  2  0
  9 11  1  0
 11 12  1  0
 12 13  1  0
 13 14  2  0
 13 15  1  0
 15 16  1  0
 16 17  1  0
 17 18  2  0
 18 19  1  0
 19 20  2  0
 20 21  1  0
 11 22  1  0
 22 23  2  0
 23 24  1  0
 23 25  1  0
 25 26  2  0
 26 27  1  0
  5 28  1  0
 28 29  2  0
 29  2  1  0
 26  6  1  0
 25  8  1  0
 21 17  1  0
  1 30  1  0
  1 31  1  0
  1 32  1  0
  3 33  1  0
  4 34  1  0
 12 35  1  0
 12 36  1  0
 15 37  1  0
 16 38  1  0
 16 39  1  0
 18 40  1  0
 19 41  1  0
 20 42  1  0
 24 43  1  0
 24 44  1  0
 24 45  1  0
 27 46  1  0
 27 47  1  0
 27 48  1  0
 28 49  1  0
 29 50  1  0
M  END
$$$$
