
     RDKit          3D

 56 59  0  0  0  0  0  0  0  0999 V2000
    4.7868    5.3894    0.5024 C   0  0  0  0  0  0  0  0  0  0  0  0
    4.2985    4.0904   -0.1136 C   0  0  0  0  0  0  0  0  0  0  0  0
    3.8994    3.2240    0.9466 O   0  0  0  0  0  0  0  0  0  0  0  0
    3.4166    1.9935    0.5956 C   0  0  0  0  0  0  0  0  0  0  0  0
    3.0265    1.1924    1.6713 C   0  0  0  0  0  0  0  0  0  0  0  0
    2.5141   -0.0897    1.4581 C   0  0  0  0  0  0  0  0  0  0  0  0
    2.3933   -0.5878    0.1578 C   0  0  0  0  0  0  0  0  0  0  0  0
    1.8550   -1.9216   -0.0718 C   0  0  0  0  0  0  0  0  0  0  0  0
    0.5484   -2.3261   -0.3113 C   0  0  0  0  0  0  0  0  0  0  0  0
   -0.6572   -1.5069   -0.4170 C   0  0  0  0  0  0  0  0  0  0  0  0
   -0.6316   -0.2810   -0.3768 O   0  0  0  0  0  0  0  0  0  0  0  0
   -1.8097   -2.2805   -0.5803 N   0  0  0  0  0  0  0  0  0  0  0  0
   -2.9713   -1.7272   -1.0530 N   0  0  0  0  0  0  0  0  0  0  0  0
   -3.6345   -0.9180   -0.2710 C   0  0  0  0  0  0  0  0  0  0  0  0
   -3.2966   -0.6672    1.1860 C   0  0  0  0  0  0  0  0  0  0  0  0
   -4.8561   -0.2542   -0.8229 C   0  0  0  0  0  0  0  0  0  0  0  0
   -5.6827   -1.0226   -1.6589 C   0  0  0  0  0  0  0  0  0  0  0  0
   -6.8420   -0.4733   -2.2022 C   0  0  0  0  0  0  0  0  0  0  0  0
   -7.1786    0.8463   -1.9170 C   0  0  0  0  0  0  0  0  0  0  0  0
   -6.3524    1.6231   -1.0986 C   0  0  0  0  0  0  0  0  0  0  0  0
   -5.1784    1.0880   -0.5525 C   0  0  0  0  0  0  0  0  0  0  0  0
   -4.3120    1.7990    0.2332 O   0  0  0  0  0  0  0  0  0  0  0  0
   -4.4613    3.2123    0.2712 C   0  0  0  0  0  0  0  0  0  0  0  0
    0.5138   -3.6894   -0.4512 N   0  0  0  0  0  0  0  0  0  0  0  0
    1.7426   -4.1524   -0.3160 N   0  0  0  0  0  0  0  0  0  0  0  0
    2.5951   -3.1067   -0.0932 N   0  0  0  0  0  0  0  0  0  0  0  0
    3.9866   -3.3159    0.0855 C   0  0  0  0  0  0  0  0  0  0  0  0
    4.8148   -2.3024    0.3386 N   0  0  0  0  0  0  0  0  0  0  0  0
    6.0646   -2.9049    0.4628 O   0  0  0  0  0  0  0  0  0  0  0  0
    5.9808   -4.2819    0.2846 N   0  0  0  0  0  0  0  0  0  0  0  0
    4.6948   -4.5321    0.0423 C   0  0  0  0  0  0  0  0  0  0  0  0
    4.1942   -5.7586   -0.2000 N   0  0  0  0  0  0  0  0  0  0  0  0
    2.7757    0.2160   -0.9212 C   0  0  0  0  0  0  0  0  0  0  0  0
    3.2878    1.5007   -0.7029 C   0  0  0  0  0  0  0  0  0  0  0  0
    5.1093    6.0911   -0.2717 H   0  0  0  0  0  0  0  0  0  0  0  0
    3.9933    5.8567    1.0948 H   0  0  0  0  0  0  0  0  0  0  0  0
    5.6245    5.2028    1.1824 H   0  0  0  0  0  0  0  0  0  0  0  0
    3.4483    4.3046   -0.7715 H   0  0  0  0  0  0  0  0  0  0  0  0
    5.1153    3.6378   -0.6878 H   0  0  0  0  0  0  0  0  0  0  0  0
    3.1195    1.5729    2.6856 H   0  0  0  0  0  0  0  0  0  0  0  0
    2.2129   -0.6866    2.3149 H   0  0  0  0  0  0  0  0  0  0  0  0
   -1.6279   -3.2160   -0.9388 H   0  0  0  0  0  0  0  0  0  0  0  0
   -2.5374    0.1132    1.2719 H   0  0  0  0  0  0  0  0  0  0  0  0
   -4.1863   -0.3619    1.7450 H   0  0  0  0  0  0  0  0  0  0  0  0
   -2.9262   -1.5841    1.6534 H   0  0  0  0  0  0  0  0  0  0  0  0
   -5.4247   -2.0551   -1.8844 H   0  0  0  0  0  0  0  0  0  0  0  0
   -7.4795   -1.0744   -2.8454 H   0  0  0  0  0  0  0  0  0  0  0  0
   -8.0846    1.2771   -2.3366 H   0  0  0  0  0  0  0  0  0  0  0  0
   -6.6555    2.6473   -0.9056 H   0  0  0  0  0  0  0  0  0  0  0  0
   -4.4398    3.6443   -0.7351 H   0  0  0  0  0  0  0  0  0  0  0  0
   -3.6132    3.6225    0.8279 H   0  0  0  0  0  0  0  0  0  0  0  0
   -5.3751    3.4937    0.8040 H   0  0  0  0  0  0  0  0  0  0  0  0
    3.1909   -5.9329   -0.1882 H   0  0  0  0  0  0  0  0  0  0  0  0
    4.7667   -6.5724   -0.0006 H   0  0  0  0  0  0  0  0  0  0  0  0
    2.6743   -0.1440   -1.9422 H   0  0  0  0  0  0  0  0  0  0  0  0
    3.5706    2.0886   -1.5691 H   0  0  0  0  0  0  0  0  0  0  0  0
  1  2  1  0
  2  3  1  0
  3  4  1  0
  4  5  2  0
  5  6  1  0
  6  7  2  0
  7  8  1  0
  8  9  2  0
  9 10  1  0
 10 11  2  0
 10 12  1  0
 12 13  1  0
 13 14  2  3
 14 15  1  0
 14 16  1  0
 16 17  2  0
 17 18  1  0
 18 19  2  0
 19 20  1  0
 20 21  2  0
 21 22  1  0
 22 23  1  0
  9 24  1  0
 24 25  2  0
 25 26  1  0
 26 27  1  0
 27 28  2  0
 28 29  1  0
 29 30  1  0
 30 31  2  0
 31 32  1  0
  7 33  1  0
 33 34  2  0
 34  4  1  0
 26  8  1  0
 31 27  1  0
 21 16  1  0
  1 35  1  0
  1 36  1  0
  1 37  1  0
  2 38  1  0
  2 39  1  0
  5 40  1  0
  6 41  1  0
 12 42  1  0
 15 43  1  0
 15 44  1  0
 15 45  1  0
 17 46  1  0
 18 47  1  0
 19 48  1  0
 20 49  1  0
 23 50  1  0
 23 51  1  0
 23 52  1  0
 32 53  1  0
 32 54  1  0
 33 55  1  0
 34 56  1  0
M  END
$$$$
