
     RDKit          3D

 36 38  0  0  0  0  0  0  0  0999 V2000
    5.8718    0.8422    1.3139 C   0  0  0  0  0  0  0  0  0  0  0  0
    5.4859    0.4048   -0.0848 C   0  0  0  0  0  0  0  0  0  0  0  0
    4.0157    0.2339   -0.1582 N   0  0  0  0  0  4  0  0  0  0  0  0
    3.2359    1.2793   -0.5174 C   0  0  0  0  0  0  0  0  0  0  0  0
    1.8551    1.1394   -0.5977 C   0  0  0  0  0  0  0  0  0  0  0  0
    1.2640   -0.0855   -0.2935 C   0  0  0  0  0  0  0  0  0  0  0  0
   -0.1918   -0.2228   -0.4094 C   0  0  0  0  0  0  0  0  0  0  0  0
   -0.9545   -0.9226    0.4472 C   0  0  0  0  0  0  0  0  0  0  0  0
   -2.3711   -1.0789    0.3508 C   0  0  0  0  0  0  0  0  0  0  0  0
   -3.0149   -2.2308    0.7492 C   0  0  0  0  0  0  0  0  0  0  0  0
   -4.3544   -2.0696    0.5125 N   0  0  0  0  0  0  0  0  0  0  0  0
   -4.5990   -0.8193   -0.0071 C   0  0  0  0  0  0  0  0  0  0  0  0
   -5.8125   -0.2284   -0.3806 C   0  0  0  0  0  0  0  0  0  0  0  0
   -5.7763    1.0808   -0.8657 C   0  0  0  0  0  0  0  0  0  0  0  0
   -4.5733    1.7725   -0.9661 C   0  0  0  0  0  0  0  0  0  0  0  0
   -3.3684    1.1662   -0.5897 C   0  0  0  0  0  0  0  0  0  0  0  0
   -3.3692   -0.1626   -0.1103 C   0  0  0  0  0  0  0  0  0  0  0  0
    2.0886   -1.1527    0.0586 C   0  0  0  0  0  0  0  0  0  0  0  0
    3.4651   -0.9692    0.1239 C   0  0  0  0  0  0  0  0  0  0  0  0
    5.5660    0.0993    2.0576 H   0  0  0  0  0  0  0  0  0  0  0  0
    5.3933    1.7913    1.5760 H   0  0  0  0  0  0  0  0  0  0  0  0
    6.9556    0.9734    1.3862 H   0  0  0  0  0  0  0  0  0  0  0  0
    5.9539   -0.5489   -0.3509 H   0  0  0  0  0  0  0  0  0  0  0  0
    5.7808    1.1474   -0.8337 H   0  0  0  0  0  0  0  0  0  0  0  0
    3.7263    2.2236   -0.7368 H   0  0  0  0  0  0  0  0  0  0  0  0
    1.2458    1.9937   -0.8883 H   0  0  0  0  0  0  0  0  0  0  0  0
   -0.6512    0.2841   -1.2555 H   0  0  0  0  0  0  0  0  0  0  0  0
   -0.4857   -1.4431    1.2798 H   0  0  0  0  0  0  0  0  0  0  0  0
   -2.6440   -3.1580    1.1651 H   0  0  0  0  0  0  0  0  0  0  0  0
   -5.0694   -2.7593    0.7008 H   0  0  0  0  0  0  0  0  0  0  0  0
   -6.7546   -0.7606   -0.2935 H   0  0  0  0  0  0  0  0  0  0  0  0
   -6.7036    1.5674   -1.1608 H   0  0  0  0  0  0  0  0  0  0  0  0
   -4.5702    2.7953   -1.3351 H   0  0  0  0  0  0  0  0  0  0  0  0
   -2.4457    1.7317   -0.6595 H   0  0  0  0  0  0  0  0  0  0  0  0
    1.6714   -2.1348    0.2730 H   0  0  0  0  0  0  0  0  0  0  0  0
    4.1349   -1.7791    0.3994 H   0  0  0  0  0  0  0  0  0  0  0  0
  1  2  1  0
  2  3  1  0
  3  4  2  0
  4  5  1  0
  5  6  2  0
  6  7  1  0
  7  8  2  3
  8  9  1  0
  9 10  2  0
 10 11  1  0
 11 12  1  0
 12 13  2  0
 13 14  1  0
 14 15  2  0
 15 16  1  0
 16 17  2  0
  6 18  1  0
 18 19  2  0
 19  3  1  0
 17  9  1  0
 17 12  1  0
  1 20  1  0
  1 21  1  0
  1 22  1  0
  2 23  1  0
  2 24  1  0
  4 25  1  0
  5 26  1  0
  7 27  1  0
  8 28  1  0
 10 29  1  0
 11 30  1  0
 13 31  1  0
 14 32  1  0
 15 33  1  0
 16 34  1  0
 18 35  1  0
 19 36  1  0
M  CHG  1   3   1
M  END
$$$$
