
     RDKit          3D

 40 42  0  0  0  0  0  0  0  0999 V2000
   -2.2136    4.0098    3.4215 C   0  0  0  0  0  0  0  0  0  0  0  0
   -1.4785    3.1959    2.5148 O   0  0  0  0  0  0  0  0  0  0  0  0
   -1.7910    1.8624    2.4891 C   0  0  0  0  0  0  0  0  0  0  0  0
   -2.7740    1.2379    3.2503 C   0  0  0  0  0  0  0  0  0  0  0  0
   -2.9993   -0.1407    3.1474 C   0  0  0  0  0  0  0  0  0  0  0  0
   -2.2138   -0.8804    2.2497 C   0  0  0  0  0  0  0  0  0  0  0  0
   -1.2302   -0.2818    1.4551 C   0  0  0  0  0  0  0  0  0  0  0  0
   -1.0177    1.1077    1.5972 C   0  0  0  0  0  0  0  0  0  0  0  0
   -0.6444   -1.3181    0.6627 C   0  0  0  0  0  0  0  0  0  0  0  0
    0.3932   -1.2451   -0.3166 C   0  0  0  0  0  0  0  0  0  0  0  0
    0.5844   -0.2185   -1.1621 C   0  0  0  0  0  0  0  0  0  0  0  0
    1.6592   -0.1534   -2.1575 C   0  0  0  0  0  0  0  0  0  0  0  0
    2.2863    1.0689   -2.3936 C   0  0  0  0  0  0  0  0  0  0  0  0
    3.2907    1.1566   -3.3505 C   0  0  0  0  0  0  0  0  0  0  0  0
    3.6539    0.0705   -4.0681 N   0  0  0  0  0  4  0  0  0  0  0  0
    4.7279    0.1850   -5.0691 C   0  0  0  0  0  0  0  0  0  0  0  0
    3.0541   -1.1234   -3.8637 C   0  0  0  0  0  0  0  0  0  0  0  0
    2.0463   -1.2574   -2.9152 C   0  0  0  0  0  0  0  0  0  0  0  0
   -1.2483   -2.5051    1.0168 C   0  0  0  0  0  0  0  0  0  0  0  0
   -2.2028   -2.2288    1.9603 N   0  0  0  0  0  0  0  0  0  0  0  0
   -3.0665   -3.2145    2.5728 C   0  0  0  0  0  0  0  0  0  0  0  0
   -3.2786    4.0201    3.1675 H   0  0  0  0  0  0  0  0  0  0  0  0
   -1.8397    5.0341    3.3287 H   0  0  0  0  0  0  0  0  0  0  0  0
   -2.0553    3.6902    4.4568 H   0  0  0  0  0  0  0  0  0  0  0  0
   -3.3907    1.7939    3.9496 H   0  0  0  0  0  0  0  0  0  0  0  0
   -3.7628   -0.6157    3.7561 H   0  0  0  0  0  0  0  0  0  0  0  0
   -0.2431    1.6064    1.0245 H   0  0  0  0  0  0  0  0  0  0  0  0
    1.0503   -2.1107   -0.3641 H   0  0  0  0  0  0  0  0  0  0  0  0
   -0.0830    0.6407   -1.1295 H   0  0  0  0  0  0  0  0  0  0  0  0
    2.0059    1.9560   -1.8275 H   0  0  0  0  0  0  0  0  0  0  0  0
    3.8089    2.0908   -3.5485 H   0  0  0  0  0  0  0  0  0  0  0  0
    5.6724   -0.0228   -4.5604 H   0  0  0  0  0  0  0  0  0  0  0  0
    4.5499   -0.5366   -5.8706 H   0  0  0  0  0  0  0  0  0  0  0  0
    4.7235    1.1956   -5.4856 H   0  0  0  0  0  0  0  0  0  0  0  0
    3.3847   -1.9651   -4.4659 H   0  0  0  0  0  0  0  0  0  0  0  0
    1.5635   -2.2237   -2.7829 H   0  0  0  0  0  0  0  0  0  0  0  0
   -1.0905   -3.5172    0.6671 H   0  0  0  0  0  0  0  0  0  0  0  0
   -2.8466   -4.2020    2.1591 H   0  0  0  0  0  0  0  0  0  0  0  0
   -4.1039   -2.9463    2.3573 H   0  0  0  0  0  0  0  0  0  0  0  0
   -2.8810   -3.2150    3.6499 H   0  0  0  0  0  0  0  0  0  0  0  0
  1  2  1  0
  2  3  1  0
  3  4  2  0
  4  5  1  0
  5  6  2  0
  6  7  1  0
  7  8  2  0
  7  9  1  0
  9 10  1  0
 10 11  2  3
 11 12  1  0
 12 13  2  0
 13 14  1  0
 14 15  2  0
 15 16  1  0
 15 17  1  0
 17 18  2  0
  9 19  2  0
 19 20  1  0
 20 21  1  0
  8  3  1  0
 18 12  1  0
 20  6  1  0
  1 22  1  0
  1 23  1  0
  1 24  1  0
  4 25  1  0
  5 26  1  0
  8 27  1  0
 10 28  1  0
 11 29  1  0
 13 30  1  0
 14 31  1  0
 16 32  1  0
 16 33  1  0
 16 34  1  0
 17 35  1  0
 18 36  1  0
 19 37  1  0
 21 38  1  0
 21 39  1  0
 21 40  1  0
M  CHG  1  15   1
M  END
$$$$
