
     RDKit          3D

 46 48  0  0  0  0  0  0  0  0999 V2000
   -3.3944    1.5676    1.5178 O   0  0  0  0  0  0  0  0  0  0  0  0
   -3.1339    0.7390    0.6546 C   0  0  0  0  0  0  0  0  0  0  0  0
   -4.0161   -0.1593    0.0795 N   0  0  0  0  0  0  0  0  0  0  0  0
   -5.4075   -0.2477    0.3091 C   0  0  0  0  0  0  0  0  0  0  0  0
   -6.0932   -1.2966   -0.3154 C   0  0  0  0  0  0  0  0  0  0  0  0
   -7.4680   -1.4406   -0.1356 C   0  0  0  0  0  0  0  0  0  0  0  0
   -8.1044   -2.4523   -0.7397 F   0  0  0  0  0  0  0  0  0  0  0  0
   -8.1853   -0.5580    0.6543 C   0  0  0  0  0  0  0  0  0  0  0  0
   -7.5040    0.4817    1.2677 C   0  0  0  0  0  0  0  0  0  0  0  0
   -8.1827    1.3469    2.0326 F   0  0  0  0  0  0  0  0  0  0  0  0
   -6.1284    0.6468    1.1032 C   0  0  0  0  0  0  0  0  0  0  0  0
   -1.7215    0.6357    0.1868 C   0  0  0  0  0  0  0  0  0  0  0  0
   -0.6956    0.9362    1.0939 C   0  0  0  0  0  0  0  0  0  0  0  0
    0.6488    0.8589    0.7066 C   0  0  0  0  0  0  0  0  0  0  0  0
    1.0029    0.5000   -0.6007 C   0  0  0  0  0  0  0  0  0  0  0  0
    2.3648    0.3560   -0.9334 N   0  0  0  0  0  0  0  0  0  0  0  0
    2.8622   -1.0214   -0.7452 C   0  0  0  0  0  0  0  0  0  0  0  0
    4.3478   -1.1165   -1.1222 C   0  0  0  0  0  0  0  0  0  0  0  0
    5.2447   -0.3460   -0.1803 C   0  0  0  0  0  0  0  0  0  0  0  0
    5.7551    0.9054   -0.5520 C   0  0  0  0  0  0  0  0  0  0  0  0
    6.5587    1.6308    0.3279 C   0  0  0  0  0  0  0  0  0  0  0  0
    6.8603    1.1134    1.5859 C   0  0  0  0  0  0  0  0  0  0  0  0
    6.3605   -0.1310    1.9646 C   0  0  0  0  0  0  0  0  0  0  0  0
    5.5563   -0.8586    1.0863 C   0  0  0  0  0  0  0  0  0  0  0  0
   -0.0447    0.2123   -1.4893 C   0  0  0  0  0  0  0  0  0  0  0  0
    0.2472   -0.1491   -2.8582 N   0  0  0  0  0  4  0  0  0  0  0  0
    0.1904   -1.3568   -3.1343 O   0  0  0  0  0  0  0  0  0  0  0  0
    0.4454    0.7714   -3.6616 O   0  0  0  0  0  1  0  0  0  0  0  0
   -1.3977    0.2830   -1.1245 C   0  0  0  0  0  0  0  0  0  0  0  0
   -3.6269   -0.8789   -0.5162 H   0  0  0  0  0  0  0  0  0  0  0  0
   -5.5816   -2.0174   -0.9457 H   0  0  0  0  0  0  0  0  0  0  0  0
   -9.2536   -0.6751    0.7895 H   0  0  0  0  0  0  0  0  0  0  0  0
   -5.6620    1.4861    1.6072 H   0  0  0  0  0  0  0  0  0  0  0  0
   -0.9403    1.2298    2.1145 H   0  0  0  0  0  0  0  0  0  0  0  0
    1.4186    1.0818    1.4433 H   0  0  0  0  0  0  0  0  0  0  0  0
    2.9306    0.9889   -0.3607 H   0  0  0  0  0  0  0  0  0  0  0  0
    2.7149   -1.3370    0.2956 H   0  0  0  0  0  0  0  0  0  0  0  0
    2.3017   -1.7120   -1.3854 H   0  0  0  0  0  0  0  0  0  0  0  0
    4.4965   -0.7640   -2.1507 H   0  0  0  0  0  0  0  0  0  0  0  0
    4.6574   -2.1693   -1.1135 H   0  0  0  0  0  0  0  0  0  0  0  0
    5.5270    1.3241   -1.5306 H   0  0  0  0  0  0  0  0  0  0  0  0
    6.9515    2.5997    0.0305 H   0  0  0  0  0  0  0  0  0  0  0  0
    7.4888    1.6780    2.2696 H   0  0  0  0  0  0  0  0  0  0  0  0
    6.5999   -0.5361    2.9445 H   0  0  0  0  0  0  0  0  0  0  0  0
    5.1769   -1.8293    1.3982 H   0  0  0  0  0  0  0  0  0  0  0  0
   -2.1671    0.0953   -1.8686 H   0  0  0  0  0  0  0  0  0  0  0  0
  1  2  2  0
  2  3  1  0
  3  4  1  0
  4  5  2  0
  5  6  1  0
  6  7  1  0
  6  8  2  0
  8  9  1  0
  9 10  1  0
  9 11  2  0
  2 12  1  0
 12 13  2  0
 13 14  1  0
 14 15  2  0
 15 16  1  0
 16 17  1  0
 17 18  1  0
 18 19  1  0
 19 20  2  0
 20 21  1  0
 21 22  2  0
 22 23  1  0
 23 24  2  0
 15 25  1  0
 25 26  1  0
 26 27  2  0
 26 28  1  0
 25 29  2  0
 11  4  1  0
 29 12  1  0
 24 19  1  0
  3 30  1  0
  5 31  1  0
  8 32  1  0
 11 33  1  0
 13 34  1  0
 14 35  1  0
 16 36  1  0
 17 37  1  0
 17 38  1  0
 18 39  1  0
 18 40  1  0
 20 41  1  0
 21 42  1  0
 22 43  1  0
 23 44  1  0
 24 45  1  0
 29 46  1  0
M  CHG  2  26   1  28  -1
M  END
$$$$
