
     RDKit          3D

 59 64  0  0  0  0  0  0  0  0999 V2000
    1.2940   -2.1651   -1.6041 C   0  0  0  0  0  0  0  0  0  0  0  0
    1.4986   -1.0087   -0.7943 O   0  0  0  0  0  0  0  0  0  0  0  0
    2.6564   -0.2853   -1.0111 C   0  0  0  0  0  0  0  0  0  0  0  0
    3.7361   -0.7401   -1.7884 C   0  0  0  0  0  0  0  0  0  0  0  0
    4.8732    0.0843   -1.9184 C   0  0  0  0  0  0  0  0  0  0  0  0
    4.8815    1.3119   -1.2655 C   0  0  0  0  0  0  0  0  0  0  0  0
    3.8333    1.7967   -0.4816 C   0  0  0  0  0  0  0  0  0  0  0  0
    2.7095    0.9724   -0.3573 C   0  0  0  0  0  0  0  0  0  0  0  0
    1.5748    1.3288    0.4073 N   0  0  0  0  0  0  0  0  0  0  0  0
    1.4272    2.3750    1.3022 C   0  0  0  0  0  0  0  0  0  0  0  0
    2.2750    3.2271    1.5596 O   0  0  0  0  0  0  0  0  0  0  0  0
    0.0439    2.4288    1.9385 C   0  0  0  0  0  0  0  0  0  0  0  0
   -0.4111    0.7939    2.6114 S   0  0  0  0  0  0  0  0  0  0  0  0
   -2.0789    1.0662    2.9684 C   0  0  0  0  0  0  0  0  0  0  0  0
   -2.6051    2.2031    3.3522 N   0  0  0  0  0  0  0  0  0  0  0  0
   -3.9343    1.9779    3.6180 N   0  0  0  0  0  0  0  0  0  0  0  0
   -4.1961    0.7062    3.3820 C   0  0  0  0  0  0  0  0  0  0  0  0
   -5.5086    0.0377    3.6333 C   0  0  0  0  0  0  0  0  0  0  0  0
   -6.3480   -0.1459    2.3956 C   0  0  0  0  0  0  0  0  0  0  0  0
   -6.5912    0.7544    1.3706 C   0  0  0  0  0  0  0  0  0  0  0  0
   -7.4973    0.2407    0.3948 C   0  0  0  0  0  0  0  0  0  0  0  0
   -7.9229   -1.0334    0.7170 C   0  0  0  0  0  0  0  0  0  0  0  0
   -7.2300   -1.6057    2.1804 S   0  0  0  0  0  0  0  0  0  0  0  0
   -3.0472    0.0974    2.9178 N   0  0  0  0  0  0  0  0  0  0  0  0
   -2.8884   -1.2906    2.5229 C   0  0  0  0  0  0  0  0  0  0  0  0
   -3.0749   -1.4715    1.0549 C   0  0  0  0  0  0  0  0  0  0  0  0
   -3.9404   -2.2453    0.3005 C   0  0  0  0  0  0  0  0  0  0  0  0
   -3.6276   -1.9916   -1.0605 C   0  0  0  0  0  0  0  0  0  0  0  0
   -2.5800   -1.0946   -1.0535 C   0  0  0  0  0  0  0  0  0  0  0  0
   -2.2253   -0.7875    0.2235 O   0  0  0  0  0  0  0  0  0  0  0  0
    6.0537    1.9656   -1.4976 O   0  0  0  0  0  0  0  0  0  0  0  0
    6.8131    1.1577   -2.2913 C   0  0  0  0  0  0  0  0  0  0  0  0
    8.0936    1.4563   -2.7534 C   0  0  0  0  0  0  0  0  0  0  0  0
    8.7063    0.4941   -3.5657 C   0  0  0  0  0  0  0  0  0  0  0  0
    8.0568   -0.7011   -3.8865 C   0  0  0  0  0  0  0  0  0  0  0  0
    6.7679   -0.9732   -3.4055 C   0  0  0  0  0  0  0  0  0  0  0  0
    6.1298   -0.0154   -2.5890 C   0  0  0  0  0  0  0  0  0  0  0  0
    1.3658   -1.9240   -2.6729 H   0  0  0  0  0  0  0  0  0  0  0  0
    1.9917   -2.9662   -1.3252 H   0  0  0  0  0  0  0  0  0  0  0  0
    0.2735   -2.5246   -1.4195 H   0  0  0  0  0  0  0  0  0  0  0  0
    3.7338   -1.7070   -2.2788 H   0  0  0  0  0  0  0  0  0  0  0  0
    3.9138    2.7695   -0.0123 H   0  0  0  0  0  0  0  0  0  0  0  0
    0.8451    0.6203    0.4152 H   0  0  0  0  0  0  0  0  0  0  0  0
    0.0513    3.1725    2.7404 H   0  0  0  0  0  0  0  0  0  0  0  0
   -0.6720    2.7409    1.1668 H   0  0  0  0  0  0  0  0  0  0  0  0
   -5.3351   -0.9165    4.1562 H   0  0  0  0  0  0  0  0  0  0  0  0
   -6.0860    0.6628    4.3387 H   0  0  0  0  0  0  0  0  0  0  0  0
   -6.1469    1.7458    1.3227 H   0  0  0  0  0  0  0  0  0  0  0  0
   -7.8252    0.7837   -0.4923 H   0  0  0  0  0  0  0  0  0  0  0  0
   -8.6137   -1.6572    0.1634 H   0  0  0  0  0  0  0  0  0  0  0  0
   -3.6162   -1.8933    3.0813 H   0  0  0  0  0  0  0  0  0  0  0  0
   -1.8963   -1.6361    2.8334 H   0  0  0  0  0  0  0  0  0  0  0  0
   -4.7099   -2.9078    0.6811 H   0  0  0  0  0  0  0  0  0  0  0  0
   -4.1080   -2.4091   -1.9373 H   0  0  0  0  0  0  0  0  0  0  0  0
   -2.0008   -0.6082   -1.8315 H   0  0  0  0  0  0  0  0  0  0  0  0
    8.5780    2.3912   -2.4967 H   0  0  0  0  0  0  0  0  0  0  0  0
    9.7057    0.6825   -3.9532 H   0  0  0  0  0  0  0  0  0  0  0  0
    8.5598   -1.4333   -4.5185 H   0  0  0  0  0  0  0  0  0  0  0  0
    6.2745   -1.9071   -3.6596 H   0  0  0  0  0  0  0  0  0  0  0  0
  1  2  1  0
  2  3  1  0
  3  4  2  0
  4  5  1  0
  5  6  2  0
  6  7  1  0
  7  8  2  0
  8  9  1  0
  9 10  1  0
 10 11  2  0
 10 12  1  0
 12 13  1  0
 13 14  1  0
 14 15  2  0
 15 16  1  0
 16 17  2  0
 17 18  1  0
 18 19  1  0
 19 20  2  0
 20 21  1  0
 21 22  2  0
 22 23  1  0
 17 24  1  0
 24 25  1  0
 25 26  1  0
 26 27  2  0
 27 28  1  0
 28 29  2  0
 29 30  1  0
  6 31  1  0
 31 32  1  0
 32 33  2  0
 33 34  1  0
 34 35  2  0
 35 36  1  0
 36 37  2  0
  8  3  1  0
 24 14  1  0
 30 26  1  0
 37 32  1  0
 37  5  1  0
 23 19  1  0
  1 38  1  0
  1 39  1  0
  1 40  1  0
  4 41  1  0
  7 42  1  0
  9 43  1  0
 12 44  1  0
 12 45  1  0
 18 46  1  0
 18 47  1  0
 20 48  1  0
 21 49  1  0
 22 50  1  0
 25 51  1  0
 25 52  1  0
 27 53  1  0
 28 54  1  0
 29 55  1  0
 33 56  1  0
 34 57  1  0
 35 58  1  0
 36 59  1  0
M  END
$$$$
