
     RDKit          3D

 43 45  0  0  0  0  0  0  0  0999 V2000
   -5.5800   -2.1186   -1.2478 C   0  0  0  0  0  0  0  0  0  0  0  0
   -4.3132   -1.6405   -1.6861 O   0  0  0  0  0  0  0  0  0  0  0  0
   -3.8506   -0.4892   -1.1131 C   0  0  0  0  0  0  0  0  0  0  0  0
   -4.4736    0.2275   -0.0919 C   0  0  0  0  0  0  0  0  0  0  0  0
   -3.8900    1.3970    0.4105 C   0  0  0  0  0  0  0  0  0  0  0  0
   -2.6824    1.8688   -0.1099 C   0  0  0  0  0  0  0  0  0  0  0  0
   -2.0676    2.9816    0.3907 O   0  0  0  0  0  0  0  0  0  0  0  0
   -2.9419    4.0875    0.6085 C   0  0  0  0  0  0  0  0  0  0  0  0
   -2.0498    1.1347   -1.1162 C   0  0  0  0  0  0  0  0  0  0  0  0
   -0.5140    1.6868   -1.8084 S   0  0  0  0  0  6  0  0  0  0  0  0
   -0.0853    0.7302   -2.8095 O   0  0  0  0  0  0  0  0  0  0  0  0
   -0.6633    3.0872   -2.1544 O   0  0  0  0  0  0  0  0  0  0  0  0
    0.5544    1.6168   -0.5003 N   0  0  0  0  0  0  0  0  0  0  0  0
    1.2557    0.4068   -0.2523 C   0  0  0  0  0  0  0  0  0  0  0  0
    0.5954   -0.7067    0.2609 C   0  0  0  0  0  0  0  0  0  0  0  0
    1.2948   -1.8970    0.4567 C   0  0  0  0  0  0  0  0  0  0  0  0
    2.6513   -1.9684    0.1459 C   0  0  0  0  0  0  0  0  0  0  0  0
    3.2539   -3.1758    0.3754 O   0  0  0  0  0  0  0  0  0  0  0  0
    3.3287   -0.8559   -0.3728 C   0  0  0  0  0  0  0  0  0  0  0  0
    5.0487   -0.8787   -0.8540 S   0  0  0  0  0  0  0  0  0  0  0  0
    5.8311   -1.2039    0.6651 C   0  0  0  0  0  0  0  0  0  0  0  0
    6.4337   -0.2484    1.4324 N   0  0  0  0  0  0  0  0  0  0  0  0
    6.8519   -0.9289    2.4727 C   0  0  0  0  0  0  0  0  0  0  0  0
    6.5250   -2.2374    2.3206 N   0  0  0  0  0  0  0  0  0  0  0  0
    5.8673   -2.4431    1.1671 N   0  0  0  0  0  0  0  0  0  0  0  0
    2.6111    0.3312   -0.5788 C   0  0  0  0  0  0  0  0  0  0  0  0
   -2.6355   -0.0334   -1.6228 C   0  0  0  0  0  0  0  0  0  0  0  0
   -5.5465   -2.4061   -0.1915 H   0  0  0  0  0  0  0  0  0  0  0  0
   -6.3692   -1.3785   -1.4329 H   0  0  0  0  0  0  0  0  0  0  0  0
   -5.8213   -3.0160   -1.8294 H   0  0  0  0  0  0  0  0  0  0  0  0
   -5.4114   -0.0984    0.3437 H   0  0  0  0  0  0  0  0  0  0  0  0
   -4.3865    1.9158    1.2254 H   0  0  0  0  0  0  0  0  0  0  0  0
   -3.4445    3.9940    1.5774 H   0  0  0  0  0  0  0  0  0  0  0  0
   -3.6722    4.1979   -0.2002 H   0  0  0  0  0  0  0  0  0  0  0  0
   -2.3336    4.9953    0.6336 H   0  0  0  0  0  0  0  0  0  0  0  0
    1.0511    2.4987   -0.3896 H   0  0  0  0  0  0  0  0  0  0  0  0
   -0.4563   -0.6620    0.5244 H   0  0  0  0  0  0  0  0  0  0  0  0
    0.7846   -2.7699    0.8534 H   0  0  0  0  0  0  0  0  0  0  0  0
    4.2266   -3.0407    0.3755 H   0  0  0  0  0  0  0  0  0  0  0  0
    7.3773   -0.5403    3.3337 H   0  0  0  0  0  0  0  0  0  0  0  0
    6.6865   -3.0186    2.9468 H   0  0  0  0  0  0  0  0  0  0  0  0
    3.1092    1.1968   -1.0072 H   0  0  0  0  0  0  0  0  0  0  0  0
   -2.1496   -0.5980   -2.4170 H   0  0  0  0  0  0  0  0  0  0  0  0
  1  2  1  0
  2  3  1  0
  3  4  2  0
  4  5  1  0
  5  6  2  0
  6  7  1  0
  7  8  1  0
  6  9  1  0
  9 10  1  0
 10 11  2  0
 10 12  2  0
 10 13  1  0
 13 14  1  0
 14 15  2  0
 15 16  1  0
 16 17  2  0
 17 18  1  0
 17 19  1  0
 19 20  1  0
 20 21  1  0
 21 22  1  0
 22 23  2  0
 23 24  1  0
 24 25  1  0
 19 26  2  0
  9 27  2  0
 27  3  1  0
 26 14  1  0
 25 21  2  0
  1 28  1  0
  1 29  1  0
  1 30  1  0
  4 31  1  0
  5 32  1  0
  8 33  1  0
  8 34  1  0
  8 35  1  0
 13 36  1  0
 15 37  1  0
 16 38  1  0
 18 39  1  0
 23 40  1  0
 24 41  1  0
 26 42  1  0
 27 43  1  0
M  END
$$$$
