
     RDKit          3D

 31 33  0  0  0  0  0  0  0  0999 V2000
   -1.0479   -2.8118   -4.5895 C   0  0  0  0  0  0  0  0  0  0  0  0
   -1.6237   -2.7337   -3.2677 N   0  0  0  0  0  0  0  0  0  0  0  0
   -2.7008   -3.4242   -2.8048 C   0  0  0  0  0  0  0  0  0  0  0  0
   -2.8650   -3.0181   -1.5056 C   0  0  0  0  0  0  0  0  0  0  0  0
   -4.1922   -3.6174   -0.3312 Br  0  0  0  0  0  0  0  0  0  0  0  0
   -1.8437   -2.0741   -1.2496 C   0  0  0  0  0  0  0  0  0  0  0  0
   -1.5435   -1.3152   -0.0175 C   0  0  0  0  0  0  0  0  0  0  0  0
   -2.2087   -1.4359    1.0026 O   0  0  0  0  0  0  0  0  0  0  0  0
   -0.4445   -0.4939   -0.2088 N   0  0  0  0  0  0  0  0  0  0  0  0
    0.1499    0.3693    0.6941 C   0  0  0  0  0  0  0  0  0  0  0  0
   -0.4556    0.5381    2.2955 S   0  0  0  0  0  0  0  0  0  0  0  0
    0.7234    1.6593    2.6629 C   0  0  0  0  0  0  0  0  0  0  0  0
    1.5755    1.9286    1.6299 C   0  0  0  0  0  0  0  0  0  0  0  0
    1.2562    1.1838    0.4720 C   0  0  0  0  0  0  0  0  0  0  0  0
    1.9694    1.2511   -0.7661 C   0  0  0  0  0  0  0  0  0  0  0  0
    2.5412    1.2983   -1.7750 N   0  0  0  0  0  0  0  0  0  0  0  0
    2.5979    2.9287    2.0285 C   0  0  0  0  0  0  0  0  0  0  0  0
    2.0142    3.4839    3.3666 C   0  0  0  0  0  0  0  0  0  0  0  0
    1.0150    2.4128    3.9039 C   0  0  0  0  0  0  0  0  0  0  0  0
   -1.0767   -1.9057   -2.3559 N   0  0  0  0  0  0  0  0  0  0  0  0
   -1.6142   -3.5266   -5.1915 H   0  0  0  0  0  0  0  0  0  0  0  0
   -1.0956   -1.8193   -5.0443 H   0  0  0  0  0  0  0  0  0  0  0  0
   -0.0108   -3.1426   -4.4936 H   0  0  0  0  0  0  0  0  0  0  0  0
   -3.2466   -4.1270   -3.4184 H   0  0  0  0  0  0  0  0  0  0  0  0
   -0.0521   -0.5627   -1.1476 H   0  0  0  0  0  0  0  0  0  0  0  0
    2.7228    3.7264    1.2911 H   0  0  0  0  0  0  0  0  0  0  0  0
    3.5623    2.4409    2.2051 H   0  0  0  0  0  0  0  0  0  0  0  0
    2.7966    3.7245    4.0930 H   0  0  0  0  0  0  0  0  0  0  0  0
    1.4638    4.4108    3.1567 H   0  0  0  0  0  0  0  0  0  0  0  0
    1.5022    1.7705    4.6444 H   0  0  0  0  0  0  0  0  0  0  0  0
    0.1315    2.8813    4.3458 H   0  0  0  0  0  0  0  0  0  0  0  0
  1  2  1  0
  2  3  1  0
  3  4  2  0
  4  5  1  0
  4  6  1  0
  6  7  1  0
  7  8  2  0
  7  9  1  0
  9 10  1  0
 10 11  1  0
 11 12  1  0
 12 13  2  0
 13 14  1  0
 14 15  1  0
 15 16  3  0
 13 17  1  0
 17 18  1  0
 18 19  1  0
  6 20  2  0
 20  2  1  0
 14 10  2  0
 19 12  1  0
  1 21  1  0
  1 22  1  0
  1 23  1  0
  3 24  1  0
  9 25  1  0
 17 26  1  0
 17 27  1  0
 18 28  1  0
 18 29  1  0
 19 30  1  0
 19 31  1  0
M  END
$$$$
