
     RDKit          3D

 48 51  0  0  0  0  0  0  0  0999 V2000
   -0.8793    3.2391   -2.4460 C   0  0  0  0  0  0  0  0  0  0  0  0
   -1.1936    2.5163   -1.1475 C   0  0  0  0  0  0  0  0  0  0  0  0
   -1.2712    1.0825   -1.3138 N   0  0  0  0  0  0  0  0  0  0  0  0
   -2.4049    0.3435   -1.5334 C   0  0  0  0  0  0  0  0  0  0  0  0
   -3.9833    1.0156   -1.7463 S   0  0  0  0  0  0  0  0  0  0  0  0
   -5.0175   -0.3184   -1.0683 C   0  0  0  0  0  0  0  0  0  0  0  0
   -5.0195   -0.3289    0.4426 C   0  0  0  0  0  0  0  0  0  0  0  0
   -5.8508    0.5470    1.1611 C   0  0  0  0  0  0  0  0  0  0  0  0
   -5.8372    0.5480    2.5568 C   0  0  0  0  0  0  0  0  0  0  0  0
   -4.9921   -0.3217    3.2352 C   0  0  0  0  0  0  0  0  0  0  0  0
   -4.9781   -0.3162    4.5746 F   0  0  0  0  0  0  0  0  0  0  0  0
   -4.1593   -1.1934    2.5452 C   0  0  0  0  0  0  0  0  0  0  0  0
   -4.1716   -1.1974    1.1497 C   0  0  0  0  0  0  0  0  0  0  0  0
   -2.1061   -0.9313   -1.5715 N   0  0  0  0  0  0  0  0  0  0  0  0
   -0.7565   -1.0439   -1.3741 N   0  0  0  0  0  0  0  0  0  0  0  0
   -0.2444    0.1648   -1.2461 C   0  0  0  0  0  0  0  0  0  0  0  0
    1.2846    0.3869   -1.0281 C   0  0  0  0  0  0  0  0  0  0  0  0
    2.0115    1.5671   -0.8495 C   0  0  0  0  0  0  0  0  0  0  0  0
    3.3102    1.3384   -0.6736 N   0  0  0  0  0  0  0  0  0  0  0  0
    3.4149   -0.0196   -0.5917 N   0  0  0  0  0  0  0  0  0  0  0  0
    4.6165   -0.5741   -0.0539 C   0  0  0  0  0  0  0  0  0  0  0  0
    5.7790    0.2162   -0.0348 C   0  0  0  0  0  0  0  0  0  0  0  0
    6.9691   -0.2822    0.5004 C   0  0  0  0  0  0  0  0  0  0  0  0
    7.0074   -1.5659    1.0369 C   0  0  0  0  0  0  0  0  0  0  0  0
    5.8541   -2.3470    1.0490 C   0  0  0  0  0  0  0  0  0  0  0  0
    4.6592   -1.8536    0.5139 C   0  0  0  0  0  0  0  0  0  0  0  0
    2.2433   -0.6149   -1.0211 C   0  0  0  0  0  0  0  0  0  0  0  0
    2.1538   -2.0252   -1.4295 C   0  0  0  0  0  0  0  0  0  0  0  0
    3.3518   -2.5343   -1.8192 F   0  0  0  0  0  0  0  0  0  0  0  0
    1.3379   -2.2068   -2.4975 F   0  0  0  0  0  0  0  0  0  0  0  0
    1.6991   -2.8169   -0.4279 F   0  0  0  0  0  0  0  0  0  0  0  0
   -0.8101    4.3173   -2.2722 H   0  0  0  0  0  0  0  0  0  0  0  0
   -1.6601    3.0648   -3.1937 H   0  0  0  0  0  0  0  0  0  0  0  0
    0.0694    2.9010   -2.8748 H   0  0  0  0  0  0  0  0  0  0  0  0
   -0.4471    2.7321   -0.3794 H   0  0  0  0  0  0  0  0  0  0  0  0
   -2.1416    2.8780   -0.7366 H   0  0  0  0  0  0  0  0  0  0  0  0
   -6.0430   -0.1598   -1.4223 H   0  0  0  0  0  0  0  0  0  0  0  0
   -4.7130   -1.2922   -1.4684 H   0  0  0  0  0  0  0  0  0  0  0  0
   -6.5114    1.2337    0.6357 H   0  0  0  0  0  0  0  0  0  0  0  0
   -6.4778    1.2206    3.1180 H   0  0  0  0  0  0  0  0  0  0  0  0
   -3.5047   -1.8626    3.0942 H   0  0  0  0  0  0  0  0  0  0  0  0
   -3.5104   -1.8788    0.6151 H   0  0  0  0  0  0  0  0  0  0  0  0
    1.6848    2.5968   -0.8490 H   0  0  0  0  0  0  0  0  0  0  0  0
    5.7783    1.2239   -0.4474 H   0  0  0  0  0  0  0  0  0  0  0  0
    7.8642    0.3347    0.4986 H   0  0  0  0  0  0  0  0  0  0  0  0
    7.9327   -1.9541    1.4550 H   0  0  0  0  0  0  0  0  0  0  0  0
    5.8802   -3.3426    1.4863 H   0  0  0  0  0  0  0  0  0  0  0  0
    3.7825   -2.4869    0.5974 H   0  0  0  0  0  0  0  0  0  0  0  0
  1  2  1  0
  2  3  1  0
  3  4  1  0
  4  5  1  0
  5  6  1  0
  6  7  1  0
  7  8  2  0
  8  9  1  0
  9 10  2  0
 10 11  1  0
 10 12  1  0
 12 13  2  0
  4 14  2  0
 14 15  1  0
 15 16  2  0
 16 17  1  0
 17 18  1  0
 18 19  2  0
 19 20  1  0
 20 21  1  0
 21 22  2  0
 22 23  1  0
 23 24  2  0
 24 25  1  0
 25 26  2  0
 20 27  1  0
 27 28  1  0
 28 29  1  0
 28 30  1  0
 28 31  1  0
 16  3  1  0
 27 17  2  0
 13  7  1  0
 26 21  1  0
  1 32  1  0
  1 33  1  0
  1 34  1  0
  2 35  1  0
  2 36  1  0
  6 37  1  0
  6 38  1  0
  8 39  1  0
  9 40  1  0
 12 41  1  0
 13 42  1  0
 18 43  1  0
 22 44  1  0
 23 45  1  0
 24 46  1  0
 25 47  1  0
 26 48  1  0
M  END
$$$$
