
     RDKit          3D

 60 65  0  0  0  0  0  0  0  0999 V2000
    0.9875    1.3248    3.3931 O   0  0  0  0  0  0  0  0  0  0  0  0
    1.5548    1.0233    2.3497 C   0  0  0  0  0  0  0  0  0  0  0  0
    0.9129    0.3606    1.3108 N   0  0  0  0  0  0  0  0  0  0  0  0
    1.5182    0.0268    0.0997 C   0  0  0  0  0  0  0  0  0  0  0  0
    0.6375   -0.6856   -0.9192 C   0  0  0  0  0  0  0  0  0  0  0  0
   -0.5137    0.2483   -1.3384 C   0  0  0  0  0  0  0  0  0  0  0  0
   -1.7334   -0.4748   -1.8846 C   0  0  0  0  0  0  0  0  0  0  0  0
   -2.1039   -1.6319   -1.0385 N   0  0  0  0  0  0  0  0  0  0  0  0
   -2.8214   -1.3287    0.4844 S   0  0  0  0  0  6  0  0  0  0  0  0
   -3.2253   -2.5988    1.0460 O   0  0  0  0  0  0  0  0  0  0  0  0
   -1.9271   -0.4480    1.2137 O   0  0  0  0  0  0  0  0  0  0  0  0
   -4.2921   -0.4375    0.0631 C   0  0  0  0  0  0  0  0  0  0  0  0
   -5.3252   -1.1103   -0.5995 C   0  0  0  0  0  0  0  0  0  0  0  0
   -6.4873   -0.4181   -0.9416 C   0  0  0  0  0  0  0  0  0  0  0  0
   -6.6104    0.9333   -0.6192 C   0  0  0  0  0  0  0  0  0  0  0  0
   -5.5856    1.5888    0.0752 C   0  0  0  0  0  0  0  0  0  0  0  0
   -4.4170    0.9097    0.4103 C   0  0  0  0  0  0  0  0  0  0  0  0
   -5.6589    2.9053    0.4517 O   0  0  0  0  0  0  0  0  0  0  0  0
   -7.0061    3.3891    0.3911 C   0  0  0  0  0  0  0  0  0  0  0  0
   -7.6617    2.9788   -0.9171 C   0  0  0  0  0  0  0  0  0  0  0  0
   -7.7707    1.5532   -1.0061 O   0  0  0  0  0  0  0  0  0  0  0  0
   -1.0126   -2.6355   -1.0274 C   0  0  0  0  0  0  0  0  0  0  0  0
    0.2272   -2.0612   -0.3620 C   0  0  0  0  0  0  0  0  0  0  0  0
    2.7625    0.2866   -0.1970 N   0  0  0  0  0  0  0  0  0  0  0  0
    3.4163    0.9182    0.8096 C   0  0  0  0  0  0  0  0  0  0  0  0
    2.9299    1.3058    2.0353 C   0  0  0  0  0  0  0  0  0  0  0  0
    3.8988    1.9295    2.7599 N   0  0  0  0  0  0  0  0  0  0  0  0
    5.0047    1.9423    2.0156 N   0  0  0  0  0  0  0  0  0  0  0  0
    4.7221    1.3155    0.8469 N   0  0  0  0  0  0  0  0  0  0  0  0
    5.7255    1.1887   -0.1883 C   0  0  0  0  0  0  0  0  0  0  0  0
    6.4450   -0.1340   -0.1021 C   0  0  0  0  0  0  0  0  0  0  0  0
    6.0024   -1.2390   -0.8484 C   0  0  0  0  0  0  0  0  0  0  0  0
    6.6608   -2.4684   -0.7597 C   0  0  0  0  0  0  0  0  0  0  0  0
    7.7648   -2.6072    0.0789 C   0  0  0  0  0  0  0  0  0  0  0  0
    8.1984   -1.5183    0.8255 C   0  0  0  0  0  0  0  0  0  0  0  0
    9.2574   -1.6543    1.6341 F   0  0  0  0  0  0  0  0  0  0  0  0
    7.5507   -0.2895    0.7465 C   0  0  0  0  0  0  0  0  0  0  0  0
   -0.0666    0.1393    1.4861 H   0  0  0  0  0  0  0  0  0  0  0  0
    1.2417   -0.8719   -1.8181 H   0  0  0  0  0  0  0  0  0  0  0  0
   -0.1421    0.9441   -2.1026 H   0  0  0  0  0  0  0  0  0  0  0  0
   -0.8257    0.9005   -0.5162 H   0  0  0  0  0  0  0  0  0  0  0  0
   -1.5229   -0.8412   -2.8975 H   0  0  0  0  0  0  0  0  0  0  0  0
   -2.5760    0.2146   -1.9930 H   0  0  0  0  0  0  0  0  0  0  0  0
   -5.2275   -2.1649   -0.8498 H   0  0  0  0  0  0  0  0  0  0  0  0
   -7.2937   -0.9276   -1.4629 H   0  0  0  0  0  0  0  0  0  0  0  0
   -3.6281    1.4301    0.9471 H   0  0  0  0  0  0  0  0  0  0  0  0
   -6.9704    4.4801    0.4711 H   0  0  0  0  0  0  0  0  0  0  0  0
   -7.5566    3.0002    1.2568 H   0  0  0  0  0  0  0  0  0  0  0  0
   -7.0901    3.3379   -1.7818 H   0  0  0  0  0  0  0  0  0  0  0  0
   -8.6728    3.3931   -0.9803 H   0  0  0  0  0  0  0  0  0  0  0  0
   -0.7869   -2.9267   -2.0607 H   0  0  0  0  0  0  0  0  0  0  0  0
   -1.3389   -3.5508   -0.5223 H   0  0  0  0  0  0  0  0  0  0  0  0
    1.0626   -2.7615   -0.4930 H   0  0  0  0  0  0  0  0  0  0  0  0
    0.0665   -2.0233    0.7211 H   0  0  0  0  0  0  0  0  0  0  0  0
    5.2306    1.3058   -1.1592 H   0  0  0  0  0  0  0  0  0  0  0  0
    6.4301    2.0229   -0.0882 H   0  0  0  0  0  0  0  0  0  0  0  0
    5.1337   -1.1498   -1.4993 H   0  0  0  0  0  0  0  0  0  0  0  0
    6.3100   -3.3175   -1.3408 H   0  0  0  0  0  0  0  0  0  0  0  0
    8.2861   -3.5554    0.1605 H   0  0  0  0  0  0  0  0  0  0  0  0
    7.9121    0.5345    1.3567 H   0  0  0  0  0  0  0  0  0  0  0  0
  1  2  2  0
  2  3  1  0
  3  4  1  0
  4  5  1  0
  5  6  1  0
  6  7  1  0
  7  8  1  0
  8  9  1  0
  9 10  2  0
  9 11  2  0
  9 12  1  0
 12 13  2  0
 13 14  1  0
 14 15  2  0
 15 16  1  0
 16 17  2  0
 16 18  1  0
 18 19  1  0
 19 20  1  0
 20 21  1  0
  8 22  1  0
 22 23  1  0
  4 24  2  0
 24 25  1  0
 25 26  2  0
 26 27  1  0
 27 28  2  0
 28 29  1  0
 29 30  1  0
 30 31  1  0
 31 32  2  0
 32 33  1  0
 33 34  2  0
 34 35  1  0
 35 36  1  0
 35 37  2  0
 26  2  1  0
 37 31  1  0
 23  5  1  0
 29 25  1  0
 17 12  1  0
 21 15  1  0
  3 38  1  0
  5 39  1  0
  6 40  1  0
  6 41  1  0
  7 42  1  0
  7 43  1  0
 13 44  1  0
 14 45  1  0
 17 46  1  0
 19 47  1  0
 19 48  1  0
 20 49  1  0
 20 50  1  0
 22 51  1  0
 22 52  1  0
 23 53  1  0
 23 54  1  0
 30 55  1  0
 30 56  1  0
 32 57  1  0
 33 58  1  0
 34 59  1  0
 37 60  1  0
M  END
$$$$
