
     RDKit          3D

 43 45  0  0  0  0  0  0  0  0999 V2000
   -7.0073    0.3889    0.2663 C   0  0  0  0  0  0  0  0  0  0  0  0
   -6.1679   -0.5831   -0.4330 N   0  0  0  0  0  0  0  0  0  0  0  0
   -6.5709   -0.8889   -1.8048 C   0  0  0  0  0  0  0  0  0  0  0  0
   -4.8138   -0.6777   -0.0874 C   0  0  0  0  0  0  0  0  0  0  0  0
   -3.8800   -1.3517   -0.8946 C   0  0  0  0  0  0  0  0  0  0  0  0
   -2.5250   -1.4622   -0.5457 C   0  0  0  0  0  0  0  0  0  0  0  0
   -2.0521   -0.8997    0.6369 C   0  0  0  0  0  0  0  0  0  0  0  0
   -0.6381   -1.0436    0.9930 C   0  0  0  0  0  0  0  0  0  0  0  0
    0.2463   -0.0474    1.1372 C   0  0  0  0  0  0  0  0  0  0  0  0
   -0.0162    1.6482    0.9414 S   0  0  0  0  0  0  0  0  0  0  0  0
    1.6627    2.0593    1.3020 C   0  0  0  0  0  0  0  0  0  0  0  0
    2.2210    3.6302    1.3745 S   0  0  0  0  0  0  0  0  0  0  0  0
    2.3519    0.8849    1.5238 N   0  0  0  0  0  0  0  0  0  0  0  0
    3.7398    0.8614    1.8083 N   0  0  0  0  0  0  0  0  0  0  0  0
    4.5258    0.6853    0.6291 C   0  0  0  0  0  0  0  0  0  0  0  0
    3.9441    0.8327   -0.5902 N   0  0  0  0  0  0  0  0  0  0  0  0
    4.7219    0.7121   -1.6924 C   0  0  0  0  0  0  0  0  0  0  0  0
    6.0803    0.4399   -1.6579 C   0  0  0  0  0  0  0  0  0  0  0  0
    6.8626    0.3462   -2.9309 C   0  0  0  0  0  0  0  0  0  0  0  0
    7.9784   -0.4245   -2.8137 F   0  0  0  0  0  0  0  0  0  0  0  0
    7.2891    1.5617   -3.3659 F   0  0  0  0  0  0  0  0  0  0  0  0
    6.1456   -0.1904   -3.9557 F   0  0  0  0  0  0  0  0  0  0  0  0
    6.6768    0.2999   -0.4019 C   0  0  0  0  0  0  0  0  0  0  0  0
    5.8992    0.4238    0.7495 C   0  0  0  0  0  0  0  0  0  0  0  0
    6.6592    0.2311    2.2873 Cl  0  0  0  0  0  0  0  0  0  0  0  0
    1.6660   -0.3164    1.4933 C   0  0  0  0  0  0  0  0  0  0  0  0
    2.1296   -1.4199    1.7533 O   0  0  0  0  0  0  0  0  0  0  0  0
   -2.9570   -0.2510    1.4733 C   0  0  0  0  0  0  0  0  0  0  0  0
   -4.3096   -0.1468    1.1134 C   0  0  0  0  0  0  0  0  0  0  0  0
   -8.0352    0.3723   -0.1135 H   0  0  0  0  0  0  0  0  0  0  0  0
   -6.6239    1.4070    0.1361 H   0  0  0  0  0  0  0  0  0  0  0  0
   -7.0797    0.1553    1.3338 H   0  0  0  0  0  0  0  0  0  0  0  0
   -6.3516   -1.9311   -2.0601 H   0  0  0  0  0  0  0  0  0  0  0  0
   -7.6525   -0.7707   -1.9364 H   0  0  0  0  0  0  0  0  0  0  0  0
   -6.0761   -0.2216   -2.5191 H   0  0  0  0  0  0  0  0  0  0  0  0
   -4.1815   -1.8184   -1.8272 H   0  0  0  0  0  0  0  0  0  0  0  0
   -1.8518   -1.9928   -1.2150 H   0  0  0  0  0  0  0  0  0  0  0  0
   -0.3114   -2.0747    1.1230 H   0  0  0  0  0  0  0  0  0  0  0  0
    3.9575    0.0858    2.4407 H   0  0  0  0  0  0  0  0  0  0  0  0
    4.1940    0.8484   -2.6352 H   0  0  0  0  0  0  0  0  0  0  0  0
    7.7432    0.0968   -0.3216 H   0  0  0  0  0  0  0  0  0  0  0  0
   -2.6323    0.1774    2.4183 H   0  0  0  0  0  0  0  0  0  0  0  0
   -4.9612    0.3642    1.8154 H   0  0  0  0  0  0  0  0  0  0  0  0
  1  2  1  0
  2  3  1  0
  2  4  1  0
  4  5  2  0
  5  6  1  0
  6  7  2  0
  7  8  1  0
  8  9  2  3
  9 10  1  0
 10 11  1  0
 11 12  2  0
 11 13  1  0
 13 14  1  0
 14 15  1  0
 15 16  2  0
 16 17  1  0
 17 18  2  0
 18 19  1  0
 19 20  1  0
 19 21  1  0
 19 22  1  0
 18 23  1  0
 23 24  2  0
 24 25  1  0
 13 26  1  0
 26 27  2  0
  7 28  1  0
 28 29  2  0
 29  4  1  0
 26  9  1  0
 24 15  1  0
  1 30  1  0
  1 31  1  0
  1 32  1  0
  3 33  1  0
  3 34  1  0
  3 35  1  0
  5 36  1  0
  6 37  1  0
  8 38  1  0
 14 39  1  0
 17 40  1  0
 23 41  1  0
 28 42  1  0
 29 43  1  0
M  END
$$$$
