
     RDKit          3D

 42 44  0  0  0  0  0  0  0  0999 V2000
   -0.4320   -2.9510    1.7161 C   0  0  0  0  0  0  0  0  0  0  0  0
   -0.6464   -1.5808    1.1502 C   0  0  0  0  0  0  0  0  0  0  0  0
    0.2547   -0.7359    0.6135 C   0  0  0  0  0  0  0  0  0  0  0  0
    1.6136   -0.7255    0.4441 N   0  0  0  0  0  0  0  0  0  0  0  0
    2.5753   -1.5619    0.9619 C   0  0  0  0  0  0  0  0  0  0  0  0
    2.3500   -2.4820    1.7556 O   0  0  0  0  0  0  0  0  0  0  0  0
    4.0102   -1.3125    0.5216 C   0  0  0  0  0  0  0  0  0  0  0  0
    4.1796   -0.3149   -0.5195 N   0  0  0  0  0  0  0  0  0  0  0  0
    4.5966   -0.5180   -1.8069 C   0  0  0  0  0  0  0  0  0  0  0  0
    4.6421    0.7279   -2.3962 C   0  0  0  0  0  0  0  0  0  0  0  0
    4.2179    1.6231   -1.3837 C   0  0  0  0  0  0  0  0  0  0  0  0
    4.0936    3.0724   -1.4354 N   0  0  0  0  0  4  0  0  0  0  0  0
    4.2961    3.5981   -2.5412 O   0  0  0  0  0  0  0  0  0  0  0  0
    3.8216    3.6801   -0.3834 O   0  0  0  0  0  1  0  0  0  0  0  0
    3.9117    0.9776   -0.2425 N   0  0  0  0  0  0  0  0  0  0  0  0
   -0.5414    0.4129    0.0663 C   0  0  0  0  0  0  0  0  0  0  0  0
   -0.0152    1.3075   -0.5848 O   0  0  0  0  0  0  0  0  0  0  0  0
   -1.8785    0.1574    0.3755 N   0  0  0  0  0  0  0  0  0  0  0  0
   -3.0061    0.7036   -0.2885 C   0  0  0  0  0  0  0  0  0  0  0  0
   -2.9315    1.9500   -0.9267 C   0  0  0  0  0  0  0  0  0  0  0  0
   -4.0457    2.4983   -1.5708 C   0  0  0  0  0  0  0  0  0  0  0  0
   -5.2526    1.8044   -1.5949 C   0  0  0  0  0  0  0  0  0  0  0  0
   -5.3444    0.5615   -0.9765 C   0  0  0  0  0  0  0  0  0  0  0  0
   -4.2297    0.0156   -0.3323 C   0  0  0  0  0  0  0  0  0  0  0  0
   -1.9612   -1.0663    1.1100 N   0  0  0  0  0  0  0  0  0  0  0  0
   -2.6449   -0.9069    2.4107 C   0  0  0  0  0  0  0  0  0  0  0  0
   -1.3578   -3.5386    1.6712 H   0  0  0  0  0  0  0  0  0  0  0  0
    0.3011   -3.5159    1.1328 H   0  0  0  0  0  0  0  0  0  0  0  0
   -0.1215   -2.8960    2.7668 H   0  0  0  0  0  0  0  0  0  0  0  0
    1.9372    0.1241   -0.0357 H   0  0  0  0  0  0  0  0  0  0  0  0
    4.6045   -0.9873    1.3881 H   0  0  0  0  0  0  0  0  0  0  0  0
    4.4222   -2.2569    0.1412 H   0  0  0  0  0  0  0  0  0  0  0  0
    4.8348   -1.5031   -2.1894 H   0  0  0  0  0  0  0  0  0  0  0  0
    4.9425    0.9616   -3.4107 H   0  0  0  0  0  0  0  0  0  0  0  0
   -2.0139    2.5333   -0.9192 H   0  0  0  0  0  0  0  0  0  0  0  0
   -3.9674    3.4739   -2.0510 H   0  0  0  0  0  0  0  0  0  0  0  0
   -6.1197    2.2344   -2.0945 H   0  0  0  0  0  0  0  0  0  0  0  0
   -6.2815    0.0106   -1.0008 H   0  0  0  0  0  0  0  0  0  0  0  0
   -4.3290   -0.9676    0.1133 H   0  0  0  0  0  0  0  0  0  0  0  0
   -3.6451   -0.4738    2.2987 H   0  0  0  0  0  0  0  0  0  0  0  0
   -2.0671   -0.2541    3.0770 H   0  0  0  0  0  0  0  0  0  0  0  0
   -2.7732   -1.8795    2.9027 H   0  0  0  0  0  0  0  0  0  0  0  0
  1  2  1  0
  2  3  2  0
  3  4  1  0
  4  5  1  0
  5  6  2  0
  5  7  1  0
  7  8  1  0
  8  9  1  0
  9 10  2  0
 10 11  1  0
 11 12  1  0
 12 13  2  0
 12 14  1  0
 11 15  2  0
  3 16  1  0
 16 17  2  0
 16 18  1  0
 18 19  1  0
 19 20  2  0
 20 21  1  0
 21 22  2  0
 22 23  1  0
 23 24  2  0
 18 25  1  0
 25 26  1  0
 25  2  1  0
 15  8  1  0
 24 19  1  0
  1 27  1  0
  1 28  1  0
  1 29  1  0
  4 30  1  0
  7 31  1  0
  7 32  1  0
  9 33  1  0
 10 34  1  0
 20 35  1  0
 21 36  1  0
 22 37  1  0
 23 38  1  0
 24 39  1  0
 26 40  1  0
 26 41  1  0
 26 42  1  0
M  CHG  2  12   1  14  -1
M  END
$$$$
