
     RDKit          3D

 36 37  0  0  0  0  0  0  0  0999 V2000
   -7.2382    0.6696    0.8190 C   0  0  0  0  0  0  0  0  0  0  0  0
   -6.3765    0.0850   -0.1498 O   0  0  0  0  0  0  0  0  0  0  0  0
   -5.0429    0.0496    0.1490 C   0  0  0  0  0  0  0  0  0  0  0  0
   -4.2407   -0.5365   -0.8339 C   0  0  0  0  0  0  0  0  0  0  0  0
   -2.8568   -0.6401   -0.6618 C   0  0  0  0  0  0  0  0  0  0  0  0
   -2.2592   -0.1535    0.5060 C   0  0  0  0  0  0  0  0  0  0  0  0
   -0.7933   -0.2326    0.7495 C   0  0  0  0  0  0  0  0  0  0  0  0
   -0.2564    0.1801    1.7653 O   0  0  0  0  0  0  0  0  0  0  0  0
   -0.1631   -0.8092   -0.3042 O   0  0  0  0  0  0  0  0  0  0  0  0
    1.2617   -0.9508   -0.1706 C   0  0  0  0  0  0  0  0  0  0  0  0
    1.9675    0.3450   -0.5669 C   0  0  0  0  0  0  0  0  0  0  0  0
    3.4670    0.2105   -0.5110 C   0  0  0  0  0  0  0  0  0  0  0  0
    4.1988   -0.1142   -1.6620 C   0  0  0  0  0  0  0  0  0  0  0  0
    5.5871   -0.2567   -1.6023 C   0  0  0  0  0  0  0  0  0  0  0  0
    6.2420   -0.0780   -0.3881 C   0  0  0  0  0  0  0  0  0  0  0  0
    7.5954   -0.2082   -0.2850 O   0  0  0  0  0  0  0  0  0  0  0  0
    5.5323    0.2391    0.7633 C   0  0  0  0  0  0  0  0  0  0  0  0
    4.1456    0.3821    0.7038 C   0  0  0  0  0  0  0  0  0  0  0  0
   -3.0638    0.4337    1.4915 C   0  0  0  0  0  0  0  0  0  0  0  0
   -4.4492    0.5350    1.3141 C   0  0  0  0  0  0  0  0  0  0  0  0
   -7.2109    0.1104    1.7600 H   0  0  0  0  0  0  0  0  0  0  0  0
   -6.9944    1.7252    0.9782 H   0  0  0  0  0  0  0  0  0  0  0  0
   -8.2602    0.6189    0.4312 H   0  0  0  0  0  0  0  0  0  0  0  0
   -4.6991   -0.9170   -1.7442 H   0  0  0  0  0  0  0  0  0  0  0  0
   -2.2641   -1.1027   -1.4467 H   0  0  0  0  0  0  0  0  0  0  0  0
    1.5603   -1.7644   -0.8417 H   0  0  0  0  0  0  0  0  0  0  0  0
    1.5260   -1.2724    0.8447 H   0  0  0  0  0  0  0  0  0  0  0  0
    1.6515    0.6437   -1.5748 H   0  0  0  0  0  0  0  0  0  0  0  0
    1.6484    1.1716    0.0801 H   0  0  0  0  0  0  0  0  0  0  0  0
    3.6911   -0.2569   -2.6134 H   0  0  0  0  0  0  0  0  0  0  0  0
    6.1344   -0.5058   -2.5057 H   0  0  0  0  0  0  0  0  0  0  0  0
    7.9527   -0.4189   -1.1628 H   0  0  0  0  0  0  0  0  0  0  0  0
    6.0561    0.3746    1.7052 H   0  0  0  0  0  0  0  0  0  0  0  0
    3.5972    0.6288    1.6110 H   0  0  0  0  0  0  0  0  0  0  0  0
   -2.6152    0.8171    2.4067 H   0  0  0  0  0  0  0  0  0  0  0  0
   -5.0310    0.9975    2.1047 H   0  0  0  0  0  0  0  0  0  0  0  0
  1  2  1  0
  2  3  1  0
  3  4  2  0
  4  5  1  0
  5  6  2  0
  6  7  1  0
  7  8  2  0
  7  9  1  0
  9 10  1  0
 10 11  1  0
 11 12  1  0
 12 13  2  0
 13 14  1  0
 14 15  2  0
 15 16  1  0
 15 17  1  0
 17 18  2  0
  6 19  1  0
 19 20  2  0
 20  3  1  0
 18 12  1  0
  1 21  1  0
  1 22  1  0
  1 23  1  0
  4 24  1  0
  5 25  1  0
 10 26  1  0
 10 27  1  0
 11 28  1  0
 11 29  1  0
 13 30  1  0
 14 31  1  0
 16 32  1  0
 17 33  1  0
 18 34  1  0
 19 35  1  0
 20 36  1  0
M  END
$$$$
