
     RDKit          3D

 31 32  0  0  0  0  0  0  0  0999 V2000
    2.1364    1.9577   -0.7027 C   0  0  0  0  0  0  0  0  0  0  0  0
    2.2975    0.9654    0.4400 C   0  0  0  0  0  0  0  0  0  0  0  0
    2.5509   -0.3899   -0.0395 N   0  0  0  0  0  0  0  0  0  0  0  0
    1.7024   -1.4576   -0.1019 C   0  0  0  0  0  0  0  0  0  0  0  0
    0.2866   -1.4251    0.2186 C   0  0  0  0  0  0  0  0  0  0  0  0
   -0.3591   -2.5219    0.7647 C   0  0  0  0  0  0  0  0  0  0  0  0
   -2.0164   -2.2544    1.0657 S   0  0  0  0  0  0  0  0  0  0  0  0
   -1.9397   -0.6699    0.4271 C   0  0  0  0  0  0  0  0  0  0  0  0
   -3.1848    0.1850    0.3736 C   0  0  0  0  0  0  0  0  0  0  0  0
   -3.5568    0.5191   -1.0722 C   0  0  0  0  0  0  0  0  0  0  0  0
   -3.0057    1.4632    1.1952 C   0  0  0  0  0  0  0  0  0  0  0  0
   -0.6580   -0.3659    0.0048 C   0  0  0  0  0  0  0  0  0  0  0  0
    2.2659   -2.5774   -0.4647 N   0  0  0  0  0  0  0  0  0  0  0  0
    3.5698   -2.2455   -0.6752 N   0  0  0  0  0  0  0  0  0  0  0  0
    3.7762   -0.9040   -0.4004 C   0  0  0  0  0  0  0  0  0  0  0  0
    5.2608   -0.1738   -0.5020 S   0  0  0  0  0  0  0  0  0  0  0  0
    3.0603    2.0536   -1.2809 H   0  0  0  0  0  0  0  0  0  0  0  0
    1.8812    2.9472   -0.3110 H   0  0  0  0  0  0  0  0  0  0  0  0
    1.3504    1.6485   -1.3976 H   0  0  0  0  0  0  0  0  0  0  0  0
    3.1367    1.2775    1.0712 H   0  0  0  0  0  0  0  0  0  0  0  0
    1.4080    0.9716    1.0751 H   0  0  0  0  0  0  0  0  0  0  0  0
    0.0784   -3.4800    1.0149 H   0  0  0  0  0  0  0  0  0  0  0  0
   -4.0278   -0.3677    0.8094 H   0  0  0  0  0  0  0  0  0  0  0  0
   -3.7000   -0.3939   -1.6609 H   0  0  0  0  0  0  0  0  0  0  0  0
   -4.4898    1.0916   -1.1088 H   0  0  0  0  0  0  0  0  0  0  0  0
   -2.7792    1.1140   -1.5644 H   0  0  0  0  0  0  0  0  0  0  0  0
   -2.7517    1.2282    2.2349 H   0  0  0  0  0  0  0  0  0  0  0  0
   -3.9293    2.0520    1.2002 H   0  0  0  0  0  0  0  0  0  0  0  0
   -2.2071    2.0964    0.7925 H   0  0  0  0  0  0  0  0  0  0  0  0
   -0.4229    0.5834   -0.4562 H   0  0  0  0  0  0  0  0  0  0  0  0
    4.2669   -2.9275   -0.9493 H   0  0  0  0  0  0  0  0  0  0  0  0
  1  2  1  0
  2  3  1  0
  3  4  1  0
  4  5  1  0
  5  6  2  0
  6  7  1  0
  7  8  1  0
  8  9  1  0
  9 10  1  0
  9 11  1  0
  8 12  2  0
  4 13  2  0
 13 14  1  0
 14 15  1  0
 15 16  2  0
 15  3  1  0
 12  5  1  0
  1 17  1  0
  1 18  1  0
  1 19  1  0
  2 20  1  0
  2 21  1  0
  6 22  1  0
  9 23  1  0
 10 24  1  0
 10 25  1  0
 10 26  1  0
 11 27  1  0
 11 28  1  0
 11 29  1  0
 12 30  1  0
 14 31  1  0
M  END
$$$$
