
     RDKit          3D

 43 45  0  0  0  0  0  0  0  0999 V2000
   -7.6934   -1.2457   -0.5566 C   0  0  0  0  0  0  0  0  0  0  0  0
   -6.7966   -0.1045   -0.3825 N   0  0  0  0  0  0  0  0  0  0  0  0
   -7.3962    1.0831    0.2228 C   0  0  0  0  0  0  0  0  0  0  0  0
   -5.4271   -0.3382   -0.2102 C   0  0  0  0  0  0  0  0  0  0  0  0
   -4.8326   -1.5715   -0.5276 C   0  0  0  0  0  0  0  0  0  0  0  0
   -3.4565   -1.8058   -0.3736 C   0  0  0  0  0  0  0  0  0  0  0  0
   -2.6084   -0.8000    0.0866 C   0  0  0  0  0  0  0  0  0  0  0  0
   -1.1789   -1.0911    0.2619 C   0  0  0  0  0  0  0  0  0  0  0  0
   -0.1979   -0.2088    0.0123 C   0  0  0  0  0  0  0  0  0  0  0  0
    1.2050   -0.5328    0.1882 C   0  0  0  0  0  0  0  0  0  0  0  0
    2.2485    0.2807   -0.0316 C   0  0  0  0  0  0  0  0  0  0  0  0
    2.2191    1.9070   -0.5611 S   0  0  0  0  0  0  0  0  0  0  0  0
    3.9797    2.0219   -0.6196 C   0  0  0  0  0  0  0  0  0  0  0  0
    4.6895    3.3778   -1.3009 S   0  0  0  0  0  0  0  0  0  0  0  0
    4.5490    0.8512   -0.1276 N   0  0  0  0  0  0  0  0  0  0  0  0
    5.9579    0.6404    0.0503 C   0  0  0  0  0  0  0  0  0  0  0  0
    6.5418   -0.5996   -0.2571 C   0  0  0  0  0  0  0  0  0  0  0  0
    7.9118   -0.8193   -0.0807 C   0  0  0  0  0  0  0  0  0  0  0  0
    8.7226    0.1945    0.4177 C   0  0  0  0  0  0  0  0  0  0  0  0
    8.1622    1.4241    0.7471 C   0  0  0  0  0  0  0  0  0  0  0  0
    6.7915    1.6427    0.5697 C   0  0  0  0  0  0  0  0  0  0  0  0
    3.6512   -0.1701    0.1887 C   0  0  0  0  0  0  0  0  0  0  0  0
    3.9025   -1.2890    0.6221 O   0  0  0  0  0  0  0  0  0  0  0  0
   -3.1714    0.4337    0.4095 C   0  0  0  0  0  0  0  0  0  0  0  0
   -4.5492    0.6572    0.2526 C   0  0  0  0  0  0  0  0  0  0  0  0
   -7.4561   -1.8008   -1.4704 H   0  0  0  0  0  0  0  0  0  0  0  0
   -7.6468   -1.9187    0.3067 H   0  0  0  0  0  0  0  0  0  0  0  0
   -8.7343   -0.9208   -0.6658 H   0  0  0  0  0  0  0  0  0  0  0  0
   -8.4692    1.1404    0.0072 H   0  0  0  0  0  0  0  0  0  0  0  0
   -6.9599    2.0005   -0.1866 H   0  0  0  0  0  0  0  0  0  0  0  0
   -7.2783    1.0723    1.3120 H   0  0  0  0  0  0  0  0  0  0  0  0
   -5.4259   -2.3954   -0.9118 H   0  0  0  0  0  0  0  0  0  0  0  0
   -3.0616   -2.7849   -0.6347 H   0  0  0  0  0  0  0  0  0  0  0  0
   -0.9466   -2.0997    0.5969 H   0  0  0  0  0  0  0  0  0  0  0  0
   -0.4471    0.7862   -0.3496 H   0  0  0  0  0  0  0  0  0  0  0  0
    1.4118   -1.5465    0.5350 H   0  0  0  0  0  0  0  0  0  0  0  0
    5.9479   -1.4154   -0.6637 H   0  0  0  0  0  0  0  0  0  0  0  0
    8.3415   -1.7855   -0.3340 H   0  0  0  0  0  0  0  0  0  0  0  0
    9.7870    0.0240    0.5570 H   0  0  0  0  0  0  0  0  0  0  0  0
    8.7884    2.2148    1.1534 H   0  0  0  0  0  0  0  0  0  0  0  0
    6.3938    2.6015    0.8912 H   0  0  0  0  0  0  0  0  0  0  0  0
   -2.5560    1.2427    0.7948 H   0  0  0  0  0  0  0  0  0  0  0  0
   -4.9127    1.6471    0.5105 H   0  0  0  0  0  0  0  0  0  0  0  0
  1  2  1  0
  2  3  1  0
  2  4  1  0
  4  5  2  0
  5  6  1  0
  6  7  2  0
  7  8  1  0
  8  9  2  3
  9 10  1  0
 10 11  2  3
 11 12  1  0
 12 13  1  0
 13 14  2  0
 13 15  1  0
 15 16  1  0
 16 17  2  0
 17 18  1  0
 18 19  2  0
 19 20  1  0
 20 21  2  0
 15 22  1  0
 22 23  2  0
  7 24  1  0
 24 25  2  0
 25  4  1  0
 22 11  1  0
 21 16  1  0
  1 26  1  0
  1 27  1  0
  1 28  1  0
  3 29  1  0
  3 30  1  0
  3 31  1  0
  5 32  1  0
  6 33  1  0
  8 34  1  0
  9 35  1  0
 10 36  1  0
 17 37  1  0
 18 38  1  0
 19 39  1  0
 20 40  1  0
 21 41  1  0
 24 42  1  0
 25 43  1  0
M  END
$$$$
