
     RDKit          3D

 39 41  0  0  0  0  0  0  0  0999 V2000
    4.9498   -0.5134   -0.4389 C   0  0  0  0  0  0  0  0  0  0  0  0
    3.6519   -0.9586   -0.9552 N   0  0  0  0  0  0  0  0  0  0  0  0
    3.3741   -2.3149   -0.4735 C   0  0  0  0  0  0  0  0  0  0  0  0
    2.5988   -0.0062   -0.5558 C   0  0  0  0  0  0  0  0  0  0  0  0
    1.2628   -0.2307   -1.2861 C   0  0  0  0  0  0  0  0  0  0  0  0
    0.2373    0.8061   -0.8938 C   0  0  0  0  0  0  0  0  0  0  0  0
   -0.9073    0.6555   -0.1873 C   0  0  0  0  0  0  0  0  0  0  0  0
   -1.8337    1.8220   -0.1268 C   0  0  0  0  0  0  0  0  0  0  0  0
   -1.3846    3.1153    0.1860 C   0  0  0  0  0  0  0  0  0  0  0  0
   -2.2804    4.1851    0.2368 C   0  0  0  0  0  0  0  0  0  0  0  0
   -3.6337    3.9744   -0.0154 C   0  0  0  0  0  0  0  0  0  0  0  0
   -4.0974    2.6910   -0.3074 C   0  0  0  0  0  0  0  0  0  0  0  0
   -3.2080    1.6095   -0.3529 C   0  0  0  0  0  0  0  0  0  0  0  0
   -3.8703   -0.0194   -0.7088 S   0  0  0  0  0  0  0  0  0  0  0  0
   -2.6889   -1.0566    0.1527 C   0  0  0  0  0  0  0  0  0  0  0  0
   -3.1326   -2.2899    0.6498 C   0  0  0  0  0  0  0  0  0  0  0  0
   -2.2678   -3.1095    1.3766 C   0  0  0  0  0  0  0  0  0  0  0  0
   -0.9639   -2.6888    1.6209 C   0  0  0  0  0  0  0  0  0  0  0  0
    0.0981   -3.6836    2.5393 Cl  0  0  0  0  0  0  0  0  0  0  0  0
   -0.5095   -1.4660    1.1291 C   0  0  0  0  0  0  0  0  0  0  0  0
   -1.3532   -0.6551    0.3555 C   0  0  0  0  0  0  0  0  0  0  0  0
    4.9637   -0.4620    0.6559 H   0  0  0  0  0  0  0  0  0  0  0  0
    5.7473   -1.1913   -0.7636 H   0  0  0  0  0  0  0  0  0  0  0  0
    5.2039    0.4761   -0.8351 H   0  0  0  0  0  0  0  0  0  0  0  0
    4.1883   -2.9946   -0.7504 H   0  0  0  0  0  0  0  0  0  0  0  0
    3.2548   -2.3504    0.6155 H   0  0  0  0  0  0  0  0  0  0  0  0
    2.4716   -2.7256   -0.9356 H   0  0  0  0  0  0  0  0  0  0  0  0
    2.4500   -0.0307    0.5317 H   0  0  0  0  0  0  0  0  0  0  0  0
    2.9346    1.0114   -0.7991 H   0  0  0  0  0  0  0  0  0  0  0  0
    0.8830   -1.2421   -1.1258 H   0  0  0  0  0  0  0  0  0  0  0  0
    1.4255   -0.1464   -2.3687 H   0  0  0  0  0  0  0  0  0  0  0  0
    0.4587    1.7818   -1.3284 H   0  0  0  0  0  0  0  0  0  0  0  0
   -0.3348    3.2989    0.4013 H   0  0  0  0  0  0  0  0  0  0  0  0
   -1.9210    5.1830    0.4759 H   0  0  0  0  0  0  0  0  0  0  0  0
   -4.3311    4.8076    0.0223 H   0  0  0  0  0  0  0  0  0  0  0  0
   -5.1584    2.5398   -0.4923 H   0  0  0  0  0  0  0  0  0  0  0  0
   -4.1579   -2.6140    0.4846 H   0  0  0  0  0  0  0  0  0  0  0  0
   -2.6223   -4.0626    1.7600 H   0  0  0  0  0  0  0  0  0  0  0  0
    0.5025   -1.1452    1.3559 H   0  0  0  0  0  0  0  0  0  0  0  0
  1  2  1  0
  2  3  1  0
  2  4  1  0
  4  5  1  0
  5  6  1  0
  6  7  2  3
  7  8  1  0
  8  9  2  0
  9 10  1  0
 10 11  2  0
 11 12  1  0
 12 13  2  0
 13 14  1  0
 14 15  1  0
 15 16  2  0
 16 17  1  0
 17 18  2  0
 18 19  1  0
 18 20  1  0
 20 21  2  0
 21  7  1  0
 13  8  1  0
 21 15  1  0
  1 22  1  0
  1 23  1  0
  1 24  1  0
  3 25  1  0
  3 26  1  0
  3 27  1  0
  4 28  1  0
  4 29  1  0
  5 30  1  0
  5 31  1  0
  6 32  1  0
  9 33  1  0
 10 34  1  0
 11 35  1  0
 12 36  1  0
 16 37  1  0
 17 38  1  0
 20 39  1  0
M  END
$$$$
