
     RDKit          3D

 45 44  0  0  0  0  0  0  0  0999 V2000
    6.9927   -3.8751    0.9652 C   0  0  0  0  0  0  0  0  0  0  0  0
    5.5048   -3.6915    1.2176 C   0  0  0  0  0  0  0  0  0  0  0  0
    4.8928   -2.6822    0.2478 C   0  0  0  0  0  0  0  0  0  0  0  0
    3.4009   -2.5001    0.5039 C   0  0  0  0  0  0  0  0  0  0  0  0
    2.8253   -1.5412   -0.4104 N   0  0  0  0  0  0  0  0  0  0  0  0
    1.4803   -1.4609   -0.6076 C   0  0  0  0  0  0  0  0  0  0  0  0
    0.6508   -2.2522   -0.1899 O   0  0  0  0  0  0  0  0  0  0  0  0
    1.2081   -0.3441   -1.3249 O   0  0  0  0  0  0  0  0  0  0  0  0
   -0.1820   -0.1165   -1.6022 C   0  0  0  0  0  0  0  0  0  0  0  0
   -0.9093    0.5610   -0.4251 C   0  0  0  0  0  0  0  0  0  0  0  0
   -0.1757    1.8081    0.1111 C   0  0  0  0  0  0  0  0  0  0  0  0
    0.0188    2.9158   -0.9164 C   0  0  0  0  0  0  0  0  0  0  0  0
   -2.2862    0.8773   -0.7858 N   0  0  0  0  0  0  0  0  0  0  0  0
   -3.2771    1.0178    0.1374 C   0  0  0  0  0  0  0  0  0  0  0  0
   -3.1752    0.7879    1.3315 O   0  0  0  0  0  0  0  0  0  0  0  0
   -4.3887    1.4758   -0.4873 O   0  0  0  0  0  0  0  0  0  0  0  0
   -5.5399    1.6885    0.3506 C   0  0  0  0  0  0  0  0  0  0  0  0
   -6.7702    1.5886   -0.5433 C   0  0  0  0  0  0  0  0  0  0  0  0
   -5.4536    3.0670    0.9962 C   0  0  0  0  0  0  0  0  0  0  0  0
    7.5316   -2.9307    1.0917 H   0  0  0  0  0  0  0  0  0  0  0  0
    7.1761   -4.2426   -0.0495 H   0  0  0  0  0  0  0  0  0  0  0  0
    7.4099   -4.6013    1.6700 H   0  0  0  0  0  0  0  0  0  0  0  0
    5.0006   -4.6594    1.1150 H   0  0  0  0  0  0  0  0  0  0  0  0
    5.3539   -3.3547    2.2498 H   0  0  0  0  0  0  0  0  0  0  0  0
    5.4043   -1.7163    0.3458 H   0  0  0  0  0  0  0  0  0  0  0  0
    5.0498   -3.0167   -0.7854 H   0  0  0  0  0  0  0  0  0  0  0  0
    3.2242   -2.1289    1.5197 H   0  0  0  0  0  0  0  0  0  0  0  0
    2.8703   -3.4535    0.4006 H   0  0  0  0  0  0  0  0  0  0  0  0
    3.3384   -0.7069   -0.6583 H   0  0  0  0  0  0  0  0  0  0  0  0
   -0.6807   -1.0529   -1.8852 H   0  0  0  0  0  0  0  0  0  0  0  0
   -0.2265    0.5193   -2.4940 H   0  0  0  0  0  0  0  0  0  0  0  0
   -0.9496   -0.1520    0.4083 H   0  0  0  0  0  0  0  0  0  0  0  0
   -0.7338    2.2215    0.9604 H   0  0  0  0  0  0  0  0  0  0  0  0
    0.8059    1.5159    0.5030 H   0  0  0  0  0  0  0  0  0  0  0  0
   -0.9374    3.2510   -1.3295 H   0  0  0  0  0  0  0  0  0  0  0  0
    0.6589    2.5903   -1.7414 H   0  0  0  0  0  0  0  0  0  0  0  0
    0.5006    3.7793   -0.4463 H   0  0  0  0  0  0  0  0  0  0  0  0
   -2.5049    1.2542   -1.6975 H   0  0  0  0  0  0  0  0  0  0  0  0
   -5.6064    0.9089    1.1194 H   0  0  0  0  0  0  0  0  0  0  0  0
   -6.8146    0.6034   -1.0201 H   0  0  0  0  0  0  0  0  0  0  0  0
   -7.6909    1.7410    0.0280 H   0  0  0  0  0  0  0  0  0  0  0  0
   -6.7310    2.3273   -1.3516 H   0  0  0  0  0  0  0  0  0  0  0  0
   -6.3410    3.2773    1.6010 H   0  0  0  0  0  0  0  0  0  0  0  0
   -4.5722    3.1419    1.6413 H   0  0  0  0  0  0  0  0  0  0  0  0
   -5.3524    3.8495    0.2360 H   0  0  0  0  0  0  0  0  0  0  0  0
  1  2  1  0
  2  3  1  0
  3  4  1  0
  4  5  1  0
  5  6  1  0
  6  7  2  0
  6  8  1  0
  8  9  1  0
  9 10  1  0
 10 11  1  0
 11 12  1  0
 10 13  1  0
 13 14  1  0
 14 15  2  0
 14 16  1  0
 16 17  1  0
 17 18  1  0
 17 19  1  0
  1 20  1  0
  1 21  1  0
  1 22  1  0
  2 23  1  0
  2 24  1  0
  3 25  1  0
  3 26  1  0
  4 27  1  0
  4 28  1  0
  5 29  1  0
  9 30  1  0
  9 31  1  0
 10 32  1  0
 11 33  1  0
 11 34  1  0
 12 35  1  0
 12 36  1  0
 12 37  1  0
 13 38  1  0
 17 39  1  0
 18 40  1  0
 18 41  1  0
 18 42  1  0
 19 43  1  0
 19 44  1  0
 19 45  1  0
M  END
$$$$
