
     RDKit          3D

 51 54  0  0  0  0  0  0  0  0999 V2000
    6.1664    1.0251   -2.4959 C   0  0  0  0  0  0  0  0  0  0  0  0
    5.5112   -0.0538   -1.6475 C   0  0  0  0  0  0  0  0  0  0  0  0
    4.1156    0.3312   -1.2309 C   0  0  0  0  0  0  0  0  0  0  0  0
    3.0191    0.0211   -2.0380 C   0  0  0  0  0  0  0  0  0  0  0  0
    1.7239    0.3955   -1.6571 C   0  0  0  0  0  0  0  0  0  0  0  0
    1.4830    1.0929   -0.4620 C   0  0  0  0  0  0  0  0  0  0  0  0
    0.1418    1.4741   -0.0585 N   0  0  0  0  0  0  0  0  0  0  0  0
   -0.0260    2.6850    0.6240 C   0  0  0  0  0  0  0  0  0  0  0  0
    0.8431    3.5395    0.8002 O   0  0  0  0  0  0  0  0  0  0  0  0
   -1.3696    2.9937    1.1379 C   0  0  0  0  0  0  0  0  0  0  0  0
   -1.5525    4.1251    1.9527 C   0  0  0  0  0  0  0  0  0  0  0  0
   -2.8149    4.4392    2.4453 C   0  0  0  0  0  0  0  0  0  0  0  0
   -3.8924    3.6234    2.1254 C   0  0  0  0  0  0  0  0  0  0  0  0
   -3.7078    2.5016    1.3091 C   0  0  0  0  0  0  0  0  0  0  0  0
   -2.4407    2.1757    0.7981 C   0  0  0  0  0  0  0  0  0  0  0  0
   -2.2115    1.0516   -0.0325 N   0  0  0  0  0  0  0  0  0  0  0  0
   -3.3250    0.1960   -0.4584 C   0  0  0  0  0  0  0  0  0  0  0  0
   -3.5803   -0.9085    0.5671 C   0  0  0  0  0  0  0  0  0  0  0  0
   -4.4190   -0.8006    1.4575 O   0  0  0  0  0  0  0  0  0  0  0  0
   -2.7470   -1.9958    0.4359 N   0  0  0  0  0  0  0  0  0  0  0  0
   -2.7401   -3.0446    1.4267 C   0  0  0  0  0  0  0  0  0  0  0  0
   -1.7871   -4.0990    1.0079 C   0  0  0  0  0  0  0  0  0  0  0  0
   -0.4105   -4.1463    0.9093 C   0  0  0  0  0  0  0  0  0  0  0  0
   -0.0879   -5.4430    0.4420 C   0  0  0  0  0  0  0  0  0  0  0  0
   -1.2839   -6.1033    0.2867 C   0  0  0  0  0  0  0  0  0  0  0  0
   -2.3209   -5.2960    0.6273 O   0  0  0  0  0  0  0  0  0  0  0  0
   -0.9276    0.6287   -0.3804 C   0  0  0  0  0  0  0  0  0  0  0  0
   -0.7954   -0.4859   -0.9021 O   0  0  0  0  0  0  0  0  0  0  0  0
    2.5982    1.4062    0.3324 C   0  0  0  0  0  0  0  0  0  0  0  0
    3.8946    1.0338   -0.0448 C   0  0  0  0  0  0  0  0  0  0  0  0
    7.1774    0.7191   -2.7827 H   0  0  0  0  0  0  0  0  0  0  0  0
    5.5955    1.2111   -3.4119 H   0  0  0  0  0  0  0  0  0  0  0  0
    6.2406    1.9707   -1.9484 H   0  0  0  0  0  0  0  0  0  0  0  0
    5.4823   -0.9979   -2.2047 H   0  0  0  0  0  0  0  0  0  0  0  0
    6.1221   -0.2461   -0.7570 H   0  0  0  0  0  0  0  0  0  0  0  0
    3.1608   -0.5096   -2.9772 H   0  0  0  0  0  0  0  0  0  0  0  0
    0.9154    0.1528   -2.3420 H   0  0  0  0  0  0  0  0  0  0  0  0
   -0.7082    4.7645    2.2057 H   0  0  0  0  0  0  0  0  0  0  0  0
   -2.9547    5.3116    3.0788 H   0  0  0  0  0  0  0  0  0  0  0  0
   -4.8822    3.8511    2.5158 H   0  0  0  0  0  0  0  0  0  0  0  0
   -4.5851    1.8898    1.1183 H   0  0  0  0  0  0  0  0  0  0  0  0
   -3.0913   -0.2682   -1.4250 H   0  0  0  0  0  0  0  0  0  0  0  0
   -4.2382    0.7722   -0.6339 H   0  0  0  0  0  0  0  0  0  0  0  0
   -1.9222   -1.8815   -0.1541 H   0  0  0  0  0  0  0  0  0  0  0  0
   -2.4373   -2.6112    2.3862 H   0  0  0  0  0  0  0  0  0  0  0  0
   -3.7576   -3.4346    1.5363 H   0  0  0  0  0  0  0  0  0  0  0  0
    0.2724   -3.3399    1.1404 H   0  0  0  0  0  0  0  0  0  0  0  0
    0.8942   -5.8468    0.2406 H   0  0  0  0  0  0  0  0  0  0  0  0
   -1.5547   -7.0974   -0.0413 H   0  0  0  0  0  0  0  0  0  0  0  0
    2.4853    1.9279    1.2801 H   0  0  0  0  0  0  0  0  0  0  0  0
    4.7288    1.2999    0.6008 H   0  0  0  0  0  0  0  0  0  0  0  0
  1  2  1  0
  2  3  1  0
  3  4  2  0
  4  5  1  0
  5  6  2  0
  6  7  1  0
  7  8  1  0
  8  9  2  0
  8 10  1  0
 10 11  2  0
 11 12  1  0
 12 13  2  0
 13 14  1  0
 14 15  2  0
 15 16  1  0
 16 17  1  0
 17 18  1  0
 18 19  2  0
 18 20  1  0
 20 21  1  0
 21 22  1  0
 22 23  2  0
 23 24  1  0
 24 25  2  0
 25 26  1  0
 16 27  1  0
 27 28  2  0
  6 29  1  0
 29 30  2  0
 30  3  1  0
 27  7  1  0
 15 10  1  0
 26 22  1  0
  1 31  1  0
  1 32  1  0
  1 33  1  0
  2 34  1  0
  2 35  1  0
  4 36  1  0
  5 37  1  0
 11 38  1  0
 12 39  1  0
 13 40  1  0
 14 41  1  0
 17 42  1  0
 17 43  1  0
 20 44  1  0
 21 45  1  0
 21 46  1  0
 23 47  1  0
 24 48  1  0
 25 49  1  0
 29 50  1  0
 30 51  1  0
M  END
$$$$
