
     RDKit          3D

 32 33  0  0  0  0  0  0  0  0999 V2000
   -5.4459   -0.3782   -1.2083 C   0  0  0  0  0  0  0  0  0  0  0  0
   -4.0286   -0.3461   -0.7163 C   0  0  0  0  0  0  0  0  0  0  0  0
   -2.9853   -0.8066   -1.5293 C   0  0  0  0  0  0  0  0  0  0  0  0
   -1.6674   -0.8090   -1.0610 C   0  0  0  0  0  0  0  0  0  0  0  0
   -0.4370   -1.4249   -2.1035 Cl  0  0  0  0  0  0  0  0  0  0  0  0
   -1.3739   -0.3405    0.2247 C   0  0  0  0  0  0  0  0  0  0  0  0
   -0.0862   -0.3655    0.7008 O   0  0  0  0  0  0  0  0  0  0  0  0
    0.6000    0.8533    0.3808 C   0  0  0  0  0  0  0  0  0  0  0  0
    1.8043    0.9852    1.3110 C   0  0  0  0  0  0  0  0  0  0  0  0
    2.8068   -0.1614    1.1742 C   0  0  0  0  0  0  0  0  0  0  0  0
    3.5328   -0.1416   -0.0787 N   0  0  0  0  0  0  0  0  0  0  0  0
    4.5570    0.7036   -0.4034 C   0  0  0  0  0  0  0  0  0  0  0  0
    4.9322    0.3320   -1.6731 C   0  0  0  0  0  0  0  0  0  0  0  0
    4.1707   -0.7174   -2.1173 N   0  0  0  0  0  0  0  0  0  0  0  0
    3.3427   -0.9875   -1.1328 C   0  0  0  0  0  0  0  0  0  0  0  0
   -2.4208    0.0762    1.0558 C   0  0  0  0  0  0  0  0  0  0  0  0
   -2.1105    0.6384    2.8431 Br  0  0  0  0  0  0  0  0  0  0  0  0
   -3.7387    0.0779    0.5865 C   0  0  0  0  0  0  0  0  0  0  0  0
   -5.4863   -0.2274   -2.2922 H   0  0  0  0  0  0  0  0  0  0  0  0
   -5.9038   -1.3424   -0.9674 H   0  0  0  0  0  0  0  0  0  0  0  0
   -6.0370    0.4202   -0.7475 H   0  0  0  0  0  0  0  0  0  0  0  0
   -3.2004   -1.1736   -2.5312 H   0  0  0  0  0  0  0  0  0  0  0  0
   -0.0505    1.7254    0.5267 H   0  0  0  0  0  0  0  0  0  0  0  0
    0.9200    0.8375   -0.6666 H   0  0  0  0  0  0  0  0  0  0  0  0
    2.2969    1.9476    1.1301 H   0  0  0  0  0  0  0  0  0  0  0  0
    1.4453    0.9910    2.3475 H   0  0  0  0  0  0  0  0  0  0  0  0
    2.3224   -1.1389    1.2752 H   0  0  0  0  0  0  0  0  0  0  0  0
    3.5582   -0.0906    1.9699 H   0  0  0  0  0  0  0  0  0  0  0  0
    4.9222    1.4697    0.2656 H   0  0  0  0  0  0  0  0  0  0  0  0
    5.7115    0.7609   -2.2895 H   0  0  0  0  0  0  0  0  0  0  0  0
    2.5958   -1.7712   -1.1348 H   0  0  0  0  0  0  0  0  0  0  0  0
   -4.5467    0.4040    1.2389 H   0  0  0  0  0  0  0  0  0  0  0  0
  1  2  1  0
  2  3  2  0
  3  4  1  0
  4  5  1  0
  4  6  2  0
  6  7  1  0
  7  8  1  0
  8  9  1  0
  9 10  1  0
 10 11  1  0
 11 12  1  0
 12 13  2  0
 13 14  1  0
 14 15  2  0
  6 16  1  0
 16 17  1  0
 16 18  2  0
 18  2  1  0
 15 11  1  0
  1 19  1  0
  1 20  1  0
  1 21  1  0
  3 22  1  0
  8 23  1  0
  8 24  1  0
  9 25  1  0
  9 26  1  0
 10 27  1  0
 10 28  1  0
 12 29  1  0
 13 30  1  0
 15 31  1  0
 18 32  1  0
M  END
$$$$
