
     RDKit          3D

 46 49  0  0  0  0  0  0  0  0999 V2000
    4.8249    0.5912    1.4902 O   0  0  0  0  0  0  0  0  0  0  0  0
    3.7098    0.9549    1.1231 C   0  0  0  0  0  0  0  0  0  0  0  0
    3.4753    1.3910   -0.3138 C   0  0  0  0  0  0  0  0  0  0  0  0
    2.5601    0.1329   -1.2501 S   0  0  0  0  0  0  0  0  0  0  0  0
    0.9503    0.7280   -1.0671 C   0  0  0  0  0  0  0  0  0  0  0  0
    0.5057    1.3917   -0.0267 N   0  0  0  0  0  0  0  0  0  0  0  0
   -0.7842    1.7663   -0.2911 N   0  0  0  0  0  0  0  0  0  0  0  0
   -1.1087    1.3183   -1.4889 C   0  0  0  0  0  0  0  0  0  0  0  0
   -2.4140    1.5618   -2.1789 C   0  0  0  0  0  0  0  0  0  0  0  0
   -3.3689    0.4093   -2.0630 C   0  0  0  0  0  0  0  0  0  0  0  0
   -3.8690   -0.1820   -0.9155 C   0  0  0  0  0  0  0  0  0  0  0  0
   -4.7910   -1.2365   -1.2005 C   0  0  0  0  0  0  0  0  0  0  0  0
   -4.9692   -1.4094   -2.5538 C   0  0  0  0  0  0  0  0  0  0  0  0
   -4.0316   -0.3089   -3.4724 S   0  0  0  0  0  0  0  0  0  0  0  0
   -0.0377    0.6179   -2.0072 N   0  0  0  0  0  0  0  0  0  0  0  0
    0.0398   -0.0420   -3.2952 C   0  0  0  0  0  0  0  0  0  0  0  0
   -0.4469   -1.4452   -3.2416 C   0  0  0  0  0  0  0  0  0  0  0  0
   -0.8080   -2.3202   -2.2345 C   0  0  0  0  0  0  0  0  0  0  0  0
   -1.2285   -3.5128   -2.8681 C   0  0  0  0  0  0  0  0  0  0  0  0
   -1.0752   -3.3058   -4.2191 C   0  0  0  0  0  0  0  0  0  0  0  0
   -0.5976   -2.0563   -4.4532 O   0  0  0  0  0  0  0  0  0  0  0  0
    2.5755    1.0530    1.9146 N   0  0  0  0  0  0  0  0  0  0  0  0
    2.4791    0.8827    3.3102 C   0  0  0  0  0  0  0  0  0  0  0  0
    3.5822    0.6998    4.1500 C   0  0  0  0  0  0  0  0  0  0  0  0
    3.4112    0.5885    5.5348 C   0  0  0  0  0  0  0  0  0  0  0  0
    2.1362    0.6463    6.0910 C   0  0  0  0  0  0  0  0  0  0  0  0
    1.0351    0.8086    5.2563 C   0  0  0  0  0  0  0  0  0  0  0  0
   -0.5427    0.8644    5.9386 Cl  0  0  0  0  0  0  0  0  0  0  0  0
    1.2004    0.9331    3.8748 C   0  0  0  0  0  0  0  0  0  0  0  0
    2.9636    2.3592   -0.3243 H   0  0  0  0  0  0  0  0  0  0  0  0
    4.4463    1.5475   -0.7960 H   0  0  0  0  0  0  0  0  0  0  0  0
   -2.2337    1.8342   -3.2233 H   0  0  0  0  0  0  0  0  0  0  0  0
   -2.8896    2.4408   -1.7234 H   0  0  0  0  0  0  0  0  0  0  0  0
   -3.5885    0.1315    0.0851 H   0  0  0  0  0  0  0  0  0  0  0  0
   -5.3021   -1.8293   -0.4502 H   0  0  0  0  0  0  0  0  0  0  0  0
   -5.6147   -2.1187   -3.0540 H   0  0  0  0  0  0  0  0  0  0  0  0
   -0.5483    0.5446   -4.0115 H   0  0  0  0  0  0  0  0  0  0  0  0
    1.0766   -0.0100   -3.6495 H   0  0  0  0  0  0  0  0  0  0  0  0
   -0.7953   -2.1218   -1.1720 H   0  0  0  0  0  0  0  0  0  0  0  0
   -1.5938   -4.4139   -2.3978 H   0  0  0  0  0  0  0  0  0  0  0  0
   -1.2533   -3.9136   -5.0996 H   0  0  0  0  0  0  0  0  0  0  0  0
    1.7101    1.2822    1.4317 H   0  0  0  0  0  0  0  0  0  0  0  0
    4.5940    0.6592    3.7582 H   0  0  0  0  0  0  0  0  0  0  0  0
    4.2824    0.4615    6.1756 H   0  0  0  0  0  0  0  0  0  0  0  0
    2.0097    0.5660    7.1674 H   0  0  0  0  0  0  0  0  0  0  0  0
    0.3240    1.0602    3.2422 H   0  0  0  0  0  0  0  0  0  0  0  0
  1  2  2  0
  2  3  1  0
  3  4  1  0
  4  5  1  0
  5  6  2  0
  6  7  1  0
  7  8  2  0
  8  9  1  0
  9 10  1  0
 10 11  2  0
 11 12  1  0
 12 13  2  0
 13 14  1  0
  8 15  1  0
 15 16  1  0
 16 17  1  0
 17 18  2  0
 18 19  1  0
 19 20  2  0
 20 21  1  0
  2 22  1  0
 22 23  1  0
 23 24  2  0
 24 25  1  0
 25 26  2  0
 26 27  1  0
 27 28  1  0
 27 29  2  0
 15  5  1  0
 21 17  1  0
 29 23  1  0
 14 10  1  0
  3 30  1  0
  3 31  1  0
  9 32  1  0
  9 33  1  0
 11 34  1  0
 12 35  1  0
 13 36  1  0
 16 37  1  0
 16 38  1  0
 18 39  1  0
 19 40  1  0
 20 41  1  0
 22 42  1  0
 24 43  1  0
 25 44  1  0
 26 45  1  0
 29 46  1  0
M  END
$$$$
