
     RDKit          3D

 56 61  0  0  0  0  0  0  0  0999 V2000
    5.8695   -0.8999    0.5618 C   0  0  0  0  0  0  0  0  0  0  0  0
    4.6053   -0.6422   -0.2024 C   0  0  0  0  0  0  0  0  0  0  0  0
    4.6283   -0.2870   -1.5646 C   0  0  0  0  0  0  0  0  0  0  0  0
    6.1215   -0.1259   -2.4241 Cl  0  0  0  0  0  0  0  0  0  0  0  0
    3.4419   -0.0435   -2.2849 C   0  0  0  0  0  0  0  0  0  0  0  0
    2.1947   -0.1495   -1.6685 C   0  0  0  0  0  0  0  0  0  0  0  0
    2.1596   -0.4970   -0.3273 C   0  0  0  0  0  0  0  0  0  0  0  0
    3.3477   -0.7360    0.3815 C   0  0  0  0  0  0  0  0  0  0  0  0
    3.0455   -1.0565    1.7031 N   0  0  0  0  0  0  0  0  0  0  0  0
    1.6686   -1.0616    1.9400 C   0  0  0  0  0  0  0  0  0  0  0  0
    1.1526   -1.3056    3.0201 O   0  0  0  0  0  0  0  0  0  0  0  0
    0.9884   -0.6922    0.5945 C   0  0  0  0  0  0  0  0  0  0  0  0
    0.0133   -1.7388    0.1632 N   0  0  0  0  0  0  0  0  0  0  0  0
   -1.3777   -1.2441    0.4753 C   0  0  2  0  0  0  0  0  0  0  0  0
   -2.3955   -1.6225   -0.6185 C   0  0  0  0  0  0  0  0  0  0  0  0
   -2.5544   -3.1080   -0.8495 C   0  0  0  0  0  0  0  0  0  0  0  0
   -2.9843   -3.9551    0.1816 C   0  0  0  0  0  0  0  0  0  0  0  0
   -3.1388   -5.3241   -0.0437 C   0  0  0  0  0  0  0  0  0  0  0  0
   -2.8725   -5.8600   -1.3016 C   0  0  0  0  0  0  0  0  0  0  0  0
   -2.4536   -5.0273   -2.3366 C   0  0  0  0  0  0  0  0  0  0  0  0
   -2.2974   -3.6581   -2.1136 C   0  0  0  0  0  0  0  0  0  0  0  0
   -1.1719    0.2230    0.6036 C   0  0  0  0  0  0  0  0  0  0  0  0
    0.1842    0.5386    0.6519 C   0  0  0  0  0  0  0  0  0  0  0  0
    0.3200    1.8983    0.7652 C   0  0  0  0  0  0  0  0  0  0  0  0
    1.4218    2.6337    0.8972 O   0  0  0  0  0  0  0  0  0  0  0  0
   -0.9791    2.4539    0.7835 N   0  0  0  0  0  0  0  0  0  0  0  0
   -1.3040    3.8541    0.8689 C   0  0  0  0  0  0  0  0  0  0  0  0
   -2.5408    4.2774    1.3832 C   0  0  0  0  0  0  0  0  0  0  0  0
   -2.8534    5.6388    1.4624 C   0  0  0  0  0  0  0  0  0  0  0  0
   -1.9341    6.5819    1.0272 C   0  0  0  0  0  0  0  0  0  0  0  0
   -2.2354    7.8847    1.1025 F   0  0  0  0  0  0  0  0  0  0  0  0
   -0.7062    6.1902    0.5147 C   0  0  0  0  0  0  0  0  0  0  0  0
   -0.3901    4.8298    0.4357 C   0  0  0  0  0  0  0  0  0  0  0  0
   -1.8976    1.3814    0.7075 C   0  0  0  0  0  0  0  0  0  0  0  0
   -3.2158    1.5605    0.6932 O   0  0  0  0  0  0  0  0  0  0  0  0
    5.6813   -1.1781    1.6023 H   0  0  0  0  0  0  0  0  0  0  0  0
    6.4942   -0.0008    0.5766 H   0  0  0  0  0  0  0  0  0  0  0  0
    6.4281   -1.7242    0.1062 H   0  0  0  0  0  0  0  0  0  0  0  0
    3.4931    0.2322   -3.3368 H   0  0  0  0  0  0  0  0  0  0  0  0
    1.2840    0.0456   -2.2273 H   0  0  0  0  0  0  0  0  0  0  0  0
    3.7047   -1.2873    2.4314 H   0  0  0  0  0  0  0  0  0  0  0  0
    0.0835   -1.8307   -0.8472 H   0  0  0  0  0  0  0  0  0  0  0  0
   -1.6752   -1.6555    1.4472 H   0  0  0  0  0  0  0  0  0  0  0  0
   -3.3847   -1.2223   -0.3615 H   0  0  0  0  0  0  0  0  0  0  0  0
   -2.1202   -1.1305   -1.5620 H   0  0  0  0  0  0  0  0  0  0  0  0
   -3.2006   -3.5600    1.1714 H   0  0  0  0  0  0  0  0  0  0  0  0
   -3.4661   -5.9731    0.7646 H   0  0  0  0  0  0  0  0  0  0  0  0
   -2.9924   -6.9261   -1.4749 H   0  0  0  0  0  0  0  0  0  0  0  0
   -2.2489   -5.4447   -3.3191 H   0  0  0  0  0  0  0  0  0  0  0  0
   -1.9737   -3.0261   -2.9372 H   0  0  0  0  0  0  0  0  0  0  0  0
    2.1918    2.0391    0.9111 H   0  0  0  0  0  0  0  0  0  0  0  0
   -3.2723    3.5739    1.7683 H   0  0  0  0  0  0  0  0  0  0  0  0
   -3.8062    5.9633    1.8679 H   0  0  0  0  0  0  0  0  0  0  0  0
   -0.0013    6.9414    0.1735 H   0  0  0  0  0  0  0  0  0  0  0  0
    0.5666    4.5633   -0.0028 H   0  0  0  0  0  0  0  0  0  0  0  0
   -3.6458    0.6894    0.7211 H   0  0  0  0  0  0  0  0  0  0  0  0
  1  2  1  0
  2  3  2  0
  3  4  1  0
  3  5  1  0
  5  6  2  0
  6  7  1  0
  7  8  2  0
  8  9  1  0
  9 10  1  0
 10 11  2  0
 10 12  1  0
 12 13  1  0
 13 14  1  0
 14 15  1  0
 15 16  1  0
 16 17  2  0
 17 18  1  0
 18 19  2  0
 19 20  1  0
 20 21  2  0
 14 22  1  0
 22 23  1  0
 23 24  2  0
 24 25  1  0
 24 26  1  0
 26 27  1  0
 27 28  2  0
 28 29  1  0
 29 30  2  0
 30 31  1  0
 30 32  1  0
 32 33  2  0
 26 34  1  0
 34 35  1  0
  8  2  1  0
 23 12  1  0
 33 27  1  0
 12  7  1  0
 21 16  1  0
 34 22  2  0
  1 36  1  0
  1 37  1  0
  1 38  1  0
  5 39  1  0
  6 40  1  0
  9 41  1  0
 13 42  1  0
 14 43  1  1
 15 44  1  0
 15 45  1  0
 17 46  1  0
 18 47  1  0
 19 48  1  0
 20 49  1  0
 21 50  1  0
 25 51  1  0
 28 52  1  0
 29 53  1  0
 32 54  1  0
 33 55  1  0
 35 56  1  0
M  END
$$$$
