
     RDKit          3D

 85 87  0  0  0  0  0  0  0  0999 V2000
   -3.3738    4.0517   -1.3578 C   0  0  0  0  0  0  0  0  0  0  0  0
   -2.4541    2.8701   -1.2738 C   0  0  0  0  0  0  0  0  0  0  0  0
   -1.4852    2.6943   -2.0020 O   0  0  0  0  0  0  0  0  0  0  0  0
   -2.8884    2.0232   -0.3086 O   0  0  0  0  0  0  0  0  0  0  0  0
   -2.1577    0.7744   -0.1089 C   0  0  1  0  0  0  0  0  0  0  0  0
   -1.1875    0.9680    1.0925 C   0  0  2  0  0  0  0  0  0  0  0  0
   -0.2474    2.0244    0.7807 O   0  0  0  0  0  0  0  0  0  0  0  0
   -0.4347    3.2253    1.3872 C   0  0  0  0  0  0  0  0  0  0  0  0
    0.6670    4.1658    1.0075 C   0  0  0  0  0  0  0  0  0  0  0  0
   -1.3672    3.5251    2.1178 O   0  0  0  0  0  0  0  0  0  0  0  0
   -0.3256   -0.2346    1.4690 C   0  0  0  0  0  0  0  0  0  0  0  0
   -0.5685   -0.7487    2.8720 C   0  0  0  0  0  0  0  0  0  0  0  0
    0.6748   -0.7818    0.7447 C   0  0  0  0  0  0  0  0  0  0  0  0
    1.1575   -0.4084   -0.6370 C   0  0  1  0  0  0  0  0  0  0  0  0
    2.4167    0.4899   -0.6242 C   0  0  1  0  0  0  0  0  0  0  0  0
    3.3762    0.0122    0.3396 O   0  0  0  0  0  0  0  0  0  0  0  0
    4.2667    0.9225    0.8075 C   0  0  0  0  0  0  0  0  0  0  0  0
    4.2360    2.1248    0.5987 O   0  0  0  0  0  0  0  0  0  0  0  0
    5.3433    0.2425    1.5763 C   0  0  0  0  0  0  0  0  0  0  0  0
    5.3544   -1.1462    1.7817 C   0  0  0  0  0  0  0  0  0  0  0  0
    6.4122   -1.7469    2.4674 C   0  0  0  0  0  0  0  0  0  0  0  0
    7.4631   -0.9662    2.9530 C   0  0  0  0  0  0  0  0  0  0  0  0
    7.4525    0.4157    2.7600 C   0  0  0  0  0  0  0  0  0  0  0  0
    6.3989    1.0203    2.0697 C   0  0  0  0  0  0  0  0  0  0  0  0
    3.0388    0.3192   -2.0265 C   0  0  2  0  0  0  0  0  0  0  0  0
    3.0349    1.6194   -2.8229 C   0  0  0  0  0  0  0  0  0  0  0  0
    2.2238   -0.7859   -2.7198 C   0  0  0  0  0  0  0  0  0  0  0  0
    1.5572   -1.5751   -1.5716 C   0  0  1  0  0  0  0  0  0  0  0  0
    2.5389   -2.4304   -0.9784 O   0  0  0  0  0  0  0  0  0  0  0  0
    0.3739   -2.4197   -2.0977 C   0  0  0  0  0  0  0  0  0  0  0  0
    0.2226   -2.6514   -3.3015 O   0  0  0  0  0  0  0  0  0  0  0  0
   -0.5359   -3.1003   -1.1267 C   0  0  0  0  0  0  0  0  0  0  0  0
    0.0784   -4.1840   -0.2861 C   0  0  0  0  0  0  0  0  0  0  0  0
   -1.8579   -2.8318   -1.1136 C   0  0  0  0  0  0  0  0  0  0  0  0
   -2.6005   -1.8225   -1.9502 C   0  0  0  0  0  0  0  0  0  0  0  0
   -3.7303   -1.0386   -1.2054 C   0  0  0  0  0  0  0  0  0  0  0  0
   -4.3130   -0.0056   -2.1967 C   0  0  0  0  0  0  0  0  0  0  0  0
   -4.8810   -2.0155   -0.8475 C   0  0  0  0  0  0  0  0  0  0  0  0
   -3.2043   -0.3555    0.1151 C   0  0  2  0  0  0  0  0  0  0  0  0
   -4.3403    0.2278    0.8168 O   0  0  0  0  0  0  0  0  0  0  0  0
   -4.6796   -0.2599    2.0356 C   0  0  0  0  0  0  0  0  0  0  0  0
   -5.8084    0.5462    2.5989 C   0  0  0  0  0  0  0  0  0  0  0  0
   -4.1472   -1.2007    2.5992 O   0  0  0  0  0  0  0  0  0  0  0  0
   -2.8782    4.8563   -1.9117 H   0  0  0  0  0  0  0  0  0  0  0  0
   -4.2954    3.7644   -1.8680 H   0  0  0  0  0  0  0  0  0  0  0  0
   -3.5975    4.4229   -0.3554 H   0  0  0  0  0  0  0  0  0  0  0  0
   -1.5766    0.5586   -1.0067 H   0  0  0  0  0  0  0  0  0  0  0  0
   -1.7908    1.2602    1.9654 H   0  0  0  0  0  0  0  0  0  0  0  0
    0.6591    5.0163    1.6950 H   0  0  0  0  0  0  0  0  0  0  0  0
    1.6376    3.6641    1.1109 H   0  0  0  0  0  0  0  0  0  0  0  0
    0.5201    4.5138   -0.0172 H   0  0  0  0  0  0  0  0  0  0  0  0
   -1.6164   -1.0264    3.0050 H   0  0  0  0  0  0  0  0  0  0  0  0
    0.0394   -1.6340    3.0997 H   0  0  0  0  0  0  0  0  0  0  0  0
   -0.3142    0.0297    3.6025 H   0  0  0  0  0  0  0  0  0  0  0  0
    1.2552   -1.5855    1.1991 H   0  0  0  0  0  0  0  0  0  0  0  0
    0.3729    0.1492   -1.1550 H   0  0  0  0  0  0  0  0  0  0  0  0
    2.1366    1.5256   -0.3996 H   0  0  0  0  0  0  0  0  0  0  0  0
    4.5461   -1.7723    1.4127 H   0  0  0  0  0  0  0  0  0  0  0  0
    6.4173   -2.8244    2.6177 H   0  0  0  0  0  0  0  0  0  0  0  0
    8.2889   -1.4367    3.4824 H   0  0  0  0  0  0  0  0  0  0  0  0
    8.2665    1.0291    3.1427 H   0  0  0  0  0  0  0  0  0  0  0  0
    6.4078    2.1002    1.9236 H   0  0  0  0  0  0  0  0  0  0  0  0
    4.0763   -0.0207   -1.9402 H   0  0  0  0  0  0  0  0  0  0  0  0
    3.6188    2.3896   -2.3078 H   0  0  0  0  0  0  0  0  0  0  0  0
    2.0233    2.0025   -2.9710 H   0  0  0  0  0  0  0  0  0  0  0  0
    3.4746    1.4628   -3.8161 H   0  0  0  0  0  0  0  0  0  0  0  0
    1.4686   -0.3448   -3.3809 H   0  0  0  0  0  0  0  0  0  0  0  0
    2.8718   -1.4155   -3.3409 H   0  0  0  0  0  0  0  0  0  0  0  0
    2.9363   -2.9512   -1.6965 H   0  0  0  0  0  0  0  0  0  0  0  0
    0.8925   -3.7988    0.3309 H   0  0  0  0  0  0  0  0  0  0  0  0
    0.4794   -4.9752   -0.9262 H   0  0  0  0  0  0  0  0  0  0  0  0
   -0.6524   -4.6448    0.3903 H   0  0  0  0  0  0  0  0  0  0  0  0
   -2.4805   -3.4327   -0.4522 H   0  0  0  0  0  0  0  0  0  0  0  0
   -3.0432   -2.3665   -2.7942 H   0  0  0  0  0  0  0  0  0  0  0  0
   -1.8957   -1.1102   -2.3925 H   0  0  0  0  0  0  0  0  0  0  0  0
   -4.7923   -0.5092   -3.0433 H   0  0  0  0  0  0  0  0  0  0  0  0
   -3.5272    0.6337   -2.6175 H   0  0  0  0  0  0  0  0  0  0  0  0
   -5.0677    0.6315   -1.7306 H   0  0  0  0  0  0  0  0  0  0  0  0
   -4.6022   -2.6733   -0.0110 H   0  0  0  0  0  0  0  0  0  0  0  0
   -5.1528   -2.6423   -1.7030 H   0  0  0  0  0  0  0  0  0  0  0  0
   -5.7829   -1.4745   -0.5470 H   0  0  0  0  0  0  0  0  0  0  0  0
   -2.7554   -1.1389    0.7274 H   0  0  0  0  0  0  0  0  0  0  0  0
   -6.6566    0.5359    1.9148 H   0  0  0  0  0  0  0  0  0  0  0  0
   -6.1314    0.1075    3.5468 H   0  0  0  0  0  0  0  0  0  0  0  0
   -5.4787    1.5711    2.7836 H   0  0  0  0  0  0  0  0  0  0  0  0
  1  2  1  0
  2  3  2  0
  2  4  1  0
  4  5  1  0
  5  6  1  0
  6  7  1  0
  7  8  1  0
  8  9  1  0
  8 10  2  0
  6 11  1  0
 11 12  1  0
 11 13  2  0
 13 14  1  0
 14 15  1  0
 15 16  1  0
 16 17  1  0
 17 18  2  0
 17 19  1  0
 19 20  2  0
 20 21  1  0
 21 22  2  0
 22 23  1  0
 23 24  2  0
 15 25  1  0
 25 26  1  0
 25 27  1  0
 27 28  1  0
 28 29  1  1
 28 30  1  0
 30 31  2  0
 30 32  1  0
 32 33  1  0
 32 34  2  3
 34 35  1  0
 35 36  1  0
 36 37  1  0
 36 38  1  0
 36 39  1  0
 39 40  1  0
 40 41  1  0
 41 42  1  0
 41 43  2  0
 39  5  1  0
 28 14  1  0
 24 19  1  0
  1 44  1  0
  1 45  1  0
  1 46  1  0
  5 47  1  6
  6 48  1  1
  9 49  1  0
  9 50  1  0
  9 51  1  0
 12 52  1  0
 12 53  1  0
 12 54  1  0
 13 55  1  0
 14 56  1  6
 15 57  1  1
 20 58  1  0
 21 59  1  0
 22 60  1  0
 23 61  1  0
 24 62  1  0
 25 63  1  1
 26 64  1  0
 26 65  1  0
 26 66  1  0
 27 67  1  0
 27 68  1  0
 29 69  1  0
 33 70  1  0
 33 71  1  0
 33 72  1  0
 34 73  1  0
 35 74  1  0
 35 75  1  0
 37 76  1  0
 37 77  1  0
 37 78  1  0
 38 79  1  0
 38 80  1  0
 38 81  1  0
 39 82  1  1
 42 83  1  0
 42 84  1  0
 42 85  1  0
M  END
$$$$
