
     RDKit          3D

 56 61  0  0  0  0  0  0  0  0999 V2000
    9.4522    2.1961   -1.7044 C   0  0  0  0  0  0  0  0  0  0  0  0
    8.0353    2.2248   -1.5506 O   0  0  0  0  0  0  0  0  0  0  0  0
    7.4522    1.1375   -0.9619 C   0  0  0  0  0  0  0  0  0  0  0  0
    8.1079   -0.0145   -0.5411 C   0  0  0  0  0  0  0  0  0  0  0  0
    7.3810   -1.0446    0.0561 C   0  0  0  0  0  0  0  0  0  0  0  0
    5.9941   -0.9288    0.2362 C   0  0  0  0  0  0  0  0  0  0  0  0
    5.2604   -1.9576    0.8475 C   0  0  0  0  0  0  0  0  0  0  0  0
    3.8810   -1.7704    0.9972 C   0  0  0  0  0  0  0  0  0  0  0  0
    2.7976   -2.5050    1.5347 C   0  0  0  0  0  0  0  0  0  0  0  0
    1.6572   -1.7347    1.3646 C   0  0  0  0  0  0  0  0  0  0  0  0
    0.2810   -2.0463    1.7290 C   0  0  0  0  0  0  0  0  0  0  0  0
    0.0090   -3.1584    2.1888 O   0  0  0  0  0  0  0  0  0  0  0  0
   -0.7339   -1.0992    1.5566 N   0  0  0  0  0  0  0  0  0  0  0  0
   -2.1114   -1.4785    1.8657 C   0  0  0  0  0  0  0  0  0  0  0  0
   -3.1370   -0.8285    0.9134 C   0  0  0  0  0  0  0  0  0  0  0  0
   -2.9600    0.6173    0.6567 N   0  0  0  0  0  0  0  0  0  0  0  0
   -4.1678    1.4042    0.9345 C   0  0  0  0  0  0  0  0  0  0  0  0
   -5.3356    1.0563    0.0323 C   0  0  0  0  0  0  0  0  0  0  0  0
   -5.2123    1.1661   -1.3732 C   0  0  0  0  0  0  0  0  0  0  0  0
   -6.2810    0.8525   -2.2198 C   0  0  0  0  0  0  0  0  0  0  0  0
   -7.4576    0.4369   -1.6374 C   0  0  0  0  0  0  0  0  0  0  0  0
   -7.5902    0.3311   -0.2732 C   0  0  0  0  0  0  0  0  0  0  0  0
   -6.5558    0.6349    0.5867 C   0  0  0  0  0  0  0  0  0  0  0  0
   -8.8268   -0.0972    0.0964 O   0  0  0  0  0  0  0  0  0  0  0  0
   -9.4567   -0.2510   -1.1935 C   0  0  0  0  0  0  0  0  0  0  0  0
   -8.5944    0.0878   -2.2989 O   0  0  0  0  0  0  0  0  0  0  0  0
   -1.7944    1.1694    1.3653 C   0  0  0  0  0  0  0  0  0  0  0  0
   -0.5333    0.3028    1.1764 C   0  0  0  0  0  0  0  0  0  0  0  0
    1.9976   -0.5698    0.7374 O   0  0  0  0  0  0  0  0  0  0  0  0
    3.3401   -0.5843    0.5223 C   0  0  0  0  0  0  0  0  0  0  0  0
    3.9952    0.4275   -0.0670 N   0  0  0  0  0  0  0  0  0  0  0  0
    5.3154    0.2360   -0.1963 C   0  0  0  0  0  0  0  0  0  0  0  0
    6.0674    1.2408   -0.7873 C   0  0  0  0  0  0  0  0  0  0  0  0
    9.7581    1.3989   -2.3949 H   0  0  0  0  0  0  0  0  0  0  0  0
    9.9556    2.0965   -0.7331 H   0  0  0  0  0  0  0  0  0  0  0  0
    9.7615    3.1515   -2.1410 H   0  0  0  0  0  0  0  0  0  0  0  0
    9.1781   -0.1442   -0.6602 H   0  0  0  0  0  0  0  0  0  0  0  0
    7.9077   -1.9394    0.3824 H   0  0  0  0  0  0  0  0  0  0  0  0
    5.7357   -2.8679    1.1969 H   0  0  0  0  0  0  0  0  0  0  0  0
    2.8219   -3.4835    1.9939 H   0  0  0  0  0  0  0  0  0  0  0  0
   -2.3049   -1.1601    2.8983 H   0  0  0  0  0  0  0  0  0  0  0  0
   -2.2331   -2.5671    1.8345 H   0  0  0  0  0  0  0  0  0  0  0  0
   -3.0567   -1.3268   -0.0607 H   0  0  0  0  0  0  0  0  0  0  0  0
   -4.1362   -1.0628    1.2981 H   0  0  0  0  0  0  0  0  0  0  0  0
   -4.4561    1.2982    1.9889 H   0  0  0  0  0  0  0  0  0  0  0  0
   -3.9608    2.4711    0.7775 H   0  0  0  0  0  0  0  0  0  0  0  0
   -4.2662    1.4892   -1.8046 H   0  0  0  0  0  0  0  0  0  0  0  0
   -6.1859    0.9302   -3.2963 H   0  0  0  0  0  0  0  0  0  0  0  0
   -6.6909    0.5390    1.6592 H   0  0  0  0  0  0  0  0  0  0  0  0
   -9.7760   -1.2932   -1.3044 H   0  0  0  0  0  0  0  0  0  0  0  0
  -10.3422    0.3949   -1.2278 H   0  0  0  0  0  0  0  0  0  0  0  0
   -2.0102    1.2598    2.4403 H   0  0  0  0  0  0  0  0  0  0  0  0
   -1.5778    2.1787    0.9900 H   0  0  0  0  0  0  0  0  0  0  0  0
   -0.2319    0.3186    0.1226 H   0  0  0  0  0  0  0  0  0  0  0  0
    0.2740    0.7223    1.7859 H   0  0  0  0  0  0  0  0  0  0  0  0
    5.5597    2.1430   -1.1234 H   0  0  0  0  0  0  0  0  0  0  0  0
  1  2  1  0
  2  3  1  0
  3  4  2  0
  4  5  1  0
  5  6  2  0
  6  7  1  0
  7  8  2  0
  8  9  1  0
  9 10  2  0
 10 11  1  0
 11 12  2  0
 11 13  1  0
 13 14  1  0
 14 15  1  0
 15 16  1  0
 16 17  1  0
 17 18  1  0
 18 19  2  0
 19 20  1  0
 20 21  2  0
 21 22  1  0
 22 23  2  0
 22 24  1  0
 24 25  1  0
 25 26  1  0
 16 27  1  0
 27 28  1  0
 10 29  1  0
 29 30  1  0
 30 31  2  0
 31 32  1  0
 32 33  2  0
 33  3  1  0
 32  6  1  0
 30  8  1  0
 28 13  1  0
 23 18  1  0
 26 21  1  0
  1 34  1  0
  1 35  1  0
  1 36  1  0
  4 37  1  0
  5 38  1  0
  7 39  1  0
  9 40  1  0
 14 41  1  0
 14 42  1  0
 15 43  1  0
 15 44  1  0
 17 45  1  0
 17 46  1  0
 19 47  1  0
 20 48  1  0
 23 49  1  0
 25 50  1  0
 25 51  1  0
 27 52  1  0
 27 53  1  0
 28 54  1  0
 28 55  1  0
 33 56  1  0
M  END
$$$$
