
     RDKit          3D

 33 34  0  0  0  0  0  0  0  0999 V2000
   -4.3664   -0.0724   -3.0266 C   0  0  0  0  0  0  0  0  0  0  0  0
   -3.7266   -0.1256   -1.6706 C   0  0  0  0  0  0  0  0  0  0  0  0
   -4.4902   -0.4105   -0.5334 C   0  0  0  0  0  0  0  0  0  0  0  0
   -3.8896   -0.4811    0.7261 C   0  0  0  0  0  0  0  0  0  0  0  0
   -2.5136   -0.2846    0.8556 C   0  0  0  0  0  0  0  0  0  0  0  0
   -1.9503   -0.3143    2.1005 O   0  0  0  0  0  0  0  0  0  0  0  0
   -1.7298   -0.0326   -0.2744 C   0  0  0  0  0  0  0  0  0  0  0  0
   -0.2585    0.1710   -0.2169 C   0  0  0  0  0  0  0  0  0  0  0  0
    0.2630    0.9714   -0.9943 O   0  0  0  0  0  0  0  0  0  0  0  0
    0.5522   -0.6078    0.7878 C   0  0  0  0  0  0  0  0  0  0  0  0
    1.8931   -1.0127    0.2316 C   0  0  0  0  0  0  0  0  0  0  0  0
    2.0355   -1.9370   -0.5651 O   0  0  0  0  0  0  0  0  0  0  0  0
    3.0687   -0.2100    0.6141 C   0  0  0  0  0  0  0  0  0  0  0  0
    3.6635    0.5744   -0.3814 C   0  0  0  0  0  0  0  0  0  0  0  0
    4.7771    1.3566   -0.0757 C   0  0  0  0  0  0  0  0  0  0  0  0
    5.3001    1.3484    1.2174 C   0  0  0  0  0  0  0  0  0  0  0  0
    4.7138    0.5541    2.2065 C   0  0  0  0  0  0  0  0  0  0  0  0
    3.5969   -0.2314    1.9073 C   0  0  0  0  0  0  0  0  0  0  0  0
    2.9413   -1.2209    3.1609 Cl  0  0  0  0  0  0  0  0  0  0  0  0
   -2.3439    0.0541   -1.5334 C   0  0  0  0  0  0  0  0  0  0  0  0
   -5.4064    0.2630   -2.9551 H   0  0  0  0  0  0  0  0  0  0  0  0
   -3.8418    0.6343   -3.6782 H   0  0  0  0  0  0  0  0  0  0  0  0
   -4.3456   -1.0639   -3.4891 H   0  0  0  0  0  0  0  0  0  0  0  0
   -5.5630   -0.5715   -0.6216 H   0  0  0  0  0  0  0  0  0  0  0  0
   -4.5136   -0.6862    1.5913 H   0  0  0  0  0  0  0  0  0  0  0  0
   -2.6469   -0.4620    2.7633 H   0  0  0  0  0  0  0  0  0  0  0  0
    0.6722    0.0146    1.6796 H   0  0  0  0  0  0  0  0  0  0  0  0
    0.0450   -1.5334    1.0789 H   0  0  0  0  0  0  0  0  0  0  0  0
    3.2527    0.5813   -1.3898 H   0  0  0  0  0  0  0  0  0  0  0  0
    5.2359    1.9710   -0.8471 H   0  0  0  0  0  0  0  0  0  0  0  0
    6.1702    1.9567    1.4542 H   0  0  0  0  0  0  0  0  0  0  0  0
    5.1392    0.5478    3.2072 H   0  0  0  0  0  0  0  0  0  0  0  0
   -1.7344    0.2591   -2.4131 H   0  0  0  0  0  0  0  0  0  0  0  0
  1  2  1  0
  2  3  2  0
  3  4  1  0
  4  5  2  0
  5  6  1  0
  5  7  1  0
  7  8  1  0
  8  9  2  0
  8 10  1  0
 10 11  1  0
 11 12  2  0
 11 13  1  0
 13 14  2  0
 14 15  1  0
 15 16  2  0
 16 17  1  0
 17 18  2  0
 18 19  1  0
  7 20  2  0
 20  2  1  0
 18 13  1  0
  1 21  1  0
  1 22  1  0
  1 23  1  0
  3 24  1  0
  4 25  1  0
  6 26  1  0
 10 27  1  0
 10 28  1  0
 14 29  1  0
 15 30  1  0
 16 31  1  0
 17 32  1  0
 20 33  1  0
M  END
$$$$
