
     RDKit          3D

 56 61  0  0  0  0  0  0  0  0999 V2000
    7.8551    1.4870   -3.1742 C   0  0  0  0  0  0  0  0  0  0  0  0
    8.4694    0.7539   -2.1218 O   0  0  0  0  0  0  0  0  0  0  0  0
    7.6388    0.1911   -1.1923 C   0  0  0  0  0  0  0  0  0  0  0  0
    8.2854   -0.5584   -0.2131 C   0  0  0  0  0  0  0  0  0  0  0  0
    7.5508   -1.1883    0.7893 C   0  0  0  0  0  0  0  0  0  0  0  0
    6.1544   -1.0696    0.8188 C   0  0  0  0  0  0  0  0  0  0  0  0
    5.4000   -1.7020    1.8199 C   0  0  0  0  0  0  0  0  0  0  0  0
    4.0096   -1.5415    1.7830 C   0  0  0  0  0  0  0  0  0  0  0  0
    2.9038   -1.9816    2.5499 C   0  0  0  0  0  0  0  0  0  0  0  0
    1.7661   -1.4475    1.9654 C   0  0  0  0  0  0  0  0  0  0  0  0
    0.3695   -1.6195    2.3386 C   0  0  0  0  0  0  0  0  0  0  0  0
    0.0496   -2.4841    3.1584 O   0  0  0  0  0  0  0  0  0  0  0  0
   -0.6118   -0.8039    1.7693 N   0  0  0  0  0  0  0  0  0  0  0  0
   -2.0165   -1.1014    2.0444 C   0  0  0  0  0  0  0  0  0  0  0  0
   -2.9451   -0.6547    0.8987 C   0  0  0  0  0  0  0  0  0  0  0  0
   -2.7868    0.7483    0.4575 N   0  0  0  0  0  0  0  0  0  0  0  0
   -3.9718    1.5735    0.7304 C   0  0  0  0  0  0  0  0  0  0  0  0
   -5.1719    1.1890   -0.1129 C   0  0  0  0  0  0  0  0  0  0  0  0
   -5.0636    1.1237   -1.5236 C   0  0  0  0  0  0  0  0  0  0  0  0
   -6.1619    0.7813   -2.3186 C   0  0  0  0  0  0  0  0  0  0  0  0
   -7.3530    0.5150   -1.6811 C   0  0  0  0  0  0  0  0  0  0  0  0
   -7.4736    0.5848   -0.3131 C   0  0  0  0  0  0  0  0  0  0  0  0
   -6.4090    0.9215    0.4967 C   0  0  0  0  0  0  0  0  0  0  0  0
   -8.7313    0.2900    0.1131 O   0  0  0  0  0  0  0  0  0  0  0  0
   -9.3848    0.0172   -1.1442 C   0  0  0  0  0  0  0  0  0  0  0  0
   -8.5189    0.1677   -2.2882 O   0  0  0  0  0  0  0  0  0  0  0  0
   -1.5737    1.3741    1.0121 C   0  0  0  0  0  0  0  0  0  0  0  0
   -0.3572    0.4292    1.0171 C   0  0  0  0  0  0  0  0  0  0  0  0
    2.1274   -0.7204    0.8647 O   0  0  0  0  0  0  0  0  0  0  0  0
    3.4819   -0.7679    0.7585 C   0  0  0  0  0  0  0  0  0  0  0  0
    4.1574   -0.1402   -0.2156 N   0  0  0  0  0  0  0  0  0  0  0  0
    5.4852   -0.3059   -0.1693 C   0  0  0  0  0  0  0  0  0  0  0  0
    6.2477    0.3091   -1.1543 C   0  0  0  0  0  0  0  0  0  0  0  0
    7.1812    0.8514   -3.7591 H   0  0  0  0  0  0  0  0  0  0  0  0
    8.6462    1.8374   -3.8435 H   0  0  0  0  0  0  0  0  0  0  0  0
    7.3323    2.3675   -2.7862 H   0  0  0  0  0  0  0  0  0  0  0  0
    9.3684   -0.6552   -0.2328 H   0  0  0  0  0  0  0  0  0  0  0  0
    8.0775   -1.7716    1.5422 H   0  0  0  0  0  0  0  0  0  0  0  0
    5.8681   -2.2991    2.5963 H   0  0  0  0  0  0  0  0  0  0  0  0
    2.9132   -2.6160    3.4259 H   0  0  0  0  0  0  0  0  0  0  0  0
   -2.2832   -0.5826    2.9729 H   0  0  0  0  0  0  0  0  0  0  0  0
   -2.1459   -2.1750    2.2192 H   0  0  0  0  0  0  0  0  0  0  0  0
   -3.9784   -0.8892    1.1802 H   0  0  0  0  0  0  0  0  0  0  0  0
   -2.7230   -1.2794    0.0240 H   0  0  0  0  0  0  0  0  0  0  0  0
   -4.2227    1.5353    1.7990 H   0  0  0  0  0  0  0  0  0  0  0  0
   -3.7579    2.6257    0.4980 H   0  0  0  0  0  0  0  0  0  0  0  0
   -4.1072    1.3355   -2.0001 H   0  0  0  0  0  0  0  0  0  0  0  0
   -6.0793    0.7257   -3.3982 H   0  0  0  0  0  0  0  0  0  0  0  0
   -6.5366    0.9690    1.5724 H   0  0  0  0  0  0  0  0  0  0  0  0
   -9.7648   -1.0113   -1.1246 H   0  0  0  0  0  0  0  0  0  0  0  0
  -10.2324    0.7037   -1.2527 H   0  0  0  0  0  0  0  0  0  0  0  0
   -1.7572    1.7056    2.0428 H   0  0  0  0  0  0  0  0  0  0  0  0
   -1.3255    2.2652    0.4240 H   0  0  0  0  0  0  0  0  0  0  0  0
   -0.1016    0.1446   -0.0097 H   0  0  0  0  0  0  0  0  0  0  0  0
    0.4932    0.9550    1.4620 H   0  0  0  0  0  0  0  0  0  0  0  0
    5.7142    0.8885   -1.9004 H   0  0  0  0  0  0  0  0  0  0  0  0
  1  2  1  0
  2  3  1  0
  3  4  2  0
  4  5  1  0
  5  6  2  0
  6  7  1  0
  7  8  2  0
  8  9  1  0
  9 10  2  0
 10 11  1  0
 11 12  2  0
 11 13  1  0
 13 14  1  0
 14 15  1  0
 15 16  1  0
 16 17  1  0
 17 18  1  0
 18 19  2  0
 19 20  1  0
 20 21  2  0
 21 22  1  0
 22 23  2  0
 22 24  1  0
 24 25  1  0
 25 26  1  0
 16 27  1  0
 27 28  1  0
 10 29  1  0
 29 30  1  0
 30 31  2  0
 31 32  1  0
 32 33  2  0
 33  3  1  0
 32  6  1  0
 30  8  1  0
 28 13  1  0
 23 18  1  0
 26 21  1  0
  1 34  1  0
  1 35  1  0
  1 36  1  0
  4 37  1  0
  5 38  1  0
  7 39  1  0
  9 40  1  0
 14 41  1  0
 14 42  1  0
 15 43  1  0
 15 44  1  0
 17 45  1  0
 17 46  1  0
 19 47  1  0
 20 48  1  0
 23 49  1  0
 25 50  1  0
 25 51  1  0
 27 52  1  0
 27 53  1  0
 28 54  1  0
 28 55  1  0
 33 56  1  0
M  END
$$$$
