
     RDKit          3D

 59 62  0  0  0  0  0  0  0  0999 V2000
   -1.5149    1.5937   -2.7202 C   0  0  0  0  0  0  0  0  0  0  0  0
   -1.6572    0.4701   -1.8423 O   0  0  0  0  0  0  0  0  0  0  0  0
   -2.9762    0.0939   -1.7576 C   0  0  0  0  0  0  0  0  0  0  0  0
   -3.4251   -0.9309   -2.6132 C   0  0  0  0  0  0  0  0  0  0  0  0
   -2.5079   -1.5853   -3.6090 C   0  0  0  0  0  0  0  0  0  0  0  0
   -4.7717   -1.3177   -2.5612 C   0  0  0  0  0  0  0  0  0  0  0  0
   -5.6401   -0.7193   -1.6513 C   0  0  0  0  0  0  0  0  0  0  0  0
   -7.4517   -1.2590   -1.5945 Br  0  0  0  0  0  0  0  0  0  0  0  0
   -5.1836    0.2613   -0.7751 C   0  0  0  0  0  0  0  0  0  0  0  0
   -3.8402    0.6700   -0.8061 C   0  0  0  0  0  0  0  0  0  0  0  0
   -3.4294    1.7068    0.1960 C   0  0  0  0  0  0  0  0  0  0  0  0
   -4.3069    2.3908    0.7146 O   0  0  0  0  0  0  0  0  0  0  0  0
   -2.0843    1.7808    0.4714 N   0  0  0  0  0  0  0  0  0  0  0  0
   -1.4029    2.6569    1.3432 C   0  0  0  0  0  0  0  0  0  0  0  0
   -2.0313    3.6541    2.0906 C   0  0  0  0  0  0  0  0  0  0  0  0
   -1.2777    4.4965    2.9099 C   0  0  0  0  0  0  0  0  0  0  0  0
    0.1037    4.3447    2.9895 C   0  0  0  0  0  0  0  0  0  0  0  0
    0.7408    3.3476    2.2494 C   0  0  0  0  0  0  0  0  0  0  0  0
    0.0045    2.4932    1.4149 C   0  0  0  0  0  0  0  0  0  0  0  0
    0.6130    1.4453    0.6728 N   0  0  0  0  0  0  0  0  0  0  0  0
    1.8527    1.8127   -0.0572 C   0  0  0  0  0  0  0  0  0  0  0  0
    3.1077    1.1289    0.5078 C   0  0  0  0  0  0  0  0  0  0  0  0
    2.9710   -0.3287    0.5792 N   0  0  0  0  0  0  0  0  0  0  0  0
    4.1309   -1.0886    0.6849 C   0  0  0  0  0  0  0  0  0  0  0  0
    5.2481   -0.5910    0.8044 O   0  0  0  0  0  0  0  0  0  0  0  0
    4.0274   -2.5651    0.6492 C   0  0  0  0  0  0  0  0  0  0  0  0
    4.6768   -3.3091    1.6403 C   0  0  0  0  0  0  0  0  0  0  0  0
    4.6132   -4.7024    1.6117 C   0  0  0  0  0  0  0  0  0  0  0  0
    3.9160   -5.3492    0.5898 C   0  0  0  0  0  0  0  0  0  0  0  0
    3.2883   -4.6072   -0.4120 C   0  0  0  0  0  0  0  0  0  0  0  0
    3.3502   -3.2134   -0.3896 C   0  0  0  0  0  0  0  0  0  0  0  0
    1.6110   -0.8378    0.8196 C   0  0  0  0  0  0  0  0  0  0  0  0
    0.7083    0.2113    1.4958 C   0  0  0  0  0  0  0  0  0  0  0  0
   -1.6829    1.2960   -3.7591 H   0  0  0  0  0  0  0  0  0  0  0  0
   -0.4869    1.9542   -2.6323 H   0  0  0  0  0  0  0  0  0  0  0  0
   -2.1869    2.4162   -2.4515 H   0  0  0  0  0  0  0  0  0  0  0  0
   -1.5325   -1.7991   -3.1607 H   0  0  0  0  0  0  0  0  0  0  0  0
   -2.9173   -2.5416   -3.9536 H   0  0  0  0  0  0  0  0  0  0  0  0
   -2.3748   -0.9369   -4.4797 H   0  0  0  0  0  0  0  0  0  0  0  0
   -5.1421   -2.0896   -3.2330 H   0  0  0  0  0  0  0  0  0  0  0  0
   -5.8700    0.7083   -0.0583 H   0  0  0  0  0  0  0  0  0  0  0  0
   -1.4503    1.1567   -0.0266 H   0  0  0  0  0  0  0  0  0  0  0  0
   -3.1053    3.8013    2.0511 H   0  0  0  0  0  0  0  0  0  0  0  0
   -1.7749    5.2717    3.4871 H   0  0  0  0  0  0  0  0  0  0  0  0
    0.6856    4.9988    3.6333 H   0  0  0  0  0  0  0  0  0  0  0  0
    1.8158    3.2379    2.3473 H   0  0  0  0  0  0  0  0  0  0  0  0
    1.7157    1.4778   -1.0935 H   0  0  0  0  0  0  0  0  0  0  0  0
    2.0015    2.8985   -0.1099 H   0  0  0  0  0  0  0  0  0  0  0  0
    3.9780    1.3807   -0.1076 H   0  0  0  0  0  0  0  0  0  0  0  0
    3.3127    1.4810    1.5254 H   0  0  0  0  0  0  0  0  0  0  0  0
    5.2338   -2.8042    2.4259 H   0  0  0  0  0  0  0  0  0  0  0  0
    5.1184   -5.2838    2.3801 H   0  0  0  0  0  0  0  0  0  0  0  0
    3.8751   -6.4355    0.5669 H   0  0  0  0  0  0  0  0  0  0  0  0
    2.7632   -5.1155   -1.2155 H   0  0  0  0  0  0  0  0  0  0  0  0
    2.8882   -2.6402   -1.1893 H   0  0  0  0  0  0  0  0  0  0  0  0
    1.6500   -1.7375    1.4411 H   0  0  0  0  0  0  0  0  0  0  0  0
    1.1943   -1.1065   -0.1580 H   0  0  0  0  0  0  0  0  0  0  0  0
   -0.2904   -0.2184    1.6361 H   0  0  0  0  0  0  0  0  0  0  0  0
    1.1196    0.4396    2.4886 H   0  0  0  0  0  0  0  0  0  0  0  0
  1  2  1  0
  2  3  1  0
  3  4  2  0
  4  5  1  0
  4  6  1  0
  6  7  2  0
  7  8  1  0
  7  9  1  0
  9 10  2  0
 10 11  1  0
 11 12  2  0
 11 13  1  0
 13 14  1  0
 14 15  2  0
 15 16  1  0
 16 17  2  0
 17 18  1  0
 18 19  2  0
 19 20  1  0
 20 21  1  0
 21 22  1  0
 22 23  1  0
 23 24  1  0
 24 25  2  0
 24 26  1  0
 26 27  2  0
 27 28  1  0
 28 29  2  0
 29 30  1  0
 30 31  2  0
 23 32  1  0
 32 33  1  0
 10  3  1  0
 19 14  1  0
 33 20  1  0
 31 26  1  0
  1 34  1  0
  1 35  1  0
  1 36  1  0
  5 37  1  0
  5 38  1  0
  5 39  1  0
  6 40  1  0
  9 41  1  0
 13 42  1  0
 15 43  1  0
 16 44  1  0
 17 45  1  0
 18 46  1  0
 21 47  1  0
 21 48  1  0
 22 49  1  0
 22 50  1  0
 27 51  1  0
 28 52  1  0
 29 53  1  0
 30 54  1  0
 31 55  1  0
 32 56  1  0
 32 57  1  0
 33 58  1  0
 33 59  1  0
M  END
$$$$
