
     RDKit          3D

 63 66  0  0  0  0  0  0  0  0999 V2000
    1.8420    4.2631   -0.9623 C   0  0  0  0  0  0  0  0  0  0  0  0
    2.2450    3.0260   -0.2066 C   0  0  0  0  0  0  0  0  0  0  0  0
    1.3891    2.4988    0.6225 N   0  0  0  0  0  0  0  0  0  0  0  0
    1.6953    1.3469    1.3530 N   0  0  0  0  0  0  0  0  0  0  0  0
    0.6415    0.8724    2.2465 C   0  0  0  0  0  0  0  0  0  0  0  0
    0.0017   -0.4396    1.8036 C   0  0  0  0  0  0  0  0  0  0  0  0
   -0.9176   -0.2886    0.6101 C   0  0  0  0  0  0  0  0  0  0  0  0
   -1.3011    0.7851    0.1630 O   0  0  0  0  0  0  0  0  0  0  0  0
   -1.3144   -1.5058    0.0942 N   0  0  0  0  0  0  0  0  0  0  0  0
   -2.2716   -1.5984   -0.9837 C   0  0  0  0  0  0  0  0  0  0  0  0
   -3.6667   -1.8113   -0.4556 C   0  0  0  0  0  0  0  0  0  0  0  0
   -4.2007   -3.1015   -0.3246 C   0  0  0  0  0  0  0  0  0  0  0  0
   -5.4967   -3.2942    0.1734 C   0  0  0  0  0  0  0  0  0  0  0  0
   -6.2743   -2.1981    0.5482 C   0  0  0  0  0  0  0  0  0  0  0  0
   -7.5459   -2.2351    1.0461 O   0  0  0  0  0  0  0  0  0  0  0  0
   -8.2819   -3.4621    0.9986 C   0  0  0  0  0  0  0  0  0  0  0  0
   -8.0851   -4.2314    2.3062 C   0  0  0  0  0  0  0  0  0  0  0  0
   -9.7513   -3.0825    0.8279 C   0  0  0  0  0  0  0  0  0  0  0  0
   -5.7358   -0.9124    0.4399 C   0  0  0  0  0  0  0  0  0  0  0  0
   -4.4442   -0.7174   -0.0547 C   0  0  0  0  0  0  0  0  0  0  0  0
    2.9311    0.6675    1.3125 C   0  0  0  0  0  0  0  0  0  0  0  0
    3.1797   -0.3300    1.9887 O   0  0  0  0  0  0  0  0  0  0  0  0
    3.8733    1.2696    0.3771 C   0  0  0  0  0  0  0  0  0  0  0  0
    5.0979    0.8223    0.0835 N   0  0  0  0  0  0  0  0  0  0  0  0
    5.6167    1.7530   -0.7658 N   0  0  0  0  0  0  0  0  0  0  0  0
    7.0057    1.6858   -1.0937 C   0  0  0  0  0  0  0  0  0  0  0  0
    7.7020    0.4831   -0.8766 C   0  0  0  0  0  0  0  0  0  0  0  0
    9.0613    0.3854   -1.1855 C   0  0  0  0  0  0  0  0  0  0  0  0
    9.7423    1.4884   -1.6949 C   0  0  0  0  0  0  0  0  0  0  0  0
    9.0686    2.6941   -1.8822 C   0  0  0  0  0  0  0  0  0  0  0  0
    7.7075    2.7968   -1.5784 C   0  0  0  0  0  0  0  0  0  0  0  0
    4.6331    2.6612   -1.1763 C   0  0  0  0  0  0  0  0  0  0  0  0
    4.7743    3.6167   -2.3049 C   0  0  0  0  0  0  0  0  0  0  0  0
    3.5405    2.4103   -0.3636 C   0  0  0  0  0  0  0  0  0  0  0  0
    2.6192    5.0283   -0.8833 H   0  0  0  0  0  0  0  0  0  0  0  0
    0.9123    4.6703   -0.5514 H   0  0  0  0  0  0  0  0  0  0  0  0
    1.6760    4.0123   -2.0152 H   0  0  0  0  0  0  0  0  0  0  0  0
   -0.1106    1.6618    2.3607 H   0  0  0  0  0  0  0  0  0  0  0  0
    1.1013    0.7226    3.2309 H   0  0  0  0  0  0  0  0  0  0  0  0
   -0.6120   -0.8250    2.6292 H   0  0  0  0  0  0  0  0  0  0  0  0
    0.7627   -1.1939    1.5719 H   0  0  0  0  0  0  0  0  0  0  0  0
   -1.1226   -2.3448    0.6236 H   0  0  0  0  0  0  0  0  0  0  0  0
   -1.9705   -2.4430   -1.6134 H   0  0  0  0  0  0  0  0  0  0  0  0
   -2.2342   -0.7009   -1.6114 H   0  0  0  0  0  0  0  0  0  0  0  0
   -3.6113   -3.9711   -0.6121 H   0  0  0  0  0  0  0  0  0  0  0  0
   -5.8605   -4.3138    0.2644 H   0  0  0  0  0  0  0  0  0  0  0  0
   -8.0029   -4.0782    0.1342 H   0  0  0  0  0  0  0  0  0  0  0  0
   -8.6778   -5.1521    2.3197 H   0  0  0  0  0  0  0  0  0  0  0  0
   -8.3770   -3.6168    3.1679 H   0  0  0  0  0  0  0  0  0  0  0  0
   -7.0305   -4.4993    2.4533 H   0  0  0  0  0  0  0  0  0  0  0  0
  -10.3915   -3.9718    0.7978 H   0  0  0  0  0  0  0  0  0  0  0  0
  -10.0892   -2.4318    1.6417 H   0  0  0  0  0  0  0  0  0  0  0  0
   -9.8902   -2.5183   -0.1021 H   0  0  0  0  0  0  0  0  0  0  0  0
   -6.3302   -0.0515    0.7419 H   0  0  0  0  0  0  0  0  0  0  0  0
   -4.0456    0.2948   -0.1245 H   0  0  0  0  0  0  0  0  0  0  0  0
    7.1942   -0.3947   -0.4778 H   0  0  0  0  0  0  0  0  0  0  0  0
    9.5877   -0.5523   -1.0237 H   0  0  0  0  0  0  0  0  0  0  0  0
   10.8008    1.4138   -1.9297 H   0  0  0  0  0  0  0  0  0  0  0  0
    9.6071    3.5635   -2.2517 H   0  0  0  0  0  0  0  0  0  0  0  0
    7.2453    3.7720   -1.6815 H   0  0  0  0  0  0  0  0  0  0  0  0
    3.8199    3.7428   -2.8254 H   0  0  0  0  0  0  0  0  0  0  0  0
    5.0949    4.5982   -1.9425 H   0  0  0  0  0  0  0  0  0  0  0  0
    5.4738    3.2609   -3.0660 H   0  0  0  0  0  0  0  0  0  0  0  0
  1  2  1  0
  2  3  2  0
  3  4  1  0
  4  5  1  0
  5  6  1  0
  6  7  1  0
  7  8  2  0
  7  9  1  0
  9 10  1  0
 10 11  1  0
 11 12  2  0
 12 13  1  0
 13 14  2  0
 14 15  1  0
 15 16  1  0
 16 17  1  0
 16 18  1  0
 14 19  1  0
 19 20  2  0
  4 21  1  0
 21 22  2  0
 21 23  1  0
 23 24  2  0
 24 25  1  0
 25 26  1  0
 26 27  2  0
 27 28  1  0
 28 29  2  0
 29 30  1  0
 30 31  2  0
 25 32  1  0
 32 33  1  0
 32 34  2  0
 34  2  1  0
 20 11  1  0
 34 23  1  0
 31 26  1  0
  1 35  1  0
  1 36  1  0
  1 37  1  0
  5 38  1  0
  5 39  1  0
  6 40  1  0
  6 41  1  0
  9 42  1  0
 10 43  1  0
 10 44  1  0
 12 45  1  0
 13 46  1  0
 16 47  1  0
 17 48  1  0
 17 49  1  0
 17 50  1  0
 18 51  1  0
 18 52  1  0
 18 53  1  0
 19 54  1  0
 20 55  1  0
 27 56  1  0
 28 57  1  0
 29 58  1  0
 30 59  1  0
 31 60  1  0
 33 61  1  0
 33 62  1  0
 33 63  1  0
M  END
$$$$
