
     RDKit          3D

 48 50  0  0  0  0  0  0  0  0999 V2000
    6.9109    2.7595   -0.3775 C   0  0  0  0  0  0  0  0  0  0  0  0
    6.4816    1.3629   -0.1132 C   0  0  0  0  0  0  0  0  0  0  0  0
    7.2893    0.3103    0.2717 C   0  0  0  0  0  0  0  0  0  0  0  0
    6.3509   -1.1133    0.4341 S   0  0  0  0  0  0  0  0  0  0  0  0
    4.9640   -0.2403   -0.0172 C   0  0  0  0  0  0  0  0  0  0  0  0
    3.7157   -0.7970   -0.1118 N   0  0  0  0  0  0  0  0  0  0  0  0
    3.3649   -2.1081    0.1142 C   0  0  0  0  0  0  0  0  0  0  0  0
    4.0945   -3.0297    0.4599 O   0  0  0  0  0  0  0  0  0  0  0  0
    1.8779   -2.3389   -0.0495 C   0  0  0  0  0  0  0  0  0  0  0  0
    1.1651   -2.1964    1.2874 C   0  0  0  0  0  0  0  0  0  0  0  0
    1.1298   -0.7793    1.7005 N   0  0  0  0  0  0  0  0  0  0  0  0
   -0.1532   -0.2724    2.6732 S   0  0  0  0  0  6  0  0  0  0  0  0
   -0.6603   -1.4072    3.4067 O   0  0  0  0  0  0  0  0  0  0  0  0
    0.3061    0.9285    3.3352 O   0  0  0  0  0  0  0  0  0  0  0  0
   -1.3532    0.2109    1.4594 C   0  0  0  0  0  0  0  0  0  0  0  0
   -1.3972    1.5310    1.0122 C   0  0  0  0  0  0  0  0  0  0  0  0
   -2.3705    1.9163    0.0827 C   0  0  0  0  0  0  0  0  0  0  0  0
   -3.3111    0.9929   -0.4060 C   0  0  0  0  0  0  0  0  0  0  0  0
   -3.2477   -0.3212    0.0583 C   0  0  0  0  0  0  0  0  0  0  0  0
   -2.2825   -0.7186    0.9960 C   0  0  0  0  0  0  0  0  0  0  0  0
   -4.2088   -1.3112   -0.4509 C   0  0  0  0  0  0  0  0  0  0  0  0
   -4.0721   -2.4897   -0.1312 O   0  0  0  0  0  0  0  0  0  0  0  0
   -5.2052   -0.8384   -1.2896 N   0  0  0  0  0  0  0  0  0  0  0  0
   -6.1857   -1.7909   -1.7781 C   0  0  0  0  0  0  0  0  0  0  0  0
   -5.2604    0.4484   -1.8129 C   0  0  0  0  0  0  0  0  0  0  0  0
   -6.1061    0.7637   -2.6535 O   0  0  0  0  0  0  0  0  0  0  0  0
   -4.3097    1.3550   -1.3491 N   0  0  0  0  0  0  0  0  0  0  0  0
   -4.3608    2.7209   -1.8561 C   0  0  0  0  0  0  0  0  0  0  0  0
    5.1445    1.0340   -0.2726 N   0  0  0  0  0  0  0  0  0  0  0  0
    6.1090    3.4646   -0.1349 H   0  0  0  0  0  0  0  0  0  0  0  0
    7.7874    3.0251    0.2214 H   0  0  0  0  0  0  0  0  0  0  0  0
    7.1667    2.8800   -1.4352 H   0  0  0  0  0  0  0  0  0  0  0  0
    8.3540    0.3095    0.4549 H   0  0  0  0  0  0  0  0  0  0  0  0
    3.0111   -0.1276   -0.3955 H   0  0  0  0  0  0  0  0  0  0  0  0
    1.7427   -3.3539   -0.4415 H   0  0  0  0  0  0  0  0  0  0  0  0
    1.4624   -1.6512   -0.7966 H   0  0  0  0  0  0  0  0  0  0  0  0
    0.1472   -2.5812    1.1656 H   0  0  0  0  0  0  0  0  0  0  0  0
    1.6662   -2.7803    2.0671 H   0  0  0  0  0  0  0  0  0  0  0  0
    2.0040   -0.3808    2.0534 H   0  0  0  0  0  0  0  0  0  0  0  0
   -0.6872    2.2685    1.3837 H   0  0  0  0  0  0  0  0  0  0  0  0
   -2.3712    2.9553   -0.2363 H   0  0  0  0  0  0  0  0  0  0  0  0
   -2.2667   -1.7443    1.3606 H   0  0  0  0  0  0  0  0  0  0  0  0
   -7.1738   -1.3219   -1.8329 H   0  0  0  0  0  0  0  0  0  0  0  0
   -6.2529   -2.6719   -1.1332 H   0  0  0  0  0  0  0  0  0  0  0  0
   -5.8904   -2.1057   -2.7843 H   0  0  0  0  0  0  0  0  0  0  0  0
   -4.5246    3.4103   -1.0219 H   0  0  0  0  0  0  0  0  0  0  0  0
   -5.1739    2.8688   -2.5731 H   0  0  0  0  0  0  0  0  0  0  0  0
   -3.4205    2.9548   -2.3660 H   0  0  0  0  0  0  0  0  0  0  0  0
  1  2  1  0
  2  3  2  0
  3  4  1  0
  4  5  1  0
  5  6  1  0
  6  7  1  0
  7  8  2  0
  7  9  1  0
  9 10  1  0
 10 11  1  0
 11 12  1  0
 12 13  2  0
 12 14  2  0
 12 15  1  0
 15 16  2  0
 16 17  1  0
 17 18  2  0
 18 19  1  0
 19 20  2  0
 19 21  1  0
 21 22  2  0
 21 23  1  0
 23 24  1  0
 23 25  1  0
 25 26  2  0
 25 27  1  0
 27 28  1  0
  5 29  2  0
 29  2  1  0
 20 15  1  0
 27 18  1  0
  1 30  1  0
  1 31  1  0
  1 32  1  0
  3 33  1  0
  6 34  1  0
  9 35  1  0
  9 36  1  0
 10 37  1  0
 10 38  1  0
 11 39  1  0
 16 40  1  0
 17 41  1  0
 20 42  1  0
 24 43  1  0
 24 44  1  0
 24 45  1  0
 28 46  1  0
 28 47  1  0
 28 48  1  0
M  END
$$$$
