
     RDKit          3D

 52 56  0  0  0  0  0  0  0  0999 V2000
    2.1145    0.3989    1.0550 C   0  0  0  0  0  0  0  0  0  0  0  0
    2.4292   -0.6641    0.0259 C   0  0  0  0  0  0  0  0  0  0  0  0
    1.5595   -1.5185   -0.4283 N   0  0  0  0  0  0  0  0  0  0  0  0
    0.2793   -1.5094    0.0437 N   0  0  0  0  0  0  0  0  0  0  0  0
   -0.5920   -2.5303   -0.3313 C   0  0  0  0  0  0  0  0  0  0  0  0
   -0.2982   -3.4558   -1.0824 O   0  0  0  0  0  0  0  0  0  0  0  0
   -1.9192   -2.4338    0.2726 C   0  0  0  0  0  0  0  0  0  0  0  0
   -2.5719   -3.5376    0.7449 N   0  0  0  0  0  0  0  0  0  0  0  0
   -3.7377   -3.1568    1.2347 N   0  0  0  0  0  0  0  0  0  0  0  0
   -3.8794   -1.8125    1.0673 N   0  0  0  0  0  0  0  0  0  0  0  0
   -5.0384   -1.1358    1.5269 C   0  0  0  0  0  0  0  0  0  0  0  0
   -5.1570    0.1880    1.4207 N   0  0  0  0  0  0  0  0  0  0  0  0
   -6.3958    0.4661    1.9959 O   0  0  0  0  0  0  0  0  0  0  0  0
   -7.0154   -0.6942    2.4453 N   0  0  0  0  0  0  0  0  0  0  0  0
   -6.1768   -1.6857    2.1475 C   0  0  0  0  0  0  0  0  0  0  0  0
   -6.4126   -2.9845    2.4079 N   0  0  0  0  0  0  0  0  0  0  0  0
   -2.7386   -1.3222    0.4292 C   0  0  0  0  0  0  0  0  0  0  0  0
   -2.5422    0.0806   -0.0131 C   0  0  0  0  0  0  0  0  0  0  0  0
   -1.7428    1.0317    1.3207 S   0  0  0  0  0  0  0  0  0  0  0  0
   -1.7401    2.6448    0.5625 C   0  0  0  0  0  0  0  0  0  0  0  0
   -1.0110    2.8997   -0.6038 C   0  0  0  0  0  0  0  0  0  0  0  0
   -1.0177    4.1751   -1.1727 C   0  0  0  0  0  0  0  0  0  0  0  0
   -1.7475    5.2017   -0.5758 C   0  0  0  0  0  0  0  0  0  0  0  0
   -2.4673    4.9559    0.5921 C   0  0  0  0  0  0  0  0  0  0  0  0
   -2.4605    3.6814    1.1623 C   0  0  0  0  0  0  0  0  0  0  0  0
    3.8229   -0.7353   -0.5111 C   0  0  0  0  0  0  0  0  0  0  0  0
    4.9359   -0.4059    0.2929 C   0  0  0  0  0  0  0  0  0  0  0  0
    6.2344   -0.4792   -0.2244 C   0  0  0  0  0  0  0  0  0  0  0  0
    6.3828   -0.8902   -1.5312 C   0  0  0  0  0  0  0  0  0  0  0  0
    5.3023   -1.2260   -2.3124 C   0  0  0  0  0  0  0  0  0  0  0  0
    4.0112   -1.1655   -1.8334 C   0  0  0  0  0  0  0  0  0  0  0  0
    5.6685   -1.6088   -3.5649 O   0  0  0  0  0  0  0  0  0  0  0  0
    7.1037   -1.4954   -3.4767 C   0  0  0  0  0  0  0  0  0  0  0  0
    7.5631   -1.0216   -2.1929 O   0  0  0  0  0  0  0  0  0  0  0  0
    2.9420    1.0933    1.2112 H   0  0  0  0  0  0  0  0  0  0  0  0
    1.8632   -0.0758    2.0072 H   0  0  0  0  0  0  0  0  0  0  0  0
    1.2683    0.9946    0.7062 H   0  0  0  0  0  0  0  0  0  0  0  0
    0.0125   -0.8572    0.7729 H   0  0  0  0  0  0  0  0  0  0  0  0
   -7.1775   -3.2424    3.0223 H   0  0  0  0  0  0  0  0  0  0  0  0
   -5.6808   -3.6886    2.3179 H   0  0  0  0  0  0  0  0  0  0  0  0
   -3.4743    0.5557   -0.3287 H   0  0  0  0  0  0  0  0  0  0  0  0
   -1.8889    0.0938   -0.8929 H   0  0  0  0  0  0  0  0  0  0  0  0
   -0.4244    2.1176   -1.0789 H   0  0  0  0  0  0  0  0  0  0  0  0
   -0.4506    4.3691   -2.0798 H   0  0  0  0  0  0  0  0  0  0  0  0
   -1.7523    6.1948   -1.0185 H   0  0  0  0  0  0  0  0  0  0  0  0
   -3.0338    5.7567    1.0608 H   0  0  0  0  0  0  0  0  0  0  0  0
   -3.0269    3.5059    2.0744 H   0  0  0  0  0  0  0  0  0  0  0  0
    4.8104   -0.1137    1.3320 H   0  0  0  0  0  0  0  0  0  0  0  0
    7.0982   -0.2322    0.3830 H   0  0  0  0  0  0  0  0  0  0  0  0
    3.1749   -1.4463   -2.4659 H   0  0  0  0  0  0  0  0  0  0  0  0
    7.4486   -0.8000   -4.2507 H   0  0  0  0  0  0  0  0  0  0  0  0
    7.5463   -2.4802   -3.6660 H   0  0  0  0  0  0  0  0  0  0  0  0
  1  2  1  0
  2  3  2  3
  3  4  1  0
  4  5  1  0
  5  6  2  0
  5  7  1  0
  7  8  1  0
  8  9  2  0
  9 10  1  0
 10 11  1  0
 11 12  2  0
 12 13  1  0
 13 14  1  0
 14 15  2  0
 15 16  1  0
 10 17  1  0
 17 18  1  0
 18 19  1  0
 19 20  1  0
 20 21  2  0
 21 22  1  0
 22 23  2  0
 23 24  1  0
 24 25  2  0
  2 26  1  0
 26 27  2  0
 27 28  1  0
 28 29  2  0
 29 30  1  0
 30 31  2  0
 30 32  1  0
 32 33  1  0
 33 34  1  0
 17  7  2  0
 25 20  1  0
 31 26  1  0
 15 11  1  0
 34 29  1  0
  1 35  1  0
  1 36  1  0
  1 37  1  0
  4 38  1  0
 16 39  1  0
 16 40  1  0
 18 41  1  0
 18 42  1  0
 21 43  1  0
 22 44  1  0
 23 45  1  0
 24 46  1  0
 25 47  1  0
 27 48  1  0
 28 49  1  0
 31 50  1  0
 33 51  1  0
 33 52  1  0
M  END
$$$$
