
     RDKit          3D

 59 64  0  0  0  0  0  0  0  0999 V2000
    3.2872   -2.9550   -3.6172 C   0  0  0  0  0  0  0  0  0  0  0  0
    2.5935   -1.7120   -3.7587 O   0  0  0  0  0  0  0  0  0  0  0  0
    2.8461   -0.8294   -2.7375 C   0  0  0  0  0  0  0  0  0  0  0  0
    4.1735   -0.4887   -2.4169 C   0  0  0  0  0  0  0  0  0  0  0  0
    4.4098    0.5393   -1.4860 C   0  0  0  0  0  0  0  0  0  0  0  0
    3.3145    1.2064   -0.9521 C   0  0  0  0  0  0  0  0  0  0  0  0
    1.9885    0.9134   -1.2623 C   0  0  0  0  0  0  0  0  0  0  0  0
    1.7627   -0.1535   -2.1466 C   0  0  0  0  0  0  0  0  0  0  0  0
    0.4123   -0.4495   -2.4286 N   0  0  0  0  0  0  0  0  0  0  0  0
   -0.1086   -1.7189   -2.6254 C   0  0  0  0  0  0  0  0  0  0  0  0
    0.4787   -2.7817   -2.4233 O   0  0  0  0  0  0  0  0  0  0  0  0
   -1.5531   -1.6964   -3.1033 C   0  0  0  0  0  0  0  0  0  0  0  0
   -2.7133   -1.9269   -1.7236 S   0  0  0  0  0  0  0  0  0  0  0  0
   -2.7256   -0.3473   -1.0251 C   0  0  0  0  0  0  0  0  0  0  0  0
   -1.9024    0.6279   -1.3358 N   0  0  0  0  0  0  0  0  0  0  0  0
   -2.2469    1.7143   -0.5735 N   0  0  0  0  0  0  0  0  0  0  0  0
   -3.2757    1.3850    0.1869 C   0  0  0  0  0  0  0  0  0  0  0  0
   -3.9574    2.2973    1.1571 C   0  0  0  0  0  0  0  0  0  0  0  0
   -3.8230    1.8836    2.5938 C   0  0  0  0  0  0  0  0  0  0  0  0
   -4.8250    1.5452    3.4791 C   0  0  0  0  0  0  0  0  0  0  0  0
   -4.3149    1.1742    4.7553 C   0  0  0  0  0  0  0  0  0  0  0  0
   -2.9440    1.2756    4.8124 C   0  0  0  0  0  0  0  0  0  0  0  0
   -2.2783    1.8143    3.3399 S   0  0  0  0  0  0  0  0  0  0  0  0
   -3.6238    0.0771   -0.0850 N   0  0  0  0  0  0  0  0  0  0  0  0
   -4.7566   -0.6570    0.4393 C   0  0  0  0  0  0  0  0  0  0  0  0
   -4.4101   -1.5073    1.6043 C   0  0  0  0  0  0  0  0  0  0  0  0
   -3.2356   -1.9255    2.1990 C   0  0  0  0  0  0  0  0  0  0  0  0
   -3.6063   -2.7417    3.2905 C   0  0  0  0  0  0  0  0  0  0  0  0
   -4.9795   -2.7780    3.2923 C   0  0  0  0  0  0  0  0  0  0  0  0
   -5.4768   -2.0243    2.2816 O   0  0  0  0  0  0  0  0  0  0  0  0
    3.7207    2.1803   -0.0947 O   0  0  0  0  0  0  0  0  0  0  0  0
    5.0808    2.1424   -0.0630 C   0  0  0  0  0  0  0  0  0  0  0  0
    5.8893    2.9763    0.7037 C   0  0  0  0  0  0  0  0  0  0  0  0
    7.2701    2.7738    0.6056 C   0  0  0  0  0  0  0  0  0  0  0  0
    7.7949    1.7860   -0.2279 C   0  0  0  0  0  0  0  0  0  0  0  0
    6.9552    0.9647   -0.9933 C   0  0  0  0  0  0  0  0  0  0  0  0
    5.5616    1.1476   -0.9043 C   0  0  0  0  0  0  0  0  0  0  0  0
    4.2792   -2.8849   -4.0745 H   0  0  0  0  0  0  0  0  0  0  0  0
    2.7260   -3.7209   -4.1601 H   0  0  0  0  0  0  0  0  0  0  0  0
    3.3622   -3.2751   -2.5727 H   0  0  0  0  0  0  0  0  0  0  0  0
    5.0095   -0.9772   -2.9014 H   0  0  0  0  0  0  0  0  0  0  0  0
    1.1806    1.4743   -0.8073 H   0  0  0  0  0  0  0  0  0  0  0  0
   -0.2712    0.2358   -2.1005 H   0  0  0  0  0  0  0  0  0  0  0  0
   -1.7715   -0.7758   -3.6585 H   0  0  0  0  0  0  0  0  0  0  0  0
   -1.6827   -2.5291   -3.8074 H   0  0  0  0  0  0  0  0  0  0  0  0
   -5.0140    2.3695    0.8868 H   0  0  0  0  0  0  0  0  0  0  0  0
   -3.5524    3.3095    1.0440 H   0  0  0  0  0  0  0  0  0  0  0  0
   -5.8785    1.5316    3.2185 H   0  0  0  0  0  0  0  0  0  0  0  0
   -4.9213    0.8466    5.5871 H   0  0  0  0  0  0  0  0  0  0  0  0
   -2.2951    1.0599    5.6488 H   0  0  0  0  0  0  0  0  0  0  0  0
   -5.5305    0.0708    0.7213 H   0  0  0  0  0  0  0  0  0  0  0  0
   -5.1835   -1.2588   -0.3724 H   0  0  0  0  0  0  0  0  0  0  0  0
   -2.2291   -1.6729    1.8895 H   0  0  0  0  0  0  0  0  0  0  0  0
   -2.9526   -3.2426    3.9861 H   0  0  0  0  0  0  0  0  0  0  0  0
   -5.7151   -3.2583    3.9176 H   0  0  0  0  0  0  0  0  0  0  0  0
    5.4633    3.7329    1.3488 H   0  0  0  0  0  0  0  0  0  0  0  0
    7.9422    3.3947    1.1929 H   0  0  0  0  0  0  0  0  0  0  0  0
    8.8724    1.6409   -0.2806 H   0  0  0  0  0  0  0  0  0  0  0  0
    7.3796    0.1976   -1.6337 H   0  0  0  0  0  0  0  0  0  0  0  0
  1  2  1  0
  2  3  1  0
  3  4  2  0
  4  5  1  0
  5  6  2  0
  6  7  1  0
  7  8  2  0
  8  9  1  0
  9 10  1  0
 10 11  2  0
 10 12  1  0
 12 13  1  0
 13 14  1  0
 14 15  2  0
 15 16  1  0
 16 17  2  0
 17 18  1  0
 18 19  1  0
 19 20  2  0
 20 21  1  0
 21 22  2  0
 22 23  1  0
 17 24  1  0
 24 25  1  0
 25 26  1  0
 26 27  2  0
 27 28  1  0
 28 29  2  0
 29 30  1  0
  6 31  1  0
 31 32  1  0
 32 33  2  0
 33 34  1  0
 34 35  2  0
 35 36  1  0
 36 37  2  0
  8  3  1  0
 24 14  1  0
 30 26  1  0
 37 32  1  0
 37  5  1  0
 23 19  1  0
  1 38  1  0
  1 39  1  0
  1 40  1  0
  4 41  1  0
  7 42  1  0
  9 43  1  0
 12 44  1  0
 12 45  1  0
 18 46  1  0
 18 47  1  0
 20 48  1  0
 21 49  1  0
 22 50  1  0
 25 51  1  0
 25 52  1  0
 27 53  1  0
 28 54  1  0
 29 55  1  0
 33 56  1  0
 34 57  1  0
 35 58  1  0
 36 59  1  0
M  END
$$$$
