
     RDKit          3D

 43 46  0  0  0  0  0  0  0  0999 V2000
    6.4346    1.7176    1.2888 C   0  0  0  0  0  0  0  0  0  0  0  0
    5.0455    1.3570    0.8483 C   0  0  0  0  0  0  0  0  0  0  0  0
    4.0955    2.3569    0.6205 C   0  0  0  0  0  0  0  0  0  0  0  0
    2.7922    2.0251    0.2387 C   0  0  0  0  0  0  0  0  0  0  0  0
    2.4214    0.6836    0.0883 C   0  0  0  0  0  0  0  0  0  0  0  0
    0.9539    0.3208   -0.3385 C   0  0  0  0  0  0  0  0  0  0  0  0
   -0.0889    1.2161   -0.5480 C   0  0  0  0  0  0  0  0  0  0  0  0
   -1.2444    0.5026   -0.8734 N   0  0  0  0  0  4  0  0  0  0  0  0
   -2.5612    1.0597   -1.1707 C   0  0  0  0  0  0  0  0  0  0  0  0
   -3.5628    0.5527   -0.1625 C   0  0  0  0  0  0  0  0  0  0  0  0
   -4.7549   -0.0529   -0.5848 C   0  0  0  0  0  0  0  0  0  0  0  0
   -5.6847   -0.5184    0.3508 C   0  0  0  0  0  0  0  0  0  0  0  0
   -5.4412   -0.3831    1.7206 C   0  0  0  0  0  0  0  0  0  0  0  0
   -6.6282   -0.9920    2.8148 Cl  0  0  0  0  0  0  0  0  0  0  0  0
   -4.2635    0.2303    2.1543 C   0  0  0  0  0  0  0  0  0  0  0  0
   -3.8807    0.4348    3.8252 Cl  0  0  0  0  0  0  0  0  0  0  0  0
   -3.3349    0.7000    1.2165 C   0  0  0  0  0  0  0  0  0  0  0  0
   -0.9188   -0.7862   -0.8893 C   0  0  0  0  0  0  0  0  0  0  0  0
    0.3715   -0.9081   -0.5935 N   0  0  0  0  0  0  0  0  0  0  0  0
    0.8039   -2.2985   -0.6110 C   0  0  0  0  0  0  0  0  0  0  0  0
   -0.3817   -3.0379   -1.2909 C   0  0  0  0  0  0  0  0  0  0  0  0
   -1.5842   -2.0840   -1.1487 C   0  0  0  0  0  0  0  0  0  0  0  0
    3.3611   -0.3176    0.3350 C   0  0  0  0  0  0  0  0  0  0  0  0
    4.6646    0.0185    0.7157 C   0  0  0  0  0  0  0  0  0  0  0  0
    7.1470    0.9257    1.0336 H   0  0  0  0  0  0  0  0  0  0  0  0
    6.7729    2.6322    0.7910 H   0  0  0  0  0  0  0  0  0  0  0  0
    6.4548    1.8727    2.3717 H   0  0  0  0  0  0  0  0  0  0  0  0
    4.3689    3.4049    0.7408 H   0  0  0  0  0  0  0  0  0  0  0  0
    2.0968    2.8414    0.0673 H   0  0  0  0  0  0  0  0  0  0  0  0
   -0.1609    2.2889   -0.4884 H   0  0  0  0  0  0  0  0  0  0  0  0
   -2.8262    0.7573   -2.1900 H   0  0  0  0  0  0  0  0  0  0  0  0
   -2.5221    2.1540   -1.1381 H   0  0  0  0  0  0  0  0  0  0  0  0
   -4.9834   -0.1668   -1.6443 H   0  0  0  0  0  0  0  0  0  0  0  0
   -6.6062   -0.9854    0.0054 H   0  0  0  0  0  0  0  0  0  0  0  0
   -2.4262    1.1836    1.5716 H   0  0  0  0  0  0  0  0  0  0  0  0
    1.7222   -2.4168   -1.1900 H   0  0  0  0  0  0  0  0  0  0  0  0
    0.9429   -2.6379    0.4192 H   0  0  0  0  0  0  0  0  0  0  0  0
   -0.5676   -4.0258   -0.8615 H   0  0  0  0  0  0  0  0  0  0  0  0
   -0.1540   -3.1708   -2.3552 H   0  0  0  0  0  0  0  0  0  0  0  0
   -2.1913   -2.3077   -0.2690 H   0  0  0  0  0  0  0  0  0  0  0  0
   -2.1855   -2.0026   -2.0549 H   0  0  0  0  0  0  0  0  0  0  0  0
    3.1188   -1.3694    0.2575 H   0  0  0  0  0  0  0  0  0  0  0  0
    5.3850   -0.7745    0.9127 H   0  0  0  0  0  0  0  0  0  0  0  0
  1  2  1  0
  2  3  2  0
  3  4  1  0
  4  5  2  0
  5  6  1  0
  6  7  2  0
  7  8  1  0
  8  9  1  0
  9 10  1  0
 10 11  2  0
 11 12  1  0
 12 13  2  0
 13 14  1  0
 13 15  1  0
 15 16  1  0
 15 17  2  0
  8 18  2  0
 18 19  1  0
 19 20  1  0
 20 21  1  0
 21 22  1  0
  5 23  1  0
 23 24  2  0
 24  2  1  0
 19  6  1  0
 17 10  1  0
 22 18  1  0
  1 25  1  0
  1 26  1  0
  1 27  1  0
  3 28  1  0
  4 29  1  0
  7 30  1  0
  9 31  1  0
  9 32  1  0
 11 33  1  0
 12 34  1  0
 17 35  1  0
 20 36  1  0
 20 37  1  0
 21 38  1  0
 21 39  1  0
 22 40  1  0
 22 41  1  0
 23 42  1  0
 24 43  1  0
M  CHG  1   8   1
M  END
$$$$
