
     RDKit          3D

 40 42  0  0  0  0  0  0  0  0999 V2000
   -4.6160   -2.3381    0.2070 C   0  0  0  0  0  0  0  0  0  0  0  0
   -3.4472   -1.4684    0.3087 N   0  0  0  0  0  0  0  0  0  0  0  0
   -2.4110   -1.8956    1.1546 C   0  0  0  0  0  0  0  0  0  0  0  0
   -2.5547   -2.7652    2.0150 O   0  0  0  0  0  0  0  0  0  0  0  0
   -1.0292   -1.3798    0.9542 C   0  0  0  0  0  0  0  0  0  0  0  0
   -0.2343   -1.1264    2.0761 C   0  0  0  0  0  0  0  0  0  0  0  0
    1.0764   -0.6594    1.9221 C   0  0  0  0  0  0  0  0  0  0  0  0
    1.6113   -0.4595    0.6476 C   0  0  0  0  0  0  0  0  0  0  0  0
    2.9150    0.0089    0.4053 N   0  0  0  0  0  0  0  0  0  0  0  0
    3.8835    0.3767    1.3230 C   0  0  0  0  0  0  0  0  0  0  0  0
    3.7536    0.3608    2.5424 O   0  0  0  0  0  0  0  0  0  0  0  0
    5.1170    0.8058    0.6862 C   0  0  0  0  0  0  0  0  0  0  0  0
    6.3133    1.2441    1.2221 C   0  0  0  0  0  0  0  0  0  0  0  0
    7.1696    1.5294    0.1321 C   0  0  0  0  0  0  0  0  0  0  0  0
    6.4486    1.2499   -1.0043 C   0  0  0  0  0  0  0  0  0  0  0  0
    5.2036    0.8111   -0.6845 O   0  0  0  0  0  0  0  0  0  0  0  0
    0.8198   -0.7455   -0.4733 C   0  0  0  0  0  0  0  0  0  0  0  0
   -0.4905   -1.2114   -0.3246 C   0  0  0  0  0  0  0  0  0  0  0  0
   -3.5381   -0.1729   -0.3011 C   0  0  0  0  0  0  0  0  0  0  0  0
   -2.9174    0.9510    0.2633 C   0  0  0  0  0  0  0  0  0  0  0  0
   -3.0232    2.2116   -0.3339 C   0  0  0  0  0  0  0  0  0  0  0  0
   -3.7642    2.3727   -1.4999 C   0  0  0  0  0  0  0  0  0  0  0  0
   -4.4077    1.2755   -2.0629 C   0  0  0  0  0  0  0  0  0  0  0  0
   -4.3016    0.0157   -1.4640 C   0  0  0  0  0  0  0  0  0  0  0  0
   -4.6645   -2.7558   -0.8033 H   0  0  0  0  0  0  0  0  0  0  0  0
   -5.5251   -1.7686    0.4267 H   0  0  0  0  0  0  0  0  0  0  0  0
   -4.5661   -3.1773    0.9065 H   0  0  0  0  0  0  0  0  0  0  0  0
   -0.6318   -1.2915    3.0757 H   0  0  0  0  0  0  0  0  0  0  0  0
    1.6533   -0.4707    2.8223 H   0  0  0  0  0  0  0  0  0  0  0  0
    3.2016    0.0998   -0.5638 H   0  0  0  0  0  0  0  0  0  0  0  0
    6.5277    1.3405    2.2783 H   0  0  0  0  0  0  0  0  0  0  0  0
    8.1869    1.8935    0.1701 H   0  0  0  0  0  0  0  0  0  0  0  0
    6.6679    1.3077   -2.0617 H   0  0  0  0  0  0  0  0  0  0  0  0
    1.2114   -0.6132   -1.4790 H   0  0  0  0  0  0  0  0  0  0  0  0
   -1.0792   -1.4426   -1.2085 H   0  0  0  0  0  0  0  0  0  0  0  0
   -2.3739    0.8852    1.2014 H   0  0  0  0  0  0  0  0  0  0  0  0
   -2.5350    3.0685    0.1238 H   0  0  0  0  0  0  0  0  0  0  0  0
   -3.8485    3.3528   -1.9621 H   0  0  0  0  0  0  0  0  0  0  0  0
   -4.9939    1.3966   -2.9703 H   0  0  0  0  0  0  0  0  0  0  0  0
   -4.8074   -0.8157   -1.9460 H   0  0  0  0  0  0  0  0  0  0  0  0
  1  2  1  0
  2  3  1  0
  3  4  2  0
  3  5  1  0
  5  6  2  0
  6  7  1  0
  7  8  2  0
  8  9  1  0
  9 10  1  0
 10 11  2  0
 10 12  1  0
 12 13  2  0
 13 14  1  0
 14 15  2  0
 15 16  1  0
  8 17  1  0
 17 18  2  0
  2 19  1  0
 19 20  2  0
 20 21  1  0
 21 22  2  0
 22 23  1  0
 23 24  2  0
 18  5  1  0
 24 19  1  0
 16 12  1  0
  1 25  1  0
  1 26  1  0
  1 27  1  0
  6 28  1  0
  7 29  1  0
  9 30  1  0
 13 31  1  0
 14 32  1  0
 15 33  1  0
 17 34  1  0
 18 35  1  0
 20 36  1  0
 21 37  1  0
 22 38  1  0
 23 39  1  0
 24 40  1  0
M  END
$$$$
