
     RDKit          3D

 51 55  0  0  0  0  0  0  0  0999 V2000
    4.1252   -1.0841   -2.3487 F   0  0  0  0  0  0  0  0  0  0  0  0
    5.0141   -0.4760   -1.5491 C   0  0  0  0  0  0  0  0  0  0  0  0
    5.9560    0.3714   -2.1271 C   0  0  0  0  0  0  0  0  0  0  0  0
    6.8992    1.0076   -1.3231 C   0  0  0  0  0  0  0  0  0  0  0  0
    6.8947    0.7894    0.0543 C   0  0  0  0  0  0  0  0  0  0  0  0
    5.9470   -0.0626    0.6285 C   0  0  0  0  0  0  0  0  0  0  0  0
    4.9894   -0.7051   -0.1702 C   0  0  0  0  0  0  0  0  0  0  0  0
    3.9626   -1.6260    0.4418 C   0  0  0  0  0  0  0  0  0  0  0  0
    2.9316   -0.9181    1.3450 C   0  0  0  0  0  0  0  0  0  0  0  0
    2.0898    0.0863    0.6722 N   0  0  0  0  0  0  0  0  0  0  0  0
    1.2496    0.8311    1.6376 C   0  0  0  0  0  0  0  0  0  0  0  0
   -0.2276    0.3915    1.6915 C   0  0  0  0  0  0  0  0  0  0  0  0
   -0.8714    0.5314    0.3744 N   0  0  0  0  0  0  0  0  0  0  0  0
   -2.2496    0.3733    0.2703 C   0  0  0  0  0  0  0  0  0  0  0  0
   -2.8791   -0.1936    1.2717 N   0  0  0  0  0  0  0  0  0  0  0  0
   -4.2668   -0.4223    1.2179 C   0  0  0  0  0  0  0  0  0  0  0  0
   -4.8786   -1.0457    2.3074 C   0  0  0  0  0  0  0  0  0  0  0  0
   -6.2511   -1.3082    2.3017 C   0  0  0  0  0  0  0  0  0  0  0  0
   -7.0277   -0.9480    1.2000 C   0  0  0  0  0  0  0  0  0  0  0  0
   -6.4373   -0.3235    0.1007 C   0  0  0  0  0  0  0  0  0  0  0  0
   -5.0627   -0.0681    0.1211 C   0  0  0  0  0  0  0  0  0  0  0  0
   -4.3904    0.5688   -0.9343 N   0  0  0  0  0  0  0  0  0  0  0  0
   -4.8919    1.0562   -2.1180 C   0  0  0  0  0  0  0  0  0  0  0  0
   -3.8647    1.6685   -2.8009 C   0  0  0  0  0  0  0  0  0  0  0  0
   -2.6994    1.5328   -2.0114 C   0  0  0  0  0  0  0  0  0  0  0  0
   -3.0340    0.8118   -0.8774 C   0  0  0  0  0  0  0  0  0  0  0  0
    0.0224    0.3336   -0.7768 C   0  0  0  0  0  0  0  0  0  0  0  0
    1.2600   -0.5104   -0.3982 C   0  0  0  0  0  0  0  0  0  0  0  0
    5.9466    0.5283   -3.2007 H   0  0  0  0  0  0  0  0  0  0  0  0
    7.6357    1.6714   -1.7679 H   0  0  0  0  0  0  0  0  0  0  0  0
    7.6295    1.2848    0.6843 H   0  0  0  0  0  0  0  0  0  0  0  0
    5.9603   -0.2199    1.7045 H   0  0  0  0  0  0  0  0  0  0  0  0
    4.4987   -2.3723    1.0433 H   0  0  0  0  0  0  0  0  0  0  0  0
    3.4498   -2.2028   -0.3371 H   0  0  0  0  0  0  0  0  0  0  0  0
    2.2987   -1.6812    1.8172 H   0  0  0  0  0  0  0  0  0  0  0  0
    3.4827   -0.4280    2.1581 H   0  0  0  0  0  0  0  0  0  0  0  0
    1.2805    1.8864    1.3355 H   0  0  0  0  0  0  0  0  0  0  0  0
    1.6758    0.8028    2.6479 H   0  0  0  0  0  0  0  0  0  0  0  0
   -0.2929   -0.6489    2.0336 H   0  0  0  0  0  0  0  0  0  0  0  0
   -0.7491    1.0205    2.4229 H   0  0  0  0  0  0  0  0  0  0  0  0
   -4.2754   -1.3293    3.1657 H   0  0  0  0  0  0  0  0  0  0  0  0
   -6.7117   -1.7943    3.1579 H   0  0  0  0  0  0  0  0  0  0  0  0
   -8.0955   -1.1534    1.1998 H   0  0  0  0  0  0  0  0  0  0  0  0
   -7.0621   -0.0499   -0.7428 H   0  0  0  0  0  0  0  0  0  0  0  0
   -5.9346    0.9537   -2.3809 H   0  0  0  0  0  0  0  0  0  0  0  0
   -3.9495    2.1689   -3.7570 H   0  0  0  0  0  0  0  0  0  0  0  0
   -1.7214    1.9262   -2.2509 H   0  0  0  0  0  0  0  0  0  0  0  0
    0.3427    1.3115   -1.1547 H   0  0  0  0  0  0  0  0  0  0  0  0
   -0.4961   -0.1892   -1.5883 H   0  0  0  0  0  0  0  0  0  0  0  0
    0.9064   -1.5058   -0.0958 H   0  0  0  0  0  0  0  0  0  0  0  0
    1.8714   -0.6413   -1.2966 H   0  0  0  0  0  0  0  0  0  0  0  0
  1  2  1  0
  2  3  2  0
  3  4  1  0
  4  5  2  0
  5  6  1  0
  6  7  2  0
  7  8  1  0
  8  9  1  0
  9 10  1  0
 10 11  1  0
 11 12  1  0
 12 13  1  0
 13 14  1  0
 14 15  2  0
 15 16  1  0
 16 17  2  0
 17 18  1  0
 18 19  2  0
 19 20  1  0
 20 21  2  0
 21 22  1  0
 22 23  1  0
 23 24  2  0
 24 25  1  0
 25 26  2  0
 13 27  1  0
 27 28  1  0
  7  2  1  0
 28 10  1  0
 26 14  1  0
 21 16  1  0
 26 22  1  0
  3 29  1  0
  4 30  1  0
  5 31  1  0
  6 32  1  0
  8 33  1  0
  8 34  1  0
  9 35  1  0
  9 36  1  0
 11 37  1  0
 11 38  1  0
 12 39  1  0
 12 40  1  0
 17 41  1  0
 18 42  1  0
 19 43  1  0
 20 44  1  0
 23 45  1  0
 24 46  1  0
 25 47  1  0
 27 48  1  0
 27 49  1  0
 28 50  1  0
 28 51  1  0
M  END
$$$$
