
     RDKit          3D

 50 52  0  0  0  0  0  0  0  0999 V2000
    5.3755    2.2613    0.0045 C   0  0  0  0  0  0  0  0  0  0  0  0
    6.2118    1.4296    0.8518 N   0  0  0  0  0  0  0  0  0  0  0  0
    5.8413    1.1832    2.4569 S   0  0  0  0  0  6  0  0  0  0  0  0
    6.8282    0.2578    2.9724 O   0  0  0  0  0  0  0  0  0  0  0  0
    5.6068    2.4719    3.0697 O   0  0  0  0  0  0  0  0  0  0  0  0
    4.2974    0.3135    2.3569 C   0  0  0  0  0  0  0  0  0  0  0  0
    4.3090   -1.0591    2.0822 C   0  0  0  0  0  0  0  0  0  0  0  0
    3.0990   -1.7616    2.0036 C   0  0  0  0  0  0  0  0  0  0  0  0
    1.8803   -1.0921    2.2001 C   0  0  0  0  0  0  0  0  0  0  0  0
    0.5700   -1.8023    2.1184 C   0  0  0  0  0  0  0  0  0  0  0  0
   -0.4318   -1.3395    2.6536 O   0  0  0  0  0  0  0  0  0  0  0  0
    0.5398   -2.9558    1.3629 N   0  0  0  0  0  0  0  0  0  0  0  0
   -0.7176   -3.6471    1.1446 C   0  0  0  0  0  0  0  0  0  0  0  0
   -1.4916   -2.9175    0.0487 C   0  0  0  0  0  0  0  0  0  0  0  0
   -1.2342   -3.0648   -1.1436 O   0  0  0  0  0  0  0  0  0  0  0  0
   -2.4041   -2.0044    0.5286 N   0  0  0  0  0  0  0  0  0  0  0  0
   -3.1503   -1.1186   -0.3516 C   0  0  0  0  0  0  0  0  0  0  0  0
   -2.3770    0.1659   -0.7190 C   0  0  0  0  0  0  0  0  0  0  0  0
   -1.6678    0.1112   -2.0731 C   0  0  0  0  0  0  0  0  0  0  0  0
   -2.5926   -0.0456   -3.1564 O   0  0  0  0  0  0  0  0  0  0  0  0
   -3.6631    0.8030   -3.0256 C   0  0  0  0  0  0  0  0  0  0  0  0
   -4.4641    0.9822   -4.1535 C   0  0  0  0  0  0  0  0  0  0  0  0
   -5.5665    1.8415   -4.0965 C   0  0  0  0  0  0  0  0  0  0  0  0
   -5.8642    2.5242   -2.9125 C   0  0  0  0  0  0  0  0  0  0  0  0
   -5.0672    2.3373   -1.7802 C   0  0  0  0  0  0  0  0  0  0  0  0
   -3.9796    1.4632   -1.8315 C   0  0  0  0  0  0  0  0  0  0  0  0
   -3.2714    1.2979   -0.6687 O   0  0  0  0  0  0  0  0  0  0  0  0
    1.8850    0.2776    2.5090 C   0  0  0  0  0  0  0  0  0  0  0  0
    3.0937    0.9845    2.5899 C   0  0  0  0  0  0  0  0  0  0  0  0
    4.6521    1.6381   -0.5296 H   0  0  0  0  0  0  0  0  0  0  0  0
    4.8500    3.0311    0.5733 H   0  0  0  0  0  0  0  0  0  0  0  0
    6.0060    2.7662   -0.7341 H   0  0  0  0  0  0  0  0  0  0  0  0
    6.8874    0.7859    0.4414 H   0  0  0  0  0  0  0  0  0  0  0  0
    5.2518   -1.5862    1.9412 H   0  0  0  0  0  0  0  0  0  0  0  0
    3.1304   -2.8332    1.8195 H   0  0  0  0  0  0  0  0  0  0  0  0
    1.2667   -3.1178    0.6771 H   0  0  0  0  0  0  0  0  0  0  0  0
   -0.5026   -4.6693    0.8131 H   0  0  0  0  0  0  0  0  0  0  0  0
   -1.2979   -3.6901    2.0747 H   0  0  0  0  0  0  0  0  0  0  0  0
   -2.2599   -1.6966    1.4876 H   0  0  0  0  0  0  0  0  0  0  0  0
   -3.4472   -1.6818   -1.2423 H   0  0  0  0  0  0  0  0  0  0  0  0
   -4.0647   -0.8641    0.1953 H   0  0  0  0  0  0  0  0  0  0  0  0
   -1.6182    0.3631    0.0529 H   0  0  0  0  0  0  0  0  0  0  0  0
   -1.0995    1.0376   -2.2441 H   0  0  0  0  0  0  0  0  0  0  0  0
   -0.9526   -0.7166   -2.1176 H   0  0  0  0  0  0  0  0  0  0  0  0
   -4.2218    0.4639   -5.0762 H   0  0  0  0  0  0  0  0  0  0  0  0
   -6.1873    1.9863   -4.9779 H   0  0  0  0  0  0  0  0  0  0  0  0
   -6.7190    3.1997   -2.8714 H   0  0  0  0  0  0  0  0  0  0  0  0
   -5.2990    2.8645   -0.8551 H   0  0  0  0  0  0  0  0  0  0  0  0
    0.9464    0.7991    2.6937 H   0  0  0  0  0  0  0  0  0  0  0  0
    3.0842    2.0449    2.8371 H   0  0  0  0  0  0  0  0  0  0  0  0
  1  2  1  0
  2  3  1  0
  3  4  2  0
  3  5  2  0
  3  6  1  0
  6  7  2  0
  7  8  1  0
  8  9  2  0
  9 10  1  0
 10 11  2  0
 10 12  1  0
 12 13  1  0
 13 14  1  0
 14 15  2  0
 14 16  1  0
 16 17  1  0
 17 18  1  0
 18 19  1  0
 19 20  1  0
 20 21  1  0
 21 22  2  0
 22 23  1  0
 23 24  2  0
 24 25  1  0
 25 26  2  0
 26 27  1  0
  9 28  1  0
 28 29  2  0
 29  6  1  0
 27 18  1  0
 26 21  1  0
  1 30  1  0
  1 31  1  0
  1 32  1  0
  2 33  1  0
  7 34  1  0
  8 35  1  0
 12 36  1  0
 13 37  1  0
 13 38  1  0
 16 39  1  0
 17 40  1  0
 17 41  1  0
 18 42  1  0
 19 43  1  0
 19 44  1  0
 22 45  1  0
 23 46  1  0
 24 47  1  0
 25 48  1  0
 28 49  1  0
 29 50  1  0
M  END
$$$$
