
     RDKit          3D

 34 35  0  0  0  0  0  0  0  0999 V2000
    1.8960    2.4464   -0.9661 C   0  0  0  0  0  0  0  0  0  0  0  0
    0.6794    1.7028   -1.2431 N   0  0  0  0  0  0  0  0  0  0  0  0
    0.3414    0.6729   -0.5414 C   0  0  0  0  0  0  0  0  0  0  0  0
    1.1543    0.0410    0.5379 C   0  0  0  0  0  0  0  0  0  0  0  0
    0.5903   -0.1771    1.7996 C   0  0  0  0  0  0  0  0  0  0  0  0
    1.3453   -0.7881    2.8022 C   0  0  0  0  0  0  0  0  0  0  0  0
    2.6574   -1.1867    2.5449 C   0  0  0  0  0  0  0  0  0  0  0  0
    3.2180   -0.9793    1.2846 C   0  0  0  0  0  0  0  0  0  0  0  0
    2.4673   -0.3684    0.2794 C   0  0  0  0  0  0  0  0  0  0  0  0
   -0.9983    0.0640   -0.8184 C   0  0  0  0  0  0  0  0  0  0  0  0
   -2.1619    0.8090   -0.5201 C   0  0  0  0  0  0  0  0  0  0  0  0
   -2.0992    2.2145    0.0134 C   0  0  0  0  0  0  0  0  0  0  0  0
   -3.4168    0.2315   -0.7622 C   0  0  0  0  0  0  0  0  0  0  0  0
   -3.5177   -1.0601   -1.2741 C   0  0  0  0  0  0  0  0  0  0  0  0
   -2.3666   -1.7859   -1.5742 C   0  0  0  0  0  0  0  0  0  0  0  0
   -1.0935   -1.2311   -1.3713 C   0  0  0  0  0  0  0  0  0  0  0  0
    0.1123   -2.0469   -1.7441 C   0  0  0  0  0  0  0  0  0  0  0  0
    2.7475    2.0167   -1.5014 H   0  0  0  0  0  0  0  0  0  0  0  0
    1.7698    3.4723   -1.3272 H   0  0  0  0  0  0  0  0  0  0  0  0
    2.1223    2.5182    0.1024 H   0  0  0  0  0  0  0  0  0  0  0  0
   -0.4295    0.1303    2.0140 H   0  0  0  0  0  0  0  0  0  0  0  0
    0.9100   -0.9537    3.7846 H   0  0  0  0  0  0  0  0  0  0  0  0
    3.2430   -1.6630    3.3276 H   0  0  0  0  0  0  0  0  0  0  0  0
    4.2380   -1.2974    1.0839 H   0  0  0  0  0  0  0  0  0  0  0  0
    2.9023   -0.2291   -0.7066 H   0  0  0  0  0  0  0  0  0  0  0  0
   -1.3853    2.2923    0.8391 H   0  0  0  0  0  0  0  0  0  0  0  0
   -3.0709    2.5319    0.4075 H   0  0  0  0  0  0  0  0  0  0  0  0
   -1.8173    2.9095   -0.7834 H   0  0  0  0  0  0  0  0  0  0  0  0
   -4.3278    0.7882   -0.5528 H   0  0  0  0  0  0  0  0  0  0  0  0
   -4.4968   -1.4981   -1.4517 H   0  0  0  0  0  0  0  0  0  0  0  0
   -2.4697   -2.7881   -1.9853 H   0  0  0  0  0  0  0  0  0  0  0  0
    0.5353   -2.5268   -0.8568 H   0  0  0  0  0  0  0  0  0  0  0  0
   -0.1508   -2.8339   -2.4597 H   0  0  0  0  0  0  0  0  0  0  0  0
    0.8725   -1.4279   -2.2306 H   0  0  0  0  0  0  0  0  0  0  0  0
  1  2  1  0
  2  3  2  3
  3  4  1  0
  4  5  2  0
  5  6  1  0
  6  7  2  0
  7  8  1  0
  8  9  2  0
  3 10  1  0
 10 11  2  0
 11 12  1  0
 11 13  1  0
 13 14  2  0
 14 15  1  0
 15 16  2  0
 16 17  1  0
  9  4  1  0
 16 10  1  0
  1 18  1  0
  1 19  1  0
  1 20  1  0
  5 21  1  0
  6 22  1  0
  7 23  1  0
  8 24  1  0
  9 25  1  0
 12 26  1  0
 12 27  1  0
 12 28  1  0
 13 29  1  0
 14 30  1  0
 15 31  1  0
 17 32  1  0
 17 33  1  0
 17 34  1  0
M  END
$$$$
