
     RDKit          3D

 49 53  0  0  0  0  0  0  0  0999 V2000
   -1.0101    2.7490    2.2478 O   0  0  0  0  0  0  0  0  0  0  0  0
   -0.8570    1.7613    1.5248 C   0  0  0  0  0  0  0  0  0  0  0  0
   -2.0024    1.1257    0.8926 C   0  0  0  0  0  0  0  0  0  0  0  0
   -3.3496    1.2431    1.1893 C   0  0  0  0  0  0  0  0  0  0  0  0
   -4.0662    0.4561    0.2454 C   0  0  0  0  0  0  0  0  0  0  0  0
   -3.0962   -0.0804   -0.5910 C   0  0  0  0  0  0  0  0  0  0  0  0
   -3.3630   -0.9176   -1.6699 C   0  0  0  0  0  0  0  0  0  0  0  0
   -4.7068   -1.2269   -1.9081 C   0  0  0  0  0  0  0  0  0  0  0  0
   -5.7372   -0.7170   -1.1004 C   0  0  0  0  0  0  0  0  0  0  0  0
   -7.0825   -1.0308   -1.3468 C   0  0  0  0  0  0  0  0  0  0  0  0
   -8.0985   -0.5155   -0.5369 C   0  0  0  0  0  0  0  0  0  0  0  0
   -7.7888    0.3223    0.5328 C   0  0  0  0  0  0  0  0  0  0  0  0
   -6.4603    0.6509    0.8011 C   0  0  0  0  0  0  0  0  0  0  0  0
   -5.4277    0.1367   -0.0085 C   0  0  0  0  0  0  0  0  0  0  0  0
   -1.8561    0.3283   -0.2107 O   0  0  0  0  0  0  0  0  0  0  0  0
    0.4248    1.2518    1.3077 N   0  0  0  0  0  0  0  0  0  0  0  0
    0.7371   -0.0513    0.7072 C   0  0  0  0  0  0  0  0  0  0  0  0
    2.0539   -0.6701    1.2237 C   0  0  0  0  0  0  0  0  0  0  0  0
    3.1962    0.2678    1.1851 N   0  0  0  0  0  0  0  0  0  0  0  0
    4.3227   -0.1709    0.4789 C   0  0  0  0  0  0  0  0  0  0  0  0
    4.7409    0.5851   -0.5685 N   0  0  0  0  0  0  0  0  0  0  0  0
    5.8232    0.1911   -1.2808 C   0  0  0  0  0  0  0  0  0  0  0  0
    6.5531   -0.9515   -1.0112 C   0  0  0  0  0  0  0  0  0  0  0  0
    7.7506   -1.2966   -1.8377 C   0  0  0  0  0  0  0  0  0  0  0  0
    7.6096   -0.9518   -3.1471 F   0  0  0  0  0  0  0  0  0  0  0  0
    8.8772   -0.6701   -1.4039 F   0  0  0  0  0  0  0  0  0  0  0  0
    8.0356   -2.6279   -1.8331 F   0  0  0  0  0  0  0  0  0  0  0  0
    6.1495   -1.7195    0.0809 C   0  0  0  0  0  0  0  0  0  0  0  0
    5.0356   -1.3331    0.8334 C   0  0  0  0  0  0  0  0  0  0  0  0
    4.6523   -2.2985    2.2179 Cl  0  0  0  0  0  0  0  0  0  0  0  0
    2.8530    1.6895    0.9946 C   0  0  0  0  0  0  0  0  0  0  0  0
    1.5727    2.0381    1.7683 C   0  0  0  0  0  0  0  0  0  0  0  0
   -3.7547    1.8355    1.9981 H   0  0  0  0  0  0  0  0  0  0  0  0
   -2.5670   -1.3061   -2.2934 H   0  0  0  0  0  0  0  0  0  0  0  0
   -4.9459   -1.8795   -2.7463 H   0  0  0  0  0  0  0  0  0  0  0  0
   -7.3533   -1.6815   -2.1756 H   0  0  0  0  0  0  0  0  0  0  0  0
   -9.1354   -0.7691   -0.7434 H   0  0  0  0  0  0  0  0  0  0  0  0
   -8.5834    0.7208    1.1586 H   0  0  0  0  0  0  0  0  0  0  0  0
   -6.2378    1.3063    1.6391 H   0  0  0  0  0  0  0  0  0  0  0  0
   -0.0722   -0.7593    0.9077 H   0  0  0  0  0  0  0  0  0  0  0  0
    0.8042    0.1060   -0.3757 H   0  0  0  0  0  0  0  0  0  0  0  0
    2.2427   -1.5838    0.6466 H   0  0  0  0  0  0  0  0  0  0  0  0
    1.9073   -0.9662    2.2697 H   0  0  0  0  0  0  0  0  0  0  0  0
    6.0866    0.8538   -2.1034 H   0  0  0  0  0  0  0  0  0  0  0  0
    6.7084   -2.6123    0.3556 H   0  0  0  0  0  0  0  0  0  0  0  0
    2.6888    1.9155   -0.0675 H   0  0  0  0  0  0  0  0  0  0  0  0
    3.6725    2.3198    1.3601 H   0  0  0  0  0  0  0  0  0  0  0  0
    1.7004    1.8265    2.8369 H   0  0  0  0  0  0  0  0  0  0  0  0
    1.3532    3.1062    1.6612 H   0  0  0  0  0  0  0  0  0  0  0  0
  1  2  2  0
  2  3  1  0
  3  4  2  0
  4  5  1  0
  5  6  2  0
  6  7  1  0
  7  8  2  0
  8  9  1  0
  9 10  2  0
 10 11  1  0
 11 12  2  0
 12 13  1  0
 13 14  2  0
  6 15  1  0
  2 16  1  0
 16 17  1  0
 17 18  1  0
 18 19  1  0
 19 20  1  0
 20 21  2  0
 21 22  1  0
 22 23  2  0
 23 24  1  0
 24 25  1  0
 24 26  1  0
 24 27  1  0
 23 28  1  0
 28 29  2  0
 29 30  1  0
 19 31  1  0
 31 32  1  0
 15  3  1  0
 32 16  1  0
 14  5  1  0
 29 20  1  0
 14  9  1  0
  4 33  1  0
  7 34  1  0
  8 35  1  0
 10 36  1  0
 11 37  1  0
 12 38  1  0
 13 39  1  0
 17 40  1  0
 17 41  1  0
 18 42  1  0
 18 43  1  0
 22 44  1  0
 28 45  1  0
 31 46  1  0
 31 47  1  0
 32 48  1  0
 32 49  1  0
M  END
$$$$
