
     RDKit          3D

 51 55  0  0  0  0  0  0  0  0999 V2000
   -8.4405   -0.5833   -1.1884 F   0  0  0  0  0  0  0  0  0  0  0  0
   -7.5154   -0.4505   -0.2286 C   0  0  0  0  0  0  0  0  0  0  0  0
   -7.7287   -1.0385    1.0123 C   0  0  0  0  0  0  0  0  0  0  0  0
   -6.7647   -0.9036    2.0095 C   0  0  0  0  0  0  0  0  0  0  0  0
   -5.5955   -0.1807    1.7568 C   0  0  0  0  0  0  0  0  0  0  0  0
   -5.3822    0.4173    0.5052 C   0  0  0  0  0  0  0  0  0  0  0  0
   -4.1089    1.1811    0.2272 C   0  0  0  0  0  0  0  0  0  0  0  0
   -2.9941    0.2535   -0.2864 C   0  0  0  0  0  0  0  0  0  0  0  0
   -1.7590    0.9869   -0.6072 N   0  0  0  0  0  0  0  0  0  0  0  0
   -0.8957    0.1822   -1.4986 C   0  0  0  0  0  0  0  0  0  0  0  0
    0.5531    0.7082   -1.5859 C   0  0  0  0  0  0  0  0  0  0  0  0
    1.2121    0.7073   -0.2713 N   0  0  0  0  0  0  0  0  0  0  0  0
    2.5242    0.2695   -0.1151 C   0  0  0  0  0  0  0  0  0  0  0  0
    2.8120   -0.4384    0.9509 N   0  0  0  0  0  0  0  0  0  0  0  0
    4.1082   -0.9479    1.1532 C   0  0  0  0  0  0  0  0  0  0  0  0
    4.3501   -1.7087    2.2989 C   0  0  0  0  0  0  0  0  0  0  0  0
    5.6154   -2.2492    2.5432 C   0  0  0  0  0  0  0  0  0  0  0  0
    6.6552   -2.0326    1.6385 C   0  0  0  0  0  0  0  0  0  0  0  0
    6.4361   -1.2751    0.4874 C   0  0  0  0  0  0  0  0  0  0  0  0
    5.1643   -0.7414    0.2566 C   0  0  0  0  0  0  0  0  0  0  0  0
    4.8601    0.0439   -0.8668 N   0  0  0  0  0  0  0  0  0  0  0  0
    5.6777    0.4423   -1.8978 C   0  0  0  0  0  0  0  0  0  0  0  0
    4.9525    1.2679   -2.7278 C   0  0  0  0  0  0  0  0  0  0  0  0
    3.6479    1.3590   -2.1897 C   0  0  0  0  0  0  0  0  0  0  0  0
    3.5960    0.5611   -1.0591 C   0  0  0  0  0  0  0  0  0  0  0  0
    0.2968    0.6544    0.8810 C   0  0  0  0  0  0  0  0  0  0  0  0
   -1.0123    1.4225    0.5963 C   0  0  0  0  0  0  0  0  0  0  0  0
   -6.3555    0.2715   -0.4917 C   0  0  0  0  0  0  0  0  0  0  0  0
   -8.6415   -1.5966    1.1929 H   0  0  0  0  0  0  0  0  0  0  0  0
   -6.9220   -1.3606    2.9832 H   0  0  0  0  0  0  0  0  0  0  0  0
   -4.8509   -0.0850    2.5448 H   0  0  0  0  0  0  0  0  0  0  0  0
   -3.8055    1.7029    1.1424 H   0  0  0  0  0  0  0  0  0  0  0  0
   -4.3119    1.9673   -0.5119 H   0  0  0  0  0  0  0  0  0  0  0  0
   -2.7915   -0.5499    0.4345 H   0  0  0  0  0  0  0  0  0  0  0  0
   -3.3677   -0.2352   -1.1969 H   0  0  0  0  0  0  0  0  0  0  0  0
   -0.8638   -0.8624   -1.1588 H   0  0  0  0  0  0  0  0  0  0  0  0
   -1.3306    0.1826   -2.5051 H   0  0  0  0  0  0  0  0  0  0  0  0
    1.0949    0.0699   -2.2932 H   0  0  0  0  0  0  0  0  0  0  0  0
    0.5500    1.7294   -1.9840 H   0  0  0  0  0  0  0  0  0  0  0  0
    3.5414   -1.8807    3.0041 H   0  0  0  0  0  0  0  0  0  0  0  0
    5.7870   -2.8391    3.4399 H   0  0  0  0  0  0  0  0  0  0  0  0
    7.6385   -2.4543    1.8327 H   0  0  0  0  0  0  0  0  0  0  0  0
    7.2608   -1.1178   -0.1994 H   0  0  0  0  0  0  0  0  0  0  0  0
    6.7106    0.1324   -1.9591 H   0  0  0  0  0  0  0  0  0  0  0  0
    5.3272    1.7603   -3.6160 H   0  0  0  0  0  0  0  0  0  0  0  0
    2.8371    1.9514   -2.5898 H   0  0  0  0  0  0  0  0  0  0  0  0
    0.0670   -0.3894    1.1292 H   0  0  0  0  0  0  0  0  0  0  0  0
    0.7780    1.1095    1.7552 H   0  0  0  0  0  0  0  0  0  0  0  0
   -1.6347    1.3930    1.4976 H   0  0  0  0  0  0  0  0  0  0  0  0
   -0.7588    2.4793    0.4417 H   0  0  0  0  0  0  0  0  0  0  0  0
   -6.2231    0.7144   -1.4746 H   0  0  0  0  0  0  0  0  0  0  0  0
  1  2  1  0
  2  3  2  0
  3  4  1  0
  4  5  2  0
  5  6  1  0
  6  7  1  0
  7  8  1  0
  8  9  1  0
  9 10  1  0
 10 11  1  0
 11 12  1  0
 12 13  1  0
 13 14  2  0
 14 15  1  0
 15 16  2  0
 16 17  1  0
 17 18  2  0
 18 19  1  0
 19 20  2  0
 20 21  1  0
 21 22  1  0
 22 23  2  0
 23 24  1  0
 24 25  2  0
 12 26  1  0
 26 27  1  0
  6 28  2  0
 28  2  1  0
 27  9  1  0
 25 13  1  0
 20 15  1  0
 25 21  1  0
  3 29  1  0
  4 30  1  0
  5 31  1  0
  7 32  1  0
  7 33  1  0
  8 34  1  0
  8 35  1  0
 10 36  1  0
 10 37  1  0
 11 38  1  0
 11 39  1  0
 16 40  1  0
 17 41  1  0
 18 42  1  0
 19 43  1  0
 22 44  1  0
 23 45  1  0
 24 46  1  0
 26 47  1  0
 26 48  1  0
 27 49  1  0
 27 50  1  0
 28 51  1  0
M  END
$$$$
