
     RDKit          3D

 39 40  0  0  0  0  0  0  0  0999 V2000
   -0.3294   -1.0920    0.0968 O   0  0  0  0  0  0  0  0  0  0  0  0
   -0.6183   -0.3033   -0.7998 C   0  0  0  0  0  0  0  0  0  0  0  0
   -2.0156    0.1770   -0.9951 C   0  0  0  0  0  0  0  0  0  0  0  0
   -3.0070   -0.3106   -0.2352 C   0  0  0  0  0  0  0  0  0  0  0  0
   -4.4140    0.1027   -0.3529 C   0  0  0  0  0  0  0  0  0  0  0  0
   -5.1952    0.1731    0.8098 C   0  0  0  0  0  0  0  0  0  0  0  0
   -6.5488    0.5161    0.7414 C   0  0  0  0  0  0  0  0  0  0  0  0
   -7.1263    0.7747   -0.4971 C   0  0  0  0  0  0  0  0  0  0  0  0
   -8.4509    1.0825   -0.6166 O   0  0  0  0  0  0  0  0  0  0  0  0
   -6.3711    0.7040   -1.6615 C   0  0  0  0  0  0  0  0  0  0  0  0
   -5.0190    0.3638   -1.5913 C   0  0  0  0  0  0  0  0  0  0  0  0
    0.4279    0.2189   -1.7437 C   0  0  0  0  0  0  0  0  0  0  0  0
    1.2501    1.3161   -1.1256 C   0  0  0  0  0  0  0  0  0  0  0  0
    0.8646    2.4873   -1.1583 O   0  0  0  0  0  0  0  0  0  0  0  0
    2.5580    1.0193   -0.4773 C   0  0  0  0  0  0  0  0  0  0  0  0
    2.9778   -0.2089   -0.1407 C   0  0  0  0  0  0  0  0  0  0  0  0
    4.2864   -0.4887    0.4660 C   0  0  0  0  0  0  0  0  0  0  0  0
    4.8503    0.3298    1.4559 C   0  0  0  0  0  0  0  0  0  0  0  0
    6.0879    0.0084    2.0275 C   0  0  0  0  0  0  0  0  0  0  0  0
    6.7580   -1.1393    1.6126 C   0  0  0  0  0  0  0  0  0  0  0  0
    7.9644   -1.4883    2.1434 O   0  0  0  0  0  0  0  0  0  0  0  0
    6.2079   -1.9695    0.6447 C   0  0  0  0  0  0  0  0  0  0  0  0
    4.9721   -1.6473    0.0758 C   0  0  0  0  0  0  0  0  0  0  0  0
   -2.1817    0.9302   -1.7568 H   0  0  0  0  0  0  0  0  0  0  0  0
   -2.7924   -1.0448    0.5394 H   0  0  0  0  0  0  0  0  0  0  0  0
   -4.7529   -0.0359    1.7833 H   0  0  0  0  0  0  0  0  0  0  0  0
   -7.1321    0.5604    1.6562 H   0  0  0  0  0  0  0  0  0  0  0  0
   -8.8448    1.0946    0.2703 H   0  0  0  0  0  0  0  0  0  0  0  0
   -6.8375    0.8979   -2.6236 H   0  0  0  0  0  0  0  0  0  0  0  0
   -4.4560    0.2865   -2.5176 H   0  0  0  0  0  0  0  0  0  0  0  0
    1.0552   -0.6128   -2.0833 H   0  0  0  0  0  0  0  0  0  0  0  0
   -0.0360    0.6085   -2.6581 H   0  0  0  0  0  0  0  0  0  0  0  0
    3.1656    1.9017   -0.2964 H   0  0  0  0  0  0  0  0  0  0  0  0
    2.3627   -1.0885   -0.3098 H   0  0  0  0  0  0  0  0  0  0  0  0
    4.3281    1.2170    1.8074 H   0  0  0  0  0  0  0  0  0  0  0  0
    6.5030    0.6572    2.7948 H   0  0  0  0  0  0  0  0  0  0  0  0
    8.2192   -0.8193    2.8014 H   0  0  0  0  0  0  0  0  0  0  0  0
    6.7343   -2.8670    0.3328 H   0  0  0  0  0  0  0  0  0  0  0  0
    4.5556   -2.3117   -0.6764 H   0  0  0  0  0  0  0  0  0  0  0  0
  1  2  2  0
  2  3  1  0
  3  4  2  3
  4  5  1  0
  5  6  2  0
  6  7  1  0
  7  8  2  0
  8  9  1  0
  8 10  1  0
 10 11  2  0
  2 12  1  0
 12 13  1  0
 13 14  2  0
 13 15  1  0
 15 16  2  3
 16 17  1  0
 17 18  2  0
 18 19  1  0
 19 20  2  0
 20 21  1  0
 20 22  1  0
 22 23  2  0
 11  5  1  0
 23 17  1  0
  3 24  1  0
  4 25  1  0
  6 26  1  0
  7 27  1  0
  9 28  1  0
 10 29  1  0
 11 30  1  0
 12 31  1  0
 12 32  1  0
 15 33  1  0
 16 34  1  0
 18 35  1  0
 19 36  1  0
 21 37  1  0
 22 38  1  0
 23 39  1  0
M  END
$$$$
