
     RDKit          3D

 57 61  0  0  0  0  0  0  0  0999 V2000
   -1.0899   -0.2845    4.0945 O   0  0  0  0  0  0  0  0  0  0  0  0
   -1.5594   -0.4177    2.9699 C   0  0  0  0  0  0  0  0  0  0  0  0
   -0.7862   -0.2363    1.8290 N   0  0  0  0  0  0  0  0  0  0  0  0
   -1.2592   -0.3830    0.5303 C   0  0  0  0  0  0  0  0  0  0  0  0
   -0.2640   -0.1380   -0.5977 C   0  0  0  0  0  0  0  0  0  0  0  0
    0.1766    1.3320   -0.6584 C   0  0  0  0  0  0  0  0  0  0  0  0
    1.5465    1.5742   -0.0378 C   0  0  0  0  0  0  0  0  0  0  0  0
    2.6027    0.7002   -0.6238 N   0  0  0  0  0  0  0  0  0  0  0  0
    3.8053    1.5118   -1.5497 S   0  0  0  0  0  6  0  0  0  0  0  0
    3.0781    2.3718   -2.4547 O   0  0  0  0  0  0  0  0  0  0  0  0
    4.7575    0.5286   -2.0125 O   0  0  0  0  0  0  0  0  0  0  0  0
    4.6526    2.5158   -0.3435 C   0  0  0  0  0  0  0  0  0  0  0  0
    4.8135    1.9842    0.9474 C   0  0  0  0  0  0  0  0  0  0  0  0
    5.4241    2.7390    1.9465 C   0  0  0  0  0  0  0  0  0  0  0  0
    5.8799    4.0220    1.6626 C   0  0  0  0  0  0  0  0  0  0  0  0
    5.7422    4.5444    0.3747 C   0  0  0  0  0  0  0  0  0  0  0  0
    5.1403    3.7967   -0.6577 C   0  0  0  0  0  0  0  0  0  0  0  0
    5.0639    4.3965   -2.0423 C   0  0  0  0  0  0  0  0  0  0  0  0
    5.9313    5.4412   -2.2001 F   0  0  0  0  0  0  0  0  0  0  0  0
    5.3873    3.5237   -3.0308 F   0  0  0  0  0  0  0  0  0  0  0  0
    3.8391    4.9100   -2.3270 F   0  0  0  0  0  0  0  0  0  0  0  0
    2.1112   -0.5371   -1.2907 C   0  0  0  0  0  0  0  0  0  0  0  0
    0.9217   -1.1046   -0.5312 C   0  0  0  0  0  0  0  0  0  0  0  0
   -2.4912   -0.6958    0.2346 N   0  0  0  0  0  0  0  0  0  0  0  0
   -3.2672   -0.8825    1.3310 C   0  0  0  0  0  0  0  0  0  0  0  0
   -2.9163   -0.7673    2.6541 C   0  0  0  0  0  0  0  0  0  0  0  0
   -3.9830   -1.0203    3.4590 N   0  0  0  0  0  0  0  0  0  0  0  0
   -5.0177   -1.3022    2.6669 N   0  0  0  0  0  0  0  0  0  0  0  0
   -4.5835   -1.2435    1.3824 N   0  0  0  0  0  0  0  0  0  0  0  0
   -5.4879   -1.4905    0.2794 C   0  0  0  0  0  0  0  0  0  0  0  0
   -5.3872   -2.9134   -0.2099 C   0  0  0  0  0  0  0  0  0  0  0  0
   -6.0642   -3.9453    0.4571 C   0  0  0  0  0  0  0  0  0  0  0  0
   -5.9611   -5.2634    0.0105 C   0  0  0  0  0  0  0  0  0  0  0  0
   -5.1786   -5.5645   -1.1026 C   0  0  0  0  0  0  0  0  0  0  0  0
   -4.4944   -4.5492   -1.7682 C   0  0  0  0  0  0  0  0  0  0  0  0
   -4.5949   -3.2301   -1.3234 C   0  0  0  0  0  0  0  0  0  0  0  0
    0.1806   -0.0266    2.0208 H   0  0  0  0  0  0  0  0  0  0  0  0
   -0.8070   -0.3414   -1.5323 H   0  0  0  0  0  0  0  0  0  0  0  0
    0.2197    1.6368   -1.7127 H   0  0  0  0  0  0  0  0  0  0  0  0
   -0.5645    1.9846   -0.1818 H   0  0  0  0  0  0  0  0  0  0  0  0
    1.5213    1.3794    1.0397 H   0  0  0  0  0  0  0  0  0  0  0  0
    1.8025    2.6341   -0.1418 H   0  0  0  0  0  0  0  0  0  0  0  0
    4.4723    0.9771    1.1797 H   0  0  0  0  0  0  0  0  0  0  0  0
    5.5481    2.3258    2.9451 H   0  0  0  0  0  0  0  0  0  0  0  0
    6.3573    4.6143    2.4407 H   0  0  0  0  0  0  0  0  0  0  0  0
    6.1251    5.5458    0.1740 H   0  0  0  0  0  0  0  0  0  0  0  0
    2.9159   -1.2806   -1.2893 H   0  0  0  0  0  0  0  0  0  0  0  0
    1.8336   -0.3297   -2.3309 H   0  0  0  0  0  0  0  0  0  0  0  0
    1.2183   -1.3154    0.5031 H   0  0  0  0  0  0  0  0  0  0  0  0
    0.6273   -2.0681   -0.9646 H   0  0  0  0  0  0  0  0  0  0  0  0
   -5.2501   -0.7776   -0.5187 H   0  0  0  0  0  0  0  0  0  0  0  0
   -6.5082   -1.2669    0.6129 H   0  0  0  0  0  0  0  0  0  0  0  0
   -6.6704   -3.7290    1.3355 H   0  0  0  0  0  0  0  0  0  0  0  0
   -6.4883   -6.0563    0.5350 H   0  0  0  0  0  0  0  0  0  0  0  0
   -5.0981   -6.5920   -1.4480 H   0  0  0  0  0  0  0  0  0  0  0  0
   -3.8790   -4.7859   -2.6323 H   0  0  0  0  0  0  0  0  0  0  0  0
   -4.0447   -2.4512   -1.8480 H   0  0  0  0  0  0  0  0  0  0  0  0
  1  2  2  0
  2  3  1  0
  3  4  1  0
  4  5  1  0
  5  6  1  0
  6  7  1  0
  7  8  1  0
  8  9  1  0
  9 10  2  0
  9 11  2  0
  9 12  1  0
 12 13  2  0
 13 14  1  0
 14 15  2  0
 15 16  1  0
 16 17  2  0
 17 18  1  0
 18 19  1  0
 18 20  1  0
 18 21  1  0
  8 22  1  0
 22 23  1  0
  4 24  2  0
 24 25  1  0
 25 26  2  0
 26 27  1  0
 27 28  2  0
 28 29  1  0
 29 30  1  0
 30 31  1  0
 31 32  2  0
 32 33  1  0
 33 34  2  0
 34 35  1  0
 35 36  2  0
 26  2  1  0
 36 31  1  0
 23  5  1  0
 29 25  1  0
 17 12  1  0
  3 37  1  0
  5 38  1  0
  6 39  1  0
  6 40  1  0
  7 41  1  0
  7 42  1  0
 13 43  1  0
 14 44  1  0
 15 45  1  0
 16 46  1  0
 22 47  1  0
 22 48  1  0
 23 49  1  0
 23 50  1  0
 30 51  1  0
 30 52  1  0
 32 53  1  0
 33 54  1  0
 34 55  1  0
 35 56  1  0
 36 57  1  0
M  END
$$$$
