
     RDKit          3D

 42 44  0  0  0  0  0  0  0  0999 V2000
   -4.6330   -0.3495    1.9530 C   0  0  0  0  0  0  0  0  0  0  0  0
   -3.8518   -1.1211    0.8898 C   0  0  0  0  0  0  0  0  0  0  0  0
   -4.7617   -1.7190   -0.1830 C   0  0  0  0  0  0  0  0  0  0  0  0
   -2.7482   -0.3419    0.3237 N   0  0  0  0  0  0  0  0  0  0  0  0
   -1.4271   -0.7044    0.4747 C   0  0  0  0  0  0  0  0  0  0  0  0
   -0.6423    0.2247   -0.1693 C   0  0  0  0  0  0  0  0  0  0  0  0
    0.7861    0.2124   -0.2572 C   0  0  0  0  0  0  0  0  0  0  0  0
    1.6090   -0.6555    0.3567 C   0  0  0  0  0  0  0  0  0  0  0  0
    3.0697   -0.6154    0.2310 C   0  0  0  0  0  0  0  0  0  0  0  0
    3.8566   -0.8133    1.3637 C   0  0  0  0  0  0  0  0  0  0  0  0
    5.2424   -0.7993    1.2517 C   0  0  0  0  0  0  0  0  0  0  0  0
    5.8341   -0.6035    0.0523 N   0  0  0  0  0  4  0  0  0  0  0  0
    7.3037   -0.6033   -0.0446 C   0  0  0  0  0  0  0  0  0  0  0  0
    5.0913   -0.4347   -1.0644 C   0  0  0  0  0  0  0  0  0  0  0  0
    3.7027   -0.4385   -0.9984 C   0  0  0  0  0  0  0  0  0  0  0  0
   -1.5190    1.1980   -0.7402 C   0  0  0  0  0  0  0  0  0  0  0  0
   -1.3175    2.3710   -1.5039 C   0  0  0  0  0  0  0  0  0  0  0  0
   -2.4128    3.1302   -1.9242 C   0  0  0  0  0  0  0  0  0  0  0  0
   -3.7037    2.7397   -1.5956 C   0  0  0  0  0  0  0  0  0  0  0  0
   -3.9341    1.5859   -0.8412 C   0  0  0  0  0  0  0  0  0  0  0  0
   -2.8313    0.8223   -0.4184 C   0  0  0  0  0  0  0  0  0  0  0  0
   -5.2061    0.4792    1.5282 H   0  0  0  0  0  0  0  0  0  0  0  0
   -5.3414   -1.0118    2.4624 H   0  0  0  0  0  0  0  0  0  0  0  0
   -3.9579    0.0656    2.7093 H   0  0  0  0  0  0  0  0  0  0  0  0
   -3.3800   -1.9691    1.4049 H   0  0  0  0  0  0  0  0  0  0  0  0
   -5.3390   -0.9555   -0.7116 H   0  0  0  0  0  0  0  0  0  0  0  0
   -5.4752   -2.4177    0.2670 H   0  0  0  0  0  0  0  0  0  0  0  0
   -4.1772   -2.2695   -0.9283 H   0  0  0  0  0  0  0  0  0  0  0  0
   -1.1690   -1.5981    1.0267 H   0  0  0  0  0  0  0  0  0  0  0  0
    1.2196    0.9972   -0.8729 H   0  0  0  0  0  0  0  0  0  0  0  0
    1.2077   -1.4286    1.0078 H   0  0  0  0  0  0  0  0  0  0  0  0
    3.3980   -0.9692    2.3388 H   0  0  0  0  0  0  0  0  0  0  0  0
    5.8852   -0.9460    2.1151 H   0  0  0  0  0  0  0  0  0  0  0  0
    7.6083    0.0636   -0.8554 H   0  0  0  0  0  0  0  0  0  0  0  0
    7.7257   -0.2431    0.8972 H   0  0  0  0  0  0  0  0  0  0  0  0
    7.6185   -1.6305   -0.2450 H   0  0  0  0  0  0  0  0  0  0  0  0
    5.6166   -0.3032   -2.0063 H   0  0  0  0  0  0  0  0  0  0  0  0
    3.1237   -0.3158   -1.9121 H   0  0  0  0  0  0  0  0  0  0  0  0
   -0.3152    2.6927   -1.7681 H   0  0  0  0  0  0  0  0  0  0  0  0
   -2.2534    4.0316   -2.5107 H   0  0  0  0  0  0  0  0  0  0  0  0
   -4.5491    3.3385   -1.9280 H   0  0  0  0  0  0  0  0  0  0  0  0
   -4.9530    1.3048   -0.5984 H   0  0  0  0  0  0  0  0  0  0  0  0
  1  2  1  0
  2  3  1  0
  2  4  1  0
  4  5  1  0
  5  6  2  0
  6  7  1  0
  7  8  2  3
  8  9  1  0
  9 10  2  0
 10 11  1  0
 11 12  2  0
 12 13  1  0
 12 14  1  0
 14 15  2  0
  6 16  1  0
 16 17  2  0
 17 18  1  0
 18 19  2  0
 19 20  1  0
 20 21  2  0
 21  4  1  0
 15  9  1  0
 21 16  1  0
  1 22  1  0
  1 23  1  0
  1 24  1  0
  2 25  1  0
  3 26  1  0
  3 27  1  0
  3 28  1  0
  5 29  1  0
  7 30  1  0
  8 31  1  0
 10 32  1  0
 11 33  1  0
 13 34  1  0
 13 35  1  0
 13 36  1  0
 14 37  1  0
 15 38  1  0
 17 39  1  0
 18 40  1  0
 19 41  1  0
 20 42  1  0
M  CHG  1  12   1
M  END
$$$$
