
     RDKit          3D

 37 39  0  0  0  0  0  0  0  0999 V2000
   -0.3272   -1.0610    2.2059 C   0  0  0  0  0  0  0  0  0  0  0  0
   -0.8190   -0.4895    0.9691 N   0  0  0  0  0  0  0  0  0  0  0  0
   -0.0984    0.0919   -0.0828 C   0  0  0  0  0  0  0  0  0  0  0  0
    1.2224    0.1118   -0.3563 C   0  0  0  0  0  0  0  0  0  0  0  0
    2.2924   -0.5645    0.3482 C   0  0  0  0  0  0  0  0  0  0  0  0
    3.6071   -0.4028    0.1450 C   0  0  0  0  0  0  0  0  0  0  0  0
    4.4024    0.6571   -0.9621 S   0  0  0  0  0  0  0  0  0  0  0  0
    5.9912    0.1295   -0.4566 C   0  0  0  0  0  0  0  0  0  0  0  0
    7.4414    0.6685   -1.0448 S   0  0  0  0  0  0  0  0  0  0  0  0
    5.8749   -0.8143    0.5169 N   0  0  0  0  0  0  0  0  0  0  0  0
    4.6192   -1.1720    0.9201 C   0  0  0  0  0  0  0  0  0  0  0  0
    4.3764   -1.9951    1.7876 O   0  0  0  0  0  0  0  0  0  0  0  0
   -1.1235    0.7804   -1.0501 C   0  0  0  0  0  0  0  0  0  0  0  0
   -1.0331    0.2290   -2.4815 C   0  0  0  0  0  0  0  0  0  0  0  0
   -0.9670    2.3077   -1.0377 C   0  0  0  0  0  0  0  0  0  0  0  0
   -2.4473    0.3824   -0.4184 C   0  0  0  0  0  0  0  0  0  0  0  0
   -3.7398    0.6582   -0.8491 C   0  0  0  0  0  0  0  0  0  0  0  0
   -4.8059    0.1725   -0.0944 C   0  0  0  0  0  0  0  0  0  0  0  0
   -4.5687   -0.5760    1.0660 C   0  0  0  0  0  0  0  0  0  0  0  0
   -3.2617   -0.8445    1.4908 C   0  0  0  0  0  0  0  0  0  0  0  0
   -2.1964   -0.3571    0.7500 C   0  0  0  0  0  0  0  0  0  0  0  0
   -1.0526   -1.0014    3.0237 H   0  0  0  0  0  0  0  0  0  0  0  0
   -0.0628   -2.1134    2.0611 H   0  0  0  0  0  0  0  0  0  0  0  0
    0.5519   -0.5173    2.5670 H   0  0  0  0  0  0  0  0  0  0  0  0
    1.5349    0.6699   -1.2376 H   0  0  0  0  0  0  0  0  0  0  0  0
    1.9943   -1.3021    1.0869 H   0  0  0  0  0  0  0  0  0  0  0  0
    6.6837   -1.2409    0.9425 H   0  0  0  0  0  0  0  0  0  0  0  0
   -1.1283   -0.8635   -2.4983 H   0  0  0  0  0  0  0  0  0  0  0  0
   -0.0794    0.4871   -2.9548 H   0  0  0  0  0  0  0  0  0  0  0  0
   -1.8284    0.6350   -3.1174 H   0  0  0  0  0  0  0  0  0  0  0  0
   -1.0309    2.7120   -0.0201 H   0  0  0  0  0  0  0  0  0  0  0  0
   -1.7506    2.7938   -1.6306 H   0  0  0  0  0  0  0  0  0  0  0  0
   -0.0022    2.6148   -1.4566 H   0  0  0  0  0  0  0  0  0  0  0  0
   -3.9212    1.2349   -1.7498 H   0  0  0  0  0  0  0  0  0  0  0  0
   -5.8275    0.3714   -0.4086 H   0  0  0  0  0  0  0  0  0  0  0  0
   -5.4095   -0.9551    1.6419 H   0  0  0  0  0  0  0  0  0  0  0  0
   -3.1106   -1.4373    2.3850 H   0  0  0  0  0  0  0  0  0  0  0  0
  1  2  1  0
  2  3  1  0
  3  4  2  3
  4  5  1  0
  5  6  2  3
  6  7  1  0
  7  8  1  0
  8  9  2  0
  8 10  1  0
 10 11  1  0
 11 12  2  0
  3 13  1  0
 13 14  1  0
 13 15  1  0
 13 16  1  0
 16 17  2  0
 17 18  1  0
 18 19  2  0
 19 20  1  0
 20 21  2  0
 21  2  1  0
 11  6  1  0
 21 16  1  0
  1 22  1  0
  1 23  1  0
  1 24  1  0
  4 25  1  0
  5 26  1  0
 10 27  1  0
 14 28  1  0
 14 29  1  0
 14 30  1  0
 15 31  1  0
 15 32  1  0
 15 33  1  0
 17 34  1  0
 18 35  1  0
 19 36  1  0
 20 37  1  0
M  END
$$$$
