
     RDKit          3D

 46 49  0  0  0  0  0  0  0  0999 V2000
   -3.7781    3.5276   -1.3117 N   0  0  0  0  0  0  0  0  0  0  0  0
   -4.0793    3.0183   -0.1032 C   0  0  0  0  0  0  0  0  0  0  0  0
   -5.2164    3.2586    0.5483 N   0  0  0  0  0  0  0  0  0  0  0  0
   -5.1107    2.5650    1.7482 O   0  0  0  0  0  0  0  0  0  0  0  0
   -3.8939    1.8928    1.8384 N   0  0  0  0  0  0  0  0  0  0  0  0
   -3.2845    2.1618    0.6840 C   0  0  0  0  0  0  0  0  0  0  0  0
   -1.9966    1.6452    0.3880 N   0  0  0  0  0  0  0  0  0  0  0  0
   -1.3248    2.0418   -0.7362 N   0  0  0  0  0  0  0  0  0  0  0  0
   -0.1059    1.5365   -0.7171 N   0  0  0  0  0  0  0  0  0  0  0  0
    0.0108    0.7416    0.3913 C   0  0  0  0  0  0  0  0  0  0  0  0
    1.2468    0.0282    0.7079 C   0  0  0  0  0  0  0  0  0  0  0  0
    1.3921   -0.6077    1.7468 O   0  0  0  0  0  0  0  0  0  0  0  0
    2.2070    0.1812   -0.2820 N   0  0  0  0  0  0  0  0  0  0  0  0
    3.4336   -0.4004   -0.1615 N   0  0  0  0  0  0  0  0  0  0  0  0
    4.2499   -0.1847   -1.1430 C   0  0  0  0  0  0  0  0  0  0  0  0
    5.6142   -0.7483   -1.1579 C   0  0  0  0  0  0  0  0  0  0  0  0
    6.4470   -0.4724   -2.2465 C   0  0  0  0  0  0  0  0  0  0  0  0
    7.7405   -0.9971   -2.2779 C   0  0  0  0  0  0  0  0  0  0  0  0
    8.1979   -1.7931   -1.2267 C   0  0  0  0  0  0  0  0  0  0  0  0
    7.3651   -2.0672   -0.1413 C   0  0  0  0  0  0  0  0  0  0  0  0
    6.0714   -1.5455   -0.1045 C   0  0  0  0  0  0  0  0  0  0  0  0
   -1.1969    0.7329    1.0773 C   0  0  0  0  0  0  0  0  0  0  0  0
   -1.6086   -0.0786    2.2548 C   0  0  0  0  0  0  0  0  0  0  0  0
   -2.0072   -1.8004    1.7664 S   0  0  0  0  0  0  0  0  0  0  0  0
   -3.4565   -1.5284    0.7682 C   0  0  0  0  0  0  0  0  0  0  0  0
   -4.6974   -1.2848    1.3617 C   0  0  0  0  0  0  0  0  0  0  0  0
   -5.8206   -1.0454    0.5674 C   0  0  0  0  0  0  0  0  0  0  0  0
   -5.7094   -1.0599   -0.8221 C   0  0  0  0  0  0  0  0  0  0  0  0
   -4.4780   -1.3236   -1.4196 C   0  0  0  0  0  0  0  0  0  0  0  0
   -3.3548   -1.5633   -0.6262 C   0  0  0  0  0  0  0  0  0  0  0  0
   -2.9695    3.2089   -1.8417 H   0  0  0  0  0  0  0  0  0  0  0  0
   -4.4990    3.9875   -1.8569 H   0  0  0  0  0  0  0  0  0  0  0  0
    1.9844    0.7451   -1.0968 H   0  0  0  0  0  0  0  0  0  0  0  0
    3.9600    0.4316   -2.0133 H   0  0  0  0  0  0  0  0  0  0  0  0
    6.1041    0.1457   -3.0715 H   0  0  0  0  0  0  0  0  0  0  0  0
    8.3937   -0.7867   -3.1213 H   0  0  0  0  0  0  0  0  0  0  0  0
    9.2055   -2.2013   -1.2524 H   0  0  0  0  0  0  0  0  0  0  0  0
    7.7218   -2.6876    0.6773 H   0  0  0  0  0  0  0  0  0  0  0  0
    5.4265   -1.7634    0.7446 H   0  0  0  0  0  0  0  0  0  0  0  0
   -0.7812   -0.1305    2.9704 H   0  0  0  0  0  0  0  0  0  0  0  0
   -2.4423    0.3326    2.8216 H   0  0  0  0  0  0  0  0  0  0  0  0
   -4.7993   -1.2692    2.4441 H   0  0  0  0  0  0  0  0  0  0  0  0
   -6.7819   -0.8462    1.0343 H   0  0  0  0  0  0  0  0  0  0  0  0
   -6.5854   -0.8741   -1.4385 H   0  0  0  0  0  0  0  0  0  0  0  0
   -4.3932   -1.3488   -2.5029 H   0  0  0  0  0  0  0  0  0  0  0  0
   -2.4008   -1.7743   -1.1040 H   0  0  0  0  0  0  0  0  0  0  0  0
  1  2  1  0
  2  3  2  0
  3  4  1  0
  4  5  1  0
  5  6  2  0
  6  7  1  0
  7  8  1  0
  8  9  2  0
  9 10  1  0
 10 11  1  0
 11 12  2  0
 11 13  1  0
 13 14  1  0
 14 15  2  3
 15 16  1  0
 16 17  2  0
 17 18  1  0
 18 19  2  0
 19 20  1  0
 20 21  2  0
 10 22  2  0
 22 23  1  0
 23 24  1  0
 24 25  1  0
 25 26  2  0
 26 27  1  0
 27 28  2  0
 28 29  1  0
 29 30  2  0
  6  2  1  0
 22  7  1  0
 30 25  1  0
 21 16  1  0
  1 31  1  0
  1 32  1  0
 13 33  1  0
 15 34  1  0
 17 35  1  0
 18 36  1  0
 19 37  1  0
 20 38  1  0
 21 39  1  0
 23 40  1  0
 23 41  1  0
 26 42  1  0
 27 43  1  0
 28 44  1  0
 29 45  1  0
 30 46  1  0
M  END
$$$$
