
     RDKit          3D

 60 64  0  0  0  0  0  0  0  0999 V2000
   -2.4738    0.4071    2.4926 C   0  0  0  0  0  0  0  0  0  0  0  0
   -2.5486   -0.4704    1.3295 N   0  0  0  0  0  0  0  0  0  0  0  0
   -3.7283   -1.2021    1.1629 C   0  0  0  0  0  0  0  0  0  0  0  0
   -4.6294   -1.2083    2.0032 O   0  0  0  0  0  0  0  0  0  0  0  0
   -3.8952   -1.9679   -0.1150 C   0  0  0  0  0  0  0  0  0  0  0  0
   -5.0583   -2.0225   -0.7894 C   0  0  0  0  0  0  0  0  0  0  0  0
   -6.2830   -1.2898   -0.4571 C   0  0  0  0  0  0  0  0  0  0  0  0
   -6.3545    0.0963   -0.6311 C   0  0  0  0  0  0  0  0  0  0  0  0
   -7.5308    0.7841   -0.3238 C   0  0  0  0  0  0  0  0  0  0  0  0
   -8.6521    0.0969    0.1658 C   0  0  0  0  0  0  0  0  0  0  0  0
   -9.9273    0.8384    0.4800 C   0  0  0  0  0  0  0  0  0  0  0  0
   -9.7136    2.1087    0.9248 F   0  0  0  0  0  0  0  0  0  0  0  0
  -10.6816    0.2323    1.4387 F   0  0  0  0  0  0  0  0  0  0  0  0
  -10.7359    0.9567   -0.6097 F   0  0  0  0  0  0  0  0  0  0  0  0
   -8.5771   -1.2950    0.3241 C   0  0  0  0  0  0  0  0  0  0  0  0
   -7.4005   -1.9830    0.0155 C   0  0  0  0  0  0  0  0  0  0  0  0
   -2.5237   -2.8451   -0.6854 S   0  0  0  0  0  0  0  0  0  0  0  0
   -1.3373   -1.5267   -0.5539 C   0  0  0  0  0  0  0  0  0  0  0  0
   -0.2467   -1.5577   -1.4401 C   0  0  0  0  0  0  0  0  0  0  0  0
    0.7484   -0.5855   -1.3754 C   0  0  0  0  0  0  0  0  0  0  0  0
    0.6651    0.4081   -0.4025 C   0  0  0  0  0  0  0  0  0  0  0  0
    1.6806    1.4814   -0.3301 C   0  0  0  0  0  0  0  0  0  0  0  0
    1.2766    2.6411   -0.3628 O   0  0  0  0  0  0  0  0  0  0  0  0
    3.0288    1.1347   -0.2544 N   0  0  0  0  0  0  0  0  0  0  0  0
    3.4943   -0.1000    0.4018 C   0  0  0  0  0  0  0  0  0  0  0  0
    4.9146   -0.4989   -0.0375 C   0  0  0  0  0  0  0  0  0  0  0  0
    5.8471    0.6350    0.1444 N   0  0  0  0  0  0  0  0  0  0  0  0
    7.1823    0.2847   -0.1483 C   0  0  0  0  0  0  0  0  0  0  0  0
    8.2135    1.1596    0.2038 C   0  0  0  0  0  0  0  0  0  0  0  0
    9.5384    0.8229   -0.0684 C   0  0  0  0  0  0  0  0  0  0  0  0
    9.8149   -0.3907   -0.6782 C   0  0  0  0  0  0  0  0  0  0  0  0
    8.7478   -1.2128   -0.9862 C   0  0  0  0  0  0  0  0  0  0  0  0
    7.4555   -0.9026   -0.7333 N   0  0  0  0  0  0  0  0  0  0  0  0
    5.4105    1.8385   -0.5992 C   0  0  0  0  0  0  0  0  0  0  0  0
    3.9861    2.2442   -0.1787 C   0  0  0  0  0  0  0  0  0  0  0  0
   -0.4276    0.4570    0.4726 C   0  0  0  0  0  0  0  0  0  0  0  0
   -1.4457   -0.5099    0.4136 C   0  0  0  0  0  0  0  0  0  0  0  0
   -1.5187    0.2640    3.0076 H   0  0  0  0  0  0  0  0  0  0  0  0
   -3.2672    0.2015    3.2169 H   0  0  0  0  0  0  0  0  0  0  0  0
   -2.5815    1.4450    2.1629 H   0  0  0  0  0  0  0  0  0  0  0  0
   -5.1431   -2.6299   -1.6885 H   0  0  0  0  0  0  0  0  0  0  0  0
   -5.4974    0.6516   -1.0057 H   0  0  0  0  0  0  0  0  0  0  0  0
   -7.5675    1.8631   -0.4634 H   0  0  0  0  0  0  0  0  0  0  0  0
   -9.4348   -1.8519    0.6990 H   0  0  0  0  0  0  0  0  0  0  0  0
   -7.3594   -3.0600    0.1617 H   0  0  0  0  0  0  0  0  0  0  0  0
   -0.1698   -2.3412   -2.1918 H   0  0  0  0  0  0  0  0  0  0  0  0
    1.5744   -0.6021   -2.0819 H   0  0  0  0  0  0  0  0  0  0  0  0
    2.8110   -0.9315    0.2186 H   0  0  0  0  0  0  0  0  0  0  0  0
    3.4760    0.0941    1.4820 H   0  0  0  0  0  0  0  0  0  0  0  0
    4.8823   -0.8061   -1.0919 H   0  0  0  0  0  0  0  0  0  0  0  0
    5.2295   -1.3583    0.5675 H   0  0  0  0  0  0  0  0  0  0  0  0
    7.9926    2.0945    0.7080 H   0  0  0  0  0  0  0  0  0  0  0  0
   10.3432    1.4991    0.2055 H   0  0  0  0  0  0  0  0  0  0  0  0
   10.8326   -0.6912   -0.9001 H   0  0  0  0  0  0  0  0  0  0  0  0
    8.9044   -2.1772   -1.4598 H   0  0  0  0  0  0  0  0  0  0  0  0
    6.0715    2.6922   -0.4115 H   0  0  0  0  0  0  0  0  0  0  0  0
    5.4237    1.6327   -1.6783 H   0  0  0  0  0  0  0  0  0  0  0  0
    3.9867    2.5977    0.8603 H   0  0  0  0  0  0  0  0  0  0  0  0
    3.6444    3.0730   -0.8090 H   0  0  0  0  0  0  0  0  0  0  0  0
   -0.4665    1.2825    1.1783 H   0  0  0  0  0  0  0  0  0  0  0  0
  1  2  1  0
  2  3  1  0
  3  4  2  0
  3  5  1  0
  5  6  2  3
  6  7  1  0
  7  8  2  0
  8  9  1  0
  9 10  2  0
 10 11  1  0
 11 12  1  0
 11 13  1  0
 11 14  1  0
 10 15  1  0
 15 16  2  0
  5 17  1  0
 17 18  1  0
 18 19  2  0
 19 20  1  0
 20 21  2  0
 21 22  1  0
 22 23  2  0
 22 24  1  0
 24 25  1  0
 25 26  1  0
 26 27  1  0
 27 28  1  0
 28 29  2  0
 29 30  1  0
 30 31  2  0
 31 32  1  0
 32 33  2  0
 27 34  1  0
 34 35  1  0
 21 36  1  0
 36 37  2  0
 37  2  1  0
 16  7  1  0
 37 18  1  0
 35 24  1  0
 33 28  1  0
  1 38  1  0
  1 39  1  0
  1 40  1  0
  6 41  1  0
  8 42  1  0
  9 43  1  0
 15 44  1  0
 16 45  1  0
 19 46  1  0
 20 47  1  0
 25 48  1  0
 25 49  1  0
 26 50  1  0
 26 51  1  0
 29 52  1  0
 30 53  1  0
 31 54  1  0
 32 55  1  0
 34 56  1  0
 34 57  1  0
 35 58  1  0
 35 59  1  0
 36 60  1  0
M  END
$$$$
