
     RDKit          3D

 71 77  0  0  0  0  0  0  0  0999 V2000
    3.5550    2.9875    1.1638 C   0  0  0  0  0  0  0  0  0  0  0  0
    3.3971    1.6581    0.6821 O   0  0  0  0  0  0  0  0  0  0  0  0
    4.2254    1.3687   -0.4432 C   0  0  0  0  0  0  0  0  0  0  0  0
    3.7040    0.2756   -1.4472 C   0  0  0  0  0  0  0  0  0  0  0  0
    4.4975   -0.3106   -2.1963 O   0  0  0  0  0  0  0  0  0  0  0  0
    2.3382    0.0150   -1.5449 N   0  0  0  0  0  0  0  0  0  0  0  0
    1.8869   -0.9644   -2.5522 C   0  0  0  0  0  0  0  0  0  0  0  0
    0.5923   -1.7403   -2.1796 C   0  0  0  0  0  0  0  0  0  0  0  0
   -0.2670   -0.9960   -1.2850 N   0  0  0  0  0  0  0  0  0  0  0  0
   -0.1179    0.4779   -1.3878 C   0  0  2  0  0  0  0  0  0  0  0  0
    1.2874    0.8309   -0.8916 C   0  0  0  0  0  0  0  0  0  0  0  0
   -1.2690    0.9124   -0.5711 C   0  0  0  0  0  0  0  0  0  0  0  0
   -2.1751   -0.1423   -0.3755 C   0  0  0  0  0  0  0  0  0  0  0  0
   -3.2181    0.3206    0.3881 C   0  0  0  0  0  0  0  0  0  0  0  0
   -4.3131   -0.3048    0.8131 O   0  0  0  0  0  0  0  0  0  0  0  0
   -2.9900    1.6953    0.6144 N   0  0  0  0  0  0  0  0  0  0  0  0
   -3.8987    2.6140    1.2312 C   0  0  0  0  0  0  0  0  0  0  0  0
   -3.9449    3.9505    0.8024 C   0  0  0  0  0  0  0  0  0  0  0  0
   -4.8340    4.8509    1.3948 C   0  0  0  0  0  0  0  0  0  0  0  0
   -5.6847    4.4254    2.4129 C   0  0  0  0  0  0  0  0  0  0  0  0
   -5.6548    3.0982    2.8348 C   0  0  0  0  0  0  0  0  0  0  0  0
   -4.7696    2.1921    2.2442 C   0  0  0  0  0  0  0  0  0  0  0  0
   -1.7213    2.0189    0.0874 C   0  0  0  0  0  0  0  0  0  0  0  0
   -1.0939    3.1807    0.2630 O   0  0  0  0  0  0  0  0  0  0  0  0
   -1.6712   -1.3665   -1.0542 C   0  0  1  0  0  0  0  0  0  0  0  0
   -2.4765   -1.7237   -2.3270 C   0  0  0  0  0  0  0  0  0  0  0  0
   -2.5803   -1.0969   -3.3702 O   0  0  0  0  0  0  0  0  0  0  0  0
   -3.0884   -2.9556   -2.0745 N   0  0  0  0  0  0  0  0  0  0  0  0
   -2.7410   -3.4636   -0.8232 C   0  0  0  0  0  0  0  0  0  0  0  0
   -1.8937   -2.5565   -0.1682 C   0  0  0  0  0  0  0  0  0  0  0  0
   -1.3873   -2.8406    1.0885 C   0  0  0  0  0  0  0  0  0  0  0  0
   -1.7633   -4.0425    1.6886 C   0  0  0  0  0  0  0  0  0  0  0  0
   -2.6244   -4.9419    1.0285 C   0  0  0  0  0  0  0  0  0  0  0  0
   -3.0460   -6.3942    1.8699 Cl  0  0  0  0  0  0  0  0  0  0  0  0
   -3.1283   -4.6728   -0.2586 C   0  0  0  0  0  0  0  0  0  0  0  0
   -4.0535   -5.6241   -0.9571 C   0  0  0  0  0  0  0  0  0  0  0  0
    5.6083    0.9892    0.0834 C   0  0  0  0  0  0  0  0  0  0  0  0
    5.7467    0.0182    1.0892 C   0  0  0  0  0  0  0  0  0  0  0  0
    7.0092   -0.3346    1.5696 C   0  0  0  0  0  0  0  0  0  0  0  0
    8.1485    0.2734    1.0463 C   0  0  0  0  0  0  0  0  0  0  0  0
    8.0266    1.2348    0.0446 C   0  0  0  0  0  0  0  0  0  0  0  0
    6.7646    1.5908   -0.4381 C   0  0  0  0  0  0  0  0  0  0  0  0
    3.3008    3.7139    0.3861 H   0  0  0  0  0  0  0  0  0  0  0  0
    4.5741    3.1566    1.5199 H   0  0  0  0  0  0  0  0  0  0  0  0
    2.8690    3.1299    2.0037 H   0  0  0  0  0  0  0  0  0  0  0  0
    4.3049    2.2749   -1.0628 H   0  0  0  0  0  0  0  0  0  0  0  0
    2.6817   -1.6836   -2.7766 H   0  0  0  0  0  0  0  0  0  0  0  0
    1.7101   -0.3868   -3.4687 H   0  0  0  0  0  0  0  0  0  0  0  0
    0.0860   -2.0138   -3.1112 H   0  0  0  0  0  0  0  0  0  0  0  0
    0.8770   -2.6755   -1.6838 H   0  0  0  0  0  0  0  0  0  0  0  0
   -0.2639    0.8064   -2.4256 H   0  0  0  0  0  0  0  0  0  0  0  0
    1.5007    1.8911   -1.0681 H   0  0  0  0  0  0  0  0  0  0  0  0
    1.3527    0.6379    0.1854 H   0  0  0  0  0  0  0  0  0  0  0  0
   -4.2785   -1.2271    0.5006 H   0  0  0  0  0  0  0  0  0  0  0  0
   -3.3412    4.3018   -0.0324 H   0  0  0  0  0  0  0  0  0  0  0  0
   -4.8759    5.8796    1.0467 H   0  0  0  0  0  0  0  0  0  0  0  0
   -6.3814    5.1240    2.8694 H   0  0  0  0  0  0  0  0  0  0  0  0
   -6.3233    2.7642    3.6247 H   0  0  0  0  0  0  0  0  0  0  0  0
   -4.7618    1.1703    2.6137 H   0  0  0  0  0  0  0  0  0  0  0  0
   -1.4790    3.6233    1.0420 H   0  0  0  0  0  0  0  0  0  0  0  0
   -3.6638   -3.4126   -2.7669 H   0  0  0  0  0  0  0  0  0  0  0  0
   -0.7159   -2.1500    1.5911 H   0  0  0  0  0  0  0  0  0  0  0  0
   -1.3800   -4.2820    2.6781 H   0  0  0  0  0  0  0  0  0  0  0  0
   -4.2092   -5.3573   -2.0072 H   0  0  0  0  0  0  0  0  0  0  0  0
   -3.6400   -6.6384   -0.9566 H   0  0  0  0  0  0  0  0  0  0  0  0
   -5.0307   -5.6297   -0.4633 H   0  0  0  0  0  0  0  0  0  0  0  0
    4.8620   -0.4633    1.5033 H   0  0  0  0  0  0  0  0  0  0  0  0
    7.1026   -1.0885    2.3463 H   0  0  0  0  0  0  0  0  0  0  0  0
    9.1323   -0.0064    1.4158 H   0  0  0  0  0  0  0  0  0  0  0  0
    8.9172    1.7003   -0.3691 H   0  0  0  0  0  0  0  0  0  0  0  0
    6.6917    2.3329   -1.2300 H   0  0  0  0  0  0  0  0  0  0  0  0
  1  2  1  0
  2  3  1  0
  3  4  1  0
  4  5  2  0
  4  6  1  0
  6  7  1  0
  7  8  1  0
  8  9  1  0
  9 10  1  0
 10 11  1  0
 10 12  1  0
 12 13  1  0
 13 14  2  0
 14 15  1  0
 14 16  1  0
 16 17  1  0
 17 18  2  0
 18 19  1  0
 19 20  2  0
 20 21  1  0
 21 22  2  0
 16 23  1  0
 23 24  1  0
 13 25  1  0
 25 26  1  0
 26 27  2  0
 26 28  1  0
 28 29  1  0
 29 30  2  0
 30 31  1  0
 31 32  2  0
 32 33  1  0
 33 34  1  0
 33 35  2  0
 35 36  1  0
  3 37  1  0
 37 38  2  0
 38 39  1  0
 39 40  2  0
 40 41  1  0
 41 42  2  0
 11  6  1  0
 23 12  2  0
 30 25  1  0
 42 37  1  0
 25  9  1  6
 35 29  1  0
 22 17  1  0
  1 43  1  0
  1 44  1  0
  1 45  1  0
  3 46  1  0
  7 47  1  0
  7 48  1  0
  8 49  1  0
  8 50  1  0
 10 51  1  6
 11 52  1  0
 11 53  1  0
 15 54  1  0
 18 55  1  0
 19 56  1  0
 20 57  1  0
 21 58  1  0
 22 59  1  0
 24 60  1  0
 28 61  1  0
 31 62  1  0
 32 63  1  0
 36 64  1  0
 36 65  1  0
 36 66  1  0
 38 67  1  0
 39 68  1  0
 40 69  1  0
 41 70  1  0
 42 71  1  0
M  END
$$$$
