
     RDKit          3D

 47 49  0  0  0  0  0  0  0  0999 V2000
   -2.6680    0.7229    0.7915 O   0  0  0  0  0  0  0  0  0  0  0  0
   -2.9128   -0.2938    0.1509 C   0  0  0  0  0  0  0  0  0  0  0  0
   -4.3461   -0.7650   -0.1373 C   0  0  0  0  0  0  0  0  0  0  0  0
   -5.3078    0.1204    0.4147 O   0  0  0  0  0  0  0  0  0  0  0  0
   -6.6261   -0.1860    0.2286 C   0  0  0  0  0  0  0  0  0  0  0  0
   -7.1258   -1.2954   -0.4560 C   0  0  0  0  0  0  0  0  0  0  0  0
   -8.5078   -1.4856   -0.5703 C   0  0  0  0  0  0  0  0  0  0  0  0
   -9.3870   -0.5667   -0.0000 C   0  0  0  0  0  0  0  0  0  0  0  0
  -11.2519   -0.8289   -0.1577 Br  0  0  0  0  0  0  0  0  0  0  0  0
   -8.8986    0.5420    0.6845 C   0  0  0  0  0  0  0  0  0  0  0  0
   -7.5191    0.7281    0.7962 C   0  0  0  0  0  0  0  0  0  0  0  0
   -1.9701   -1.1564   -0.4012 N   0  0  0  0  0  0  0  0  0  0  0  0
   -0.5652   -1.0488   -0.3354 C   0  0  0  0  0  0  0  0  0  0  0  0
    0.1130   -0.0293    0.3351 C   0  0  0  0  0  0  0  0  0  0  0  0
    1.5146    0.0064    0.3555 C   0  0  0  0  0  0  0  0  0  0  0  0
    2.2563   -0.9776   -0.3069 C   0  0  0  0  0  0  0  0  0  0  0  0
    3.7506   -0.9934   -0.3126 C   0  0  0  0  0  0  0  0  0  0  0  0
    4.3150   -2.0758   -0.4246 O   0  0  0  0  0  0  0  0  0  0  0  0
    4.3562    0.2445   -0.2230 N   0  0  0  0  0  0  0  0  0  0  0  0
    5.7425    0.5479   -0.1694 C   0  0  0  0  0  0  0  0  0  0  0  0
    6.7229   -0.4518   -0.1384 C   0  0  0  0  0  0  0  0  0  0  0  0
    8.0827   -0.1283   -0.0849 C   0  0  0  0  0  0  0  0  0  0  0  0
    8.4877    1.2010   -0.0585 C   0  0  0  0  0  0  0  0  0  0  0  0
    7.5313    2.2138   -0.0828 C   0  0  0  0  0  0  0  0  0  0  0  0
    6.1610    1.9003   -0.1363 C   0  0  0  0  0  0  0  0  0  0  0  0
    5.1574    3.0003   -0.1521 C   0  0  0  0  0  0  0  0  0  0  0  0
    3.9465    2.8532   -0.1696 O   0  0  0  0  0  0  0  0  0  0  0  0
    5.7038    4.2292   -0.1460 O   0  0  0  0  0  0  0  0  0  0  0  0
    1.5793   -2.0093   -0.9665 C   0  0  0  0  0  0  0  0  0  0  0  0
    0.1808   -2.0413   -0.9833 C   0  0  0  0  0  0  0  0  0  0  0  0
   -4.4562   -1.7623    0.3060 H   0  0  0  0  0  0  0  0  0  0  0  0
   -4.4615   -0.8113   -1.2272 H   0  0  0  0  0  0  0  0  0  0  0  0
   -6.4738   -2.0317   -0.9126 H   0  0  0  0  0  0  0  0  0  0  0  0
   -8.8868   -2.3526   -1.1053 H   0  0  0  0  0  0  0  0  0  0  0  0
   -9.5749    1.2644    1.1331 H   0  0  0  0  0  0  0  0  0  0  0  0
   -7.1339    1.5939    1.3310 H   0  0  0  0  0  0  0  0  0  0  0  0
   -2.3239   -1.9541   -0.9140 H   0  0  0  0  0  0  0  0  0  0  0  0
   -0.4164    0.7570    0.8655 H   0  0  0  0  0  0  0  0  0  0  0  0
    1.9981    0.8019    0.9171 H   0  0  0  0  0  0  0  0  0  0  0  0
    3.7462    1.0618   -0.2546 H   0  0  0  0  0  0  0  0  0  0  0  0
    6.4629   -1.5060   -0.1518 H   0  0  0  0  0  0  0  0  0  0  0  0
    8.8233   -0.9248   -0.0631 H   0  0  0  0  0  0  0  0  0  0  0  0
    9.5455    1.4487   -0.0166 H   0  0  0  0  0  0  0  0  0  0  0  0
    7.8663    3.2482   -0.0578 H   0  0  0  0  0  0  0  0  0  0  0  0
    4.9373    4.8403   -0.1585 H   0  0  0  0  0  0  0  0  0  0  0  0
    2.1406   -2.7931   -1.4723 H   0  0  0  0  0  0  0  0  0  0  0  0
   -0.3083   -2.8570   -1.5096 H   0  0  0  0  0  0  0  0  0  0  0  0
  1  2  2  0
  2  3  1  0
  3  4  1  0
  4  5  1  0
  5  6  2  0
  6  7  1  0
  7  8  2  0
  8  9  1  0
  8 10  1  0
 10 11  2  0
  2 12  1  0
 12 13  1  0
 13 14  2  0
 14 15  1  0
 15 16  2  0
 16 17  1  0
 17 18  2  0
 17 19  1  0
 19 20  1  0
 20 21  2  0
 21 22  1  0
 22 23  2  0
 23 24  1  0
 24 25  2  0
 25 26  1  0
 26 27  2  0
 26 28  1  0
 16 29  1  0
 29 30  2  0
 11  5  1  0
 30 13  1  0
 25 20  1  0
  3 31  1  0
  3 32  1  0
  6 33  1  0
  7 34  1  0
 10 35  1  0
 11 36  1  0
 12 37  1  0
 14 38  1  0
 15 39  1  0
 19 40  1  0
 21 41  1  0
 22 42  1  0
 23 43  1  0
 24 44  1  0
 28 45  1  0
 29 46  1  0
 30 47  1  0
M  END
$$$$
