
     RDKit          3D

 40 42  0  0  0  0  0  0  0  0999 V2000
   -4.5382    2.3376   -0.7240 C   0  0  0  0  0  0  0  0  0  0  0  0
   -3.3725    1.6020   -0.2415 N   0  0  0  0  0  0  0  0  0  0  0  0
   -2.2151    2.3516    0.0239 C   0  0  0  0  0  0  0  0  0  0  0  0
   -2.2168    3.5758    0.1589 O   0  0  0  0  0  0  0  0  0  0  0  0
   -0.8852    1.6838    0.0319 C   0  0  0  0  0  0  0  0  0  0  0  0
   -0.5489    0.7161   -0.9187 C   0  0  0  0  0  0  0  0  0  0  0  0
    0.7189    0.1255   -0.8941 C   0  0  0  0  0  0  0  0  0  0  0  0
    1.6695    0.5015    0.0663 C   0  0  0  0  0  0  0  0  0  0  0  0
    2.9196   -0.1512    0.0162 N   0  0  0  0  0  0  0  0  0  0  0  0
    3.9984    0.0018    0.8792 C   0  0  0  0  0  0  0  0  0  0  0  0
    3.9936    0.7365    1.8624 O   0  0  0  0  0  0  0  0  0  0  0  0
    5.1594   -0.8081    0.5245 C   0  0  0  0  0  0  0  0  0  0  0  0
    5.4604   -1.6438   -0.5407 C   0  0  0  0  0  0  0  0  0  0  0  0
    6.7654   -2.1507   -0.3163 C   0  0  0  0  0  0  0  0  0  0  0  0
    7.1897   -1.5988    0.8664 C   0  0  0  0  0  0  0  0  0  0  0  0
    6.2327   -0.7889    1.3805 O   0  0  0  0  0  0  0  0  0  0  0  0
    1.3353    1.4925    0.9921 C   0  0  0  0  0  0  0  0  0  0  0  0
    0.0683    2.0882    0.9704 C   0  0  0  0  0  0  0  0  0  0  0  0
   -3.5636    0.2226    0.1032 C   0  0  0  0  0  0  0  0  0  0  0  0
   -4.4966   -0.5631   -0.5918 C   0  0  0  0  0  0  0  0  0  0  0  0
   -4.7008   -1.9065   -0.2591 C   0  0  0  0  0  0  0  0  0  0  0  0
   -3.9864   -2.4836    0.7856 C   0  0  0  0  0  0  0  0  0  0  0  0
   -3.0754   -1.7151    1.5027 C   0  0  0  0  0  0  0  0  0  0  0  0
   -2.8715   -0.3722    1.1681 C   0  0  0  0  0  0  0  0  0  0  0  0
   -4.3777    3.4193   -0.7071 H   0  0  0  0  0  0  0  0  0  0  0  0
   -4.7373    2.0516   -1.7614 H   0  0  0  0  0  0  0  0  0  0  0  0
   -5.4066    2.1150   -0.0953 H   0  0  0  0  0  0  0  0  0  0  0  0
   -1.2634    0.4189   -1.6819 H   0  0  0  0  0  0  0  0  0  0  0  0
    0.9477   -0.6318   -1.6397 H   0  0  0  0  0  0  0  0  0  0  0  0
    3.0255   -0.8281   -0.7241 H   0  0  0  0  0  0  0  0  0  0  0  0
    4.8306   -1.8671   -1.3893 H   0  0  0  0  0  0  0  0  0  0  0  0
    7.3285   -2.8307   -0.9404 H   0  0  0  0  0  0  0  0  0  0  0  0
    8.0982   -1.6745    1.4482 H   0  0  0  0  0  0  0  0  0  0  0  0
    2.0384    1.8393    1.7433 H   0  0  0  0  0  0  0  0  0  0  0  0
   -0.1701    2.8693    1.6899 H   0  0  0  0  0  0  0  0  0  0  0  0
   -5.0648   -0.1576   -1.4237 H   0  0  0  0  0  0  0  0  0  0  0  0
   -5.4199   -2.4999   -0.8182 H   0  0  0  0  0  0  0  0  0  0  0  0
   -4.1473   -3.5259    1.0482 H   0  0  0  0  0  0  0  0  0  0  0  0
   -2.5297   -2.1529    2.3351 H   0  0  0  0  0  0  0  0  0  0  0  0
   -2.1919    0.2017    1.7916 H   0  0  0  0  0  0  0  0  0  0  0  0
  1  2  1  0
  2  3  1  0
  3  4  2  0
  3  5  1  0
  5  6  2  0
  6  7  1  0
  7  8  2  0
  8  9  1  0
  9 10  1  0
 10 11  2  0
 10 12  1  0
 12 13  2  0
 13 14  1  0
 14 15  2  0
 15 16  1  0
  8 17  1  0
 17 18  2  0
  2 19  1  0
 19 20  2  0
 20 21  1  0
 21 22  2  0
 22 23  1  0
 23 24  2  0
 18  5  1  0
 24 19  1  0
 16 12  1  0
  1 25  1  0
  1 26  1  0
  1 27  1  0
  6 28  1  0
  7 29  1  0
  9 30  1  0
 13 31  1  0
 14 32  1  0
 15 33  1  0
 17 34  1  0
 18 35  1  0
 20 36  1  0
 21 37  1  0
 22 38  1  0
 23 39  1  0
 24 40  1  0
M  END
$$$$
