
     RDKit          3D

 57 59  0  0  0  0  0  0  0  0999 V2000
    5.8365    0.5113   -0.8682 C   0  0  0  0  0  0  0  0  0  0  0  0
    4.9158    0.1942    0.3156 C   0  0  0  0  0  0  0  0  0  0  0  0
    5.7339   -0.9973    1.4514 S   0  0  0  0  0  0  0  0  0  0  0  0
    6.2210    0.0940    2.8228 C   0  0  0  0  0  0  0  0  0  0  0  0
    7.1010    1.2551    2.4400 C   0  0  0  0  0  0  0  0  0  0  0  0
    8.3807    1.0438    1.8897 C   0  0  0  0  0  0  0  0  0  0  0  0
    9.1935    2.1253    1.5428 C   0  0  0  0  0  0  0  0  0  0  0  0
    8.7497    3.4266    1.7596 C   0  0  0  0  0  0  0  0  0  0  0  0
    7.4897    3.6500    2.3254 C   0  0  0  0  0  0  0  0  0  0  0  0
    6.6685    2.5713    2.6616 C   0  0  0  0  0  0  0  0  0  0  0  0
    3.6026   -0.4399   -0.1694 C   0  0  0  0  0  0  0  0  0  0  0  0
    3.5183   -1.0712   -1.2197 O   0  0  0  0  0  0  0  0  0  0  0  0
    2.5643   -0.2145    0.7307 N   0  0  0  0  0  0  0  0  0  0  0  0
    1.2631   -0.6335    0.6308 N   0  0  0  0  0  0  0  0  0  0  0  0
    0.7715   -0.9309   -0.5284 C   0  0  0  0  0  0  0  0  0  0  0  0
   -0.6261   -1.3892   -0.6792 C   0  0  0  0  0  0  0  0  0  0  0  0
   -1.0664   -1.7990   -1.9367 C   0  0  0  0  0  0  0  0  0  0  0  0
   -2.3903   -2.2112   -2.1030 C   0  0  0  0  0  0  0  0  0  0  0  0
   -3.2804   -2.2161   -1.0239 C   0  0  0  0  0  0  0  0  0  0  0  0
   -4.5463   -2.6267   -1.3373 O   0  0  0  0  0  0  0  0  0  0  0  0
   -5.4816   -2.7844   -0.2761 C   0  0  0  0  0  0  0  0  0  0  0  0
   -6.1627   -1.4916    0.1845 C   0  0  0  0  0  0  0  0  0  0  0  0
   -6.6417   -1.3749    1.3085 O   0  0  0  0  0  0  0  0  0  0  0  0
   -6.2201   -0.5094   -0.7728 N   0  0  0  0  0  0  0  0  0  0  0  0
   -6.9221    0.7358   -0.5784 C   0  0  0  0  0  0  0  0  0  0  0  0
   -8.2026    0.6684   -1.3191 C   0  0  0  0  0  0  0  0  0  0  0  0
   -9.4502    0.1701   -1.0102 C   0  0  0  0  0  0  0  0  0  0  0  0
  -10.2654    0.3993   -2.1418 C   0  0  0  0  0  0  0  0  0  0  0  0
   -9.4655    1.0222   -3.0662 C   0  0  0  0  0  0  0  0  0  0  0  0
   -8.2096    1.1862   -2.5782 O   0  0  0  0  0  0  0  0  0  0  0  0
   -2.8340   -1.8041    0.2319 C   0  0  0  0  0  0  0  0  0  0  0  0
   -1.5069   -1.3962    0.4055 C   0  0  0  0  0  0  0  0  0  0  0  0
    5.3330    1.1960   -1.5721 H   0  0  0  0  0  0  0  0  0  0  0  0
    6.1131   -0.3920   -1.4416 H   0  0  0  0  0  0  0  0  0  0  0  0
    6.7564    1.0051   -0.5499 H   0  0  0  0  0  0  0  0  0  0  0  0
    4.6702    1.1171    0.8463 H   0  0  0  0  0  0  0  0  0  0  0  0
    5.3119    0.4344    3.3261 H   0  0  0  0  0  0  0  0  0  0  0  0
    6.7605   -0.5134    3.5490 H   0  0  0  0  0  0  0  0  0  0  0  0
    8.7484    0.0303    1.7161 H   0  0  0  0  0  0  0  0  0  0  0  0
   10.1724    1.9514    1.1061 H   0  0  0  0  0  0  0  0  0  0  0  0
    9.3872    4.2679    1.4953 H   0  0  0  0  0  0  0  0  0  0  0  0
    7.1518    4.6648    2.5108 H   0  0  0  0  0  0  0  0  0  0  0  0
    5.6907    2.7710    3.1056 H   0  0  0  0  0  0  0  0  0  0  0  0
    2.8145    0.0752    1.6752 H   0  0  0  0  0  0  0  0  0  0  0  0
    1.3323   -0.8346   -1.4700 H   0  0  0  0  0  0  0  0  0  0  0  0
   -0.3915   -1.8051   -2.7892 H   0  0  0  0  0  0  0  0  0  0  0  0
   -2.7290   -2.5327   -3.0838 H   0  0  0  0  0  0  0  0  0  0  0  0
   -5.0378   -3.3054    0.5803 H   0  0  0  0  0  0  0  0  0  0  0  0
   -6.2816   -3.4321   -0.6532 H   0  0  0  0  0  0  0  0  0  0  0  0
   -5.8321   -0.7055   -1.6897 H   0  0  0  0  0  0  0  0  0  0  0  0
   -7.0978    0.9211    0.4853 H   0  0  0  0  0  0  0  0  0  0  0  0
   -6.2869    1.5381   -0.9675 H   0  0  0  0  0  0  0  0  0  0  0  0
   -9.7308   -0.3004   -0.0808 H   0  0  0  0  0  0  0  0  0  0  0  0
  -11.3074    0.1435   -2.2669 H   0  0  0  0  0  0  0  0  0  0  0  0
   -9.6294    1.3931   -4.0661 H   0  0  0  0  0  0  0  0  0  0  0  0
   -3.4865   -1.7770    1.0993 H   0  0  0  0  0  0  0  0  0  0  0  0
   -1.1698   -1.0744    1.3880 H   0  0  0  0  0  0  0  0  0  0  0  0
  1  2  1  0
  2  3  1  0
  3  4  1  0
  4  5  1  0
  5  6  2  0
  6  7  1  0
  7  8  2  0
  8  9  1  0
  9 10  2  0
  2 11  1  0
 11 12  2  0
 11 13  1  0
 13 14  1  0
 14 15  2  3
 15 16  1  0
 16 17  2  0
 17 18  1  0
 18 19  2  0
 19 20  1  0
 20 21  1  0
 21 22  1  0
 22 23  2  0
 22 24  1  0
 24 25  1  0
 25 26  1  0
 26 27  2  0
 27 28  1  0
 28 29  2  0
 29 30  1  0
 19 31  1  0
 31 32  2  0
 10  5  1  0
 32 16  1  0
 30 26  1  0
  1 33  1  0
  1 34  1  0
  1 35  1  0
  2 36  1  0
  4 37  1  0
  4 38  1  0
  6 39  1  0
  7 40  1  0
  8 41  1  0
  9 42  1  0
 10 43  1  0
 13 44  1  0
 15 45  1  0
 17 46  1  0
 18 47  1  0
 21 48  1  0
 21 49  1  0
 24 50  1  0
 25 51  1  0
 25 52  1  0
 27 53  1  0
 28 54  1  0
 29 55  1  0
 31 56  1  0
 32 57  1  0
M  END
$$$$
