
     RDKit          3D

 46 48  0  0  0  0  0  0  0  0999 V2000
   -7.3915    0.2876   -1.7034 C   0  0  0  0  0  0  0  0  0  0  0  0
   -6.9169   -0.0046   -0.3950 O   0  0  0  0  0  0  0  0  0  0  0  0
   -5.5903   -0.3184   -0.2721 C   0  0  0  0  0  0  0  0  0  0  0  0
   -4.6681   -0.3901   -1.3138 C   0  0  0  0  0  0  0  0  0  0  0  0
   -3.3381   -0.7242   -1.0463 C   0  0  0  0  0  0  0  0  0  0  0  0
   -2.9170   -0.9838    0.2651 C   0  0  0  0  0  0  0  0  0  0  0  0
   -1.5130   -1.3420    0.5163 C   0  0  0  0  0  0  0  0  0  0  0  0
   -0.4651   -0.5121    0.4295 C   0  0  0  0  0  0  0  0  0  0  0  0
   -0.4763    1.1679    0.0046 S   0  0  0  0  0  0  0  0  0  0  0  0
    1.2460    1.2774    0.2182 C   0  0  0  0  0  0  0  0  0  0  0  0
    1.9064    2.4267    0.0409 C   0  0  0  0  0  0  0  0  0  0  0  0
    3.3628    2.6437    0.2055 C   0  0  0  0  0  0  0  0  0  0  0  0
    3.7580    3.6451    0.7942 O   0  0  0  0  0  0  0  0  0  0  0  0
    4.3355    1.6758   -0.3574 C   0  0  0  0  0  0  0  0  0  0  0  0
    4.0813    0.9711   -1.5395 C   0  0  0  0  0  0  0  0  0  0  0  0
    5.0229    0.0591   -2.0233 C   0  0  0  0  0  0  0  0  0  0  0  0
    6.2336   -0.1391   -1.3479 C   0  0  0  0  0  0  0  0  0  0  0  0
    7.2286   -1.1436   -1.8517 C   0  0  0  0  0  0  0  0  0  0  0  0
    6.4852    0.5760   -0.1708 C   0  0  0  0  0  0  0  0  0  0  0  0
    5.5465    1.4874    0.3167 C   0  0  0  0  0  0  0  0  0  0  0  0
    1.7776    0.0792    0.5923 N   0  0  0  0  0  0  0  0  0  0  0  0
    0.9139   -0.9778    0.7363 C   0  0  0  0  0  0  0  0  0  0  0  0
    1.2412   -2.1084    1.0558 O   0  0  0  0  0  0  0  0  0  0  0  0
   -3.8459   -0.9204    1.3196 C   0  0  0  0  0  0  0  0  0  0  0  0
   -3.3594   -1.2003    2.5721 O   0  0  0  0  0  0  0  0  0  0  0  0
   -4.2660   -1.1040    3.6628 C   0  0  0  0  0  0  0  0  0  0  0  0
   -5.1752   -0.5857    1.0382 C   0  0  0  0  0  0  0  0  0  0  0  0
   -6.8863    1.1653   -2.1200 H   0  0  0  0  0  0  0  0  0  0  0  0
   -8.4576    0.5222   -1.6275 H   0  0  0  0  0  0  0  0  0  0  0  0
   -7.2877   -0.5799   -2.3635 H   0  0  0  0  0  0  0  0  0  0  0  0
   -4.9477   -0.1947   -2.3434 H   0  0  0  0  0  0  0  0  0  0  0  0
   -2.6316   -0.7814   -1.8715 H   0  0  0  0  0  0  0  0  0  0  0  0
   -1.3631   -2.3704    0.8405 H   0  0  0  0  0  0  0  0  0  0  0  0
    1.3642    3.3446   -0.1712 H   0  0  0  0  0  0  0  0  0  0  0  0
    3.1630    1.1218   -2.1009 H   0  0  0  0  0  0  0  0  0  0  0  0
    4.8095   -0.4929   -2.9369 H   0  0  0  0  0  0  0  0  0  0  0  0
    7.1777   -1.2313   -2.9421 H   0  0  0  0  0  0  0  0  0  0  0  0
    8.2503   -0.8422   -1.5979 H   0  0  0  0  0  0  0  0  0  0  0  0
    7.0275   -2.1235   -1.4080 H   0  0  0  0  0  0  0  0  0  0  0  0
    7.4174    0.4316    0.3720 H   0  0  0  0  0  0  0  0  0  0  0  0
    5.7617    2.0463    1.2258 H   0  0  0  0  0  0  0  0  0  0  0  0
    2.7560   -0.0744    0.7930 H   0  0  0  0  0  0  0  0  0  0  0  0
   -4.6573   -0.0863    3.7634 H   0  0  0  0  0  0  0  0  0  0  0  0
   -3.7134   -1.3391    4.5777 H   0  0  0  0  0  0  0  0  0  0  0  0
   -5.0764   -1.8341    3.5676 H   0  0  0  0  0  0  0  0  0  0  0  0
   -5.9229   -0.5241    1.8222 H   0  0  0  0  0  0  0  0  0  0  0  0
  1  2  1  0
  2  3  1  0
  3  4  2  0
  4  5  1  0
  5  6  2  0
  6  7  1  0
  7  8  2  3
  8  9  1  0
  9 10  1  0
 10 11  2  3
 11 12  1  0
 12 13  2  0
 12 14  1  0
 14 15  2  0
 15 16  1  0
 16 17  2  0
 17 18  1  0
 17 19  1  0
 19 20  2  0
 10 21  1  0
 21 22  1  0
 22 23  2  0
  6 24  1  0
 24 25  1  0
 25 26  1  0
 24 27  2  0
 27  3  1  0
 22  8  1  0
 20 14  1  0
  1 28  1  0
  1 29  1  0
  1 30  1  0
  4 31  1  0
  5 32  1  0
  7 33  1  0
 11 34  1  0
 15 35  1  0
 16 36  1  0
 18 37  1  0
 18 38  1  0
 18 39  1  0
 19 40  1  0
 20 41  1  0
 21 42  1  0
 26 43  1  0
 26 44  1  0
 26 45  1  0
 27 46  1  0
M  END
$$$$
