
     RDKit          3D

 48 49  0  0  0  0  0  0  0  0999 V2000
   -4.5472    2.1474   -0.8666 C   0  0  0  0  0  0  0  0  0  0  0  0
   -4.7364    1.1075    0.2269 C   0  0  0  0  0  0  0  0  0  0  0  0
   -5.1475   -0.1933   -0.3118 N   0  0  0  0  0  0  0  0  0  0  0  0
   -6.5672   -0.3812   -0.6069 C   0  0  0  0  0  0  0  0  0  0  0  0
   -7.3432   -0.8711    0.6065 C   0  0  0  0  0  0  0  0  0  0  0  0
   -4.3120   -1.3057   -0.4251 C   0  0  0  0  0  0  0  0  0  0  0  0
   -4.6974   -2.4259   -0.7492 O   0  0  0  0  0  0  0  0  0  0  0  0
   -2.8755   -1.1437   -0.1382 C   0  0  0  0  0  0  0  0  0  0  0  0
   -2.0356   -0.5581   -1.0849 C   0  0  0  0  0  0  0  0  0  0  0  0
   -0.6738   -0.4229   -0.8032 C   0  0  0  0  0  0  0  0  0  0  0  0
   -0.1460   -0.8780    0.4147 C   0  0  0  0  0  0  0  0  0  0  0  0
    1.2344   -0.7020    0.6162 N   0  0  0  0  0  0  0  0  0  0  0  0
    1.9899   -1.0396    1.7245 C   0  0  0  0  0  0  0  0  0  0  0  0
    1.5818   -1.5519    2.7631 O   0  0  0  0  0  0  0  0  0  0  0  0
    3.4772   -0.7098    1.5566 C   0  0  0  0  0  0  0  0  0  0  0  0
    3.7163   -0.0671    0.3073 O   0  0  0  0  0  0  0  0  0  0  0  0
    5.0005    0.2916   -0.0020 C   0  0  0  0  0  0  0  0  0  0  0  0
    6.1079    0.0750    0.8246 C   0  0  0  0  0  0  0  0  0  0  0  0
    7.3846    0.4802    0.4169 C   0  0  0  0  0  0  0  0  0  0  0  0
    7.5548    1.1057   -0.8250 C   0  0  0  0  0  0  0  0  0  0  0  0
    8.8948    1.5301   -1.2493 N   0  0  0  0  0  4  0  0  0  0  0  0
    9.0003    2.0818   -2.3530 O   0  0  0  0  0  0  0  0  0  0  0  0
    9.8380    1.3110   -0.4769 O   0  0  0  0  0  1  0  0  0  0  0  0
    6.4592    1.3299   -1.6636 C   0  0  0  0  0  0  0  0  0  0  0  0
    5.1904    0.9216   -1.2466 C   0  0  0  0  0  0  0  0  0  0  0  0
    3.8538    1.2138   -2.3073 Cl  0  0  0  0  0  0  0  0  0  0  0  0
   -0.9983   -1.4808    1.3444 C   0  0  0  0  0  0  0  0  0  0  0  0
   -2.3622   -1.6219    1.0677 C   0  0  0  0  0  0  0  0  0  0  0  0
   -4.2222    3.0979   -0.4323 H   0  0  0  0  0  0  0  0  0  0  0  0
   -5.4793    2.3265   -1.4115 H   0  0  0  0  0  0  0  0  0  0  0  0
   -3.7950    1.8294   -1.5942 H   0  0  0  0  0  0  0  0  0  0  0  0
   -3.8085    1.0109    0.7969 H   0  0  0  0  0  0  0  0  0  0  0  0
   -5.5021    1.4440    0.9347 H   0  0  0  0  0  0  0  0  0  0  0  0
   -6.9859    0.5632   -0.9697 H   0  0  0  0  0  0  0  0  0  0  0  0
   -6.6718   -1.1116   -1.4174 H   0  0  0  0  0  0  0  0  0  0  0  0
   -6.9503   -1.8267    0.9685 H   0  0  0  0  0  0  0  0  0  0  0  0
   -7.2836   -0.1533    1.4307 H   0  0  0  0  0  0  0  0  0  0  0  0
   -8.3982   -1.0102    0.3512 H   0  0  0  0  0  0  0  0  0  0  0  0
   -2.4337   -0.2202   -2.0377 H   0  0  0  0  0  0  0  0  0  0  0  0
   -0.0311    0.0362   -1.5508 H   0  0  0  0  0  0  0  0  0  0  0  0
    1.7585   -0.2669   -0.1394 H   0  0  0  0  0  0  0  0  0  0  0  0
    4.0252   -1.6575    1.6063 H   0  0  0  0  0  0  0  0  0  0  0  0
    3.7559   -0.0446    2.3817 H   0  0  0  0  0  0  0  0  0  0  0  0
    6.0175   -0.4064    1.7944 H   0  0  0  0  0  0  0  0  0  0  0  0
    8.2315    0.3005    1.0782 H   0  0  0  0  0  0  0  0  0  0  0  0
    6.5796    1.8146   -2.6302 H   0  0  0  0  0  0  0  0  0  0  0  0
   -0.6317   -1.8624    2.2924 H   0  0  0  0  0  0  0  0  0  0  0  0
   -3.0165   -2.1058    1.7885 H   0  0  0  0  0  0  0  0  0  0  0  0
  1  2  1  0
  2  3  1  0
  3  4  1  0
  4  5  1  0
  3  6  1  0
  6  7  2  0
  6  8  1  0
  8  9  2  0
  9 10  1  0
 10 11  2  0
 11 12  1  0
 12 13  1  0
 13 14  2  0
 13 15  1  0
 15 16  1  0
 16 17  1  0
 17 18  2  0
 18 19  1  0
 19 20  2  0
 20 21  1  0
 21 22  2  0
 21 23  1  0
 20 24  1  0
 24 25  2  0
 25 26  1  0
 11 27  1  0
 27 28  2  0
 28  8  1  0
 25 17  1  0
  1 29  1  0
  1 30  1  0
  1 31  1  0
  2 32  1  0
  2 33  1  0
  4 34  1  0
  4 35  1  0
  5 36  1  0
  5 37  1  0
  5 38  1  0
  9 39  1  0
 10 40  1  0
 12 41  1  0
 15 42  1  0
 15 43  1  0
 18 44  1  0
 19 45  1  0
 24 46  1  0
 27 47  1  0
 28 48  1  0
M  CHG  2  21   1  23  -1
M  END
$$$$
