
     RDKit          3D

 49 51  0  0  0  0  0  0  0  0999 V2000
    0.4322    2.6455   -1.6588 C   0  0  0  0  0  0  0  0  0  0  0  0
   -0.0094    1.5530   -0.7230 C   0  0  0  0  0  0  0  0  0  0  0  0
   -1.0446    0.6887   -1.1085 C   0  0  0  0  0  0  0  0  0  0  0  0
   -1.4588   -0.3299   -0.2476 C   0  0  0  0  0  0  0  0  0  0  0  0
   -2.7725   -1.4081   -0.7607 S   0  0  0  0  0  6  0  0  0  0  0  0
   -2.4546   -1.8625   -2.0971 O   0  0  0  0  0  0  0  0  0  0  0  0
   -3.0450   -2.3446    0.3091 O   0  0  0  0  0  0  0  0  0  0  0  0
   -4.1068   -0.3467   -0.8640 N   0  0  0  0  0  0  0  0  0  0  0  0
   -4.5530    0.2381    0.4429 C   0  0  0  0  0  0  0  0  0  0  0  0
   -5.6786    1.2484    0.1909 C   0  0  0  0  0  0  0  0  0  0  0  0
   -6.7929    0.6306   -0.4691 O   0  0  0  0  0  0  0  0  0  0  0  0
   -6.3863    0.0864   -1.7339 C   0  0  0  0  0  0  0  0  0  0  0  0
   -5.2838   -0.9642   -1.5604 C   0  0  0  0  0  0  0  0  0  0  0  0
   -0.8447   -0.5085    0.9908 C   0  0  0  0  0  0  0  0  0  0  0  0
    0.1870    0.3509    1.3796 C   0  0  0  0  0  0  0  0  0  0  0  0
    0.6071    1.3842    0.5332 C   0  0  0  0  0  0  0  0  0  0  0  0
    1.6159    2.2700    0.8117 O   0  0  0  0  0  0  0  0  0  0  0  0
    2.2764    2.1809    2.0675 C   0  0  0  0  0  0  0  0  0  0  0  0
    3.3176    1.0597    2.1717 C   0  0  0  0  0  0  0  0  0  0  0  0
    3.6537    0.6146    3.2652 O   0  0  0  0  0  0  0  0  0  0  0  0
    3.8140    0.6763    0.9413 N   0  0  0  0  0  0  0  0  0  0  0  0
    4.7791   -0.3100    0.6596 C   0  0  0  0  0  0  0  0  0  0  0  0
    5.4529   -1.0520    1.6298 C   0  0  0  0  0  0  0  0  0  0  0  0
    6.3971   -2.0143    1.2490 C   0  0  0  0  0  0  0  0  0  0  0  0
    6.6681   -2.2347   -0.1017 C   0  0  0  0  0  0  0  0  0  0  0  0
    7.9436   -3.5359   -0.6029 Br  0  0  0  0  0  0  0  0  0  0  0  0
    6.0065   -1.5031   -1.0811 C   0  0  0  0  0  0  0  0  0  0  0  0
    5.0718   -0.5500   -0.6905 C   0  0  0  0  0  0  0  0  0  0  0  0
    4.4347    0.1572   -1.6381 F   0  0  0  0  0  0  0  0  0  0  0  0
    0.2853    3.6252   -1.1931 H   0  0  0  0  0  0  0  0  0  0  0  0
    1.4884    2.5189   -1.9170 H   0  0  0  0  0  0  0  0  0  0  0  0
   -0.1409    2.6321   -2.5917 H   0  0  0  0  0  0  0  0  0  0  0  0
   -1.5269    0.8029   -2.0780 H   0  0  0  0  0  0  0  0  0  0  0  0
   -4.9197   -0.5641    1.0938 H   0  0  0  0  0  0  0  0  0  0  0  0
   -3.7230    0.7514    0.9357 H   0  0  0  0  0  0  0  0  0  0  0  0
   -5.3261    2.0907   -0.4160 H   0  0  0  0  0  0  0  0  0  0  0  0
   -6.0389    1.6491    1.1436 H   0  0  0  0  0  0  0  0  0  0  0  0
   -7.2669   -0.3711   -2.1958 H   0  0  0  0  0  0  0  0  0  0  0  0
   -6.0539    0.9050   -2.3834 H   0  0  0  0  0  0  0  0  0  0  0  0
   -4.9881   -1.3327   -2.5474 H   0  0  0  0  0  0  0  0  0  0  0  0
   -5.6591   -1.8011   -0.9597 H   0  0  0  0  0  0  0  0  0  0  0  0
   -1.1546   -1.3116    1.6565 H   0  0  0  0  0  0  0  0  0  0  0  0
    0.6425    0.1727    2.3491 H   0  0  0  0  0  0  0  0  0  0  0  0
    1.5595    2.1138    2.8937 H   0  0  0  0  0  0  0  0  0  0  0  0
    2.8230    3.1211    2.2044 H   0  0  0  0  0  0  0  0  0  0  0  0
    3.3890    1.1206    0.1285 H   0  0  0  0  0  0  0  0  0  0  0  0
    5.2696   -0.9081    2.6902 H   0  0  0  0  0  0  0  0  0  0  0  0
    6.9129   -2.5848    2.0183 H   0  0  0  0  0  0  0  0  0  0  0  0
    6.2013   -1.6592   -2.1368 H   0  0  0  0  0  0  0  0  0  0  0  0
  1  2  1  0
  2  3  2  0
  3  4  1  0
  4  5  1  0
  5  6  2  0
  5  7  2  0
  5  8  1  0
  8  9  1  0
  9 10  1  0
 10 11  1  0
 11 12  1  0
 12 13  1  0
  4 14  2  0
 14 15  1  0
 15 16  2  0
 16 17  1  0
 17 18  1  0
 18 19  1  0
 19 20  2  0
 19 21  1  0
 21 22  1  0
 22 23  2  0
 23 24  1  0
 24 25  2  0
 25 26  1  0
 25 27  1  0
 27 28  2  0
 28 29  1  0
 16  2  1  0
 28 22  1  0
 13  8  1  0
  1 30  1  0
  1 31  1  0
  1 32  1  0
  3 33  1  0
  9 34  1  0
  9 35  1  0
 10 36  1  0
 10 37  1  0
 12 38  1  0
 12 39  1  0
 13 40  1  0
 13 41  1  0
 14 42  1  0
 15 43  1  0
 18 44  1  0
 18 45  1  0
 21 46  1  0
 23 47  1  0
 24 48  1  0
 27 49  1  0
M  END
$$$$
