
     RDKit          3D

 78 81  0  0  0  0  0  0  0  0999 V2000
    0.9242    2.5663   -1.5324 C   0  0  0  0  0  0  0  0  0  0  0  0
   -0.3768    3.0856   -0.9121 C   0  0  0  0  0  0  0  0  0  0  0  0
   -0.0374    3.9142    0.3396 C   0  0  0  0  0  0  0  0  0  0  0  0
   -1.2448    4.1974    1.1143 N   0  0  0  0  0  0  0  0  0  0  0  0
   -1.9159    5.5160    0.9939 C   0  0  0  0  0  0  0  0  0  0  0  0
   -1.9281    6.0933   -0.4233 C   0  0  0  0  0  0  0  0  0  0  0  0
   -1.3403    6.5199    2.0154 C   0  0  0  0  0  0  0  0  0  0  0  0
   -0.0097    6.9071    1.6742 O   0  0  0  0  0  0  0  0  0  0  0  0
   -1.7256    3.3159    2.0886 C   0  0  0  0  0  0  0  0  0  0  0  0
   -2.7210    3.5696    2.7684 O   0  0  0  0  0  0  0  0  0  0  0  0
   -0.9726    2.0734    2.4013 C   0  0  0  0  0  0  0  0  0  0  0  0
   -0.6206    1.9887    3.7660 C   0  0  0  0  0  0  0  0  0  0  0  0
    0.1363    0.9321    4.2578 C   0  0  0  0  0  0  0  0  0  0  0  0
    0.5472   -0.0673    3.3881 C   0  0  0  0  0  0  0  0  0  0  0  0
    0.1922   -0.0175    2.0336 C   0  0  0  0  0  0  0  0  0  0  0  0
    0.5761   -1.0638    1.1564 N   0  0  0  0  0  0  0  0  0  0  0  0
    1.7908   -1.7268    1.2320 C   0  0  0  0  0  0  0  0  0  0  0  0
    2.7181   -1.3884    1.9594 O   0  0  0  0  0  0  0  0  0  0  0  0
    1.8097   -2.8118    0.3720 N   0  0  0  0  0  0  0  0  0  0  0  0
    2.9457   -3.5876    0.0598 C   0  0  0  0  0  0  0  0  0  0  0  0
    2.7487   -4.8805   -0.4335 C   0  0  0  0  0  0  0  0  0  0  0  0
    3.8399   -5.6831   -0.7867 C   0  0  0  0  0  0  0  0  0  0  0  0
    5.1524   -5.2052   -0.6520 C   0  0  0  0  0  0  0  0  0  0  0  0
    6.3318   -6.0572   -1.0521 C   0  0  0  0  0  0  0  0  0  0  0  0
    7.4186   -5.8776   -0.2507 F   0  0  0  0  0  0  0  0  0  0  0  0
    6.0659   -7.3934   -1.0237 F   0  0  0  0  0  0  0  0  0  0  0  0
    6.7539   -5.7880   -2.3189 F   0  0  0  0  0  0  0  0  0  0  0  0
    5.3454   -3.9020   -0.1712 C   0  0  0  0  0  0  0  0  0  0  0  0
    4.2514   -3.1037    0.1809 C   0  0  0  0  0  0  0  0  0  0  0  0
   -0.5854    1.0507    1.5166 C   0  0  0  0  0  0  0  0  0  0  0  0
   -0.8112    0.9221    0.1693 O   0  0  0  0  0  0  0  0  0  0  0  0
   -1.4042    1.9644   -0.6022 C   0  0  0  0  0  0  0  0  0  0  0  0
   -1.9304    1.3351   -1.9190 C   0  0  0  0  0  0  0  0  0  0  0  0
   -3.1408    0.5133   -1.7252 N   0  0  0  0  0  0  0  0  0  0  0  0
   -4.3623    1.2307   -1.3827 C   0  0  0  0  0  0  0  0  0  0  0  0
   -3.0960   -0.8277   -1.3273 C   0  0  0  0  0  0  0  0  0  0  0  0
   -3.9889   -1.3332   -0.6515 O   0  0  0  0  0  0  0  0  0  0  0  0
   -2.0101   -1.5161   -1.8284 N   0  0  0  0  0  0  0  0  0  0  0  0
   -1.6940   -2.8629   -1.5602 C   0  0  0  0  0  0  0  0  0  0  0  0
   -0.8862   -3.5356   -2.4873 C   0  0  0  0  0  0  0  0  0  0  0  0
   -0.5653   -4.8801   -2.2989 C   0  0  0  0  0  0  0  0  0  0  0  0
   -1.0370   -5.5474   -1.1747 C   0  0  0  0  0  0  0  0  0  0  0  0
   -0.7088   -6.8311   -0.9833 F   0  0  0  0  0  0  0  0  0  0  0  0
   -1.8092   -4.8877   -0.2285 C   0  0  0  0  0  0  0  0  0  0  0  0
   -2.1357   -3.5417   -0.4202 C   0  0  0  0  0  0  0  0  0  0  0  0
    0.7388    2.0668   -2.4870 H   0  0  0  0  0  0  0  0  0  0  0  0
    1.6143    3.3966   -1.7271 H   0  0  0  0  0  0  0  0  0  0  0  0
    1.4314    1.8585   -0.8677 H   0  0  0  0  0  0  0  0  0  0  0  0
   -0.8395    3.7622   -1.6393 H   0  0  0  0  0  0  0  0  0  0  0  0
    0.6823    3.3868    0.9733 H   0  0  0  0  0  0  0  0  0  0  0  0
    0.4577    4.8505    0.0588 H   0  0  0  0  0  0  0  0  0  0  0  0
   -2.9664    5.3626    1.2671 H   0  0  0  0  0  0  0  0  0  0  0  0
   -2.5243    7.0103   -0.4516 H   0  0  0  0  0  0  0  0  0  0  0  0
   -2.3814    5.3891   -1.1257 H   0  0  0  0  0  0  0  0  0  0  0  0
   -0.9292    6.3445   -0.7842 H   0  0  0  0  0  0  0  0  0  0  0  0
   -1.3285    6.0827    3.0200 H   0  0  0  0  0  0  0  0  0  0  0  0
   -1.9561    7.4254    2.0421 H   0  0  0  0  0  0  0  0  0  0  0  0
    0.3582    7.3553    2.4539 H   0  0  0  0  0  0  0  0  0  0  0  0
   -0.9368    2.7702    4.4579 H   0  0  0  0  0  0  0  0  0  0  0  0
    0.4029    0.8863    5.3111 H   0  0  0  0  0  0  0  0  0  0  0  0
    1.1315   -0.8931    3.7824 H   0  0  0  0  0  0  0  0  0  0  0  0
    0.1706   -1.0050    0.2302 H   0  0  0  0  0  0  0  0  0  0  0  0
    0.9024   -3.2241    0.1956 H   0  0  0  0  0  0  0  0  0  0  0  0
    1.7508   -5.2943   -0.5334 H   0  0  0  0  0  0  0  0  0  0  0  0
    3.6562   -6.6884   -1.1653 H   0  0  0  0  0  0  0  0  0  0  0  0
    6.3516   -3.4952   -0.0690 H   0  0  0  0  0  0  0  0  0  0  0  0
    4.4416   -2.0864    0.5210 H   0  0  0  0  0  0  0  0  0  0  0  0
   -2.2847    2.3590   -0.0944 H   0  0  0  0  0  0  0  0  0  0  0  0
   -2.1946    2.1167   -2.6420 H   0  0  0  0  0  0  0  0  0  0  0  0
   -1.1427    0.7253   -2.3685 H   0  0  0  0  0  0  0  0  0  0  0  0
   -4.4405    2.1408   -1.9859 H   0  0  0  0  0  0  0  0  0  0  0  0
   -4.3540    1.4794   -0.3180 H   0  0  0  0  0  0  0  0  0  0  0  0
   -5.2358    0.6039   -1.5861 H   0  0  0  0  0  0  0  0  0  0  0  0
   -1.6844   -1.1559   -2.7126 H   0  0  0  0  0  0  0  0  0  0  0  0
   -0.5176   -3.0306   -3.3769 H   0  0  0  0  0  0  0  0  0  0  0  0
    0.0439   -5.4123   -3.0234 H   0  0  0  0  0  0  0  0  0  0  0  0
   -2.1642   -5.4191    0.6514 H   0  0  0  0  0  0  0  0  0  0  0  0
   -2.7435   -3.0471    0.3343 H   0  0  0  0  0  0  0  0  0  0  0  0
  1  2  1  0
  2  3  1  0
  3  4  1  0
  4  5  1  0
  5  6  1  0
  5  7  1  0
  7  8  1  0
  4  9  1  0
  9 10  2  0
  9 11  1  0
 11 12  2  0
 12 13  1  0
 13 14  2  0
 14 15  1  0
 15 16  1  0
 16 17  1  0
 17 18  2  0
 17 19  1  0
 19 20  1  0
 20 21  2  0
 21 22  1  0
 22 23  2  0
 23 24  1  0
 24 25  1  0
 24 26  1  0
 24 27  1  0
 23 28  1  0
 28 29  2  0
 15 30  2  0
 30 31  1  0
 31 32  1  0
 32 33  1  0
 33 34  1  0
 34 35  1  0
 34 36  1  0
 36 37  2  0
 36 38  1  0
 38 39  1  0
 39 40  2  0
 40 41  1  0
 41 42  2  0
 42 43  1  0
 42 44  1  0
 44 45  2  0
 32  2  1  0
 45 39  1  0
 30 11  1  0
 29 20  1  0
  1 46  1  0
  1 47  1  0
  1 48  1  0
  2 49  1  0
  3 50  1  0
  3 51  1  0
  5 52  1  0
  6 53  1  0
  6 54  1  0
  6 55  1  0
  7 56  1  0
  7 57  1  0
  8 58  1  0
 12 59  1  0
 13 60  1  0
 14 61  1  0
 16 62  1  0
 19 63  1  0
 21 64  1  0
 22 65  1  0
 28 66  1  0
 29 67  1  0
 32 68  1  0
 33 69  1  0
 33 70  1  0
 35 71  1  0
 35 72  1  0
 35 73  1  0
 38 74  1  0
 40 75  1  0
 41 76  1  0
 44 77  1  0
 45 78  1  0
M  END
$$$$
