
     RDKit          3D

 56 58  0  0  0  0  0  0  0  0999 V2000
    5.7538   -0.5014   -2.9134 C   0  0  0  0  0  0  0  0  0  0  0  0
    5.0185   -0.0022   -1.8038 O   0  0  0  0  0  0  0  0  0  0  0  0
    4.0952   -0.8409   -1.2430 C   0  0  0  0  0  0  0  0  0  0  0  0
    3.7261   -2.0949   -1.7343 C   0  0  0  0  0  0  0  0  0  0  0  0
    2.7493   -2.8518   -1.0775 C   0  0  0  0  0  0  0  0  0  0  0  0
    2.1476   -2.3602    0.0839 C   0  0  0  0  0  0  0  0  0  0  0  0
    1.1677   -3.0229    0.7892 O   0  0  0  0  0  0  0  0  0  0  0  0
    1.1534   -4.4419    0.6459 C   0  0  0  0  0  0  0  0  0  0  0  0
    2.5117   -1.0922    0.5810 C   0  0  0  0  0  0  0  0  0  0  0  0
    1.8367   -0.6479    1.7367 N   0  0  0  0  0  0  0  0  0  0  0  0
    2.0413    0.5040    2.4708 C   0  0  0  0  0  0  0  0  0  0  0  0
    2.9861    1.2793    2.3378 O   0  0  0  0  0  0  0  0  0  0  0  0
    1.0275    0.7080    3.5924 C   0  0  0  0  0  0  0  0  0  0  0  0
   -0.6613    0.1798    3.1453 S   0  0  0  0  0  0  0  0  0  0  0  0
   -0.8902    1.1322    1.6850 C   0  0  0  0  0  0  0  0  0  0  0  0
   -0.3657    2.3114    1.6699 N   0  0  0  0  0  0  0  0  0  0  0  0
   -0.5051    3.0916    0.5210 C   0  0  0  0  0  0  0  0  0  0  0  0
    0.1576    4.3187    0.4520 C   0  0  0  0  0  0  0  0  0  0  0  0
    0.0284    5.1304   -0.6773 C   0  0  0  0  0  0  0  0  0  0  0  0
   -0.7700    4.7207   -1.7470 C   0  0  0  0  0  0  0  0  0  0  0  0
   -1.4339    3.4958   -1.6885 C   0  0  0  0  0  0  0  0  0  0  0  0
   -1.2897    2.6883   -0.5540 C   0  0  0  0  0  0  0  0  0  0  0  0
   -1.9565    1.3798   -0.4537 C   0  0  0  0  0  0  0  0  0  0  0  0
   -2.7899    1.0696   -1.3044 O   0  0  0  0  0  0  0  0  0  0  0  0
   -1.6271    0.5866    0.6453 N   0  0  0  0  0  0  0  0  0  0  0  0
   -2.1982   -0.7735    0.6729 C   0  0  0  0  0  0  0  0  0  0  0  0
   -3.6111   -0.8000    1.2802 C   0  0  0  0  0  0  0  0  0  0  0  0
   -4.6288   -0.4005    0.3210 N   0  0  0  0  0  0  0  0  0  0  0  0
   -5.1662   -1.3247   -0.5489 C   0  0  0  0  0  0  0  0  0  0  0  0
   -6.0346   -0.7246   -1.6247 C   0  0  0  0  0  0  0  0  0  0  0  0
   -4.9527   -2.5303   -0.4730 O   0  0  0  0  0  0  0  0  0  0  0  0
    3.4816   -0.3427   -0.0871 C   0  0  0  0  0  0  0  0  0  0  0  0
    5.0954   -0.7274   -3.7612 H   0  0  0  0  0  0  0  0  0  0  0  0
    6.4495    0.2827   -3.2297 H   0  0  0  0  0  0  0  0  0  0  0  0
    6.3466   -1.3783   -2.6266 H   0  0  0  0  0  0  0  0  0  0  0  0
    4.1710   -2.5090   -2.6325 H   0  0  0  0  0  0  0  0  0  0  0  0
    2.4677   -3.8097   -1.5052 H   0  0  0  0  0  0  0  0  0  0  0  0
    2.1609   -4.8705    0.7311 H   0  0  0  0  0  0  0  0  0  0  0  0
    0.5534   -4.8488    1.4620 H   0  0  0  0  0  0  0  0  0  0  0  0
    0.6806   -4.7326   -0.2955 H   0  0  0  0  0  0  0  0  0  0  0  0
    1.1179   -1.2882    2.0670 H   0  0  0  0  0  0  0  0  0  0  0  0
    1.3575    0.1249    4.4581 H   0  0  0  0  0  0  0  0  0  0  0  0
    1.0143    1.7642    3.8788 H   0  0  0  0  0  0  0  0  0  0  0  0
    0.7845    4.6372    1.2829 H   0  0  0  0  0  0  0  0  0  0  0  0
    0.5544    6.0815   -0.7201 H   0  0  0  0  0  0  0  0  0  0  0  0
   -0.8684    5.3519   -2.6275 H   0  0  0  0  0  0  0  0  0  0  0  0
   -2.0501    3.1694   -2.5253 H   0  0  0  0  0  0  0  0  0  0  0  0
   -1.5397   -1.4374    1.2420 H   0  0  0  0  0  0  0  0  0  0  0  0
   -2.2151   -1.1681   -0.3519 H   0  0  0  0  0  0  0  0  0  0  0  0
   -3.8373   -1.8139    1.6273 H   0  0  0  0  0  0  0  0  0  0  0  0
   -3.6937   -0.1204    2.1362 H   0  0  0  0  0  0  0  0  0  0  0  0
   -4.5717    0.5518   -0.0265 H   0  0  0  0  0  0  0  0  0  0  0  0
   -6.9392   -1.3269   -1.7298 H   0  0  0  0  0  0  0  0  0  0  0  0
   -5.4806   -0.7191   -2.5706 H   0  0  0  0  0  0  0  0  0  0  0  0
   -6.3337    0.2998   -1.3775 H   0  0  0  0  0  0  0  0  0  0  0  0
    3.7744    0.6433    0.2649 H   0  0  0  0  0  0  0  0  0  0  0  0
  1  2  1  0
  2  3  1  0
  3  4  2  0
  4  5  1  0
  5  6  2  0
  6  7  1  0
  7  8  1  0
  6  9  1  0
  9 10  1  0
 10 11  1  0
 11 12  2  0
 11 13  1  0
 13 14  1  0
 14 15  1  0
 15 16  2  0
 16 17  1  0
 17 18  2  0
 18 19  1  0
 19 20  2  0
 20 21  1  0
 21 22  2  0
 22 23  1  0
 23 24  2  0
 23 25  1  0
 25 26  1  0
 26 27  1  0
 27 28  1  0
 28 29  1  0
 29 30  1  0
 29 31  2  0
  9 32  2  0
 32  3  1  0
 25 15  1  0
 22 17  1  0
  1 33  1  0
  1 34  1  0
  1 35  1  0
  4 36  1  0
  5 37  1  0
  8 38  1  0
  8 39  1  0
  8 40  1  0
 10 41  1  0
 13 42  1  0
 13 43  1  0
 18 44  1  0
 19 45  1  0
 20 46  1  0
 21 47  1  0
 26 48  1  0
 26 49  1  0
 27 50  1  0
 27 51  1  0
 28 52  1  0
 30 53  1  0
 30 54  1  0
 30 55  1  0
 32 56  1  0
M  END
$$$$
