
     RDKit          3D

 53 56  0  0  0  0  0  0  0  0999 V2000
    9.4577   -2.7500   -1.7342 C   0  0  0  0  0  0  0  0  0  0  0  0
    8.2517   -1.8277   -1.7139 C   0  0  0  0  0  0  0  0  0  0  0  0
    7.4515   -2.1746   -0.5845 O   0  0  0  0  0  0  0  0  0  0  0  0
    6.2856   -1.4812   -0.4118 C   0  0  0  0  0  0  0  0  0  0  0  0
    5.8549   -0.3954   -1.1760 C   0  0  0  0  0  0  0  0  0  0  0  0
    4.6356    0.2280   -0.8869 C   0  0  0  0  0  0  0  0  0  0  0  0
    3.8447   -0.2349    0.1678 C   0  0  0  0  0  0  0  0  0  0  0  0
    2.5536    0.4074    0.4932 C   0  0  0  0  0  0  0  0  0  0  0  0
    2.1177    1.4270   -0.1768 N   0  0  0  0  0  0  0  0  0  0  0  0
    0.8917    1.9521    0.1448 N   0  0  0  0  0  0  0  0  0  0  0  0
   -0.2182    1.2534    0.6107 C   0  0  0  0  0  0  0  0  0  0  0  0
   -0.2341    0.0751    0.9520 O   0  0  0  0  0  0  0  0  0  0  0  0
   -1.4180    2.0896    0.6525 C   0  0  0  0  0  0  0  0  0  0  0  0
   -1.3882    3.4184    0.3241 N   0  0  0  0  0  0  0  0  0  0  0  0
   -2.6105    3.9028    0.4421 N   0  0  0  0  0  0  0  0  0  0  0  0
   -3.4532    2.9083    0.8532 N   0  0  0  0  0  0  0  0  0  0  0  0
   -4.8329    3.1589    1.0701 C   0  0  0  0  0  0  0  0  0  0  0  0
   -5.6571    2.1964    1.4848 N   0  0  0  0  0  0  0  0  0  0  0  0
   -6.9001    2.8213    1.5625 O   0  0  0  0  0  0  0  0  0  0  0  0
   -6.8135    4.1631    1.2079 N   0  0  0  0  0  0  0  0  0  0  0  0
   -5.5315    4.3716    0.9111 C   0  0  0  0  0  0  0  0  0  0  0  0
   -5.0257    5.5598    0.5301 N   0  0  0  0  0  0  0  0  0  0  0  0
   -2.7159    1.7342    0.9887 C   0  0  0  0  0  0  0  0  0  0  0  0
   -3.2869    0.4182    1.3690 C   0  0  0  0  0  0  0  0  0  0  0  0
   -3.9569   -0.0551    0.2048 O   0  0  0  0  0  0  0  0  0  0  0  0
   -4.5873   -1.2655    0.2934 C   0  0  0  0  0  0  0  0  0  0  0  0
   -4.5900   -2.1134    1.4045 C   0  0  0  0  0  0  0  0  0  0  0  0
   -5.2758   -3.3313    1.3526 C   0  0  0  0  0  0  0  0  0  0  0  0
   -5.9537   -3.6939    0.1946 C   0  0  0  0  0  0  0  0  0  0  0  0
   -6.6080   -4.8619    0.1508 F   0  0  0  0  0  0  0  0  0  0  0  0
   -5.9597   -2.8620   -0.9166 C   0  0  0  0  0  0  0  0  0  0  0  0
   -5.2747   -1.6471   -0.8649 C   0  0  0  0  0  0  0  0  0  0  0  0
    4.2689   -1.3204    0.9352 C   0  0  0  0  0  0  0  0  0  0  0  0
    5.4884   -1.9366    0.6431 C   0  0  0  0  0  0  0  0  0  0  0  0
   10.0483   -2.6309   -0.8191 H   0  0  0  0  0  0  0  0  0  0  0  0
    9.1421   -3.7983   -1.7759 H   0  0  0  0  0  0  0  0  0  0  0  0
   10.0964   -2.5373   -2.5965 H   0  0  0  0  0  0  0  0  0  0  0  0
    8.5972   -0.7904   -1.6325 H   0  0  0  0  0  0  0  0  0  0  0  0
    7.6809   -1.9636   -2.6404 H   0  0  0  0  0  0  0  0  0  0  0  0
    6.4418   -0.0064   -2.0016 H   0  0  0  0  0  0  0  0  0  0  0  0
    4.3101    1.0729   -1.4894 H   0  0  0  0  0  0  0  0  0  0  0  0
    2.0149   -0.0194    1.3559 H   0  0  0  0  0  0  0  0  0  0  0  0
    0.7113    2.8657   -0.2674 H   0  0  0  0  0  0  0  0  0  0  0  0
   -4.0904    5.6348    0.1334 H   0  0  0  0  0  0  0  0  0  0  0  0
   -5.6608    6.3032    0.2597 H   0  0  0  0  0  0  0  0  0  0  0  0
   -2.4957   -0.2812    1.6543 H   0  0  0  0  0  0  0  0  0  0  0  0
   -3.9690    0.5128    2.2206 H   0  0  0  0  0  0  0  0  0  0  0  0
   -4.0687   -1.8639    2.3225 H   0  0  0  0  0  0  0  0  0  0  0  0
   -5.2836   -3.9991    2.2083 H   0  0  0  0  0  0  0  0  0  0  0  0
   -6.4938   -3.1606   -1.8123 H   0  0  0  0  0  0  0  0  0  0  0  0
   -5.2756   -0.9915   -1.7324 H   0  0  0  0  0  0  0  0  0  0  0  0
    3.6643   -1.6979    1.7556 H   0  0  0  0  0  0  0  0  0  0  0  0
    5.8204   -2.7835    1.2394 H   0  0  0  0  0  0  0  0  0  0  0  0
  1  2  1  0
  2  3  1  0
  3  4  1  0
  4  5  2  0
  5  6  1  0
  6  7  2  0
  7  8  1  0
  8  9  2  3
  9 10  1  0
 10 11  1  0
 11 12  2  0
 11 13  1  0
 13 14  1  0
 14 15  2  0
 15 16  1  0
 16 17  1  0
 17 18  2  0
 18 19  1  0
 19 20  1  0
 20 21  2  0
 21 22  1  0
 16 23  1  0
 23 24  1  0
 24 25  1  0
 25 26  1  0
 26 27  2  0
 27 28  1  0
 28 29  2  0
 29 30  1  0
 29 31  1  0
 31 32  2  0
  7 33  1  0
 33 34  2  0
 34  4  1  0
 23 13  2  0
 32 26  1  0
 21 17  1  0
  1 35  1  0
  1 36  1  0
  1 37  1  0
  2 38  1  0
  2 39  1  0
  5 40  1  0
  6 41  1  0
  8 42  1  0
 10 43  1  0
 22 44  1  0
 22 45  1  0
 24 46  1  0
 24 47  1  0
 27 48  1  0
 28 49  1  0
 31 50  1  0
 32 51  1  0
 33 52  1  0
 34 53  1  0
M  END
$$$$
