
     RDKit          3D

 67 72  0  0  0  0  0  0  0  0999 V2000
    3.1560   -0.9307   -1.9418 O   0  0  0  0  0  0  0  0  0  0  0  0
    2.5494   -0.6280   -0.9121 C   0  0  0  0  0  0  0  0  0  0  0  0
    3.2664    0.0247    0.2917 C   0  0  0  0  0  0  0  0  0  0  0  0
    4.7733   -0.2927    0.2378 C   0  0  0  0  0  0  0  0  0  0  0  0
    5.5836    0.4749    1.2598 C   0  0  0  0  0  0  0  0  0  0  0  0
    5.8495   -0.0799    2.5198 C   0  0  0  0  0  0  0  0  0  0  0  0
    6.5755    0.6396    3.4701 C   0  0  0  0  0  0  0  0  0  0  0  0
    7.0495    1.9152    3.1674 C   0  0  0  0  0  0  0  0  0  0  0  0
    6.7962    2.4731    1.9148 C   0  0  0  0  0  0  0  0  0  0  0  0
    6.0634    1.7586    0.9659 C   0  0  0  0  0  0  0  0  0  0  0  0
    2.6881   -0.4625    1.5478 N   0  0  0  0  0  0  0  0  0  0  0  0
    1.3029   -0.2886    1.6037 C   0  0  0  0  0  0  0  0  0  0  0  0
    0.8129   -0.0468    2.8254 N   0  0  0  0  0  0  0  0  0  0  0  0
   -0.5138    0.0521    2.9060 C   0  0  0  0  0  0  0  0  0  0  0  0
   -1.3726   -0.0100    1.8826 N   0  0  0  0  0  0  0  0  0  0  0  0
   -0.8625   -0.2119    0.6498 C   0  0  0  0  0  0  0  0  0  0  0  0
   -1.7514   -0.0850   -0.4331 N   0  0  0  0  0  0  0  0  0  0  0  0
   -3.1707   -0.3797   -0.1129 C   0  0  0  0  0  0  0  0  0  0  0  0
   -4.0781    0.0210   -1.2948 C   0  0  0  0  0  0  0  0  0  0  0  0
   -4.0236    1.4812   -1.5532 N   0  0  0  0  0  0  0  0  0  0  0  0
   -5.1526    2.2606   -1.2563 C   0  0  0  0  0  0  0  0  0  0  0  0
   -5.3740    3.4386   -1.9882 C   0  0  0  0  0  0  0  0  0  0  0  0
   -6.4726    4.2637   -1.7306 C   0  0  0  0  0  0  0  0  0  0  0  0
   -7.3730    3.9273   -0.7256 C   0  0  0  0  0  0  0  0  0  0  0  0
   -7.1730    2.7669    0.0166 C   0  0  0  0  0  0  0  0  0  0  0  0
   -6.0718    1.9443   -0.2468 C   0  0  0  0  0  0  0  0  0  0  0  0
   -2.7692    2.1377   -1.0934 C   0  0  0  0  0  0  0  0  0  0  0  0
   -1.5540    1.1855   -1.1900 C   0  0  0  0  0  0  0  0  0  0  0  0
    0.5124   -0.4290    0.4573 C   0  0  0  0  0  0  0  0  0  0  0  0
    1.1573   -0.7630   -0.7892 N   0  0  0  0  0  0  0  0  0  0  0  0
    0.4828   -1.5921   -1.7875 C   0  0  0  0  0  0  0  0  0  0  0  0
    0.5343   -3.0674   -1.4351 C   0  0  0  0  0  0  0  0  0  0  0  0
    1.6044   -3.8664   -1.8675 C   0  0  0  0  0  0  0  0  0  0  0  0
    1.6701   -5.2173   -1.5193 C   0  0  0  0  0  0  0  0  0  0  0  0
    0.6672   -5.7772   -0.7310 C   0  0  0  0  0  0  0  0  0  0  0  0
    0.7583   -7.6034   -0.2520 Br  0  0  0  0  0  0  0  0  0  0  0  0
   -0.4005   -4.9993   -0.2907 C   0  0  0  0  0  0  0  0  0  0  0  0
   -0.4665   -3.6491   -0.6425 C   0  0  0  0  0  0  0  0  0  0  0  0
    3.1195    1.1113    0.2074 H   0  0  0  0  0  0  0  0  0  0  0  0
    5.1751   -0.0553   -0.7550 H   0  0  0  0  0  0  0  0  0  0  0  0
    4.9419   -1.3692    0.3695 H   0  0  0  0  0  0  0  0  0  0  0  0
    5.4911   -1.0777    2.7671 H   0  0  0  0  0  0  0  0  0  0  0  0
    6.7758    0.2026    4.4459 H   0  0  0  0  0  0  0  0  0  0  0  0
    7.6210    2.4714    3.9061 H   0  0  0  0  0  0  0  0  0  0  0  0
    7.1775    3.4632    1.6739 H   0  0  0  0  0  0  0  0  0  0  0  0
    5.8805    2.2064   -0.0091 H   0  0  0  0  0  0  0  0  0  0  0  0
    3.0899   -0.0888    2.4038 H   0  0  0  0  0  0  0  0  0  0  0  0
   -0.9359    0.2072    3.8924 H   0  0  0  0  0  0  0  0  0  0  0  0
   -3.5094    0.1588    0.7810 H   0  0  0  0  0  0  0  0  0  0  0  0
   -3.2796   -1.4548    0.0753 H   0  0  0  0  0  0  0  0  0  0  0  0
   -5.0988   -0.3437   -1.1388 H   0  0  0  0  0  0  0  0  0  0  0  0
   -3.7202   -0.4818   -2.2023 H   0  0  0  0  0  0  0  0  0  0  0  0
   -4.6902    3.7079   -2.7888 H   0  0  0  0  0  0  0  0  0  0  0  0
   -6.6233    5.1632   -2.3209 H   0  0  0  0  0  0  0  0  0  0  0  0
   -8.2289    4.5637   -0.5195 H   0  0  0  0  0  0  0  0  0  0  0  0
   -7.8704    2.5013    0.8068 H   0  0  0  0  0  0  0  0  0  0  0  0
   -5.9393    1.0640    0.3749 H   0  0  0  0  0  0  0  0  0  0  0  0
   -2.5650    3.0239   -1.7073 H   0  0  0  0  0  0  0  0  0  0  0  0
   -2.8757    2.4683   -0.0508 H   0  0  0  0  0  0  0  0  0  0  0  0
   -0.6563    1.7282   -0.8676 H   0  0  0  0  0  0  0  0  0  0  0  0
   -1.4019    0.9215   -2.2441 H   0  0  0  0  0  0  0  0  0  0  0  0
   -0.5478   -1.2949   -1.9683 H   0  0  0  0  0  0  0  0  0  0  0  0
    0.9718   -1.4484   -2.7599 H   0  0  0  0  0  0  0  0  0  0  0  0
    2.4001   -3.4361   -2.4751 H   0  0  0  0  0  0  0  0  0  0  0  0
    2.5090   -5.8163   -1.8624 H   0  0  0  0  0  0  0  0  0  0  0  0
   -1.1812   -5.4291    0.3306 H   0  0  0  0  0  0  0  0  0  0  0  0
   -1.3031   -3.0518   -0.2876 H   0  0  0  0  0  0  0  0  0  0  0  0
  1  2  2  0
  2  3  1  0
  3  4  1  0
  4  5  1  0
  5  6  2  0
  6  7  1  0
  7  8  2  0
  8  9  1  0
  9 10  2  0
  3 11  1  0
 11 12  1  0
 12 13  2  0
 13 14  1  0
 14 15  2  0
 15 16  1  0
 16 17  1  0
 17 18  1  0
 18 19  1  0
 19 20  1  0
 20 21  1  0
 21 22  2  0
 22 23  1  0
 23 24  2  0
 24 25  1  0
 25 26  2  0
 20 27  1  0
 27 28  1  0
 16 29  2  0
 29 30  1  0
 30 31  1  0
 31 32  1  0
 32 33  2  0
 33 34  1  0
 34 35  2  0
 35 36  1  0
 35 37  1  0
 37 38  2  0
 30  2  1  0
 38 32  1  0
 10  5  1  0
 29 12  1  0
 28 17  1  0
 26 21  1  0
  3 39  1  0
  4 40  1  0
  4 41  1  0
  6 42  1  0
  7 43  1  0
  8 44  1  0
  9 45  1  0
 10 46  1  0
 11 47  1  0
 14 48  1  0
 18 49  1  0
 18 50  1  0
 19 51  1  0
 19 52  1  0
 22 53  1  0
 23 54  1  0
 24 55  1  0
 25 56  1  0
 26 57  1  0
 27 58  1  0
 27 59  1  0
 28 60  1  0
 28 61  1  0
 31 62  1  0
 31 63  1  0
 33 64  1  0
 34 65  1  0
 37 66  1  0
 38 67  1  0
M  END
$$$$
