
     RDKit          3D

 67 72  0  0  0  0  0  0  0  0999 V2000
    2.9902   -2.9156    0.0770 O   0  0  0  0  0  0  0  0  0  0  0  0
    2.6198   -1.7389    0.0706 C   0  0  0  0  0  0  0  0  0  0  0  0
    3.5590   -0.5883    0.4904 C   0  0  0  0  0  0  0  0  0  0  0  0
    5.0300   -1.0392    0.4239 C   0  0  0  0  0  0  0  0  0  0  0  0
    5.9801   -0.0248    1.0246 C   0  0  0  0  0  0  0  0  0  0  0  0
    6.1789    0.0276    2.4116 C   0  0  0  0  0  0  0  0  0  0  0  0
    7.0302    0.9829    2.9679 C   0  0  0  0  0  0  0  0  0  0  0  0
    7.6835    1.8996    2.1452 C   0  0  0  0  0  0  0  0  0  0  0  0
    7.4898    1.8580    0.7651 C   0  0  0  0  0  0  0  0  0  0  0  0
    6.6474    0.8972    0.2051 C   0  0  0  0  0  0  0  0  0  0  0  0
    3.3394    0.5767   -0.3725 N   0  0  0  0  0  0  0  0  0  0  0  0
    2.0018    0.9834   -0.3784 C   0  0  0  0  0  0  0  0  0  0  0  0
    1.8217    2.3053   -0.5070 N   0  0  0  0  0  0  0  0  0  0  0  0
    0.5564    2.7097   -0.6089 C   0  0  0  0  0  0  0  0  0  0  0  0
   -0.5263    1.9260   -0.5618 N   0  0  0  0  0  0  0  0  0  0  0  0
   -0.3265    0.5974   -0.3982 C   0  0  0  0  0  0  0  0  0  0  0  0
   -1.4816   -0.1936   -0.1897 N   0  0  0  0  0  0  0  0  0  0  0  0
   -2.5597    0.1356   -1.1613 C   0  0  0  0  0  0  0  0  0  0  0  0
   -3.6372    1.0794   -0.5818 C   0  0  0  0  0  0  0  0  0  0  0  0
   -4.2736    0.4923    0.6185 N   0  0  0  0  0  0  0  0  0  0  0  0
   -5.3772    1.0999    1.2070 C   0  0  0  0  0  0  0  0  0  0  0  0
   -5.8402    2.3675    0.8163 C   0  0  0  0  0  0  0  0  0  0  0  0
   -6.9433    2.9768    1.4290 C   0  0  0  0  0  0  0  0  0  0  0  0
   -7.6254    2.3241    2.4484 C   0  0  0  0  0  0  0  0  0  0  0  0
   -7.2143    1.0562    2.8378 C   0  0  0  0  0  0  0  0  0  0  0  0
   -6.1119    0.4549    2.2178 C   0  0  0  0  0  0  0  0  0  0  0  0
   -3.4015   -0.3861    1.4317 C   0  0  0  0  0  0  0  0  0  0  0  0
   -1.9067   -0.0468    1.2307 C   0  0  0  0  0  0  0  0  0  0  0  0
    0.9612    0.0457   -0.3231 C   0  0  0  0  0  0  0  0  0  0  0  0
    1.2993   -1.3560   -0.2195 N   0  0  0  0  0  0  0  0  0  0  0  0
    0.3522   -2.4056   -0.5861 C   0  0  0  0  0  0  0  0  0  0  0  0
   -0.0069   -2.4935   -2.0602 C   0  0  0  0  0  0  0  0  0  0  0  0
    0.7846   -1.9331   -3.0763 C   0  0  0  0  0  0  0  0  0  0  0  0
    0.4304   -2.0829   -4.4206 C   0  0  0  0  0  0  0  0  0  0  0  0
   -0.7073   -2.8132   -4.7619 C   0  0  0  0  0  0  0  0  0  0  0  0
   -1.1390   -3.0073   -6.4169 Cl  0  0  0  0  0  0  0  0  0  0  0  0
   -1.4961   -3.3929   -3.7716 C   0  0  0  0  0  0  0  0  0  0  0  0
   -1.1451   -3.2365   -2.4286 C   0  0  0  0  0  0  0  0  0  0  0  0
    3.3087   -0.3329    1.5305 H   0  0  0  0  0  0  0  0  0  0  0  0
    5.3195   -1.2457   -0.6149 H   0  0  0  0  0  0  0  0  0  0  0  0
    5.1658   -1.9868    0.9611 H   0  0  0  0  0  0  0  0  0  0  0  0
    5.6789   -0.6801    3.0710 H   0  0  0  0  0  0  0  0  0  0  0  0
    7.1839    1.0127    4.0443 H   0  0  0  0  0  0  0  0  0  0  0  0
    8.3463    2.6442    2.5787 H   0  0  0  0  0  0  0  0  0  0  0  0
    8.0005    2.5730    0.1245 H   0  0  0  0  0  0  0  0  0  0  0  0
    6.5108    0.8747   -0.8741 H   0  0  0  0  0  0  0  0  0  0  0  0
    3.9172    1.3930   -0.1788 H   0  0  0  0  0  0  0  0  0  0  0  0
    0.3906    3.7757   -0.7303 H   0  0  0  0  0  0  0  0  0  0  0  0
   -2.1562    0.5386   -2.0999 H   0  0  0  0  0  0  0  0  0  0  0  0
   -3.0422   -0.8133   -1.4285 H   0  0  0  0  0  0  0  0  0  0  0  0
   -3.1889    2.0468   -0.3298 H   0  0  0  0  0  0  0  0  0  0  0  0
   -4.3943    1.2409   -1.3575 H   0  0  0  0  0  0  0  0  0  0  0  0
   -5.3361    2.9296    0.0360 H   0  0  0  0  0  0  0  0  0  0  0  0
   -7.2577    3.9674    1.1084 H   0  0  0  0  0  0  0  0  0  0  0  0
   -8.4766    2.7956    2.9292 H   0  0  0  0  0  0  0  0  0  0  0  0
   -7.7489    0.5267    3.6221 H   0  0  0  0  0  0  0  0  0  0  0  0
   -5.8489   -0.5512    2.5286 H   0  0  0  0  0  0  0  0  0  0  0  0
   -3.6080   -0.2920    2.5047 H   0  0  0  0  0  0  0  0  0  0  0  0
   -3.5911   -1.4273    1.1410 H   0  0  0  0  0  0  0  0  0  0  0  0
   -1.2995   -0.7153    1.8530 H   0  0  0  0  0  0  0  0  0  0  0  0
   -1.7441    0.9776    1.5973 H   0  0  0  0  0  0  0  0  0  0  0  0
   -0.5399   -2.3247    0.0403 H   0  0  0  0  0  0  0  0  0  0  0  0
    0.7755   -3.3830   -0.3224 H   0  0  0  0  0  0  0  0  0  0  0  0
    1.6859   -1.3701   -2.8378 H   0  0  0  0  0  0  0  0  0  0  0  0
    1.0549   -1.6393   -5.1920 H   0  0  0  0  0  0  0  0  0  0  0  0
   -2.3762   -3.9756   -4.0348 H   0  0  0  0  0  0  0  0  0  0  0  0
   -1.7656   -3.7014   -1.6642 H   0  0  0  0  0  0  0  0  0  0  0  0
  1  2  2  0
  2  3  1  0
  3  4  1  0
  4  5  1  0
  5  6  2  0
  6  7  1  0
  7  8  2  0
  8  9  1  0
  9 10  2  0
  3 11  1  0
 11 12  1  0
 12 13  2  0
 13 14  1  0
 14 15  2  0
 15 16  1  0
 16 17  1  0
 17 18  1  0
 18 19  1  0
 19 20  1  0
 20 21  1  0
 21 22  2  0
 22 23  1  0
 23 24  2  0
 24 25  1  0
 25 26  2  0
 20 27  1  0
 27 28  1  0
 16 29  2  0
 29 30  1  0
 30 31  1  0
 31 32  1  0
 32 33  2  0
 33 34  1  0
 34 35  2  0
 35 36  1  0
 35 37  1  0
 37 38  2  0
 30  2  1  0
 38 32  1  0
 10  5  1  0
 29 12  1  0
 28 17  1  0
 26 21  1  0
  3 39  1  0
  4 40  1  0
  4 41  1  0
  6 42  1  0
  7 43  1  0
  8 44  1  0
  9 45  1  0
 10 46  1  0
 11 47  1  0
 14 48  1  0
 18 49  1  0
 18 50  1  0
 19 51  1  0
 19 52  1  0
 22 53  1  0
 23 54  1  0
 24 55  1  0
 25 56  1  0
 26 57  1  0
 27 58  1  0
 27 59  1  0
 28 60  1  0
 28 61  1  0
 31 62  1  0
 31 63  1  0
 33 64  1  0
 34 65  1  0
 37 66  1  0
 38 67  1  0
M  END
$$$$
