
     RDKit          3D

 68 71  0  0  0  0  0  0  0  0999 V2000
    7.0795   -1.9997    6.0398 C   0  0  0  0  0  0  0  0  0  0  0  0
    6.0269   -2.2984    5.0528 C   0  0  0  0  0  0  0  0  0  0  0  0
    5.0263   -1.5652    4.4678 C   0  0  0  0  0  0  0  0  0  0  0  0
    4.3920   -2.4684    3.5858 C   0  0  0  0  0  0  0  0  0  0  0  0
    3.3370   -2.2631    2.7263 N   0  0  0  0  0  0  0  0  0  0  0  0
    2.6876   -1.0650    2.5350 C   0  0  0  0  0  0  0  0  0  0  0  0
    2.9289   -0.0117    3.1183 O   0  0  0  0  0  0  0  0  0  0  0  0
    1.5996   -1.1781    1.4890 C   0  0  0  0  0  0  0  0  0  0  0  0
    0.9090    0.1607    1.2318 C   0  0  0  0  0  0  0  0  0  0  0  0
   -0.1299    0.0339    0.1329 C   0  0  0  0  0  0  0  0  0  0  0  0
   -0.4393   -1.0805   -0.2916 O   0  0  0  0  0  0  0  0  0  0  0  0
   -0.7715    1.1794   -0.3081 N   0  0  0  0  0  0  0  0  0  0  0  0
   -0.5205    2.5070    0.2665 C   0  0  0  0  0  0  0  0  0  0  0  0
    0.4086    3.3133   -0.5686 C   0  0  0  0  0  0  0  0  0  0  0  0
    1.6367    3.0799   -1.1570 C   0  0  0  0  0  0  0  0  0  0  0  0
    1.9958    4.2765   -1.8261 C   0  0  0  0  0  0  0  0  0  0  0  0
    0.9686    5.1679   -1.5992 C   0  0  0  0  0  0  0  0  0  0  0  0
    0.0079    4.5964   -0.8303 O   0  0  0  0  0  0  0  0  0  0  0  0
   -1.6328    1.1408   -1.5350 C   0  0  0  0  0  0  0  0  0  0  0  0
   -2.8144    0.1163   -1.5753 C   0  0  0  0  0  0  0  0  0  0  0  0
   -3.4444   -0.1362   -2.6032 O   0  0  0  0  0  0  0  0  0  0  0  0
   -3.2188   -0.3635   -0.3381 N   0  0  0  0  0  0  0  0  0  0  0  0
   -4.2263   -1.3974   -0.2465 C   0  0  0  0  0  0  0  0  0  0  0  0
   -3.6862   -2.7851   -0.5893 C   0  0  0  0  0  0  0  0  0  0  0  0
   -4.6544   -3.7561    0.0813 C   0  0  0  0  0  0  0  0  0  0  0  0
   -5.4165   -2.9466    1.1330 C   0  0  0  0  0  0  0  0  0  0  0  0
   -4.7365   -1.5840    1.1781 C   0  0  0  0  0  0  0  0  0  0  0  0
   -0.8408    1.1907   -2.8500 C   0  0  0  0  0  0  0  0  0  0  0  0
    0.0965    0.1817   -3.1552 C   0  0  0  0  0  0  0  0  0  0  0  0
    0.8620    0.2233   -4.3225 C   0  0  0  0  0  0  0  0  0  0  0  0
    0.6984    1.2673   -5.2231 C   0  0  0  0  0  0  0  0  0  0  0  0
   -0.2528    2.2556   -4.9694 C   0  0  0  0  0  0  0  0  0  0  0  0
   -1.0380    2.2239   -3.8022 C   0  0  0  0  0  0  0  0  0  0  0  0
   -2.0674    3.3095   -3.6224 C   0  0  0  0  0  0  0  0  0  0  0  0
    4.9637   -3.6759    3.6442 N   0  0  0  0  0  0  0  0  0  0  0  0
    5.9959   -3.5649    4.5571 O   0  0  0  0  0  0  0  0  0  0  0  0
    8.0001   -1.6945    5.5295 H   0  0  0  0  0  0  0  0  0  0  0  0
    6.7716   -1.1860    6.7032 H   0  0  0  0  0  0  0  0  0  0  0  0
    7.3027   -2.8754    6.6580 H   0  0  0  0  0  0  0  0  0  0  0  0
    4.7986   -0.5247    4.6478 H   0  0  0  0  0  0  0  0  0  0  0  0
    3.0798   -3.0838    2.1929 H   0  0  0  0  0  0  0  0  0  0  0  0
    2.0508   -1.5549    0.5622 H   0  0  0  0  0  0  0  0  0  0  0  0
    0.8696   -1.9204    1.8355 H   0  0  0  0  0  0  0  0  0  0  0  0
    0.4104    0.4938    2.1499 H   0  0  0  0  0  0  0  0  0  0  0  0
    1.6556    0.9080    0.9451 H   0  0  0  0  0  0  0  0  0  0  0  0
   -0.1117    2.4272    1.2770 H   0  0  0  0  0  0  0  0  0  0  0  0
   -1.4870    3.0136    0.3735 H   0  0  0  0  0  0  0  0  0  0  0  0
    2.2004    2.1560   -1.1272 H   0  0  0  0  0  0  0  0  0  0  0  0
    2.8866    4.4634   -2.4095 H   0  0  0  0  0  0  0  0  0  0  0  0
    0.7790    6.1927   -1.9006 H   0  0  0  0  0  0  0  0  0  0  0  0
   -2.2011    2.0768   -1.4603 H   0  0  0  0  0  0  0  0  0  0  0  0
   -2.4678   -0.4171    0.3399 H   0  0  0  0  0  0  0  0  0  0  0  0
   -5.0601   -1.1504   -0.9154 H   0  0  0  0  0  0  0  0  0  0  0  0
   -3.6124   -2.9536   -1.6691 H   0  0  0  0  0  0  0  0  0  0  0  0
   -2.6814   -2.9261   -0.1682 H   0  0  0  0  0  0  0  0  0  0  0  0
   -4.1086   -4.5888    0.5356 H   0  0  0  0  0  0  0  0  0  0  0  0
   -5.3504   -4.1791   -0.6503 H   0  0  0  0  0  0  0  0  0  0  0  0
   -5.4102   -3.4365    2.1122 H   0  0  0  0  0  0  0  0  0  0  0  0
   -6.4637   -2.8351    0.8258 H   0  0  0  0  0  0  0  0  0  0  0  0
   -3.9038   -1.6050    1.8937 H   0  0  0  0  0  0  0  0  0  0  0  0
   -5.4193   -0.7866    1.4910 H   0  0  0  0  0  0  0  0  0  0  0  0
    0.2392   -0.6684   -2.4937 H   0  0  0  0  0  0  0  0  0  0  0  0
    1.5831   -0.5652   -4.5293 H   0  0  0  0  0  0  0  0  0  0  0  0
    1.2936    1.3035   -6.1310 H   0  0  0  0  0  0  0  0  0  0  0  0
   -0.3780    3.0588   -5.6928 H   0  0  0  0  0  0  0  0  0  0  0  0
   -2.1496    3.9392   -4.5163 H   0  0  0  0  0  0  0  0  0  0  0  0
   -3.0564    2.8745   -3.4461 H   0  0  0  0  0  0  0  0  0  0  0  0
   -1.7901    3.9600   -2.7898 H   0  0  0  0  0  0  0  0  0  0  0  0
  1  2  1  0
  2  3  2  0
  3  4  1  0
  4  5  1  0
  5  6  1  0
  6  7  2  0
  6  8  1  0
  8  9  1  0
  9 10  1  0
 10 11  2  0
 10 12  1  0
 12 13  1  0
 13 14  1  0
 14 15  2  0
 15 16  1  0
 16 17  2  0
 17 18  1  0
 12 19  1  0
 19 20  1  0
 20 21  2  0
 20 22  1  0
 22 23  1  0
 23 24  1  0
 24 25  1  0
 25 26  1  0
 26 27  1  0
 19 28  1  0
 28 29  2  0
 29 30  1  0
 30 31  2  0
 31 32  1  0
 32 33  2  0
 33 34  1  0
  4 35  2  0
 35 36  1  0
 36  2  1  0
 18 14  1  0
 27 23  1  0
 33 28  1  0
  1 37  1  0
  1 38  1  0
  1 39  1  0
  3 40  1  0
  5 41  1  0
  8 42  1  0
  8 43  1  0
  9 44  1  0
  9 45  1  0
 13 46  1  0
 13 47  1  0
 15 48  1  0
 16 49  1  0
 17 50  1  0
 19 51  1  0
 22 52  1  0
 23 53  1  0
 24 54  1  0
 24 55  1  0
 25 56  1  0
 25 57  1  0
 26 58  1  0
 26 59  1  0
 27 60  1  0
 27 61  1  0
 29 62  1  0
 30 63  1  0
 31 64  1  0
 32 65  1  0
 34 66  1  0
 34 67  1  0
 34 68  1  0
M  END
$$$$
