
     RDKit          3D

 36 37  0  0  0  0  0  0  0  0999 V2000
   -1.9455   -2.4174   -1.8607 C   0  0  0  0  0  0  0  0  0  0  0  0
   -1.2447   -1.1753   -1.3152 C   0  0  0  0  0  0  0  0  0  0  0  0
   -2.0558   -0.4179   -0.3353 N   0  0  0  0  0  0  0  0  0  0  0  0
   -3.2706    0.1360   -0.9809 C   0  0  0  0  0  0  0  0  0  0  0  0
   -4.1964    0.9740   -0.0771 C   0  0  0  0  0  0  0  0  0  0  0  0
   -3.7805    2.3372   -0.0207 O   0  0  0  0  0  0  0  0  0  0  0  0
   -1.2502    0.6487    0.3006 C   0  0  0  0  0  0  0  0  0  0  0  0
   -0.1486    0.0609    1.1506 C   0  0  0  0  0  0  0  0  0  0  0  0
   -0.3819   -0.7412    2.2531 C   0  0  0  0  0  0  0  0  0  0  0  0
    1.0455   -1.2488    3.0227 S   0  0  0  0  0  0  0  0  0  0  0  0
    2.0372   -0.3991    1.9035 C   0  0  0  0  0  0  0  0  0  0  0  0
    3.4469   -0.3453    1.9026 C   0  0  0  0  0  0  0  0  0  0  0  0
    4.1109    0.3886    0.9110 C   0  0  0  0  0  0  0  0  0  0  0  0
    5.6089    0.4803    0.9196 C   0  0  0  0  0  0  0  0  0  0  0  0
    3.3679    1.0761   -0.0440 C   0  0  0  0  0  0  0  0  0  0  0  0
    1.9692    1.0198   -0.0387 C   0  0  0  0  0  0  0  0  0  0  0  0
    1.2724    0.2715    0.9446 C   0  0  0  0  0  0  0  0  0  0  0  0
   -2.3284   -3.0438   -1.0483 H   0  0  0  0  0  0  0  0  0  0  0  0
   -1.2367   -3.0185   -2.4404 H   0  0  0  0  0  0  0  0  0  0  0  0
   -2.7738   -2.1621   -2.5281 H   0  0  0  0  0  0  0  0  0  0  0  0
   -0.3250   -1.5391   -0.8442 H   0  0  0  0  0  0  0  0  0  0  0  0
   -0.9387   -0.5311   -2.1494 H   0  0  0  0  0  0  0  0  0  0  0  0
   -3.8821   -0.7052   -1.3243 H   0  0  0  0  0  0  0  0  0  0  0  0
   -2.9895    0.7309   -1.8593 H   0  0  0  0  0  0  0  0  0  0  0  0
   -4.2351    0.5720    0.9406 H   0  0  0  0  0  0  0  0  0  0  0  0
   -5.2168    0.9607   -0.4754 H   0  0  0  0  0  0  0  0  0  0  0  0
   -3.8743    2.7080   -0.9146 H   0  0  0  0  0  0  0  0  0  0  0  0
   -1.8591    1.2371    0.9952 H   0  0  0  0  0  0  0  0  0  0  0  0
   -0.8583    1.3419   -0.4518 H   0  0  0  0  0  0  0  0  0  0  0  0
   -1.3440   -1.0580    2.6329 H   0  0  0  0  0  0  0  0  0  0  0  0
    4.0083   -0.8739    2.6690 H   0  0  0  0  0  0  0  0  0  0  0  0
    5.9983    0.6128   -0.0954 H   0  0  0  0  0  0  0  0  0  0  0  0
    5.9281    1.3274    1.5345 H   0  0  0  0  0  0  0  0  0  0  0  0
    6.0540   -0.4365    1.3204 H   0  0  0  0  0  0  0  0  0  0  0  0
    3.8684    1.6665   -0.8087 H   0  0  0  0  0  0  0  0  0  0  0  0
    1.4201    1.5629   -0.8031 H   0  0  0  0  0  0  0  0  0  0  0  0
  1  2  1  0
  2  3  1  0
  3  4  1  0
  4  5  1  0
  5  6  1  0
  3  7  1  0
  7  8  1  0
  8  9  2  0
  9 10  1  0
 10 11  1  0
 11 12  2  0
 12 13  1  0
 13 14  1  0
 13 15  2  0
 15 16  1  0
 16 17  2  0
 17  8  1  0
 17 11  1  0
  1 18  1  0
  1 19  1  0
  1 20  1  0
  2 21  1  0
  2 22  1  0
  4 23  1  0
  4 24  1  0
  5 25  1  0
  5 26  1  0
  6 27  1  0
  7 28  1  0
  7 29  1  0
  9 30  1  0
 12 31  1  0
 14 32  1  0
 14 33  1  0
 14 34  1  0
 15 35  1  0
 16 36  1  0
M  END
$$$$
