
     RDKit          3D

 61 63  0  0  0  0  0  0  0  0999 V2000
   -9.8521    2.2716    1.3563 C   0  0  0  0  0  0  0  0  0  0  0  0
   -9.1232    1.8802    0.2002 O   0  0  0  0  0  0  0  0  0  0  0  0
   -8.2836    0.8087    0.3320 C   0  0  0  0  0  0  0  0  0  0  0  0
   -7.5838    0.4692   -0.8275 C   0  0  0  0  0  0  0  0  0  0  0  0
   -6.6914   -0.6052   -0.8334 C   0  0  0  0  0  0  0  0  0  0  0  0
   -6.4902   -1.3650    0.3254 C   0  0  0  0  0  0  0  0  0  0  0  0
   -5.5095   -2.5080    0.3262 C   0  0  0  0  0  0  0  0  0  0  0  0
   -4.1789   -2.0421    0.6140 N   0  0  0  0  0  0  0  0  0  0  0  0
   -3.2676   -1.7560   -0.3733 C   0  0  0  0  0  0  0  0  0  0  0  0
   -3.3972   -1.9737   -1.5700 O   0  0  0  0  0  0  0  0  0  0  0  0
   -1.9768   -1.0890    0.1553 C   0  0  0  0  0  0  0  0  0  0  0  0
   -1.8430   -0.8818    1.3528 O   0  0  0  0  0  0  0  0  0  0  0  0
   -1.0768   -0.7782   -0.8382 N   0  0  0  0  0  0  0  0  0  0  0  0
    0.2710   -0.3198   -0.5497 C   0  0  0  0  0  0  0  0  0  0  0  0
    1.3001   -1.4669   -0.4805 C   0  0  0  0  0  0  0  0  0  0  0  0
    1.0258   -2.3209    0.6436 O   0  0  0  0  0  0  0  0  0  0  0  0
    2.2916   -2.8583    1.0259 C   0  0  0  0  0  0  0  0  0  0  0  0
    3.2323   -1.6859    0.8711 C   0  0  0  0  0  0  0  0  0  0  0  0
    2.6669   -0.9315   -0.2671 N   0  0  0  0  0  0  0  0  0  0  0  0
    3.5813   -0.8573   -1.6831 S   0  0  0  0  0  6  0  0  0  0  0  0
    4.0157   -2.2051   -1.9823 O   0  0  0  0  0  0  0  0  0  0  0  0
    2.8427   -0.0718   -2.6467 O   0  0  0  0  0  0  0  0  0  0  0  0
    4.9888    0.0973   -1.1835 C   0  0  0  0  0  0  0  0  0  0  0  0
    6.2670   -0.4562   -1.2412 C   0  0  0  0  0  0  0  0  0  0  0  0
    7.3629    0.3071   -0.8350 C   0  0  0  0  0  0  0  0  0  0  0  0
    7.1823    1.6186   -0.3764 C   0  0  0  0  0  0  0  0  0  0  0  0
    8.2004    2.4366    0.0473 O   0  0  0  0  0  0  0  0  0  0  0  0
    9.5300    1.9499   -0.0642 C   0  0  0  0  0  0  0  0  0  0  0  0
    5.8836    2.1726   -0.3272 C   0  0  0  0  0  0  0  0  0  0  0  0
    5.7958    3.4616    0.1371 O   0  0  0  0  0  0  0  0  0  0  0  0
    4.5167    4.0800    0.1351 C   0  0  0  0  0  0  0  0  0  0  0  0
    4.7886    1.4068   -0.7353 C   0  0  0  0  0  0  0  0  0  0  0  0
   -7.1864   -1.0154    1.4900 C   0  0  0  0  0  0  0  0  0  0  0  0
   -8.0804    0.0621    1.4925 C   0  0  0  0  0  0  0  0  0  0  0  0
   -9.1786    2.5797    2.1626 H   0  0  0  0  0  0  0  0  0  0  0  0
  -10.5263    1.4745    1.6862 H   0  0  0  0  0  0  0  0  0  0  0  0
  -10.4662    3.1364    1.0876 H   0  0  0  0  0  0  0  0  0  0  0  0
   -7.7315    1.0494   -1.7351 H   0  0  0  0  0  0  0  0  0  0  0  0
   -6.1497   -0.8435   -1.7473 H   0  0  0  0  0  0  0  0  0  0  0  0
   -5.5321   -3.0292   -0.6378 H   0  0  0  0  0  0  0  0  0  0  0  0
   -5.7767   -3.2392    1.0971 H   0  0  0  0  0  0  0  0  0  0  0  0
   -3.9551   -1.6960    1.5425 H   0  0  0  0  0  0  0  0  0  0  0  0
   -1.3294   -1.0671   -1.7803 H   0  0  0  0  0  0  0  0  0  0  0  0
    0.2569    0.2237    0.4023 H   0  0  0  0  0  0  0  0  0  0  0  0
    0.5356    0.3893   -1.3398 H   0  0  0  0  0  0  0  0  0  0  0  0
    1.2389   -2.0919   -1.3799 H   0  0  0  0  0  0  0  0  0  0  0  0
    2.5464   -3.6796    0.3468 H   0  0  0  0  0  0  0  0  0  0  0  0
    2.2496   -3.2381    2.0499 H   0  0  0  0  0  0  0  0  0  0  0  0
    3.1894   -1.0340    1.7508 H   0  0  0  0  0  0  0  0  0  0  0  0
    4.2678   -2.0066    0.7371 H   0  0  0  0  0  0  0  0  0  0  0  0
    6.4221   -1.4717   -1.5994 H   0  0  0  0  0  0  0  0  0  0  0  0
    8.3463   -0.1489   -0.8876 H   0  0  0  0  0  0  0  0  0  0  0  0
    9.6855    1.0783    0.5797 H   0  0  0  0  0  0  0  0  0  0  0  0
    9.7835    1.7244   -1.1053 H   0  0  0  0  0  0  0  0  0  0  0  0
   10.2052    2.7401    0.2783 H   0  0  0  0  0  0  0  0  0  0  0  0
    4.6395    5.1035    0.5019 H   0  0  0  0  0  0  0  0  0  0  0  0
    3.8294    3.5643    0.8134 H   0  0  0  0  0  0  0  0  0  0  0  0
    4.1061    4.1369   -0.8784 H   0  0  0  0  0  0  0  0  0  0  0  0
    3.7770    1.7997   -0.7132 H   0  0  0  0  0  0  0  0  0  0  0  0
   -7.0381   -1.5801    2.4080 H   0  0  0  0  0  0  0  0  0  0  0  0
   -8.5983    0.2917    2.4175 H   0  0  0  0  0  0  0  0  0  0  0  0
  1  2  1  0
  2  3  1  0
  3  4  2  0
  4  5  1  0
  5  6  2  0
  6  7  1  0
  7  8  1  0
  8  9  1  0
  9 10  2  0
  9 11  1  0
 11 12  2  0
 11 13  1  0
 13 14  1  0
 14 15  1  0
 15 16  1  0
 16 17  1  0
 17 18  1  0
 18 19  1  0
 19 20  1  0
 20 21  2  0
 20 22  2  0
 20 23  1  0
 23 24  2  0
 24 25  1  0
 25 26  2  0
 26 27  1  0
 27 28  1  0
 26 29  1  0
 29 30  1  0
 30 31  1  0
 29 32  2  0
  6 33  1  0
 33 34  2  0
 34  3  1  0
 19 15  1  0
 32 23  1  0
  1 35  1  0
  1 36  1  0
  1 37  1  0
  4 38  1  0
  5 39  1  0
  7 40  1  0
  7 41  1  0
  8 42  1  0
 13 43  1  0
 14 44  1  0
 14 45  1  0
 15 46  1  0
 17 47  1  0
 17 48  1  0
 18 49  1  0
 18 50  1  0
 24 51  1  0
 25 52  1  0
 28 53  1  0
 28 54  1  0
 28 55  1  0
 31 56  1  0
 31 57  1  0
 31 58  1  0
 32 59  1  0
 33 60  1  0
 34 61  1  0
M  END
$$$$
