
     RDKit          3D

 56 60  0  0  0  0  0  0  0  0999 V2000
   -5.9403   -1.2399   -1.0586 C   0  0  0  0  0  0  0  0  0  0  0  0
   -4.4514   -1.0450   -1.0183 C   0  0  0  0  0  0  0  0  0  0  0  0
   -3.8375   -0.3907   -2.0976 C   0  0  0  0  0  0  0  0  0  0  0  0
   -2.4529   -0.1941   -2.1316 C   0  0  0  0  0  0  0  0  0  0  0  0
   -1.6274   -0.6674   -1.1011 C   0  0  0  0  0  0  0  0  0  0  0  0
   -0.1728   -0.4493   -1.1181 C   0  0  0  0  0  0  0  0  0  0  0  0
    0.2680    0.2815   -0.0729 N   0  0  0  0  0  0  0  0  0  0  0  0
    1.5920    0.5960    0.0386 N   0  0  0  0  0  0  0  0  0  0  0  0
    2.4851    0.1952   -0.8896 C   0  0  0  0  0  0  0  0  0  0  0  0
    3.8521    0.5650   -0.7697 N   0  0  0  0  0  0  0  0  0  0  0  0
    4.5237    1.0647    0.3696 C   0  0  0  0  0  0  0  0  0  0  0  0
    4.1393    0.7170    1.6844 C   0  0  0  0  0  0  0  0  0  0  0  0
    4.8645    1.1519    2.8008 C   0  0  0  0  0  0  0  0  0  0  0  0
    5.9851    1.9151    2.5754 C   0  0  0  0  0  0  0  0  0  0  0  0
    6.3879    2.2425    1.3041 C   0  0  0  0  0  0  0  0  0  0  0  0
    5.6902    1.8279    0.1886 C   0  0  0  0  0  0  0  0  0  0  0  0
    7.5192    2.9990    1.2977 O   0  0  0  0  0  0  0  0  0  0  0  0
    7.7888    3.0953    2.7129 C   0  0  0  0  0  0  0  0  0  0  0  0
    6.8097    2.4199    3.5282 O   0  0  0  0  0  0  0  0  0  0  0  0
    2.0740   -0.5830   -1.9956 C   0  0  0  0  0  0  0  0  0  0  0  0
    2.9718   -1.0582   -2.9853 C   0  0  0  0  0  0  0  0  0  0  0  0
    2.5396   -1.8351   -4.0616 C   0  0  0  0  0  0  0  0  0  0  0  0
    1.2012   -2.1776   -4.1675 C   0  0  0  0  0  0  0  0  0  0  0  0
    0.2973   -1.7349   -3.2029 C   0  0  0  0  0  0  0  0  0  0  0  0
    0.7051   -0.9232   -2.1117 C   0  0  0  0  0  0  0  0  0  0  0  0
   -2.2369   -1.3162   -0.0168 C   0  0  0  0  0  0  0  0  0  0  0  0
   -3.6321   -1.4936    0.0356 C   0  0  0  0  0  0  0  0  0  0  0  0
   -4.3014   -2.2930    1.4911 S   0  0  0  0  0  6  0  0  0  0  0  0
   -5.3425   -3.2022    1.0674 O   0  0  0  0  0  0  0  0  0  0  0  0
   -3.1953   -2.7434    2.3075 O   0  0  0  0  0  0  0  0  0  0  0  0
   -5.0402   -1.0266    2.3034 N   0  0  0  0  0  0  0  0  0  0  0  0
   -4.2203    0.0989    2.7803 C   0  0  0  0  0  0  0  0  0  0  0  0
   -5.1591    1.1931    3.2916 C   0  0  0  0  0  0  0  0  0  0  0  0
   -6.0219    1.6186    2.2314 O   0  0  0  0  0  0  0  0  0  0  0  0
   -6.4178   -0.8036   -0.1785 H   0  0  0  0  0  0  0  0  0  0  0  0
   -6.3825   -0.7504   -1.9356 H   0  0  0  0  0  0  0  0  0  0  0  0
   -6.1856   -2.3026   -1.1326 H   0  0  0  0  0  0  0  0  0  0  0  0
   -4.4378   -0.0175   -2.9286 H   0  0  0  0  0  0  0  0  0  0  0  0
   -2.0207    0.3413   -2.9764 H   0  0  0  0  0  0  0  0  0  0  0  0
    4.1380    1.0419   -1.6181 H   0  0  0  0  0  0  0  0  0  0  0  0
    3.2676    0.0875    1.8542 H   0  0  0  0  0  0  0  0  0  0  0  0
    4.5546    0.8905    3.8054 H   0  0  0  0  0  0  0  0  0  0  0  0
    6.0510    2.0966   -0.7955 H   0  0  0  0  0  0  0  0  0  0  0  0
    7.8140    4.1548    2.9982 H   0  0  0  0  0  0  0  0  0  0  0  0
    8.7757    2.6553    2.9118 H   0  0  0  0  0  0  0  0  0  0  0  0
    4.0368   -0.8414   -2.9144 H   0  0  0  0  0  0  0  0  0  0  0  0
    3.2537   -2.1863   -4.8023 H   0  0  0  0  0  0  0  0  0  0  0  0
    0.8588   -2.8009   -4.9901 H   0  0  0  0  0  0  0  0  0  0  0  0
   -0.7401   -2.0484   -3.3061 H   0  0  0  0  0  0  0  0  0  0  0  0
   -1.6080   -1.6743    0.8027 H   0  0  0  0  0  0  0  0  0  0  0  0
   -5.9564   -0.7709    1.9301 H   0  0  0  0  0  0  0  0  0  0  0  0
   -3.5519   -0.2333    3.5802 H   0  0  0  0  0  0  0  0  0  0  0  0
   -3.6321    0.5059    1.9542 H   0  0  0  0  0  0  0  0  0  0  0  0
   -5.7902    0.8175    4.1018 H   0  0  0  0  0  0  0  0  0  0  0  0
   -4.5994    2.0593    3.6594 H   0  0  0  0  0  0  0  0  0  0  0  0
   -5.4903    2.1709    1.6313 H   0  0  0  0  0  0  0  0  0  0  0  0
  1  2  1  0
  2  3  2  0
  3  4  1  0
  4  5  2  0
  5  6  1  0
  6  7  2  0
  7  8  1  0
  8  9  2  0
  9 10  1  0
 10 11  1  0
 11 12  2  0
 12 13  1  0
 13 14  2  0
 14 15  1  0
 15 16  2  0
 15 17  1  0
 17 18  1  0
 18 19  1  0
  9 20  1  0
 20 21  2  0
 21 22  1  0
 22 23  2  0
 23 24  1  0
 24 25  2  0
  5 26  1  0
 26 27  2  0
 27 28  1  0
 28 29  2  0
 28 30  2  0
 28 31  1  0
 31 32  1  0
 32 33  1  0
 33 34  1  0
 27  2  1  0
 25  6  1  0
 16 11  1  0
 25 20  1  0
 19 14  1  0
  1 35  1  0
  1 36  1  0
  1 37  1  0
  3 38  1  0
  4 39  1  0
 10 40  1  0
 12 41  1  0
 13 42  1  0
 16 43  1  0
 18 44  1  0
 18 45  1  0
 21 46  1  0
 22 47  1  0
 23 48  1  0
 24 49  1  0
 26 50  1  0
 31 51  1  0
 32 52  1  0
 32 53  1  0
 33 54  1  0
 33 55  1  0
 34 56  1  0
M  END
$$$$
