
     RDKit          3D

 51 55  0  0  0  0  0  0  0  0999 V2000
    7.7361    0.1301    1.2792 C   0  0  0  0  0  0  0  0  0  0  0  0
    6.7924    1.0855    1.6523 C   0  0  0  0  0  0  0  0  0  0  0  0
    5.6265    1.2469    0.9023 C   0  0  0  0  0  0  0  0  0  0  0  0
    5.3966    0.4550   -0.2309 C   0  0  0  0  0  0  0  0  0  0  0  0
    4.1248    0.6138   -1.0306 C   0  0  0  0  0  0  0  0  0  0  0  0
    2.9910   -0.2586   -0.4650 C   0  0  0  0  0  0  0  0  0  0  0  0
    1.7545   -0.1559   -1.2580 N   0  0  0  0  0  0  0  0  0  0  0  0
    0.8644   -1.3032   -0.9778 C   0  0  0  0  0  0  0  0  0  0  0  0
   -0.5820   -1.0907   -1.4737 C   0  0  0  0  0  0  0  0  0  0  0  0
   -1.2098    0.0766   -0.8365 N   0  0  0  0  0  0  0  0  0  0  0  0
   -2.5212    0.0343   -0.3715 C   0  0  0  0  0  0  0  0  0  0  0  0
   -2.7892    0.6321    0.7646 N   0  0  0  0  0  0  0  0  0  0  0  0
   -4.0839    0.5942    1.3150 C   0  0  0  0  0  0  0  0  0  0  0  0
   -4.3040    1.2342    2.5363 C   0  0  0  0  0  0  0  0  0  0  0  0
   -5.5667    1.2164    3.1345 C   0  0  0  0  0  0  0  0  0  0  0  0
   -6.6259    0.5544    2.5129 C   0  0  0  0  0  0  0  0  0  0  0  0
   -6.4289   -0.0911    1.2917 C   0  0  0  0  0  0  0  0  0  0  0  0
   -5.1594   -0.0650    0.7061 C   0  0  0  0  0  0  0  0  0  0  0  0
   -4.8759   -0.6757   -0.5260 N   0  0  0  0  0  0  0  0  0  0  0  0
   -5.7147   -1.3653   -1.3695 C   0  0  0  0  0  0  0  0  0  0  0  0
   -5.0029   -1.7102   -2.4968 C   0  0  0  0  0  0  0  0  0  0  0  0
   -3.6853   -1.2273   -2.3226 C   0  0  0  0  0  0  0  0  0  0  0  0
   -3.6129   -0.6248   -1.0778 C   0  0  0  0  0  0  0  0  0  0  0  0
   -0.2674    1.0371   -0.2380 C   0  0  0  0  0  0  0  0  0  0  0  0
    1.0402    1.1264   -1.0547 C   0  0  0  0  0  0  0  0  0  0  0  0
    6.3493   -0.5060   -0.5947 C   0  0  0  0  0  0  0  0  0  0  0  0
    7.5147   -0.6655    0.1566 C   0  0  0  0  0  0  0  0  0  0  0  0
    8.6441    0.0055    1.8633 H   0  0  0  0  0  0  0  0  0  0  0  0
    6.9648    1.7055    2.5281 H   0  0  0  0  0  0  0  0  0  0  0  0
    4.8988    1.9956    1.2068 H   0  0  0  0  0  0  0  0  0  0  0  0
    3.8470    1.6743   -1.0417 H   0  0  0  0  0  0  0  0  0  0  0  0
    4.3180    0.3444   -2.0772 H   0  0  0  0  0  0  0  0  0  0  0  0
    3.3401   -1.3004   -0.4792 H   0  0  0  0  0  0  0  0  0  0  0  0
    2.7968   -0.0123    0.5875 H   0  0  0  0  0  0  0  0  0  0  0  0
    0.8326   -1.5080    0.1014 H   0  0  0  0  0  0  0  0  0  0  0  0
    1.2752   -2.1954   -1.4650 H   0  0  0  0  0  0  0  0  0  0  0  0
   -0.5805   -0.9476   -2.5603 H   0  0  0  0  0  0  0  0  0  0  0  0
   -1.1454   -2.0045   -1.2527 H   0  0  0  0  0  0  0  0  0  0  0  0
   -3.4801    1.7485    3.0236 H   0  0  0  0  0  0  0  0  0  0  0  0
   -5.7210    1.7193    4.0856 H   0  0  0  0  0  0  0  0  0  0  0  0
   -7.6069    0.5432    2.9817 H   0  0  0  0  0  0  0  0  0  0  0  0
   -7.2684   -0.5964    0.8263 H   0  0  0  0  0  0  0  0  0  0  0  0
   -6.7511   -1.5432   -1.1229 H   0  0  0  0  0  0  0  0  0  0  0  0
   -5.3948   -2.2401   -3.3555 H   0  0  0  0  0  0  0  0  0  0  0  0
   -2.8795   -1.3109   -3.0382 H   0  0  0  0  0  0  0  0  0  0  0  0
   -0.7240    2.0339   -0.2119 H   0  0  0  0  0  0  0  0  0  0  0  0
   -0.0397    0.7445    0.7947 H   0  0  0  0  0  0  0  0  0  0  0  0
    0.7910    1.5074   -2.0536 H   0  0  0  0  0  0  0  0  0  0  0  0
    1.6836    1.8862   -0.5971 H   0  0  0  0  0  0  0  0  0  0  0  0
    6.1891   -1.1359   -1.4669 H   0  0  0  0  0  0  0  0  0  0  0  0
    8.2499   -1.4111   -0.1343 H   0  0  0  0  0  0  0  0  0  0  0  0
  1  2  2  0
  2  3  1  0
  3  4  2  0
  4  5  1  0
  5  6  1  0
  6  7  1  0
  7  8  1  0
  8  9  1  0
  9 10  1  0
 10 11  1  0
 11 12  2  0
 12 13  1  0
 13 14  2  0
 14 15  1  0
 15 16  2  0
 16 17  1  0
 17 18  2  0
 18 19  1  0
 19 20  1  0
 20 21  2  0
 21 22  1  0
 22 23  2  0
 10 24  1  0
 24 25  1  0
  4 26  1  0
 26 27  2  0
 27  1  1  0
 25  7  1  0
 23 11  1  0
 18 13  1  0
 23 19  1  0
  1 28  1  0
  2 29  1  0
  3 30  1  0
  5 31  1  0
  5 32  1  0
  6 33  1  0
  6 34  1  0
  8 35  1  0
  8 36  1  0
  9 37  1  0
  9 38  1  0
 14 39  1  0
 15 40  1  0
 16 41  1  0
 17 42  1  0
 20 43  1  0
 21 44  1  0
 22 45  1  0
 24 46  1  0
 24 47  1  0
 25 48  1  0
 25 49  1  0
 26 50  1  0
 27 51  1  0
M  END
$$$$
