
     RDKit          3D

 60 65  0  0  0  0  0  0  0  0999 V2000
    1.5020    1.3771   -3.2615 O   0  0  0  0  0  0  0  0  0  0  0  0
    1.9588    1.1100   -2.1565 C   0  0  0  0  0  0  0  0  0  0  0  0
    1.1671    0.6640   -1.1009 N   0  0  0  0  0  0  0  0  0  0  0  0
    1.6429    0.3985    0.1777 C   0  0  0  0  0  0  0  0  0  0  0  0
    0.6545   -0.1146    1.2261 C   0  0  0  0  0  0  0  0  0  0  0  0
   -0.6527    0.6809    1.2953 C   0  0  0  0  0  0  0  0  0  0  0  0
   -1.8857   -0.2106    1.2235 C   0  0  0  0  0  0  0  0  0  0  0  0
   -1.8293   -1.1539    0.0820 N   0  0  0  0  0  0  0  0  0  0  0  0
   -2.4043   -0.6090   -1.4287 S   0  0  0  0  0  6  0  0  0  0  0  0
   -2.4313   -1.7410   -2.3272 O   0  0  0  0  0  0  0  0  0  0  0  0
   -1.6132    0.5679   -1.7292 O   0  0  0  0  0  0  0  0  0  0  0  0
   -4.0771   -0.1377   -1.1074 C   0  0  0  0  0  0  0  0  0  0  0  0
   -4.9818   -1.1116   -0.6687 C   0  0  0  0  0  0  0  0  0  0  0  0
   -6.3058   -0.7542   -0.4126 C   0  0  0  0  0  0  0  0  0  0  0  0
   -6.7157    0.5657   -0.5981 C   0  0  0  0  0  0  0  0  0  0  0  0
   -5.8105    1.5259   -1.0685 C   0  0  0  0  0  0  0  0  0  0  0  0
   -4.4829    1.1825   -1.3113 C   0  0  0  0  0  0  0  0  0  0  0  0
   -6.1600    2.8292   -1.3088 O   0  0  0  0  0  0  0  0  0  0  0  0
   -7.5832    2.9806   -1.3839 C   0  0  0  0  0  0  0  0  0  0  0  0
   -8.2575    2.2577   -0.2297 C   0  0  0  0  0  0  0  0  0  0  0  0
   -8.0268    0.8466   -0.3116 O   0  0  0  0  0  0  0  0  0  0  0  0
   -0.5834   -1.9644   -0.0149 C   0  0  0  0  0  0  0  0  0  0  0  0
    0.4283   -1.6232    1.0697 C   0  0  0  0  0  0  0  0  0  0  0  0
    2.8980    0.5077    0.5244 N   0  0  0  0  0  0  0  0  0  0  0  0
    3.6959    0.9136   -0.4925 C   0  0  0  0  0  0  0  0  0  0  0  0
    3.3428    1.2186   -1.7834 C   0  0  0  0  0  0  0  0  0  0  0  0
    4.4355    1.5927   -2.5031 N   0  0  0  0  0  0  0  0  0  0  0  0
    5.4894    1.5236   -1.6893 N   0  0  0  0  0  0  0  0  0  0  0  0
    5.0481    1.1012   -0.4786 N   0  0  0  0  0  0  0  0  0  0  0  0
    5.9565    0.9672    0.6415 C   0  0  0  0  0  0  0  0  0  0  0  0
    6.4166   -0.4593    0.8177 C   0  0  0  0  0  0  0  0  0  0  0  0
    5.7069   -1.3407    1.6521 C   0  0  0  0  0  0  0  0  0  0  0  0
    6.1223   -2.6651    1.8079 C   0  0  0  0  0  0  0  0  0  0  0  0
    7.2500   -3.1230    1.1299 C   0  0  0  0  0  0  0  0  0  0  0  0
    7.9495   -2.2562    0.2971 C   0  0  0  0  0  0  0  0  0  0  0  0
    9.0311   -2.7004   -0.3574 F   0  0  0  0  0  0  0  0  0  0  0  0
    7.5439   -0.9363    0.1311 C   0  0  0  0  0  0  0  0  0  0  0  0
    0.1758    0.6289   -1.3309 H   0  0  0  0  0  0  0  0  0  0  0  0
    1.1631    0.0225    2.1925 H   0  0  0  0  0  0  0  0  0  0  0  0
   -0.7007    1.4601    0.5272 H   0  0  0  0  0  0  0  0  0  0  0  0
   -0.6853    1.2273    2.2489 H   0  0  0  0  0  0  0  0  0  0  0  0
   -2.7871    0.4079    1.1848 H   0  0  0  0  0  0  0  0  0  0  0  0
   -1.9836   -0.7996    2.1443 H   0  0  0  0  0  0  0  0  0  0  0  0
   -4.6608   -2.1421   -0.5297 H   0  0  0  0  0  0  0  0  0  0  0  0
   -7.0164   -1.5006   -0.0677 H   0  0  0  0  0  0  0  0  0  0  0  0
   -3.7882    1.9362   -1.6732 H   0  0  0  0  0  0  0  0  0  0  0  0
   -7.8060    4.0515   -1.3422 H   0  0  0  0  0  0  0  0  0  0  0  0
   -7.9256    2.5977   -2.3537 H   0  0  0  0  0  0  0  0  0  0  0  0
   -9.3395    2.4197   -0.2625 H   0  0  0  0  0  0  0  0  0  0  0  0
   -7.8875    2.6148    0.7389 H   0  0  0  0  0  0  0  0  0  0  0  0
   -0.1063   -1.8293   -0.9918 H   0  0  0  0  0  0  0  0  0  0  0  0
   -0.8602   -3.0221    0.0568 H   0  0  0  0  0  0  0  0  0  0  0  0
    0.0726   -2.0264    2.0271 H   0  0  0  0  0  0  0  0  0  0  0  0
    1.3730   -2.1376    0.8549 H   0  0  0  0  0  0  0  0  0  0  0  0
    6.8081    1.6356    0.4753 H   0  0  0  0  0  0  0  0  0  0  0  0
    5.4416    1.3271    1.5386 H   0  0  0  0  0  0  0  0  0  0  0  0
    4.8163   -1.0003    2.1811 H   0  0  0  0  0  0  0  0  0  0  0  0
    5.5647   -3.3389    2.4550 H   0  0  0  0  0  0  0  0  0  0  0  0
    7.5840   -4.1489    1.2400 H   0  0  0  0  0  0  0  0  0  0  0  0
    8.1091   -0.2935   -0.5403 H   0  0  0  0  0  0  0  0  0  0  0  0
  1  2  2  0
  2  3  1  0
  3  4  1  0
  4  5  1  0
  5  6  1  0
  6  7  1  0
  7  8  1  0
  8  9  1  0
  9 10  2  0
  9 11  2  0
  9 12  1  0
 12 13  2  0
 13 14  1  0
 14 15  2  0
 15 16  1  0
 16 17  2  0
 16 18  1  0
 18 19  1  0
 19 20  1  0
 20 21  1  0
  8 22  1  0
 22 23  1  0
  4 24  2  0
 24 25  1  0
 25 26  2  0
 26 27  1  0
 27 28  2  0
 28 29  1  0
 29 30  1  0
 30 31  1  0
 31 32  2  0
 32 33  1  0
 33 34  2  0
 34 35  1  0
 35 36  1  0
 35 37  2  0
 26  2  1  0
 37 31  1  0
 23  5  1  0
 29 25  1  0
 17 12  1  0
 21 15  1  0
  3 38  1  0
  5 39  1  0
  6 40  1  0
  6 41  1  0
  7 42  1  0
  7 43  1  0
 13 44  1  0
 14 45  1  0
 17 46  1  0
 19 47  1  0
 19 48  1  0
 20 49  1  0
 20 50  1  0
 22 51  1  0
 22 52  1  0
 23 53  1  0
 23 54  1  0
 30 55  1  0
 30 56  1  0
 32 57  1  0
 33 58  1  0
 34 59  1  0
 37 60  1  0
M  END
$$$$
