
     RDKit          3D

 43 46  0  0  0  0  0  0  0  0999 V2000
    6.4625    1.5538   -1.4544 C   0  0  0  0  0  0  0  0  0  0  0  0
    5.0455    1.2645   -1.0520 C   0  0  0  0  0  0  0  0  0  0  0  0
    4.7333    0.1023   -0.3405 C   0  0  0  0  0  0  0  0  0  0  0  0
    3.4189   -0.1561    0.0622 C   0  0  0  0  0  0  0  0  0  0  0  0
    2.4022    0.7516   -0.2353 C   0  0  0  0  0  0  0  0  0  0  0  0
    0.9214    0.4748    0.2106 C   0  0  0  0  0  0  0  0  0  0  0  0
   -0.1632    1.3272    0.0407 C   0  0  0  0  0  0  0  0  0  0  0  0
   -1.3011    0.7318    0.5881 N   0  0  0  0  0  4  0  0  0  0  0  0
   -2.6445    1.3036    0.6429 C   0  0  0  0  0  0  0  0  0  0  0  0
   -3.5969    0.4497   -0.1541 C   0  0  0  0  0  0  0  0  0  0  0  0
   -4.8248    0.0525    0.3994 C   0  0  0  0  0  0  0  0  0  0  0  0
   -5.7162   -0.7326   -0.3363 C   0  0  0  0  0  0  0  0  0  0  0  0
   -5.3966   -1.1249   -1.6355 C   0  0  0  0  0  0  0  0  0  0  0  0
   -4.1891   -0.7236   -2.1984 C   0  0  0  0  0  0  0  0  0  0  0  0
   -3.7859   -1.2029   -3.7993 Cl  0  0  0  0  0  0  0  0  0  0  0  0
   -3.2958    0.0637   -1.4708 C   0  0  0  0  0  0  0  0  0  0  0  0
   -0.9317   -0.4469    1.0800 C   0  0  0  0  0  0  0  0  0  0  0  0
    0.3669   -0.6193    0.8507 N   0  0  0  0  0  0  0  0  0  0  0  0
    0.8411   -1.9048    1.3428 C   0  0  0  0  0  0  0  0  0  0  0  0
   -0.4663   -2.6725    1.6790 C   0  0  0  0  0  0  0  0  0  0  0  0
   -1.5552   -1.5870    1.7912 C   0  0  0  0  0  0  0  0  0  0  0  0
    2.7128    1.9263   -0.9301 C   0  0  0  0  0  0  0  0  0  0  0  0
    4.0278    2.1807   -1.3315 C   0  0  0  0  0  0  0  0  0  0  0  0
    6.4936    2.1477   -2.3740 H   0  0  0  0  0  0  0  0  0  0  0  0
    6.9719    2.1059   -0.6586 H   0  0  0  0  0  0  0  0  0  0  0  0
    7.0103    0.6257   -1.6488 H   0  0  0  0  0  0  0  0  0  0  0  0
    5.5182   -0.6115   -0.0941 H   0  0  0  0  0  0  0  0  0  0  0  0
    3.2358   -1.0673    0.6159 H   0  0  0  0  0  0  0  0  0  0  0  0
   -0.2704    2.3037   -0.4006 H   0  0  0  0  0  0  0  0  0  0  0  0
   -2.6342    2.3225    0.2411 H   0  0  0  0  0  0  0  0  0  0  0  0
   -2.9365    1.3545    1.6979 H   0  0  0  0  0  0  0  0  0  0  0  0
   -5.1083    0.3514    1.4079 H   0  0  0  0  0  0  0  0  0  0  0  0
   -6.6670   -1.0350    0.0995 H   0  0  0  0  0  0  0  0  0  0  0  0
   -6.0956   -1.7341   -2.2042 H   0  0  0  0  0  0  0  0  0  0  0  0
   -2.3635    0.3731   -1.9378 H   0  0  0  0  0  0  0  0  0  0  0  0
    1.4431   -1.7385    2.2409 H   0  0  0  0  0  0  0  0  0  0  0  0
    1.4170   -2.4293    0.5771 H   0  0  0  0  0  0  0  0  0  0  0  0
   -0.3790   -3.2828    2.5819 H   0  0  0  0  0  0  0  0  0  0  0  0
   -0.7108   -3.3405    0.8445 H   0  0  0  0  0  0  0  0  0  0  0  0
   -2.4850   -1.8639    1.2953 H   0  0  0  0  0  0  0  0  0  0  0  0
   -1.7197   -1.2609    2.8202 H   0  0  0  0  0  0  0  0  0  0  0  0
    1.9595    2.6668   -1.1811 H   0  0  0  0  0  0  0  0  0  0  0  0
    4.2555    3.1007   -1.8682 H   0  0  0  0  0  0  0  0  0  0  0  0
  1  2  1  0
  2  3  2  0
  3  4  1  0
  4  5  2  0
  5  6  1  0
  6  7  2  0
  7  8  1  0
  8  9  1  0
  9 10  1  0
 10 11  2  0
 11 12  1  0
 12 13  2  0
 13 14  1  0
 14 15  1  0
 14 16  2  0
  8 17  2  0
 17 18  1  0
 18 19  1  0
 19 20  1  0
 20 21  1  0
  5 22  1  0
 22 23  2  0
 23  2  1  0
 18  6  1  0
 16 10  1  0
 21 17  1  0
  1 24  1  0
  1 25  1  0
  1 26  1  0
  3 27  1  0
  4 28  1  0
  7 29  1  0
  9 30  1  0
  9 31  1  0
 11 32  1  0
 12 33  1  0
 13 34  1  0
 16 35  1  0
 19 36  1  0
 19 37  1  0
 20 38  1  0
 20 39  1  0
 21 40  1  0
 21 41  1  0
 22 42  1  0
 23 43  1  0
M  CHG  1   8   1
M  END
$$$$
