
     RDKit          3D

 61 65  0  0  0  0  0  0  0  0999 V2000
   -8.5401    2.0020   -3.6907 C   0  0  0  0  0  0  0  0  0  0  0  0
   -7.5364    1.2329   -2.8832 C   0  0  0  0  0  0  0  0  0  0  0  0
   -7.8674    0.0003   -2.3174 C   0  0  0  0  0  0  0  0  0  0  0  0
   -6.9342   -0.6978   -1.5406 C   0  0  0  0  0  0  0  0  0  0  0  0
   -5.6444   -0.1884   -1.2979 C   0  0  0  0  0  0  0  0  0  0  0  0
   -4.6754   -0.9450   -0.4738 C   0  0  0  0  0  0  0  0  0  0  0  0
   -3.3030   -0.8307   -0.6192 C   0  0  0  0  0  0  0  0  0  0  0  0
   -2.4726   -1.5733    0.2265 C   0  0  0  0  0  0  0  0  0  0  0  0
   -1.0061   -1.4049    0.0590 C   0  0  0  0  0  0  0  0  0  0  0  0
   -0.3136   -2.3929   -0.1329 O   0  0  0  0  0  0  0  0  0  0  0  0
   -0.5882   -0.0899    0.1556 N   0  0  0  0  0  0  0  0  0  0  0  0
    0.7134    0.4127   -0.0421 C   0  0  0  0  0  0  0  0  0  0  0  0
    0.8984    1.7903    0.1467 C   0  0  0  0  0  0  0  0  0  0  0  0
    2.1519    2.3772   -0.0460 C   0  0  0  0  0  0  0  0  0  0  0  0
    3.2325    1.5796   -0.4249 C   0  0  0  0  0  0  0  0  0  0  0  0
    4.8214    2.3167   -0.7077 S   0  0  0  0  0  6  0  0  0  0  0  0
    4.6360    3.7541   -0.7516 O   0  0  0  0  0  0  0  0  0  0  0  0
    5.4682    1.6175   -1.7954 O   0  0  0  0  0  0  0  0  0  0  0  0
    5.5998    2.0242    0.7596 N   0  0  0  0  0  0  0  0  0  0  0  0
    6.6169    0.9880    0.7072 C   0  0  0  0  0  0  0  0  0  0  0  0
    6.3869   -0.2942    0.3172 O   0  0  0  0  0  0  0  0  0  0  0  0
    7.5488   -1.0317    0.4347 N   0  0  0  0  0  0  0  0  0  0  0  0
    8.4733   -0.1803    0.8946 C   0  0  0  0  0  0  0  0  0  0  0  0
    9.8606   -0.6473    1.1290 C   0  0  0  0  0  0  0  0  0  0  0  0
    7.9337    1.1236    1.0930 C   0  0  0  0  0  0  0  0  0  0  0  0
    8.6430    2.3233    1.5927 C   0  0  0  0  0  0  0  0  0  0  0  0
    3.0614    0.2098   -0.6300 C   0  0  0  0  0  0  0  0  0  0  0  0
    1.8029   -0.3703   -0.4322 C   0  0  0  0  0  0  0  0  0  0  0  0
   -3.0117   -2.4508    1.1905 C   0  0  0  0  0  0  0  0  0  0  0  0
   -2.2547   -3.2511    2.0832 C   0  0  0  0  0  0  0  0  0  0  0  0
   -2.8778   -4.0865    3.0084 C   0  0  0  0  0  0  0  0  0  0  0  0
   -4.2612   -4.1331    3.0595 C   0  0  0  0  0  0  0  0  0  0  0  0
   -5.0111   -3.3442    2.1851 C   0  0  0  0  0  0  0  0  0  0  0  0
   -4.4148   -2.5052    1.2533 C   0  0  0  0  0  0  0  0  0  0  0  0
   -5.2118   -1.7735    0.4553 N   0  0  0  0  0  0  0  0  0  0  0  0
   -5.3377    1.0663   -1.8577 C   0  0  0  0  0  0  0  0  0  0  0  0
   -6.2683    1.7681   -2.6354 C   0  0  0  0  0  0  0  0  0  0  0  0
   -8.0496    2.5071   -4.5323 H   0  0  0  0  0  0  0  0  0  0  0  0
   -9.0332    2.7527   -3.0602 H   0  0  0  0  0  0  0  0  0  0  0  0
   -9.3067    1.3373   -4.1102 H   0  0  0  0  0  0  0  0  0  0  0  0
   -8.8535   -0.4319   -2.4741 H   0  0  0  0  0  0  0  0  0  0  0  0
   -7.2245   -1.6596   -1.1179 H   0  0  0  0  0  0  0  0  0  0  0  0
   -2.8732   -0.2033   -1.3934 H   0  0  0  0  0  0  0  0  0  0  0  0
   -1.2870    0.5920    0.4270 H   0  0  0  0  0  0  0  0  0  0  0  0
    0.0684    2.4275    0.4422 H   0  0  0  0  0  0  0  0  0  0  0  0
    2.2708    3.4492    0.0946 H   0  0  0  0  0  0  0  0  0  0  0  0
    5.8663    2.9022    1.1969 H   0  0  0  0  0  0  0  0  0  0  0  0
   10.5124   -0.3161    0.3136 H   0  0  0  0  0  0  0  0  0  0  0  0
   10.2519   -0.2435    2.0684 H   0  0  0  0  0  0  0  0  0  0  0  0
    9.9133   -1.7406    1.1903 H   0  0  0  0  0  0  0  0  0  0  0  0
    8.1163    3.2454    1.3218 H   0  0  0  0  0  0  0  0  0  0  0  0
    8.7288    2.2844    2.6847 H   0  0  0  0  0  0  0  0  0  0  0  0
    9.6527    2.3857    1.1695 H   0  0  0  0  0  0  0  0  0  0  0  0
    3.8947   -0.4154   -0.9462 H   0  0  0  0  0  0  0  0  0  0  0  0
    1.7067   -1.4401   -0.5981 H   0  0  0  0  0  0  0  0  0  0  0  0
   -1.1674   -3.2382    2.0557 H   0  0  0  0  0  0  0  0  0  0  0  0
   -2.2808   -4.6982    3.6796 H   0  0  0  0  0  0  0  0  0  0  0  0
   -4.7623   -4.7810    3.7738 H   0  0  0  0  0  0  0  0  0  0  0  0
   -6.0964   -3.3857    2.2323 H   0  0  0  0  0  0  0  0  0  0  0  0
   -4.3714    1.5351   -1.6835 H   0  0  0  0  0  0  0  0  0  0  0  0
   -5.9947    2.7393   -3.0440 H   0  0  0  0  0  0  0  0  0  0  0  0
  1  2  1  0
  2  3  2  0
  3  4  1  0
  4  5  2  0
  5  6  1  0
  6  7  2  0
  7  8  1  0
  8  9  1  0
  9 10  2  0
  9 11  1  0
 11 12  1  0
 12 13  2  0
 13 14  1  0
 14 15  2  0
 15 16  1  0
 16 17  2  0
 16 18  2  0
 16 19  1  0
 19 20  1  0
 20 21  1  0
 21 22  1  0
 22 23  2  0
 23 24  1  0
 23 25  1  0
 25 26  1  0
 15 27  1  0
 27 28  2  0
  8 29  2  0
 29 30  1  0
 30 31  2  0
 31 32  1  0
 32 33  2  0
 33 34  1  0
 34 35  2  0
  5 36  1  0
 36 37  2  0
 37  2  1  0
 35  6  1  0
 28 12  1  0
 34 29  1  0
 25 20  2  0
  1 38  1  0
  1 39  1  0
  1 40  1  0
  3 41  1  0
  4 42  1  0
  7 43  1  0
 11 44  1  0
 13 45  1  0
 14 46  1  0
 19 47  1  0
 24 48  1  0
 24 49  1  0
 24 50  1  0
 26 51  1  0
 26 52  1  0
 26 53  1  0
 27 54  1  0
 28 55  1  0
 30 56  1  0
 31 57  1  0
 32 58  1  0
 33 59  1  0
 36 60  1  0
 37 61  1  0
M  END
$$$$
