
     RDKit          3D

 44 46  0  0  0  0  0  0  0  0999 V2000
   -2.6742   -4.3847    1.2967 C   0  0  0  0  0  0  0  0  0  0  0  0
   -2.3535   -2.9238    1.1800 C   0  0  0  0  0  0  0  0  0  0  0  0
   -3.3117   -2.0246    0.7120 C   0  0  0  0  0  0  0  0  0  0  0  0
   -3.0240   -0.6552    0.5617 C   0  0  0  0  0  0  0  0  0  0  0  0
   -4.1408    0.2229    0.0592 C   0  0  0  0  0  0  0  0  0  0  0  0
   -1.7316   -0.1799    0.9060 C   0  0  0  0  0  0  0  0  0  0  0  0
   -1.3758    1.5812    0.7629 S   0  0  0  0  0  6  0  0  0  0  0  0
   -0.1073    1.9121    1.3755 O   0  0  0  0  0  0  0  0  0  0  0  0
   -2.5570    2.3179    1.1647 O   0  0  0  0  0  0  0  0  0  0  0  0
   -1.2368    1.7980   -0.9161 N   0  0  0  0  0  0  0  0  0  0  0  0
   -0.0682    1.2906   -1.5475 C   0  0  0  0  0  0  0  0  0  0  0  0
   -0.1194    0.0370   -2.1562 C   0  0  0  0  0  0  0  0  0  0  0  0
    1.0314   -0.5035   -2.7282 C   0  0  0  0  0  0  0  0  0  0  0  0
    2.2281    0.2054   -2.6686 C   0  0  0  0  0  0  0  0  0  0  0  0
    3.3278   -0.3892   -3.2242 O   0  0  0  0  0  0  0  0  0  0  0  0
    2.2930    1.4612   -2.0516 C   0  0  0  0  0  0  0  0  0  0  0  0
    3.8360    2.3552   -1.9381 S   0  0  0  0  0  0  0  0  0  0  0  0
    4.0661    2.3557   -0.2076 C   0  0  0  0  0  0  0  0  0  0  0  0
    3.9236    1.2366    0.5688 N   0  0  0  0  0  0  0  0  0  0  0  0
    4.1068    1.6967    1.7836 C   0  0  0  0  0  0  0  0  0  0  0  0
    4.3671    3.0290    1.7292 N   0  0  0  0  0  0  0  0  0  0  0  0
    4.3694    3.4722    0.4618 N   0  0  0  0  0  0  0  0  0  0  0  0
    1.1260    2.0095   -1.5046 C   0  0  0  0  0  0  0  0  0  0  0  0
   -0.7416   -1.0883    1.3568 C   0  0  0  0  0  0  0  0  0  0  0  0
    0.6691   -0.7035    1.7175 C   0  0  0  0  0  0  0  0  0  0  0  0
   -1.0757   -2.4509    1.4822 C   0  0  0  0  0  0  0  0  0  0  0  0
   -2.0597   -4.8614    2.0675 H   0  0  0  0  0  0  0  0  0  0  0  0
   -2.4922   -4.8850    0.3409 H   0  0  0  0  0  0  0  0  0  0  0  0
   -3.7214   -4.5318    1.5810 H   0  0  0  0  0  0  0  0  0  0  0  0
   -4.3041   -2.3976    0.4597 H   0  0  0  0  0  0  0  0  0  0  0  0
   -3.7985    0.8949   -0.7317 H   0  0  0  0  0  0  0  0  0  0  0  0
   -4.9459   -0.3749   -0.3834 H   0  0  0  0  0  0  0  0  0  0  0  0
   -4.5765    0.7945    0.8837 H   0  0  0  0  0  0  0  0  0  0  0  0
   -1.5352    2.7382   -1.1734 H   0  0  0  0  0  0  0  0  0  0  0  0
   -1.0483   -0.5262   -2.1860 H   0  0  0  0  0  0  0  0  0  0  0  0
    1.0010   -1.4798   -3.2036 H   0  0  0  0  0  0  0  0  0  0  0  0
    4.0915    0.1824   -3.0217 H   0  0  0  0  0  0  0  0  0  0  0  0
    4.0595    1.1353    2.7055 H   0  0  0  0  0  0  0  0  0  0  0  0
    4.5445    3.6796    2.4863 H   0  0  0  0  0  0  0  0  0  0  0  0
    1.1581    2.9758   -1.0071 H   0  0  0  0  0  0  0  0  0  0  0  0
    1.1601   -0.1904    0.8867 H   0  0  0  0  0  0  0  0  0  0  0  0
    0.6794   -0.0859    2.6204 H   0  0  0  0  0  0  0  0  0  0  0  0
    1.2831   -1.5855    1.9334 H   0  0  0  0  0  0  0  0  0  0  0  0
   -0.3221   -3.1597    1.8252 H   0  0  0  0  0  0  0  0  0  0  0  0
  1  2  1  0
  2  3  2  0
  3  4  1  0
  4  5  1  0
  4  6  2  0
  6  7  1  0
  7  8  2  0
  7  9  2  0
  7 10  1  0
 10 11  1  0
 11 12  2  0
 12 13  1  0
 13 14  2  0
 14 15  1  0
 14 16  1  0
 16 17  1  0
 17 18  1  0
 18 19  1  0
 19 20  2  0
 20 21  1  0
 21 22  1  0
 16 23  2  0
  6 24  1  0
 24 25  1  0
 24 26  2  0
 26  2  1  0
 23 11  1  0
 22 18  2  0
  1 27  1  0
  1 28  1  0
  1 29  1  0
  3 30  1  0
  5 31  1  0
  5 32  1  0
  5 33  1  0
 10 34  1  0
 12 35  1  0
 13 36  1  0
 15 37  1  0
 20 38  1  0
 21 39  1  0
 23 40  1  0
 25 41  1  0
 25 42  1  0
 25 43  1  0
 26 44  1  0
M  END
$$$$
