
     RDKit          3D

 50 53  0  0  0  0  0  0  0  0999 V2000
   -0.8065    2.6711    3.8227 C   0  0  0  0  0  0  0  0  0  0  0  0
   -1.1301    1.4654    2.9540 C   0  0  0  0  0  0  0  0  0  0  0  0
   -0.6734    1.6464    1.5133 C   0  0  0  0  0  0  0  0  0  0  0  0
   -0.0754    2.6671    1.1665 O   0  0  0  0  0  0  0  0  0  0  0  0
   -0.9423    0.6129    0.6227 N   0  0  0  0  0  0  0  0  0  0  0  0
   -1.6715   -0.6141    0.9601 C   0  0  0  0  0  0  0  0  0  0  0  0
   -3.0213   -0.7002    0.2849 C   0  0  0  0  0  0  0  0  0  0  0  0
   -4.0185    0.2524    0.5340 C   0  0  0  0  0  0  0  0  0  0  0  0
   -5.2665    0.1570   -0.0879 C   0  0  0  0  0  0  0  0  0  0  0  0
   -5.5384   -0.8869   -0.9778 C   0  0  0  0  0  0  0  0  0  0  0  0
   -6.8867   -1.0101   -1.6232 C   0  0  0  0  0  0  0  0  0  0  0  0
   -4.5495   -1.8456   -1.2205 C   0  0  0  0  0  0  0  0  0  0  0  0
   -3.3018   -1.7508   -0.5990 C   0  0  0  0  0  0  0  0  0  0  0  0
   -0.4513    0.7376   -0.7545 C   0  0  0  0  0  0  0  0  0  0  0  0
    0.9325    0.1606   -0.8768 C   0  0  0  0  0  0  0  0  0  0  0  0
    2.0467    0.8732   -0.6269 C   0  0  0  0  0  0  0  0  0  0  0  0
    3.3767    0.2900   -0.7933 C   0  0  0  0  0  0  0  0  0  0  0  0
    4.5324    1.0267   -0.5132 C   0  0  0  0  0  0  0  0  0  0  0  0
    5.7484    0.4036   -0.7039 C   0  0  0  0  0  0  0  0  0  0  0  0
    5.8400   -0.8949   -1.1512 C   0  0  0  0  0  0  0  0  0  0  0  0
    4.7225   -1.6505   -1.4348 C   0  0  0  0  0  0  0  0  0  0  0  0
    3.4802   -1.0412   -1.2506 C   0  0  0  0  0  0  0  0  0  0  0  0
    2.3089   -1.7555   -1.5252 N   0  0  0  0  0  0  0  0  0  0  0  0
    1.0475   -1.2429   -1.3747 C   0  0  0  0  0  0  0  0  0  0  0  0
    0.0605   -1.9237   -1.6384 O   0  0  0  0  0  0  0  0  0  0  0  0
    7.1292   -1.3118   -1.2704 O   0  0  0  0  0  0  0  0  0  0  0  0
    7.8397   -0.1250   -0.8581 C   0  0  0  0  0  0  0  0  0  0  0  0
    6.9689    0.9636   -0.4873 O   0  0  0  0  0  0  0  0  0  0  0  0
   -1.2947    3.5735    3.4398 H   0  0  0  0  0  0  0  0  0  0  0  0
   -1.1512    2.5045    4.8477 H   0  0  0  0  0  0  0  0  0  0  0  0
    0.2722    2.8582    3.8514 H   0  0  0  0  0  0  0  0  0  0  0  0
   -0.6262    0.5878    3.3729 H   0  0  0  0  0  0  0  0  0  0  0  0
   -2.2119    1.3053    2.9724 H   0  0  0  0  0  0  0  0  0  0  0  0
   -1.0394   -1.4653    0.6863 H   0  0  0  0  0  0  0  0  0  0  0  0
   -1.8313   -0.7072    2.0372 H   0  0  0  0  0  0  0  0  0  0  0  0
   -3.8319    1.0825    1.2098 H   0  0  0  0  0  0  0  0  0  0  0  0
   -6.0243    0.9076    0.1259 H   0  0  0  0  0  0  0  0  0  0  0  0
   -7.3862   -0.0375   -1.6821 H   0  0  0  0  0  0  0  0  0  0  0  0
   -7.5163   -1.6939   -1.0457 H   0  0  0  0  0  0  0  0  0  0  0  0
   -6.7932   -1.3898   -2.6462 H   0  0  0  0  0  0  0  0  0  0  0  0
   -4.7407   -2.6725   -1.9011 H   0  0  0  0  0  0  0  0  0  0  0  0
   -2.5441   -2.5013   -0.8203 H   0  0  0  0  0  0  0  0  0  0  0  0
   -0.4305    1.7982   -1.0350 H   0  0  0  0  0  0  0  0  0  0  0  0
   -1.1552    0.2702   -1.4504 H   0  0  0  0  0  0  0  0  0  0  0  0
    1.9813    1.9037   -0.2873 H   0  0  0  0  0  0  0  0  0  0  0  0
    4.4882    2.0511   -0.1597 H   0  0  0  0  0  0  0  0  0  0  0  0
    4.8211   -2.6707   -1.7855 H   0  0  0  0  0  0  0  0  0  0  0  0
    2.3596   -2.7070   -1.8628 H   0  0  0  0  0  0  0  0  0  0  0  0
    8.4727   -0.3759    0.0007 H   0  0  0  0  0  0  0  0  0  0  0  0
    8.4811    0.2043   -1.6839 H   0  0  0  0  0  0  0  0  0  0  0  0
  1  2  1  0
  2  3  1  0
  3  4  2  0
  3  5  1  0
  5  6  1  0
  6  7  1  0
  7  8  2  0
  8  9  1  0
  9 10  2  0
 10 11  1  0
 10 12  1  0
 12 13  2  0
  5 14  1  0
 14 15  1  0
 15 16  2  0
 16 17  1  0
 17 18  2  0
 18 19  1  0
 19 20  2  0
 20 21  1  0
 21 22  2  0
 22 23  1  0
 23 24  1  0
 24 25  2  0
 20 26  1  0
 26 27  1  0
 27 28  1  0
 13  7  1  0
 24 15  1  0
 22 17  1  0
 28 19  1  0
  1 29  1  0
  1 30  1  0
  1 31  1  0
  2 32  1  0
  2 33  1  0
  6 34  1  0
  6 35  1  0
  8 36  1  0
  9 37  1  0
 11 38  1  0
 11 39  1  0
 11 40  1  0
 12 41  1  0
 13 42  1  0
 14 43  1  0
 14 44  1  0
 16 45  1  0
 18 46  1  0
 21 47  1  0
 23 48  1  0
 27 49  1  0
 27 50  1  0
M  END
$$$$
