
     RDKit          3D

 42 46  0  0  0  0  0  0  0  0999 V2000
    4.8074    2.3006   -1.0224 C   0  0  0  0  0  0  0  0  0  0  0  0
    5.0867    0.9371   -0.9562 C   0  0  0  0  0  0  0  0  0  0  0  0
    4.0975    0.0231   -0.5639 C   0  0  0  0  0  0  0  0  0  0  0  0
    4.3682   -1.3478   -0.4955 C   0  0  0  0  0  0  0  0  0  0  0  0
    3.3772   -2.2488   -0.1047 C   0  0  0  0  0  0  0  0  0  0  0  0
    2.0917   -1.8020    0.2279 C   0  0  0  0  0  0  0  0  0  0  0  0
    1.1035   -2.7092    0.6189 C   0  0  0  0  0  0  0  0  0  0  0  0
   -0.1731   -2.2642    0.9521 C   0  0  0  0  0  0  0  0  0  0  0  0
   -0.4991   -0.8976    0.9023 C   0  0  0  0  0  0  0  0  0  0  0  0
   -1.9126   -0.4921    1.2919 C   0  0  0  0  0  0  0  0  0  0  0  0
   -2.7182    0.0176    0.1701 N   0  0  0  0  0  0  0  0  0  0  0  0
   -4.0068    0.5467    0.6645 C   0  0  0  0  0  0  0  0  0  0  0  0
   -4.8916    1.0386   -0.4911 C   0  0  0  0  0  0  0  0  0  0  0  0
   -5.1436   -0.0139   -1.4306 O   0  0  0  0  0  0  0  0  0  0  0  0
   -3.9028   -0.5015   -1.9591 C   0  0  0  0  0  0  0  0  0  0  0  0
   -2.9890   -1.0280   -0.8403 C   0  0  0  0  0  0  0  0  0  0  0  0
    0.4897    0.0444    0.5029 C   0  0  0  0  0  0  0  0  0  0  0  0
    0.2519    1.4321    0.4190 C   0  0  0  0  0  0  0  0  0  0  0  0
    1.2478    2.3301    0.0258 C   0  0  0  0  0  0  0  0  0  0  0  0
    2.5270    1.8755   -0.3011 C   0  0  0  0  0  0  0  0  0  0  0  0
    3.5353    2.7670   -0.6971 C   0  0  0  0  0  0  0  0  0  0  0  0
    2.8035    0.4920   -0.2317 C   0  0  0  0  0  0  0  0  0  0  0  0
    1.7892   -0.4204    0.1680 C   0  0  0  0  0  0  0  0  0  0  0  0
    5.5810    3.0000   -1.3281 H   0  0  0  0  0  0  0  0  0  0  0  0
    6.0852    0.5917   -1.2144 H   0  0  0  0  0  0  0  0  0  0  0  0
    5.3553   -1.7289   -0.7467 H   0  0  0  0  0  0  0  0  0  0  0  0
    3.6212   -3.3081   -0.0625 H   0  0  0  0  0  0  0  0  0  0  0  0
    1.3187   -3.7742    0.6690 H   0  0  0  0  0  0  0  0  0  0  0  0
   -0.9198   -2.9966    1.2516 H   0  0  0  0  0  0  0  0  0  0  0  0
   -1.8234    0.2771    2.0711 H   0  0  0  0  0  0  0  0  0  0  0  0
   -2.4252   -1.3343    1.7770 H   0  0  0  0  0  0  0  0  0  0  0  0
   -3.8287    1.3832    1.3500 H   0  0  0  0  0  0  0  0  0  0  0  0
   -4.5454   -0.2355    1.2154 H   0  0  0  0  0  0  0  0  0  0  0  0
   -4.4324    1.8879   -1.0113 H   0  0  0  0  0  0  0  0  0  0  0  0
   -5.8586    1.3715   -0.1008 H   0  0  0  0  0  0  0  0  0  0  0  0
   -4.1375   -1.3119   -2.6567 H   0  0  0  0  0  0  0  0  0  0  0  0
   -3.4133    0.2971   -2.5297 H   0  0  0  0  0  0  0  0  0  0  0  0
   -2.0565   -1.3717   -1.3003 H   0  0  0  0  0  0  0  0  0  0  0  0
   -3.4732   -1.8905   -0.3639 H   0  0  0  0  0  0  0  0  0  0  0  0
   -0.7291    1.8400    0.6511 H   0  0  0  0  0  0  0  0  0  0  0  0
    1.0070    3.3894   -0.0247 H   0  0  0  0  0  0  0  0  0  0  0  0
    3.3350    3.8345   -0.7554 H   0  0  0  0  0  0  0  0  0  0  0  0
  1  2  2  0
  2  3  1  0
  3  4  2  0
  4  5  1  0
  5  6  2  0
  6  7  1  0
  7  8  2  0
  8  9  1  0
  9 10  1  0
 10 11  1  0
 11 12  1  0
 12 13  1  0
 13 14  1  0
 14 15  1  0
 15 16  1  0
  9 17  2  0
 17 18  1  0
 18 19  2  0
 19 20  1  0
 20 21  2  0
 20 22  1  0
 22 23  2  0
 21  1  1  0
 22  3  1  0
 23  6  1  0
 16 11  1  0
 23 17  1  0
  1 24  1  0
  2 25  1  0
  4 26  1  0
  5 27  1  0
  7 28  1  0
  8 29  1  0
 10 30  1  0
 10 31  1  0
 12 32  1  0
 12 33  1  0
 13 34  1  0
 13 35  1  0
 15 36  1  0
 15 37  1  0
 16 38  1  0
 16 39  1  0
 18 40  1  0
 19 41  1  0
 21 42  1  0
M  END
$$$$
