
     RDKit          3D

 53 52  0  0  0  0  0  0  0  0999 V2000
   -5.9129    3.1379   -0.2675 C   0  0  0  0  0  0  0  0  0  0  0  0
   -6.6025    2.0939   -1.1452 C   0  0  0  0  0  0  0  0  0  0  0  0
   -7.7429    1.4213   -0.3820 C   0  0  0  0  0  0  0  0  0  0  0  0
   -5.6230    1.0789   -1.7704 C   0  0  0  0  0  0  0  0  0  0  0  0
   -4.9835    0.0495   -0.8341 C   0  0  0  0  0  0  0  0  0  0  0  0
   -4.0447    0.6199    0.1063 N   0  0  0  0  0  0  0  0  0  0  0  0
   -2.7624    0.9720   -0.2596 C   0  0  0  0  0  0  0  0  0  0  0  0
   -2.3221    0.8240   -1.3936 O   0  0  0  0  0  0  0  0  0  0  0  0
   -1.9809    1.6102    0.8692 C   0  0  0  0  0  0  0  0  0  0  0  0
   -0.4784    1.6645    0.6215 C   0  0  0  0  0  0  0  0  0  0  0  0
    0.3749    0.1191    1.1039 S   0  0  0  0  0  0  0  0  0  0  0  0
    0.2079   -0.8254   -0.4552 C   0  0  0  0  0  0  0  0  0  0  0  0
    1.1299   -2.0387   -0.4486 C   0  0  0  0  0  0  0  0  0  0  0  0
    2.5786   -1.6737   -0.7081 C   0  0  0  0  0  0  0  0  0  0  0  0
    2.9217   -0.7163   -1.3934 O   0  0  0  0  0  0  0  0  0  0  0  0
    3.4735   -2.5700   -0.1584 N   0  0  0  0  0  0  0  0  0  0  0  0
    4.9050   -2.3600   -0.2450 C   0  0  0  0  0  0  0  0  0  0  0  0
    5.3965   -1.4035    0.8424 C   0  0  0  0  0  0  0  0  0  0  0  0
    6.8942   -1.0673    0.7301 C   0  0  0  0  0  0  0  0  0  0  0  0
    7.7836   -2.2975    0.9155 C   0  0  0  0  0  0  0  0  0  0  0  0
    7.2658   -0.0006    1.7630 C   0  0  0  0  0  0  0  0  0  0  0  0
   -6.6077    3.9513   -0.0301 H   0  0  0  0  0  0  0  0  0  0  0  0
   -5.5730    2.7181    0.6830 H   0  0  0  0  0  0  0  0  0  0  0  0
   -5.0520    3.5776   -0.7814 H   0  0  0  0  0  0  0  0  0  0  0  0
   -7.0537    2.6393   -1.9855 H   0  0  0  0  0  0  0  0  0  0  0  0
   -8.2366    0.6666   -1.0030 H   0  0  0  0  0  0  0  0  0  0  0  0
   -8.4980    2.1601   -0.0922 H   0  0  0  0  0  0  0  0  0  0  0  0
   -7.3892    0.9361    0.5332 H   0  0  0  0  0  0  0  0  0  0  0  0
   -6.1747    0.5195   -2.5378 H   0  0  0  0  0  0  0  0  0  0  0  0
   -4.8383    1.6287   -2.3052 H   0  0  0  0  0  0  0  0  0  0  0  0
   -5.7390   -0.4945   -0.2598 H   0  0  0  0  0  0  0  0  0  0  0  0
   -4.4438   -0.6890   -1.4388 H   0  0  0  0  0  0  0  0  0  0  0  0
   -4.3615    0.8099    1.0482 H   0  0  0  0  0  0  0  0  0  0  0  0
   -2.3558    2.6389    0.9478 H   0  0  0  0  0  0  0  0  0  0  0  0
   -2.2096    1.1104    1.8178 H   0  0  0  0  0  0  0  0  0  0  0  0
   -0.0550    2.4456    1.2626 H   0  0  0  0  0  0  0  0  0  0  0  0
   -0.2260    1.9323   -0.4092 H   0  0  0  0  0  0  0  0  0  0  0  0
   -0.8266   -1.1731   -0.5259 H   0  0  0  0  0  0  0  0  0  0  0  0
    0.4192   -0.1742   -1.3087 H   0  0  0  0  0  0  0  0  0  0  0  0
    0.8346   -2.7123   -1.2628 H   0  0  0  0  0  0  0  0  0  0  0  0
    1.0315   -2.6028    0.4862 H   0  0  0  0  0  0  0  0  0  0  0  0
    3.1333   -3.2465    0.5119 H   0  0  0  0  0  0  0  0  0  0  0  0
    5.3690   -3.3452   -0.1408 H   0  0  0  0  0  0  0  0  0  0  0  0
    5.1478   -1.9674   -1.2385 H   0  0  0  0  0  0  0  0  0  0  0  0
    4.8188   -0.4715    0.7863 H   0  0  0  0  0  0  0  0  0  0  0  0
    5.1813   -1.8344    1.8291 H   0  0  0  0  0  0  0  0  0  0  0  0
    7.0873   -0.6510   -0.2667 H   0  0  0  0  0  0  0  0  0  0  0  0
    7.6276   -3.0264    0.1146 H   0  0  0  0  0  0  0  0  0  0  0  0
    8.8424   -2.0173    0.8959 H   0  0  0  0  0  0  0  0  0  0  0  0
    7.5829   -2.7920    1.8719 H   0  0  0  0  0  0  0  0  0  0  0  0
    8.3208    0.2791    1.6717 H   0  0  0  0  0  0  0  0  0  0  0  0
    7.0973   -0.3599    2.7840 H   0  0  0  0  0  0  0  0  0  0  0  0
    6.6682    0.9058    1.6191 H   0  0  0  0  0  0  0  0  0  0  0  0
  1  2  1  0
  2  3  1  0
  2  4  1  0
  4  5  1  0
  5  6  1  0
  6  7  1  0
  7  8  2  0
  7  9  1  0
  9 10  1  0
 10 11  1  0
 11 12  1  0
 12 13  1  0
 13 14  1  0
 14 15  2  0
 14 16  1  0
 16 17  1  0
 17 18  1  0
 18 19  1  0
 19 20  1  0
 19 21  1  0
  1 22  1  0
  1 23  1  0
  1 24  1  0
  2 25  1  0
  3 26  1  0
  3 27  1  0
  3 28  1  0
  4 29  1  0
  4 30  1  0
  5 31  1  0
  5 32  1  0
  6 33  1  0
  9 34  1  0
  9 35  1  0
 10 36  1  0
 10 37  1  0
 12 38  1  0
 12 39  1  0
 13 40  1  0
 13 41  1  0
 16 42  1  0
 17 43  1  0
 17 44  1  0
 18 45  1  0
 18 46  1  0
 19 47  1  0
 20 48  1  0
 20 49  1  0
 20 50  1  0
 21 51  1  0
 21 52  1  0
 21 53  1  0
M  END
$$$$
