
     RDKit          3D

 61 66  0  0  0  0  0  0  0  0999 V2000
    9.0191   -0.6740    1.4726 F   0  0  0  0  0  0  0  0  0  0  0  0
    8.1753    0.1709    0.8149 C   0  0  0  0  0  0  0  0  0  0  0  0
    7.8854    1.1654    1.7001 F   0  0  0  0  0  0  0  0  0  0  0  0
    8.9211    0.7510   -0.1664 F   0  0  0  0  0  0  0  0  0  0  0  0
    6.9467   -0.5151    0.2723 C   0  0  0  0  0  0  0  0  0  0  0  0
    6.9382   -1.8968    0.0323 C   0  0  0  0  0  0  0  0  0  0  0  0
    5.7999   -2.5191   -0.4827 C   0  0  0  0  0  0  0  0  0  0  0  0
    4.6597   -1.7678   -0.7704 C   0  0  0  0  0  0  0  0  0  0  0  0
    4.6454   -0.3847   -0.5478 C   0  0  0  0  0  0  0  0  0  0  0  0
    3.4143    0.4390   -0.8710 C   0  0  0  0  0  0  0  0  0  0  0  0
    2.8909    1.1649    0.2969 N   0  0  0  0  0  0  0  0  0  0  0  0
    1.8745    2.1638   -0.0916 C   0  0  0  0  0  0  0  0  0  0  0  0
    0.4222    1.6456   -0.1667 C   0  0  0  0  0  0  0  0  0  0  0  0
   -0.0021    0.9382    1.0627 N   0  0  0  0  0  0  0  0  0  0  0  0
   -0.9573   -0.0696    0.9197 C   0  0  0  0  0  0  0  0  0  0  0  0
   -0.6651   -1.2838    1.3151 N   0  0  0  0  0  0  0  0  0  0  0  0
   -1.5861   -2.3359    1.1470 C   0  0  0  0  0  0  0  0  0  0  0  0
   -1.2207   -3.6120    1.5805 C   0  0  0  0  0  0  0  0  0  0  0  0
   -2.0920   -4.6942    1.4267 C   0  0  0  0  0  0  0  0  0  0  0  0
   -3.3419   -4.5090    0.8339 C   0  0  0  0  0  0  0  0  0  0  0  0
   -3.7282   -3.2422    0.3944 C   0  0  0  0  0  0  0  0  0  0  0  0
   -2.8464   -2.1689    0.5554 C   0  0  0  0  0  0  0  0  0  0  0  0
   -3.1608   -0.8588    0.1586 N   0  0  0  0  0  0  0  0  0  0  0  0
   -4.3117   -0.3725   -0.4154 C   0  0  0  0  0  0  0  0  0  0  0  0
   -4.1892    0.9978   -0.5527 C   0  0  0  0  0  0  0  0  0  0  0  0
   -5.2274    1.8602   -1.0981 C   0  0  0  0  0  0  0  0  0  0  0  0
   -6.5844    1.6058   -0.8527 C   0  0  0  0  0  0  0  0  0  0  0  0
   -7.5713    2.4479   -1.3733 C   0  0  0  0  0  0  0  0  0  0  0  0
   -7.2115    3.5520   -2.1438 C   0  0  0  0  0  0  0  0  0  0  0  0
   -5.8656    3.8170   -2.3928 C   0  0  0  0  0  0  0  0  0  0  0  0
   -4.8781    2.9766   -1.8707 C   0  0  0  0  0  0  0  0  0  0  0  0
   -2.8964    1.3367   -0.0673 C   0  0  0  0  0  0  0  0  0  0  0  0
   -2.2688    0.1733    0.3395 C   0  0  0  0  0  0  0  0  0  0  0  0
    1.0932    0.7370    2.0351 C   0  0  0  0  0  0  0  0  0  0  0  0
    2.3562    0.2241    1.3178 C   0  0  0  0  0  0  0  0  0  0  0  0
    5.7969    0.2322   -0.0312 C   0  0  0  0  0  0  0  0  0  0  0  0
    7.8206   -2.4970    0.2501 H   0  0  0  0  0  0  0  0  0  0  0  0
    5.8003   -3.5926   -0.6597 H   0  0  0  0  0  0  0  0  0  0  0  0
    3.7794   -2.2709   -1.1670 H   0  0  0  0  0  0  0  0  0  0  0  0
    2.6352   -0.1886   -1.3225 H   0  0  0  0  0  0  0  0  0  0  0  0
    3.7200    1.1520   -1.6484 H   0  0  0  0  0  0  0  0  0  0  0  0
    2.1419    2.6484   -1.0392 H   0  0  0  0  0  0  0  0  0  0  0  0
    1.9118    2.9691    0.6544 H   0  0  0  0  0  0  0  0  0  0  0  0
   -0.2389    2.5009   -0.3382 H   0  0  0  0  0  0  0  0  0  0  0  0
    0.3350    0.9746   -1.0307 H   0  0  0  0  0  0  0  0  0  0  0  0
   -0.2480   -3.7595    2.0428 H   0  0  0  0  0  0  0  0  0  0  0  0
   -1.7935   -5.6811    1.7710 H   0  0  0  0  0  0  0  0  0  0  0  0
   -4.0175   -5.3540    0.7180 H   0  0  0  0  0  0  0  0  0  0  0  0
   -4.7063   -3.1232   -0.0596 H   0  0  0  0  0  0  0  0  0  0  0  0
   -5.1313   -1.0278   -0.6721 H   0  0  0  0  0  0  0  0  0  0  0  0
   -6.8877    0.7598   -0.2408 H   0  0  0  0  0  0  0  0  0  0  0  0
   -8.6202    2.2429   -1.1719 H   0  0  0  0  0  0  0  0  0  0  0  0
   -7.9796    4.2064   -2.5490 H   0  0  0  0  0  0  0  0  0  0  0  0
   -5.5831    4.6777   -2.9939 H   0  0  0  0  0  0  0  0  0  0  0  0
   -3.8347    3.1964   -2.0848 H   0  0  0  0  0  0  0  0  0  0  0  0
   -2.4799    2.3321    0.0003 H   0  0  0  0  0  0  0  0  0  0  0  0
    1.3016    1.6902    2.5377 H   0  0  0  0  0  0  0  0  0  0  0  0
    0.8021    0.0430    2.8330 H   0  0  0  0  0  0  0  0  0  0  0  0
    3.1402    0.0437    2.0624 H   0  0  0  0  0  0  0  0  0  0  0  0
    2.1101   -0.7459    0.8663 H   0  0  0  0  0  0  0  0  0  0  0  0
    5.7884    1.3081    0.1478 H   0  0  0  0  0  0  0  0  0  0  0  0
  1  2  1  0
  2  3  1  0
  2  4  1  0
  2  5  1  0
  5  6  2  0
  6  7  1  0
  7  8  2  0
  8  9  1  0
  9 10  1  0
 10 11  1  0
 11 12  1  0
 12 13  1  0
 13 14  1  0
 14 15  1  0
 15 16  2  0
 16 17  1  0
 17 18  2  0
 18 19  1  0
 19 20  2  0
 20 21  1  0
 21 22  2  0
 22 23  1  0
 23 24  1  0
 24 25  2  0
 25 26  1  0
 26 27  2  0
 27 28  1  0
 28 29  2  0
 29 30  1  0
 30 31  2  0
 25 32  1  0
 32 33  2  0
 14 34  1  0
 34 35  1  0
  9 36  2  0
 36  5  1  0
 35 11  1  0
 33 15  1  0
 22 17  1  0
 33 23  1  0
 31 26  1  0
  6 37  1  0
  7 38  1  0
  8 39  1  0
 10 40  1  0
 10 41  1  0
 12 42  1  0
 12 43  1  0
 13 44  1  0
 13 45  1  0
 18 46  1  0
 19 47  1  0
 20 48  1  0
 21 49  1  0
 24 50  1  0
 27 51  1  0
 28 52  1  0
 29 53  1  0
 30 54  1  0
 31 55  1  0
 32 56  1  0
 34 57  1  0
 34 58  1  0
 35 59  1  0
 35 60  1  0
 36 61  1  0
M  END
$$$$
