
     RDKit          3D

 42 44  0  0  0  0  0  0  0  0999 V2000
   -4.1328   -1.5290    1.6910 C   0  0  0  0  0  0  0  0  0  0  0  0
   -4.0971   -0.9409    0.2799 C   0  0  0  0  0  0  0  0  0  0  0  0
   -4.2177   -2.0315   -0.7852 C   0  0  0  0  0  0  0  0  0  0  0  0
   -2.9075   -0.1118    0.0711 N   0  0  0  0  0  0  0  0  0  0  0  0
   -1.6147   -0.5822    0.1203 C   0  0  0  0  0  0  0  0  0  0  0  0
   -0.7593    0.4689   -0.1229 C   0  0  0  0  0  0  0  0  0  0  0  0
    0.6696    0.4052   -0.1677 C   0  0  0  0  0  0  0  0  0  0  0  0
    1.4220   -0.6753    0.1040 C   0  0  0  0  0  0  0  0  0  0  0  0
    2.8873   -0.6787    0.0438 C   0  0  0  0  0  0  0  0  0  0  0  0
    3.5861   -0.1024   -1.0159 C   0  0  0  0  0  0  0  0  0  0  0  0
    4.9750   -0.1567   -1.0358 C   0  0  0  0  0  0  0  0  0  0  0  0
    5.6548   -0.7656   -0.0387 N   0  0  0  0  0  4  0  0  0  0  0  0
    7.1259   -0.8137   -0.0904 C   0  0  0  0  0  0  0  0  0  0  0  0
    4.9978   -1.3506    0.9874 C   0  0  0  0  0  0  0  0  0  0  0  0
    3.6089   -1.3226    1.0468 C   0  0  0  0  0  0  0  0  0  0  0  0
   -1.5634    1.6326   -0.3303 C   0  0  0  0  0  0  0  0  0  0  0  0
   -1.2773    2.9878   -0.6141 C   0  0  0  0  0  0  0  0  0  0  0  0
   -2.3204    3.9065   -0.7635 C   0  0  0  0  0  0  0  0  0  0  0  0
   -3.6414    3.4970   -0.6349 C   0  0  0  0  0  0  0  0  0  0  0  0
   -3.9558    2.1646   -0.3542 C   0  0  0  0  0  0  0  0  0  0  0  0
   -2.9036    1.2436   -0.2041 C   0  0  0  0  0  0  0  0  0  0  0  0
   -3.3105   -2.2329    1.8600 H   0  0  0  0  0  0  0  0  0  0  0  0
   -4.0543   -0.7384    2.4453 H   0  0  0  0  0  0  0  0  0  0  0  0
   -5.0723   -2.0653    1.8615 H   0  0  0  0  0  0  0  0  0  0  0  0
   -4.9695   -0.2878    0.1769 H   0  0  0  0  0  0  0  0  0  0  0  0
   -4.1994   -1.5979   -1.7910 H   0  0  0  0  0  0  0  0  0  0  0  0
   -5.1592   -2.5791   -0.6714 H   0  0  0  0  0  0  0  0  0  0  0  0
   -3.3993   -2.7565   -0.7200 H   0  0  0  0  0  0  0  0  0  0  0  0
   -1.4239   -1.6274    0.3212 H   0  0  0  0  0  0  0  0  0  0  0  0
    1.1671    1.3344   -0.4362 H   0  0  0  0  0  0  0  0  0  0  0  0
    0.9555   -1.6089    0.4096 H   0  0  0  0  0  0  0  0  0  0  0  0
    3.0580    0.3807   -1.8362 H   0  0  0  0  0  0  0  0  0  0  0  0
    5.5515    0.2792   -1.8470 H   0  0  0  0  0  0  0  0  0  0  0  0
    7.4947    0.1292   -0.5028 H   0  0  0  0  0  0  0  0  0  0  0  0
    7.4036   -1.6556   -0.7295 H   0  0  0  0  0  0  0  0  0  0  0  0
    7.5216   -0.9466    0.9195 H   0  0  0  0  0  0  0  0  0  0  0  0
    5.5901   -1.8405    1.7553 H   0  0  0  0  0  0  0  0  0  0  0  0
    3.0969   -1.7965    1.8828 H   0  0  0  0  0  0  0  0  0  0  0  0
   -0.2514    3.3266   -0.7161 H   0  0  0  0  0  0  0  0  0  0  0  0
   -2.0965    4.9479   -0.9808 H   0  0  0  0  0  0  0  0  0  0  0  0
   -4.4440    4.2218   -0.7534 H   0  0  0  0  0  0  0  0  0  0  0  0
   -4.9953    1.8683   -0.2577 H   0  0  0  0  0  0  0  0  0  0  0  0
  1  2  1  0
  2  3  1  0
  2  4  1  0
  4  5  1  0
  5  6  2  0
  6  7  1  0
  7  8  2  3
  8  9  1  0
  9 10  2  0
 10 11  1  0
 11 12  2  0
 12 13  1  0
 12 14  1  0
 14 15  2  0
  6 16  1  0
 16 17  2  0
 17 18  1  0
 18 19  2  0
 19 20  1  0
 20 21  2  0
 21  4  1  0
 15  9  1  0
 21 16  1  0
  1 22  1  0
  1 23  1  0
  1 24  1  0
  2 25  1  0
  3 26  1  0
  3 27  1  0
  3 28  1  0
  5 29  1  0
  7 30  1  0
  8 31  1  0
 10 32  1  0
 11 33  1  0
 13 34  1  0
 13 35  1  0
 13 36  1  0
 14 37  1  0
 15 38  1  0
 17 39  1  0
 18 40  1  0
 19 41  1  0
 20 42  1  0
M  CHG  1  12   1
M  END
$$$$
