
     RDKit          3D

 53 56  0  0  0  0  0  0  0  0999 V2000
   -4.3882   -1.9502   -1.7108 C   0  0  0  0  0  0  0  0  0  0  0  0
   -5.6766   -1.9842   -1.1081 O   0  0  0  0  0  0  0  0  0  0  0  0
   -5.9670   -0.9976   -0.2060 C   0  0  0  0  0  0  0  0  0  0  0  0
   -7.1561   -1.1875    0.5019 C   0  0  0  0  0  0  0  0  0  0  0  0
   -7.5723   -0.2583    1.4537 C   0  0  0  0  0  0  0  0  0  0  0  0
   -6.7960    0.8720    1.7025 C   0  0  0  0  0  0  0  0  0  0  0  0
   -5.6010    1.0781    0.9993 C   0  0  0  0  0  0  0  0  0  0  0  0
   -4.8156    2.3161    1.2961 C   0  0  0  0  0  0  0  0  0  0  0  0
   -5.3474    3.2271    1.9332 O   0  0  0  0  0  0  0  0  0  0  0  0
   -3.3973    2.4631    0.7611 C   0  0  0  0  0  0  0  0  0  0  0  0
   -2.6154    1.3164    1.0636 O   0  0  0  0  0  0  0  0  0  0  0  0
   -1.3709    1.2499    0.5055 C   0  0  0  0  0  0  0  0  0  0  0  0
   -0.7055    2.2879   -0.1424 C   0  0  0  0  0  0  0  0  0  0  0  0
    0.5782    2.0843   -0.6747 C   0  0  0  0  0  0  0  0  0  0  0  0
    1.2231    0.8431   -0.5717 C   0  0  0  0  0  0  0  0  0  0  0  0
    2.5763    0.5676   -1.0983 C   0  0  0  0  0  0  0  0  0  0  0  0
    3.2854    1.7131   -1.7759 C   0  0  0  0  0  0  0  0  0  0  0  0
    3.1078   -0.6663   -0.9332 C   0  0  0  0  0  0  0  0  0  0  0  0
    4.4853   -1.1005   -1.3962 C   0  0  0  0  0  0  0  0  0  0  0  0
    5.5393   -1.0037   -0.3118 C   0  0  0  0  0  0  0  0  0  0  0  0
    6.2694    0.1779   -0.1188 C   0  0  0  0  0  0  0  0  0  0  0  0
    7.2272    0.2652    0.8939 C   0  0  0  0  0  0  0  0  0  0  0  0
    7.4657   -0.8258    1.7262 C   0  0  0  0  0  0  0  0  0  0  0  0
    6.7477   -2.0053    1.5462 C   0  0  0  0  0  0  0  0  0  0  0  0
    5.7905   -2.0941    0.5340 C   0  0  0  0  0  0  0  0  0  0  0  0
    2.3244   -1.7674   -0.2984 C   0  0  0  0  0  0  0  0  0  0  0  0
    2.7381   -2.9216   -0.2517 O   0  0  0  0  0  0  0  0  0  0  0  0
    1.0867   -1.4492    0.2306 O   0  0  0  0  0  0  0  0  0  0  0  0
    0.5354   -0.1701    0.0852 C   0  0  0  0  0  0  0  0  0  0  0  0
   -0.7394    0.0155    0.6252 C   0  0  0  0  0  0  0  0  0  0  0  0
   -5.1966    0.1430    0.0344 C   0  0  0  0  0  0  0  0  0  0  0  0
   -4.2907   -1.0862   -2.3760 H   0  0  0  0  0  0  0  0  0  0  0  0
   -3.5947   -1.9600   -0.9558 H   0  0  0  0  0  0  0  0  0  0  0  0
   -4.2801   -2.8529   -2.3198 H   0  0  0  0  0  0  0  0  0  0  0  0
   -7.7615   -2.0707    0.3106 H   0  0  0  0  0  0  0  0  0  0  0  0
   -8.4988   -0.4152    2.0001 H   0  0  0  0  0  0  0  0  0  0  0  0
   -7.1282    1.5927    2.4479 H   0  0  0  0  0  0  0  0  0  0  0  0
   -2.9553    3.3400    1.2496 H   0  0  0  0  0  0  0  0  0  0  0  0
   -3.4660    2.6378   -0.3195 H   0  0  0  0  0  0  0  0  0  0  0  0
   -1.1447    3.2757   -0.2428 H   0  0  0  0  0  0  0  0  0  0  0  0
    1.0559    2.9293   -1.1640 H   0  0  0  0  0  0  0  0  0  0  0  0
    3.4386    2.5398   -1.0733 H   0  0  0  0  0  0  0  0  0  0  0  0
    2.7014    2.0758   -2.6295 H   0  0  0  0  0  0  0  0  0  0  0  0
    4.2684    1.4556   -2.1720 H   0  0  0  0  0  0  0  0  0  0  0  0
    4.8170   -0.5254   -2.2678 H   0  0  0  0  0  0  0  0  0  0  0  0
    4.4581   -2.1279   -1.7837 H   0  0  0  0  0  0  0  0  0  0  0  0
    6.1047    1.0416   -0.7564 H   0  0  0  0  0  0  0  0  0  0  0  0
    7.7879    1.1857    1.0335 H   0  0  0  0  0  0  0  0  0  0  0  0
    8.2100   -0.7575    2.5149 H   0  0  0  0  0  0  0  0  0  0  0  0
    6.9297   -2.8585    2.1945 H   0  0  0  0  0  0  0  0  0  0  0  0
    5.2390   -3.0251    0.4116 H   0  0  0  0  0  0  0  0  0  0  0  0
   -1.2366   -0.8058    1.1350 H   0  0  0  0  0  0  0  0  0  0  0  0
   -4.2891    0.3095   -0.5320 H   0  0  0  0  0  0  0  0  0  0  0  0
  1  2  1  0
  2  3  1  0
  3  4  2  0
  4  5  1  0
  5  6  2  0
  6  7  1  0
  7  8  1  0
  8  9  2  0
  8 10  1  0
 10 11  1  0
 11 12  1  0
 12 13  2  0
 13 14  1  0
 14 15  2  0
 15 16  1  0
 16 17  1  0
 16 18  2  0
 18 19  1  0
 19 20  1  0
 20 21  2  0
 21 22  1  0
 22 23  2  0
 23 24  1  0
 24 25  2  0
 18 26  1  0
 26 27  2  0
 26 28  1  0
 28 29  1  0
 29 30  2  0
  7 31  2  0
 31  3  1  0
 30 12  1  0
 29 15  1  0
 25 20  1  0
  1 32  1  0
  1 33  1  0
  1 34  1  0
  4 35  1  0
  5 36  1  0
  6 37  1  0
 10 38  1  0
 10 39  1  0
 13 40  1  0
 14 41  1  0
 17 42  1  0
 17 43  1  0
 17 44  1  0
 19 45  1  0
 19 46  1  0
 21 47  1  0
 22 48  1  0
 23 49  1  0
 24 50  1  0
 25 51  1  0
 30 52  1  0
 31 53  1  0
M  END
$$$$
