
     RDKit          3D

 59 63  0  0  0  0  0  0  0  0999 V2000
   -4.2856   -3.7098    1.6004 C   0  0  0  0  0  0  0  0  0  0  0  0
   -3.4730   -2.9328    0.5731 C   0  0  0  0  0  0  0  0  0  0  0  0
   -4.0272   -1.5222    0.3179 C   0  0  0  0  0  0  0  0  0  0  0  0
   -3.9080   -0.6535    1.4867 N   0  0  0  0  0  0  0  0  0  0  0  0
   -2.6183   -0.2017    1.7479 C   0  0  0  0  0  0  0  0  0  0  0  0
   -2.3665    0.0513    3.0382 N   0  0  0  0  0  0  0  0  0  0  0  0
   -1.1501    0.5226    3.3062 C   0  0  0  0  0  0  0  0  0  0  0  0
   -0.1578    0.6860    2.4249 N   0  0  0  0  0  0  0  0  0  0  0  0
   -0.4073    0.3750    1.1346 C   0  0  0  0  0  0  0  0  0  0  0  0
    0.7078    0.3227    0.2699 N   0  0  0  0  0  0  0  0  0  0  0  0
    1.0748   -1.0868   -0.0637 C   0  0  0  0  0  0  0  0  0  0  0  0
    2.5466   -1.4269    0.2636 C   0  0  0  0  0  0  0  0  0  0  0  0
    3.4596   -0.4550   -0.3669 N   0  0  0  0  0  0  0  0  0  0  0  0
    4.8181   -0.7438   -0.2169 C   0  0  0  0  0  0  0  0  0  0  0  0
    5.7758   -0.0099   -0.9200 C   0  0  0  0  0  0  0  0  0  0  0  0
    7.1305   -0.3071   -0.7755 C   0  0  0  0  0  0  0  0  0  0  0  0
    7.5083   -1.3431    0.0622 C   0  0  0  0  0  0  0  0  0  0  0  0
    6.5082   -2.0396    0.7127 C   0  0  0  0  0  0  0  0  0  0  0  0
    5.1914   -1.7656    0.5840 N   0  0  0  0  0  0  0  0  0  0  0  0
    3.0711    0.9646   -0.2214 C   0  0  0  0  0  0  0  0  0  0  0  0
    1.8577    1.1430    0.7207 C   0  0  0  0  0  0  0  0  0  0  0  0
   -1.6922   -0.0071    0.7142 C   0  0  0  0  0  0  0  0  0  0  0  0
   -2.1184   -0.2266   -0.6477 N   0  0  0  0  0  0  0  0  0  0  0  0
   -1.5349    0.5373   -1.7498 C   0  0  0  0  0  0  0  0  0  0  0  0
   -2.0324    1.9702   -1.7975 C   0  0  0  0  0  0  0  0  0  0  0  0
   -1.2651    3.0116   -1.2559 C   0  0  0  0  0  0  0  0  0  0  0  0
   -1.7306    4.3282   -1.2819 C   0  0  0  0  0  0  0  0  0  0  0  0
   -2.9714    4.6114   -1.8495 C   0  0  0  0  0  0  0  0  0  0  0  0
   -3.6015    6.3929   -1.8850 Br  0  0  0  0  0  0  0  0  0  0  0  0
   -3.7477    3.5914   -2.3930 C   0  0  0  0  0  0  0  0  0  0  0  0
   -3.2791    2.2756   -2.3662 C   0  0  0  0  0  0  0  0  0  0  0  0
   -3.3284   -0.8887   -0.9000 C   0  0  0  0  0  0  0  0  0  0  0  0
   -3.7993   -1.0343   -2.0323 O   0  0  0  0  0  0  0  0  0  0  0  0
   -5.3356   -3.7830    1.2999 H   0  0  0  0  0  0  0  0  0  0  0  0
   -3.8888   -4.7235    1.7002 H   0  0  0  0  0  0  0  0  0  0  0  0
   -4.2391   -3.2378    2.5864 H   0  0  0  0  0  0  0  0  0  0  0  0
   -3.4746   -3.4961   -0.3695 H   0  0  0  0  0  0  0  0  0  0  0  0
   -2.4277   -2.8954    0.9027 H   0  0  0  0  0  0  0  0  0  0  0  0
   -5.0947   -1.5858    0.0693 H   0  0  0  0  0  0  0  0  0  0  0  0
   -4.3643   -0.9339    2.3476 H   0  0  0  0  0  0  0  0  0  0  0  0
   -0.9395    0.7815    4.3372 H   0  0  0  0  0  0  0  0  0  0  0  0
    0.4332   -1.8177    0.4451 H   0  0  0  0  0  0  0  0  0  0  0  0
    0.9205   -1.2220   -1.1404 H   0  0  0  0  0  0  0  0  0  0  0  0
    2.6817   -1.4359    1.3536 H   0  0  0  0  0  0  0  0  0  0  0  0
    2.7503   -2.4380   -0.1124 H   0  0  0  0  0  0  0  0  0  0  0  0
    5.4734    0.7822   -1.5962 H   0  0  0  0  0  0  0  0  0  0  0  0
    7.8774    0.2643   -1.3186 H   0  0  0  0  0  0  0  0  0  0  0  0
    8.5496   -1.6067    0.2002 H   0  0  0  0  0  0  0  0  0  0  0  0
    6.7426   -2.8683    1.3745 H   0  0  0  0  0  0  0  0  0  0  0  0
    3.8893    1.5757    0.1767 H   0  0  0  0  0  0  0  0  0  0  0  0
    2.8207    1.3512   -1.2158 H   0  0  0  0  0  0  0  0  0  0  0  0
    2.1721    0.8710    1.7376 H   0  0  0  0  0  0  0  0  0  0  0  0
    1.5731    2.2024    0.7292 H   0  0  0  0  0  0  0  0  0  0  0  0
   -1.7991    0.0567   -2.7014 H   0  0  0  0  0  0  0  0  0  0  0  0
   -0.4459    0.5144   -1.7446 H   0  0  0  0  0  0  0  0  0  0  0  0
   -0.2966    2.8027   -0.8093 H   0  0  0  0  0  0  0  0  0  0  0  0
   -1.1217    5.1206   -0.8554 H   0  0  0  0  0  0  0  0  0  0  0  0
   -4.7155    3.8059   -2.8379 H   0  0  0  0  0  0  0  0  0  0  0  0
   -3.8962    1.4862   -2.7928 H   0  0  0  0  0  0  0  0  0  0  0  0
  1  2  1  0
  2  3  1  0
  3  4  1  0
  4  5  1  0
  5  6  2  0
  6  7  1  0
  7  8  2  0
  8  9  1  0
  9 10  1  0
 10 11  1  0
 11 12  1  0
 12 13  1  0
 13 14  1  0
 14 15  2  0
 15 16  1  0
 16 17  2  0
 17 18  1  0
 18 19  2  0
 13 20  1  0
 20 21  1  0
  9 22  2  0
 22 23  1  0
 23 24  1  0
 24 25  1  0
 25 26  2  0
 26 27  1  0
 27 28  2  0
 28 29  1  0
 28 30  1  0
 30 31  2  0
 23 32  1  0
 32 33  2  0
 32  3  1  0
 22  5  1  0
 31 25  1  0
 21 10  1  0
 19 14  1  0
  1 34  1  0
  1 35  1  0
  1 36  1  0
  2 37  1  0
  2 38  1  0
  3 39  1  0
  4 40  1  0
  7 41  1  0
 11 42  1  0
 11 43  1  0
 12 44  1  0
 12 45  1  0
 15 46  1  0
 16 47  1  0
 17 48  1  0
 18 49  1  0
 20 50  1  0
 20 51  1  0
 21 52  1  0
 21 53  1  0
 24 54  1  0
 24 55  1  0
 26 56  1  0
 27 57  1  0
 30 58  1  0
 31 59  1  0
M  END
$$$$
