
     RDKit          3D

 38 40  0  0  0  0  0  0  0  0999 V2000
   -2.1191    0.6122   -2.2809 C   0  0  0  0  0  0  0  0  0  0  0  0
   -2.8892   -0.0119   -1.1520 C   0  0  0  0  0  0  0  0  0  0  0  0
   -3.8751    0.7705   -0.5206 C   0  0  0  0  0  0  0  0  0  0  0  0
   -4.6483    0.2498    0.5130 C   0  0  0  0  0  0  0  0  0  0  0  0
   -5.5787    1.0189    1.0927 F   0  0  0  0  0  0  0  0  0  0  0  0
   -4.4760   -1.0558    0.9454 C   0  0  0  0  0  0  0  0  0  0  0  0
   -3.5068   -1.8516    0.3381 C   0  0  0  0  0  0  0  0  0  0  0  0
   -2.7027   -1.3335   -0.6980 C   0  0  0  0  0  0  0  0  0  0  0  0
   -1.4915   -2.4646   -1.3861 S   0  0  0  0  0  6  0  0  0  0  0  0
   -0.9235   -1.9129   -2.5946 O   0  0  0  0  0  0  0  0  0  0  0  0
   -2.1005   -3.7794   -1.3890 O   0  0  0  0  0  0  0  0  0  0  0  0
   -0.3001   -2.5149   -0.1866 N   0  0  0  0  0  0  0  0  0  0  0  0
    0.3088   -1.3063    0.2476 C   0  0  0  0  0  0  0  0  0  0  0  0
    0.0338   -0.8329    1.5293 C   0  0  0  0  0  0  0  0  0  0  0  0
    0.5918    0.3710    1.9545 C   0  0  0  0  0  0  0  0  0  0  0  0
    1.4286    1.0912    1.1028 C   0  0  0  0  0  0  0  0  0  0  0  0
    1.9318    2.2563    1.6125 O   0  0  0  0  0  0  0  0  0  0  0  0
    1.7131    0.6298   -0.1903 C   0  0  0  0  0  0  0  0  0  0  0  0
    2.6792    1.5397   -1.3863 S   0  0  0  0  0  0  0  0  0  0  0  0
    4.2517    1.5796   -0.6459 C   0  0  0  0  0  0  0  0  0  0  0  0
    4.4658    2.1348    0.5908 N   0  0  0  0  0  0  0  0  0  0  0  0
    5.7609    1.9903    0.7544 C   0  0  0  0  0  0  0  0  0  0  0  0
    6.2934    1.3874   -0.3417 N   0  0  0  0  0  0  0  0  0  0  0  0
    5.3477    1.1231   -1.2559 N   0  0  0  0  0  0  0  0  0  0  0  0
    1.1395   -0.5802   -0.6081 C   0  0  0  0  0  0  0  0  0  0  0  0
   -1.0460    0.5959   -2.0803 H   0  0  0  0  0  0  0  0  0  0  0  0
   -2.3414    0.1021   -3.2228 H   0  0  0  0  0  0  0  0  0  0  0  0
   -2.3931    1.6646   -2.4172 H   0  0  0  0  0  0  0  0  0  0  0  0
   -4.0574    1.7970   -0.8305 H   0  0  0  0  0  0  0  0  0  0  0  0
   -5.0998   -1.4456    1.7436 H   0  0  0  0  0  0  0  0  0  0  0  0
   -3.3865   -2.8808    0.6717 H   0  0  0  0  0  0  0  0  0  0  0  0
   -0.4875   -3.2351    0.5086 H   0  0  0  0  0  0  0  0  0  0  0  0
   -0.6196   -1.3802    2.2021 H   0  0  0  0  0  0  0  0  0  0  0  0
    0.3784    0.7525    2.9498 H   0  0  0  0  0  0  0  0  0  0  0  0
    2.7767    2.4466    1.1519 H   0  0  0  0  0  0  0  0  0  0  0  0
    6.3471    2.2933    1.6106 H   0  0  0  0  0  0  0  0  0  0  0  0
    7.2573    1.1371   -0.5342 H   0  0  0  0  0  0  0  0  0  0  0  0
    1.3372   -0.9580   -1.6099 H   0  0  0  0  0  0  0  0  0  0  0  0
  1  2  1  0
  2  3  2  0
  3  4  1  0
  4  5  1  0
  4  6  2  0
  6  7  1  0
  7  8  2  0
  8  9  1  0
  9 10  2  0
  9 11  2  0
  9 12  1  0
 12 13  1  0
 13 14  2  0
 14 15  1  0
 15 16  2  0
 16 17  1  0
 16 18  1  0
 18 19  1  0
 19 20  1  0
 20 21  1  0
 21 22  2  0
 22 23  1  0
 23 24  1  0
 18 25  2  0
  8  2  1  0
 25 13  1  0
 24 20  2  0
  1 26  1  0
  1 27  1  0
  1 28  1  0
  3 29  1  0
  6 30  1  0
  7 31  1  0
 12 32  1  0
 14 33  1  0
 15 34  1  0
 17 35  1  0
 22 36  1  0
 23 37  1  0
 25 38  1  0
M  END
$$$$
