
     RDKit          3D

 44 47  0  0  0  0  0  0  0  0999 V2000
   -4.1597    2.6775    0.8497 C   0  0  0  0  0  0  0  0  0  0  0  0
   -3.8015    1.2394    1.2216 C   0  0  0  0  0  0  0  0  0  0  0  0
   -2.2959    1.0408    1.3090 C   0  0  0  0  0  0  0  0  0  0  0  0
   -1.6159    0.9826   -0.0415 C   0  0  0  0  0  0  0  0  0  0  0  0
   -1.0308    1.9796   -0.4812 O   0  0  0  0  0  0  0  0  0  0  0  0
   -1.5771   -0.2401   -0.7043 N   0  0  0  0  0  0  0  0  0  0  0  0
   -0.7694   -0.3329   -1.9283 C   0  0  0  0  0  0  0  0  0  0  0  0
    0.7265   -0.5156   -1.6413 C   0  0  0  0  0  0  0  0  0  0  0  0
    1.3029   -1.5501   -1.9710 O   0  0  0  0  0  0  0  0  0  0  0  0
    1.3049    0.5915   -1.0346 N   0  0  0  0  0  0  0  0  0  0  0  0
    2.6390    0.7498   -0.6161 C   0  0  0  0  0  0  0  0  0  0  0  0
    2.9922    2.0159   -0.1047 C   0  0  0  0  0  0  0  0  0  0  0  0
    4.2936    2.2834    0.3299 C   0  0  0  0  0  0  0  0  0  0  0  0
    5.2154    1.2672    0.2463 C   0  0  0  0  0  0  0  0  0  0  0  0
    4.8780    0.0272   -0.2393 C   0  0  0  0  0  0  0  0  0  0  0  0
    3.6020   -0.2636   -0.6774 C   0  0  0  0  0  0  0  0  0  0  0  0
    5.9324   -0.8334   -0.2324 O   0  0  0  0  0  0  0  0  0  0  0  0
    6.9765    0.0189    0.2797 C   0  0  0  0  0  0  0  0  0  0  0  0
    6.5218    1.3467    0.6132 O   0  0  0  0  0  0  0  0  0  0  0  0
   -2.2966   -1.4024   -0.2794 C   0  0  0  0  0  0  0  0  0  0  0  0
   -1.6588   -2.6541   -0.3167 C   0  0  0  0  0  0  0  0  0  0  0  0
   -2.3100   -3.8096    0.1239 C   0  0  0  0  0  0  0  0  0  0  0  0
   -3.6178   -3.7385    0.5888 C   0  0  0  0  0  0  0  0  0  0  0  0
   -4.2818   -2.5127    0.5975 C   0  0  0  0  0  0  0  0  0  0  0  0
   -3.6349   -1.3421    0.1696 C   0  0  0  0  0  0  0  0  0  0  0  0
   -4.6471    0.1289    0.0411 S   0  0  0  0  0  0  0  0  0  0  0  0
   -3.8074    2.9398   -0.1558 H   0  0  0  0  0  0  0  0  0  0  0  0
   -5.2435    2.8440    0.8886 H   0  0  0  0  0  0  0  0  0  0  0  0
   -3.7039    3.3822    1.5538 H   0  0  0  0  0  0  0  0  0  0  0  0
   -4.2264    1.0326    2.2116 H   0  0  0  0  0  0  0  0  0  0  0  0
   -2.0499    0.1378    1.8786 H   0  0  0  0  0  0  0  0  0  0  0  0
   -1.8376    1.8554    1.8802 H   0  0  0  0  0  0  0  0  0  0  0  0
   -1.1216   -1.1572   -2.5594 H   0  0  0  0  0  0  0  0  0  0  0  0
   -0.8962    0.5836   -2.5178 H   0  0  0  0  0  0  0  0  0  0  0  0
    0.6898    1.3996   -0.9027 H   0  0  0  0  0  0  0  0  0  0  0  0
    2.2530    2.8117   -0.0517 H   0  0  0  0  0  0  0  0  0  0  0  0
    4.5691    3.2568    0.7122 H   0  0  0  0  0  0  0  0  0  0  0  0
    3.3906   -1.2539   -1.0510 H   0  0  0  0  0  0  0  0  0  0  0  0
    7.3966   -0.4439    1.1810 H   0  0  0  0  0  0  0  0  0  0  0  0
    7.7659    0.0975   -0.4760 H   0  0  0  0  0  0  0  0  0  0  0  0
   -0.6291   -2.7547   -0.6519 H   0  0  0  0  0  0  0  0  0  0  0  0
   -1.7898   -4.7645    0.1041 H   0  0  0  0  0  0  0  0  0  0  0  0
   -4.1279   -4.6390    0.9265 H   0  0  0  0  0  0  0  0  0  0  0  0
   -5.3196   -2.4819    0.9229 H   0  0  0  0  0  0  0  0  0  0  0  0
  1  2  1  0
  2  3  1  0
  3  4  1  0
  4  5  2  0
  4  6  1  0
  6  7  1  0
  7  8  1  0
  8  9  2  0
  8 10  1  0
 10 11  1  0
 11 12  2  0
 12 13  1  0
 13 14  2  0
 14 15  1  0
 15 16  2  0
 15 17  1  0
 17 18  1  0
 18 19  1  0
  6 20  1  0
 20 21  2  0
 21 22  1  0
 22 23  2  0
 23 24  1  0
 24 25  2  0
 25 26  1  0
 26  2  1  0
 16 11  1  0
 25 20  1  0
 19 14  1  0
  1 27  1  0
  1 28  1  0
  1 29  1  0
  2 30  1  0
  3 31  1  0
  3 32  1  0
  7 33  1  0
  7 34  1  0
 10 35  1  0
 12 36  1  0
 13 37  1  0
 16 38  1  0
 18 39  1  0
 18 40  1  0
 21 41  1  0
 22 42  1  0
 23 43  1  0
 24 44  1  0
M  END
$$$$
