
     RDKit          3D

 57 59  0  0  0  0  0  0  0  0999 V2000
   -9.3229    0.4441   -3.0963 C   0  0  0  0  0  0  0  0  0  0  0  0
   -8.3917    1.3013   -2.4470 O   0  0  0  0  0  0  0  0  0  0  0  0
   -7.4555    0.7080   -1.6461 C   0  0  0  0  0  0  0  0  0  0  0  0
   -7.3194   -0.6646   -1.4206 C   0  0  0  0  0  0  0  0  0  0  0  0
   -6.3085   -1.1430   -0.5802 C   0  0  0  0  0  0  0  0  0  0  0  0
   -5.4330   -0.2412    0.0298 C   0  0  0  0  0  0  0  0  0  0  0  0
   -4.1418   -0.8312    1.0933 S   0  0  0  0  0  6  0  0  0  0  0  0
   -4.1003    0.0293    2.2556 O   0  0  0  0  0  0  0  0  0  0  0  0
   -4.2761   -2.2655    1.2293 O   0  0  0  0  0  0  0  0  0  0  0  0
   -2.7600   -0.5256    0.1819 N   0  0  0  0  0  0  0  0  0  0  0  0
   -2.5995   -1.2344   -1.0963 C   0  0  0  0  0  0  0  0  0  0  0  0
   -1.1045   -1.1673   -1.3053 C   0  0  0  0  0  0  0  0  0  0  0  0
   -0.5731   -1.3533    0.0070 O   0  0  0  0  0  0  0  0  0  0  0  0
   -1.4930   -0.7239    0.9221 C   0  0  0  0  0  0  0  0  0  0  0  0
   -0.9423    0.6419    1.3962 C   0  0  0  0  0  0  0  0  0  0  0  0
    0.3469    0.5477    2.0570 N   0  0  0  0  0  0  0  0  0  0  0  0
    1.5298    0.6043    1.3532 C   0  0  0  0  0  0  0  0  0  0  0  0
    1.6585    0.8982    0.1732 O   0  0  0  0  0  0  0  0  0  0  0  0
    2.7682    0.2512    2.2085 C   0  0  0  0  0  0  0  0  0  0  0  0
    2.6247   -0.1289    3.3628 O   0  0  0  0  0  0  0  0  0  0  0  0
    3.9601    0.4015    1.5439 N   0  0  0  0  0  0  0  0  0  0  0  0
    5.1952   -0.0900    2.0976 C   0  0  0  0  0  0  0  0  0  0  0  0
    6.3824    0.4961    1.3778 C   0  0  0  0  0  0  0  0  0  0  0  0
    6.9261    1.7084    1.8381 C   0  0  0  0  0  0  0  0  0  0  0  0
    8.0123    2.2925    1.1903 C   0  0  0  0  0  0  0  0  0  0  0  0
    8.5615    1.6758    0.0707 C   0  0  0  0  0  0  0  0  0  0  0  0
    8.0228    0.4783   -0.4069 C   0  0  0  0  0  0  0  0  0  0  0  0
    6.9306   -0.1162    0.2350 C   0  0  0  0  0  0  0  0  0  0  0  0
    6.3248   -1.2768   -0.1712 O   0  0  0  0  0  0  0  0  0  0  0  0
    6.8517   -1.9232   -1.3232 C   0  0  0  0  0  0  0  0  0  0  0  0
   -5.5678    1.1329   -0.1769 C   0  0  0  0  0  0  0  0  0  0  0  0
   -6.5781    1.5998   -1.0188 C   0  0  0  0  0  0  0  0  0  0  0  0
   -8.8156   -0.2462   -3.7783 H   0  0  0  0  0  0  0  0  0  0  0  0
   -9.9352   -0.0967   -2.3675 H   0  0  0  0  0  0  0  0  0  0  0  0
   -9.9915    1.0699   -3.6948 H   0  0  0  0  0  0  0  0  0  0  0  0
   -7.9846   -1.3882   -1.8814 H   0  0  0  0  0  0  0  0  0  0  0  0
   -6.2157   -2.2134   -0.4086 H   0  0  0  0  0  0  0  0  0  0  0  0
   -3.1450   -0.7504   -1.9096 H   0  0  0  0  0  0  0  0  0  0  0  0
   -2.9163   -2.2785   -1.0062 H   0  0  0  0  0  0  0  0  0  0  0  0
   -0.7867   -0.1864   -1.6767 H   0  0  0  0  0  0  0  0  0  0  0  0
   -0.7320   -1.9437   -1.9788 H   0  0  0  0  0  0  0  0  0  0  0  0
   -1.6024   -1.4064    1.7717 H   0  0  0  0  0  0  0  0  0  0  0  0
   -0.8373    1.3179    0.5395 H   0  0  0  0  0  0  0  0  0  0  0  0
   -1.6316    1.1081    2.1067 H   0  0  0  0  0  0  0  0  0  0  0  0
    0.4106    0.1976    3.0100 H   0  0  0  0  0  0  0  0  0  0  0  0
    3.8982    0.5561    0.5412 H   0  0  0  0  0  0  0  0  0  0  0  0
    5.2346    0.1581    3.1656 H   0  0  0  0  0  0  0  0  0  0  0  0
    5.1881   -1.1848    2.0418 H   0  0  0  0  0  0  0  0  0  0  0  0
    6.4972    2.2030    2.7075 H   0  0  0  0  0  0  0  0  0  0  0  0
    8.4260    3.2285    1.5566 H   0  0  0  0  0  0  0  0  0  0  0  0
    9.4085    2.1301   -0.4373 H   0  0  0  0  0  0  0  0  0  0  0  0
    8.4783    0.0384   -1.2878 H   0  0  0  0  0  0  0  0  0  0  0  0
    7.8878   -2.2386   -1.1604 H   0  0  0  0  0  0  0  0  0  0  0  0
    6.7650   -1.2847   -2.2083 H   0  0  0  0  0  0  0  0  0  0  0  0
    6.2560   -2.8225   -1.5033 H   0  0  0  0  0  0  0  0  0  0  0  0
   -4.8965    1.8377    0.3086 H   0  0  0  0  0  0  0  0  0  0  0  0
   -6.6880    2.6693   -1.1864 H   0  0  0  0  0  0  0  0  0  0  0  0
  1  2  1  0
  2  3  1  0
  3  4  2  0
  4  5  1  0
  5  6  2  0
  6  7  1  0
  7  8  2  0
  7  9  2  0
  7 10  1  0
 10 11  1  0
 11 12  1  0
 12 13  1  0
 13 14  1  0
 14 15  1  0
 15 16  1  0
 16 17  1  0
 17 18  2  0
 17 19  1  0
 19 20  2  0
 19 21  1  0
 21 22  1  0
 22 23  1  0
 23 24  2  0
 24 25  1  0
 25 26  2  0
 26 27  1  0
 27 28  2  0
 28 29  1  0
 29 30  1  0
  6 31  1  0
 31 32  2  0
 32  3  1  0
 14 10  1  0
 28 23  1  0
  1 33  1  0
  1 34  1  0
  1 35  1  0
  4 36  1  0
  5 37  1  0
 11 38  1  0
 11 39  1  0
 12 40  1  0
 12 41  1  0
 14 42  1  0
 15 43  1  0
 15 44  1  0
 16 45  1  0
 21 46  1  0
 22 47  1  0
 22 48  1  0
 24 49  1  0
 25 50  1  0
 26 51  1  0
 27 52  1  0
 30 53  1  0
 30 54  1  0
 30 55  1  0
 31 56  1  0
 32 57  1  0
M  END
$$$$
