
     RDKit          3D

 54 57  0  0  0  0  0  0  0  0999 V2000
   -1.7902   -5.1868    0.4307 C   0  0  0  0  0  0  0  0  0  0  0  0
   -2.1246   -4.2410   -0.5776 O   0  0  0  0  0  0  0  0  0  0  0  0
   -2.0052   -2.9208   -0.2406 C   0  0  0  0  0  0  0  0  0  0  0  0
   -2.6451   -2.0342   -1.1139 C   0  0  0  0  0  0  0  0  0  0  0  0
   -2.6108   -0.6582   -0.8826 C   0  0  0  0  0  0  0  0  0  0  0  0
   -1.9027   -0.1692    0.2156 C   0  0  0  0  0  0  0  0  0  0  0  0
   -1.8787    1.2825    0.4961 C   0  0  0  0  0  0  0  0  0  0  0  0
   -2.6320    1.7097    1.4592 N   0  0  0  0  0  0  0  0  0  0  0  0
   -2.6466    3.0775    1.7473 C   0  0  0  0  0  0  0  0  0  0  0  0
   -3.4911    3.5449    2.7569 C   0  0  0  0  0  0  0  0  0  0  0  0
   -3.5336    4.9046    3.0785 C   0  0  0  0  0  0  0  0  0  0  0  0
   -2.7273    5.8104    2.3903 C   0  0  0  0  0  0  0  0  0  0  0  0
   -1.8794    5.3553    1.3815 C   0  0  0  0  0  0  0  0  0  0  0  0
   -1.8476    3.9909    1.0675 C   0  0  0  0  0  0  0  0  0  0  0  0
   -0.9600    3.4714    0.0149 C   0  0  0  0  0  0  0  0  0  0  0  0
   -0.1731    4.2334   -0.5427 O   0  0  0  0  0  0  0  0  0  0  0  0
   -1.0556    2.1081   -0.2663 N   0  0  0  0  0  0  0  0  0  0  0  0
   -0.1315    1.5994   -1.2862 C   0  0  0  0  0  0  0  0  0  0  0  0
    1.2466    1.2703   -0.7097 C   0  0  0  0  0  0  0  0  0  0  0  0
    2.0195    0.6267   -1.7337 O   0  0  0  0  0  0  0  0  0  0  0  0
    2.6912   -0.4529   -1.2256 C   0  0  0  0  0  0  0  0  0  0  0  0
    2.0452   -1.6921   -1.2165 C   0  0  0  0  0  0  0  0  0  0  0  0
    2.7043   -2.8233   -0.7255 C   0  0  0  0  0  0  0  0  0  0  0  0
    2.0139   -4.1528   -0.6786 C   0  0  0  0  0  0  0  0  0  0  0  0
    4.0091   -2.6886   -0.2368 C   0  0  0  0  0  0  0  0  0  0  0  0
    4.6575   -1.4501   -0.2691 C   0  0  0  0  0  0  0  0  0  0  0  0
    4.0116   -0.3188   -0.7829 C   0  0  0  0  0  0  0  0  0  0  0  0
    4.7157    1.0054   -0.8123 C   0  0  0  0  0  0  0  0  0  0  0  0
   -1.2627   -1.0432    1.0971 C   0  0  0  0  0  0  0  0  0  0  0  0
   -1.3091   -2.4210    0.8630 C   0  0  0  0  0  0  0  0  0  0  0  0
   -2.3468   -5.0001    1.3553 H   0  0  0  0  0  0  0  0  0  0  0  0
   -2.0738   -6.1785    0.0652 H   0  0  0  0  0  0  0  0  0  0  0  0
   -0.7120   -5.1970    0.6161 H   0  0  0  0  0  0  0  0  0  0  0  0
   -3.1915   -2.4238   -1.9701 H   0  0  0  0  0  0  0  0  0  0  0  0
   -3.1375    0.0192   -1.5495 H   0  0  0  0  0  0  0  0  0  0  0  0
   -4.1200    2.8402    3.2951 H   0  0  0  0  0  0  0  0  0  0  0  0
   -4.1956    5.2533    3.8672 H   0  0  0  0  0  0  0  0  0  0  0  0
   -2.7585    6.8682    2.6398 H   0  0  0  0  0  0  0  0  0  0  0  0
   -1.2468    6.0577    0.8436 H   0  0  0  0  0  0  0  0  0  0  0  0
   -0.0193    2.3452   -2.0835 H   0  0  0  0  0  0  0  0  0  0  0  0
   -0.5441    0.7165   -1.7807 H   0  0  0  0  0  0  0  0  0  0  0  0
    1.7665    2.1898   -0.4170 H   0  0  0  0  0  0  0  0  0  0  0  0
    1.1424    0.6523    0.1921 H   0  0  0  0  0  0  0  0  0  0  0  0
    1.0296   -1.7696   -1.5964 H   0  0  0  0  0  0  0  0  0  0  0  0
    1.6612   -4.3528    0.3382 H   0  0  0  0  0  0  0  0  0  0  0  0
    2.6978   -4.9524   -0.9836 H   0  0  0  0  0  0  0  0  0  0  0  0
    1.1553   -4.1798   -1.3582 H   0  0  0  0  0  0  0  0  0  0  0  0
    4.5353   -3.5519    0.1651 H   0  0  0  0  0  0  0  0  0  0  0  0
    5.6763   -1.3774    0.1054 H   0  0  0  0  0  0  0  0  0  0  0  0
    4.5438    1.5159   -1.7655 H   0  0  0  0  0  0  0  0  0  0  0  0
    4.3593    1.6385    0.0058 H   0  0  0  0  0  0  0  0  0  0  0  0
    5.7984    0.8816   -0.7043 H   0  0  0  0  0  0  0  0  0  0  0  0
   -0.7354   -0.6573    1.9663 H   0  0  0  0  0  0  0  0  0  0  0  0
   -0.7927   -3.0754    1.5574 H   0  0  0  0  0  0  0  0  0  0  0  0
  1  2  1  0
  2  3  1  0
  3  4  2  0
  4  5  1  0
  5  6  2  0
  6  7  1  0
  7  8  2  0
  8  9  1  0
  9 10  2  0
 10 11  1  0
 11 12  2  0
 12 13  1  0
 13 14  2  0
 14 15  1  0
 15 16  2  0
 15 17  1  0
 17 18  1  0
 18 19  1  0
 19 20  1  0
 20 21  1  0
 21 22  2  0
 22 23  1  0
 23 24  1  0
 23 25  2  0
 25 26  1  0
 26 27  2  0
 27 28  1  0
  6 29  1  0
 29 30  2  0
 30  3  1  0
 17  7  1  0
 27 21  1  0
 14  9  1  0
  1 31  1  0
  1 32  1  0
  1 33  1  0
  4 34  1  0
  5 35  1  0
 10 36  1  0
 11 37  1  0
 12 38  1  0
 13 39  1  0
 18 40  1  0
 18 41  1  0
 19 42  1  0
 19 43  1  0
 22 44  1  0
 24 45  1  0
 24 46  1  0
 24 47  1  0
 25 48  1  0
 26 49  1  0
 28 50  1  0
 28 51  1  0
 28 52  1  0
 29 53  1  0
 30 54  1  0
M  END
$$$$
