
     RDKit          3D

 36 37  0  0  0  0  0  0  0  0999 V2000
   -1.5472   -0.0042    3.0980 O   0  0  0  0  0  0  0  0  0  0  0  0
   -1.2597   -0.8365    2.2430 C   0  0  0  0  0  0  0  0  0  0  0  0
   -0.4060   -2.0702    2.5499 C   0  0  0  0  0  0  0  0  0  0  0  0
    0.9731   -1.8590    2.2259 O   0  0  0  0  0  0  0  0  0  0  0  0
    1.2590   -1.8873    0.9033 C   0  0  0  0  0  0  0  0  0  0  0  0
    0.4856   -2.1502   -0.0025 O   0  0  0  0  0  0  0  0  0  0  0  0
    2.6553   -1.4645    0.7108 C   0  0  0  0  0  0  0  0  0  0  0  0
    3.6678   -2.1987    1.3475 C   0  0  0  0  0  0  0  0  0  0  0  0
    5.0019   -1.8430    1.1654 C   0  0  0  0  0  0  0  0  0  0  0  0
    5.3235   -0.7585    0.3499 C   0  0  0  0  0  0  0  0  0  0  0  0
    4.3137   -0.0215   -0.2824 C   0  0  0  0  0  0  0  0  0  0  0  0
    4.8092    1.3126   -1.2661 Cl  0  0  0  0  0  0  0  0  0  0  0  0
    2.9658   -0.3675   -0.1067 C   0  0  0  0  0  0  0  0  0  0  0  0
    1.7059    0.5743   -0.8467 Cl  0  0  0  0  0  0  0  0  0  0  0  0
   -1.6420   -0.7293    0.9198 N   0  0  0  0  0  0  0  0  0  0  0  0
   -2.2375    0.4976    0.4279 C   0  0  0  0  0  0  0  0  0  0  0  0
   -2.5772    0.4191   -1.0622 C   0  0  0  0  0  0  0  0  0  0  0  0
   -3.0689    1.6786   -1.5817 N   0  0  0  0  0  0  0  0  0  0  0  0
   -2.2998    2.7170   -2.0551 C   0  0  0  0  0  0  0  0  0  0  0  0
   -0.9396    2.6541   -2.1160 O   0  0  0  0  0  0  0  0  0  0  0  0
   -2.9947    3.7903   -2.4432 C   0  0  0  0  0  0  0  0  0  0  0  0
   -4.6990    3.5662   -2.2187 S   0  0  0  0  0  0  0  0  0  0  0  0
   -4.4358    1.9450   -1.5568 C   0  0  0  0  0  0  0  0  0  0  0  0
   -5.3325    1.2225   -1.1541 O   0  0  0  0  0  0  0  0  0  0  0  0
   -0.8027   -2.9532    2.0347 H   0  0  0  0  0  0  0  0  0  0  0  0
   -0.4705   -2.2719    3.6243 H   0  0  0  0  0  0  0  0  0  0  0  0
    3.4196   -3.0487    1.9807 H   0  0  0  0  0  0  0  0  0  0  0  0
    5.7914   -2.4090    1.6560 H   0  0  0  0  0  0  0  0  0  0  0  0
    6.3686   -0.4864    0.2120 H   0  0  0  0  0  0  0  0  0  0  0  0
   -1.1249   -1.3145    0.2607 H   0  0  0  0  0  0  0  0  0  0  0  0
   -3.1326    0.7124    1.0233 H   0  0  0  0  0  0  0  0  0  0  0  0
   -1.5235    1.3084    0.6157 H   0  0  0  0  0  0  0  0  0  0  0  0
   -3.3434   -0.3522   -1.2115 H   0  0  0  0  0  0  0  0  0  0  0  0
   -1.7103    0.0964   -1.6503 H   0  0  0  0  0  0  0  0  0  0  0  0
   -0.6286    1.8332   -1.7076 H   0  0  0  0  0  0  0  0  0  0  0  0
   -2.5641    4.6987   -2.8402 H   0  0  0  0  0  0  0  0  0  0  0  0
  1  2  2  0
  2  3  1  0
  3  4  1  0
  4  5  1  0
  5  6  2  0
  5  7  1  0
  7  8  2  0
  8  9  1  0
  9 10  2  0
 10 11  1  0
 11 12  1  0
 11 13  2  0
 13 14  1  0
  2 15  1  0
 15 16  1  0
 16 17  1  0
 17 18  1  0
 18 19  1  0
 19 20  1  0
 19 21  2  0
 21 22  1  0
 22 23  1  0
 23 24  2  0
 13  7  1  0
 23 18  1  0
  3 25  1  0
  3 26  1  0
  8 27  1  0
  9 28  1  0
 10 29  1  0
 15 30  1  0
 16 31  1  0
 16 32  1  0
 17 33  1  0
 17 34  1  0
 20 35  1  0
 21 36  1  0
M  END
$$$$
