
     RDKit          3D

 32 33  0  0  0  0  0  0  0  0999 V2000
   -4.4729    1.5157   -0.6251 C   0  0  0  0  0  0  0  0  0  0  0  0
   -3.5580    0.3215   -0.4013 C   0  0  0  0  0  0  0  0  0  0  0  0
   -3.0233    0.2892    1.0318 C   0  0  0  0  0  0  0  0  0  0  0  0
   -2.1736   -0.9516    1.3289 C   0  0  0  0  0  0  0  0  0  0  0  0
   -0.9245   -0.9867    0.5681 N   0  0  0  0  0  0  0  0  0  0  0  0
   -0.8057   -1.7404   -0.5572 C   0  0  0  0  0  0  0  0  0  0  0  0
   -1.6260   -2.4544   -1.0966 O   0  0  0  0  0  0  0  0  0  0  0  0
    0.6190   -1.5280   -1.0556 C   0  0  0  0  0  0  0  0  0  0  0  0
    1.0393   -2.0563   -2.0669 O   0  0  0  0  0  0  0  0  0  0  0  0
    1.1956   -0.6503   -0.1710 N   0  0  0  0  0  0  0  0  0  0  0  0
    2.5294   -0.1683   -0.3441 C   0  0  0  0  0  0  0  0  0  0  0  0
    2.9102    1.1292    0.0276 C   0  0  0  0  0  0  0  0  0  0  0  0
    4.2207    1.5853   -0.1598 C   0  0  0  0  0  0  0  0  0  0  0  0
    5.1758    0.7549   -0.7345 C   0  0  0  0  0  0  0  0  0  0  0  0
    4.8180   -0.5280   -1.1308 C   0  0  0  0  0  0  0  0  0  0  0  0
    3.5076   -0.9812   -0.9428 C   0  0  0  0  0  0  0  0  0  0  0  0
    0.2789   -0.3509    0.8460 C   0  0  0  0  0  0  0  0  0  0  0  0
    0.5408    0.5339    2.2494 S   0  0  0  0  0  0  0  0  0  0  0  0
   -3.9407    2.4559   -0.4486 H   0  0  0  0  0  0  0  0  0  0  0  0
   -5.3378    1.4788    0.0450 H   0  0  0  0  0  0  0  0  0  0  0  0
   -4.8420    1.5223   -1.6555 H   0  0  0  0  0  0  0  0  0  0  0  0
   -4.1120   -0.6000   -0.6141 H   0  0  0  0  0  0  0  0  0  0  0  0
   -2.7282    0.3771   -1.1142 H   0  0  0  0  0  0  0  0  0  0  0  0
   -3.8703    0.2977    1.7289 H   0  0  0  0  0  0  0  0  0  0  0  0
   -2.4457    1.2007    1.2233 H   0  0  0  0  0  0  0  0  0  0  0  0
   -2.7537   -1.8551    1.1071 H   0  0  0  0  0  0  0  0  0  0  0  0
   -1.9371   -0.9792    2.3976 H   0  0  0  0  0  0  0  0  0  0  0  0
    2.1953    1.8430    0.4251 H   0  0  0  0  0  0  0  0  0  0  0  0
    4.4883    2.5975    0.1347 H   0  0  0  0  0  0  0  0  0  0  0  0
    6.1926    1.1095   -0.8819 H   0  0  0  0  0  0  0  0  0  0  0  0
    5.5560   -1.1828   -1.5881 H   0  0  0  0  0  0  0  0  0  0  0  0
    3.2837   -1.9990   -1.2558 H   0  0  0  0  0  0  0  0  0  0  0  0
  1  2  1  0
  2  3  1  0
  3  4  1  0
  4  5  1  0
  5  6  1  0
  6  7  2  0
  6  8  1  0
  8  9  2  0
  8 10  1  0
 10 11  1  0
 11 12  2  0
 12 13  1  0
 13 14  2  0
 14 15  1  0
 15 16  2  0
 10 17  1  0
 17 18  2  0
 17  5  1  0
 16 11  1  0
  1 19  1  0
  1 20  1  0
  1 21  1  0
  2 22  1  0
  2 23  1  0
  3 24  1  0
  3 25  1  0
  4 26  1  0
  4 27  1  0
 12 28  1  0
 13 29  1  0
 14 30  1  0
 15 31  1  0
 16 32  1  0
M  END
$$$$
