
     RDKit          3D

 92 94  0  0  0  0  0  0  0  0999 V2000
   -6.0245   -0.9239   -1.6865 C   0  0  0  0  0  0  0  0  0  0  0  0
   -4.6496   -1.4858   -1.4884 C   0  0  0  0  0  0  0  0  0  0  0  0
   -4.1934   -2.4306   -2.1152 O   0  0  0  0  0  0  0  0  0  0  0  0
   -3.9946   -0.7755   -0.5330 O   0  0  0  0  0  0  0  0  0  0  0  0
   -2.6585   -1.2131   -0.1776 C   0  0  1  0  0  0  0  0  0  0  0  0
   -1.5552   -0.5205   -1.0349 C   0  0  2  0  0  0  0  0  0  0  0  0
   -2.0092   -0.3223   -2.4041 O   0  0  0  0  0  0  0  0  0  0  0  0
   -2.6623    0.8331   -2.6949 C   0  0  0  0  0  0  0  0  0  0  0  0
   -2.9322    0.9017   -4.1648 C   0  0  0  0  0  0  0  0  0  0  0  0
   -2.9966    1.7016   -1.9017 O   0  0  0  0  0  0  0  0  0  0  0  0
   -0.2435   -1.3125   -1.2197 C   0  0  0  0  0  0  0  0  0  0  0  0
   -0.3905   -2.6781   -1.8593 C   0  0  0  0  0  0  0  0  0  0  0  0
    1.0071   -0.8622   -0.9512 C   0  0  0  0  0  0  0  0  0  0  0  0
    1.4005    0.4256   -0.2345 C   0  0  1  0  0  0  0  0  0  0  0  0
    2.8907    0.4869    0.2361 C   0  0  1  0  0  0  0  0  0  0  0  0
    3.4976   -0.7947    0.4352 O   0  0  0  0  0  0  0  0  0  0  0  0
    3.1310   -1.4513    1.5624 C   0  0  0  0  0  0  0  0  0  0  0  0
    2.3855   -1.0159    2.4230 O   0  0  0  0  0  0  0  0  0  0  0  0
    3.7346   -2.8133    1.5868 C   0  0  0  0  0  0  0  0  0  0  0  0
    3.4849   -3.6256    2.6996 C   0  0  0  0  0  0  0  0  0  0  0  0
    3.9772   -4.9298    2.7471 C   0  0  0  0  0  0  0  0  0  0  0  0
    4.7247   -5.4276    1.6803 C   0  0  0  0  0  0  0  0  0  0  0  0
    4.9886   -4.6255    0.5747 C   0  0  0  0  0  0  0  0  0  0  0  0
    4.4977   -3.3188    0.5264 C   0  0  0  0  0  0  0  0  0  0  0  0
    3.6453    1.3244   -0.8179 C   0  0  1  0  0  0  0  0  0  0  0  0
    4.8397    0.6536   -1.4883 C   0  0  0  0  0  0  0  0  0  0  0  0
    2.5775    1.7536   -1.8239 C   0  0  0  0  0  0  0  0  0  0  0  0
    1.2480    1.7493   -1.0432 C   0  0  1  0  0  0  0  0  0  0  0  0
    0.2031    1.7092   -2.0188 O   0  0  0  0  0  0  0  0  0  0  0  0
    1.0668    3.0517   -0.1569 C   0  0  1  0  0  0  0  0  0  0  0  0
    0.2754    4.0355   -0.8827 O   0  0  0  0  0  0  0  0  0  0  0  0
    0.9072    4.8896   -1.7254 C   0  0  0  0  0  0  0  0  0  0  0  0
   -0.1067    5.7140   -2.4647 C   0  0  0  0  0  0  0  0  0  0  0  0
    2.1185    5.0035   -1.8588 O   0  0  0  0  0  0  0  0  0  0  0  0
    0.3905    2.8966    1.2451 C   0  0  1  0  0  0  0  0  0  0  0  0
    0.2698    4.2622    1.9415 C   0  0  0  0  0  0  0  0  0  0  0  0
   -0.9813    2.2500    1.2390 C   0  0  0  0  0  0  0  0  0  0  0  0
   -1.2689    1.1403    1.9467 C   0  0  0  0  0  0  0  0  0  0  0  0
   -2.5874    0.3765    2.0395 C   0  0  0  0  0  0  0  0  0  0  0  0
   -2.8221    0.1649    3.5616 C   0  0  0  0  0  0  0  0  0  0  0  0
   -3.7886    1.1993    1.5362 C   0  0  0  0  0  0  0  0  0  0  0  0
   -2.5173   -1.0566    1.3664 C   0  0  2  0  0  0  0  0  0  0  0  0
   -1.3110   -1.7300    1.8090 O   0  0  0  0  0  0  0  0  0  0  0  0
   -1.4167   -3.0628    2.0600 C   0  0  0  0  0  0  0  0  0  0  0  0
   -0.0841   -3.6342    2.4170 C   0  0  0  0  0  0  0  0  0  0  0  0
   -2.4439   -3.7217    1.9670 O   0  0  0  0  0  0  0  0  0  0  0  0
   -6.5686   -1.5505   -2.3968 H   0  0  0  0  0  0  0  0  0  0  0  0
   -6.5685   -0.9245   -0.7391 H   0  0  0  0  0  0  0  0  0  0  0  0
   -5.9562    0.0881   -2.0888 H   0  0  0  0  0  0  0  0  0  0  0  0
   -2.6043   -2.2895   -0.3769 H   0  0  0  0  0  0  0  0  0  0  0  0
   -1.3446    0.4567   -0.6136 H   0  0  0  0  0  0  0  0  0  0  0  0
   -3.5714    0.0682   -4.4613 H   0  0  0  0  0  0  0  0  0  0  0  0
   -3.4530    1.8344   -4.3916 H   0  0  0  0  0  0  0  0  0  0  0  0
   -1.9884    0.8835   -4.7160 H   0  0  0  0  0  0  0  0  0  0  0  0
   -1.0439   -2.6380   -2.7368 H   0  0  0  0  0  0  0  0  0  0  0  0
   -0.8116   -3.3906   -1.1400 H   0  0  0  0  0  0  0  0  0  0  0  0
    0.5710   -3.0795   -2.1998 H   0  0  0  0  0  0  0  0  0  0  0  0
    1.8385   -1.5144   -1.2133 H   0  0  0  0  0  0  0  0  0  0  0  0
    0.7946    0.4056    0.6640 H   0  0  0  0  0  0  0  0  0  0  0  0
    2.9478    1.0510    1.1776 H   0  0  0  0  0  0  0  0  0  0  0  0
    2.8955   -3.2464    3.5334 H   0  0  0  0  0  0  0  0  0  0  0  0
    3.7680   -5.5596    3.6066 H   0  0  0  0  0  0  0  0  0  0  0  0
    5.1027   -6.4461    1.7145 H   0  0  0  0  0  0  0  0  0  0  0  0
    5.5725   -5.0165   -0.2550 H   0  0  0  0  0  0  0  0  0  0  0  0
    4.7152   -2.7090   -0.3446 H   0  0  0  0  0  0  0  0  0  0  0  0
    4.0219    2.2298   -0.3153 H   0  0  0  0  0  0  0  0  0  0  0  0
    5.6018    0.3879   -0.7446 H   0  0  0  0  0  0  0  0  0  0  0  0
    4.5511   -0.2589   -2.0250 H   0  0  0  0  0  0  0  0  0  0  0  0
    5.3048    1.3403   -2.2087 H   0  0  0  0  0  0  0  0  0  0  0  0
    2.5282    1.0406   -2.6559 H   0  0  0  0  0  0  0  0  0  0  0  0
    2.8096    2.7187   -2.2785 H   0  0  0  0  0  0  0  0  0  0  0  0
    0.3200    0.9082   -2.5588 H   0  0  0  0  0  0  0  0  0  0  0  0
    2.0579    3.4821    0.0451 H   0  0  0  0  0  0  0  0  0  0  0  0
   -0.8834    5.0565   -2.8703 H   0  0  0  0  0  0  0  0  0  0  0  0
   -0.5479    6.4538   -1.7909 H   0  0  0  0  0  0  0  0  0  0  0  0
    0.3789    6.2259   -3.3021 H   0  0  0  0  0  0  0  0  0  0  0  0
    1.0673    2.2984    1.8674 H   0  0  0  0  0  0  0  0  0  0  0  0
    1.2431    4.7624    1.9783 H   0  0  0  0  0  0  0  0  0  0  0  0
   -0.0773    4.1414    2.9732 H   0  0  0  0  0  0  0  0  0  0  0  0
   -0.4386    4.9240    1.4307 H   0  0  0  0  0  0  0  0  0  0  0  0
   -1.7335    2.7203    0.6026 H   0  0  0  0  0  0  0  0  0  0  0  0
   -0.4636    0.7054    2.5492 H   0  0  0  0  0  0  0  0  0  0  0  0
   -3.7739   -0.3439    3.7502 H   0  0  0  0  0  0  0  0  0  0  0  0
   -2.8612    1.1240    4.0918 H   0  0  0  0  0  0  0  0  0  0  0  0
   -2.0264   -0.4305    4.0236 H   0  0  0  0  0  0  0  0  0  0  0  0
   -4.7251    0.6408    1.6447 H   0  0  0  0  0  0  0  0  0  0  0  0
   -3.9032    2.1300    2.1056 H   0  0  0  0  0  0  0  0  0  0  0  0
   -3.6933    1.4803    0.4862 H   0  0  0  0  0  0  0  0  0  0  0  0
   -3.3854   -1.5899    1.7842 H   0  0  0  0  0  0  0  0  0  0  0  0
   -0.2245   -4.6041    2.9052 H   0  0  0  0  0  0  0  0  0  0  0  0
    0.4268   -2.9819    3.1233 H   0  0  0  0  0  0  0  0  0  0  0  0
    0.5070   -3.7754    1.5126 H   0  0  0  0  0  0  0  0  0  0  0  0
  1  2  1  0
  2  3  2  0
  2  4  1  0
  4  5  1  0
  5  6  1  0
  6  7  1  0
  7  8  1  0
  8  9  1  0
  8 10  2  0
  6 11  1  0
 11 12  1  0
 11 13  2  0
 13 14  1  0
 14 15  1  0
 15 16  1  0
 16 17  1  0
 17 18  2  0
 17 19  1  0
 19 20  2  0
 20 21  1  0
 21 22  2  0
 22 23  1  0
 23 24  2  0
 15 25  1  0
 25 26  1  0
 25 27  1  0
 27 28  1  0
 28 29  1  6
 28 30  1  0
 30 31  1  0
 31 32  1  0
 32 33  1  0
 32 34  2  0
 30 35  1  0
 35 36  1  0
 35 37  1  0
 37 38  2  0
 38 39  1  0
 39 40  1  0
 39 41  1  0
 39 42  1  0
 42 43  1  0
 43 44  1  0
 44 45  1  0
 44 46  2  0
 42  5  1  0
 28 14  1  0
 24 19  1  0
  1 47  1  0
  1 48  1  0
  1 49  1  0
  5 50  1  1
  6 51  1  1
  9 52  1  0
  9 53  1  0
  9 54  1  0
 12 55  1  0
 12 56  1  0
 12 57  1  0
 13 58  1  0
 14 59  1  1
 15 60  1  1
 20 61  1  0
 21 62  1  0
 22 63  1  0
 23 64  1  0
 24 65  1  0
 25 66  1  1
 26 67  1  0
 26 68  1  0
 26 69  1  0
 27 70  1  0
 27 71  1  0
 29 72  1  0
 30 73  1  1
 33 74  1  0
 33 75  1  0
 33 76  1  0
 35 77  1  1
 36 78  1  0
 36 79  1  0
 36 80  1  0
 37 81  1  0
 38 82  1  0
 40 83  1  0
 40 84  1  0
 40 85  1  0
 41 86  1  0
 41 87  1  0
 41 88  1  0
 42 89  1  1
 45 90  1  0
 45 91  1  0
 45 92  1  0
M  END
$$$$
