
     RDKit          3D

 40 41  0  0  0  0  0  0  0  0999 V2000
    5.9123    0.6451   -5.7220 C   0  0  0  0  0  0  0  0  0  0  0  0
    5.4293    0.7278   -4.2832 C   0  0  0  0  0  0  0  0  0  0  0  0
    4.0103    0.1846   -4.1368 C   0  0  0  0  0  0  0  0  0  0  0  0
    3.5036    0.2564   -2.7031 C   0  0  0  0  0  0  0  0  0  0  0  0
    4.1844    0.7085   -1.7908 O   0  0  0  0  0  0  0  0  0  0  0  0
    2.2144   -0.2447   -2.6001 N   0  0  0  0  0  0  0  0  0  0  0  0
    1.4208   -0.3434   -1.4391 C   0  0  0  0  0  0  0  0  0  0  0  0
    0.1364   -0.8840   -1.5872 C   0  0  0  0  0  0  0  0  0  0  0  0
   -0.7202   -1.0167   -0.4871 C   0  0  0  0  0  0  0  0  0  0  0  0
   -0.3002   -0.6013    0.7807 C   0  0  0  0  0  0  0  0  0  0  0  0
   -1.1666   -0.7186    1.9860 C   0  0  0  0  0  0  0  0  0  0  0  0
   -0.6868   -0.7188    3.1175 O   0  0  0  0  0  0  0  0  0  0  0  0
   -2.5301   -0.7928    1.7652 N   0  0  0  0  0  0  0  0  0  0  0  0
   -3.3575   -0.6522    2.9003 N   0  0  0  0  0  0  0  0  0  0  0  0
   -4.5056    0.1167    2.7608 C   0  0  0  0  0  0  0  0  0  0  0  0
   -4.8740    0.4681    1.6367 O   0  0  0  0  0  0  0  0  0  0  0  0
   -5.1805    0.4572    4.0062 C   0  0  0  0  0  0  0  0  0  0  0  0
   -4.9519    0.0166    5.2996 C   0  0  0  0  0  0  0  0  0  0  0  0
   -5.8440    0.6033    6.2463 C   0  0  0  0  0  0  0  0  0  0  0  0
   -6.7304    1.4696    5.6502 C   0  0  0  0  0  0  0  0  0  0  0  0
   -6.4898    1.5700    3.9625 S   0  0  0  0  0  0  0  0  0  0  0  0
    0.9866   -0.0757    0.9345 C   0  0  0  0  0  0  0  0  0  0  0  0
    1.8389    0.0560   -0.1691 C   0  0  0  0  0  0  0  0  0  0  0  0
    6.9301    1.0393   -5.8035 H   0  0  0  0  0  0  0  0  0  0  0  0
    5.2677    1.2293   -6.3864 H   0  0  0  0  0  0  0  0  0  0  0  0
    5.9203   -0.3913   -6.0742 H   0  0  0  0  0  0  0  0  0  0  0  0
    6.1142    0.1636   -3.6389 H   0  0  0  0  0  0  0  0  0  0  0  0
    5.4667    1.7714   -3.9487 H   0  0  0  0  0  0  0  0  0  0  0  0
    3.3257    0.7600   -4.7714 H   0  0  0  0  0  0  0  0  0  0  0  0
    3.9794   -0.8631   -4.4591 H   0  0  0  0  0  0  0  0  0  0  0  0
    1.7907   -0.5758   -3.4577 H   0  0  0  0  0  0  0  0  0  0  0  0
   -0.2168   -1.2168   -2.5605 H   0  0  0  0  0  0  0  0  0  0  0  0
   -1.6968   -1.4669   -0.6417 H   0  0  0  0  0  0  0  0  0  0  0  0
   -2.9426   -0.4511    0.8969 H   0  0  0  0  0  0  0  0  0  0  0  0
   -2.8653   -0.7015    3.7905 H   0  0  0  0  0  0  0  0  0  0  0  0
   -4.1880   -0.7005    5.5741 H   0  0  0  0  0  0  0  0  0  0  0  0
   -5.8366    0.3968    7.3100 H   0  0  0  0  0  0  0  0  0  0  0  0
   -7.5125    2.0482    6.1229 H   0  0  0  0  0  0  0  0  0  0  0  0
    1.3379    0.2400    1.9157 H   0  0  0  0  0  0  0  0  0  0  0  0
    2.8261    0.4739    0.0041 H   0  0  0  0  0  0  0  0  0  0  0  0
  1  2  1  0
  2  3  1  0
  3  4  1  0
  4  5  2  0
  4  6  1  0
  6  7  1  0
  7  8  2  0
  8  9  1  0
  9 10  2  0
 10 11  1  0
 11 12  2  0
 11 13  1  0
 13 14  1  0
 14 15  1  0
 15 16  2  0
 15 17  1  0
 17 18  2  0
 18 19  1  0
 19 20  2  0
 20 21  1  0
 10 22  1  0
 22 23  2  0
 23  7  1  0
 21 17  1  0
  1 24  1  0
  1 25  1  0
  1 26  1  0
  2 27  1  0
  2 28  1  0
  3 29  1  0
  3 30  1  0
  6 31  1  0
  8 32  1  0
  9 33  1  0
 13 34  1  0
 14 35  1  0
 18 36  1  0
 19 37  1  0
 20 38  1  0
 22 39  1  0
 23 40  1  0
M  END
$$$$
