
     RDKit          3D

 85 89  0  0  0  0  0  0  0  0999 V2000
    4.6457   -0.9123   -1.4574 C   0  0  0  0  0  0  0  0  0  0  0  0
    5.0892   -0.6290   -0.0261 C   0  0  0  0  0  0  0  0  0  0  0  0
    4.4418    0.6428    0.5569 C   0  0  0  0  0  0  0  0  0  0  0  0
    3.0243    0.5818    0.3499 O   0  0  0  0  0  0  0  0  0  0  0  0
    2.1868    0.3518    1.4856 C   0  0  0  0  0  0  0  0  0  0  0  0
    2.8599   -0.6067    2.4798 C   0  0  0  0  0  0  0  0  0  0  0  0
    4.2006   -0.0688    2.9861 C   0  0  0  0  0  0  0  0  0  0  0  0
    4.8325    0.9398    2.0181 C   0  0  0  0  0  0  0  0  0  0  0  0
    6.3407    1.0446    2.2473 C   0  0  0  0  0  0  0  0  0  0  0  0
    0.8870   -0.2762    0.9524 C   0  0  0  0  0  0  0  0  0  0  0  0
   -0.2946    0.0989    1.8329 C   0  0  0  0  0  0  0  0  0  0  0  0
   -0.4621    1.6208    1.8544 C   0  0  0  0  0  0  0  0  0  0  0  0
    0.8610    2.3792    1.7236 C   0  0  0  0  0  0  0  0  0  0  0  0
    1.1340    2.9717    0.3220 C   0  0  0  0  0  0  0  0  0  0  0  0
    0.1659    4.0620   -0.0714 C   0  0  0  0  0  0  0  0  0  0  0  0
   -0.5051    4.2175   -1.2338 C   0  0  0  0  0  0  0  0  0  0  0  0
   -1.3743    5.4358   -1.4155 C   0  0  0  0  0  0  0  0  0  0  0  0
   -0.3830    3.2961   -2.4394 C   0  0  0  0  0  0  0  0  0  0  0  0
   -1.6560    2.6074   -2.9988 C   0  0  0  0  0  0  0  0  0  0  0  0
   -2.4370    3.5092   -3.9639 C   0  0  0  0  0  0  0  0  0  0  0  0
   -2.5842    2.0688   -1.9341 C   0  0  0  0  0  0  0  0  0  0  0  0
   -2.6827    0.8139   -1.4709 C   0  0  0  0  0  0  0  0  0  0  0  0
   -1.8315   -0.2995   -1.8225 C   0  0  0  0  0  0  0  0  0  0  0  0
   -2.0181   -1.5751   -1.4367 C   0  0  0  0  0  0  0  0  0  0  0  0
   -1.0213   -2.6671   -1.7370 C   0  0  0  0  0  0  0  0  0  0  0  0
   -1.5898   -3.8732   -1.1962 O   0  0  0  0  0  0  0  0  0  0  0  0
   -3.0142   -3.6463   -1.2274 C   0  0  0  0  0  0  0  0  0  0  0  0
   -3.8050   -4.7278   -0.4786 C   0  0  0  0  0  0  0  0  0  0  0  0
   -3.1740   -5.9905   -0.7027 O   0  0  0  0  0  0  0  0  0  0  0  0
   -3.9564   -4.5096    1.0019 C   0  0  0  0  0  0  0  0  0  0  0  0
   -4.5297   -5.6518    1.7951 C   0  0  0  0  0  0  0  0  0  0  0  0
   -3.6481   -3.3404    1.5855 C   0  0  0  0  0  0  0  0  0  0  0  0
   -3.1252   -2.1215    0.8540 C   0  0  0  0  0  0  0  0  0  0  0  0
   -1.7433   -1.7787    1.4219 C   0  0  0  0  0  0  0  0  0  0  0  0
   -0.9424   -2.5654    1.9069 O   0  0  0  0  0  0  0  0  0  0  0  0
   -1.5370   -0.4341    1.3305 O   0  0  0  0  0  0  0  0  0  0  0  0
   -3.1781   -2.2197   -0.6979 C   0  0  0  0  0  0  0  0  0  0  0  0
   -4.4389   -1.7096   -1.1548 O   0  0  0  0  0  0  0  0  0  0  0  0
    1.9396    1.5720    2.1955 O   0  0  0  0  0  0  0  0  0  0  0  0
    3.5702   -1.1037   -1.5148 H   0  0  0  0  0  0  0  0  0  0  0  0
    5.1591   -1.7988   -1.8406 H   0  0  0  0  0  0  0  0  0  0  0  0
    4.8826   -0.0689   -2.1144 H   0  0  0  0  0  0  0  0  0  0  0  0
    4.8374   -1.5025    0.5828 H   0  0  0  0  0  0  0  0  0  0  0  0
    6.1805   -0.5320   -0.0153 H   0  0  0  0  0  0  0  0  0  0  0  0
    4.7864    1.4851   -0.0569 H   0  0  0  0  0  0  0  0  0  0  0  0
    3.0374   -1.5760    1.9969 H   0  0  0  0  0  0  0  0  0  0  0  0
    2.2130   -0.7988    3.3449 H   0  0  0  0  0  0  0  0  0  0  0  0
    4.0557    0.4184    3.9590 H   0  0  0  0  0  0  0  0  0  0  0  0
    4.8713   -0.9166    3.1700 H   0  0  0  0  0  0  0  0  0  0  0  0
    4.4146    1.9272    2.2612 H   0  0  0  0  0  0  0  0  0  0  0  0
    6.8435    0.0812    2.1124 H   0  0  0  0  0  0  0  0  0  0  0  0
    6.7910    1.7693    1.5586 H   0  0  0  0  0  0  0  0  0  0  0  0
    6.5505    1.3816    3.2690 H   0  0  0  0  0  0  0  0  0  0  0  0
    0.9992   -1.3621    0.8513 H   0  0  0  0  0  0  0  0  0  0  0  0
    0.6884    0.0509   -0.0763 H   0  0  0  0  0  0  0  0  0  0  0  0
   -0.1456   -0.2650    2.8572 H   0  0  0  0  0  0  0  0  0  0  0  0
   -1.1847    1.9548    1.1016 H   0  0  0  0  0  0  0  0  0  0  0  0
   -0.9275    1.8810    2.8145 H   0  0  0  0  0  0  0  0  0  0  0  0
    0.8142    3.2270    2.4200 H   0  0  0  0  0  0  0  0  0  0  0  0
    1.1619    2.1758   -0.4220 H   0  0  0  0  0  0  0  0  0  0  0  0
    2.1430    3.4062    0.3256 H   0  0  0  0  0  0  0  0  0  0  0  0
    0.0360    4.8242    0.6985 H   0  0  0  0  0  0  0  0  0  0  0  0
   -2.4336    5.1627   -1.3784 H   0  0  0  0  0  0  0  0  0  0  0  0
   -1.1651    5.9181   -2.3769 H   0  0  0  0  0  0  0  0  0  0  0  0
   -1.2033    6.1861   -0.6349 H   0  0  0  0  0  0  0  0  0  0  0  0
    0.3320    2.4949   -2.2282 H   0  0  0  0  0  0  0  0  0  0  0  0
    0.0897    3.8708   -3.2484 H   0  0  0  0  0  0  0  0  0  0  0  0
   -1.3041    1.7738   -3.6207 H   0  0  0  0  0  0  0  0  0  0  0  0
   -3.2326    2.9410   -4.4594 H   0  0  0  0  0  0  0  0  0  0  0  0
   -2.9108    4.3562   -3.4609 H   0  0  0  0  0  0  0  0  0  0  0  0
   -1.7807    3.9030   -4.7469 H   0  0  0  0  0  0  0  0  0  0  0  0
   -3.2709    2.7998   -1.5060 H   0  0  0  0  0  0  0  0  0  0  0  0
   -3.4411    0.6337   -0.7094 H   0  0  0  0  0  0  0  0  0  0  0  0
   -0.9280   -0.0615   -2.3814 H   0  0  0  0  0  0  0  0  0  0  0  0
   -0.0578   -2.4944   -1.2512 H   0  0  0  0  0  0  0  0  0  0  0  0
   -0.8828   -2.8000   -2.8139 H   0  0  0  0  0  0  0  0  0  0  0  0
   -3.3150   -3.7146   -2.2843 H   0  0  0  0  0  0  0  0  0  0  0  0
   -4.8153   -4.7825   -0.9038 H   0  0  0  0  0  0  0  0  0  0  0  0
   -2.2251   -5.8280   -0.5344 H   0  0  0  0  0  0  0  0  0  0  0  0
   -4.7421   -5.3636    2.8306 H   0  0  0  0  0  0  0  0  0  0  0  0
   -3.8312   -6.4941    1.8174 H   0  0  0  0  0  0  0  0  0  0  0  0
   -5.4711   -5.9886    1.3488 H   0  0  0  0  0  0  0  0  0  0  0  0
   -3.7778   -3.2280    2.6615 H   0  0  0  0  0  0  0  0  0  0  0  0
   -3.7910   -1.3019    1.1664 H   0  0  0  0  0  0  0  0  0  0  0  0
   -4.2973   -1.2521   -2.0039 H   0  0  0  0  0  0  0  0  0  0  0  0
  1  2  1  0
  2  3  1  0
  3  4  1  0
  4  5  1  0
  5  6  1  0
  6  7  1  0
  7  8  1  0
  8  9  1  0
  5 10  1  0
 10 11  1  0
 11 12  1  0
 12 13  1  0
 13 14  1  0
 14 15  1  0
 15 16  2  3
 16 17  1  0
 16 18  1  0
 18 19  1  0
 19 20  1  0
 19 21  1  0
 21 22  2  3
 22 23  1  0
 23 24  2  3
 24 25  1  0
 25 26  1  0
 26 27  1  0
 27 28  1  0
 28 29  1  0
 28 30  1  0
 30 31  1  0
 30 32  2  0
 32 33  1  0
 33 34  1  0
 34 35  2  0
 34 36  1  0
 33 37  1  0
 37 38  1  0
 13 39  1  0
  8  3  1  0
 36 11  1  0
 39  5  1  0
 37 24  1  0
 37 27  1  0
  1 40  1  0
  1 41  1  0
  1 42  1  0
  2 43  1  0
  2 44  1  0
  3 45  1  0
  6 46  1  0
  6 47  1  0
  7 48  1  0
  7 49  1  0
  8 50  1  0
  9 51  1  0
  9 52  1  0
  9 53  1  0
 10 54  1  0
 10 55  1  0
 11 56  1  0
 12 57  1  0
 12 58  1  0
 13 59  1  0
 14 60  1  0
 14 61  1  0
 15 62  1  0
 17 63  1  0
 17 64  1  0
 17 65  1  0
 18 66  1  0
 18 67  1  0
 19 68  1  0
 20 69  1  0
 20 70  1  0
 20 71  1  0
 21 72  1  0
 22 73  1  0
 23 74  1  0
 25 75  1  0
 25 76  1  0
 27 77  1  0
 28 78  1  0
 29 79  1  0
 31 80  1  0
 31 81  1  0
 31 82  1  0
 32 83  1  0
 33 84  1  0
 38 85  1  0
M  END
$$$$
