
     RDKit          3D

 47 51  0  0  0  0  0  0  0  0999 V2000
    1.1741   -1.1043   -1.5782 O   0  0  0  0  0  0  0  0  0  0  0  0
    1.4653   -0.4690   -0.5763 C   0  0  0  0  0  0  0  0  0  0  0  0
    0.6914   -0.2539    0.5285 O   0  0  0  0  0  0  0  0  0  0  0  0
   -0.6608   -0.5677    0.3096 C   0  0  0  0  0  0  0  0  0  0  0  0
   -1.5286    0.3026   -0.2649 C   0  0  0  0  0  0  0  0  0  0  0  0
   -1.0535    1.6290   -0.7011 C   0  0  0  0  0  0  0  0  0  0  0  0
   -0.7798    2.6309    0.2406 C   0  0  0  0  0  0  0  0  0  0  0  0
   -0.2730    3.8650   -0.1704 C   0  0  0  0  0  0  0  0  0  0  0  0
   -0.0395    4.1068   -1.5233 C   0  0  0  0  0  0  0  0  0  0  0  0
   -0.3142    3.1176   -2.4668 C   0  0  0  0  0  0  0  0  0  0  0  0
   -0.8193    1.8820   -2.0582 C   0  0  0  0  0  0  0  0  0  0  0  0
   -2.9807   -0.0812   -0.4753 C   0  0  0  0  0  0  0  0  0  0  0  0
   -3.7781    0.6770   -1.0210 O   0  0  0  0  0  0  0  0  0  0  0  0
   -3.3345   -1.3194   -0.0067 N   0  0  0  0  0  0  0  0  0  0  0  0
   -2.4406   -2.1750    0.6105 C   0  0  0  0  0  0  0  0  0  0  0  0
   -3.0524   -3.3548    1.0006 C   0  0  0  0  0  0  0  0  0  0  0  0
   -2.3017   -4.3210    1.6395 C   0  0  0  0  0  0  0  0  0  0  0  0
   -0.9405   -4.0591    1.8655 C   0  0  0  0  0  0  0  0  0  0  0  0
   -0.3461   -2.8450    1.4539 C   0  0  0  0  0  0  0  0  0  0  0  0
   -1.1095   -1.8732    0.8079 C   0  0  0  0  0  0  0  0  0  0  0  0
   -4.5022   -3.3338    0.6224 C   0  0  0  0  0  0  0  0  0  0  0  0
   -4.6518   -1.9501   -0.0591 C   0  0  0  0  0  0  0  0  0  0  0  0
    2.7908    0.1778   -0.3872 C   0  0  0  0  0  0  0  0  0  0  0  0
    3.8535   -0.2413   -1.2016 C   0  0  0  0  0  0  0  0  0  0  0  0
    5.1136    0.3500   -1.0841 C   0  0  0  0  0  0  0  0  0  0  0  0
    5.3207    1.3727   -0.1582 C   0  0  0  0  0  0  0  0  0  0  0  0
    4.2570    1.8010    0.6480 C   0  0  0  0  0  0  0  0  0  0  0  0
    4.4691    2.8883    1.6125 N   0  0  0  0  0  4  0  0  0  0  0  0
    3.5077    3.2288    2.3160 O   0  0  0  0  0  0  0  0  0  0  0  0
    5.5969    3.3978    1.6677 O   0  0  0  0  0  1  0  0  0  0  0  0
    2.9909    1.2088    0.5408 C   0  0  0  0  0  0  0  0  0  0  0  0
   -0.9597    2.4564    1.2991 H   0  0  0  0  0  0  0  0  0  0  0  0
   -0.0659    4.6390    0.5645 H   0  0  0  0  0  0  0  0  0  0  0  0
    0.3481    5.0705   -1.8441 H   0  0  0  0  0  0  0  0  0  0  0  0
   -0.1398    3.3080   -3.5227 H   0  0  0  0  0  0  0  0  0  0  0  0
   -1.0253    1.1159   -2.8034 H   0  0  0  0  0  0  0  0  0  0  0  0
   -2.7442   -5.2589    1.9599 H   0  0  0  0  0  0  0  0  0  0  0  0
   -0.3287   -4.8075    2.3662 H   0  0  0  0  0  0  0  0  0  0  0  0
    0.7112   -2.6836    1.6453 H   0  0  0  0  0  0  0  0  0  0  0  0
   -5.1432   -3.4049    1.5064 H   0  0  0  0  0  0  0  0  0  0  0  0
   -4.7427   -4.1414   -0.0757 H   0  0  0  0  0  0  0  0  0  0  0  0
   -4.9632   -2.0406   -1.1055 H   0  0  0  0  0  0  0  0  0  0  0  0
   -5.3758   -1.3131    0.4607 H   0  0  0  0  0  0  0  0  0  0  0  0
    3.7004   -1.0309   -1.9371 H   0  0  0  0  0  0  0  0  0  0  0  0
    5.9309    0.0164   -1.7207 H   0  0  0  0  0  0  0  0  0  0  0  0
    6.3072    1.8271   -0.0826 H   0  0  0  0  0  0  0  0  0  0  0  0
    2.1667    1.5599    1.1581 H   0  0  0  0  0  0  0  0  0  0  0  0
  1  2  2  0
  2  3  1  0
  3  4  1  0
  4  5  2  0
  5  6  1  0
  6  7  2  0
  7  8  1  0
  8  9  2  0
  9 10  1  0
 10 11  2  0
  5 12  1  0
 12 13  2  0
 12 14  1  0
 14 15  1  0
 15 16  2  0
 16 17  1  0
 17 18  2  0
 18 19  1  0
 19 20  2  0
 16 21  1  0
 21 22  1  0
  2 23  1  0
 23 24  2  0
 24 25  1  0
 25 26  2  0
 26 27  1  0
 27 28  1  0
 28 29  2  0
 28 30  1  0
 27 31  2  0
 20  4  1  0
 31 23  1  0
 11  6  1  0
 22 14  1  0
 20 15  1  0
  7 32  1  0
  8 33  1  0
  9 34  1  0
 10 35  1  0
 11 36  1  0
 17 37  1  0
 18 38  1  0
 19 39  1  0
 21 40  1  0
 21 41  1  0
 22 42  1  0
 22 43  1  0
 24 44  1  0
 25 45  1  0
 26 46  1  0
 31 47  1  0
M  CHG  2  28   1  30  -1
M  END
$$$$
