
     RDKit          3D

 51 55  0  0  0  0  0  0  0  0999 V2000
    0.9239    3.7446   -1.0339 O   0  0  0  0  0  0  0  0  0  0  0  0
    0.1279    2.8405   -0.7854 C   0  0  0  0  0  0  0  0  0  0  0  0
   -0.8374    2.9295    0.4005 C   0  0  0  0  0  0  0  0  0  0  0  0
   -1.2093    1.6170    0.9613 N   0  0  0  0  0  0  0  0  0  0  0  0
   -2.5522    1.2448    0.8941 C   0  0  0  0  0  0  0  0  0  0  0  0
   -3.3932    1.9153    0.2927 O   0  0  0  0  0  0  0  0  0  0  0  0
   -2.9827    0.0301    1.6882 C   0  0  0  0  0  0  0  0  0  0  0  0
   -2.7564   -1.2936    0.9742 C   0  0  0  0  0  0  0  0  0  0  0  0
   -3.8662   -1.6262    0.0278 C   0  0  0  0  0  0  0  0  0  0  0  0
   -4.7713   -2.6677   -0.0339 C   0  0  0  0  0  0  0  0  0  0  0  0
   -5.5878   -2.4230   -1.1645 C   0  0  0  0  0  0  0  0  0  0  0  0
   -5.1312   -1.2520   -1.7206 C   0  0  0  0  0  0  0  0  0  0  0  0
   -4.0856   -0.7645   -1.0073 O   0  0  0  0  0  0  0  0  0  0  0  0
   -1.1555   -1.4461    0.1052 S   0  0  0  0  0  0  0  0  0  0  0  0
   -0.0869   -0.5941    1.2577 C   0  0  0  0  0  0  0  0  0  0  0  0
    0.9732   -1.3451    1.7890 C   0  0  0  0  0  0  0  0  0  0  0  0
    1.9529   -0.7394    2.5716 C   0  0  0  0  0  0  0  0  0  0  0  0
    1.8936    0.6271    2.8113 C   0  0  0  0  0  0  0  0  0  0  0  0
    0.8496    1.3877    2.2783 C   0  0  0  0  0  0  0  0  0  0  0  0
   -0.1661    0.7939    1.5095 C   0  0  0  0  0  0  0  0  0  0  0  0
   -0.0423    1.7426   -1.5995 N   0  0  0  0  0  0  0  0  0  0  0  0
    0.9135    1.4028   -2.6258 C   0  0  0  0  0  0  0  0  0  0  0  0
    1.9244    0.4169   -2.0928 C   0  0  0  0  0  0  0  0  0  0  0  0
    1.7609   -0.9691   -2.3201 C   0  0  0  0  0  0  0  0  0  0  0  0
    2.6595   -1.8976   -1.7848 C   0  0  0  0  0  0  0  0  0  0  0  0
    3.7030   -1.4153   -1.0260 C   0  0  0  0  0  0  0  0  0  0  0  0
    3.8708   -0.0704   -0.7966 C   0  0  0  0  0  0  0  0  0  0  0  0
    3.0032    0.8681   -1.3127 C   0  0  0  0  0  0  0  0  0  0  0  0
    4.9533    0.1919   -0.0165 O   0  0  0  0  0  0  0  0  0  0  0  0
    5.4564   -1.1409    0.2038 C   0  0  0  0  0  0  0  0  0  0  0  0
    4.6585   -2.1690   -0.4187 O   0  0  0  0  0  0  0  0  0  0  0  0
   -1.7208    3.4705    0.0450 H   0  0  0  0  0  0  0  0  0  0  0  0
   -0.3923    3.5474    1.1858 H   0  0  0  0  0  0  0  0  0  0  0  0
   -2.4643    0.0407    2.6557 H   0  0  0  0  0  0  0  0  0  0  0  0
   -4.0431    0.1570    1.9452 H   0  0  0  0  0  0  0  0  0  0  0  0
   -2.7512   -2.0754    1.7450 H   0  0  0  0  0  0  0  0  0  0  0  0
   -4.8340   -3.5007    0.6524 H   0  0  0  0  0  0  0  0  0  0  0  0
   -6.4083   -3.0236   -1.5305 H   0  0  0  0  0  0  0  0  0  0  0  0
   -5.4250   -0.6627   -2.5780 H   0  0  0  0  0  0  0  0  0  0  0  0
    1.0644   -2.4068    1.5673 H   0  0  0  0  0  0  0  0  0  0  0  0
    2.7749   -1.3296    2.9684 H   0  0  0  0  0  0  0  0  0  0  0  0
    2.6661    1.1089    3.4065 H   0  0  0  0  0  0  0  0  0  0  0  0
    0.8415    2.4496    2.5071 H   0  0  0  0  0  0  0  0  0  0  0  0
   -0.6451    0.9997   -1.2631 H   0  0  0  0  0  0  0  0  0  0  0  0
    0.3561    0.9671   -3.4618 H   0  0  0  0  0  0  0  0  0  0  0  0
    1.4198    2.2995   -2.9998 H   0  0  0  0  0  0  0  0  0  0  0  0
    0.9168   -1.3298   -2.9054 H   0  0  0  0  0  0  0  0  0  0  0  0
    2.5336   -2.9610   -1.9518 H   0  0  0  0  0  0  0  0  0  0  0  0
    3.1460    1.9246   -1.1059 H   0  0  0  0  0  0  0  0  0  0  0  0
    6.4769   -1.2011   -0.1918 H   0  0  0  0  0  0  0  0  0  0  0  0
    5.4873   -1.3288    1.2833 H   0  0  0  0  0  0  0  0  0  0  0  0
  1  2  2  0
  2  3  1  0
  3  4  1  0
  4  5  1  0
  5  6  2  0
  5  7  1  0
  7  8  1  0
  8  9  1  0
  9 10  2  0
 10 11  1  0
 11 12  2  0
 12 13  1  0
  8 14  1  0
 14 15  1  0
 15 16  2  0
 16 17  1  0
 17 18  2  0
 18 19  1  0
 19 20  2  0
  2 21  1  0
 21 22  1  0
 22 23  1  0
 23 24  2  0
 24 25  1  0
 25 26  2  0
 26 27  1  0
 27 28  2  0
 27 29  1  0
 29 30  1  0
 30 31  1  0
 20  4  1  0
 28 23  1  0
 13  9  1  0
 20 15  1  0
 31 26  1  0
  3 32  1  0
  3 33  1  0
  7 34  1  0
  7 35  1  0
  8 36  1  0
 10 37  1  0
 11 38  1  0
 12 39  1  0
 16 40  1  0
 17 41  1  0
 18 42  1  0
 19 43  1  0
 21 44  1  0
 22 45  1  0
 22 46  1  0
 24 47  1  0
 25 48  1  0
 28 49  1  0
 30 50  1  0
 30 51  1  0
M  END
$$$$
