
     RDKit          3D

 39 40  0  0  0  0  0  0  0  0999 V2000
   -3.6631    1.3907   -0.3550 C   0  0  0  0  0  0  0  0  0  0  0  0
   -3.0708    1.4685    1.0256 C   0  0  0  0  0  0  0  0  0  0  0  0
   -3.7520    1.3090    2.0325 O   0  0  0  0  0  0  0  0  0  0  0  0
   -1.7416    1.7928    1.0331 N   0  0  0  0  0  0  0  0  0  0  0  0
   -0.9314    1.0558    1.7362 C   0  0  0  0  0  0  0  0  0  0  0  0
   -1.2406   -0.1820    2.5487 C   0  0  0  0  0  0  0  0  0  0  0  0
   -1.5202   -1.3893    1.6856 C   0  0  0  0  0  0  0  0  0  0  0  0
   -0.4882   -2.0080    0.9650 C   0  0  0  0  0  0  0  0  0  0  0  0
   -0.7541   -3.1142    0.1562 C   0  0  0  0  0  0  0  0  0  0  0  0
   -2.0507   -3.6157    0.0627 C   0  0  0  0  0  0  0  0  0  0  0  0
   -3.0820   -3.0148    0.7811 C   0  0  0  0  0  0  0  0  0  0  0  0
   -2.8186   -1.9086    1.5899 C   0  0  0  0  0  0  0  0  0  0  0  0
    0.5325    1.4434    1.7281 C   0  0  0  0  0  0  0  0  0  0  0  0
    1.0980    1.8762    2.7141 O   0  0  0  0  0  0  0  0  0  0  0  0
    1.0515    1.1790    0.5155 O   0  0  0  0  0  0  0  0  0  0  0  0
    2.4351    1.5198    0.4029 C   0  0  0  0  0  0  0  0  0  0  0  0
    2.9002    1.2092   -0.9980 C   0  0  0  0  0  0  0  0  0  0  0  0
    2.7110   -0.0671   -1.5496 C   0  0  0  0  0  0  0  0  0  0  0  0
    3.1564   -0.3566   -2.8407 C   0  0  0  0  0  0  0  0  0  0  0  0
    3.8002    0.6242   -3.5926 C   0  0  0  0  0  0  0  0  0  0  0  0
    4.0013    1.8934   -3.0535 C   0  0  0  0  0  0  0  0  0  0  0  0
    3.5560    2.1848   -1.7625 C   0  0  0  0  0  0  0  0  0  0  0  0
   -3.7595    2.3974   -0.7698 H   0  0  0  0  0  0  0  0  0  0  0  0
   -4.6499    0.9228   -0.3054 H   0  0  0  0  0  0  0  0  0  0  0  0
   -3.0242    0.7814   -1.0003 H   0  0  0  0  0  0  0  0  0  0  0  0
   -2.0746    0.0215    3.2281 H   0  0  0  0  0  0  0  0  0  0  0  0
   -0.3900   -0.4138    3.2022 H   0  0  0  0  0  0  0  0  0  0  0  0
    0.5331   -1.6408    1.0293 H   0  0  0  0  0  0  0  0  0  0  0  0
    0.0513   -3.5887   -0.3987 H   0  0  0  0  0  0  0  0  0  0  0  0
   -2.2568   -4.4783   -0.5657 H   0  0  0  0  0  0  0  0  0  0  0  0
   -4.0930   -3.4088    0.7138 H   0  0  0  0  0  0  0  0  0  0  0  0
   -3.6372   -1.4549    2.1470 H   0  0  0  0  0  0  0  0  0  0  0  0
    2.5643    2.5871    0.6194 H   0  0  0  0  0  0  0  0  0  0  0  0
    3.0294    0.9324    1.1134 H   0  0  0  0  0  0  0  0  0  0  0  0
    2.2082   -0.8423   -0.9766 H   0  0  0  0  0  0  0  0  0  0  0  0
    2.9986   -1.3464   -3.2614 H   0  0  0  0  0  0  0  0  0  0  0  0
    4.1446    0.4003   -4.5990 H   0  0  0  0  0  0  0  0  0  0  0  0
    4.5040    2.6582   -3.6402 H   0  0  0  0  0  0  0  0  0  0  0  0
    3.7223    3.1822   -1.3612 H   0  0  0  0  0  0  0  0  0  0  0  0
  1  2  1  0
  2  3  2  0
  2  4  1  0
  4  5  2  3
  5  6  1  0
  6  7  1  0
  7  8  2  0
  8  9  1  0
  9 10  2  0
 10 11  1  0
 11 12  2  0
  5 13  1  0
 13 14  2  0
 13 15  1  0
 15 16  1  0
 16 17  1  0
 17 18  2  0
 18 19  1  0
 19 20  2  0
 20 21  1  0
 21 22  2  0
 12  7  1  0
 22 17  1  0
  1 23  1  0
  1 24  1  0
  1 25  1  0
  6 26  1  0
  6 27  1  0
  8 28  1  0
  9 29  1  0
 10 30  1  0
 11 31  1  0
 12 32  1  0
 16 33  1  0
 16 34  1  0
 18 35  1  0
 19 36  1  0
 20 37  1  0
 21 38  1  0
 22 39  1  0
M  END
$$$$
