
     RDKit          3D

 37 40  0  0  0  0  0  0  0  0999 V2000
   -2.1153    0.9333    2.2860 C   0  0  0  0  0  0  0  0  0  0  0  0
   -2.9190    1.0260    1.0012 C   0  0  0  0  0  0  0  0  0  0  0  0
   -2.8362   -0.2399    0.3420 O   0  0  0  0  0  0  0  0  0  0  0  0
   -3.1668   -0.2276   -0.9916 C   0  0  0  0  0  0  0  0  0  0  0  0
   -4.1506    0.6061   -1.5328 C   0  0  0  0  0  0  0  0  0  0  0  0
   -4.4559    0.5421   -2.8942 C   0  0  0  0  0  0  0  0  0  0  0  0
   -3.7908   -0.3615   -3.7196 C   0  0  0  0  0  0  0  0  0  0  0  0
   -2.8193   -1.2082   -3.1855 C   0  0  0  0  0  0  0  0  0  0  0  0
   -2.4989   -1.1468   -1.8226 C   0  0  0  0  0  0  0  0  0  0  0  0
   -1.4840   -2.0727   -1.3032 C   0  0  0  0  0  0  0  0  0  0  0  0
   -0.2891   -1.7213   -0.8060 C   0  0  0  0  0  0  0  0  0  0  0  0
    0.8109   -2.9244   -0.1286 S   0  0  0  0  0  0  0  0  0  0  0  0
    1.9010   -1.6762    0.3019 C   0  0  0  0  0  0  0  0  0  0  0  0
    3.0562   -1.6243    0.8992 N   0  0  0  0  0  0  0  0  0  0  0  0
    3.3197   -0.2615    0.8658 C   0  0  0  0  0  0  0  0  0  0  0  0
    4.6261    0.3439    1.4757 C   0  0  0  0  0  0  0  0  0  0  0  0
    5.6289   -0.3789    2.0936 C   0  0  0  0  0  0  0  0  0  0  0  0
    6.6163    0.5537    2.4946 C   0  0  0  0  0  0  0  0  0  0  0  0
    6.1572    1.7870    2.0980 C   0  0  0  0  0  0  0  0  0  0  0  0
    4.9539    1.6715    1.4808 O   0  0  0  0  0  0  0  0  0  0  0  0
    2.3729    0.4929    0.2724 N   0  0  0  0  0  0  0  0  0  0  0  0
    1.4808   -0.4520   -0.0713 N   0  0  0  0  0  0  0  0  0  0  0  0
    0.2735   -0.3301   -0.7269 C   0  0  0  0  0  0  0  0  0  0  0  0
   -0.1545    0.7315   -1.1386 O   0  0  0  0  0  0  0  0  0  0  0  0
   -2.1537    1.8761    2.8387 H   0  0  0  0  0  0  0  0  0  0  0  0
   -1.0691    0.6928    2.0699 H   0  0  0  0  0  0  0  0  0  0  0  0
   -2.5007    0.1322    2.9252 H   0  0  0  0  0  0  0  0  0  0  0  0
   -2.5038    1.8261    0.3764 H   0  0  0  0  0  0  0  0  0  0  0  0
   -3.9636    1.2474    1.2462 H   0  0  0  0  0  0  0  0  0  0  0  0
   -4.7033    1.3044   -0.9130 H   0  0  0  0  0  0  0  0  0  0  0  0
   -5.2182    1.1967   -3.3095 H   0  0  0  0  0  0  0  0  0  0  0  0
   -4.0309   -0.4088   -4.7788 H   0  0  0  0  0  0  0  0  0  0  0  0
   -2.3122   -1.9111   -3.8424 H   0  0  0  0  0  0  0  0  0  0  0  0
   -1.7906   -3.1165   -1.3193 H   0  0  0  0  0  0  0  0  0  0  0  0
    5.6372   -1.4513    2.2330 H   0  0  0  0  0  0  0  0  0  0  0  0
    7.5460    0.3527    3.0080 H   0  0  0  0  0  0  0  0  0  0  0  0
    6.5460    2.7929    2.1753 H   0  0  0  0  0  0  0  0  0  0  0  0
  1  2  1  0
  2  3  1  0
  3  4  1  0
  4  5  2  0
  5  6  1  0
  6  7  2  0
  7  8  1  0
  8  9  2  0
  9 10  1  0
 10 11  2  3
 11 12  1  0
 12 13  1  0
 13 14  2  0
 14 15  1  0
 15 16  1  0
 16 17  2  0
 17 18  1  0
 18 19  2  0
 19 20  1  0
 15 21  2  0
 21 22  1  0
 22 23  1  0
 23 24  2  0
  9  4  1  0
 23 11  1  0
 22 13  1  0
 20 16  1  0
  1 25  1  0
  1 26  1  0
  1 27  1  0
  2 28  1  0
  2 29  1  0
  5 30  1  0
  6 31  1  0
  7 32  1  0
  8 33  1  0
 10 34  1  0
 17 35  1  0
 18 36  1  0
 19 37  1  0
M  END
$$$$
