
     RDKit          3D

 45 44  0  0  0  0  0  0  0  0999 V2000
    5.9580   -2.6243    2.3256 C   0  0  0  0  0  0  0  0  0  0  0  0
    4.4427   -2.5339    2.2344 C   0  0  0  0  0  0  0  0  0  0  0  0
    3.9458   -2.8847    0.8302 C   0  0  0  0  0  0  0  0  0  0  0  0
    2.4215   -2.8516    0.7234 C   0  0  0  0  0  0  0  0  0  0  0  0
    1.8799   -1.5265    0.9094 N   0  0  0  0  0  0  0  0  0  0  0  0
    1.8252   -0.6016   -0.0860 C   0  0  0  0  0  0  0  0  0  0  0  0
    2.1864   -0.7740   -1.2396 O   0  0  0  0  0  0  0  0  0  0  0  0
    1.3119    0.5504    0.4102 O   0  0  0  0  0  0  0  0  0  0  0  0
    1.1538    1.6090   -0.5515 C   0  0  0  0  0  0  0  0  0  0  0  0
   -0.1523    1.4364   -1.3523 C   0  0  0  0  0  0  0  0  0  0  0  0
   -0.2379    2.5076   -2.4524 C   0  0  0  0  0  0  0  0  0  0  0  0
   -1.4156    2.3098   -3.3976 C   0  0  0  0  0  0  0  0  0  0  0  0
   -1.3005    1.5221   -0.4538 N   0  0  0  0  0  0  0  0  0  0  0  0
   -2.3818    0.7011   -0.5289 C   0  0  0  0  0  0  0  0  0  0  0  0
   -2.5231   -0.2239   -1.3121 O   0  0  0  0  0  0  0  0  0  0  0  0
   -3.2850    1.0887    0.4043 O   0  0  0  0  0  0  0  0  0  0  0  0
   -4.5072    0.3296    0.4513 C   0  0  0  0  0  0  0  0  0  0  0  0
   -5.0770    0.4832    1.8564 C   0  0  0  0  0  0  0  0  0  0  0  0
   -5.4838    0.8689   -0.5880 C   0  0  0  0  0  0  0  0  0  0  0  0
    6.2927   -2.3702    3.3362 H   0  0  0  0  0  0  0  0  0  0  0  0
    6.3053   -3.6371    2.0975 H   0  0  0  0  0  0  0  0  0  0  0  0
    6.4350   -1.9311    1.6253 H   0  0  0  0  0  0  0  0  0  0  0  0
    3.9974   -3.2163    2.9678 H   0  0  0  0  0  0  0  0  0  0  0  0
    4.1312   -1.5185    2.5042 H   0  0  0  0  0  0  0  0  0  0  0  0
    4.2909   -3.8922    0.5678 H   0  0  0  0  0  0  0  0  0  0  0  0
    4.3877   -2.1941    0.1016 H   0  0  0  0  0  0  0  0  0  0  0  0
    1.9651   -3.5023    1.4765 H   0  0  0  0  0  0  0  0  0  0  0  0
    2.1191   -3.2147   -0.2654 H   0  0  0  0  0  0  0  0  0  0  0  0
    1.5780   -1.2175    1.8222 H   0  0  0  0  0  0  0  0  0  0  0  0
    1.1300    2.5463    0.0167 H   0  0  0  0  0  0  0  0  0  0  0  0
    2.0303    1.6607   -1.2092 H   0  0  0  0  0  0  0  0  0  0  0  0
   -0.1617    0.4436   -1.8170 H   0  0  0  0  0  0  0  0  0  0  0  0
   -0.3080    3.5057   -2.0026 H   0  0  0  0  0  0  0  0  0  0  0  0
    0.6829    2.4882   -3.0481 H   0  0  0  0  0  0  0  0  0  0  0  0
   -2.3711    2.4363   -2.8802 H   0  0  0  0  0  0  0  0  0  0  0  0
   -1.3939    1.3130   -3.8493 H   0  0  0  0  0  0  0  0  0  0  0  0
   -1.3763    3.0480   -4.2051 H   0  0  0  0  0  0  0  0  0  0  0  0
   -1.3685    2.2698    0.2218 H   0  0  0  0  0  0  0  0  0  0  0  0
   -4.3072   -0.7342    0.2735 H   0  0  0  0  0  0  0  0  0  0  0  0
   -6.0142   -0.0704    1.9688 H   0  0  0  0  0  0  0  0  0  0  0  0
   -4.3620    0.1131    2.5992 H   0  0  0  0  0  0  0  0  0  0  0  0
   -5.2599    1.5370    2.0944 H   0  0  0  0  0  0  0  0  0  0  0  0
   -5.6630    1.9394   -0.4382 H   0  0  0  0  0  0  0  0  0  0  0  0
   -6.4420    0.3424   -0.5418 H   0  0  0  0  0  0  0  0  0  0  0  0
   -5.0790    0.7582   -1.5993 H   0  0  0  0  0  0  0  0  0  0  0  0
  1  2  1  0
  2  3  1  0
  3  4  1  0
  4  5  1  0
  5  6  1  0
  6  7  2  0
  6  8  1  0
  8  9  1  0
  9 10  1  0
 10 11  1  0
 11 12  1  0
 10 13  1  0
 13 14  1  0
 14 15  2  0
 14 16  1  0
 16 17  1  0
 17 18  1  0
 17 19  1  0
  1 20  1  0
  1 21  1  0
  1 22  1  0
  2 23  1  0
  2 24  1  0
  3 25  1  0
  3 26  1  0
  4 27  1  0
  4 28  1  0
  5 29  1  0
  9 30  1  0
  9 31  1  0
 10 32  1  0
 11 33  1  0
 11 34  1  0
 12 35  1  0
 12 36  1  0
 12 37  1  0
 13 38  1  0
 17 39  1  0
 18 40  1  0
 18 41  1  0
 18 42  1  0
 19 43  1  0
 19 44  1  0
 19 45  1  0
M  END
$$$$
