
     RDKit          3D

 51 53  0  0  0  0  0  0  0  0999 V2000
    6.8573   -2.0628    1.8336 C   0  0  0  0  0  0  0  0  0  0  0  0
    6.6258   -1.8683    0.4449 O   0  0  0  0  0  0  0  0  0  0  0  0
    5.8152   -0.8242    0.0774 C   0  0  0  0  0  0  0  0  0  0  0  0
    5.3787    0.1782    0.9500 C   0  0  0  0  0  0  0  0  0  0  0  0
    4.5504    1.2062    0.4914 C   0  0  0  0  0  0  0  0  0  0  0  0
    4.1498    1.2477   -0.8482 C   0  0  0  0  0  0  0  0  0  0  0  0
    3.2389    2.3382   -1.3558 C   0  0  0  0  0  0  0  0  0  0  0  0
    1.8148    1.8452   -1.5679 C   0  0  0  0  0  0  0  0  0  0  0  0
    1.4506    1.4359   -2.6671 O   0  0  0  0  0  0  0  0  0  0  0  0
    1.0476    1.9159   -0.4150 N   0  0  0  0  0  0  0  0  0  0  0  0
   -0.2866    1.4971   -0.2426 C   0  0  0  0  0  0  0  0  0  0  0  0
   -0.8492    1.6693    1.0269 C   0  0  0  0  0  0  0  0  0  0  0  0
   -2.1624    1.2626    1.2948 C   0  0  0  0  0  0  0  0  0  0  0  0
   -2.9362    0.6751    0.2952 C   0  0  0  0  0  0  0  0  0  0  0  0
   -4.2535    0.2111    0.4891 N   0  0  0  0  0  0  0  0  0  0  0  0
   -5.0267    0.3401    1.6254 C   0  0  0  0  0  0  0  0  0  0  0  0
   -4.7474    0.9648    2.6432 O   0  0  0  0  0  0  0  0  0  0  0  0
   -6.3545   -0.3316    1.5527 C   0  0  0  0  0  0  0  0  0  0  0  0
   -7.4557    0.2970    2.1471 C   0  0  0  0  0  0  0  0  0  0  0  0
   -8.7163   -0.3053    2.1040 C   0  0  0  0  0  0  0  0  0  0  0  0
   -8.8711   -1.5415    1.4787 C   0  0  0  0  0  0  0  0  0  0  0  0
  -10.5762   -2.3588    1.4263 Br  0  0  0  0  0  0  0  0  0  0  0  0
   -7.7758   -2.1844    0.8969 C   0  0  0  0  0  0  0  0  0  0  0  0
   -6.5137   -1.5821    0.9363 C   0  0  0  0  0  0  0  0  0  0  0  0
   -2.3747    0.5055   -0.9758 C   0  0  0  0  0  0  0  0  0  0  0  0
   -1.0622    0.9159   -1.2447 C   0  0  0  0  0  0  0  0  0  0  0  0
    4.5921    0.2439   -1.7261 C   0  0  0  0  0  0  0  0  0  0  0  0
    5.4234   -0.7884   -1.2760 C   0  0  0  0  0  0  0  0  0  0  0  0
    5.9078   -1.7974   -2.0739 O   0  0  0  0  0  0  0  0  0  0  0  0
    5.4231   -1.8715   -3.4082 C   0  0  0  0  0  0  0  0  0  0  0  0
    7.4077   -3.0047    1.9494 H   0  0  0  0  0  0  0  0  0  0  0  0
    5.9127   -2.1612    2.3907 H   0  0  0  0  0  0  0  0  0  0  0  0
    7.4793   -1.2539    2.2446 H   0  0  0  0  0  0  0  0  0  0  0  0
    5.6728    0.1899    1.9943 H   0  0  0  0  0  0  0  0  0  0  0  0
    4.2292    1.9705    1.1942 H   0  0  0  0  0  0  0  0  0  0  0  0
    3.6177    2.7229   -2.3102 H   0  0  0  0  0  0  0  0  0  0  0  0
    3.2383    3.1972   -0.6708 H   0  0  0  0  0  0  0  0  0  0  0  0
    1.5039    2.2752    0.4150 H   0  0  0  0  0  0  0  0  0  0  0  0
   -0.2783    2.1166    1.8385 H   0  0  0  0  0  0  0  0  0  0  0  0
   -2.5433    1.4093    2.3021 H   0  0  0  0  0  0  0  0  0  0  0  0
   -4.6860   -0.2238   -0.3167 H   0  0  0  0  0  0  0  0  0  0  0  0
   -7.3315    1.2587    2.6420 H   0  0  0  0  0  0  0  0  0  0  0  0
   -9.5643    0.1941    2.5651 H   0  0  0  0  0  0  0  0  0  0  0  0
   -7.8931   -3.1576    0.4255 H   0  0  0  0  0  0  0  0  0  0  0  0
   -5.6630   -2.1120    0.5131 H   0  0  0  0  0  0  0  0  0  0  0  0
   -2.9437    0.0492   -1.7838 H   0  0  0  0  0  0  0  0  0  0  0  0
   -0.6769    0.7564   -2.2476 H   0  0  0  0  0  0  0  0  0  0  0  0
    4.2687    0.2911   -2.7639 H   0  0  0  0  0  0  0  0  0  0  0  0
    5.8774   -2.7484   -3.8790 H   0  0  0  0  0  0  0  0  0  0  0  0
    4.3361   -2.0108   -3.4270 H   0  0  0  0  0  0  0  0  0  0  0  0
    5.7230   -0.9919   -3.9890 H   0  0  0  0  0  0  0  0  0  0  0  0
  1  2  1  0
  2  3  1  0
  3  4  2  0
  4  5  1  0
  5  6  2  0
  6  7  1  0
  7  8  1  0
  8  9  2  0
  8 10  1  0
 10 11  1  0
 11 12  2  0
 12 13  1  0
 13 14  2  0
 14 15  1  0
 15 16  1  0
 16 17  2  0
 16 18  1  0
 18 19  2  0
 19 20  1  0
 20 21  2  0
 21 22  1  0
 21 23  1  0
 23 24  2  0
 14 25  1  0
 25 26  2  0
  6 27  1  0
 27 28  2  0
 28 29  1  0
 29 30  1  0
 28  3  1  0
 26 11  1  0
 24 18  1  0
  1 31  1  0
  1 32  1  0
  1 33  1  0
  4 34  1  0
  5 35  1  0
  7 36  1  0
  7 37  1  0
 10 38  1  0
 12 39  1  0
 13 40  1  0
 15 41  1  0
 19 42  1  0
 20 43  1  0
 23 44  1  0
 24 45  1  0
 25 46  1  0
 26 47  1  0
 27 48  1  0
 30 49  1  0
 30 50  1  0
 30 51  1  0
M  END
$$$$
