
     RDKit          3D

 46 48  0  0  0  0  0  0  0  0999 V2000
    4.1444    1.8230   -0.9168 C   0  0  0  0  0  0  0  0  0  0  0  0
    3.3169    1.7736   -2.1920 C   0  0  0  0  0  0  0  0  0  0  0  0
    1.8277    1.3930   -1.9551 N   0  0  0  0  0  4  0  0  0  0  0  0
    1.1549    1.4092   -3.3310 C   0  0  0  0  0  0  0  0  0  0  0  0
    1.1695    2.4521   -1.0746 C   0  0  0  0  0  0  0  0  0  0  0  0
    1.7599   -0.0147   -1.3137 C   0  0  0  0  0  0  0  0  0  0  0  0
    0.4064   -0.7467   -1.3662 C   0  0  0  0  0  0  0  0  0  0  0  0
   -0.7151   -0.1687   -0.5410 C   0  0  0  0  0  0  0  0  0  0  0  0
   -1.2260   -0.6202    0.6289 C   0  0  0  0  0  0  0  0  0  0  0  0
   -2.5210   -0.0354    1.0776 C   0  0  0  0  0  0  0  0  0  0  0  0
   -2.7226    1.3500    1.1763 C   0  0  0  0  0  0  0  0  0  0  0  0
   -3.9534    1.8555    1.5994 C   0  0  0  0  0  0  0  0  0  0  0  0
   -4.9889    0.9851    1.9332 C   0  0  0  0  0  0  0  0  0  0  0  0
   -4.7950   -0.3947    1.8578 C   0  0  0  0  0  0  0  0  0  0  0  0
   -3.5626   -0.9126    1.4435 C   0  0  0  0  0  0  0  0  0  0  0  0
   -3.3589   -2.6951    1.3882 S   0  0  0  0  0  0  0  0  0  0  0  0
   -1.5993   -2.8380    1.6996 C   0  0  0  0  0  0  0  0  0  0  0  0
   -1.1282   -3.9868    2.3486 C   0  0  0  0  0  0  0  0  0  0  0  0
    0.2261   -4.1125    2.6637 C   0  0  0  0  0  0  0  0  0  0  0  0
    1.1043   -3.0807    2.3471 C   0  0  0  0  0  0  0  0  0  0  0  0
    2.7704   -3.2123    2.7538 Cl  0  0  0  0  0  0  0  0  0  0  0  0
    0.6489   -1.9332    1.6978 C   0  0  0  0  0  0  0  0  0  0  0  0
   -0.6978   -1.8190    1.3299 C   0  0  0  0  0  0  0  0  0  0  0  0
    3.7572    2.5533   -0.2013 H   0  0  0  0  0  0  0  0  0  0  0  0
    4.2039    0.8480   -0.4258 H   0  0  0  0  0  0  0  0  0  0  0  0
    5.1695    2.1219   -1.1612 H   0  0  0  0  0  0  0  0  0  0  0  0
    3.7303    1.0340   -2.8877 H   0  0  0  0  0  0  0  0  0  0  0  0
    3.3248    2.7536   -2.6834 H   0  0  0  0  0  0  0  0  0  0  0  0
    0.0791    1.2645   -3.2050 H   0  0  0  0  0  0  0  0  0  0  0  0
    1.5892    0.6083   -3.9362 H   0  0  0  0  0  0  0  0  0  0  0  0
    1.3382    2.3839   -3.7938 H   0  0  0  0  0  0  0  0  0  0  0  0
    1.4711    3.4395   -1.4375 H   0  0  0  0  0  0  0  0  0  0  0  0
    0.0854    2.3622   -1.1516 H   0  0  0  0  0  0  0  0  0  0  0  0
    1.4910    2.3070   -0.0402 H   0  0  0  0  0  0  0  0  0  0  0  0
    2.4950   -0.6259   -1.8513 H   0  0  0  0  0  0  0  0  0  0  0  0
    2.0974    0.0917   -0.2785 H   0  0  0  0  0  0  0  0  0  0  0  0
    0.0596   -0.8319   -2.4025 H   0  0  0  0  0  0  0  0  0  0  0  0
    0.5866   -1.7860   -1.0669 H   0  0  0  0  0  0  0  0  0  0  0  0
   -1.2596    0.6254   -1.0520 H   0  0  0  0  0  0  0  0  0  0  0  0
   -1.9248    2.0474    0.9408 H   0  0  0  0  0  0  0  0  0  0  0  0
   -4.1071    2.9296    1.6767 H   0  0  0  0  0  0  0  0  0  0  0  0
   -5.9477    1.3792    2.2637 H   0  0  0  0  0  0  0  0  0  0  0  0
   -5.6101   -1.0607    2.1338 H   0  0  0  0  0  0  0  0  0  0  0  0
   -1.8145   -4.7845    2.6274 H   0  0  0  0  0  0  0  0  0  0  0  0
    0.5802   -5.0060    3.1725 H   0  0  0  0  0  0  0  0  0  0  0  0
    1.3445   -1.1253    1.5053 H   0  0  0  0  0  0  0  0  0  0  0  0
  1  2  1  0
  2  3  1  0
  3  4  1  0
  3  5  1  0
  3  6  1  0
  6  7  1  0
  7  8  1  0
  8  9  2  3
  9 10  1  0
 10 11  2  0
 11 12  1  0
 12 13  2  0
 13 14  1  0
 14 15  2  0
 15 16  1  0
 16 17  1  0
 17 18  2  0
 18 19  1  0
 19 20  2  0
 20 21  1  0
 20 22  1  0
 22 23  2  0
 23  9  1  0
 15 10  1  0
 23 17  1  0
  1 24  1  0
  1 25  1  0
  1 26  1  0
  2 27  1  0
  2 28  1  0
  4 29  1  0
  4 30  1  0
  4 31  1  0
  5 32  1  0
  5 33  1  0
  5 34  1  0
  6 35  1  0
  6 36  1  0
  7 37  1  0
  7 38  1  0
  8 39  1  0
 11 40  1  0
 12 41  1  0
 13 42  1  0
 14 43  1  0
 18 44  1  0
 19 45  1  0
 22 46  1  0
M  CHG  1   3   1
M  END
$$$$
