
     RDKit          3D

 36 37  0  0  0  0  0  0  0  0999 V2000
   -7.0506    0.1012   -0.4839 C   0  0  0  0  0  0  0  0  0  0  0  0
   -6.4405    0.1966    0.7971 O   0  0  0  0  0  0  0  0  0  0  0  0
   -5.0742    0.1798    0.8362 C   0  0  0  0  0  0  0  0  0  0  0  0
   -4.5263    0.2797    2.1174 C   0  0  0  0  0  0  0  0  0  0  0  0
   -3.1412    0.2751    2.3037 C   0  0  0  0  0  0  0  0  0  0  0  0
   -2.2841    0.1696    1.2027 C   0  0  0  0  0  0  0  0  0  0  0  0
   -0.8164    0.1689    1.4502 C   0  0  0  0  0  0  0  0  0  0  0  0
   -0.3187    0.2602    2.5609 O   0  0  0  0  0  0  0  0  0  0  0  0
   -0.1348    0.0530    0.2833 O   0  0  0  0  0  0  0  0  0  0  0  0
    1.2935    0.0475    0.4333 C   0  0  0  0  0  0  0  0  0  0  0  0
    1.9157   -0.1153   -0.9508 C   0  0  0  0  0  0  0  0  0  0  0  0
    3.4210   -0.1299   -0.9029 C   0  0  0  0  0  0  0  0  0  0  0  0
    4.1144   -1.3326   -0.7036 C   0  0  0  0  0  0  0  0  0  0  0  0
    5.5098   -1.3447   -0.6398 C   0  0  0  0  0  0  0  0  0  0  0  0
    6.2110   -0.1509   -0.7720 C   0  0  0  0  0  0  0  0  0  0  0  0
    7.5729   -0.1166   -0.7156 O   0  0  0  0  0  0  0  0  0  0  0  0
    5.5406    1.0504   -0.9648 C   0  0  0  0  0  0  0  0  0  0  0  0
    4.1465    1.0628   -1.0280 C   0  0  0  0  0  0  0  0  0  0  0  0
   -2.8326    0.0694   -0.0827 C   0  0  0  0  0  0  0  0  0  0  0  0
   -4.2222    0.0746   -0.2639 C   0  0  0  0  0  0  0  0  0  0  0  0
   -6.8040   -0.8492   -0.9686 H   0  0  0  0  0  0  0  0  0  0  0  0
   -8.1351    0.1303   -0.3407 H   0  0  0  0  0  0  0  0  0  0  0  0
   -6.7752    0.9515   -1.1164 H   0  0  0  0  0  0  0  0  0  0  0  0
   -5.1841    0.3622    2.9798 H   0  0  0  0  0  0  0  0  0  0  0  0
   -2.7376    0.3544    3.3113 H   0  0  0  0  0  0  0  0  0  0  0  0
    1.5897   -0.7841    1.0844 H   0  0  0  0  0  0  0  0  0  0  0  0
    1.6149    0.9926    0.8878 H   0  0  0  0  0  0  0  0  0  0  0  0
    1.5682    0.6892   -1.6120 H   0  0  0  0  0  0  0  0  0  0  0  0
    1.5471   -1.0375   -1.4189 H   0  0  0  0  0  0  0  0  0  0  0  0
    3.5703   -2.2686   -0.5963 H   0  0  0  0  0  0  0  0  0  0  0  0
    6.0258   -2.2870   -0.4865 H   0  0  0  0  0  0  0  0  0  0  0  0
    7.8983   -1.0196   -0.5690 H   0  0  0  0  0  0  0  0  0  0  0  0
    6.1013    1.9754   -1.0637 H   0  0  0  0  0  0  0  0  0  0  0  0
    3.6323    2.0099   -1.1753 H   0  0  0  0  0  0  0  0  0  0  0  0
   -2.1923   -0.0134   -0.9576 H   0  0  0  0  0  0  0  0  0  0  0  0
   -4.6038   -0.0050   -1.2767 H   0  0  0  0  0  0  0  0  0  0  0  0
  1  2  1  0
  2  3  1  0
  3  4  2  0
  4  5  1  0
  5  6  2  0
  6  7  1  0
  7  8  2  0
  7  9  1  0
  9 10  1  0
 10 11  1  0
 11 12  1  0
 12 13  2  0
 13 14  1  0
 14 15  2  0
 15 16  1  0
 15 17  1  0
 17 18  2  0
  6 19  1  0
 19 20  2  0
 20  3  1  0
 18 12  1  0
  1 21  1  0
  1 22  1  0
  1 23  1  0
  4 24  1  0
  5 25  1  0
 10 26  1  0
 10 27  1  0
 11 28  1  0
 11 29  1  0
 13 30  1  0
 14 31  1  0
 16 32  1  0
 17 33  1  0
 18 34  1  0
 19 35  1  0
 20 36  1  0
M  END
$$$$
