
     RDKit          3D

 57 60  0  0  0  0  0  0  0  0999 V2000
    7.6377    2.8366   -1.0201 C   0  0  0  0  0  0  0  0  0  0  0  0
    7.1377    2.9699    0.4022 C   0  0  0  0  0  0  0  0  0  0  0  0
    5.7229    3.1301    0.4335 O   0  0  0  0  0  0  0  0  0  0  0  0
    4.9467    2.0210    0.6090 C   0  0  0  0  0  0  0  0  0  0  0  0
    5.3531    0.6971    0.4607 C   0  0  0  0  0  0  0  0  0  0  0  0
    4.4436   -0.3534    0.6606 C   0  0  0  0  0  0  0  0  0  0  0  0
    3.1231   -0.0910    1.0202 C   0  0  0  0  0  0  0  0  0  0  0  0
    2.1630   -1.0862    1.2750 N   0  0  0  0  0  0  0  0  0  0  0  0
    2.2839   -2.4525    1.0959 C   0  0  0  0  0  0  0  0  0  0  0  0
    3.2515   -3.0391    0.6178 O   0  0  0  0  0  0  0  0  0  0  0  0
    1.0769   -3.2344    1.5881 C   0  0  0  0  0  0  0  0  0  0  0  0
   -0.2684   -3.2262    0.3710 S   0  0  0  0  0  0  0  0  0  0  0  0
   -1.0952   -1.7577    0.7826 C   0  0  0  0  0  0  0  0  0  0  0  0
   -0.5785   -0.8232    1.5427 N   0  0  0  0  0  0  0  0  0  0  0  0
   -1.5247    0.1344    1.7424 N   0  0  0  0  0  0  0  0  0  0  0  0
   -2.6148   -0.2166    1.0874 C   0  0  0  0  0  0  0  0  0  0  0  0
   -3.7990    0.6751    0.9173 C   0  0  0  0  0  0  0  0  0  0  0  0
   -3.9796    1.1527   -0.4889 C   0  0  0  0  0  0  0  0  0  0  0  0
   -4.9860    0.8456   -1.3853 C   0  0  0  0  0  0  0  0  0  0  0  0
   -4.7262    1.5353   -2.5848 C   0  0  0  0  0  0  0  0  0  0  0  0
   -3.5741    2.2560   -2.3959 C   0  0  0  0  0  0  0  0  0  0  0  0
   -3.1294    2.0293   -1.1217 N   0  0  0  0  0  0  0  0  0  0  0  0
   -1.9374    2.6316   -0.5696 C   0  0  0  0  0  0  0  0  0  0  0  0
   -2.4178   -1.4566    0.4828 N   0  0  0  0  0  0  0  0  0  0  0  0
   -3.3620   -2.2189   -0.2577 C   0  0  0  0  0  0  0  0  0  0  0  0
   -2.9964   -2.7980   -1.4818 C   0  0  0  0  0  0  0  0  0  0  0  0
   -3.9379   -3.5105   -2.2261 C   0  0  0  0  0  0  0  0  0  0  0  0
   -5.2326   -3.6461   -1.7467 C   0  0  0  0  0  0  0  0  0  0  0  0
   -6.1358   -4.3224   -2.4671 F   0  0  0  0  0  0  0  0  0  0  0  0
   -5.6045   -3.0928   -0.5257 C   0  0  0  0  0  0  0  0  0  0  0  0
   -4.6673   -2.3812    0.2264 C   0  0  0  0  0  0  0  0  0  0  0  0
    2.7147    1.2400    1.1566 C   0  0  0  0  0  0  0  0  0  0  0  0
    3.6199    2.2864    0.9421 C   0  0  0  0  0  0  0  0  0  0  0  0
    7.2794    1.9125   -1.4833 H   0  0  0  0  0  0  0  0  0  0  0  0
    8.7296    2.8309   -1.0465 H   0  0  0  0  0  0  0  0  0  0  0  0
    7.2697    3.6646   -1.6362 H   0  0  0  0  0  0  0  0  0  0  0  0
    7.5555    3.8851    0.8295 H   0  0  0  0  0  0  0  0  0  0  0  0
    7.4885    2.1517    1.0400 H   0  0  0  0  0  0  0  0  0  0  0  0
    6.3675    0.4368    0.1780 H   0  0  0  0  0  0  0  0  0  0  0  0
    4.8080   -1.3680    0.5366 H   0  0  0  0  0  0  0  0  0  0  0  0
    1.2452   -0.7492    1.5696 H   0  0  0  0  0  0  0  0  0  0  0  0
    0.7487   -2.8594    2.5642 H   0  0  0  0  0  0  0  0  0  0  0  0
    1.3885   -4.2717    1.7395 H   0  0  0  0  0  0  0  0  0  0  0  0
   -3.6810    1.5479    1.5731 H   0  0  0  0  0  0  0  0  0  0  0  0
   -4.7113    0.1829    1.2663 H   0  0  0  0  0  0  0  0  0  0  0  0
   -5.8213    0.1869   -1.1980 H   0  0  0  0  0  0  0  0  0  0  0  0
   -5.3175    1.5111   -3.4898 H   0  0  0  0  0  0  0  0  0  0  0  0
   -3.0417    2.9149   -3.0668 H   0  0  0  0  0  0  0  0  0  0  0  0
   -1.6099    3.4526   -1.2158 H   0  0  0  0  0  0  0  0  0  0  0  0
   -1.1586    1.8632   -0.5183 H   0  0  0  0  0  0  0  0  0  0  0  0
   -2.1675    3.0228    0.4244 H   0  0  0  0  0  0  0  0  0  0  0  0
   -1.9995   -2.6723   -1.8990 H   0  0  0  0  0  0  0  0  0  0  0  0
   -3.6693   -3.9497   -3.1823 H   0  0  0  0  0  0  0  0  0  0  0  0
   -6.6187   -3.2314   -0.1613 H   0  0  0  0  0  0  0  0  0  0  0  0
   -4.9634   -1.9971    1.1980 H   0  0  0  0  0  0  0  0  0  0  0  0
    1.6856    1.4838    1.4194 H   0  0  0  0  0  0  0  0  0  0  0  0
    3.2864    3.3165    1.0445 H   0  0  0  0  0  0  0  0  0  0  0  0
  1  2  1  0
  2  3  1  0
  3  4  1  0
  4  5  2  0
  5  6  1  0
  6  7  2  0
  7  8  1  0
  8  9  1  0
  9 10  2  0
  9 11  1  0
 11 12  1  0
 12 13  1  0
 13 14  2  0
 14 15  1  0
 15 16  2  0
 16 17  1  0
 17 18  1  0
 18 19  2  0
 19 20  1  0
 20 21  2  0
 21 22  1  0
 22 23  1  0
 16 24  1  0
 24 25  1  0
 25 26  2  0
 26 27  1  0
 27 28  2  0
 28 29  1  0
 28 30  1  0
 30 31  2  0
  7 32  1  0
 32 33  2  0
 33  4  1  0
 24 13  1  0
 31 25  1  0
 22 18  1  0
  1 34  1  0
  1 35  1  0
  1 36  1  0
  2 37  1  0
  2 38  1  0
  5 39  1  0
  6 40  1  0
  8 41  1  0
 11 42  1  0
 11 43  1  0
 17 44  1  0
 17 45  1  0
 19 46  1  0
 20 47  1  0
 21 48  1  0
 23 49  1  0
 23 50  1  0
 23 51  1  0
 26 52  1  0
 27 53  1  0
 30 54  1  0
 31 55  1  0
 32 56  1  0
 33 57  1  0
M  END
$$$$
