
     RDKit          3D

 23 24  0  0  0  0  0  0  0  0999 V2000
    2.6296    2.5518   -1.3967 O   0  0  0  0  0  0  0  0  0  0  0  0
    2.6196    1.4791   -0.8234 C   0  0  0  0  0  0  0  0  0  0  0  0
    3.7165    0.7438   -0.4897 O   0  0  0  0  0  0  0  0  0  0  0  0
    3.3048   -0.5418   -0.0187 C   0  0  0  0  0  0  0  0  0  0  0  0
    1.8957   -0.3795    0.4957 C   0  0  0  0  0  0  0  0  0  0  0  0
    1.4269    0.7444   -0.3472 C   0  0  0  0  0  0  0  0  0  0  0  0
    0.1896    1.0972   -0.7218 C   0  0  0  0  0  0  0  0  0  0  0  0
   -1.0252    0.3928   -0.3063 C   0  0  0  0  0  0  0  0  0  0  0  0
   -1.8700   -0.1486   -1.2815 C   0  0  0  0  0  0  0  0  0  0  0  0
   -3.0394   -0.8158   -0.9101 C   0  0  0  0  0  0  0  0  0  0  0  0
   -3.3754   -0.9380    0.4371 C   0  0  0  0  0  0  0  0  0  0  0  0
   -2.5460   -0.3898    1.4140 C   0  0  0  0  0  0  0  0  0  0  0  0
   -1.3760    0.2770    1.0441 C   0  0  0  0  0  0  0  0  0  0  0  0
    3.3642   -1.2523   -0.8514 H   0  0  0  0  0  0  0  0  0  0  0  0
    3.9861   -0.8759    0.7699 H   0  0  0  0  0  0  0  0  0  0  0  0
    1.3190   -1.3023    0.3930 H   0  0  0  0  0  0  0  0  0  0  0  0
    1.9046   -0.0747    1.5480 H   0  0  0  0  0  0  0  0  0  0  0  0
    0.0380    1.9433   -1.3909 H   0  0  0  0  0  0  0  0  0  0  0  0
   -1.6228   -0.0588   -2.3370 H   0  0  0  0  0  0  0  0  0  0  0  0
   -3.6893   -1.2368   -1.6730 H   0  0  0  0  0  0  0  0  0  0  0  0
   -4.2876   -1.4544    0.7252 H   0  0  0  0  0  0  0  0  0  0  0  0
   -2.8136   -0.4750    2.4641 H   0  0  0  0  0  0  0  0  0  0  0  0
   -0.7493    0.7143    1.8176 H   0  0  0  0  0  0  0  0  0  0  0  0
  1  2  2  0
  2  3  1  0
  3  4  1  0
  4  5  1  0
  5  6  1  0
  6  7  2  3
  7  8  1  0
  8  9  2  0
  9 10  1  0
 10 11  2  0
 11 12  1  0
 12 13  2  0
  6  2  1  0
 13  8  1  0
  4 14  1  0
  4 15  1  0
  5 16  1  0
  5 17  1  0
  7 18  1  0
  9 19  1  0
 10 20  1  0
 11 21  1  0
 12 22  1  0
 13 23  1  0
M  END
$$$$
