
     RDKit          3D

 60 63  0  0  0  0  0  0  0  0999 V2000
    7.8092   -2.8864   -3.6573 C   0  0  0  0  0  0  0  0  0  0  0  0
    7.3329   -3.3571   -2.2932 C   0  0  0  0  0  0  0  0  0  0  0  0
    7.4780   -2.3225   -1.3225 O   0  0  0  0  0  0  0  0  0  0  0  0
    6.4424   -1.4541   -1.1240 C   0  0  0  0  0  0  0  0  0  0  0  0
    6.6178   -0.5820   -0.0480 C   0  0  0  0  0  0  0  0  0  0  0  0
    5.6422    0.3643    0.2723 C   0  0  0  0  0  0  0  0  0  0  0  0
    4.4749    0.4642   -0.4930 C   0  0  0  0  0  0  0  0  0  0  0  0
    3.4101    1.4670   -0.1332 C   0  0  0  0  0  0  0  0  0  0  0  0
    2.4221    0.8771    0.7374 N   0  0  0  0  0  0  0  0  0  0  0  0
    2.5198    0.9509    2.1122 C   0  0  0  0  0  0  0  0  0  0  0  0
    3.4070    1.5797    2.6865 O   0  0  0  0  0  0  0  0  0  0  0  0
    1.5045    0.0996    2.8772 C   0  0  0  0  0  0  0  0  0  0  0  0
    0.1266    0.4371    2.5280 N   0  0  0  0  0  0  0  0  0  0  0  0
   -0.5369    1.2952    3.4129 N   0  0  0  0  0  0  0  0  0  0  0  0
   -1.7722    1.6579    3.2048 C   0  0  0  0  0  0  0  0  0  0  0  0
   -2.4214    2.5814    4.1959 C   0  0  0  0  0  0  0  0  0  0  0  0
   -2.4654    1.1685    2.0383 C   0  0  0  0  0  0  0  0  0  0  0  0
   -3.7142    1.4013    1.4871 C   0  0  0  0  0  0  0  0  0  0  0  0
   -4.7565    2.3884    1.8722 C   0  0  0  0  0  0  0  0  0  0  0  0
   -3.8037    0.5352    0.3892 N   0  0  0  0  0  0  0  0  0  0  0  0
   -4.9198    0.1872   -0.4335 C   0  0  0  0  0  0  0  0  0  0  0  0
   -6.2428    0.3953   -0.0312 C   0  0  0  0  0  0  0  0  0  0  0  0
   -7.3041    0.0323   -0.8698 C   0  0  0  0  0  0  0  0  0  0  0  0
   -7.0637   -0.5641   -2.1110 C   0  0  0  0  0  0  0  0  0  0  0  0
   -8.2019   -0.9222   -3.0205 C   0  0  0  0  0  0  0  0  0  0  0  0
   -5.7432   -0.7835   -2.5098 C   0  0  0  0  0  0  0  0  0  0  0  0
   -4.6816   -0.4249   -1.6747 C   0  0  0  0  0  0  0  0  0  0  0  0
   -2.5941   -0.0308    0.1196 N   0  0  0  0  0  0  0  0  0  0  0  0
   -1.8188    0.3009    1.1531 C   0  0  0  0  0  0  0  0  0  0  0  0
   -0.4402   -0.1140    1.3645 C   0  0  0  0  0  0  0  0  0  0  0  0
    0.1888   -0.8377    0.5930 O   0  0  0  0  0  0  0  0  0  0  0  0
    4.2978   -0.4152   -1.5691 C   0  0  0  0  0  0  0  0  0  0  0  0
    5.2769   -1.3649   -1.8849 C   0  0  0  0  0  0  0  0  0  0  0  0
    7.1875   -2.0691   -4.0411 H   0  0  0  0  0  0  0  0  0  0  0  0
    7.7846   -3.7101   -4.3776 H   0  0  0  0  0  0  0  0  0  0  0  0
    8.8352   -2.5020   -3.5939 H   0  0  0  0  0  0  0  0  0  0  0  0
    7.9806   -4.1809   -1.9664 H   0  0  0  0  0  0  0  0  0  0  0  0
    6.3174   -3.7710   -2.3230 H   0  0  0  0  0  0  0  0  0  0  0  0
    7.5213   -0.6441    0.5538 H   0  0  0  0  0  0  0  0  0  0  0  0
    5.7951    1.0193    1.1289 H   0  0  0  0  0  0  0  0  0  0  0  0
    2.8914    1.8041   -1.0380 H   0  0  0  0  0  0  0  0  0  0  0  0
    3.8541    2.3529    0.3358 H   0  0  0  0  0  0  0  0  0  0  0  0
    1.8358    0.1435    0.3430 H   0  0  0  0  0  0  0  0  0  0  0  0
    1.6473    0.2528    3.9530 H   0  0  0  0  0  0  0  0  0  0  0  0
    1.6956   -0.9548    2.6518 H   0  0  0  0  0  0  0  0  0  0  0  0
   -2.4846    3.5853    3.7683 H   0  0  0  0  0  0  0  0  0  0  0  0
   -3.4218    2.2237    4.4521 H   0  0  0  0  0  0  0  0  0  0  0  0
   -1.8267    2.6322    5.1119 H   0  0  0  0  0  0  0  0  0  0  0  0
   -4.3080    3.2729    2.3331 H   0  0  0  0  0  0  0  0  0  0  0  0
   -5.3066    2.7610    1.0030 H   0  0  0  0  0  0  0  0  0  0  0  0
   -5.4556    1.9533    2.5917 H   0  0  0  0  0  0  0  0  0  0  0  0
   -6.4991    0.7940    0.9426 H   0  0  0  0  0  0  0  0  0  0  0  0
   -8.3255    0.2057   -0.5373 H   0  0  0  0  0  0  0  0  0  0  0  0
   -8.4210   -0.0862   -3.6916 H   0  0  0  0  0  0  0  0  0  0  0  0
   -9.1016   -1.1603   -2.4461 H   0  0  0  0  0  0  0  0  0  0  0  0
   -7.9591   -1.8047   -3.6220 H   0  0  0  0  0  0  0  0  0  0  0  0
   -5.5269   -1.2402   -3.4731 H   0  0  0  0  0  0  0  0  0  0  0  0
   -3.6667   -0.6190   -2.0176 H   0  0  0  0  0  0  0  0  0  0  0  0
    3.3915   -0.3688   -2.1704 H   0  0  0  0  0  0  0  0  0  0  0  0
    5.0956   -2.0136   -2.7332 H   0  0  0  0  0  0  0  0  0  0  0  0
  1  2  1  0
  2  3  1  0
  3  4  1  0
  4  5  2  0
  5  6  1  0
  6  7  2  0
  7  8  1  0
  8  9  1  0
  9 10  1  0
 10 11  2  0
 10 12  1  0
 12 13  1  0
 13 14  1  0
 14 15  2  0
 15 16  1  0
 15 17  1  0
 17 18  2  0
 18 19  1  0
 18 20  1  0
 20 21  1  0
 21 22  2  0
 22 23  1  0
 23 24  2  0
 24 25  1  0
 24 26  1  0
 26 27  2  0
 20 28  1  0
 28 29  2  0
 29 30  1  0
 30 31  2  0
  7 32  1  0
 32 33  2  0
 33  4  1  0
 30 13  1  0
 29 17  1  0
 27 21  1  0
  1 34  1  0
  1 35  1  0
  1 36  1  0
  2 37  1  0
  2 38  1  0
  5 39  1  0
  6 40  1  0
  8 41  1  0
  8 42  1  0
  9 43  1  0
 12 44  1  0
 12 45  1  0
 16 46  1  0
 16 47  1  0
 16 48  1  0
 19 49  1  0
 19 50  1  0
 19 51  1  0
 22 52  1  0
 23 53  1  0
 25 54  1  0
 25 55  1  0
 25 56  1  0
 26 57  1  0
 27 58  1  0
 32 59  1  0
 33 60  1  0
M  END
$$$$
