
     RDKit          3D

 59 61  0  0  0  0  0  0  0  0999 V2000
   -5.8268   -0.3193   -5.5259 C   0  0  0  0  0  0  0  0  0  0  0  0
   -5.8700   -0.5858   -4.0313 C   0  0  0  0  0  0  0  0  0  0  0  0
   -5.7893    0.6554   -3.3268 O   0  0  0  0  0  0  0  0  0  0  0  0
   -4.6638    0.8449   -2.5656 C   0  0  0  0  0  0  0  0  0  0  0  0
   -3.3801    0.5709   -3.0526 C   0  0  0  0  0  0  0  0  0  0  0  0
   -2.2698    0.8380   -2.2543 C   0  0  0  0  0  0  0  0  0  0  0  0
   -0.9904    0.5503   -2.7223 N   0  0  0  0  0  0  0  0  0  0  0  0
    0.1583    0.7856   -2.0159 C   0  0  0  0  0  0  0  0  0  0  0  0
    1.5874    0.3277   -2.7648 S   0  0  0  0  0  0  0  0  0  0  0  0
    0.0162    1.3712   -0.7589 N   0  0  0  0  0  0  0  0  0  0  0  0
    1.1813    1.6742    0.0925 C   0  0  0  0  0  0  0  0  0  0  0  0
    1.4803    0.5330    1.0622 C   0  0  0  0  0  0  0  0  0  0  0  0
    2.7096    0.8284    1.8904 C   0  0  0  0  0  0  0  0  0  0  0  0
    3.4408    1.7923    1.6944 O   0  0  0  0  0  0  0  0  0  0  0  0
    2.9291   -0.1102    2.8744 N   0  0  0  0  0  0  0  0  0  0  0  0
    4.1285   -0.1010    3.6816 C   0  0  0  0  0  0  0  0  0  0  0  0
    5.1111   -1.1255    3.1758 C   0  0  0  0  0  0  0  0  0  0  0  0
    5.2299   -2.3756    3.7944 C   0  0  0  0  0  0  0  0  0  0  0  0
    6.1260   -3.3252    3.2962 C   0  0  0  0  0  0  0  0  0  0  0  0
    6.9102   -3.0486    2.1731 C   0  0  0  0  0  0  0  0  0  0  0  0
    7.7402   -4.0663    1.7906 O   0  0  0  0  0  0  0  0  0  0  0  0
    8.5563   -3.8337    0.6501 C   0  0  0  0  0  0  0  0  0  0  0  0
    6.7913   -1.8073    1.5488 C   0  0  0  0  0  0  0  0  0  0  0  0
    5.8968   -0.8534    2.0467 C   0  0  0  0  0  0  0  0  0  0  0  0
   -1.2309    1.6548   -0.1806 C   0  0  0  0  0  0  0  0  0  0  0  0
   -1.3755    2.0898    0.9609 O   0  0  0  0  0  0  0  0  0  0  0  0
   -2.4318    1.3887   -0.9928 C   0  0  0  0  0  0  0  0  0  0  0  0
   -3.7112    1.6835   -0.5043 C   0  0  0  0  0  0  0  0  0  0  0  0
   -4.8355    1.4185   -1.2902 C   0  0  0  0  0  0  0  0  0  0  0  0
   -6.1307    1.6603   -0.9071 O   0  0  0  0  0  0  0  0  0  0  0  0
   -6.3451    2.2936    0.3507 C   0  0  0  0  0  0  0  0  0  0  0  0
   -7.8411    2.4619    0.5399 C   0  0  0  0  0  0  0  0  0  0  0  0
   -4.8821    0.1511   -5.8156 H   0  0  0  0  0  0  0  0  0  0  0  0
   -6.6256    0.3715   -5.8160 H   0  0  0  0  0  0  0  0  0  0  0  0
   -5.9433   -1.2483   -6.0910 H   0  0  0  0  0  0  0  0  0  0  0  0
   -5.1002   -1.3075   -3.7312 H   0  0  0  0  0  0  0  0  0  0  0  0
   -6.8373   -1.0353   -3.7779 H   0  0  0  0  0  0  0  0  0  0  0  0
   -3.2459    0.1730   -4.0528 H   0  0  0  0  0  0  0  0  0  0  0  0
   -0.8732    0.1390   -3.6426 H   0  0  0  0  0  0  0  0  0  0  0  0
    2.0555    1.8996   -0.5269 H   0  0  0  0  0  0  0  0  0  0  0  0
    0.9773    2.5925    0.6594 H   0  0  0  0  0  0  0  0  0  0  0  0
    1.6523   -0.4012    0.5149 H   0  0  0  0  0  0  0  0  0  0  0  0
    0.6312    0.3728    1.7369 H   0  0  0  0  0  0  0  0  0  0  0  0
    2.3842   -0.9607    2.8666 H   0  0  0  0  0  0  0  0  0  0  0  0
    3.8291   -0.3317    4.7103 H   0  0  0  0  0  0  0  0  0  0  0  0
    4.5886    0.8936    3.6914 H   0  0  0  0  0  0  0  0  0  0  0  0
    4.6299   -2.6217    4.6676 H   0  0  0  0  0  0  0  0  0  0  0  0
    6.2143   -4.2921    3.7864 H   0  0  0  0  0  0  0  0  0  0  0  0
    9.2445   -2.9997    0.8189 H   0  0  0  0  0  0  0  0  0  0  0  0
    9.1594   -4.7314    0.4805 H   0  0  0  0  0  0  0  0  0  0  0  0
    7.9456   -3.6697   -0.2430 H   0  0  0  0  0  0  0  0  0  0  0  0
    7.3749   -1.5464    0.6720 H   0  0  0  0  0  0  0  0  0  0  0  0
    5.8104    0.1097    1.5436 H   0  0  0  0  0  0  0  0  0  0  0  0
   -3.7990    2.1183    0.4865 H   0  0  0  0  0  0  0  0  0  0  0  0
   -5.9515    1.6721    1.1613 H   0  0  0  0  0  0  0  0  0  0  0  0
   -5.8683    3.2788    0.3666 H   0  0  0  0  0  0  0  0  0  0  0  0
   -8.0602    2.9443    1.4958 H   0  0  0  0  0  0  0  0  0  0  0  0
   -8.3456    1.4916    0.5088 H   0  0  0  0  0  0  0  0  0  0  0  0
   -8.2661    3.0667   -0.2669 H   0  0  0  0  0  0  0  0  0  0  0  0
  1  2  1  0
  2  3  1  0
  3  4  1  0
  4  5  2  0
  5  6  1  0
  6  7  1  0
  7  8  1  0
  8  9  2  0
  8 10  1  0
 10 11  1  0
 11 12  1  0
 12 13  1  0
 13 14  2  0
 13 15  1  0
 15 16  1  0
 16 17  1  0
 17 18  2  0
 18 19  1  0
 19 20  2  0
 20 21  1  0
 21 22  1  0
 20 23  1  0
 23 24  2  0
 10 25  1  0
 25 26  2  0
 25 27  1  0
 27 28  1  0
 28 29  2  0
 29 30  1  0
 30 31  1  0
 31 32  1  0
 29  4  1  0
 27  6  2  0
 24 17  1  0
  1 33  1  0
  1 34  1  0
  1 35  1  0
  2 36  1  0
  2 37  1  0
  5 38  1  0
  7 39  1  0
 11 40  1  0
 11 41  1  0
 12 42  1  0
 12 43  1  0
 15 44  1  0
 16 45  1  0
 16 46  1  0
 18 47  1  0
 19 48  1  0
 22 49  1  0
 22 50  1  0
 22 51  1  0
 23 52  1  0
 24 53  1  0
 28 54  1  0
 31 55  1  0
 31 56  1  0
 32 57  1  0
 32 58  1  0
 32 59  1  0
M  END
$$$$
