
     RDKit          3D

 39 40  0  0  0  0  0  0  0  0999 V2000
    6.1999    0.0567    1.3453 C   0  0  0  0  0  0  0  0  0  0  0  0
    4.7881   -0.4440    1.2580 C   0  0  0  0  0  0  0  0  0  0  0  0
    4.3391   -1.1049    0.1089 C   0  0  0  0  0  0  0  0  0  0  0  0
    3.0144   -1.5404    0.0155 C   0  0  0  0  0  0  0  0  0  0  0  0
    2.1192   -1.3136    1.0679 C   0  0  0  0  0  0  0  0  0  0  0  0
    0.7207   -1.7944    0.9147 C   0  0  0  0  0  0  0  0  0  0  0  0
    0.2923   -2.3262   -0.0991 O   0  0  0  0  0  0  0  0  0  0  0  0
   -0.0007   -1.5541    2.0358 O   0  0  0  0  0  0  0  0  0  0  0  0
   -1.3617   -1.9861    1.9886 C   0  0  0  0  0  0  0  0  0  0  0  0
   -2.2634   -1.0403    1.1922 C   0  0  0  0  0  0  0  0  0  0  0  0
   -2.9424   -0.1705    1.7308 O   0  0  0  0  0  0  0  0  0  0  0  0
   -2.2433   -1.2508   -0.1703 N   0  0  0  0  0  0  0  0  0  0  0  0
   -2.9331   -0.3656   -1.0895 C   0  0  0  0  0  0  0  0  0  0  0  0
   -2.1832    0.9529   -1.3142 C   0  0  0  0  0  0  0  0  0  0  0  0
   -2.7954    1.7624   -2.3528 N   0  0  0  0  0  0  0  0  0  0  0  0
   -3.7876    2.6806   -2.1163 C   0  0  0  0  0  0  0  0  0  0  0  0
   -4.2038    2.8851   -0.8368 O   0  0  0  0  0  0  0  0  0  0  0  0
   -4.2574    3.2870   -3.2121 C   0  0  0  0  0  0  0  0  0  0  0  0
   -3.4608    2.7048   -4.6433 S   0  0  0  0  0  0  0  0  0  0  0  0
   -2.4728    1.5819   -3.6877 C   0  0  0  0  0  0  0  0  0  0  0  0
   -1.6755    0.7974   -4.1746 O   0  0  0  0  0  0  0  0  0  0  0  0
    2.5616   -0.6392    2.2129 C   0  0  0  0  0  0  0  0  0  0  0  0
    3.8870   -0.2033    2.3029 C   0  0  0  0  0  0  0  0  0  0  0  0
    6.2522    1.0909    0.9908 H   0  0  0  0  0  0  0  0  0  0  0  0
    6.8736   -0.5577    0.7386 H   0  0  0  0  0  0  0  0  0  0  0  0
    6.5637    0.0150    2.3771 H   0  0  0  0  0  0  0  0  0  0  0  0
    5.0168   -1.2845   -0.7229 H   0  0  0  0  0  0  0  0  0  0  0  0
    2.6861   -2.0548   -0.8856 H   0  0  0  0  0  0  0  0  0  0  0  0
   -1.4392   -3.0081    1.5971 H   0  0  0  0  0  0  0  0  0  0  0  0
   -1.7354   -2.0206    3.0175 H   0  0  0  0  0  0  0  0  0  0  0  0
   -1.4781   -1.8196   -0.5390 H   0  0  0  0  0  0  0  0  0  0  0  0
   -3.0418   -0.9125   -2.0322 H   0  0  0  0  0  0  0  0  0  0  0  0
   -3.9392   -0.1675   -0.7014 H   0  0  0  0  0  0  0  0  0  0  0  0
   -1.1532    0.7278   -1.6206 H   0  0  0  0  0  0  0  0  0  0  0  0
   -2.1092    1.5329   -0.3868 H   0  0  0  0  0  0  0  0  0  0  0  0
   -4.9026    3.5605   -0.8378 H   0  0  0  0  0  0  0  0  0  0  0  0
   -5.0348    4.0358   -3.2456 H   0  0  0  0  0  0  0  0  0  0  0  0
    1.8874   -0.4391    3.0418 H   0  0  0  0  0  0  0  0  0  0  0  0
    4.2124    0.3265    3.1960 H   0  0  0  0  0  0  0  0  0  0  0  0
  1  2  1  0
  2  3  2  0
  3  4  1  0
  4  5  2  0
  5  6  1  0
  6  7  2  0
  6  8  1  0
  8  9  1  0
  9 10  1  0
 10 11  2  0
 10 12  1  0
 12 13  1  0
 13 14  1  0
 14 15  1  0
 15 16  1  0
 16 17  1  0
 16 18  2  0
 18 19  1  0
 19 20  1  0
 20 21  2  0
  5 22  1  0
 22 23  2  0
 23  2  1  0
 20 15  1  0
  1 24  1  0
  1 25  1  0
  1 26  1  0
  3 27  1  0
  4 28  1  0
  9 29  1  0
  9 30  1  0
 12 31  1  0
 13 32  1  0
 13 33  1  0
 14 34  1  0
 14 35  1  0
 17 36  1  0
 18 37  1  0
 22 38  1  0
 23 39  1  0
M  END
$$$$
