
     RDKit          3D

 31 31  0  0  0  0  0  0  0  0999 V2000
    4.8865    1.1796    1.5481 C   0  0  0  0  0  0  0  0  0  0  0  0
    4.1143    0.3932    0.6549 O   0  0  0  0  0  0  0  0  0  0  0  0
    2.7368    0.3787    1.0330 C   0  0  0  0  0  0  0  0  0  0  0  0
    1.9639   -0.2438    0.0058 O   0  0  0  0  0  0  0  0  0  0  0  0
    0.7135   -0.5904    0.4457 C   0  0  0  0  0  0  0  0  0  0  0  0
   -0.4341   -0.3108   -0.1934 C   0  0  0  0  0  0  0  0  0  0  0  0
   -0.5743    0.5008   -1.2994 N   0  0  0  0  0  0  0  0  0  0  0  0
    0.1959    1.6004   -1.6345 C   0  0  0  0  0  0  0  0  0  0  0  0
   -0.1295    2.1343   -3.0063 C   0  0  0  0  0  0  0  0  0  0  0  0
    1.0018    2.1757   -0.9103 O   0  0  0  0  0  0  0  0  0  0  0  0
   -1.6676   -0.9716    0.2747 C   0  0  0  0  0  0  0  0  0  0  0  0
   -2.6886   -0.2106    0.8603 C   0  0  0  0  0  0  0  0  0  0  0  0
   -3.8653   -0.8242    1.2943 C   0  0  0  0  0  0  0  0  0  0  0  0
   -4.0309   -2.2003    1.1435 C   0  0  0  0  0  0  0  0  0  0  0  0
   -3.0220   -2.9651    0.5592 C   0  0  0  0  0  0  0  0  0  0  0  0
   -1.8441   -2.3539    0.1250 C   0  0  0  0  0  0  0  0  0  0  0  0
    4.8161    0.7861    2.5669 H   0  0  0  0  0  0  0  0  0  0  0  0
    4.5581    2.2233    1.5238 H   0  0  0  0  0  0  0  0  0  0  0  0
    5.9316    1.1372    1.2297 H   0  0  0  0  0  0  0  0  0  0  0  0
    2.6524   -0.1789    1.9748 H   0  0  0  0  0  0  0  0  0  0  0  0
    2.3776    1.4040    1.1802 H   0  0  0  0  0  0  0  0  0  0  0  0
    0.7570   -1.2396    1.3131 H   0  0  0  0  0  0  0  0  0  0  0  0
   -1.4537    0.4117   -1.7950 H   0  0  0  0  0  0  0  0  0  0  0  0
    0.7814    2.5306   -3.4637 H   0  0  0  0  0  0  0  0  0  0  0  0
   -0.8733    2.9301   -2.9161 H   0  0  0  0  0  0  0  0  0  0  0  0
   -0.5196    1.3456   -3.6562 H   0  0  0  0  0  0  0  0  0  0  0  0
   -2.5669    0.8631    0.9889 H   0  0  0  0  0  0  0  0  0  0  0  0
   -4.6512   -0.2290    1.7524 H   0  0  0  0  0  0  0  0  0  0  0  0
   -4.9469   -2.6778    1.4826 H   0  0  0  0  0  0  0  0  0  0  0  0
   -3.1523   -4.0379    0.4408 H   0  0  0  0  0  0  0  0  0  0  0  0
   -1.0667   -2.9604   -0.3354 H   0  0  0  0  0  0  0  0  0  0  0  0
  1  2  1  0
  2  3  1  0
  3  4  1  0
  4  5  1  0
  5  6  2  3
  6  7  1  0
  7  8  1  0
  8  9  1  0
  8 10  2  0
  6 11  1  0
 11 12  2  0
 12 13  1  0
 13 14  2  0
 14 15  1  0
 15 16  2  0
 16 11  1  0
  1 17  1  0
  1 18  1  0
  1 19  1  0
  3 20  1  0
  3 21  1  0
  5 22  1  0
  7 23  1  0
  9 24  1  0
  9 25  1  0
  9 26  1  0
 12 27  1  0
 13 28  1  0
 14 29  1  0
 15 30  1  0
 16 31  1  0
M  END
$$$$
