
     RDKit          3D

 53 54  0  0  0  0  0  0  0  0999 V2000
   -4.8449   -1.4137   -2.3364 C   0  0  0  0  0  0  0  0  0  0  0  0
   -4.3086   -1.1733   -0.9363 C   0  0  0  0  0  0  0  0  0  0  0  0
   -4.6029    0.2182   -0.5217 N   0  0  0  0  0  0  0  0  0  0  0  0
   -5.5253    0.3491    0.6299 C   0  0  0  0  0  0  0  0  0  0  0  0
   -6.9630    0.1947    0.1620 C   0  0  0  0  0  0  0  0  0  0  0  0
   -3.3542    1.3629   -0.6615 S   0  0  0  0  0  6  0  0  0  0  0  0
   -3.9091    2.6746   -0.3991 O   0  0  0  0  0  0  0  0  0  0  0  0
   -2.6163    1.0912   -1.8774 O   0  0  0  0  0  0  0  0  0  0  0  0
   -2.2816    0.9632    0.7072 C   0  0  0  0  0  0  0  0  0  0  0  0
   -2.4727    1.5922    1.9418 C   0  0  0  0  0  0  0  0  0  0  0  0
   -1.6075    1.3127    3.0007 C   0  0  0  0  0  0  0  0  0  0  0  0
   -0.5466    0.4193    2.8220 C   0  0  0  0  0  0  0  0  0  0  0  0
   -0.3395   -0.1954    1.5767 C   0  0  0  0  0  0  0  0  0  0  0  0
    0.7859   -1.1372    1.3306 C   0  0  0  0  0  0  0  0  0  0  0  0
    0.9568   -1.7268    0.2725 O   0  0  0  0  0  0  0  0  0  0  0  0
    1.5882   -1.2295    2.4195 O   0  0  0  0  0  0  0  0  0  0  0  0
    2.7454   -2.0475    2.2401 C   0  0  0  0  0  0  0  0  0  0  0  0
    3.7651   -1.3928    1.3082 C   0  0  0  0  0  0  0  0  0  0  0  0
    4.4829   -0.4537    1.6508 O   0  0  0  0  0  0  0  0  0  0  0  0
    3.7669   -1.8896    0.0236 N   0  0  0  0  0  0  0  0  0  0  0  0
    4.5980   -1.2701   -0.9936 C   0  0  0  0  0  0  0  0  0  0  0  0
    4.1101    0.1306   -1.3865 C   0  0  0  0  0  0  0  0  0  0  0  0
    5.2100    1.0500   -1.5838 N   0  0  0  0  0  0  0  0  0  0  0  0
    5.6999    1.9105   -0.6269 C   0  0  0  0  0  0  0  0  0  0  0  0
    5.1917    1.9433    0.6361 O   0  0  0  0  0  0  0  0  0  0  0  0
    6.6982    2.6973   -1.0429 C   0  0  0  0  0  0  0  0  0  0  0  0
    7.1164    2.3653   -2.6959 S   0  0  0  0  0  0  0  0  0  0  0  0
    5.8710    1.1071   -2.8018 C   0  0  0  0  0  0  0  0  0  0  0  0
    5.6727    0.4236   -3.7915 O   0  0  0  0  0  0  0  0  0  0  0  0
   -1.2075    0.0874    0.5131 C   0  0  0  0  0  0  0  0  0  0  0  0
   -4.3916   -0.7281   -3.0607 H   0  0  0  0  0  0  0  0  0  0  0  0
   -4.6262   -2.4385   -2.6550 H   0  0  0  0  0  0  0  0  0  0  0  0
   -5.9289   -1.2695   -2.3744 H   0  0  0  0  0  0  0  0  0  0  0  0
   -4.7646   -1.8901   -0.2456 H   0  0  0  0  0  0  0  0  0  0  0  0
   -3.2345   -1.3760   -0.9157 H   0  0  0  0  0  0  0  0  0  0  0  0
   -5.4278    1.3297    1.1085 H   0  0  0  0  0  0  0  0  0  0  0  0
   -5.2897   -0.4010    1.3941 H   0  0  0  0  0  0  0  0  0  0  0  0
   -7.6529    0.3500    0.9993 H   0  0  0  0  0  0  0  0  0  0  0  0
   -7.1486   -0.8045   -0.2499 H   0  0  0  0  0  0  0  0  0  0  0  0
   -7.1989    0.9265   -0.6177 H   0  0  0  0  0  0  0  0  0  0  0  0
   -3.2800    2.3101    2.0827 H   0  0  0  0  0  0  0  0  0  0  0  0
   -1.7500    1.8020    3.9638 H   0  0  0  0  0  0  0  0  0  0  0  0
    0.1203    0.2264    3.6624 H   0  0  0  0  0  0  0  0  0  0  0  0
    3.2204   -2.1838    3.2163 H   0  0  0  0  0  0  0  0  0  0  0  0
    2.4619   -3.0437    1.8824 H   0  0  0  0  0  0  0  0  0  0  0  0
    2.8947   -2.3188   -0.2864 H   0  0  0  0  0  0  0  0  0  0  0  0
    5.6199   -1.2333   -0.5966 H   0  0  0  0  0  0  0  0  0  0  0  0
    4.6066   -1.9324   -1.8653 H   0  0  0  0  0  0  0  0  0  0  0  0
    3.4141    0.5542   -0.6547 H   0  0  0  0  0  0  0  0  0  0  0  0
    3.5486    0.0561   -2.3233 H   0  0  0  0  0  0  0  0  0  0  0  0
    4.9626    1.0285    0.9123 H   0  0  0  0  0  0  0  0  0  0  0  0
    7.2049    3.4375   -0.4354 H   0  0  0  0  0  0  0  0  0  0  0  0
   -1.0398   -0.3645   -0.4644 H   0  0  0  0  0  0  0  0  0  0  0  0
  1  2  1  0
  2  3  1  0
  3  4  1  0
  4  5  1  0
  3  6  1  0
  6  7  2  0
  6  8  2  0
  6  9  1  0
  9 10  2  0
 10 11  1  0
 11 12  2  0
 12 13  1  0
 13 14  1  0
 14 15  2  0
 14 16  1  0
 16 17  1  0
 17 18  1  0
 18 19  2  0
 18 20  1  0
 20 21  1  0
 21 22  1  0
 22 23  1  0
 23 24  1  0
 24 25  1  0
 24 26  2  0
 26 27  1  0
 27 28  1  0
 28 29  2  0
 13 30  2  0
 30  9  1  0
 28 23  1  0
  1 31  1  0
  1 32  1  0
  1 33  1  0
  2 34  1  0
  2 35  1  0
  4 36  1  0
  4 37  1  0
  5 38  1  0
  5 39  1  0
  5 40  1  0
 10 41  1  0
 11 42  1  0
 12 43  1  0
 17 44  1  0
 17 45  1  0
 20 46  1  0
 21 47  1  0
 21 48  1  0
 22 49  1  0
 22 50  1  0
 25 51  1  0
 26 52  1  0
 30 53  1  0
M  END
$$$$
