
     RDKit          3D

 88 91  0  0  0  0  0  0  0  0999 V2000
   -6.9279   -3.5261   -0.2719 C   0  0  0  0  0  0  0  0  0  0  0  0
   -5.7551   -3.6805    0.5183 O   0  0  0  0  0  0  0  0  0  0  0  0
   -4.6499   -2.8987    0.0242 C   0  0  2  0  0  0  0  0  0  0  0  0
   -3.3741   -3.6745    0.2912 C   0  0  0  0  0  0  0  0  0  0  0  0
   -3.3627   -5.1196   -0.1211 C   0  0  0  0  0  0  0  0  0  0  0  0
   -2.2888   -3.0909    0.8360 C   0  0  0  0  0  0  0  0  0  0  0  0
   -2.2254   -1.6180    1.2124 C   0  0  0  0  0  0  0  0  0  0  0  0
   -0.8279   -1.0396    1.0146 C   0  0  0  0  0  0  0  0  0  0  0  0
   -0.3020   -0.3104    1.8491 O   0  0  0  0  0  0  0  0  0  0  0  0
   -0.2403   -1.4444   -0.1460 O   0  0  0  0  0  0  0  0  0  0  0  0
    1.0770   -0.9508   -0.5067 C   0  0  1  0  0  0  0  0  0  0  0  0
    1.0645    0.5507   -0.7564 C   0  0  0  0  0  0  0  0  0  0  0  0
    2.4583    1.1149   -1.0134 C   0  0  1  0  0  0  0  0  0  0  0  0
    2.4504    2.6642   -1.0307 C   0  0  0  0  0  0  0  0  0  0  0  0
    1.9741    3.2774    0.2657 C   0  0  0  0  0  0  0  0  0  0  0  0
    0.9870    4.1725    0.4779 C   0  0  0  0  0  0  0  0  0  0  0  0
    0.6679    4.6012    1.8909 C   0  0  0  0  0  0  0  0  0  0  0  0
    0.1592    4.8558   -0.5956 C   0  0  0  0  0  0  0  0  0  0  0  0
   -1.3264    4.4148   -0.6626 C   0  0  1  0  0  0  0  0  0  0  0  0
   -2.1182    5.3954   -1.5344 C   0  0  0  0  0  0  0  0  0  0  0  0
   -1.4594    3.0298   -1.2539 C   0  0  0  0  0  0  0  0  0  0  0  0
   -2.0622    1.9345   -0.7607 C   0  0  0  0  0  0  0  0  0  0  0  0
   -2.7856    1.8155    0.4872 C   0  0  0  0  0  0  0  0  0  0  0  0
   -3.3413    0.7246    1.0788 C   0  0  0  0  0  0  0  0  0  0  0  0
   -3.9922    0.8796    2.4559 C   0  0  0  0  0  0  0  0  0  0  0  0
   -3.9243    2.2096    2.9632 O   0  0  0  0  0  0  0  0  0  0  0  0
   -3.3361   -0.7458    0.5464 C   0  0  1  0  0  0  0  0  0  0  0  0
   -3.1649   -0.7236   -0.8859 O   0  0  0  0  0  0  0  0  0  0  0  0
   -4.6870   -1.5159    0.7473 C   0  0  2  0  0  0  0  0  0  0  0  0
   -4.9972   -1.7315    2.1384 O   0  0  0  0  0  0  0  0  0  0  0  0
    3.4028    0.6684   -0.0336 O   0  0  0  0  0  0  0  0  0  0  0  0
    3.5200   -0.7550    0.0663 C   0  0  2  0  0  0  0  0  0  0  0  0
    4.5827   -1.0379    1.1529 C   0  0  0  0  0  0  0  0  0  0  0  0
    5.3443   -2.3232    0.8625 C   0  0  0  0  0  0  0  0  0  0  0  0
    6.0294   -2.2517   -0.5143 C   0  0  2  0  0  0  0  0  0  0  0  0
    7.5068   -1.8764   -0.3774 C   0  0  0  0  0  0  0  0  0  0  0  0
    5.2952   -1.2667   -1.4494 C   0  0  1  0  0  0  0  0  0  0  0  0
    5.5071   -1.6101   -2.9198 C   0  0  0  0  0  0  0  0  0  0  0  0
    3.8917   -1.3348   -1.1932 O   0  0  0  0  0  0  0  0  0  0  0  0
    2.1714   -1.3621    0.4762 C   0  0  0  0  0  0  0  0  0  0  0  0
   -6.7508   -3.8818   -1.2912 H   0  0  0  0  0  0  0  0  0  0  0  0
   -7.2516   -2.4820   -0.2863 H   0  0  0  0  0  0  0  0  0  0  0  0
   -7.7223   -4.1306    0.1737 H   0  0  0  0  0  0  0  0  0  0  0  0
   -4.7337   -2.7642   -1.0626 H   0  0  0  0  0  0  0  0  0  0  0  0
   -2.3745   -5.5750    0.0049 H   0  0  0  0  0  0  0  0  0  0  0  0
   -4.0723   -5.6987    0.4780 H   0  0  0  0  0  0  0  0  0  0  0  0
   -3.6368   -5.2140   -1.1768 H   0  0  0  0  0  0  0  0  0  0  0  0
   -1.3942   -3.6809    1.0268 H   0  0  0  0  0  0  0  0  0  0  0  0
   -2.3687   -1.6100    2.3033 H   0  0  0  0  0  0  0  0  0  0  0  0
    1.2925   -1.4388   -1.4657 H   0  0  0  0  0  0  0  0  0  0  0  0
    0.6179    1.0505    0.1060 H   0  0  0  0  0  0  0  0  0  0  0  0
    0.4165    0.7688   -1.6112 H   0  0  0  0  0  0  0  0  0  0  0  0
    2.8093    0.7822   -1.9986 H   0  0  0  0  0  0  0  0  0  0  0  0
    1.8468    3.0008   -1.8784 H   0  0  0  0  0  0  0  0  0  0  0  0
    3.4751    3.0174   -1.1989 H   0  0  0  0  0  0  0  0  0  0  0  0
    2.5080    2.8925    1.1370 H   0  0  0  0  0  0  0  0  0  0  0  0
    1.3530    4.1620    2.6241 H   0  0  0  0  0  0  0  0  0  0  0  0
    0.7439    5.6895    1.9846 H   0  0  0  0  0  0  0  0  0  0  0  0
   -0.3458    4.2959    2.1676 H   0  0  0  0  0  0  0  0  0  0  0  0
    0.2007    5.9360   -0.3972 H   0  0  0  0  0  0  0  0  0  0  0  0
    0.6242    4.7394   -1.5817 H   0  0  0  0  0  0  0  0  0  0  0  0
   -1.7562    4.4581    0.3421 H   0  0  0  0  0  0  0  0  0  0  0  0
   -2.0760    6.4064   -1.1149 H   0  0  0  0  0  0  0  0  0  0  0  0
   -3.1735    5.1053   -1.5926 H   0  0  0  0  0  0  0  0  0  0  0  0
   -1.7229    5.4386   -2.5555 H   0  0  0  0  0  0  0  0  0  0  0  0
   -0.9583    2.9084   -2.2156 H   0  0  0  0  0  0  0  0  0  0  0  0
   -1.9441    1.0435   -1.3676 H   0  0  0  0  0  0  0  0  0  0  0  0
   -2.8346    2.7565    1.0315 H   0  0  0  0  0  0  0  0  0  0  0  0
   -5.0545    0.6269    2.4140 H   0  0  0  0  0  0  0  0  0  0  0  0
   -3.4936    0.2359    3.1857 H   0  0  0  0  0  0  0  0  0  0  0  0
   -4.6086    2.7195    2.4992 H   0  0  0  0  0  0  0  0  0  0  0  0
   -3.7803   -0.0527   -1.2326 H   0  0  0  0  0  0  0  0  0  0  0  0
   -5.5178   -0.9326    0.3318 H   0  0  0  0  0  0  0  0  0  0  0  0
   -5.4546   -2.5993    2.1710 H   0  0  0  0  0  0  0  0  0  0  0  0
    5.2990   -0.2062    1.1996 H   0  0  0  0  0  0  0  0  0  0  0  0
    4.1262   -1.0754    2.1494 H   0  0  0  0  0  0  0  0  0  0  0  0
    4.6375   -3.1625    0.8679 H   0  0  0  0  0  0  0  0  0  0  0  0
    6.0692   -2.5255    1.6591 H   0  0  0  0  0  0  0  0  0  0  0  0
    5.9867   -3.2627   -0.9409 H   0  0  0  0  0  0  0  0  0  0  0  0
    7.6240   -0.8810    0.0648 H   0  0  0  0  0  0  0  0  0  0  0  0
    8.0079   -1.8775   -1.3501 H   0  0  0  0  0  0  0  0  0  0  0  0
    8.0312   -2.5934    0.2634 H   0  0  0  0  0  0  0  0  0  0  0  0
    5.6375   -0.2358   -1.2900 H   0  0  0  0  0  0  0  0  0  0  0  0
    6.5615   -1.5497   -3.2032 H   0  0  0  0  0  0  0  0  0  0  0  0
    4.9380   -0.9219   -3.5546 H   0  0  0  0  0  0  0  0  0  0  0  0
    5.1387   -2.6170   -3.1455 H   0  0  0  0  0  0  0  0  0  0  0  0
    2.2228   -2.4572    0.5112 H   0  0  0  0  0  0  0  0  0  0  0  0
    1.9165   -1.0284    1.4865 H   0  0  0  0  0  0  0  0  0  0  0  0
  1  2  1  0
  2  3  1  0
  3  4  1  0
  4  5  1  0
  4  6  2  0
  6  7  1  0
  7  8  1  0
  8  9  2  0
  8 10  1  0
 10 11  1  0
 11 12  1  0
 12 13  1  0
 13 14  1  0
 14 15  1  0
 15 16  2  0
 16 17  1  0
 16 18  1  0
 18 19  1  0
 19 20  1  0
 19 21  1  0
 21 22  2  0
 22 23  1  0
 23 24  2  0
 24 25  1  0
 25 26  1  0
 24 27  1  0
 27 28  1  6
 27 29  1  0
 29 30  1  0
 13 31  1  0
 32 31  1  6
 32 33  1  0
 33 34  1  0
 34 35  1  0
 35 36  1  0
 35 37  1  0
 37 38  1  0
 37 39  1  0
 32 40  1  0
 29  3  1  0
 39 32  1  0
 27  7  1  0
 40 11  1  0
  1 41  1  0
  1 42  1  0
  1 43  1  0
  3 44  1  6
  5 45  1  0
  5 46  1  0
  5 47  1  0
  6 48  1  0
  7 49  1  0
 11 50  1  6
 12 51  1  0
 12 52  1  0
 13 53  1  6
 14 54  1  0
 14 55  1  0
 15 56  1  0
 17 57  1  0
 17 58  1  0
 17 59  1  0
 18 60  1  0
 18 61  1  0
 19 62  1  1
 20 63  1  0
 20 64  1  0
 20 65  1  0
 21 66  1  0
 22 67  1  0
 23 68  1  0
 25 69  1  0
 25 70  1  0
 26 71  1  0
 28 72  1  0
 29 73  1  6
 30 74  1  0
 33 75  1  0
 33 76  1  0
 34 77  1  0
 34 78  1  0
 35 79  1  6
 36 80  1  0
 36 81  1  0
 36 82  1  0
 37 83  1  6
 38 84  1  0
 38 85  1  0
 38 86  1  0
 40 87  1  0
 40 88  1  0
M  END
$$$$
