
     RDKit          3D

 39 41  0  0  0  0  0  0  0  0999 V2000
   -5.8279    0.2569    1.3811 C   0  0  0  0  0  0  0  0  0  0  0  0
   -5.3343    1.2283    0.4662 O   0  0  0  0  0  0  0  0  0  0  0  0
   -4.2666    0.8554   -0.3100 C   0  0  0  0  0  0  0  0  0  0  0  0
   -3.6471   -0.3955   -0.3157 C   0  0  0  0  0  0  0  0  0  0  0  0
   -2.5558   -0.6370   -1.1658 C   0  0  0  0  0  0  0  0  0  0  0  0
   -1.9298   -1.9616   -1.1773 C   0  0  0  0  0  0  0  0  0  0  0  0
   -0.7214   -2.2626   -0.6814 C   0  0  0  0  0  0  0  0  0  0  0  0
   -0.0581   -3.8640   -0.7677 S   0  0  0  0  0  0  0  0  0  0  0  0
    1.4553   -3.3971    0.0029 C   0  0  0  0  0  0  0  0  0  0  0  0
    2.6887   -4.4713    0.3295 S   0  0  0  0  0  0  0  0  0  0  0  0
    1.3952   -2.0528    0.3001 N   0  0  0  0  0  0  0  0  0  0  0  0
    2.4805   -1.3509    0.8656 N   0  0  0  0  0  0  0  0  0  0  0  0
    3.3497   -0.7621   -0.0407 C   0  0  0  0  0  0  0  0  0  0  0  0
    3.3237   -0.9848   -1.2474 O   0  0  0  0  0  0  0  0  0  0  0  0
    4.3154    0.2118    0.5144 C   0  0  0  0  0  0  0  0  0  0  0  0
    4.8069    1.2383   -0.2943 C   0  0  0  0  0  0  0  0  0  0  0  0
    5.7145    2.1528    0.2354 C   0  0  0  0  0  0  0  0  0  0  0  0
    6.1035    2.0026    1.5573 C   0  0  0  0  0  0  0  0  0  0  0  0
    5.6585    1.0120    2.3627 N   0  0  0  0  0  0  0  0  0  0  0  0
    4.7832    0.1316    1.8195 C   0  0  0  0  0  0  0  0  0  0  0  0
    0.2369   -1.3507    0.0101 C   0  0  0  0  0  0  0  0  0  0  0  0
    0.0243   -0.1880    0.3245 O   0  0  0  0  0  0  0  0  0  0  0  0
   -2.0936    0.3750   -2.0173 C   0  0  0  0  0  0  0  0  0  0  0  0
   -2.7101    1.6250   -2.0171 C   0  0  0  0  0  0  0  0  0  0  0  0
   -3.7853    1.8513   -1.1681 C   0  0  0  0  0  0  0  0  0  0  0  0
   -4.3752    3.0863   -1.1884 O   0  0  0  0  0  0  0  0  0  0  0  0
   -6.6568    0.7096    1.9336 H   0  0  0  0  0  0  0  0  0  0  0  0
   -6.2188   -0.6189    0.8527 H   0  0  0  0  0  0  0  0  0  0  0  0
   -5.0596   -0.0282    2.1075 H   0  0  0  0  0  0  0  0  0  0  0  0
   -3.9911   -1.1959    0.3306 H   0  0  0  0  0  0  0  0  0  0  0  0
   -2.5378   -2.7337   -1.6454 H   0  0  0  0  0  0  0  0  0  0  0  0
    2.2411   -0.8332    1.7072 H   0  0  0  0  0  0  0  0  0  0  0  0
    4.4837    1.3285   -1.3291 H   0  0  0  0  0  0  0  0  0  0  0  0
    6.1086    2.9623   -0.3694 H   0  0  0  0  0  0  0  0  0  0  0  0
    6.8075    2.6922    2.0154 H   0  0  0  0  0  0  0  0  0  0  0  0
    4.4851   -0.6666    2.4928 H   0  0  0  0  0  0  0  0  0  0  0  0
   -1.2504    0.2019   -2.6819 H   0  0  0  0  0  0  0  0  0  0  0  0
   -2.3547    2.4164   -2.6699 H   0  0  0  0  0  0  0  0  0  0  0  0
   -5.0878    3.0348   -0.5223 H   0  0  0  0  0  0  0  0  0  0  0  0
  1  2  1  0
  2  3  1  0
  3  4  2  0
  4  5  1  0
  5  6  1  0
  6  7  2  3
  7  8  1  0
  8  9  1  0
  9 10  2  0
  9 11  1  0
 11 12  1  0
 12 13  1  0
 13 14  2  0
 13 15  1  0
 15 16  2  0
 16 17  1  0
 17 18  2  0
 18 19  1  0
 19 20  2  0
 11 21  1  0
 21 22  2  0
  5 23  2  0
 23 24  1  0
 24 25  2  0
 25 26  1  0
 25  3  1  0
 21  7  1  0
 20 15  1  0
  1 27  1  0
  1 28  1  0
  1 29  1  0
  4 30  1  0
  6 31  1  0
 12 32  1  0
 16 33  1  0
 17 34  1  0
 18 35  1  0
 20 36  1  0
 23 37  1  0
 24 38  1  0
 26 39  1  0
M  END
$$$$
