
     RDKit          3D

 47 50  0  0  0  0  0  0  0  0999 V2000
   -6.1334   -1.4308    3.6920 C   0  0  0  0  0  0  0  0  0  0  0  0
   -5.9974   -0.7523    2.3367 C   0  0  0  0  0  0  0  0  0  0  0  0
   -4.7261   -1.1873    1.6074 C   0  0  0  0  0  0  0  0  0  0  0  0
   -4.6939   -0.5296    0.3230 O   0  0  0  0  0  0  0  0  0  0  0  0
   -3.4846    0.0830    0.1167 C   0  0  0  0  0  0  0  0  0  0  0  0
   -3.1892    1.2691    0.7890 C   0  0  0  0  0  0  0  0  0  0  0  0
   -1.9770    1.9201    0.5475 C   0  0  0  0  0  0  0  0  0  0  0  0
   -1.0559    1.3890   -0.3639 C   0  0  0  0  0  0  0  0  0  0  0  0
    0.1955    2.1168   -0.6104 C   0  0  0  0  0  0  0  0  0  0  0  0
    1.4423    1.6419   -0.4786 C   0  0  0  0  0  0  0  0  0  0  0  0
    1.9248    0.0363    0.0407 S   0  0  0  0  0  0  0  0  0  0  0  0
    3.5711    0.4846   -0.1246 C   0  0  0  0  0  0  0  0  0  0  0  0
    4.7154   -0.1111    0.0488 N   0  0  0  0  0  0  0  0  0  0  0  0
    5.6041    0.9040   -0.2819 C   0  0  0  0  0  0  0  0  0  0  0  0
    7.1536    0.6941   -0.2279 C   0  0  0  0  0  0  0  0  0  0  0  0
    7.7880   -0.4762    0.1441 C   0  0  0  0  0  0  0  0  0  0  0  0
    9.1804   -0.2289    0.0664 C   0  0  0  0  0  0  0  0  0  0  0  0
    9.3110    1.0693   -0.3603 C   0  0  0  0  0  0  0  0  0  0  0  0
    8.0907    1.6407   -0.5374 O   0  0  0  0  0  0  0  0  0  0  0  0
    5.0355    2.0719   -0.6441 N   0  0  0  0  0  0  0  0  0  0  0  0
    3.7347    1.7598   -0.5306 N   0  0  0  0  0  0  0  0  0  0  0  0
    2.6137    2.5286   -0.7643 C   0  0  0  0  0  0  0  0  0  0  0  0
    2.6366    3.6910   -1.1290 O   0  0  0  0  0  0  0  0  0  0  0  0
   -1.3766    0.2142   -1.0592 C   0  0  0  0  0  0  0  0  0  0  0  0
   -2.5991   -0.4286   -0.8359 C   0  0  0  0  0  0  0  0  0  0  0  0
   -2.9236   -1.6009   -1.4648 O   0  0  0  0  0  0  0  0  0  0  0  0
   -2.8582   -1.5374   -2.8921 C   0  0  0  0  0  0  0  0  0  0  0  0
   -1.8680   -2.5739   -3.3901 C   0  0  0  0  0  0  0  0  0  0  0  0
   -5.2871   -1.1859    4.3431 H   0  0  0  0  0  0  0  0  0  0  0  0
   -7.0505   -1.1014    4.1878 H   0  0  0  0  0  0  0  0  0  0  0  0
   -6.1757   -2.5183    3.5821 H   0  0  0  0  0  0  0  0  0  0  0  0
   -5.9945    0.3350    2.4657 H   0  0  0  0  0  0  0  0  0  0  0  0
   -6.8734   -0.9772    1.7136 H   0  0  0  0  0  0  0  0  0  0  0  0
   -4.7467   -2.2688    1.4227 H   0  0  0  0  0  0  0  0  0  0  0  0
   -3.8416   -0.9781    2.2261 H   0  0  0  0  0  0  0  0  0  0  0  0
   -3.9043    1.6914    1.4901 H   0  0  0  0  0  0  0  0  0  0  0  0
   -1.7609    2.8433    1.0808 H   0  0  0  0  0  0  0  0  0  0  0  0
    0.0506    3.1559   -0.9127 H   0  0  0  0  0  0  0  0  0  0  0  0
    7.2960   -1.3919    0.4377 H   0  0  0  0  0  0  0  0  0  0  0  0
    9.9879   -0.9134    0.2883 H   0  0  0  0  0  0  0  0  0  0  0  0
   10.1577    1.7068   -0.5702 H   0  0  0  0  0  0  0  0  0  0  0  0
   -0.6754   -0.2057   -1.7749 H   0  0  0  0  0  0  0  0  0  0  0  0
   -3.8586   -1.7771   -3.2746 H   0  0  0  0  0  0  0  0  0  0  0  0
   -2.5966   -0.5430   -3.2730 H   0  0  0  0  0  0  0  0  0  0  0  0
   -1.7907   -2.5520   -4.4812 H   0  0  0  0  0  0  0  0  0  0  0  0
   -0.8720   -2.4005   -2.9633 H   0  0  0  0  0  0  0  0  0  0  0  0
   -2.1787   -3.5764   -3.0807 H   0  0  0  0  0  0  0  0  0  0  0  0
  1  2  1  0
  2  3  1  0
  3  4  1  0
  4  5  1  0
  5  6  2  0
  6  7  1  0
  7  8  2  0
  8  9  1  0
  9 10  2  3
 10 11  1  0
 11 12  1  0
 12 13  2  0
 13 14  1  0
 14 15  1  0
 15 16  2  0
 16 17  1  0
 17 18  2  0
 18 19  1  0
 14 20  2  0
 20 21  1  0
 21 22  1  0
 22 23  2  0
  8 24  1  0
 24 25  2  0
 25 26  1  0
 26 27  1  0
 27 28  1  0
 25  5  1  0
 22 10  1  0
 21 12  1  0
 19 15  1  0
  1 29  1  0
  1 30  1  0
  1 31  1  0
  2 32  1  0
  2 33  1  0
  3 34  1  0
  3 35  1  0
  6 36  1  0
  7 37  1  0
  9 38  1  0
 16 39  1  0
 17 40  1  0
 18 41  1  0
 24 42  1  0
 27 43  1  0
 27 44  1  0
 28 45  1  0
 28 46  1  0
 28 47  1  0
M  END
$$$$
