
     RDKit          3D

 70 75  0  0  0  0  0  0  0  0999 V2000
    2.2275    3.7425   -1.7072 O   0  0  0  0  0  0  0  0  0  0  0  0
    1.4862    2.7882   -0.9247 C   0  0  0  0  0  0  0  0  0  0  0  0
    2.3419    1.5310   -0.7101 C   0  0  0  0  0  0  0  0  0  0  0  0
    3.6476    1.9241   -0.1704 N   0  0  0  0  0  0  0  0  0  0  0  0
    4.6866    1.0161   -0.1099 C   0  0  0  0  0  0  0  0  0  0  0  0
    4.6587   -0.0576   -0.8533 N   0  0  0  0  0  0  0  0  0  0  0  0
    5.7029   -1.0028   -0.7764 C   0  0  0  0  0  0  0  0  0  0  0  0
    5.6234   -2.1466   -1.5742 C   0  0  0  0  0  0  0  0  0  0  0  0
    6.6247   -3.1209   -1.5255 C   0  0  0  0  0  0  0  0  0  0  0  0
    7.7185   -2.9590   -0.6747 C   0  0  0  0  0  0  0  0  0  0  0  0
    7.8196   -1.8242    0.1315 C   0  0  0  0  0  0  0  0  0  0  0  0
    6.8117   -0.8573    0.0717 C   0  0  0  0  0  0  0  0  0  0  0  0
    6.8325    0.3127    0.8491 N   0  0  0  0  0  0  0  0  0  0  0  0
    7.7709    0.7497    1.7551 C   0  0  0  0  0  0  0  0  0  0  0  0
    7.3476    1.9588    2.2634 C   0  0  0  0  0  0  0  0  0  0  0  0
    6.1099    2.2649    1.6466 C   0  0  0  0  0  0  0  0  0  0  0  0
    5.8123    1.2337    0.7760 C   0  0  0  0  0  0  0  0  0  0  0  0
    0.1481    2.5128   -1.6406 C   0  0  0  0  0  0  0  0  0  0  0  0
   -0.7487    1.6133   -0.8933 N   0  0  0  0  0  0  0  0  0  0  0  0
   -2.1478    2.0984   -0.9567 C   0  0  0  0  0  0  0  0  0  0  0  0
   -3.1329    1.1579   -0.2227 C   0  0  0  0  0  0  0  0  0  0  0  0
   -3.0780   -0.2071   -0.7705 N   0  0  0  0  0  0  0  0  0  0  0  0
   -4.0827   -1.1532   -0.2249 C   0  0  0  0  0  0  0  0  0  0  0  0
   -4.0963   -1.2468    1.3078 C   0  0  0  0  0  0  0  0  0  0  0  0
   -4.8493   -0.3621    2.1015 C   0  0  0  0  0  0  0  0  0  0  0  0
   -4.8494   -0.4703    3.4937 C   0  0  0  0  0  0  0  0  0  0  0  0
   -4.0900   -1.4584    4.1151 C   0  0  0  0  0  0  0  0  0  0  0  0
   -3.3304   -2.3380    3.3476 C   0  0  0  0  0  0  0  0  0  0  0  0
   -3.3345   -2.2349    1.9550 C   0  0  0  0  0  0  0  0  0  0  0  0
   -5.4752   -1.0012   -0.8765 C   0  0  0  0  0  0  0  0  0  0  0  0
   -6.5865   -1.7018   -0.3655 C   0  0  0  0  0  0  0  0  0  0  0  0
   -7.8419   -1.6192   -0.9757 C   0  0  0  0  0  0  0  0  0  0  0  0
   -8.0085   -0.8609   -2.1298 C   0  0  0  0  0  0  0  0  0  0  0  0
   -6.9176   -0.1903   -2.6772 C   0  0  0  0  0  0  0  0  0  0  0  0
   -5.6638   -0.2690   -2.0635 C   0  0  0  0  0  0  0  0  0  0  0  0
   -1.6977   -0.7104   -0.6994 C   0  0  0  0  0  0  0  0  0  0  0  0
   -0.7157    0.2347   -1.4333 C   0  0  0  0  0  0  0  0  0  0  0  0
    3.1627    3.4453   -1.6945 H   0  0  0  0  0  0  0  0  0  0  0  0
    1.2951    3.2662    0.0418 H   0  0  0  0  0  0  0  0  0  0  0  0
    1.8583    0.8408   -0.0108 H   0  0  0  0  0  0  0  0  0  0  0  0
    2.4798    1.0291   -1.6745 H   0  0  0  0  0  0  0  0  0  0  0  0
    3.5623    2.4843    0.6683 H   0  0  0  0  0  0  0  0  0  0  0  0
    4.7709   -2.2753   -2.2371 H   0  0  0  0  0  0  0  0  0  0  0  0
    6.5464   -4.0072   -2.1489 H   0  0  0  0  0  0  0  0  0  0  0  0
    8.4948   -3.7196   -0.6387 H   0  0  0  0  0  0  0  0  0  0  0  0
    8.6789   -1.7225    0.7861 H   0  0  0  0  0  0  0  0  0  0  0  0
    8.6658    0.1825    1.9691 H   0  0  0  0  0  0  0  0  0  0  0  0
    7.8772    2.5575    2.9956 H   0  0  0  0  0  0  0  0  0  0  0  0
    5.5132    3.1507    1.8180 H   0  0  0  0  0  0  0  0  0  0  0  0
   -0.3275    3.4927   -1.7792 H   0  0  0  0  0  0  0  0  0  0  0  0
    0.3267    2.1567   -2.6639 H   0  0  0  0  0  0  0  0  0  0  0  0
   -2.2109    3.0862   -0.4835 H   0  0  0  0  0  0  0  0  0  0  0  0
   -2.4689    2.2102   -2.0018 H   0  0  0  0  0  0  0  0  0  0  0  0
   -4.1398    1.5760   -0.3288 H   0  0  0  0  0  0  0  0  0  0  0  0
   -2.8800    1.1684    0.8446 H   0  0  0  0  0  0  0  0  0  0  0  0
   -3.7923   -2.1503   -0.5889 H   0  0  0  0  0  0  0  0  0  0  0  0
   -5.4503    0.4147    1.6342 H   0  0  0  0  0  0  0  0  0  0  0  0
   -5.4474    0.2140    4.0918 H   0  0  0  0  0  0  0  0  0  0  0  0
   -4.0905   -1.5451    5.2000 H   0  0  0  0  0  0  0  0  0  0  0  0
   -2.7358   -3.1067    3.8341 H   0  0  0  0  0  0  0  0  0  0  0  0
   -2.7314   -2.9320    1.3750 H   0  0  0  0  0  0  0  0  0  0  0  0
   -6.4838   -2.3306    0.5182 H   0  0  0  0  0  0  0  0  0  0  0  0
   -8.6843   -2.1654   -0.5565 H   0  0  0  0  0  0  0  0  0  0  0  0
   -8.9818   -0.8058   -2.6129 H   0  0  0  0  0  0  0  0  0  0  0  0
   -7.0332    0.3744   -3.5965 H   0  0  0  0  0  0  0  0  0  0  0  0
   -4.8256    0.2350   -2.5389 H   0  0  0  0  0  0  0  0  0  0  0  0
   -1.3707   -0.8251    0.3419 H   0  0  0  0  0  0  0  0  0  0  0  0
   -1.6320   -1.6950   -1.1781 H   0  0  0  0  0  0  0  0  0  0  0  0
    0.2891   -0.1878   -1.3319 H   0  0  0  0  0  0  0  0  0  0  0  0
   -0.9587    0.2369   -2.5058 H   0  0  0  0  0  0  0  0  0  0  0  0
  1  2  1  0
  2  3  1  0
  3  4  1  0
  4  5  1  0
  5  6  2  0
  6  7  1  0
  7  8  2  0
  8  9  1  0
  9 10  2  0
 10 11  1  0
 11 12  2  0
 12 13  1  0
 13 14  1  0
 14 15  2  0
 15 16  1  0
 16 17  2  0
  2 18  1  0
 18 19  1  0
 19 20  1  0
 20 21  1  0
 21 22  1  0
 22 23  1  0
 23 24  1  0
 24 25  2  0
 25 26  1  0
 26 27  2  0
 27 28  1  0
 28 29  2  0
 23 30  1  0
 30 31  2  0
 31 32  1  0
 32 33  2  0
 33 34  1  0
 34 35  2  0
 22 36  1  0
 36 37  1  0
 17  5  1  0
 37 19  1  0
 12  7  1  0
 17 13  1  0
 29 24  1  0
 35 30  1  0
  1 38  1  0
  2 39  1  0
  3 40  1  0
  3 41  1  0
  4 42  1  0
  8 43  1  0
  9 44  1  0
 10 45  1  0
 11 46  1  0
 14 47  1  0
 15 48  1  0
 16 49  1  0
 18 50  1  0
 18 51  1  0
 20 52  1  0
 20 53  1  0
 21 54  1  0
 21 55  1  0
 23 56  1  0
 25 57  1  0
 26 58  1  0
 27 59  1  0
 28 60  1  0
 29 61  1  0
 31 62  1  0
 32 63  1  0
 33 64  1  0
 34 65  1  0
 35 66  1  0
 36 67  1  0
 36 68  1  0
 37 69  1  0
 37 70  1  0
M  END
$$$$
