
     RDKit          3D

 43 45  0  0  0  0  0  0  0  0999 V2000
   -2.9089    0.7153    1.3849 C   0  0  0  0  0  0  0  0  0  0  0  0
   -2.5556   -0.4162    0.3965 C   0  0  0  0  0  0  0  0  0  0  0  0
   -2.4000   -1.6985    1.2398 C   0  0  0  0  0  0  0  0  0  0  0  0
   -3.5541   -0.5701   -0.7849 C   0  0  0  0  0  0  0  0  0  0  0  0
   -2.8747   -1.6320   -1.6788 C   0  0  0  0  0  0  0  0  0  0  0  0
   -1.3739   -1.2955   -1.5454 C   0  0  0  0  0  0  0  0  0  0  0  0
   -1.3573   -0.1034   -0.5569 C   0  0  0  0  0  0  0  0  0  0  0  0
   -0.0487    0.2710    0.1160 C   0  0  0  0  0  0  0  0  0  0  0  0
    1.3997    0.0196   -0.9116 S   0  0  0  0  0  6  0  0  0  0  0  0
    1.7700   -1.3791   -0.8466 O   0  0  0  0  0  0  0  0  0  0  0  0
    1.2152    0.6707   -2.1877 O   0  0  0  0  0  0  0  0  0  0  0  0
    2.5930    0.8858   -0.0609 N   0  0  0  0  0  0  0  0  0  0  0  0
    2.8907    0.4069    1.3282 C   0  0  0  0  0  0  0  0  0  0  0  0
    4.2425    0.9477    1.8054 C   0  0  0  0  0  0  0  0  0  0  0  0
    5.3425    0.4792    1.0147 O   0  0  0  0  0  0  0  0  0  0  0  0
    4.9914    0.2417   -0.3573 C   0  0  0  0  0  0  0  0  0  0  0  0
    3.8495    1.1353   -0.8497 C   0  0  0  0  0  0  0  0  0  0  0  0
   -1.9894    1.0490   -1.3453 C   0  0  0  0  0  0  0  0  0  0  0  0
   -1.4200    2.0609   -1.7194 O   0  0  0  0  0  0  0  0  0  0  0  0
   -3.4685    0.7790   -1.5343 C   0  0  0  0  0  0  0  0  0  0  0  0
   -2.9643    1.7072    0.9286 H   0  0  0  0  0  0  0  0  0  0  0  0
   -3.8787    0.5203    1.8565 H   0  0  0  0  0  0  0  0  0  0  0  0
   -2.1581    0.7831    2.1807 H   0  0  0  0  0  0  0  0  0  0  0  0
   -2.0708   -2.5728    0.6740 H   0  0  0  0  0  0  0  0  0  0  0  0
   -3.3546   -1.9613    1.7101 H   0  0  0  0  0  0  0  0  0  0  0  0
   -1.6662   -1.5529    2.0405 H   0  0  0  0  0  0  0  0  0  0  0  0
   -4.5758   -0.8377   -0.5045 H   0  0  0  0  0  0  0  0  0  0  0  0
   -3.0783   -2.6466   -1.3206 H   0  0  0  0  0  0  0  0  0  0  0  0
   -3.2103   -1.5810   -2.7200 H   0  0  0  0  0  0  0  0  0  0  0  0
   -0.8240   -2.1618   -1.1639 H   0  0  0  0  0  0  0  0  0  0  0  0
   -0.9585   -1.0345   -2.5252 H   0  0  0  0  0  0  0  0  0  0  0  0
   -0.0488    1.3263    0.4096 H   0  0  0  0  0  0  0  0  0  0  0  0
    0.1139   -0.3363    1.0117 H   0  0  0  0  0  0  0  0  0  0  0  0
    2.1022    0.7623    1.9988 H   0  0  0  0  0  0  0  0  0  0  0  0
    2.9144   -0.6878    1.3523 H   0  0  0  0  0  0  0  0  0  0  0  0
    4.4284    0.6401    2.8393 H   0  0  0  0  0  0  0  0  0  0  0  0
    4.2523    2.0438    1.7834 H   0  0  0  0  0  0  0  0  0  0  0  0
    4.7272   -0.8172   -0.4579 H   0  0  0  0  0  0  0  0  0  0  0  0
    5.8907    0.4135   -0.9571 H   0  0  0  0  0  0  0  0  0  0  0  0
    3.6929    0.9759   -1.9206 H   0  0  0  0  0  0  0  0  0  0  0  0
    4.1082    2.1925   -0.7166 H   0  0  0  0  0  0  0  0  0  0  0  0
   -4.0604    1.5572   -1.0471 H   0  0  0  0  0  0  0  0  0  0  0  0
   -3.7248    0.7005   -2.5931 H   0  0  0  0  0  0  0  0  0  0  0  0
  1  2  1  0
  2  3  1  0
  2  4  1  0
  4  5  1  0
  5  6  1  0
  6  7  1  0
  7  8  1  0
  8  9  1  0
  9 10  2  0
  9 11  2  0
  9 12  1  0
 12 13  1  0
 13 14  1  0
 14 15  1  0
 15 16  1  0
 16 17  1  0
  7 18  1  0
 18 19  2  0
 18 20  1  0
  7  2  1  0
 17 12  1  0
 20  4  1  0
  1 21  1  0
  1 22  1  0
  1 23  1  0
  3 24  1  0
  3 25  1  0
  3 26  1  0
  4 27  1  0
  5 28  1  0
  5 29  1  0
  6 30  1  0
  6 31  1  0
  8 32  1  0
  8 33  1  0
 13 34  1  0
 13 35  1  0
 14 36  1  0
 14 37  1  0
 16 38  1  0
 16 39  1  0
 17 40  1  0
 17 41  1  0
 20 42  1  0
 20 43  1  0
M  END
$$$$
