
     RDKit          3D

 46 48  0  0  0  0  0  0  0  0999 V2000
   -3.1895   -2.3834    1.2123 O   0  0  0  0  0  0  0  0  0  0  0  0
   -3.0529   -1.2342    0.8128 C   0  0  0  0  0  0  0  0  0  0  0  0
   -4.0157   -0.2405    0.8006 N   0  0  0  0  0  0  0  0  0  0  0  0
   -5.3288   -0.3233    1.3149 C   0  0  0  0  0  0  0  0  0  0  0  0
   -5.8293   -1.4267    2.0092 C   0  0  0  0  0  0  0  0  0  0  0  0
   -7.1406   -1.4150    2.4855 C   0  0  0  0  0  0  0  0  0  0  0  0
   -7.6077   -2.4801    3.1503 F   0  0  0  0  0  0  0  0  0  0  0  0
   -7.9714   -0.3230    2.2881 C   0  0  0  0  0  0  0  0  0  0  0  0
   -7.4703    0.7709    1.6025 C   0  0  0  0  0  0  0  0  0  0  0  0
   -8.2535    1.8386    1.4012 F   0  0  0  0  0  0  0  0  0  0  0  0
   -6.1637    0.7834    1.1172 C   0  0  0  0  0  0  0  0  0  0  0  0
   -1.7336   -0.8462    0.2396 C   0  0  0  0  0  0  0  0  0  0  0  0
   -0.9994   -1.8063   -0.4596 C   0  0  0  0  0  0  0  0  0  0  0  0
    0.2469   -1.4866   -1.0179 C   0  0  0  0  0  0  0  0  0  0  0  0
    0.8238   -0.2149   -0.8670 C   0  0  0  0  0  0  0  0  0  0  0  0
    2.0239    0.1286   -1.5076 N   0  0  0  0  0  0  0  0  0  0  0  0
    2.9517   -0.9094   -1.9690 C   0  0  0  0  0  0  0  0  0  0  0  0
    4.2308   -0.2861   -2.5493 C   0  0  0  0  0  0  0  0  0  0  0  0
    5.1302    0.3214   -1.4981 C   0  0  0  0  0  0  0  0  0  0  0  0
    5.1296    1.7045   -1.2728 C   0  0  0  0  0  0  0  0  0  0  0  0
    5.9444    2.2608   -0.2858 C   0  0  0  0  0  0  0  0  0  0  0  0
    6.7695    1.4420    0.4823 C   0  0  0  0  0  0  0  0  0  0  0  0
    6.7802    0.0656    0.2652 C   0  0  0  0  0  0  0  0  0  0  0  0
    5.9638   -0.4934   -0.7192 C   0  0  0  0  0  0  0  0  0  0  0  0
    0.0495    0.7399   -0.1653 C   0  0  0  0  0  0  0  0  0  0  0  0
    0.5269    2.1135    0.0035 N   0  0  0  0  0  4  0  0  0  0  0  0
   -0.3289    3.0119    0.0030 O   0  0  0  0  0  0  0  0  0  0  0  0
    1.7431    2.2945    0.1627 O   0  0  0  0  0  1  0  0  0  0  0  0
   -1.2048    0.4335    0.3994 C   0  0  0  0  0  0  0  0  0  0  0  0
   -3.7914    0.6187    0.3138 H   0  0  0  0  0  0  0  0  0  0  0  0
   -5.2340   -2.3118    2.2045 H   0  0  0  0  0  0  0  0  0  0  0  0
   -8.9875   -0.3261    2.6631 H   0  0  0  0  0  0  0  0  0  0  0  0
   -5.8228    1.6675    0.5873 H   0  0  0  0  0  0  0  0  0  0  0  0
   -1.3987   -2.8122   -0.5864 H   0  0  0  0  0  0  0  0  0  0  0  0
    0.7530   -2.2696   -1.5768 H   0  0  0  0  0  0  0  0  0  0  0  0
    2.5187    0.8661   -0.9883 H   0  0  0  0  0  0  0  0  0  0  0  0
    3.1992   -1.5914   -1.1466 H   0  0  0  0  0  0  0  0  0  0  0  0
    2.4767   -1.4886   -2.7693 H   0  0  0  0  0  0  0  0  0  0  0  0
    3.9740    0.4704   -3.3019 H   0  0  0  0  0  0  0  0  0  0  0  0
    4.7984   -1.0607   -3.0810 H   0  0  0  0  0  0  0  0  0  0  0  0
    4.4879    2.3598   -1.8586 H   0  0  0  0  0  0  0  0  0  0  0  0
    5.9312    3.3341   -0.1142 H   0  0  0  0  0  0  0  0  0  0  0  0
    7.4027    1.8770    1.2509 H   0  0  0  0  0  0  0  0  0  0  0  0
    7.4240   -0.5727    0.8646 H   0  0  0  0  0  0  0  0  0  0  0  0
    5.9844   -1.5697   -0.8739 H   0  0  0  0  0  0  0  0  0  0  0  0
   -1.7402    1.1856    0.9741 H   0  0  0  0  0  0  0  0  0  0  0  0
  1  2  2  0
  2  3  1  0
  3  4  1  0
  4  5  2  0
  5  6  1  0
  6  7  1  0
  6  8  2  0
  8  9  1  0
  9 10  1  0
  9 11  2  0
  2 12  1  0
 12 13  2  0
 13 14  1  0
 14 15  2  0
 15 16  1  0
 16 17  1  0
 17 18  1  0
 18 19  1  0
 19 20  2  0
 20 21  1  0
 21 22  2  0
 22 23  1  0
 23 24  2  0
 15 25  1  0
 25 26  1  0
 26 27  2  0
 26 28  1  0
 25 29  2  0
 11  4  1  0
 29 12  1  0
 24 19  1  0
  3 30  1  0
  5 31  1  0
  8 32  1  0
 11 33  1  0
 13 34  1  0
 14 35  1  0
 16 36  1  0
 17 37  1  0
 17 38  1  0
 18 39  1  0
 18 40  1  0
 20 41  1  0
 21 42  1  0
 22 43  1  0
 23 44  1  0
 24 45  1  0
 29 46  1  0
M  CHG  2  26   1  28  -1
M  END
$$$$
