
     RDKit          3D

 40 41  0  0  0  0  0  0  0  0999 V2000
   -1.9587   -1.9207   -5.8452 C   0  0  0  0  0  0  0  0  0  0  0  0
   -2.0204   -2.9987   -4.7765 C   0  0  0  0  0  0  0  0  0  0  0  0
   -1.4437   -2.5337   -3.5561 O   0  0  0  0  0  0  0  0  0  0  0  0
   -2.3152   -1.9340   -2.6733 C   0  0  0  0  0  0  0  0  0  0  0  0
   -3.5685   -1.6363   -3.1020 N   0  0  0  0  0  0  0  0  0  0  0  0
   -4.3846   -0.9921   -2.2397 C   0  0  0  0  0  0  0  0  0  0  0  0
   -4.0110   -0.6181   -0.9608 C   0  0  0  0  0  0  0  0  0  0  0  0
   -2.7217   -0.9260   -0.5376 C   0  0  0  0  0  0  0  0  0  0  0  0
   -1.8503   -1.5960   -1.4065 C   0  0  0  0  0  0  0  0  0  0  0  0
   -0.4847   -1.9550   -0.9752 C   0  0  0  0  0  0  0  0  0  0  0  0
    0.0979   -2.9883   -1.2526 O   0  0  0  0  0  0  0  0  0  0  0  0
    0.0091   -0.9461   -0.2137 O   0  0  0  0  0  0  0  0  0  0  0  0
    1.3432   -1.1764    0.2460 C   0  0  0  0  0  0  0  0  0  0  0  0
    1.7360   -0.0105    1.1184 C   0  0  0  0  0  0  0  0  0  0  0  0
    2.0225    1.2355    0.5434 C   0  0  0  0  0  0  0  0  0  0  0  0
    2.3734    2.3236    1.3468 C   0  0  0  0  0  0  0  0  0  0  0  0
    2.4391    2.1835    2.7389 C   0  0  0  0  0  0  0  0  0  0  0  0
    2.8167    3.3746    3.5480 C   0  0  0  0  0  0  0  0  0  0  0  0
    3.0644    4.4681    3.0642 O   0  0  0  0  0  0  0  0  0  0  0  0
    2.8434    3.0684    4.8695 O   0  0  0  0  0  0  0  0  0  0  0  0
    3.2020    4.1653    5.7109 C   0  0  0  0  0  0  0  0  0  0  0  0
    2.1465    0.9419    3.3177 C   0  0  0  0  0  0  0  0  0  0  0  0
    1.7948   -0.1459    2.5120 C   0  0  0  0  0  0  0  0  0  0  0  0
   -2.3255   -2.3038   -6.8018 H   0  0  0  0  0  0  0  0  0  0  0  0
   -2.5578   -1.0482   -5.5677 H   0  0  0  0  0  0  0  0  0  0  0  0
   -0.9296   -1.5705   -5.9774 H   0  0  0  0  0  0  0  0  0  0  0  0
   -3.0349   -3.3947   -4.6459 H   0  0  0  0  0  0  0  0  0  0  0  0
   -1.4072   -3.8459   -5.1043 H   0  0  0  0  0  0  0  0  0  0  0  0
   -5.3797   -0.7750   -2.6188 H   0  0  0  0  0  0  0  0  0  0  0  0
   -4.7065   -0.1004   -0.3089 H   0  0  0  0  0  0  0  0  0  0  0  0
   -2.4037   -0.6484    0.4643 H   0  0  0  0  0  0  0  0  0  0  0  0
    2.0314   -1.2459   -0.6054 H   0  0  0  0  0  0  0  0  0  0  0  0
    1.3908   -2.1121    0.8164 H   0  0  0  0  0  0  0  0  0  0  0  0
    1.9690    1.3657   -0.5360 H   0  0  0  0  0  0  0  0  0  0  0  0
    2.5933    3.2825    0.8807 H   0  0  0  0  0  0  0  0  0  0  0  0
    2.4732    4.9763    5.6153 H   0  0  0  0  0  0  0  0  0  0  0  0
    4.2101    4.5185    5.4721 H   0  0  0  0  0  0  0  0  0  0  0  0
    3.1948    3.8141    6.7465 H   0  0  0  0  0  0  0  0  0  0  0  0
    2.1859    0.8048    4.3956 H   0  0  0  0  0  0  0  0  0  0  0  0
    1.5660   -1.1004    2.9822 H   0  0  0  0  0  0  0  0  0  0  0  0
  1  2  1  0
  2  3  1  0
  3  4  1  0
  4  5  2  0
  5  6  1  0
  6  7  2  0
  7  8  1  0
  8  9  2  0
  9 10  1  0
 10 11  2  0
 10 12  1  0
 12 13  1  0
 13 14  1  0
 14 15  2  0
 15 16  1  0
 16 17  2  0
 17 18  1  0
 18 19  2  0
 18 20  1  0
 20 21  1  0
 17 22  1  0
 22 23  2  0
  9  4  1  0
 23 14  1  0
  1 24  1  0
  1 25  1  0
  1 26  1  0
  2 27  1  0
  2 28  1  0
  6 29  1  0
  7 30  1  0
  8 31  1  0
 13 32  1  0
 13 33  1  0
 15 34  1  0
 16 35  1  0
 21 36  1  0
 21 37  1  0
 21 38  1  0
 22 39  1  0
 23 40  1  0
M  END
$$$$
