
     RDKit          3D

 56 60  0  0  0  0  0  0  0  0999 V2000
   -5.4993   -2.0923   -1.1800 C   0  0  0  0  0  0  0  0  0  0  0  0
   -4.0770   -1.8267   -0.7727 C   0  0  0  0  0  0  0  0  0  0  0  0
   -3.0497   -2.4644   -1.4863 C   0  0  0  0  0  0  0  0  0  0  0  0
   -1.7069   -2.2739   -1.1457 C   0  0  0  0  0  0  0  0  0  0  0  0
   -1.3452   -1.4538   -0.0684 C   0  0  0  0  0  0  0  0  0  0  0  0
    0.0635   -1.2416    0.2908 C   0  0  0  0  0  0  0  0  0  0  0  0
    0.5014    0.0120    0.0456 N   0  0  0  0  0  0  0  0  0  0  0  0
    1.7969    0.3535    0.3157 N   0  0  0  0  0  0  0  0  0  0  0  0
    2.6623   -0.5441    0.8319 C   0  0  0  0  0  0  0  0  0  0  0  0
    3.9958   -0.1552    1.1393 N   0  0  0  0  0  0  0  0  0  0  0  0
    4.6777    1.0154    0.7303 C   0  0  0  0  0  0  0  0  0  0  0  0
    5.7644    1.4743    1.5151 C   0  0  0  0  0  0  0  0  0  0  0  0
    6.5263    2.5858    1.1351 C   0  0  0  0  0  0  0  0  0  0  0  0
    6.2001    3.2075   -0.0475 C   0  0  0  0  0  0  0  0  0  0  0  0
    5.1719    2.7554   -0.8376 C   0  0  0  0  0  0  0  0  0  0  0  0
    4.4059    1.6619   -0.4846 C   0  0  0  0  0  0  0  0  0  0  0  0
    5.0285    3.4933   -1.9719 O   0  0  0  0  0  0  0  0  0  0  0  0
    6.0711    4.4728   -1.7925 C   0  0  0  0  0  0  0  0  0  0  0  0
    6.8290    4.2892   -0.5783 O   0  0  0  0  0  0  0  0  0  0  0  0
    2.2497   -1.8709    1.1012 C   0  0  0  0  0  0  0  0  0  0  0  0
    3.1192   -2.8658    1.6176 C   0  0  0  0  0  0  0  0  0  0  0  0
    2.6770   -4.1598    1.8951 C   0  0  0  0  0  0  0  0  0  0  0  0
    1.3531   -4.4976    1.6637 C   0  0  0  0  0  0  0  0  0  0  0  0
    0.4788   -3.5455    1.1405 C   0  0  0  0  0  0  0  0  0  0  0  0
    0.9063   -2.2276    0.8363 C   0  0  0  0  0  0  0  0  0  0  0  0
   -2.3666   -0.8135    0.6479 C   0  0  0  0  0  0  0  0  0  0  0  0
   -3.7172   -0.9940    0.3033 C   0  0  0  0  0  0  0  0  0  0  0  0
   -4.9320   -0.1382    1.2884 S   0  0  0  0  0  6  0  0  0  0  0  0
   -6.0433   -1.0325    1.5218 O   0  0  0  0  0  0  0  0  0  0  0  0
   -4.2725    0.5377    2.3835 O   0  0  0  0  0  0  0  0  0  0  0  0
   -5.4869    1.0437    0.2238 N   0  0  0  0  0  0  0  0  0  0  0  0
   -4.6827    2.2768    0.0953 C   0  0  0  0  0  0  0  0  0  0  0  0
   -5.1133    3.0068   -1.1779 C   0  0  0  0  0  0  0  0  0  0  0  0
   -4.9484    2.1573   -2.3120 O   0  0  0  0  0  0  0  0  0  0  0  0
   -6.0653   -1.1625   -1.2795 H   0  0  0  0  0  0  0  0  0  0  0  0
   -5.5457   -2.5876   -2.1564 H   0  0  0  0  0  0  0  0  0  0  0  0
   -5.9856   -2.7512   -0.4546 H   0  0  0  0  0  0  0  0  0  0  0  0
   -3.2860   -3.1158   -2.3267 H   0  0  0  0  0  0  0  0  0  0  0  0
   -0.9376   -2.7689   -1.7371 H   0  0  0  0  0  0  0  0  0  0  0  0
    4.1734   -0.3673    2.1158 H   0  0  0  0  0  0  0  0  0  0  0  0
    6.0237    0.9640    2.4398 H   0  0  0  0  0  0  0  0  0  0  0  0
    7.3490    2.9406    1.7449 H   0  0  0  0  0  0  0  0  0  0  0  0
    3.6205    1.3238   -1.1510 H   0  0  0  0  0  0  0  0  0  0  0  0
    6.7572    4.4144   -2.6453 H   0  0  0  0  0  0  0  0  0  0  0  0
    5.6169    5.4703   -1.7749 H   0  0  0  0  0  0  0  0  0  0  0  0
    4.1694   -2.6422    1.7969 H   0  0  0  0  0  0  0  0  0  0  0  0
    3.3688   -4.8996    2.2903 H   0  0  0  0  0  0  0  0  0  0  0  0
    0.9977   -5.5013    1.8837 H   0  0  0  0  0  0  0  0  0  0  0  0
   -0.5546   -3.8459    0.9745 H   0  0  0  0  0  0  0  0  0  0  0  0
   -2.0960   -0.1621    1.4793 H   0  0  0  0  0  0  0  0  0  0  0  0
   -6.5012    1.1438    0.2829 H   0  0  0  0  0  0  0  0  0  0  0  0
   -3.6219    2.0183    0.0168 H   0  0  0  0  0  0  0  0  0  0  0  0
   -4.8435    2.9189    0.9662 H   0  0  0  0  0  0  0  0  0  0  0  0
   -4.5127    3.9080   -1.3307 H   0  0  0  0  0  0  0  0  0  0  0  0
   -6.1681    3.2954   -1.1254 H   0  0  0  0  0  0  0  0  0  0  0  0
   -5.1959    1.2610   -2.0154 H   0  0  0  0  0  0  0  0  0  0  0  0
  1  2  1  0
  2  3  2  0
  3  4  1  0
  4  5  2  0
  5  6  1  0
  6  7  2  0
  7  8  1  0
  8  9  2  0
  9 10  1  0
 10 11  1  0
 11 12  2  0
 12 13  1  0
 13 14  2  0
 14 15  1  0
 15 16  2  0
 15 17  1  0
 17 18  1  0
 18 19  1  0
  9 20  1  0
 20 21  2  0
 21 22  1  0
 22 23  2  0
 23 24  1  0
 24 25  2  0
  5 26  1  0
 26 27  2  0
 27 28  1  0
 28 29  2  0
 28 30  2  0
 28 31  1  0
 31 32  1  0
 32 33  1  0
 33 34  1  0
 27  2  1  0
 25  6  1  0
 16 11  1  0
 25 20  1  0
 19 14  1  0
  1 35  1  0
  1 36  1  0
  1 37  1  0
  3 38  1  0
  4 39  1  0
 10 40  1  0
 12 41  1  0
 13 42  1  0
 16 43  1  0
 18 44  1  0
 18 45  1  0
 21 46  1  0
 22 47  1  0
 23 48  1  0
 24 49  1  0
 26 50  1  0
 31 51  1  0
 32 52  1  0
 32 53  1  0
 33 54  1  0
 33 55  1  0
 34 56  1  0
M  END
$$$$
