
     RDKit          3D

 42 44  0  0  0  0  0  0  0  0999 V2000
   -2.1793    2.6495    0.8391 C   0  0  0  0  0  0  0  0  0  0  0  0
   -3.2144    1.9556   -0.0232 C   0  0  0  0  0  0  0  0  0  0  0  0
   -3.8506    2.6353   -0.8342 O   0  0  0  0  0  0  0  0  0  0  0  0
   -3.4228    0.5776    0.2070 N   0  0  0  0  0  0  0  0  0  0  0  0
   -2.3936   -0.2880    0.5962 C   0  0  0  0  0  0  0  0  0  0  0  0
   -1.0831   -0.1457    0.3391 C   0  0  0  0  0  0  0  0  0  0  0  0
   -0.0946   -1.1071    0.7840 C   0  0  0  0  0  0  0  0  0  0  0  0
    1.2326   -1.0782    0.5759 C   0  0  0  0  0  0  0  0  0  0  0  0
    1.9909   -0.0762   -0.1471 C   0  0  0  0  0  0  0  0  0  0  0  0
    3.3195   -0.0527   -0.3439 C   0  0  0  0  0  0  0  0  0  0  0  0
    4.0824    1.2393   -1.2488 S   0  0  0  0  0  0  0  0  0  0  0  0
    5.6872    0.5275   -1.0317 C   0  0  0  0  0  0  0  0  0  0  0  0
    6.8833    1.0388   -1.5158 C   0  0  0  0  0  0  0  0  0  0  0  0
    8.0706    0.3467   -1.2524 C   0  0  0  0  0  0  0  0  0  0  0  0
    8.0543   -0.8442   -0.5115 C   0  0  0  0  0  0  0  0  0  0  0  0
    6.8499   -1.3551   -0.0266 C   0  0  0  0  0  0  0  0  0  0  0  0
    5.6818   -0.6533   -0.2989 C   0  0  0  0  0  0  0  0  0  0  0  0
    4.3355   -1.0475    0.1335 C   0  0  0  0  0  0  0  0  0  0  0  0
    4.1261   -2.0536    0.7893 O   0  0  0  0  0  0  0  0  0  0  0  0
   -4.7657    0.0490    0.0191 C   0  0  0  0  0  0  0  0  0  0  0  0
   -5.9012    0.8715    0.1080 C   0  0  0  0  0  0  0  0  0  0  0  0
   -7.1914    0.3523   -0.0517 C   0  0  0  0  0  0  0  0  0  0  0  0
   -7.3745   -1.0026   -0.3051 C   0  0  0  0  0  0  0  0  0  0  0  0
   -6.2676   -1.8382   -0.4023 C   0  0  0  0  0  0  0  0  0  0  0  0
   -4.9781   -1.3180   -0.2414 C   0  0  0  0  0  0  0  0  0  0  0  0
   -1.2627    2.8123    0.2678 H   0  0  0  0  0  0  0  0  0  0  0  0
   -2.5798    3.6239    1.1384 H   0  0  0  0  0  0  0  0  0  0  0  0
   -1.9682    2.1005    1.7597 H   0  0  0  0  0  0  0  0  0  0  0  0
   -2.7285   -1.1814    1.1198 H   0  0  0  0  0  0  0  0  0  0  0  0
   -0.7332    0.6885   -0.2565 H   0  0  0  0  0  0  0  0  0  0  0  0
   -0.4773   -1.9526    1.3576 H   0  0  0  0  0  0  0  0  0  0  0  0
    1.8001   -1.9058    1.0011 H   0  0  0  0  0  0  0  0  0  0  0  0
    1.4127    0.7397   -0.5742 H   0  0  0  0  0  0  0  0  0  0  0  0
    6.9046    1.9604   -2.0905 H   0  0  0  0  0  0  0  0  0  0  0  0
    9.0161    0.7355   -1.6256 H   0  0  0  0  0  0  0  0  0  0  0  0
    8.9853   -1.3717   -0.3145 H   0  0  0  0  0  0  0  0  0  0  0  0
    6.8229   -2.2763    0.5483 H   0  0  0  0  0  0  0  0  0  0  0  0
   -5.8143    1.9338    0.3211 H   0  0  0  0  0  0  0  0  0  0  0  0
   -8.0509    1.0139    0.0220 H   0  0  0  0  0  0  0  0  0  0  0  0
   -8.3763   -1.4035   -0.4337 H   0  0  0  0  0  0  0  0  0  0  0  0
   -6.4026   -2.8957   -0.6147 H   0  0  0  0  0  0  0  0  0  0  0  0
   -4.1451   -2.0042   -0.3666 H   0  0  0  0  0  0  0  0  0  0  0  0
  1  2  1  0
  2  3  2  0
  2  4  1  0
  4  5  1  0
  5  6  2  3
  6  7  1  0
  7  8  2  3
  8  9  1  0
  9 10  2  3
 10 11  1  0
 11 12  1  0
 12 13  2  0
 13 14  1  0
 14 15  2  0
 15 16  1  0
 16 17  2  0
 17 18  1  0
 18 19  2  0
  4 20  1  0
 20 21  2  0
 21 22  1  0
 22 23  2  0
 23 24  1  0
 24 25  2  0
 18 10  1  0
 25 20  1  0
 17 12  1  0
  1 26  1  0
  1 27  1  0
  1 28  1  0
  5 29  1  0
  6 30  1  0
  7 31  1  0
  8 32  1  0
  9 33  1  0
 13 34  1  0
 14 35  1  0
 15 36  1  0
 16 37  1  0
 21 38  1  0
 22 39  1  0
 23 40  1  0
 24 41  1  0
 25 42  1  0
M  END
$$$$
