
     RDKit          3D

 58 60  0  0  0  0  0  0  0  0999 V2000
    0.7894    1.4537    1.1604 C   0  0  0  0  0  0  0  0  0  0  0  0
   -0.6981    1.2912    0.9845 C   0  0  0  0  0  0  0  0  0  0  0  0
   -1.5340    2.3634    1.3482 C   0  0  0  0  0  0  0  0  0  0  0  0
   -2.9167    2.2731    1.2049 C   0  0  0  0  0  0  0  0  0  0  0  0
   -3.4748    1.0978    0.7079 C   0  0  0  0  0  0  0  0  0  0  0  0
   -5.2412    0.9558    0.5312 S   0  0  0  0  0  6  0  0  0  0  0  0
   -5.8279    2.1356    1.1335 O   0  0  0  0  0  0  0  0  0  0  0  0
   -5.6173   -0.3708    0.9685 O   0  0  0  0  0  0  0  0  0  0  0  0
   -5.4902    1.0687   -1.1398 N   0  0  0  0  0  0  0  0  0  0  0  0
   -5.2183    2.3839   -1.7801 C   0  0  0  0  0  0  0  0  0  0  0  0
   -5.3338    2.2580   -3.3016 C   0  0  0  0  0  0  0  0  0  0  0  0
   -4.3700    1.3541   -3.8603 O   0  0  0  0  0  0  0  0  0  0  0  0
   -4.0483    0.2515   -2.9994 C   0  0  0  0  0  0  0  0  0  0  0  0
   -5.1559   -0.1002   -2.0020 C   0  0  0  0  0  0  0  0  0  0  0  0
   -2.6625    0.0100    0.3787 C   0  0  0  0  0  0  0  0  0  0  0  0
   -1.2718    0.1094    0.4686 C   0  0  0  0  0  0  0  0  0  0  0  0
   -0.4262   -0.9471    0.0665 N   0  0  0  0  0  0  0  0  0  0  0  0
   -0.7695   -2.0681   -0.6742 C   0  0  0  0  0  0  0  0  0  0  0  0
   -1.8577   -2.2784   -1.2048 O   0  0  0  0  0  0  0  0  0  0  0  0
    0.4003   -3.0399   -0.8738 C   0  0  0  0  0  0  0  0  0  0  0  0
    1.5583   -2.7280   -0.0917 O   0  0  0  0  0  0  0  0  0  0  0  0
    1.5583   -3.2444    1.1747 C   0  0  0  0  0  0  0  0  0  0  0  0
    0.6711   -3.9502    1.6338 O   0  0  0  0  0  0  0  0  0  0  0  0
    2.7952   -2.8103    1.9543 C   0  0  0  0  0  0  0  0  0  0  0  0
    3.7011   -1.9683    1.1819 N   0  0  0  0  0  0  0  0  0  0  0  0
    4.6267   -1.1660    1.8172 C   0  0  0  0  0  0  0  0  0  0  0  0
    4.6741   -1.0375    3.0345 O   0  0  0  0  0  0  0  0  0  0  0  0
    5.6127   -0.4714    0.9432 C   0  0  0  0  0  0  0  0  0  0  0  0
    6.8609   -0.1402    1.4835 C   0  0  0  0  0  0  0  0  0  0  0  0
    7.8177    0.5036    0.6969 C   0  0  0  0  0  0  0  0  0  0  0  0
    7.5279    0.8286   -0.6272 C   0  0  0  0  0  0  0  0  0  0  0  0
    6.2796    0.5186   -1.1658 C   0  0  0  0  0  0  0  0  0  0  0  0
    5.3194   -0.1283   -0.3835 C   0  0  0  0  0  0  0  0  0  0  0  0
    1.2983    1.3644    0.1958 H   0  0  0  0  0  0  0  0  0  0  0  0
    1.1752    0.6970    1.8507 H   0  0  0  0  0  0  0  0  0  0  0  0
    1.0435    2.4348    1.5760 H   0  0  0  0  0  0  0  0  0  0  0  0
   -1.1087    3.2810    1.7512 H   0  0  0  0  0  0  0  0  0  0  0  0
   -3.5448    3.1136    1.4927 H   0  0  0  0  0  0  0  0  0  0  0  0
   -5.9458    3.1182   -1.4204 H   0  0  0  0  0  0  0  0  0  0  0  0
   -4.2084    2.7200   -1.5232 H   0  0  0  0  0  0  0  0  0  0  0  0
   -6.3326    1.9082   -3.5890 H   0  0  0  0  0  0  0  0  0  0  0  0
   -5.1795    3.2345   -3.7746 H   0  0  0  0  0  0  0  0  0  0  0  0
   -3.8309   -0.6098   -3.6389 H   0  0  0  0  0  0  0  0  0  0  0  0
   -3.1233    0.5079   -2.4763 H   0  0  0  0  0  0  0  0  0  0  0  0
   -6.0701   -0.3691   -2.5437 H   0  0  0  0  0  0  0  0  0  0  0  0
   -4.8703   -0.9751   -1.4142 H   0  0  0  0  0  0  0  0  0  0  0  0
   -3.1366   -0.9149    0.0681 H   0  0  0  0  0  0  0  0  0  0  0  0
    0.5621   -0.8410    0.2555 H   0  0  0  0  0  0  0  0  0  0  0  0
    0.0572   -4.0648   -0.6921 H   0  0  0  0  0  0  0  0  0  0  0  0
    0.7012   -2.9723   -1.9253 H   0  0  0  0  0  0  0  0  0  0  0  0
    2.4681   -2.2626    2.8434 H   0  0  0  0  0  0  0  0  0  0  0  0
    3.3542   -3.7030    2.2503 H   0  0  0  0  0  0  0  0  0  0  0  0
    3.8601   -2.2288    0.2169 H   0  0  0  0  0  0  0  0  0  0  0  0
    7.0924   -0.3866    2.5179 H   0  0  0  0  0  0  0  0  0  0  0  0
    8.7876    0.7525    1.1194 H   0  0  0  0  0  0  0  0  0  0  0  0
    8.2740    1.3322   -1.2380 H   0  0  0  0  0  0  0  0  0  0  0  0
    6.0535    0.7881   -2.1948 H   0  0  0  0  0  0  0  0  0  0  0  0
    4.3448   -0.3322   -0.8173 H   0  0  0  0  0  0  0  0  0  0  0  0
  1  2  1  0
  2  3  2  0
  3  4  1  0
  4  5  2  0
  5  6  1  0
  6  7  2  0
  6  8  2  0
  6  9  1  0
  9 10  1  0
 10 11  1  0
 11 12  1  0
 12 13  1  0
 13 14  1  0
  5 15  1  0
 15 16  2  0
 16 17  1  0
 17 18  1  0
 18 19  2  0
 18 20  1  0
 20 21  1  0
 21 22  1  0
 22 23  2  0
 22 24  1  0
 24 25  1  0
 25 26  1  0
 26 27  2  0
 26 28  1  0
 28 29  2  0
 29 30  1  0
 30 31  2  0
 31 32  1  0
 32 33  2  0
 16  2  1  0
 33 28  1  0
 14  9  1  0
  1 34  1  0
  1 35  1  0
  1 36  1  0
  3 37  1  0
  4 38  1  0
 10 39  1  0
 10 40  1  0
 11 41  1  0
 11 42  1  0
 13 43  1  0
 13 44  1  0
 14 45  1  0
 14 46  1  0
 15 47  1  0
 17 48  1  0
 20 49  1  0
 20 50  1  0
 24 51  1  0
 24 52  1  0
 25 53  1  0
 29 54  1  0
 30 55  1  0
 31 56  1  0
 32 57  1  0
 33 58  1  0
M  END
$$$$
