
     RDKit          3D

 85 88  0  0  0  0  0  0  0  0999 V2000
    8.7217   -5.9306   -0.4967 C   0  0  0  0  0  0  0  0  0  0  0  0
    7.4656   -6.0593    0.1624 O   0  0  0  0  0  0  0  0  0  0  0  0
    6.6813   -4.9378    0.1853 C   0  0  0  0  0  0  0  0  0  0  0  0
    7.1154   -3.6310   -0.0361 C   0  0  0  0  0  0  0  0  0  0  0  0
    6.2152   -2.5627    0.0533 C   0  0  0  0  0  0  0  0  0  0  0  0
    4.8718   -2.7902    0.3577 C   0  0  0  0  0  0  0  0  0  0  0  0
    3.9246   -1.7504    0.4438 N   0  0  0  0  0  0  0  0  0  0  0  0
    4.2075   -0.4302    0.7659 C   0  0  0  0  0  0  0  0  0  0  0  0
    5.2871   -0.0278    1.1704 O   0  0  0  0  0  0  0  0  0  0  0  0
    3.0762    0.3496    0.5796 N   0  0  0  0  0  0  0  0  0  0  0  0
    2.9023    1.6940    0.9859 C   0  0  0  0  0  0  0  0  0  0  0  0
    3.7347    2.3031    1.9334 C   0  0  0  0  0  0  0  0  0  0  0  0
    3.5692    3.6489    2.2586 C   0  0  0  0  0  0  0  0  0  0  0  0
    2.5767    4.4002    1.6353 C   0  0  0  0  0  0  0  0  0  0  0  0
    1.7089    3.7943    0.7169 C   0  0  0  0  0  0  0  0  0  0  0  0
    1.8413    2.4348    0.4207 C   0  0  0  0  0  0  0  0  0  0  0  0
    0.9847    1.8308   -0.4730 O   0  0  0  0  0  0  0  0  0  0  0  0
   -0.0980    1.1506    0.2074 C   0  0  0  0  0  0  0  0  0  0  0  0
   -0.2938   -0.2142   -0.4985 C   0  0  0  0  0  0  0  0  0  0  0  0
   -1.2704   -1.1043    0.1361 N   0  0  0  0  0  0  0  0  0  0  0  0
   -0.9225   -1.6316    1.4519 C   0  0  0  0  0  0  0  0  0  0  0  0
   -2.3217   -1.5651   -0.6415 C   0  0  0  0  0  0  0  0  0  0  0  0
   -2.4213   -1.3230   -1.8399 O   0  0  0  0  0  0  0  0  0  0  0  0
   -3.2568   -2.3122    0.0268 N   0  0  0  0  0  0  0  0  0  0  0  0
   -4.4453   -2.7858   -0.6747 C   0  0  0  0  0  0  0  0  0  0  0  0
   -5.4434   -1.6411   -0.9025 C   0  0  0  0  0  0  0  0  0  0  0  0
   -6.7126   -2.1321   -1.5880 C   0  0  0  0  0  0  0  0  0  0  0  0
   -7.3628   -3.2769   -0.8138 C   0  0  0  0  0  0  0  0  0  0  0  0
   -6.3809   -4.4198   -0.5740 C   0  0  0  0  0  0  0  0  0  0  0  0
   -5.1043   -3.9285    0.1099 C   0  0  0  0  0  0  0  0  0  0  0  0
   -1.3895    2.0140    0.2153 C   0  0  0  0  0  0  0  0  0  0  0  0
   -1.9870    2.2332   -1.1772 C   0  0  0  0  0  0  0  0  0  0  0  0
   -1.1864    3.3463    0.9702 C   0  0  0  0  0  0  0  0  0  0  0  0
   -0.6208    4.4378    0.1659 N   0  0  0  0  0  0  0  0  0  0  0  0
   -1.5654    5.4665   -0.3309 C   0  0  0  0  0  0  0  0  0  0  0  0
   -1.5280    6.7171    0.5554 C   0  0  0  0  0  0  0  0  0  0  0  0
   -1.3844    5.8323   -1.8176 C   0  0  0  0  0  0  0  0  0  0  0  0
   -2.5221    6.5604   -2.2898 O   0  0  0  0  0  0  0  0  0  0  0  0
    0.7469    4.6812    0.0423 C   0  0  0  0  0  0  0  0  0  0  0  0
    1.2158    5.6506   -0.5481 O   0  0  0  0  0  0  0  0  0  0  0  0
    4.4318   -4.1020    0.5492 C   0  0  0  0  0  0  0  0  0  0  0  0
    5.3379   -5.1642    0.4795 C   0  0  0  0  0  0  0  0  0  0  0  0
    9.1891   -6.9206   -0.5231 H   0  0  0  0  0  0  0  0  0  0  0  0
    8.5963   -5.5966   -1.5326 H   0  0  0  0  0  0  0  0  0  0  0  0
    9.3992   -5.2661    0.0560 H   0  0  0  0  0  0  0  0  0  0  0  0
    8.1513   -3.4001   -0.2657 H   0  0  0  0  0  0  0  0  0  0  0  0
    6.5865   -1.5569   -0.1374 H   0  0  0  0  0  0  0  0  0  0  0  0
    2.9686   -2.0272    0.6024 H   0  0  0  0  0  0  0  0  0  0  0  0
    2.5251    0.0828   -0.2231 H   0  0  0  0  0  0  0  0  0  0  0  0
    4.5318    1.7547    2.4257 H   0  0  0  0  0  0  0  0  0  0  0  0
    4.2383    4.1224    2.9727 H   0  0  0  0  0  0  0  0  0  0  0  0
    2.4878    5.4626    1.8519 H   0  0  0  0  0  0  0  0  0  0  0  0
    0.1773    0.9500    1.2521 H   0  0  0  0  0  0  0  0  0  0  0  0
   -0.5364   -0.0409   -1.5539 H   0  0  0  0  0  0  0  0  0  0  0  0
    0.6522   -0.7598   -0.5336 H   0  0  0  0  0  0  0  0  0  0  0  0
    0.1292   -1.9221    1.4438 H   0  0  0  0  0  0  0  0  0  0  0  0
   -1.5060   -2.5149    1.7196 H   0  0  0  0  0  0  0  0  0  0  0  0
   -1.0845   -0.8560    2.2000 H   0  0  0  0  0  0  0  0  0  0  0  0
   -3.4000   -2.0564    0.9960 H   0  0  0  0  0  0  0  0  0  0  0  0
   -4.1193   -3.1762   -1.6517 H   0  0  0  0  0  0  0  0  0  0  0  0
   -5.7001   -1.1726    0.0580 H   0  0  0  0  0  0  0  0  0  0  0  0
   -4.9890   -0.8545   -1.5152 H   0  0  0  0  0  0  0  0  0  0  0  0
   -7.4218   -1.3020   -1.6866 H   0  0  0  0  0  0  0  0  0  0  0  0
   -6.4711   -2.4663   -2.6051 H   0  0  0  0  0  0  0  0  0  0  0  0
   -8.2329   -3.6459   -1.3690 H   0  0  0  0  0  0  0  0  0  0  0  0
   -7.7345   -2.9068    0.1521 H   0  0  0  0  0  0  0  0  0  0  0  0
   -6.1255   -4.8918   -1.5336 H   0  0  0  0  0  0  0  0  0  0  0  0
   -6.8592   -5.1899    0.0479 H   0  0  0  0  0  0  0  0  0  0  0  0
   -4.4022   -4.7631    0.2205 H   0  0  0  0  0  0  0  0  0  0  0  0
   -5.3428   -3.5926    1.1282 H   0  0  0  0  0  0  0  0  0  0  0  0
   -2.1354    1.4481    0.7932 H   0  0  0  0  0  0  0  0  0  0  0  0
   -2.3611    1.2992   -1.5989 H   0  0  0  0  0  0  0  0  0  0  0  0
   -2.8415    2.9139   -1.1360 H   0  0  0  0  0  0  0  0  0  0  0  0
   -1.2497    2.6327   -1.8807 H   0  0  0  0  0  0  0  0  0  0  0  0
   -0.5711    3.1921    1.8652 H   0  0  0  0  0  0  0  0  0  0  0  0
   -2.1583    3.6827    1.3482 H   0  0  0  0  0  0  0  0  0  0  0  0
   -2.5770    5.0558   -0.2402 H   0  0  0  0  0  0  0  0  0  0  0  0
   -0.5572    7.2226    0.5132 H   0  0  0  0  0  0  0  0  0  0  0  0
   -2.2882    7.4390    0.2462 H   0  0  0  0  0  0  0  0  0  0  0  0
   -1.7209    6.4523    1.5998 H   0  0  0  0  0  0  0  0  0  0  0  0
   -0.4908    6.4358   -2.0025 H   0  0  0  0  0  0  0  0  0  0  0  0
   -1.3103    4.9284   -2.4282 H   0  0  0  0  0  0  0  0  0  0  0  0
   -2.2367    7.4833   -2.3957 H   0  0  0  0  0  0  0  0  0  0  0  0
    3.3961   -4.3220    0.7795 H   0  0  0  0  0  0  0  0  0  0  0  0
    4.9952   -6.1823    0.6637 H   0  0  0  0  0  0  0  0  0  0  0  0
  1  2  1  0
  2  3  1  0
  3  4  2  0
  4  5  1  0
  5  6  2  0
  6  7  1  0
  7  8  1  0
  8  9  2  0
  8 10  1  0
 10 11  1  0
 11 12  2  0
 12 13  1  0
 13 14  2  0
 14 15  1  0
 15 16  2  0
 16 17  1  0
 17 18  1  0
 18 19  1  0
 19 20  1  0
 20 21  1  0
 20 22  1  0
 22 23  2  0
 22 24  1  0
 24 25  1  0
 25 26  1  0
 26 27  1  0
 27 28  1  0
 28 29  1  0
 29 30  1  0
 18 31  1  0
 31 32  1  0
 31 33  1  0
 33 34  1  0
 34 35  1  0
 35 36  1  0
 35 37  1  0
 37 38  1  0
 34 39  1  0
 39 40  2  0
  6 41  1  0
 41 42  2  0
 42  3  1  0
 16 11  1  0
 30 25  1  0
 39 15  1  0
  1 43  1  0
  1 44  1  0
  1 45  1  0
  4 46  1  0
  5 47  1  0
  7 48  1  0
 10 49  1  0
 12 50  1  0
 13 51  1  0
 14 52  1  0
 18 53  1  0
 19 54  1  0
 19 55  1  0
 21 56  1  0
 21 57  1  0
 21 58  1  0
 24 59  1  0
 25 60  1  0
 26 61  1  0
 26 62  1  0
 27 63  1  0
 27 64  1  0
 28 65  1  0
 28 66  1  0
 29 67  1  0
 29 68  1  0
 30 69  1  0
 30 70  1  0
 31 71  1  0
 32 72  1  0
 32 73  1  0
 32 74  1  0
 33 75  1  0
 33 76  1  0
 35 77  1  0
 36 78  1  0
 36 79  1  0
 36 80  1  0
 37 81  1  0
 37 82  1  0
 38 83  1  0
 41 84  1  0
 42 85  1  0
M  END
$$$$
