
     RDKit          3D

 30 31  0  0  0  0  0  0  0  0999 V2000
    4.3059   -1.0743   -2.1733 C   0  0  0  0  0  0  0  0  0  0  0  0
    3.0426   -0.5739   -2.5919 O   0  0  0  0  0  0  0  0  0  0  0  0
    1.9723   -0.8474   -1.7854 C   0  0  0  0  0  0  0  0  0  0  0  0
    0.7533   -0.3409   -2.2418 C   0  0  0  0  0  0  0  0  0  0  0  0
   -0.4226   -0.5465   -1.5150 C   0  0  0  0  0  0  0  0  0  0  0  0
   -0.3922   -1.2638   -0.3129 C   0  0  0  0  0  0  0  0  0  0  0  0
   -1.6314   -1.5060    0.4496 C   0  0  0  0  0  0  0  0  0  0  0  0
   -2.1656   -2.8344    0.4256 C   0  0  0  0  0  0  0  0  0  0  0  0
   -2.6203   -3.9025    0.4247 N   0  0  0  0  0  0  0  0  0  0  0  0
   -2.3011   -0.5595    1.1422 C   0  0  0  0  0  0  0  0  0  0  0  0
   -1.9520    0.8529    1.3572 C   0  0  0  0  0  0  0  0  0  0  0  0
   -2.9448    1.7699    1.6926 C   0  0  0  0  0  0  0  0  0  0  0  0
   -2.5891    3.0989    1.9139 C   0  0  0  0  0  0  0  0  0  0  0  0
   -1.2568    3.4738    1.8017 C   0  0  0  0  0  0  0  0  0  0  0  0
   -0.3325    2.4974    1.4768 C   0  0  0  0  0  0  0  0  0  0  0  0
   -0.6525    1.2027    1.2627 N   0  0  0  0  0  0  0  0  0  0  0  0
    0.8314   -1.7728    0.1420 C   0  0  0  0  0  0  0  0  0  0  0  0
    2.0073   -1.5646   -0.5895 C   0  0  0  0  0  0  0  0  0  0  0  0
    4.3018   -2.1683   -2.1265 H   0  0  0  0  0  0  0  0  0  0  0  0
    4.6055   -0.6378   -1.2147 H   0  0  0  0  0  0  0  0  0  0  0  0
    5.0477   -0.7762   -2.9206 H   0  0  0  0  0  0  0  0  0  0  0  0
    0.7188    0.2220   -3.1712 H   0  0  0  0  0  0  0  0  0  0  0  0
   -1.3559   -0.1359   -1.8917 H   0  0  0  0  0  0  0  0  0  0  0  0
   -3.2305   -0.8482    1.6324 H   0  0  0  0  0  0  0  0  0  0  0  0
   -3.9841    1.4692    1.7765 H   0  0  0  0  0  0  0  0  0  0  0  0
   -3.3466    3.8341    2.1706 H   0  0  0  0  0  0  0  0  0  0  0  0
   -0.9454    4.4994    1.9646 H   0  0  0  0  0  0  0  0  0  0  0  0
    0.7231    2.7336    1.3766 H   0  0  0  0  0  0  0  0  0  0  0  0
    0.8833   -2.3275    1.0765 H   0  0  0  0  0  0  0  0  0  0  0  0
    2.9306   -1.9734   -0.1935 H   0  0  0  0  0  0  0  0  0  0  0  0
  1  2  1  0
  2  3  1  0
  3  4  2  0
  4  5  1  0
  5  6  2  0
  6  7  1  0
  7  8  1  0
  8  9  3  0
  7 10  2  3
 10 11  1  0
 11 12  2  0
 12 13  1  0
 13 14  2  0
 14 15  1  0
 15 16  2  0
  6 17  1  0
 17 18  2  0
 18  3  1  0
 16 11  1  0
  1 19  1  0
  1 20  1  0
  1 21  1  0
  4 22  1  0
  5 23  1  0
 10 24  1  0
 12 25  1  0
 13 26  1  0
 14 27  1  0
 15 28  1  0
 17 29  1  0
 18 30  1  0
M  END
$$$$
