
     RDKit          3D

 39 40  0  0  0  0  0  0  0  0999 V2000
    6.2929   -1.0189    0.3251 C   0  0  0  0  0  0  0  0  0  0  0  0
    4.9504   -0.9743   -0.3907 C   0  0  0  0  0  0  0  0  0  0  0  0
    4.0843    0.2352    0.0040 C   0  0  0  0  0  0  0  0  0  0  0  0
    4.7043    1.5579   -0.4512 C   0  0  0  0  0  0  0  0  0  0  0  0
    2.6706    0.1005   -0.5807 C   0  0  0  0  0  0  0  0  0  0  0  0
    2.4175   -0.7037   -1.4708 O   0  0  0  0  0  0  0  0  0  0  0  0
    1.7828    0.9766    0.0052 N   0  0  0  0  0  0  0  0  0  0  0  0
    0.4517    1.1282   -0.2916 C   0  0  0  0  0  0  0  0  0  0  0  0
   -0.3097    1.9819    0.3555 N   0  0  0  0  0  0  0  0  0  0  0  0
   -1.6121    1.9702   -0.1016 N   0  0  0  0  0  0  0  0  0  0  0  0
   -1.7853    1.0999   -1.0752 C   0  0  0  0  0  0  0  0  0  0  0  0
   -3.0780    0.8638   -1.7892 C   0  0  0  0  0  0  0  0  0  0  0  0
   -3.7246   -0.4839   -1.4549 C   0  0  0  0  0  0  0  0  0  0  0  0
   -4.2231   -0.5857   -0.0336 C   0  0  0  0  0  0  0  0  0  0  0  0
   -5.4278    0.0243    0.3423 C   0  0  0  0  0  0  0  0  0  0  0  0
   -5.8831   -0.0606    1.6589 C   0  0  0  0  0  0  0  0  0  0  0  0
   -5.1389   -0.7531    2.6117 C   0  0  0  0  0  0  0  0  0  0  0  0
   -3.9386   -1.3609    2.2493 C   0  0  0  0  0  0  0  0  0  0  0  0
   -3.4816   -1.2780    0.9331 C   0  0  0  0  0  0  0  0  0  0  0  0
   -0.3517    0.2595   -1.5148 S   0  0  0  0  0  0  0  0  0  0  0  0
    6.9368   -0.1873    0.0254 H   0  0  0  0  0  0  0  0  0  0  0  0
    6.8178   -1.9476    0.0789 H   0  0  0  0  0  0  0  0  0  0  0  0
    6.1610   -0.9830    1.4110 H   0  0  0  0  0  0  0  0  0  0  0  0
    5.1198   -0.9829   -1.4747 H   0  0  0  0  0  0  0  0  0  0  0  0
    4.4077   -1.8987   -0.1551 H   0  0  0  0  0  0  0  0  0  0  0  0
    3.9847    0.2452    1.0976 H   0  0  0  0  0  0  0  0  0  0  0  0
    4.0654    2.4107   -0.1987 H   0  0  0  0  0  0  0  0  0  0  0  0
    5.6739    1.7296    0.0254 H   0  0  0  0  0  0  0  0  0  0  0  0
    4.8482    1.5700   -1.5373 H   0  0  0  0  0  0  0  0  0  0  0  0
    2.0909    1.5773    0.7573 H   0  0  0  0  0  0  0  0  0  0  0  0
   -2.9010    0.9140   -2.8711 H   0  0  0  0  0  0  0  0  0  0  0  0
   -3.7693    1.6828   -1.5540 H   0  0  0  0  0  0  0  0  0  0  0  0
   -3.0338   -1.3103   -1.6650 H   0  0  0  0  0  0  0  0  0  0  0  0
   -4.5789   -0.6422   -2.1264 H   0  0  0  0  0  0  0  0  0  0  0  0
   -6.0198    0.5716   -0.3875 H   0  0  0  0  0  0  0  0  0  0  0  0
   -6.8171    0.4172    1.9423 H   0  0  0  0  0  0  0  0  0  0  0  0
   -5.4918   -0.8155    3.6375 H   0  0  0  0  0  0  0  0  0  0  0  0
   -3.3547   -1.8964    2.9931 H   0  0  0  0  0  0  0  0  0  0  0  0
   -2.5394   -1.7537    0.6707 H   0  0  0  0  0  0  0  0  0  0  0  0
  1  2  1  0
  2  3  1  0
  3  4  1  0
  3  5  1  0
  5  6  2  0
  5  7  1  0
  7  8  1  0
  8  9  2  0
  9 10  1  0
 10 11  2  0
 11 12  1  0
 12 13  1  0
 13 14  1  0
 14 15  2  0
 15 16  1  0
 16 17  2  0
 17 18  1  0
 18 19  2  0
 11 20  1  0
 20  8  1  0
 19 14  1  0
  1 21  1  0
  1 22  1  0
  1 23  1  0
  2 24  1  0
  2 25  1  0
  3 26  1  0
  4 27  1  0
  4 28  1  0
  4 29  1  0
  7 30  1  0
 12 31  1  0
 12 32  1  0
 13 33  1  0
 13 34  1  0
 15 35  1  0
 16 36  1  0
 17 37  1  0
 18 38  1  0
 19 39  1  0
M  END
$$$$
