
     RDKit          3D

 41 44  0  0  0  0  0  0  0  0999 V2000
    0.3132   -2.5158   -0.2261 O   0  0  0  0  0  0  0  0  0  0  0  0
    0.2478   -1.5223    0.4936 C   0  0  0  0  0  0  0  0  0  0  0  0
   -1.0432   -1.1860    1.2492 C   0  0  0  0  0  0  0  0  0  0  0  0
   -1.7807   -0.0773    0.6343 N   0  0  0  0  0  0  0  0  0  0  0  0
   -1.3401    1.2164    0.8901 C   0  0  0  0  0  0  0  0  0  0  0  0
   -0.3718    1.4446    1.6224 O   0  0  0  0  0  0  0  0  0  0  0  0
   -2.0250    2.3482    0.1601 C   0  0  0  0  0  0  0  0  0  0  0  0
   -3.2699    2.8205    0.8789 C   0  0  0  0  0  0  0  0  0  0  0  0
   -4.4376    1.5201    1.3822 S   0  0  0  0  0  0  0  0  0  0  0  0
   -4.1812    0.3098    0.0868 C   0  0  0  0  0  0  0  0  0  0  0  0
   -5.3131   -0.0510   -0.6623 C   0  0  0  0  0  0  0  0  0  0  0  0
   -5.2492   -1.0783   -1.6031 C   0  0  0  0  0  0  0  0  0  0  0  0
   -4.0586   -1.7716   -1.7872 C   0  0  0  0  0  0  0  0  0  0  0  0
   -2.9293   -1.4359   -1.0343 C   0  0  0  0  0  0  0  0  0  0  0  0
   -2.9665   -0.3869   -0.1008 C   0  0  0  0  0  0  0  0  0  0  0  0
    1.2553   -0.5985    0.7112 N   0  0  0  0  0  0  0  0  0  0  0  0
    2.5774   -0.6247    0.2273 C   0  0  0  0  0  0  0  0  0  0  0  0
    3.1210   -1.6967   -0.5050 C   0  0  0  0  0  0  0  0  0  0  0  0
    4.4509   -1.6702   -0.9449 C   0  0  0  0  0  0  0  0  0  0  0  0
    5.2081   -0.5642   -0.6348 C   0  0  0  0  0  0  0  0  0  0  0  0
    4.6870    0.4843    0.0817 C   0  0  0  0  0  0  0  0  0  0  0  0
    3.3807    0.4868    0.5242 C   0  0  0  0  0  0  0  0  0  0  0  0
    5.5976    1.4747    0.2873 O   0  0  0  0  0  0  0  0  0  0  0  0
    6.7622    0.9074   -0.3482 C   0  0  0  0  0  0  0  0  0  0  0  0
    6.5096   -0.3692   -0.9727 O   0  0  0  0  0  0  0  0  0  0  0  0
   -1.6673   -2.0844    1.3137 H   0  0  0  0  0  0  0  0  0  0  0  0
   -0.7840   -0.9185    2.2833 H   0  0  0  0  0  0  0  0  0  0  0  0
   -1.3133    3.1801    0.0808 H   0  0  0  0  0  0  0  0  0  0  0  0
   -2.2366    2.0592   -0.8765 H   0  0  0  0  0  0  0  0  0  0  0  0
   -2.9880    3.3589    1.7912 H   0  0  0  0  0  0  0  0  0  0  0  0
   -3.8075    3.5322    0.2428 H   0  0  0  0  0  0  0  0  0  0  0  0
   -6.2634    0.4560   -0.5038 H   0  0  0  0  0  0  0  0  0  0  0  0
   -6.1322   -1.3493   -2.1743 H   0  0  0  0  0  0  0  0  0  0  0  0
   -4.0040   -2.5780   -2.5162 H   0  0  0  0  0  0  0  0  0  0  0  0
   -2.0117   -1.9901   -1.2208 H   0  0  0  0  0  0  0  0  0  0  0  0
    0.9892    0.2280    1.2508 H   0  0  0  0  0  0  0  0  0  0  0  0
    2.5314   -2.5783   -0.7399 H   0  0  0  0  0  0  0  0  0  0  0  0
    4.8706   -2.4975   -1.5066 H   0  0  0  0  0  0  0  0  0  0  0  0
    3.0023    1.3336    1.0861 H   0  0  0  0  0  0  0  0  0  0  0  0
    7.1244    1.6075   -1.1086 H   0  0  0  0  0  0  0  0  0  0  0  0
    7.5457    0.7766    0.4088 H   0  0  0  0  0  0  0  0  0  0  0  0
  1  2  2  0
  2  3  1  0
  3  4  1  0
  4  5  1  0
  5  6  2  0
  5  7  1  0
  7  8  1  0
  8  9  1  0
  9 10  1  0
 10 11  2  0
 11 12  1  0
 12 13  2  0
 13 14  1  0
 14 15  2  0
  2 16  1  0
 16 17  1  0
 17 18  2  0
 18 19  1  0
 19 20  2  0
 20 21  1  0
 21 22  2  0
 21 23  1  0
 23 24  1  0
 24 25  1  0
 15  4  1  0
 22 17  1  0
 15 10  1  0
 25 20  1  0
  3 26  1  0
  3 27  1  0
  7 28  1  0
  7 29  1  0
  8 30  1  0
  8 31  1  0
 11 32  1  0
 12 33  1  0
 13 34  1  0
 14 35  1  0
 16 36  1  0
 18 37  1  0
 19 38  1  0
 22 39  1  0
 24 40  1  0
 24 41  1  0
M  END
$$$$
