
     RDKit          3D

 36 37  0  0  0  0  0  0  0  0999 V2000
   -1.9682   -3.3343    1.0536 O   0  0  0  0  0  0  0  0  0  0  0  0
   -0.9982   -2.6720    0.6947 C   0  0  0  0  0  0  0  0  0  0  0  0
    0.2263   -2.4717    1.5914 C   0  0  0  0  0  0  0  0  0  0  0  0
    1.1599   -1.4988    1.1058 O   0  0  0  0  0  0  0  0  0  0  0  0
    1.0243   -0.2415    1.5884 C   0  0  0  0  0  0  0  0  0  0  0  0
    0.1561    0.1524    2.3531 O   0  0  0  0  0  0  0  0  0  0  0  0
    2.0767    0.6475    1.0257 C   0  0  0  0  0  0  0  0  0  0  0  0
    2.1307    1.9756    1.4754 C   0  0  0  0  0  0  0  0  0  0  0  0
    3.0867    2.8558    0.9650 C   0  0  0  0  0  0  0  0  0  0  0  0
    3.9947    2.4137    0.0038 C   0  0  0  0  0  0  0  0  0  0  0  0
    3.9447    1.0937   -0.4415 C   0  0  0  0  0  0  0  0  0  0  0  0
    5.0687    0.5519   -1.6263 Cl  0  0  0  0  0  0  0  0  0  0  0  0
    2.9930    0.2071    0.0618 C   0  0  0  0  0  0  0  0  0  0  0  0
   -0.9019   -2.0926   -0.5523 N   0  0  0  0  0  0  0  0  0  0  0  0
   -2.0414   -2.0385   -1.4531 C   0  0  0  0  0  0  0  0  0  0  0  0
   -3.1109   -1.0192   -1.0261 C   0  0  0  0  0  0  0  0  0  0  0  0
   -2.5796    0.3318   -0.9141 N   0  0  0  0  0  0  0  0  0  0  0  0
   -2.1707    0.8911    0.2709 C   0  0  0  0  0  0  0  0  0  0  0  0
   -2.3227    0.1838    1.4234 O   0  0  0  0  0  0  0  0  0  0  0  0
   -1.6164    2.1023    0.1545 C   0  0  0  0  0  0  0  0  0  0  0  0
   -1.5747    2.6171   -1.5038 S   0  0  0  0  0  0  0  0  0  0  0  0
   -2.3301    1.1015   -2.0372 C   0  0  0  0  0  0  0  0  0  0  0  0
   -2.5361    0.8196   -3.2058 O   0  0  0  0  0  0  0  0  0  0  0  0
   -0.1120   -2.2318    2.6057 H   0  0  0  0  0  0  0  0  0  0  0  0
    0.7568   -3.4287    1.6348 H   0  0  0  0  0  0  0  0  0  0  0  0
    1.4308    2.3327    2.2290 H   0  0  0  0  0  0  0  0  0  0  0  0
    3.1245    3.8847    1.3162 H   0  0  0  0  0  0  0  0  0  0  0  0
    4.7382    3.1010   -0.3932 H   0  0  0  0  0  0  0  0  0  0  0  0
    2.9767   -0.8164   -0.3033 H   0  0  0  0  0  0  0  0  0  0  0  0
   -0.1377   -1.4496   -0.7130 H   0  0  0  0  0  0  0  0  0  0  0  0
   -1.6458   -1.7907   -2.4436 H   0  0  0  0  0  0  0  0  0  0  0  0
   -2.4905   -3.0363   -1.5067 H   0  0  0  0  0  0  0  0  0  0  0  0
   -3.5807   -1.3134   -0.0812 H   0  0  0  0  0  0  0  0  0  0  0  0
   -3.9009   -1.0078   -1.7868 H   0  0  0  0  0  0  0  0  0  0  0  0
   -1.6365    0.4761    2.0601 H   0  0  0  0  0  0  0  0  0  0  0  0
   -1.2338    2.7040    0.9656 H   0  0  0  0  0  0  0  0  0  0  0  0
  1  2  2  0
  2  3  1  0
  3  4  1  0
  4  5  1  0
  5  6  2  0
  5  7  1  0
  7  8  2  0
  8  9  1  0
  9 10  2  0
 10 11  1  0
 11 12  1  0
 11 13  2  0
  2 14  1  0
 14 15  1  0
 15 16  1  0
 16 17  1  0
 17 18  1  0
 18 19  1  0
 18 20  2  0
 20 21  1  0
 21 22  1  0
 22 23  2  0
 13  7  1  0
 22 17  1  0
  3 24  1  0
  3 25  1  0
  8 26  1  0
  9 27  1  0
 10 28  1  0
 13 29  1  0
 14 30  1  0
 15 31  1  0
 15 32  1  0
 16 33  1  0
 16 34  1  0
 19 35  1  0
 20 36  1  0
M  END
$$$$
