
     RDKit          3D

 38 39  0  0  0  0  0  0  0  0999 V2000
   -4.3443    3.1144    1.6285 C   0  0  0  0  0  0  0  0  0  0  0  0
   -3.1488    2.5449    1.4262 C   0  0  0  0  0  0  0  0  0  0  0  0
   -2.5574    1.4784    2.3042 C   0  0  0  0  0  0  0  0  0  0  0  0
   -2.2636    0.2077    1.5431 C   0  0  0  0  0  0  0  0  0  0  0  0
   -3.2742   -0.7310    1.3142 C   0  0  0  0  0  0  0  0  0  0  0  0
   -2.9969   -1.8991    0.6086 C   0  0  0  0  0  0  0  0  0  0  0  0
   -1.7106   -2.1350    0.1222 C   0  0  0  0  0  0  0  0  0  0  0  0
   -1.5365   -3.3285   -0.5273 O   0  0  0  0  0  0  0  0  0  0  0  0
   -0.6707   -1.2035    0.2935 C   0  0  0  0  0  0  0  0  0  0  0  0
    0.6900   -1.3602   -0.2797 C   0  0  0  0  0  0  0  0  0  0  0  0
    1.2404   -0.3189   -1.0551 C   0  0  0  0  0  0  0  0  0  0  0  0
    2.5371   -0.3913   -1.5939 C   0  0  0  0  0  0  0  0  0  0  0  0
    3.0885    0.7579   -2.4045 C   0  0  0  0  0  0  0  0  0  0  0  0
    3.5943    1.8749   -1.5358 C   0  0  0  0  0  0  0  0  0  0  0  0
    3.1225    3.1284   -1.5652 C   0  0  0  0  0  0  0  0  0  0  0  0
    3.3102   -1.5296   -1.3472 C   0  0  0  0  0  0  0  0  0  0  0  0
    2.7902   -2.5820   -0.5959 C   0  0  0  0  0  0  0  0  0  0  0  0
    1.4963   -2.4930   -0.0761 C   0  0  0  0  0  0  0  0  0  0  0  0
    0.9931   -3.5577    0.6273 O   0  0  0  0  0  0  0  0  0  0  0  0
   -0.9791   -0.0351    1.0242 C   0  0  0  0  0  0  0  0  0  0  0  0
   -4.7145    3.8803    0.9537 H   0  0  0  0  0  0  0  0  0  0  0  0
   -4.9798    2.8297    2.4611 H   0  0  0  0  0  0  0  0  0  0  0  0
   -2.5503    2.8652    0.5757 H   0  0  0  0  0  0  0  0  0  0  0  0
   -1.6321    1.8628    2.7514 H   0  0  0  0  0  0  0  0  0  0  0  0
   -3.2198    1.2455    3.1479 H   0  0  0  0  0  0  0  0  0  0  0  0
   -4.2813   -0.5586    1.6862 H   0  0  0  0  0  0  0  0  0  0  0  0
   -3.7794   -2.6338    0.4411 H   0  0  0  0  0  0  0  0  0  0  0  0
   -0.6031   -3.5768   -0.3805 H   0  0  0  0  0  0  0  0  0  0  0  0
    0.6437    0.5723   -1.2505 H   0  0  0  0  0  0  0  0  0  0  0  0
    3.9121    0.4040   -3.0371 H   0  0  0  0  0  0  0  0  0  0  0  0
    2.3129    1.1109   -3.0963 H   0  0  0  0  0  0  0  0  0  0  0  0
    4.4011    1.6322   -0.8471 H   0  0  0  0  0  0  0  0  0  0  0  0
    3.5335    3.8911   -0.9107 H   0  0  0  0  0  0  0  0  0  0  0  0
    2.3199    3.4219   -2.2348 H   0  0  0  0  0  0  0  0  0  0  0  0
    4.3188   -1.6068   -1.7472 H   0  0  0  0  0  0  0  0  0  0  0  0
    3.4002   -3.4660   -0.4362 H   0  0  0  0  0  0  0  0  0  0  0  0
    1.7359   -4.1213    0.9057 H   0  0  0  0  0  0  0  0  0  0  0  0
   -0.1983    0.7057    1.1946 H   0  0  0  0  0  0  0  0  0  0  0  0
  1  2  2  0
  2  3  1  0
  3  4  1  0
  4  5  2  0
  5  6  1  0
  6  7  2  0
  7  8  1  0
  7  9  1  0
  9 10  1  0
 10 11  2  0
 11 12  1  0
 12 13  1  0
 13 14  1  0
 14 15  2  0
 12 16  2  0
 16 17  1  0
 17 18  2  0
 18 19  1  0
  9 20  2  0
 20  4  1  0
 18 10  1  0
  1 21  1  0
  1 22  1  0
  2 23  1  0
  3 24  1  0
  3 25  1  0
  5 26  1  0
  6 27  1  0
  8 28  1  0
 11 29  1  0
 13 30  1  0
 13 31  1  0
 14 32  1  0
 15 33  1  0
 15 34  1  0
 16 35  1  0
 17 36  1  0
 19 37  1  0
 20 38  1  0
M  END
$$$$
