
     RDKit          3D

 30 31  0  0  0  0  0  0  0  0999 V2000
   -3.0297    1.1395    0.2780 C   0  0  0  0  0  0  0  0  0  0  0  0
   -3.2892   -0.3626    0.4283 C   0  0  0  0  0  0  0  0  0  0  0  0
   -4.7962   -0.6197    0.3752 C   0  0  0  0  0  0  0  0  0  0  0  0
   -2.7238   -1.0893   -0.6727 O   0  0  0  0  0  0  0  0  0  0  0  0
   -1.4178   -1.3882   -0.6449 C   0  0  0  0  0  0  0  0  0  0  0  0
   -0.8112   -1.9381   -1.5493 O   0  0  0  0  0  0  0  0  0  0  0  0
   -0.7412   -0.9895    0.6373 C   0  0  0  0  0  0  0  0  0  0  0  0
    0.4545   -0.4769    0.7131 N   0  0  0  0  0  0  0  0  0  0  0  0
    1.1453   -0.3325   -0.4548 N   0  0  0  0  0  0  0  0  0  0  0  0
    2.4822    0.1216   -0.3836 C   0  0  0  0  0  0  0  0  0  0  0  0
    3.2775    0.0859   -1.5383 C   0  0  0  0  0  0  0  0  0  0  0  0
    4.5836    0.5843   -1.5280 C   0  0  0  0  0  0  0  0  0  0  0  0
    5.1055    1.1462   -0.3656 C   0  0  0  0  0  0  0  0  0  0  0  0
    4.3189    1.2177    0.7813 C   0  0  0  0  0  0  0  0  0  0  0  0
    3.0131    0.7191    0.7669 C   0  0  0  0  0  0  0  0  0  0  0  0
   -1.5568   -1.1302    1.8929 C   0  0  0  0  0  0  0  0  0  0  0  0
   -1.0809   -1.5135    2.9454 O   0  0  0  0  0  0  0  0  0  0  0  0
   -2.8523   -0.8280    1.7131 O   0  0  0  0  0  0  0  0  0  0  0  0
   -3.4041    1.5097   -0.6824 H   0  0  0  0  0  0  0  0  0  0  0  0
   -3.5006    1.7037    1.0901 H   0  0  0  0  0  0  0  0  0  0  0  0
   -1.9608    1.3725    0.3107 H   0  0  0  0  0  0  0  0  0  0  0  0
   -5.3191   -0.1081    1.1904 H   0  0  0  0  0  0  0  0  0  0  0  0
   -5.0036   -1.6913    0.4811 H   0  0  0  0  0  0  0  0  0  0  0  0
   -5.2236   -0.3019   -0.5820 H   0  0  0  0  0  0  0  0  0  0  0  0
    1.0106   -1.0288   -1.1994 H   0  0  0  0  0  0  0  0  0  0  0  0
    2.8842   -0.3333   -2.4608 H   0  0  0  0  0  0  0  0  0  0  0  0
    5.1890    0.5382   -2.4292 H   0  0  0  0  0  0  0  0  0  0  0  0
    6.1201    1.5349   -0.3551 H   0  0  0  0  0  0  0  0  0  0  0  0
    4.7157    1.6646    1.6888 H   0  0  0  0  0  0  0  0  0  0  0  0
    2.4106    0.7939    1.6686 H   0  0  0  0  0  0  0  0  0  0  0  0
  1  2  1  0
  2  3  1  0
  2  4  1  0
  4  5  1  0
  5  6  2  0
  5  7  1  0
  7  8  2  3
  8  9  1  0
  9 10  1  0
 10 11  2  0
 11 12  1  0
 12 13  2  0
 13 14  1  0
 14 15  2  0
  7 16  1  0
 16 17  2  0
 16 18  1  0
 18  2  1  0
 15 10  1  0
  1 19  1  0
  1 20  1  0
  1 21  1  0
  3 22  1  0
  3 23  1  0
  3 24  1  0
  9 25  1  0
 11 26  1  0
 12 27  1  0
 13 28  1  0
 14 29  1  0
 15 30  1  0
M  END
$$$$
