
     RDKit          3D

 39 40  0  0  0  0  0  0  0  0999 V2000
   -1.5450    0.1859   -2.3815 C   0  0  0  0  0  0  0  0  0  0  0  0
   -2.4292    0.0697   -1.1562 C   0  0  0  0  0  0  0  0  0  0  0  0
   -1.9308   -0.0463    0.0897 C   0  0  0  0  0  0  0  0  0  0  0  0
   -0.4734   -0.1362    0.3691 C   0  0  0  0  0  0  0  0  0  0  0  0
    0.3257   -0.9339   -0.2697 N   0  0  0  0  0  0  0  0  0  0  0  0
    1.6551   -0.8705    0.0649 N   0  0  0  0  0  0  0  0  0  0  0  0
    2.3596    0.3148    0.2416 C   0  0  0  0  0  0  0  0  0  0  0  0
    1.8470    1.4321    0.2759 O   0  0  0  0  0  0  0  0  0  0  0  0
    3.8459    0.1888    0.3905 C   0  0  0  0  0  0  0  0  0  0  0  0
    4.5482    1.3439    0.7751 C   0  0  0  0  0  0  0  0  0  0  0  0
    5.9320    1.3052    0.9393 C   0  0  0  0  0  0  0  0  0  0  0  0
    6.8601    2.8671    1.4620 Br  0  0  0  0  0  0  0  0  0  0  0  0
    6.6381    0.1245    0.7228 C   0  0  0  0  0  0  0  0  0  0  0  0
    5.9559   -1.0287    0.3344 C   0  0  0  0  0  0  0  0  0  0  0  0
    4.5676   -0.9959    0.1680 C   0  0  0  0  0  0  0  0  0  0  0  0
    3.9272   -2.1424   -0.2245 O   0  0  0  0  0  0  0  0  0  0  0  0
   -2.8514   -0.0234    1.2478 C   0  0  0  0  0  0  0  0  0  0  0  0
   -2.3950    0.0082    2.3907 O   0  0  0  0  0  0  0  0  0  0  0  0
   -4.2018   -0.0351    0.9697 N   0  0  0  0  0  0  0  0  0  0  0  0
   -5.1221   -0.0387    2.0913 C   0  0  0  0  0  0  0  0  0  0  0  0
   -4.7349    0.0985   -0.3025 C   0  0  0  0  0  0  0  0  0  0  0  0
   -5.9491    0.2049   -0.4873 O   0  0  0  0  0  0  0  0  0  0  0  0
   -3.8148    0.1216   -1.3538 N   0  0  0  0  0  0  0  0  0  0  0  0
   -4.3651    0.2319   -2.7044 C   0  0  0  0  0  0  0  0  0  0  0  0
   -0.5058    0.4328   -2.1517 H   0  0  0  0  0  0  0  0  0  0  0  0
   -1.8821    0.9984   -3.0337 H   0  0  0  0  0  0  0  0  0  0  0  0
   -1.5562   -0.7488   -2.9517 H   0  0  0  0  0  0  0  0  0  0  0  0
   -0.1349    0.4829    1.2192 H   0  0  0  0  0  0  0  0  0  0  0  0
    2.2011   -1.6883   -0.2091 H   0  0  0  0  0  0  0  0  0  0  0  0
    4.0091    2.2740    0.9489 H   0  0  0  0  0  0  0  0  0  0  0  0
    7.7175    0.0939    0.8517 H   0  0  0  0  0  0  0  0  0  0  0  0
    6.5240   -1.9402    0.1683 H   0  0  0  0  0  0  0  0  0  0  0  0
    4.5854   -2.8499   -0.3524 H   0  0  0  0  0  0  0  0  0  0  0  0
   -6.0704   -0.5127    1.8204 H   0  0  0  0  0  0  0  0  0  0  0  0
   -4.6976   -0.5729    2.9471 H   0  0  0  0  0  0  0  0  0  0  0  0
   -5.3154    0.9996    2.3794 H   0  0  0  0  0  0  0  0  0  0  0  0
   -5.4466    0.0696   -2.7258 H   0  0  0  0  0  0  0  0  0  0  0  0
   -4.1663    1.2372   -3.0882 H   0  0  0  0  0  0  0  0  0  0  0  0
   -3.9114   -0.5216   -3.3551 H   0  0  0  0  0  0  0  0  0  0  0  0
  1  2  1  0
  2  3  2  0
  3  4  1  0
  4  5  2  3
  5  6  1  0
  6  7  1  0
  7  8  2  0
  7  9  1  0
  9 10  2  0
 10 11  1  0
 11 12  1  0
 11 13  2  0
 13 14  1  0
 14 15  2  0
 15 16  1  0
  3 17  1  0
 17 18  2  0
 17 19  1  0
 19 20  1  0
 19 21  1  0
 21 22  2  0
 21 23  1  0
 23 24  1  0
 23  2  1  0
 15  9  1  0
  1 25  1  0
  1 26  1  0
  1 27  1  0
  4 28  1  0
  6 29  1  0
 10 30  1  0
 13 31  1  0
 14 32  1  0
 16 33  1  0
 20 34  1  0
 20 35  1  0
 20 36  1  0
 24 37  1  0
 24 38  1  0
 24 39  1  0
M  END
$$$$
