
     RDKit          3D

 57 62  0  0  0  0  0  0  0  0999 V2000
    6.5421   -1.2586   -1.6627 C   0  0  0  0  0  0  0  0  0  0  0  0
    5.2410   -1.2870   -1.0913 O   0  0  0  0  0  0  0  0  0  0  0  0
    4.1808   -1.1906   -1.9526 C   0  0  0  0  0  0  0  0  0  0  0  0
    4.2706   -1.0488   -3.3511 C   0  0  0  0  0  0  0  0  0  0  0  0
    3.1179   -0.9625   -4.1422 C   0  0  0  0  0  0  0  0  0  0  0  0
    1.8987   -1.0161   -3.5019 C   0  0  0  0  0  0  0  0  0  0  0  0
    1.7868   -1.1469   -2.1163 C   0  0  0  0  0  0  0  0  0  0  0  0
    2.9265   -1.2431   -1.3316 C   0  0  0  0  0  0  0  0  0  0  0  0
    0.3336   -1.1697   -1.7479 C   0  0  0  0  0  0  0  0  0  0  0  0
   -0.0897   -2.3901   -0.9800 N   0  0  0  0  0  0  0  0  0  0  0  0
   -0.8346   -1.9640    0.2698 C   0  0  2  0  0  0  0  0  0  0  0  0
   -2.3208   -2.3677    0.1635 C   0  0  0  0  0  0  0  0  0  0  0  0
   -3.1348   -2.1669    1.4216 C   0  0  0  0  0  0  0  0  0  0  0  0
   -4.1965   -1.2512    1.4389 C   0  0  0  0  0  0  0  0  0  0  0  0
   -4.9604   -1.0725    2.5934 C   0  0  0  0  0  0  0  0  0  0  0  0
   -4.6732   -1.8088    3.7408 C   0  0  0  0  0  0  0  0  0  0  0  0
   -3.6234   -2.7253    3.7340 C   0  0  0  0  0  0  0  0  0  0  0  0
   -2.8591   -2.9062    2.5799 C   0  0  0  0  0  0  0  0  0  0  0  0
   -0.5988   -0.5033    0.3046 C   0  0  0  0  0  0  0  0  0  0  0  0
    0.0318   -0.0507   -0.8496 C   0  0  0  0  0  0  0  0  0  0  0  0
    0.1980    1.3061   -0.7648 C   0  0  0  0  0  0  0  0  0  0  0  0
    0.8148    2.1151   -1.6252 O   0  0  0  0  0  0  0  0  0  0  0  0
   -0.3344    1.7061    0.4747 N   0  0  0  0  0  0  0  0  0  0  0  0
   -0.3784    3.0418    0.9722 C   0  0  0  0  0  0  0  0  0  0  0  0
   -0.1317    3.2970    2.3276 C   0  0  0  0  0  0  0  0  0  0  0  0
   -0.1752    4.6067    2.8088 C   0  0  0  0  0  0  0  0  0  0  0  0
   -0.4674    5.6609    1.9443 C   0  0  0  0  0  0  0  0  0  0  0  0
   -0.7156    5.4103    0.5954 C   0  0  0  0  0  0  0  0  0  0  0  0
   -0.6705    4.1038    0.1055 C   0  0  0  0  0  0  0  0  0  0  0  0
   -0.8097    0.5611    1.1389 C   0  0  0  0  0  0  0  0  0  0  0  0
   -1.4074    0.5684    2.3279 O   0  0  0  0  0  0  0  0  0  0  0  0
   -0.3675   -1.0782   -3.1319 C   0  0  0  0  0  0  0  0  0  0  0  0
   -1.5649   -1.1420   -3.3725 O   0  0  0  0  0  0  0  0  0  0  0  0
    0.6413   -0.9716   -4.0912 N   0  0  0  0  0  0  0  0  0  0  0  0
    7.2670   -1.3535   -0.8484 H   0  0  0  0  0  0  0  0  0  0  0  0
    6.6936   -2.1033   -2.3429 H   0  0  0  0  0  0  0  0  0  0  0  0
    6.7311   -0.3050   -2.1666 H   0  0  0  0  0  0  0  0  0  0  0  0
    5.2317   -1.0054   -3.8533 H   0  0  0  0  0  0  0  0  0  0  0  0
    3.1915   -0.8597   -5.2186 H   0  0  0  0  0  0  0  0  0  0  0  0
    2.8462   -1.3558   -0.2545 H   0  0  0  0  0  0  0  0  0  0  0  0
   -0.7325   -2.9064   -1.5790 H   0  0  0  0  0  0  0  0  0  0  0  0
   -0.3523   -2.4504    1.1247 H   0  0  0  0  0  0  0  0  0  0  0  0
   -2.7954   -1.8305   -0.6693 H   0  0  0  0  0  0  0  0  0  0  0  0
   -2.3925   -3.4339   -0.0933 H   0  0  0  0  0  0  0  0  0  0  0  0
   -4.4310   -0.6665    0.5521 H   0  0  0  0  0  0  0  0  0  0  0  0
   -5.7793   -0.3586    2.5960 H   0  0  0  0  0  0  0  0  0  0  0  0
   -5.2670   -1.6693    4.6398 H   0  0  0  0  0  0  0  0  0  0  0  0
   -3.3983   -3.3003    4.6281 H   0  0  0  0  0  0  0  0  0  0  0  0
   -2.0465   -3.6287    2.5922 H   0  0  0  0  0  0  0  0  0  0  0  0
    1.1462    2.8927   -1.1413 H   0  0  0  0  0  0  0  0  0  0  0  0
    0.1419    2.4981    3.0148 H   0  0  0  0  0  0  0  0  0  0  0  0
    0.0289    4.8064    3.8582 H   0  0  0  0  0  0  0  0  0  0  0  0
   -0.5023    6.6797    2.3229 H   0  0  0  0  0  0  0  0  0  0  0  0
   -0.9555    6.2334   -0.0738 H   0  0  0  0  0  0  0  0  0  0  0  0
   -0.9122    3.9312   -0.9419 H   0  0  0  0  0  0  0  0  0  0  0  0
   -1.8362    1.4314    2.4630 H   0  0  0  0  0  0  0  0  0  0  0  0
    0.4530   -0.9011   -5.0788 H   0  0  0  0  0  0  0  0  0  0  0  0
  1  2  1  0
  2  3  1  0
  3  4  2  0
  4  5  1  0
  5  6  2  0
  6  7  1  0
  7  8  2  0
  7  9  1  0
  9 10  1  0
 10 11  1  0
 11 12  1  0
 12 13  1  0
 13 14  2  0
 14 15  1  0
 15 16  2  0
 16 17  1  0
 17 18  2  0
 11 19  1  0
 19 20  1  0
 20 21  2  0
 21 22  1  0
 21 23  1  0
 23 24  1  0
 24 25  2  0
 25 26  1  0
 26 27  2  0
 27 28  1  0
 28 29  2  0
 23 30  1  0
 30 31  1  0
  9 32  1  0
 32 33  2  0
 32 34  1  0
  8  3  1  0
 20  9  1  0
 29 24  1  0
 34  6  1  0
 18 13  1  0
 30 19  2  0
  1 35  1  0
  1 36  1  0
  1 37  1  0
  4 38  1  0
  5 39  1  0
  8 40  1  0
 10 41  1  0
 11 42  1  1
 12 43  1  0
 12 44  1  0
 14 45  1  0
 15 46  1  0
 16 47  1  0
 17 48  1  0
 18 49  1  0
 22 50  1  0
 25 51  1  0
 26 52  1  0
 27 53  1  0
 28 54  1  0
 29 55  1  0
 31 56  1  0
 34 57  1  0
M  END
$$$$
