
     RDKit          3D

 61 65  0  0  0  0  0  0  0  0999 V2000
    8.8347   -0.8715    2.0525 C   0  0  0  0  0  0  0  0  0  0  0  0
    7.6336   -0.1703    2.3521 O   0  0  0  0  0  0  0  0  0  0  0  0
    6.9400    0.3462    1.2923 C   0  0  0  0  0  0  0  0  0  0  0  0
    7.2922    0.2363   -0.0521 C   0  0  0  0  0  0  0  0  0  0  0  0
    6.4868    0.8134   -1.0406 C   0  0  0  0  0  0  0  0  0  0  0  0
    5.3204    1.5112   -0.6981 C   0  0  0  0  0  0  0  0  0  0  0  0
    4.4482    2.1204   -1.7670 C   0  0  0  0  0  0  0  0  0  0  0  0
    3.5959    1.1285   -2.3876 N   0  0  0  0  0  0  0  0  0  0  0  0
    3.9461    0.5473   -3.5620 N   0  0  0  0  0  0  0  0  0  0  0  0
    2.9748   -0.3015   -3.8994 N   0  0  0  0  0  0  0  0  0  0  0  0
    2.0166   -0.2239   -2.9359 C   0  0  0  0  0  0  0  0  0  0  0  0
    0.7627   -0.9140   -2.7954 C   0  0  0  0  0  0  0  0  0  0  0  0
    0.3195   -1.7511   -3.5722 O   0  0  0  0  0  0  0  0  0  0  0  0
    0.0828   -0.5221   -1.6485 N   0  0  0  0  0  0  0  0  0  0  0  0
    0.5536    0.4140   -0.7359 C   0  0  0  0  0  0  0  0  0  0  0  0
   -0.3351    0.7111    0.4701 C   0  0  0  0  0  0  0  0  0  0  0  0
   -0.7319   -0.5679    1.2241 C   0  0  0  0  0  0  0  0  0  0  0  0
   -2.1930   -0.9605    1.0110 C   0  0  0  0  0  0  0  0  0  0  0  0
   -2.5577   -0.6789   -0.3948 N   0  0  0  0  0  0  0  0  0  0  0  0
   -3.8180   -1.6342   -1.0605 S   0  0  0  0  0  6  0  0  0  0  0  0
   -3.5166   -3.0159   -0.7561 O   0  0  0  0  0  0  0  0  0  0  0  0
   -4.0150   -1.1882   -2.4227 O   0  0  0  0  0  0  0  0  0  0  0  0
   -5.2501   -1.1680   -0.1155 C   0  0  0  0  0  0  0  0  0  0  0  0
   -5.5513   -1.8525    1.0646 C   0  0  0  0  0  0  0  0  0  0  0  0
   -6.6876   -1.4997    1.7956 C   0  0  0  0  0  0  0  0  0  0  0  0
   -7.5394   -0.4849    1.3385 C   0  0  0  0  0  0  0  0  0  0  0  0
   -8.7456   -0.0869    2.1392 C   0  0  0  0  0  0  0  0  0  0  0  0
   -7.2336    0.1831    0.1451 C   0  0  0  0  0  0  0  0  0  0  0  0
   -6.0995   -0.1656   -0.5909 C   0  0  0  0  0  0  0  0  0  0  0  0
   -2.6156    0.7739   -0.7090 C   0  0  0  0  0  0  0  0  0  0  0  0
   -1.5507    1.5513    0.0685 C   0  0  0  0  0  0  0  0  0  0  0  0
    1.6848    1.0535   -0.8620 N   0  0  0  0  0  0  0  0  0  0  0  0
    2.3728    0.6876   -1.9714 C   0  0  0  0  0  0  0  0  0  0  0  0
    4.9674    1.6102    0.6533 C   0  0  0  0  0  0  0  0  0  0  0  0
    5.7744    1.0337    1.6369 C   0  0  0  0  0  0  0  0  0  0  0  0
    8.6349   -1.7532    1.4334 H   0  0  0  0  0  0  0  0  0  0  0  0
    9.5680   -0.2109    1.5776 H   0  0  0  0  0  0  0  0  0  0  0  0
    9.2635   -1.2192    2.9976 H   0  0  0  0  0  0  0  0  0  0  0  0
    8.1818   -0.2972   -0.3692 H   0  0  0  0  0  0  0  0  0  0  0  0
    6.7725    0.7029   -2.0858 H   0  0  0  0  0  0  0  0  0  0  0  0
    5.0630    2.5848   -2.5473 H   0  0  0  0  0  0  0  0  0  0  0  0
    3.8057    2.9082   -1.3567 H   0  0  0  0  0  0  0  0  0  0  0  0
   -0.8106   -0.9804   -1.4991 H   0  0  0  0  0  0  0  0  0  0  0  0
    0.2788    1.3165    1.1518 H   0  0  0  0  0  0  0  0  0  0  0  0
   -0.5716   -0.4241    2.3000 H   0  0  0  0  0  0  0  0  0  0  0  0
   -0.0815   -1.4032    0.9358 H   0  0  0  0  0  0  0  0  0  0  0  0
   -2.8437   -0.3915    1.6852 H   0  0  0  0  0  0  0  0  0  0  0  0
   -2.3062   -2.0209    1.2552 H   0  0  0  0  0  0  0  0  0  0  0  0
   -4.9169   -2.6627    1.4173 H   0  0  0  0  0  0  0  0  0  0  0  0
   -6.9133   -2.0313    2.7180 H   0  0  0  0  0  0  0  0  0  0  0  0
   -9.1156   -0.9270    2.7356 H   0  0  0  0  0  0  0  0  0  0  0  0
   -8.4913    0.7384    2.8109 H   0  0  0  0  0  0  0  0  0  0  0  0
   -9.5622    0.2286    1.4814 H   0  0  0  0  0  0  0  0  0  0  0  0
   -7.8864    0.9719   -0.2246 H   0  0  0  0  0  0  0  0  0  0  0  0
   -5.8910    0.3439   -1.5291 H   0  0  0  0  0  0  0  0  0  0  0  0
   -3.5979    1.1929   -0.4778 H   0  0  0  0  0  0  0  0  0  0  0  0
   -2.4373    0.9033   -1.7821 H   0  0  0  0  0  0  0  0  0  0  0  0
   -2.0113    1.9432    0.9855 H   0  0  0  0  0  0  0  0  0  0  0  0
   -1.2454    2.4288   -0.5145 H   0  0  0  0  0  0  0  0  0  0  0  0
    4.0577    2.1276    0.9515 H   0  0  0  0  0  0  0  0  0  0  0  0
    5.4898    1.1163    2.6830 H   0  0  0  0  0  0  0  0  0  0  0  0
  1  2  1  0
  2  3  1  0
  3  4  2  0
  4  5  1  0
  5  6  2  0
  6  7  1  0
  7  8  1  0
  8  9  1  0
  9 10  2  0
 10 11  1  0
 11 12  1  0
 12 13  2  0
 12 14  1  0
 14 15  1  0
 15 16  1  0
 16 17  1  0
 17 18  1  0
 18 19  1  0
 19 20  1  0
 20 21  2  0
 20 22  2  0
 20 23  1  0
 23 24  2  0
 24 25  1  0
 25 26  2  0
 26 27  1  0
 26 28  1  0
 28 29  2  0
 19 30  1  0
 30 31  1  0
 15 32  2  0
 32 33  1  0
  6 34  1  0
 34 35  2  0
 35  3  1  0
 33  8  1  0
 33 11  2  0
 31 16  1  0
 29 23  1  0
  1 36  1  0
  1 37  1  0
  1 38  1  0
  4 39  1  0
  5 40  1  0
  7 41  1  0
  7 42  1  0
 14 43  1  0
 16 44  1  0
 17 45  1  0
 17 46  1  0
 18 47  1  0
 18 48  1  0
 24 49  1  0
 25 50  1  0
 27 51  1  0
 27 52  1  0
 27 53  1  0
 28 54  1  0
 29 55  1  0
 30 56  1  0
 30 57  1  0
 31 58  1  0
 31 59  1  0
 34 60  1  0
 35 61  1  0
M  END
$$$$
