
     RDKit          3D

 35 36  0  0  0  0  0  0  0  0999 V2000
    5.0862   -0.9583    1.6343 C   0  0  0  0  0  0  0  0  0  0  0  0
    4.1160   -0.4975    0.5890 C   0  0  0  0  0  0  0  0  0  0  0  0
    4.4727   -0.5102   -0.7536 C   0  0  0  0  0  0  0  0  0  0  0  0
    3.5435   -0.0750   -1.6894 C   0  0  0  0  0  0  0  0  0  0  0  0
    2.2930    0.3569   -1.2557 C   0  0  0  0  0  0  0  0  0  0  0  0
    2.0071    0.3403    0.1056 C   0  0  0  0  0  0  0  0  0  0  0  0
    0.7418    0.7835    0.4981 N   0  0  0  0  0  0  0  0  0  0  0  0
    0.2447    0.7936    1.7864 C   0  0  0  0  0  0  0  0  0  0  0  0
    0.8118    0.4370    2.8143 O   0  0  0  0  0  0  0  0  0  0  0  0
   -1.1809    1.3563    1.8517 C   0  0  0  0  0  0  0  0  0  0  0  0
   -1.8640    1.4082    0.6033 O   0  0  0  0  0  0  0  0  0  0  0  0
   -2.5101    0.2787    0.1695 C   0  0  0  0  0  0  0  0  0  0  0  0
   -2.3538   -0.9958    0.7234 C   0  0  0  0  0  0  0  0  0  0  0  0
   -3.0409   -2.0874    0.1868 C   0  0  0  0  0  0  0  0  0  0  0  0
   -3.8841   -1.9156   -0.9064 C   0  0  0  0  0  0  0  0  0  0  0  0
   -4.0406   -0.6508   -1.4696 C   0  0  0  0  0  0  0  0  0  0  0  0
   -3.3555    0.4540   -0.9418 C   0  0  0  0  0  0  0  0  0  0  0  0
   -3.5406    1.8106   -1.5645 C   0  0  0  0  0  0  0  0  0  0  0  0
    2.9021   -0.0784    1.0159 N   0  0  0  0  0  0  0  0  0  0  0  0
    5.3614   -2.0031    1.4603 H   0  0  0  0  0  0  0  0  0  0  0  0
    5.9886   -0.3396    1.6115 H   0  0  0  0  0  0  0  0  0  0  0  0
    4.6470   -0.8836    2.6344 H   0  0  0  0  0  0  0  0  0  0  0  0
    5.4537   -0.8520   -1.0664 H   0  0  0  0  0  0  0  0  0  0  0  0
    3.7894   -0.0725   -2.7472 H   0  0  0  0  0  0  0  0  0  0  0  0
    1.5623    0.6960   -1.9816 H   0  0  0  0  0  0  0  0  0  0  0  0
    0.1011    1.0752   -0.2291 H   0  0  0  0  0  0  0  0  0  0  0  0
   -1.0862    2.3914    2.1997 H   0  0  0  0  0  0  0  0  0  0  0  0
   -1.7650    0.8218    2.6100 H   0  0  0  0  0  0  0  0  0  0  0  0
   -1.6982   -1.1862    1.5677 H   0  0  0  0  0  0  0  0  0  0  0  0
   -2.9132   -3.0748    0.6242 H   0  0  0  0  0  0  0  0  0  0  0  0
   -4.4184   -2.7665   -1.3212 H   0  0  0  0  0  0  0  0  0  0  0  0
   -4.7030   -0.5314   -2.3242 H   0  0  0  0  0  0  0  0  0  0  0  0
   -4.2260    1.7716   -2.4177 H   0  0  0  0  0  0  0  0  0  0  0  0
   -2.5818    2.1950   -1.9272 H   0  0  0  0  0  0  0  0  0  0  0  0
   -3.9601    2.5089   -0.8331 H   0  0  0  0  0  0  0  0  0  0  0  0
  1  2  1  0
  2  3  2  0
  3  4  1  0
  4  5  2  0
  5  6  1  0
  6  7  1  0
  7  8  1  0
  8  9  2  0
  8 10  1  0
 10 11  1  0
 11 12  1  0
 12 13  2  0
 13 14  1  0
 14 15  2  0
 15 16  1  0
 16 17  2  0
 17 18  1  0
  6 19  2  0
 19  2  1  0
 17 12  1  0
  1 20  1  0
  1 21  1  0
  1 22  1  0
  3 23  1  0
  4 24  1  0
  5 25  1  0
  7 26  1  0
 10 27  1  0
 10 28  1  0
 13 29  1  0
 14 30  1  0
 15 31  1  0
 16 32  1  0
 18 33  1  0
 18 34  1  0
 18 35  1  0
M  END
$$$$
