
     RDKit          3D

 39 41  0  0  0  0  0  0  0  0999 V2000
    2.6906   -0.2220   -2.5565 O   0  0  0  0  0  0  0  0  0  0  0  0
    2.8884   -0.5137   -1.3878 C   0  0  0  0  0  0  0  0  0  0  0  0
    2.2327   -1.4607   -0.6755 O   0  0  0  0  0  0  0  0  0  0  0  0
    1.1731   -2.1364   -1.3636 C   0  0  0  0  0  0  0  0  0  0  0  0
   -0.1444   -1.5464   -0.9345 C   0  0  0  0  0  0  0  0  0  0  0  0
   -0.8002   -2.0163    0.2088 C   0  0  0  0  0  0  0  0  0  0  0  0
   -2.0117   -1.4476    0.6155 C   0  0  0  0  0  0  0  0  0  0  0  0
   -2.5943   -0.3901   -0.1011 C   0  0  0  0  0  0  0  0  0  0  0  0
   -3.8678    0.2090    0.3312 C   0  0  0  0  0  0  0  0  0  0  0  0
   -5.0061   -0.5859    0.5468 C   0  0  0  0  0  0  0  0  0  0  0  0
   -6.2154   -0.0179    0.9572 C   0  0  0  0  0  0  0  0  0  0  0  0
   -6.3065    1.3566    1.1604 C   0  0  0  0  0  0  0  0  0  0  0  0
   -5.1905    2.1631    0.9530 C   0  0  0  0  0  0  0  0  0  0  0  0
   -3.9824    1.5935    0.5414 C   0  0  0  0  0  0  0  0  0  0  0  0
   -1.9216    0.0814   -1.2393 C   0  0  0  0  0  0  0  0  0  0  0  0
   -0.7112   -0.4858   -1.6502 C   0  0  0  0  0  0  0  0  0  0  0  0
    3.9247    0.1421   -0.5452 C   0  0  0  0  0  0  0  0  0  0  0  0
    4.8186    1.0270   -1.1671 C   0  0  0  0  0  0  0  0  0  0  0  0
    5.8081    1.6692   -0.4204 C   0  0  0  0  0  0  0  0  0  0  0  0
    5.9063    1.4330    0.9496 C   0  0  0  0  0  0  0  0  0  0  0  0
    5.0156    0.5604    1.5656 C   0  0  0  0  0  0  0  0  0  0  0  0
    5.1487    0.3670    2.9091 O   0  0  0  0  0  0  0  0  0  0  0  0
    4.0243   -0.0888    0.8344 C   0  0  0  0  0  0  0  0  0  0  0  0
    1.2847   -2.1136   -2.4545 H   0  0  0  0  0  0  0  0  0  0  0  0
    1.2187   -3.1939   -1.0783 H   0  0  0  0  0  0  0  0  0  0  0  0
   -0.3712   -2.8255    0.7954 H   0  0  0  0  0  0  0  0  0  0  0  0
   -2.4953   -1.8280    1.5132 H   0  0  0  0  0  0  0  0  0  0  0  0
   -4.9600   -1.6605    0.3820 H   0  0  0  0  0  0  0  0  0  0  0  0
   -7.0853   -0.6501    1.1143 H   0  0  0  0  0  0  0  0  0  0  0  0
   -7.2465    1.7991    1.4794 H   0  0  0  0  0  0  0  0  0  0  0  0
   -5.2568    3.2360    1.1127 H   0  0  0  0  0  0  0  0  0  0  0  0
   -3.1196    2.2405    0.3954 H   0  0  0  0  0  0  0  0  0  0  0  0
   -2.3432    0.8964   -1.8246 H   0  0  0  0  0  0  0  0  0  0  0  0
   -0.2112   -0.0906   -2.5333 H   0  0  0  0  0  0  0  0  0  0  0  0
    4.7471    1.2187   -2.2364 H   0  0  0  0  0  0  0  0  0  0  0  0
    6.4998    2.3533   -0.9055 H   0  0  0  0  0  0  0  0  0  0  0  0
    6.6733    1.9305    1.5373 H   0  0  0  0  0  0  0  0  0  0  0  0
    4.4538   -0.2405    3.2121 H   0  0  0  0  0  0  0  0  0  0  0  0
    3.3328   -0.7624    1.3301 H   0  0  0  0  0  0  0  0  0  0  0  0
  1  2  2  0
  2  3  1  0
  3  4  1  0
  4  5  1  0
  5  6  2  0
  6  7  1  0
  7  8  2  0
  8  9  1  0
  9 10  2  0
 10 11  1  0
 11 12  2  0
 12 13  1  0
 13 14  2  0
  8 15  1  0
 15 16  2  0
  2 17  1  0
 17 18  2  0
 18 19  1  0
 19 20  2  0
 20 21  1  0
 21 22  1  0
 21 23  2  0
 16  5  1  0
 23 17  1  0
 14  9  1  0
  4 24  1  0
  4 25  1  0
  6 26  1  0
  7 27  1  0
 10 28  1  0
 11 29  1  0
 12 30  1  0
 13 31  1  0
 14 32  1  0
 15 33  1  0
 16 34  1  0
 18 35  1  0
 19 36  1  0
 20 37  1  0
 22 38  1  0
 23 39  1  0
M  END
$$$$
