
     RDKit          3D

 50 52  0  0  0  0  0  0  0  0999 V2000
    7.9890    2.2725   -1.2035 C   0  0  0  0  0  0  0  0  0  0  0  0
    7.0049    2.3686   -0.1822 O   0  0  0  0  0  0  0  0  0  0  0  0
    5.7720    1.8481   -0.4597 C   0  0  0  0  0  0  0  0  0  0  0  0
    5.3834    1.2458   -1.6536 C   0  0  0  0  0  0  0  0  0  0  0  0
    4.0792    0.7555   -1.8016 C   0  0  0  0  0  0  0  0  0  0  0  0
    3.1474    0.8596   -0.7611 C   0  0  0  0  0  0  0  0  0  0  0  0
    1.8595    0.3401   -0.9980 N   0  0  0  0  0  0  0  0  0  0  0  0
    0.7942    0.2735   -0.1101 C   0  0  0  0  0  0  0  0  0  0  0  0
    0.8028    0.6401    1.0657 O   0  0  0  0  0  0  0  0  0  0  0  0
   -0.4786   -0.3516   -0.7403 C   0  0  0  0  0  0  0  0  0  0  0  0
   -1.5962   -0.1711    0.1724 N   0  0  0  0  0  0  0  0  0  0  0  0
   -2.8541    0.1449   -0.2805 C   0  0  0  0  0  0  0  0  0  0  0  0
   -3.1302    0.2546   -1.4703 O   0  0  0  0  0  0  0  0  0  0  0  0
   -3.8889    0.3960    0.7605 C   0  0  0  0  0  0  0  0  0  0  0  0
   -4.9762    1.2146    0.4348 C   0  0  0  0  0  0  0  0  0  0  0  0
   -5.9696    1.4773    1.3817 C   0  0  0  0  0  0  0  0  0  0  0  0
   -5.8879    0.9260    2.6656 C   0  0  0  0  0  0  0  0  0  0  0  0
   -6.9704    1.1787    3.6732 C   0  0  0  0  0  0  0  0  0  0  0  0
   -4.8148    0.0822    2.9787 C   0  0  0  0  0  0  0  0  0  0  0  0
   -3.8187   -0.1817    2.0335 C   0  0  0  0  0  0  0  0  0  0  0  0
   -0.3071   -1.8240   -1.0753 C   0  0  0  0  0  0  0  0  0  0  0  0
    0.3701   -2.7055   -0.2167 C   0  0  0  0  0  0  0  0  0  0  0  0
    0.5072   -4.0547   -0.5481 C   0  0  0  0  0  0  0  0  0  0  0  0
   -0.0428   -4.5430   -1.7314 C   0  0  0  0  0  0  0  0  0  0  0  0
   -0.7391   -3.6858   -2.5805 C   0  0  0  0  0  0  0  0  0  0  0  0
   -0.8753   -2.3362   -2.2529 C   0  0  0  0  0  0  0  0  0  0  0  0
    3.5412    1.4637    0.4307 C   0  0  0  0  0  0  0  0  0  0  0  0
    4.8445    1.9536    0.5770 C   0  0  0  0  0  0  0  0  0  0  0  0
    8.9088    2.7299   -0.8258 H   0  0  0  0  0  0  0  0  0  0  0  0
    7.6854    2.8259   -2.0982 H   0  0  0  0  0  0  0  0  0  0  0  0
    8.2098    1.2267   -1.4414 H   0  0  0  0  0  0  0  0  0  0  0  0
    6.0666    1.1391   -2.4893 H   0  0  0  0  0  0  0  0  0  0  0  0
    3.8090    0.2865   -2.7448 H   0  0  0  0  0  0  0  0  0  0  0  0
    1.7099   -0.0754   -1.9109 H   0  0  0  0  0  0  0  0  0  0  0  0
   -0.6756    0.2175   -1.6586 H   0  0  0  0  0  0  0  0  0  0  0  0
   -1.3483   -0.0219    1.1439 H   0  0  0  0  0  0  0  0  0  0  0  0
   -5.0526    1.6524   -0.5586 H   0  0  0  0  0  0  0  0  0  0  0  0
   -6.8073    2.1142    1.1073 H   0  0  0  0  0  0  0  0  0  0  0  0
   -7.4669    2.1360    3.4842 H   0  0  0  0  0  0  0  0  0  0  0  0
   -7.7167    0.3797    3.6286 H   0  0  0  0  0  0  0  0  0  0  0  0
   -6.5551    1.2219    4.6855 H   0  0  0  0  0  0  0  0  0  0  0  0
   -4.7517   -0.3809    3.9613 H   0  0  0  0  0  0  0  0  0  0  0  0
   -3.0136   -0.8607    2.2993 H   0  0  0  0  0  0  0  0  0  0  0  0
    0.7946   -2.3525    0.7215 H   0  0  0  0  0  0  0  0  0  0  0  0
    1.0370   -4.7269    0.1222 H   0  0  0  0  0  0  0  0  0  0  0  0
    0.0583   -5.5951   -1.9845 H   0  0  0  0  0  0  0  0  0  0  0  0
   -1.1884   -4.0700   -3.4927 H   0  0  0  0  0  0  0  0  0  0  0  0
   -1.4479   -1.6858   -2.9135 H   0  0  0  0  0  0  0  0  0  0  0  0
    2.8637    1.5759    1.2705 H   0  0  0  0  0  0  0  0  0  0  0  0
    5.1354    2.4219    1.5148 H   0  0  0  0  0  0  0  0  0  0  0  0
  1  2  1  0
  2  3  1  0
  3  4  2  0
  4  5  1  0
  5  6  2  0
  6  7  1  0
  7  8  1  0
  8  9  2  0
  8 10  1  0
 10 11  1  0
 11 12  1  0
 12 13  2  0
 12 14  1  0
 14 15  2  0
 15 16  1  0
 16 17  2  0
 17 18  1  0
 17 19  1  0
 19 20  2  0
 10 21  1  0
 21 22  2  0
 22 23  1  0
 23 24  2  0
 24 25  1  0
 25 26  2  0
  6 27  1  0
 27 28  2  0
 28  3  1  0
 20 14  1  0
 26 21  1  0
  1 29  1  0
  1 30  1  0
  1 31  1  0
  4 32  1  0
  5 33  1  0
  7 34  1  0
 10 35  1  0
 11 36  1  0
 15 37  1  0
 16 38  1  0
 18 39  1  0
 18 40  1  0
 18 41  1  0
 19 42  1  0
 20 43  1  0
 22 44  1  0
 23 45  1  0
 24 46  1  0
 25 47  1  0
 26 48  1  0
 27 49  1  0
 28 50  1  0
M  END
$$$$
