
     RDKit          3D

 46 48  0  0  0  0  0  0  0  0999 V2000
   -4.1941    0.1882   -2.8772 C   0  0  0  0  0  0  0  0  0  0  0  0
   -2.9734   -0.3279   -2.6805 C   0  0  0  0  0  0  0  0  0  0  0  0
   -1.8959    0.3188   -1.8573 C   0  0  0  0  0  0  0  0  0  0  0  0
   -1.5964   -0.4540   -0.6648 N   0  0  0  0  0  0  0  0  0  0  0  0
   -0.6486   -1.4285   -0.5125 C   0  0  0  0  0  0  0  0  0  0  0  0
    0.4432   -1.9270   -1.7568 S   0  0  0  0  0  0  0  0  0  0  0  0
    1.7440   -2.7433   -0.7795 C   0  0  0  0  0  0  0  0  0  0  0  0
    2.7597   -1.7576   -0.2500 C   0  0  0  0  0  0  0  0  0  0  0  0
    3.8442   -1.3567   -1.0458 C   0  0  0  0  0  0  0  0  0  0  0  0
    4.7716   -0.4225   -0.5713 C   0  0  0  0  0  0  0  0  0  0  0  0
    4.6264    0.1271    0.7085 C   0  0  0  0  0  0  0  0  0  0  0  0
    5.5819    1.1293    1.2615 C   0  0  0  0  0  0  0  0  0  0  0  0
    5.4408    1.6759    2.3439 O   0  0  0  0  0  0  0  0  0  0  0  0
    6.6115    1.3333    0.4013 O   0  0  0  0  0  0  0  0  0  0  0  0
    7.5793    2.2766    0.8683 C   0  0  0  0  0  0  0  0  0  0  0  0
    3.5432   -0.2681    1.5043 C   0  0  0  0  0  0  0  0  0  0  0  0
    2.6180   -1.2026    1.0292 C   0  0  0  0  0  0  0  0  0  0  0  0
   -0.7336   -1.9468    0.6892 N   0  0  0  0  0  0  0  0  0  0  0  0
   -1.7532   -1.3093    1.3496 N   0  0  0  0  0  0  0  0  0  0  0  0
   -2.2650   -0.4064    0.5368 C   0  0  0  0  0  0  0  0  0  0  0  0
   -3.3880    0.4104    0.8685 C   0  0  0  0  0  0  0  0  0  0  0  0
   -3.2760    2.1112    1.0412 S   0  0  0  0  0  0  0  0  0  0  0  0
   -4.9485    2.1775    1.4132 C   0  0  0  0  0  0  0  0  0  0  0  0
   -5.5651    3.3433    1.6719 N   0  0  0  0  0  0  0  0  0  0  0  0
   -5.5680    1.0242    1.4383 N   0  0  0  0  0  0  0  0  0  0  0  0
   -4.6805   -0.0026    1.1488 C   0  0  0  0  0  0  0  0  0  0  0  0
   -5.1928   -1.3984    1.1428 C   0  0  0  0  0  0  0  0  0  0  0  0
   -4.5040    1.1312   -2.4350 H   0  0  0  0  0  0  0  0  0  0  0  0
   -4.9265   -0.3384   -3.4837 H   0  0  0  0  0  0  0  0  0  0  0  0
   -2.7252   -1.2787   -3.1493 H   0  0  0  0  0  0  0  0  0  0  0  0
   -2.1706    1.3333   -1.5520 H   0  0  0  0  0  0  0  0  0  0  0  0
   -0.9838    0.4247   -2.4526 H   0  0  0  0  0  0  0  0  0  0  0  0
    2.2522   -3.4588   -1.4382 H   0  0  0  0  0  0  0  0  0  0  0  0
    1.3187   -3.3448    0.0319 H   0  0  0  0  0  0  0  0  0  0  0  0
    3.9707   -1.7665   -2.0463 H   0  0  0  0  0  0  0  0  0  0  0  0
    5.5996   -0.1301   -1.2140 H   0  0  0  0  0  0  0  0  0  0  0  0
    7.1204    3.2627    1.0026 H   0  0  0  0  0  0  0  0  0  0  0  0
    8.0364    1.9272    1.8004 H   0  0  0  0  0  0  0  0  0  0  0  0
    8.3630    2.3604    0.1095 H   0  0  0  0  0  0  0  0  0  0  0  0
    3.4110    0.1548    2.5002 H   0  0  0  0  0  0  0  0  0  0  0  0
    1.7794   -1.4885    1.6649 H   0  0  0  0  0  0  0  0  0  0  0  0
   -6.4490    3.2419    2.1609 H   0  0  0  0  0  0  0  0  0  0  0  0
   -4.9894    4.0896    2.0431 H   0  0  0  0  0  0  0  0  0  0  0  0
   -4.6983   -1.9989    1.9144 H   0  0  0  0  0  0  0  0  0  0  0  0
   -6.2711   -1.4193    1.3366 H   0  0  0  0  0  0  0  0  0  0  0  0
   -5.0183   -1.8661    0.1686 H   0  0  0  0  0  0  0  0  0  0  0  0
  1  2  2  0
  2  3  1  0
  3  4  1  0
  4  5  1  0
  5  6  1  0
  6  7  1  0
  7  8  1  0
  8  9  2  0
  9 10  1  0
 10 11  2  0
 11 12  1  0
 12 13  2  0
 12 14  1  0
 14 15  1  0
 11 16  1  0
 16 17  2  0
  5 18  2  0
 18 19  1  0
 19 20  2  0
 20 21  1  0
 21 22  1  0
 22 23  1  0
 23 24  1  0
 23 25  2  0
 25 26  1  0
 26 27  1  0
 20  4  1  0
 26 21  2  0
 17  8  1  0
  1 28  1  0
  1 29  1  0
  2 30  1  0
  3 31  1  0
  3 32  1  0
  7 33  1  0
  7 34  1  0
  9 35  1  0
 10 36  1  0
 15 37  1  0
 15 38  1  0
 15 39  1  0
 16 40  1  0
 17 41  1  0
 24 42  1  0
 24 43  1  0
 27 44  1  0
 27 45  1  0
 27 46  1  0
M  END
$$$$
