
     RDKit          3D

 80 86  0  0  0  0  0  0  0  0999 V2000
    5.5155   -2.7171    3.6437 C   0  0  0  0  0  0  0  0  0  0  0  0
    5.6736   -1.6144    2.5851 C   0  0  0  0  0  0  0  0  0  0  0  0
    6.1892   -0.3462    3.2746 C   0  0  0  0  0  0  0  0  0  0  0  0
    6.6354   -2.1114    1.4998 C   0  0  0  0  0  0  0  0  0  0  0  0
    4.3371   -1.4235    2.0555 O   0  0  0  0  0  0  0  0  0  0  0  0
    4.0882   -0.5093    1.0832 C   0  0  0  0  0  0  0  0  0  0  0  0
    4.9333    0.2249    0.5888 O   0  0  0  0  0  0  0  0  0  0  0  0
    2.7577   -0.5041    0.7026 N   0  0  0  0  0  0  0  0  0  0  0  0
    1.7241   -1.2010    1.4954 C   0  0  0  0  0  0  0  0  0  0  0  0
    0.4028   -1.4608    0.7273 C   0  0  0  0  0  0  0  0  0  0  0  0
    0.0057   -0.2435    0.0416 N   0  0  0  0  0  0  0  0  0  0  0  0
    1.0523    0.1699   -0.9436 C   0  0  2  0  0  0  0  0  0  0  0  0
    2.2952    0.5908   -0.1700 C   0  0  0  0  0  0  0  0  0  0  0  0
    0.3027    1.1813   -1.7170 C   0  0  0  0  0  0  0  0  0  0  0  0
   -1.0824    0.9718   -1.5544 C   0  0  0  0  0  0  0  0  0  0  0  0
   -1.7594    1.8695   -2.3364 C   0  0  0  0  0  0  0  0  0  0  0  0
   -3.0694    1.9906   -2.5156 O   0  0  0  0  0  0  0  0  0  0  0  0
   -0.7880    2.6727   -2.9316 N   0  0  0  0  0  0  0  0  0  0  0  0
   -1.0204    3.7965   -3.8326 C   0  0  0  0  0  0  0  0  0  0  0  0
   -1.0945    5.1054   -3.0839 C   0  0  0  0  0  0  0  0  0  0  0  0
    0.0684    5.8649   -2.8797 C   0  0  0  0  0  0  0  0  0  0  0  0
    0.0191    7.0680   -2.1746 C   0  0  0  0  0  0  0  0  0  0  0  0
   -1.1922    7.5254   -1.6611 C   0  0  0  0  0  0  0  0  0  0  0  0
   -2.3538    6.7795   -1.8513 C   0  0  0  0  0  0  0  0  0  0  0  0
   -2.3068    5.5758   -2.5580 C   0  0  0  0  0  0  0  0  0  0  0  0
    0.4838    2.2167   -2.5902 C   0  0  0  0  0  0  0  0  0  0  0  0
    1.5758    2.7721   -3.1002 O   0  0  0  0  0  0  0  0  0  0  0  0
   -1.3226   -0.1555   -0.6180 C   0  0  1  0  0  0  0  0  0  0  0  0
   -1.7800   -1.4580   -1.3180 C   0  0  0  0  0  0  0  0  0  0  0  0
   -1.1658   -2.1073   -2.1566 O   0  0  0  0  0  0  0  0  0  0  0  0
   -3.0296   -1.7869   -0.7647 N   0  0  0  0  0  0  0  0  0  0  0  0
   -3.7418   -2.9996   -1.0871 C   0  0  0  0  0  0  0  0  0  0  0  0
   -3.3956   -4.1381   -0.1531 C   0  0  0  0  0  0  0  0  0  0  0  0
   -4.2939   -4.5543    0.8396 C   0  0  0  0  0  0  0  0  0  0  0  0
   -3.9605   -5.5972    1.7063 C   0  0  0  0  0  0  0  0  0  0  0  0
   -2.7269   -6.2354    1.5912 C   0  0  0  0  0  0  0  0  0  0  0  0
   -1.8255   -5.8329    0.6087 C   0  0  0  0  0  0  0  0  0  0  0  0
   -2.1573   -4.7910   -0.2587 C   0  0  0  0  0  0  0  0  0  0  0  0
   -3.4296   -0.8353    0.1888 C   0  0  0  0  0  0  0  0  0  0  0  0
   -4.5853   -0.8040    0.9486 C   0  0  0  0  0  0  0  0  0  0  0  0
   -4.7556    0.2549    1.8462 C   0  0  0  0  0  0  0  0  0  0  0  0
   -3.7791    1.2562    1.9708 C   0  0  0  0  0  0  0  0  0  0  0  0
   -2.6166    1.2143    1.1997 C   0  0  0  0  0  0  0  0  0  0  0  0
   -2.4560    0.1642    0.3058 C   0  0  0  0  0  0  0  0  0  0  0  0
    4.8038   -2.4118    4.4201 H   0  0  0  0  0  0  0  0  0  0  0  0
    6.4691   -2.9588    4.1255 H   0  0  0  0  0  0  0  0  0  0  0  0
    5.1104   -3.6324    3.1957 H   0  0  0  0  0  0  0  0  0  0  0  0
    6.3923    0.4551    2.5587 H   0  0  0  0  0  0  0  0  0  0  0  0
    5.4449    0.0428    3.9786 H   0  0  0  0  0  0  0  0  0  0  0  0
    7.1193   -0.5402    3.8207 H   0  0  0  0  0  0  0  0  0  0  0  0
    6.2071   -2.9659    0.9632 H   0  0  0  0  0  0  0  0  0  0  0  0
    7.5964   -2.4169    1.9282 H   0  0  0  0  0  0  0  0  0  0  0  0
    6.8407   -1.3404    0.7509 H   0  0  0  0  0  0  0  0  0  0  0  0
    2.1150   -2.1554    1.8632 H   0  0  0  0  0  0  0  0  0  0  0  0
    1.5255   -0.5686    2.3701 H   0  0  0  0  0  0  0  0  0  0  0  0
    0.5531   -2.2845    0.0191 H   0  0  0  0  0  0  0  0  0  0  0  0
   -0.3612   -1.7762    1.4465 H   0  0  0  0  0  0  0  0  0  0  0  0
    1.2964   -0.6701   -1.6105 H   0  0  0  0  0  0  0  0  0  0  0  0
    2.0980    1.4595    0.4714 H   0  0  0  0  0  0  0  0  0  0  0  0
    3.0936    0.8791   -0.8632 H   0  0  0  0  0  0  0  0  0  0  0  0
   -3.2659    2.7288   -3.1104 H   0  0  0  0  0  0  0  0  0  0  0  0
   -1.9417    3.6107   -4.3950 H   0  0  0  0  0  0  0  0  0  0  0  0
   -0.2156    3.8153   -4.5770 H   0  0  0  0  0  0  0  0  0  0  0  0
    1.0257    5.5134   -3.2614 H   0  0  0  0  0  0  0  0  0  0  0  0
    0.9288    7.6429   -2.0189 H   0  0  0  0  0  0  0  0  0  0  0  0
   -1.2298    8.4590   -1.1060 H   0  0  0  0  0  0  0  0  0  0  0  0
   -3.2975    7.1329   -1.4436 H   0  0  0  0  0  0  0  0  0  0  0  0
   -3.2269    5.0118   -2.6852 H   0  0  0  0  0  0  0  0  0  0  0  0
    2.3458    2.2926   -2.7468 H   0  0  0  0  0  0  0  0  0  0  0  0
   -3.4850   -3.3005   -2.1106 H   0  0  0  0  0  0  0  0  0  0  0  0
   -4.8201   -2.8036   -1.0909 H   0  0  0  0  0  0  0  0  0  0  0  0
   -5.2620   -4.0717    0.9468 H   0  0  0  0  0  0  0  0  0  0  0  0
   -4.6642   -5.9129    2.4721 H   0  0  0  0  0  0  0  0  0  0  0  0
   -2.4691   -7.0475    2.2661 H   0  0  0  0  0  0  0  0  0  0  0  0
   -0.8644   -6.3316    0.5136 H   0  0  0  0  0  0  0  0  0  0  0  0
   -1.4426   -4.4908   -1.0235 H   0  0  0  0  0  0  0  0  0  0  0  0
   -5.3507   -1.5646    0.8636 H   0  0  0  0  0  0  0  0  0  0  0  0
   -5.6547    0.3060    2.4557 H   0  0  0  0  0  0  0  0  0  0  0  0
   -3.9293    2.0720    2.6743 H   0  0  0  0  0  0  0  0  0  0  0  0
   -1.8563    1.9840    1.2916 H   0  0  0  0  0  0  0  0  0  0  0  0
  1  2  1  0
  2  3  1  0
  2  4  1  0
  2  5  1  0
  5  6  1  0
  6  7  2  0
  6  8  1  0
  8  9  1  0
  9 10  1  0
 10 11  1  0
 11 12  1  0
 12 13  1  0
 12 14  1  0
 14 15  1  0
 15 16  2  0
 16 17  1  0
 16 18  1  0
 18 19  1  0
 19 20  1  0
 20 21  2  0
 21 22  1  0
 22 23  2  0
 23 24  1  0
 24 25  2  0
 18 26  1  0
 26 27  1  0
 15 28  1  0
 28 29  1  0
 29 30  2  0
 29 31  1  0
 31 32  1  0
 32 33  1  0
 33 34  2  0
 34 35  1  0
 35 36  2  0
 36 37  1  0
 37 38  2  0
 31 39  1  0
 39 40  2  0
 40 41  1  0
 41 42  2  0
 42 43  1  0
 43 44  2  0
 13  8  1  0
 26 14  2  0
 44 28  1  0
 28 11  1  1
 38 33  1  0
 44 39  1  0
 25 20  1  0
  1 45  1  0
  1 46  1  0
  1 47  1  0
  3 48  1  0
  3 49  1  0
  3 50  1  0
  4 51  1  0
  4 52  1  0
  4 53  1  0
  9 54  1  0
  9 55  1  0
 10 56  1  0
 10 57  1  0
 12 58  1  6
 13 59  1  0
 13 60  1  0
 17 61  1  0
 19 62  1  0
 19 63  1  0
 21 64  1  0
 22 65  1  0
 23 66  1  0
 24 67  1  0
 25 68  1  0
 27 69  1  0
 32 70  1  0
 32 71  1  0
 34 72  1  0
 35 73  1  0
 36 74  1  0
 37 75  1  0
 38 76  1  0
 40 77  1  0
 41 78  1  0
 42 79  1  0
 43 80  1  0
M  END
$$$$
