
     RDKit          3D

 51 54  0  0  0  0  0  0  0  0999 V2000
   -3.6964   -4.2046    2.5460 C   0  0  0  0  0  0  0  0  0  0  0  0
   -2.3980   -4.3493    1.9898 O   0  0  0  0  0  0  0  0  0  0  0  0
   -1.8172   -3.2340    1.4511 C   0  0  0  0  0  0  0  0  0  0  0  0
   -2.3573   -1.9514    1.4826 C   0  0  0  0  0  0  0  0  0  0  0  0
   -1.6740   -0.8762    0.8805 C   0  0  0  0  0  0  0  0  0  0  0  0
   -2.2603    0.4720    0.9609 C   0  0  0  0  0  0  0  0  0  0  0  0
   -3.3067    0.6292    1.5919 O   0  0  0  0  0  0  0  0  0  0  0  0
   -1.5630    1.4939    0.3356 N   0  0  0  0  0  0  0  0  0  0  0  0
   -2.1450    2.8274    0.3752 C   0  0  0  0  0  0  0  0  0  0  0  0
   -2.8675    3.0922   -0.9007 C   0  0  0  0  0  0  0  0  0  0  0  0
   -2.5049    3.7020   -2.0855 C   0  0  0  0  0  0  0  0  0  0  0  0
   -3.6392    3.6447   -2.9284 C   0  0  0  0  0  0  0  0  0  0  0  0
   -4.6194    3.0054   -2.2064 C   0  0  0  0  0  0  0  0  0  0  0  0
   -4.1607    2.6668   -0.9751 O   0  0  0  0  0  0  0  0  0  0  0  0
   -0.3421    1.3466   -0.3013 C   0  0  0  0  0  0  0  0  0  0  0  0
    0.2702    2.3100   -0.7730 O   0  0  0  0  0  0  0  0  0  0  0  0
    0.1791    0.0606   -0.3873 N   0  0  0  0  0  0  0  0  0  0  0  0
    1.4646   -0.0754   -1.0778 C   0  0  0  0  0  0  0  0  0  0  0  0
    2.6263    0.0978   -0.0986 C   0  0  0  0  0  0  0  0  0  0  0  0
    2.6683   -0.4988    0.9790 O   0  0  0  0  0  0  0  0  0  0  0  0
    3.7847    0.9581   -0.4748 C   0  0  0  0  0  0  0  0  0  0  0  0
    5.0472    0.6189    0.0386 C   0  0  0  0  0  0  0  0  0  0  0  0
    6.1705    1.3868   -0.2758 C   0  0  0  0  0  0  0  0  0  0  0  0
    6.0387    2.5051   -1.0973 C   0  0  0  0  0  0  0  0  0  0  0  0
    4.7815    2.8537   -1.5921 C   0  0  0  0  0  0  0  0  0  0  0  0
    4.6033    4.3837   -2.6909 Br  0  0  0  0  0  0  0  0  0  0  0  0
    3.6521    2.0913   -1.2840 C   0  0  0  0  0  0  0  0  0  0  0  0
   -0.4563   -1.0560    0.2232 C   0  0  0  0  0  0  0  0  0  0  0  0
    0.0890   -2.3457    0.2076 C   0  0  0  0  0  0  0  0  0  0  0  0
   -0.5743   -3.4100    0.8316 C   0  0  0  0  0  0  0  0  0  0  0  0
    0.0180   -4.6485    0.7573 O   0  0  0  0  0  0  0  0  0  0  0  0
    0.7259   -4.9187    1.9698 C   0  0  0  0  0  0  0  0  0  0  0  0
   -4.0260   -5.1919    2.8829 H   0  0  0  0  0  0  0  0  0  0  0  0
   -3.6782   -3.5440    3.4177 H   0  0  0  0  0  0  0  0  0  0  0  0
   -4.4121   -3.8517    1.7974 H   0  0  0  0  0  0  0  0  0  0  0  0
   -3.3076   -1.7517    1.9705 H   0  0  0  0  0  0  0  0  0  0  0  0
   -1.3539    3.5738    0.5151 H   0  0  0  0  0  0  0  0  0  0  0  0
   -2.8322    2.9305    1.2218 H   0  0  0  0  0  0  0  0  0  0  0  0
   -1.5357    4.1273   -2.3087 H   0  0  0  0  0  0  0  0  0  0  0  0
   -3.7329    4.0209   -3.9373 H   0  0  0  0  0  0  0  0  0  0  0  0
   -5.6429    2.7284   -2.4135 H   0  0  0  0  0  0  0  0  0  0  0  0
    1.5128    0.6500   -1.8936 H   0  0  0  0  0  0  0  0  0  0  0  0
    1.5536   -1.0482   -1.5707 H   0  0  0  0  0  0  0  0  0  0  0  0
    5.1605   -0.2477    0.6890 H   0  0  0  0  0  0  0  0  0  0  0  0
    7.1451    1.1145    0.1230 H   0  0  0  0  0  0  0  0  0  0  0  0
    6.9157    3.1019   -1.3364 H   0  0  0  0  0  0  0  0  0  0  0  0
    2.6831    2.4146   -1.6556 H   0  0  0  0  0  0  0  0  0  0  0  0
    1.0448   -2.5690   -0.2548 H   0  0  0  0  0  0  0  0  0  0  0  0
    1.1412   -5.9308    1.8918 H   0  0  0  0  0  0  0  0  0  0  0  0
    1.5610   -4.2140    2.0939 H   0  0  0  0  0  0  0  0  0  0  0  0
    0.0662   -4.8907    2.8488 H   0  0  0  0  0  0  0  0  0  0  0  0
  1  2  1  0
  2  3  1  0
  3  4  2  0
  4  5  1  0
  5  6  1  0
  6  7  2  0
  6  8  1  0
  8  9  1  0
  9 10  1  0
 10 11  2  0
 11 12  1  0
 12 13  2  0
 13 14  1  0
  8 15  1  0
 15 16  2  0
 15 17  1  0
 17 18  1  0
 18 19  1  0
 19 20  2  0
 19 21  1  0
 21 22  2  0
 22 23  1  0
 23 24  2  0
 24 25  1  0
 25 26  1  0
 25 27  2  0
 17 28  1  0
 28 29  1  0
 29 30  2  0
 30 31  1  0
 31 32  1  0
 30  3  1  0
 28  5  2  0
 14 10  1  0
 27 21  1  0
  1 33  1  0
  1 34  1  0
  1 35  1  0
  4 36  1  0
  9 37  1  0
  9 38  1  0
 11 39  1  0
 12 40  1  0
 13 41  1  0
 18 42  1  0
 18 43  1  0
 22 44  1  0
 23 45  1  0
 24 46  1  0
 27 47  1  0
 29 48  1  0
 32 49  1  0
 32 50  1  0
 32 51  1  0
M  END
$$$$
