
     RDKit          3D

 92 94  0  0  0  0  0  0  0  0999 V2000
   -3.5957   -2.3722    4.0756 C   0  0  0  0  0  0  0  0  0  0  0  0
   -3.1624   -1.1155    3.3848 C   0  0  0  0  0  0  0  0  0  0  0  0
   -3.3690    0.0093    3.8121 O   0  0  0  0  0  0  0  0  0  0  0  0
   -2.5015   -1.4239    2.2407 O   0  0  0  0  0  0  0  0  0  0  0  0
   -2.0245   -0.3165    1.4222 C   0  0  1  0  0  0  0  0  0  0  0  0
   -0.6654   -0.7443    0.7654 C   0  0  2  0  0  0  0  0  0  0  0  0
   -0.8468   -2.0755    0.2148 O   0  0  0  0  0  0  0  0  0  0  0  0
   -0.3275   -2.3324   -1.0097 C   0  0  0  0  0  0  0  0  0  0  0  0
   -0.5720   -3.7610   -1.3937 C   0  0  0  0  0  0  0  0  0  0  0  0
    0.3076   -1.5404   -1.6957 O   0  0  0  0  0  0  0  0  0  0  0  0
    0.5456   -0.8168    1.6909 C   0  0  0  0  0  0  0  0  0  0  0  0
    0.3912   -1.7821    2.8539 C   0  0  0  0  0  0  0  0  0  0  0  0
    1.7418   -0.1932    1.5694 C   0  0  0  0  0  0  0  0  0  0  0  0
    2.4228    0.8155    0.6610 C   0  0  1  0  0  0  0  0  0  0  0  0
    3.6505    0.2407   -0.0795 C   0  0  1  0  0  0  0  0  0  0  0  0
    3.2924   -0.7945   -1.0071 O   0  0  0  0  0  0  0  0  0  0  0  0
    3.5211   -2.0646   -0.5862 C   0  0  0  0  0  0  0  0  0  0  0  0
    3.9046   -2.3890    0.5262 O   0  0  0  0  0  0  0  0  0  0  0  0
    3.2588   -3.0462   -1.6743 C   0  0  0  0  0  0  0  0  0  0  0  0
    2.9070   -2.6558   -2.9728 C   0  0  0  0  0  0  0  0  0  0  0  0
    2.6529   -3.6184   -3.9527 C   0  0  0  0  0  0  0  0  0  0  0  0
    2.7626   -4.9739   -3.6462 C   0  0  0  0  0  0  0  0  0  0  0  0
    3.1264   -5.3710   -2.3598 C   0  0  0  0  0  0  0  0  0  0  0  0
    3.3746   -4.4116   -1.3759 C   0  0  0  0  0  0  0  0  0  0  0  0
    4.1695    1.4690   -0.8427 C   0  0  1  0  0  0  0  0  0  0  0  0
    5.0693    1.1489   -2.0288 C   0  0  0  0  0  0  0  0  0  0  0  0
    2.9193    2.2717   -1.2433 C   0  0  0  0  0  0  0  0  0  0  0  0
    1.7322    1.7151   -0.4105 C   0  0  1  0  0  0  0  0  0  0  0  0
    0.9452    0.9843   -1.3415 O   0  0  0  0  0  0  0  0  0  0  0  0
    0.8750    2.8155    0.2939 C   0  0  1  0  0  0  0  0  0  0  0  0
    1.7698    3.7947    0.8890 O   0  0  0  0  0  0  0  0  0  0  0  0
    1.3197    4.4455    1.9951 C   0  0  0  0  0  0  0  0  0  0  0  0
    2.3699    5.3941    2.4855 C   0  0  0  0  0  0  0  0  0  0  0  0
    0.2273    4.2933    2.5156 O   0  0  0  0  0  0  0  0  0  0  0  0
   -0.2146    3.5356   -0.5566 C   0  0  1  0  0  0  0  0  0  0  0  0
    0.2857    4.0969   -1.8877 C   0  0  0  0  0  0  0  0  0  0  0  0
   -1.4319    2.6504   -0.7456 C   0  0  0  0  0  0  0  0  0  0  0  0
   -2.3343    2.4658    0.2317 C   0  0  0  0  0  0  0  0  0  0  0  0
   -3.5240    1.5160    0.2059 C   0  0  0  0  0  0  0  0  0  0  0  0
   -4.3391    1.7081   -1.0989 C   0  0  0  0  0  0  0  0  0  0  0  0
   -4.4664    1.9116    1.3664 C   0  0  0  0  0  0  0  0  0  0  0  0
   -3.0767    0.0069    0.3002 C   0  0  2  0  0  0  0  0  0  0  0  0
   -4.2720   -0.8025    0.4709 O   0  0  0  0  0  0  0  0  0  0  0  0
   -4.3663   -1.9360   -0.2724 C   0  0  0  0  0  0  0  0  0  0  0  0
   -5.6470   -2.6444    0.0461 C   0  0  0  0  0  0  0  0  0  0  0  0
   -3.5557   -2.3238   -1.1011 O   0  0  0  0  0  0  0  0  0  0  0  0
   -2.7189   -2.9476    4.3818 H   0  0  0  0  0  0  0  0  0  0  0  0
   -4.2295   -2.9644    3.4099 H   0  0  0  0  0  0  0  0  0  0  0  0
   -4.1726   -2.1131    4.9668 H   0  0  0  0  0  0  0  0  0  0  0  0
   -1.8281    0.5606    2.0496 H   0  0  0  0  0  0  0  0  0  0  0  0
   -0.4773   -0.0294   -0.0240 H   0  0  0  0  0  0  0  0  0  0  0  0
   -0.5428   -3.8527   -2.4828 H   0  0  0  0  0  0  0  0  0  0  0  0
   -1.5575   -4.0857   -1.0517 H   0  0  0  0  0  0  0  0  0  0  0  0
    0.1994   -4.3939   -0.9497 H   0  0  0  0  0  0  0  0  0  0  0  0
   -0.0020   -2.7487    2.5209 H   0  0  0  0  0  0  0  0  0  0  0  0
   -0.2817   -1.3633    3.6095 H   0  0  0  0  0  0  0  0  0  0  0  0
    1.3419   -1.9970    3.3580 H   0  0  0  0  0  0  0  0  0  0  0  0
    2.4637   -0.4695    2.3474 H   0  0  0  0  0  0  0  0  0  0  0  0
    2.8489    1.5260    1.3922 H   0  0  0  0  0  0  0  0  0  0  0  0
    4.4274   -0.0979    0.6174 H   0  0  0  0  0  0  0  0  0  0  0  0
    2.7991   -1.6050   -3.2313 H   0  0  0  0  0  0  0  0  0  0  0  0
    2.3617   -3.3065   -4.9532 H   0  0  0  0  0  0  0  0  0  0  0  0
    2.5630   -5.7213   -4.4109 H   0  0  0  0  0  0  0  0  0  0  0  0
    3.2136   -6.4278   -2.1213 H   0  0  0  0  0  0  0  0  0  0  0  0
    3.6510   -4.7336   -0.3735 H   0  0  0  0  0  0  0  0  0  0  0  0
    4.7441    2.0863   -0.1369 H   0  0  0  0  0  0  0  0  0  0  0  0
    5.4453    2.0712   -2.4833 H   0  0  0  0  0  0  0  0  0  0  0  0
    4.5359    0.5899   -2.8051 H   0  0  0  0  0  0  0  0  0  0  0  0
    5.9314    0.5542   -1.7103 H   0  0  0  0  0  0  0  0  0  0  0  0
    2.7261    2.1753   -2.3192 H   0  0  0  0  0  0  0  0  0  0  0  0
    3.1170    3.3320   -1.0527 H   0  0  0  0  0  0  0  0  0  0  0  0
    1.2684    0.0611   -1.4254 H   0  0  0  0  0  0  0  0  0  0  0  0
    0.3547    2.3096    1.1181 H   0  0  0  0  0  0  0  0  0  0  0  0
    2.0117    5.9000    3.3865 H   0  0  0  0  0  0  0  0  0  0  0  0
    2.5752    6.1473    1.7219 H   0  0  0  0  0  0  0  0  0  0  0  0
    3.2805    4.8424    2.7342 H   0  0  0  0  0  0  0  0  0  0  0  0
   -0.5476    4.4172    0.0088 H   0  0  0  0  0  0  0  0  0  0  0  0
    0.5591    3.3075   -2.5936 H   0  0  0  0  0  0  0  0  0  0  0  0
   -0.4953    4.6994   -2.3661 H   0  0  0  0  0  0  0  0  0  0  0  0
    1.1548    4.7449   -1.7368 H   0  0  0  0  0  0  0  0  0  0  0  0
   -1.5030    2.0965   -1.6792 H   0  0  0  0  0  0  0  0  0  0  0  0
   -2.1804    3.0137    1.1653 H   0  0  0  0  0  0  0  0  0  0  0  0
   -5.2693    1.1281   -1.0787 H   0  0  0  0  0  0  0  0  0  0  0  0
   -4.6128    2.7600   -1.2448 H   0  0  0  0  0  0  0  0  0  0  0  0
   -3.7754    1.3870   -1.9823 H   0  0  0  0  0  0  0  0  0  0  0  0
   -4.8456    2.9330    1.2332 H   0  0  0  0  0  0  0  0  0  0  0  0
   -3.9487    1.8908    2.3291 H   0  0  0  0  0  0  0  0  0  0  0  0
   -5.3368    1.2520    1.4369 H   0  0  0  0  0  0  0  0  0  0  0  0
   -2.6265   -0.2277   -0.6735 H   0  0  0  0  0  0  0  0  0  0  0  0
   -6.4881   -2.0912   -0.3785 H   0  0  0  0  0  0  0  0  0  0  0  0
   -5.7614   -2.7445    1.1291 H   0  0  0  0  0  0  0  0  0  0  0  0
   -5.6226   -3.6484   -0.3865 H   0  0  0  0  0  0  0  0  0  0  0  0
  1  2  1  0
  2  3  2  0
  2  4  1  0
  4  5  1  0
  5  6  1  0
  6  7  1  0
  7  8  1  0
  8  9  1  0
  8 10  2  0
  6 11  1  0
 11 12  1  0
 11 13  2  0
 13 14  1  0
 14 15  1  0
 15 16  1  0
 16 17  1  0
 17 18  2  0
 17 19  1  0
 19 20  2  0
 20 21  1  0
 21 22  2  0
 22 23  1  0
 23 24  2  0
 15 25  1  0
 25 26  1  0
 25 27  1  0
 27 28  1  0
 28 29  1  6
 28 30  1  0
 30 31  1  0
 31 32  1  0
 32 33  1  0
 32 34  2  0
 30 35  1  0
 35 36  1  0
 35 37  1  0
 37 38  2  0
 38 39  1  0
 39 40  1  0
 39 41  1  0
 39 42  1  0
 42 43  1  0
 43 44  1  0
 44 45  1  0
 44 46  2  0
 42  5  1  0
 28 14  1  0
 24 19  1  0
  1 47  1  0
  1 48  1  0
  1 49  1  0
  5 50  1  1
  6 51  1  6
  9 52  1  0
  9 53  1  0
  9 54  1  0
 12 55  1  0
 12 56  1  0
 12 57  1  0
 13 58  1  0
 14 59  1  1
 15 60  1  1
 20 61  1  0
 21 62  1  0
 22 63  1  0
 23 64  1  0
 24 65  1  0
 25 66  1  1
 26 67  1  0
 26 68  1  0
 26 69  1  0
 27 70  1  0
 27 71  1  0
 29 72  1  0
 30 73  1  1
 33 74  1  0
 33 75  1  0
 33 76  1  0
 35 77  1  1
 36 78  1  0
 36 79  1  0
 36 80  1  0
 37 81  1  0
 38 82  1  0
 40 83  1  0
 40 84  1  0
 40 85  1  0
 41 86  1  0
 41 87  1  0
 41 88  1  0
 42 89  1  6
 45 90  1  0
 45 91  1  0
 45 92  1  0
M  END
$$$$
