
     RDKit          3D

 65 66  0  0  0  0  0  0  0  0999 V2000
    2.1887    5.2490    0.6136 C   0  0  0  0  0  0  0  0  0  0  0  0
    1.3760    4.4230    1.4409 O   0  0  0  0  0  0  0  0  0  0  0  0
    0.6343    3.4635    0.8088 C   0  0  0  0  0  0  0  0  0  0  0  0
    0.6701    3.1650   -0.5488 C   0  0  0  0  0  0  0  0  0  0  0  0
   -0.1444    2.1524   -1.0670 C   0  0  0  0  0  0  0  0  0  0  0  0
   -0.9977    1.3987   -0.2394 C   0  0  0  0  0  0  0  0  0  0  0  0
   -1.8747    0.3077   -0.8621 C   0  0  0  0  0  0  0  0  0  0  0  0
   -2.7268   -0.5174    0.1431 C   0  0  0  0  0  0  0  0  0  0  0  0
   -3.8672   -0.1691    0.4436 O   0  0  0  0  0  0  0  0  0  0  0  0
   -2.0948   -1.6017    0.7162 N   0  0  0  0  0  0  0  0  0  0  0  0
   -2.6504   -2.4468    1.7807 C   0  0  0  0  0  0  0  0  0  0  0  0
   -1.6377   -3.5703    2.0655 C   0  0  0  0  0  0  0  0  0  0  0  0
   -2.8561   -1.6347    3.0681 C   0  0  0  0  0  0  0  0  0  0  0  0
   -3.9742   -3.0940    1.3446 C   0  0  0  0  0  0  0  0  0  0  0  0
   -1.1325   -0.5261   -1.8494 N   0  0  0  0  0  0  0  0  0  0  0  0
   -1.8380   -0.8466   -3.0956 C   0  0  0  0  0  0  0  0  0  0  0  0
   -2.7702   -2.0554   -2.9590 C   0  0  0  0  0  0  0  0  0  0  0  0
   -3.3367   -2.3841   -4.2227 O   0  0  0  0  0  0  0  0  0  0  0  0
    0.0381   -1.1706   -1.4727 C   0  0  0  0  0  0  0  0  0  0  0  0
    0.3871   -1.2519   -0.2910 O   0  0  0  0  0  0  0  0  0  0  0  0
    0.8980   -1.7571   -2.5801 C   0  0  0  0  0  0  0  0  0  0  0  0
    2.2666   -2.2034   -2.0752 C   0  0  0  0  0  0  0  0  0  0  0  0
    3.1647   -1.0107   -1.7842 C   0  0  0  0  0  0  0  0  0  0  0  0
    3.9511   -0.6118   -2.6359 O   0  0  0  0  0  0  0  0  0  0  0  0
    2.9521   -0.4822   -0.5317 N   0  0  0  0  0  0  0  0  0  0  0  0
    3.6591    0.5596    0.0307 C   0  0  0  0  0  0  0  0  0  0  0  0
    3.3788    1.0731    1.3193 C   0  0  0  0  0  0  0  0  0  0  0  0
    4.3129    2.0569    1.5149 C   0  0  0  0  0  0  0  0  0  0  0  0
    4.6180    2.9809    2.6194 C   0  0  0  0  0  0  0  0  0  0  0  0
    5.0952    2.1485    0.4085 O   0  0  0  0  0  0  0  0  0  0  0  0
    4.6893    1.2085   -0.5194 N   0  0  0  0  0  0  0  0  0  0  0  0
   -1.0326    1.7195    1.1231 C   0  0  0  0  0  0  0  0  0  0  0  0
   -0.2205    2.7370    1.6378 C   0  0  0  0  0  0  0  0  0  0  0  0
    2.6915    5.9757    1.2590 H   0  0  0  0  0  0  0  0  0  0  0  0
    1.5808    5.8076   -0.1056 H   0  0  0  0  0  0  0  0  0  0  0  0
    2.9624    4.6636    0.1081 H   0  0  0  0  0  0  0  0  0  0  0  0
    1.3222    3.6942   -1.2353 H   0  0  0  0  0  0  0  0  0  0  0  0
   -0.0979    1.9509   -2.1351 H   0  0  0  0  0  0  0  0  0  0  0  0
   -2.6207    0.8682   -1.4448 H   0  0  0  0  0  0  0  0  0  0  0  0
   -1.0781   -1.5981    0.6211 H   0  0  0  0  0  0  0  0  0  0  0  0
   -1.4502   -4.1701    1.1678 H   0  0  0  0  0  0  0  0  0  0  0  0
   -1.9966   -4.2424    2.8523 H   0  0  0  0  0  0  0  0  0  0  0  0
   -0.6734   -3.1601    2.3891 H   0  0  0  0  0  0  0  0  0  0  0  0
   -1.9273   -1.1415    3.3737 H   0  0  0  0  0  0  0  0  0  0  0  0
   -3.1848   -2.2761    3.8928 H   0  0  0  0  0  0  0  0  0  0  0  0
   -3.6118   -0.8545    2.9395 H   0  0  0  0  0  0  0  0  0  0  0  0
   -4.3333   -3.8030    2.0972 H   0  0  0  0  0  0  0  0  0  0  0  0
   -4.7660   -2.3528    1.1974 H   0  0  0  0  0  0  0  0  0  0  0  0
   -3.8568   -3.6356    0.3977 H   0  0  0  0  0  0  0  0  0  0  0  0
   -2.3995    0.0335   -3.4316 H   0  0  0  0  0  0  0  0  0  0  0  0
   -1.1207   -1.0442   -3.8976 H   0  0  0  0  0  0  0  0  0  0  0  0
   -3.5817   -1.8615   -2.2482 H   0  0  0  0  0  0  0  0  0  0  0  0
   -2.2135   -2.9303   -2.6021 H   0  0  0  0  0  0  0  0  0  0  0  0
   -4.0384   -1.7368   -4.4147 H   0  0  0  0  0  0  0  0  0  0  0  0
    1.0276   -1.0056   -3.3658 H   0  0  0  0  0  0  0  0  0  0  0  0
    0.3739   -2.6255   -2.9925 H   0  0  0  0  0  0  0  0  0  0  0  0
    2.7630   -2.8073   -2.8451 H   0  0  0  0  0  0  0  0  0  0  0  0
    2.1903   -2.8372   -1.1826 H   0  0  0  0  0  0  0  0  0  0  0  0
    2.1647   -0.8276    0.0096 H   0  0  0  0  0  0  0  0  0  0  0  0
    2.6086    0.7662    2.0092 H   0  0  0  0  0  0  0  0  0  0  0  0
    4.0470    2.7195    3.5154 H   0  0  0  0  0  0  0  0  0  0  0  0
    4.3674    4.0089    2.3435 H   0  0  0  0  0  0  0  0  0  0  0  0
    5.6829    2.9434    2.8728 H   0  0  0  0  0  0  0  0  0  0  0  0
   -1.6931    1.1980    1.8114 H   0  0  0  0  0  0  0  0  0  0  0  0
   -0.2633    2.9712    2.6986 H   0  0  0  0  0  0  0  0  0  0  0  0
  1  2  1  0
  2  3  1  0
  3  4  2  0
  4  5  1  0
  5  6  2  0
  6  7  1  0
  7  8  1  0
  8  9  2  0
  8 10  1  0
 10 11  1  0
 11 12  1  0
 11 13  1  0
 11 14  1  0
  7 15  1  0
 15 16  1  0
 16 17  1  0
 17 18  1  0
 15 19  1  0
 19 20  2  0
 19 21  1  0
 21 22  1  0
 22 23  1  0
 23 24  2  0
 23 25  1  0
 25 26  1  0
 26 27  1  0
 27 28  2  0
 28 29  1  0
 28 30  1  0
 30 31  1  0
  6 32  1  0
 32 33  2  0
 33  3  1  0
 31 26  2  0
  1 34  1  0
  1 35  1  0
  1 36  1  0
  4 37  1  0
  5 38  1  0
  7 39  1  0
 10 40  1  0
 12 41  1  0
 12 42  1  0
 12 43  1  0
 13 44  1  0
 13 45  1  0
 13 46  1  0
 14 47  1  0
 14 48  1  0
 14 49  1  0
 16 50  1  0
 16 51  1  0
 17 52  1  0
 17 53  1  0
 18 54  1  0
 21 55  1  0
 21 56  1  0
 22 57  1  0
 22 58  1  0
 25 59  1  0
 27 60  1  0
 29 61  1  0
 29 62  1  0
 29 63  1  0
 32 64  1  0
 33 65  1  0
M  END
$$$$
