
     RDKit          3D

 44 46  0  0  0  0  0  0  0  0999 V2000
   -3.2028   -3.2140   -0.0186 C   0  0  0  0  0  0  0  0  0  0  0  0
   -2.4949   -2.0998    0.7043 C   0  0  0  0  0  0  0  0  0  0  0  0
   -1.3119   -2.3819    1.4093 C   0  0  0  0  0  0  0  0  0  0  0  0
   -0.5974   -1.3880    2.1039 C   0  0  0  0  0  0  0  0  0  0  0  0
    0.6446   -1.8013    2.8400 C   0  0  0  0  0  0  0  0  0  0  0  0
   -1.0971   -0.0770    2.0714 C   0  0  0  0  0  0  0  0  0  0  0  0
   -0.2981    1.3162    2.8655 S   0  0  0  0  0  6  0  0  0  0  0  0
   -1.3489    2.1781    3.3689 O   0  0  0  0  0  0  0  0  0  0  0  0
    0.7592    0.8595    3.7398 O   0  0  0  0  0  0  0  0  0  0  0  0
    0.3905    2.1453    1.5572 N   0  0  0  0  0  0  0  0  0  0  0  0
    1.3060    1.4526    0.7175 C   0  0  0  0  0  0  0  0  0  0  0  0
    2.5904    1.1640    1.1748 C   0  0  0  0  0  0  0  0  0  0  0  0
    3.4743    0.4480    0.3670 C   0  0  0  0  0  0  0  0  0  0  0  0
    3.0626    0.0170   -0.8950 C   0  0  0  0  0  0  0  0  0  0  0  0
    3.9310   -0.6930   -1.6793 O   0  0  0  0  0  0  0  0  0  0  0  0
    1.7709    0.2989   -1.3627 C   0  0  0  0  0  0  0  0  0  0  0  0
    1.1987   -0.2607   -2.9591 S   0  0  0  0  0  0  0  0  0  0  0  0
    1.5446    1.1228   -3.9651 C   0  0  0  0  0  0  0  0  0  0  0  0
    1.8110    2.3813   -3.4855 N   0  0  0  0  0  0  0  0  0  0  0  0
    1.9893    3.0857   -4.5772 C   0  0  0  0  0  0  0  0  0  0  0  0
    1.8195    2.2878   -5.6623 N   0  0  0  0  0  0  0  0  0  0  0  0
    1.5163    1.0333   -5.3006 N   0  0  0  0  0  0  0  0  0  0  0  0
    0.8924    1.0187   -0.5421 C   0  0  0  0  0  0  0  0  0  0  0  0
   -2.2959    0.2090    1.3909 C   0  0  0  0  0  0  0  0  0  0  0  0
   -3.0001   -0.7896    0.7044 C   0  0  0  0  0  0  0  0  0  0  0  0
   -4.2702   -0.4354   -0.0193 C   0  0  0  0  0  0  0  0  0  0  0  0
   -2.6360   -4.1499    0.0297 H   0  0  0  0  0  0  0  0  0  0  0  0
   -4.1832   -3.3952    0.4331 H   0  0  0  0  0  0  0  0  0  0  0  0
   -3.3282   -2.9637   -1.0768 H   0  0  0  0  0  0  0  0  0  0  0  0
   -0.9375   -3.4059    1.4157 H   0  0  0  0  0  0  0  0  0  0  0  0
    0.8675   -2.8631    2.6857 H   0  0  0  0  0  0  0  0  0  0  0  0
    0.5157   -1.6592    3.9172 H   0  0  0  0  0  0  0  0  0  0  0  0
    1.5151   -1.2473    2.4818 H   0  0  0  0  0  0  0  0  0  0  0  0
   -0.2864    2.7576    1.1047 H   0  0  0  0  0  0  0  0  0  0  0  0
    2.9083    1.4946    2.1611 H   0  0  0  0  0  0  0  0  0  0  0  0
    4.4709    0.2327    0.7400 H   0  0  0  0  0  0  0  0  0  0  0  0
    4.7842   -0.7716   -1.2238 H   0  0  0  0  0  0  0  0  0  0  0  0
    2.2325    4.1365   -4.6405 H   0  0  0  0  0  0  0  0  0  0  0  0
    1.8864    2.5191   -6.6469 H   0  0  0  0  0  0  0  0  0  0  0  0
   -0.1133    1.2342   -0.8920 H   0  0  0  0  0  0  0  0  0  0  0  0
   -2.6875    1.2257    1.3965 H   0  0  0  0  0  0  0  0  0  0  0  0
   -4.5402    0.6150    0.1324 H   0  0  0  0  0  0  0  0  0  0  0  0
   -4.1499   -0.5944   -1.0955 H   0  0  0  0  0  0  0  0  0  0  0  0
   -5.1024   -1.0431    0.3499 H   0  0  0  0  0  0  0  0  0  0  0  0
  1  2  1  0
  2  3  2  0
  3  4  1  0
  4  5  1  0
  4  6  2  0
  6  7  1  0
  7  8  2  0
  7  9  2  0
  7 10  1  0
 10 11  1  0
 11 12  2  0
 12 13  1  0
 13 14  2  0
 14 15  1  0
 14 16  1  0
 16 17  1  0
 17 18  1  0
 18 19  1  0
 19 20  2  0
 20 21  1  0
 21 22  1  0
 16 23  2  0
  6 24  1  0
 24 25  2  0
 25 26  1  0
 25  2  1  0
 23 11  1  0
 22 18  2  0
  1 27  1  0
  1 28  1  0
  1 29  1  0
  3 30  1  0
  5 31  1  0
  5 32  1  0
  5 33  1  0
 10 34  1  0
 12 35  1  0
 13 36  1  0
 15 37  1  0
 20 38  1  0
 21 39  1  0
 23 40  1  0
 24 41  1  0
 26 42  1  0
 26 43  1  0
 26 44  1  0
M  END
$$$$
