
     RDKit          3D

 51 55  0  0  0  0  0  0  0  0999 V2000
    8.4090   -1.6077    0.0703 F   0  0  0  0  0  0  0  0  0  0  0  0
    7.2682   -1.0967    0.5522 C   0  0  0  0  0  0  0  0  0  0  0  0
    7.2793    0.1566    1.1514 C   0  0  0  0  0  0  0  0  0  0  0  0
    6.0913    0.6908    1.6529 C   0  0  0  0  0  0  0  0  0  0  0  0
    4.8914   -0.0321    1.5579 C   0  0  0  0  0  0  0  0  0  0  0  0
    3.6041    0.5516    2.0954 C   0  0  0  0  0  0  0  0  0  0  0  0
    2.7343    1.2285    1.0172 C   0  0  0  0  0  0  0  0  0  0  0  0
    2.0347    0.2999    0.1079 N   0  0  0  0  0  0  0  0  0  0  0  0
    1.0209   -0.5111    0.8211 C   0  0  0  0  0  0  0  0  0  0  0  0
   -0.0988   -1.0654   -0.0888 C   0  0  0  0  0  0  0  0  0  0  0  0
   -0.8365    0.0164   -0.7564 N   0  0  0  0  0  0  0  0  0  0  0  0
   -2.2266    0.0364   -0.8047 C   0  0  0  0  0  0  0  0  0  0  0  0
   -2.8295    1.1910   -0.6527 N   0  0  0  0  0  0  0  0  0  0  0  0
   -4.2343    1.2788   -0.6496 C   0  0  0  0  0  0  0  0  0  0  0  0
   -4.8197    2.5332   -0.4666 C   0  0  0  0  0  0  0  0  0  0  0  0
   -6.2097    2.6758   -0.4425 C   0  0  0  0  0  0  0  0  0  0  0  0
   -7.0304    1.5588   -0.6015 C   0  0  0  0  0  0  0  0  0  0  0  0
   -6.4669    0.2957   -0.7863 C   0  0  0  0  0  0  0  0  0  0  0  0
   -5.0745    0.1691   -0.8075 C   0  0  0  0  0  0  0  0  0  0  0  0
   -4.4243   -1.0598   -1.0032 N   0  0  0  0  0  0  0  0  0  0  0  0
   -4.9636   -2.3068   -1.2142 C   0  0  0  0  0  0  0  0  0  0  0  0
   -3.9307   -3.1908   -1.4341 C   0  0  0  0  0  0  0  0  0  0  0  0
   -2.7256   -2.4574   -1.3363 C   0  0  0  0  0  0  0  0  0  0  0  0
   -3.0481   -1.1469   -1.0264 C   0  0  0  0  0  0  0  0  0  0  0  0
   -0.0930    1.2799   -0.9002 C   0  0  0  0  0  0  0  0  0  0  0  0
    1.4211    1.0201   -1.0331 C   0  0  0  0  0  0  0  0  0  0  0  0
    4.9029   -1.2942    0.9453 C   0  0  0  0  0  0  0  0  0  0  0  0
    6.0914   -1.8263    0.4434 C   0  0  0  0  0  0  0  0  0  0  0  0
    8.2102    0.7094    1.2225 H   0  0  0  0  0  0  0  0  0  0  0  0
    6.1078    1.6741    2.1175 H   0  0  0  0  0  0  0  0  0  0  0  0
    3.0485   -0.2210    2.6396 H   0  0  0  0  0  0  0  0  0  0  0  0
    3.8538    1.3057    2.8539 H   0  0  0  0  0  0  0  0  0  0  0  0
    2.0014    1.8792    1.5124 H   0  0  0  0  0  0  0  0  0  0  0  0
    3.3884    1.8869    0.4301 H   0  0  0  0  0  0  0  0  0  0  0  0
    1.5188   -1.3573    1.3072 H   0  0  0  0  0  0  0  0  0  0  0  0
    0.5428    0.0832    1.6120 H   0  0  0  0  0  0  0  0  0  0  0  0
   -0.7667   -1.6647    0.5402 H   0  0  0  0  0  0  0  0  0  0  0  0
    0.3337   -1.7275   -0.8479 H   0  0  0  0  0  0  0  0  0  0  0  0
   -4.1827    3.4045   -0.3407 H   0  0  0  0  0  0  0  0  0  0  0  0
   -6.6494    3.6595   -0.2994 H   0  0  0  0  0  0  0  0  0  0  0  0
   -8.1115    1.6743   -0.5830 H   0  0  0  0  0  0  0  0  0  0  0  0
   -7.1255   -0.5571   -0.9112 H   0  0  0  0  0  0  0  0  0  0  0  0
   -6.0307   -2.4740   -1.2147 H   0  0  0  0  0  0  0  0  0  0  0  0
   -4.0361   -4.2454   -1.6542 H   0  0  0  0  0  0  0  0  0  0  0  0
   -1.7294   -2.8509   -1.4824 H   0  0  0  0  0  0  0  0  0  0  0  0
   -0.2832    1.9294   -0.0367 H   0  0  0  0  0  0  0  0  0  0  0  0
   -0.4354    1.8051   -1.7998 H   0  0  0  0  0  0  0  0  0  0  0  0
    1.5841    0.3987   -1.9238 H   0  0  0  0  0  0  0  0  0  0  0  0
    1.9384    1.9653   -1.2381 H   0  0  0  0  0  0  0  0  0  0  0  0
    3.9822   -1.8642    0.8471 H   0  0  0  0  0  0  0  0  0  0  0  0
    6.1042   -2.8004   -0.0341 H   0  0  0  0  0  0  0  0  0  0  0  0
  1  2  1  0
  2  3  2  0
  3  4  1  0
  4  5  2  0
  5  6  1  0
  6  7  1  0
  7  8  1  0
  8  9  1  0
  9 10  1  0
 10 11  1  0
 11 12  1  0
 12 13  2  0
 13 14  1  0
 14 15  2  0
 15 16  1  0
 16 17  2  0
 17 18  1  0
 18 19  2  0
 19 20  1  0
 20 21  1  0
 21 22  2  0
 22 23  1  0
 23 24  2  0
 11 25  1  0
 25 26  1  0
  5 27  1  0
 27 28  2  0
 28  2  1  0
 26  8  1  0
 24 12  1  0
 19 14  1  0
 24 20  1  0
  3 29  1  0
  4 30  1  0
  6 31  1  0
  6 32  1  0
  7 33  1  0
  7 34  1  0
  9 35  1  0
  9 36  1  0
 10 37  1  0
 10 38  1  0
 15 39  1  0
 16 40  1  0
 17 41  1  0
 18 42  1  0
 21 43  1  0
 22 44  1  0
 23 45  1  0
 25 46  1  0
 25 47  1  0
 26 48  1  0
 26 49  1  0
 27 50  1  0
 28 51  1  0
M  END
$$$$
