
     RDKit          3D

 37 39  0  0  0  0  0  0  0  0999 V2000
    7.2813    1.5009   -0.6694 C   0  0  0  0  0  0  0  0  0  0  0  0
    6.1192    0.9880    0.1662 C   0  0  0  0  0  0  0  0  0  0  0  0
    5.2368    0.0284   -0.6322 C   0  0  0  0  0  0  0  0  0  0  0  0
    4.1102   -0.4929    0.1983 C   0  0  0  0  0  0  0  0  0  0  0  0
    4.1856   -1.5398    0.9942 N   0  0  0  0  0  0  0  0  0  0  0  0
    2.9893   -1.7842    1.6378 N   0  0  0  0  0  0  0  0  0  0  0  0
    2.0595   -0.9168    1.3045 C   0  0  0  0  0  0  0  0  0  0  0  0
    0.7928   -0.9802    1.8291 N   0  0  0  0  0  0  0  0  0  0  0  0
   -0.2593   -0.1252    1.5635 C   0  0  0  0  0  0  0  0  0  0  0  0
   -0.2380    0.8415    0.8106 O   0  0  0  0  0  0  0  0  0  0  0  0
   -1.5242   -0.5365    2.3371 C   0  0  0  0  0  0  0  0  0  0  0  0
   -2.6657    0.2831    2.1584 O   0  0  0  0  0  0  0  0  0  0  0  0
   -3.4862    0.0201    1.0956 C   0  0  0  0  0  0  0  0  0  0  0  0
   -3.1545   -0.7638   -0.0253 C   0  0  0  0  0  0  0  0  0  0  0  0
   -4.0799   -0.9598   -1.0590 C   0  0  0  0  0  0  0  0  0  0  0  0
   -5.3127   -0.3573   -0.9434 C   0  0  0  0  0  0  0  0  0  0  0  0
   -5.6361    0.4181    0.1430 C   0  0  0  0  0  0  0  0  0  0  0  0
   -4.7450    0.6282    1.1734 C   0  0  0  0  0  0  0  0  0  0  0  0
   -6.8956    0.9245    0.0625 O   0  0  0  0  0  0  0  0  0  0  0  0
   -7.3225    0.3882   -1.2069 C   0  0  0  0  0  0  0  0  0  0  0  0
   -6.3261   -0.4371   -1.8458 O   0  0  0  0  0  0  0  0  0  0  0  0
    2.5657    0.2579    0.1819 S   0  0  0  0  0  0  0  0  0  0  0  0
    7.9157    0.6754   -1.0077 H   0  0  0  0  0  0  0  0  0  0  0  0
    6.9219    2.0422   -1.5504 H   0  0  0  0  0  0  0  0  0  0  0  0
    7.8996    2.1847   -0.0795 H   0  0  0  0  0  0  0  0  0  0  0  0
    5.5272    1.8410    0.5196 H   0  0  0  0  0  0  0  0  0  0  0  0
    6.5122    0.4845    1.0581 H   0  0  0  0  0  0  0  0  0  0  0  0
    4.8539    0.5280   -1.5305 H   0  0  0  0  0  0  0  0  0  0  0  0
    5.8373   -0.8213   -0.9802 H   0  0  0  0  0  0  0  0  0  0  0  0
    0.6757   -1.7423    2.4833 H   0  0  0  0  0  0  0  0  0  0  0  0
   -1.7551   -1.5921    2.1443 H   0  0  0  0  0  0  0  0  0  0  0  0
   -1.2685   -0.4689    3.4019 H   0  0  0  0  0  0  0  0  0  0  0  0
   -2.1750   -1.2162   -0.1366 H   0  0  0  0  0  0  0  0  0  0  0  0
   -3.8314   -1.5569   -1.9292 H   0  0  0  0  0  0  0  0  0  0  0  0
   -5.0145    1.2478    2.0213 H   0  0  0  0  0  0  0  0  0  0  0  0
   -7.5687    1.2216   -1.8750 H   0  0  0  0  0  0  0  0  0  0  0  0
   -8.2250   -0.2129   -1.0474 H   0  0  0  0  0  0  0  0  0  0  0  0
  1  2  1  0
  2  3  1  0
  3  4  1  0
  4  5  2  0
  5  6  1  0
  6  7  2  0
  7  8  1  0
  8  9  1  0
  9 10  2  0
  9 11  1  0
 11 12  1  0
 12 13  1  0
 13 14  2  0
 14 15  1  0
 15 16  2  0
 16 17  1  0
 17 18  2  0
 17 19  1  0
 19 20  1  0
 20 21  1  0
  7 22  1  0
 22  4  1  0
 18 13  1  0
 21 16  1  0
  1 23  1  0
  1 24  1  0
  1 25  1  0
  2 26  1  0
  2 27  1  0
  3 28  1  0
  3 29  1  0
  8 30  1  0
 11 31  1  0
 11 32  1  0
 14 33  1  0
 15 34  1  0
 18 35  1  0
 20 36  1  0
 20 37  1  0
M  END
$$$$
