
     RDKit          3D

 54 57  0  0  0  0  0  0  0  0999 V2000
    7.5018    1.3838    1.8255 C   0  0  0  0  0  0  0  0  0  0  0  0
    6.6132    0.1806    2.1512 C   0  0  0  0  0  0  0  0  0  0  0  0
    5.9813    0.3288    3.5375 C   0  0  0  0  0  0  0  0  0  0  0  0
    5.5603   -0.0430    1.0810 C   0  0  0  0  0  0  0  0  0  0  0  0
    5.5464   -1.2413    0.3547 C   0  0  0  0  0  0  0  0  0  0  0  0
    4.5849   -1.4734   -0.6369 C   0  0  0  0  0  0  0  0  0  0  0  0
    3.6171   -0.5122   -0.9215 C   0  0  0  0  0  0  0  0  0  0  0  0
    2.6175   -0.6626   -1.9016 N   0  0  0  0  0  0  0  0  0  0  0  0
    2.3611   -1.7673   -2.6944 C   0  0  0  0  0  0  0  0  0  0  0  0
    2.9646   -2.8366   -2.6783 O   0  0  0  0  0  0  0  0  0  0  0  0
    1.1962   -1.5440   -3.6670 C   0  0  0  0  0  0  0  0  0  0  0  0
   -0.0930   -1.6030   -3.0523 O   0  0  0  0  0  0  0  0  0  0  0  0
   -0.4804   -0.4791   -2.4067 C   0  0  0  0  0  0  0  0  0  0  0  0
    0.1879    0.5380   -2.2960 O   0  0  0  0  0  0  0  0  0  0  0  0
   -1.8408   -0.6377   -1.8270 C   0  0  0  0  0  0  0  0  0  0  0  0
   -2.5591   -1.8359   -1.9087 C   0  0  0  0  0  0  0  0  0  0  0  0
   -3.8374   -1.9314   -1.3431 C   0  0  0  0  0  0  0  0  0  0  0  0
   -4.4220   -0.8360   -0.6863 C   0  0  0  0  0  0  0  0  0  0  0  0
   -3.6979    0.3447   -0.6129 C   0  0  0  0  0  0  0  0  0  0  0  0
   -2.4158    0.4571   -1.1732 C   0  0  0  0  0  0  0  0  0  0  0  0
   -4.3681    1.7480    0.1867 S   0  0  0  0  0  6  0  0  0  0  0  0
   -4.5852    2.7366   -0.8500 O   0  0  0  0  0  0  0  0  0  0  0  0
   -3.5138    2.0084    1.3276 O   0  0  0  0  0  0  0  0  0  0  0  0
   -5.9424    1.3395    0.8248 C   0  0  0  0  0  0  0  0  0  0  0  0
   -6.6423    2.3258    1.5338 C   0  0  0  0  0  0  0  0  0  0  0  0
   -7.9012    2.0380    2.0553 C   0  0  0  0  0  0  0  0  0  0  0  0
   -8.4537    0.7734    1.8679 C   0  0  0  0  0  0  0  0  0  0  0  0
   -7.7462   -0.2025    1.1596 C   0  0  0  0  0  0  0  0  0  0  0  0
   -6.4754    0.0730    0.6287 C   0  0  0  0  0  0  0  0  0  0  0  0
   -5.7772   -1.0048   -0.1106 C   0  0  0  0  0  0  0  0  0  0  0  0
   -6.3419   -2.0863   -0.2528 O   0  0  0  0  0  0  0  0  0  0  0  0
    3.6265    0.6870   -0.2010 C   0  0  0  0  0  0  0  0  0  0  0  0
    4.5858    0.9197    0.7900 C   0  0  0  0  0  0  0  0  0  0  0  0
    8.3070    1.4779    2.5621 H   0  0  0  0  0  0  0  0  0  0  0  0
    6.9380    2.3230    1.8282 H   0  0  0  0  0  0  0  0  0  0  0  0
    7.9626    1.2738    0.8373 H   0  0  0  0  0  0  0  0  0  0  0  0
    7.2670   -0.7010    2.1874 H   0  0  0  0  0  0  0  0  0  0  0  0
    5.3583   -0.5398    3.7785 H   0  0  0  0  0  0  0  0  0  0  0  0
    5.3502    1.2214    3.6070 H   0  0  0  0  0  0  0  0  0  0  0  0
    6.7563    0.4090    4.3074 H   0  0  0  0  0  0  0  0  0  0  0  0
    6.2870   -2.0139    0.5510 H   0  0  0  0  0  0  0  0  0  0  0  0
    4.6251   -2.4183   -1.1692 H   0  0  0  0  0  0  0  0  0  0  0  0
    1.9687    0.1199   -1.9992 H   0  0  0  0  0  0  0  0  0  0  0  0
    1.3353   -0.6010   -4.2106 H   0  0  0  0  0  0  0  0  0  0  0  0
    1.2317   -2.3393   -4.4200 H   0  0  0  0  0  0  0  0  0  0  0  0
   -2.1413   -2.7098   -2.4057 H   0  0  0  0  0  0  0  0  0  0  0  0
   -4.3750   -2.8773   -1.4200 H   0  0  0  0  0  0  0  0  0  0  0  0
   -1.8716    1.3991   -1.0981 H   0  0  0  0  0  0  0  0  0  0  0  0
   -6.2100    3.3147    1.6795 H   0  0  0  0  0  0  0  0  0  0  0  0
   -8.4515    2.7976    2.6064 H   0  0  0  0  0  0  0  0  0  0  0  0
   -9.4370    0.5429    2.2728 H   0  0  0  0  0  0  0  0  0  0  0  0
   -8.1984   -1.1852    1.0259 H   0  0  0  0  0  0  0  0  0  0  0  0
    2.8855    1.4583   -0.3976 H   0  0  0  0  0  0  0  0  0  0  0  0
    4.5613    1.8624    1.3317 H   0  0  0  0  0  0  0  0  0  0  0  0
  1  2  1  0
  2  3  1  0
  2  4  1  0
  4  5  2  0
  5  6  1  0
  6  7  2  0
  7  8  1  0
  8  9  1  0
  9 10  2  0
  9 11  1  0
 11 12  1  0
 12 13  1  0
 13 14  2  0
 13 15  1  0
 15 16  2  0
 16 17  1  0
 17 18  2  0
 18 19  1  0
 19 20  2  0
 19 21  1  0
 21 22  2  0
 21 23  2  0
 21 24  1  0
 24 25  2  0
 25 26  1  0
 26 27  2  0
 27 28  1  0
 28 29  2  0
 29 30  1  0
 30 31  2  0
  7 32  1  0
 32 33  2  0
 33  4  1  0
 20 15  1  0
 29 24  1  0
 30 18  1  0
  1 34  1  0
  1 35  1  0
  1 36  1  0
  2 37  1  0
  3 38  1  0
  3 39  1  0
  3 40  1  0
  5 41  1  0
  6 42  1  0
  8 43  1  0
 11 44  1  0
 11 45  1  0
 16 46  1  0
 17 47  1  0
 20 48  1  0
 25 49  1  0
 26 50  1  0
 27 51  1  0
 28 52  1  0
 32 53  1  0
 33 54  1  0
M  END
$$$$
