
     RDKit          3D

 39 41  0  0  0  0  0  0  0  0999 V2000
   -4.7776    1.1530   -2.3594 C   0  0  0  0  0  0  0  0  0  0  0  0
   -4.2272    0.9843   -0.9730 C   0  0  0  0  0  0  0  0  0  0  0  0
   -5.0566    1.1609    0.1381 C   0  0  0  0  0  0  0  0  0  0  0  0
   -4.5791    0.9819    1.4402 C   0  0  0  0  0  0  0  0  0  0  0  0
   -3.2407    0.6061    1.5957 C   0  0  0  0  0  0  0  0  0  0  0  0
   -2.5200    0.3633    2.7401 N   0  0  0  0  0  0  0  0  0  0  0  0
   -1.2290   -0.0079    2.4390 C   0  0  0  0  0  0  0  0  0  0  0  0
   -0.2839   -0.3731    3.5264 C   0  0  0  0  0  0  0  0  0  0  0  0
   -1.1088    0.0311    1.0596 C   0  0  0  0  0  0  0  0  0  0  0  0
    0.0525   -0.2783    0.2829 C   0  0  0  0  0  0  0  0  0  0  0  0
    1.3228   -0.0053    0.6247 C   0  0  0  0  0  0  0  0  0  0  0  0
    2.4815   -0.3242   -0.2157 C   0  0  0  0  0  0  0  0  0  0  0  0
    2.4850   -0.1004   -1.5918 C   0  0  0  0  0  0  0  0  0  0  0  0
    3.6223   -0.3946   -2.3354 C   0  0  0  0  0  0  0  0  0  0  0  0
    4.7266   -0.8932   -1.7365 N   0  0  0  0  0  4  0  0  0  0  0  0
    5.9221   -1.1893   -2.5441 C   0  0  0  0  0  0  0  0  0  0  0  0
    4.7546   -1.0967   -0.4006 C   0  0  0  0  0  0  0  0  0  0  0  0
    3.6408   -0.8141    0.3823 C   0  0  0  0  0  0  0  0  0  0  0  0
   -2.3821    0.4024    0.5185 C   0  0  0  0  0  0  0  0  0  0  0  0
   -2.8902    0.5926   -0.7866 C   0  0  0  0  0  0  0  0  0  0  0  0
   -5.5675    1.9113   -2.3767 H   0  0  0  0  0  0  0  0  0  0  0  0
   -3.9964    1.4831   -3.0522 H   0  0  0  0  0  0  0  0  0  0  0  0
   -5.1891    0.2039   -2.7162 H   0  0  0  0  0  0  0  0  0  0  0  0
   -6.0984    1.4456   -0.0009 H   0  0  0  0  0  0  0  0  0  0  0  0
   -5.2326    1.1279    2.2945 H   0  0  0  0  0  0  0  0  0  0  0  0
   -2.9041    0.4279    3.6729 H   0  0  0  0  0  0  0  0  0  0  0  0
    0.3724    0.4711    3.7597 H   0  0  0  0  0  0  0  0  0  0  0  0
   -0.8169   -0.6498    4.4423 H   0  0  0  0  0  0  0  0  0  0  0  0
    0.3347   -1.2282    3.2367 H   0  0  0  0  0  0  0  0  0  0  0  0
   -0.1507   -0.7534   -0.6745 H   0  0  0  0  0  0  0  0  0  0  0  0
    1.5400    0.4827    1.5719 H   0  0  0  0  0  0  0  0  0  0  0  0
    1.6126    0.3153   -2.0926 H   0  0  0  0  0  0  0  0  0  0  0  0
    3.6600   -0.2286   -3.4084 H   0  0  0  0  0  0  0  0  0  0  0  0
    6.5296   -0.2814   -2.5743 H   0  0  0  0  0  0  0  0  0  0  0  0
    5.6109   -1.4840   -3.5497 H   0  0  0  0  0  0  0  0  0  0  0  0
    6.4729   -2.0119   -2.0808 H   0  0  0  0  0  0  0  0  0  0  0  0
    5.6729   -1.4827    0.0331 H   0  0  0  0  0  0  0  0  0  0  0  0
    3.6817   -0.9867    1.4565 H   0  0  0  0  0  0  0  0  0  0  0  0
   -2.2451    0.4391   -1.6459 H   0  0  0  0  0  0  0  0  0  0  0  0
  1  2  1  0
  2  3  2  0
  3  4  1  0
  4  5  2  0
  5  6  1  0
  6  7  1  0
  7  8  1  0
  7  9  2  0
  9 10  1  0
 10 11  2  3
 11 12  1  0
 12 13  2  0
 13 14  1  0
 14 15  2  0
 15 16  1  0
 15 17  1  0
 17 18  2  0
  9 19  1  0
 19 20  2  0
 20  2  1  0
 19  5  1  0
 18 12  1  0
  1 21  1  0
  1 22  1  0
  1 23  1  0
  3 24  1  0
  4 25  1  0
  6 26  1  0
  8 27  1  0
  8 28  1  0
  8 29  1  0
 10 30  1  0
 11 31  1  0
 13 32  1  0
 14 33  1  0
 16 34  1  0
 16 35  1  0
 16 36  1  0
 17 37  1  0
 18 38  1  0
 20 39  1  0
M  CHG  1  15   1
M  END
$$$$
