
     RDKit          3D

 68 70  0  0  0  0  0  0  0  0999 V2000
   -6.3304   -0.9009    4.1132 C   0  0  0  0  0  0  0  0  0  0  0  0
   -5.4686   -1.8283    3.4658 O   0  0  0  0  0  0  0  0  0  0  0  0
   -4.4250   -1.3081    2.7491 C   0  0  0  0  0  0  0  0  0  0  0  0
   -3.6188   -2.2577    2.1161 C   0  0  0  0  0  0  0  0  0  0  0  0
   -2.5190   -1.8697    1.3438 C   0  0  0  0  0  0  0  0  0  0  0  0
   -2.2049   -0.5123    1.1883 C   0  0  0  0  0  0  0  0  0  0  0  0
   -1.0293   -0.0206    0.3511 C   0  0  0  0  0  0  0  0  0  0  0  0
   -0.5503   -1.0355   -0.7278 C   0  0  0  0  0  0  0  0  0  0  0  0
    0.4195   -1.7734   -0.5661 O   0  0  0  0  0  0  0  0  0  0  0  0
   -1.3166   -1.0286   -1.8830 N   0  0  0  0  0  0  0  0  0  0  0  0
   -1.0255   -1.8047   -3.0987 C   0  0  0  0  0  0  0  0  0  0  0  0
   -2.0923   -1.4529   -4.1521 C   0  0  0  0  0  0  0  0  0  0  0  0
   -1.0886   -3.3157   -2.8245 C   0  0  0  0  0  0  0  0  0  0  0  0
    0.3511   -1.4222   -3.6701 C   0  0  0  0  0  0  0  0  0  0  0  0
    0.1289    0.4644    1.1328 N   0  0  0  0  0  0  0  0  0  0  0  0
    0.6051   -0.3494    2.2568 C   0  0  0  0  0  0  0  0  0  0  0  0
   -0.0129    0.1100    3.5361 C   0  0  0  0  0  0  0  0  0  0  0  0
   -0.5937   -0.5631    4.5932 C   0  0  0  0  0  0  0  0  0  0  0  0
   -1.0094    0.4212    5.5205 C   0  0  0  0  0  0  0  0  0  0  0  0
   -0.6443    1.6324    4.9806 C   0  0  0  0  0  0  0  0  0  0  0  0
   -0.0457    1.4563    3.7761 O   0  0  0  0  0  0  0  0  0  0  0  0
    0.9476    1.5111    0.7135 C   0  0  0  0  0  0  0  0  0  0  0  0
    2.0052    1.8062    1.2783 O   0  0  0  0  0  0  0  0  0  0  0  0
    0.4803    2.3258   -0.4866 C   0  0  0  0  0  0  0  0  0  0  0  0
    1.5138    3.3634   -0.9132 C   0  0  0  0  0  0  0  0  0  0  0  0
    2.6221    2.6786   -1.6856 C   0  0  0  0  0  0  0  0  0  0  0  0
    2.4357    2.3001   -2.8405 O   0  0  0  0  0  0  0  0  0  0  0  0
    3.7817    2.5318   -0.9579 N   0  0  0  0  0  0  0  0  0  0  0  0
    4.9482    1.9728   -1.4286 C   0  0  0  0  0  0  0  0  0  0  0  0
    5.2318    1.4422   -2.7077 C   0  0  0  0  0  0  0  0  0  0  0  0
    6.5407    1.0340   -2.6258 C   0  0  0  0  0  0  0  0  0  0  0  0
    7.4747    0.3836   -3.5603 C   0  0  0  0  0  0  0  0  0  0  0  0
    7.0213    1.3128   -1.3863 O   0  0  0  0  0  0  0  0  0  0  0  0
    6.0221    1.8992   -0.6335 N   0  0  0  0  0  0  0  0  0  0  0  0
   -3.0106    0.4355    1.8448 C   0  0  0  0  0  0  0  0  0  0  0  0
   -4.1115    0.0429    2.6167 C   0  0  0  0  0  0  0  0  0  0  0  0
   -6.7970   -0.2219    3.3906 H   0  0  0  0  0  0  0  0  0  0  0  0
   -7.1283   -1.4642    4.6036 H   0  0  0  0  0  0  0  0  0  0  0  0
   -5.7909   -0.3469    4.8875 H   0  0  0  0  0  0  0  0  0  0  0  0
   -3.8476   -3.3172    2.2288 H   0  0  0  0  0  0  0  0  0  0  0  0
   -1.9160   -2.6497    0.8799 H   0  0  0  0  0  0  0  0  0  0  0  0
   -1.4282    0.8312   -0.2152 H   0  0  0  0  0  0  0  0  0  0  0  0
   -2.1940   -0.5165   -1.8615 H   0  0  0  0  0  0  0  0  0  0  0  0
   -3.1000   -1.7142   -3.8020 H   0  0  0  0  0  0  0  0  0  0  0  0
   -1.9126   -1.9834   -5.0955 H   0  0  0  0  0  0  0  0  0  0  0  0
   -2.0925   -0.3763   -4.3655 H   0  0  0  0  0  0  0  0  0  0  0  0
   -2.0528   -3.5920   -2.3838 H   0  0  0  0  0  0  0  0  0  0  0  0
   -0.3096   -3.6397   -2.1257 H   0  0  0  0  0  0  0  0  0  0  0  0
   -0.9663   -3.8945   -3.7462 H   0  0  0  0  0  0  0  0  0  0  0  0
    1.1677   -1.7187   -3.0000 H   0  0  0  0  0  0  0  0  0  0  0  0
    0.5348   -1.9148   -4.6331 H   0  0  0  0  0  0  0  0  0  0  0  0
    0.4316   -0.3364   -3.8179 H   0  0  0  0  0  0  0  0  0  0  0  0
    1.6968   -0.2796    2.3492 H   0  0  0  0  0  0  0  0  0  0  0  0
    0.3758   -1.4062    2.0709 H   0  0  0  0  0  0  0  0  0  0  0  0
   -0.7188   -1.6347    4.6765 H   0  0  0  0  0  0  0  0  0  0  0  0
   -1.5123    0.2633    6.4636 H   0  0  0  0  0  0  0  0  0  0  0  0
   -0.7435    2.6572    5.3018 H   0  0  0  0  0  0  0  0  0  0  0  0
   -0.4390    2.8459   -0.1935 H   0  0  0  0  0  0  0  0  0  0  0  0
    0.2666    1.6589   -1.3299 H   0  0  0  0  0  0  0  0  0  0  0  0
    1.9141    3.9306   -0.0611 H   0  0  0  0  0  0  0  0  0  0  0  0
    1.0564    4.0979   -1.5900 H   0  0  0  0  0  0  0  0  0  0  0  0
    3.7895    2.7426    0.0352 H   0  0  0  0  0  0  0  0  0  0  0  0
    4.5807    1.3523   -3.5639 H   0  0  0  0  0  0  0  0  0  0  0  0
    7.5377   -0.6887   -3.3505 H   0  0  0  0  0  0  0  0  0  0  0  0
    8.4757    0.8141   -3.4641 H   0  0  0  0  0  0  0  0  0  0  0  0
    7.1501    0.5058   -4.5997 H   0  0  0  0  0  0  0  0  0  0  0  0
   -2.7695    1.4942    1.7761 H   0  0  0  0  0  0  0  0  0  0  0  0
   -4.6905    0.8205    3.1072 H   0  0  0  0  0  0  0  0  0  0  0  0
  1  2  1  0
  2  3  1  0
  3  4  2  0
  4  5  1  0
  5  6  2  0
  6  7  1  0
  7  8  1  0
  8  9  2  0
  8 10  1  0
 10 11  1  0
 11 12  1  0
 11 13  1  0
 11 14  1  0
  7 15  1  0
 15 16  1  0
 16 17  1  0
 17 18  2  0
 18 19  1  0
 19 20  2  0
 20 21  1  0
 15 22  1  0
 22 23  2  0
 22 24  1  0
 24 25  1  0
 25 26  1  0
 26 27  2  0
 26 28  1  0
 28 29  1  0
 29 30  1  0
 30 31  2  0
 31 32  1  0
 31 33  1  0
 33 34  1  0
  6 35  1  0
 35 36  2  0
 36  3  1  0
 21 17  1  0
 34 29  2  0
  1 37  1  0
  1 38  1  0
  1 39  1  0
  4 40  1  0
  5 41  1  0
  7 42  1  0
 10 43  1  0
 12 44  1  0
 12 45  1  0
 12 46  1  0
 13 47  1  0
 13 48  1  0
 13 49  1  0
 14 50  1  0
 14 51  1  0
 14 52  1  0
 16 53  1  0
 16 54  1  0
 18 55  1  0
 19 56  1  0
 20 57  1  0
 24 58  1  0
 24 59  1  0
 25 60  1  0
 25 61  1  0
 28 62  1  0
 30 63  1  0
 32 64  1  0
 32 65  1  0
 32 66  1  0
 35 67  1  0
 36 68  1  0
M  END
$$$$
