
     RDKit          3D

 97 99  0  0  0  0  0  0  0  0999 V2000
   -0.9764   -2.5703   -1.4243 C   0  0  0  0  0  0  0  0  0  0  0  0
   -0.8681   -1.3727   -0.8157 C   0  0  0  0  0  0  0  0  0  0  0  0
   -1.9278   -0.8983    0.1885 C   0  0  1  0  0  0  0  0  0  0  0  0
   -3.0406   -0.4866   -0.6439 O   0  0  0  0  0  0  0  0  0  0  0  0
   -3.7855    0.5639   -0.2218 C   0  0  0  0  0  0  0  0  0  0  0  0
   -3.6714    1.1064    0.8703 O   0  0  0  0  0  0  0  0  0  0  0  0
   -4.8365    0.9605   -1.2440 C   0  0  0  0  0  0  0  0  0  0  0  0
   -4.3621    0.7792   -2.6840 C   0  0  0  0  0  0  0  0  0  0  0  0
   -6.1270    0.1931   -0.9883 C   0  0  0  0  0  0  0  0  0  0  0  0
   -2.3711   -1.9665    1.2242 C   0  0  0  0  0  0  0  0  0  0  0  0
   -3.3095   -1.4559    2.1880 O   0  0  0  0  0  0  0  0  0  0  0  0
   -4.6275   -1.6918    1.9634 C   0  0  0  0  0  0  0  0  0  0  0  0
   -5.4519   -1.0689    3.0482 C   0  0  0  0  0  0  0  0  0  0  0  0
   -5.0889   -2.2951    1.0074 O   0  0  0  0  0  0  0  0  0  0  0  0
   -1.1900   -2.5698    2.0016 C   0  0  0  0  0  0  0  0  0  0  0  0
   -0.8516   -3.7357    1.7398 O   0  0  0  0  0  0  0  0  0  0  0  0
   -0.3917   -1.7553    3.0737 C   0  0  0  0  0  0  0  0  0  0  0  0
   -0.1305   -2.7123    4.2601 C   0  0  0  0  0  0  0  0  0  0  0  0
   -1.1390   -0.5406    3.6519 C   0  0  0  0  0  0  0  0  0  0  0  0
    0.9708   -1.2831    2.5682 C   0  0  0  0  0  0  0  0  0  0  0  0
    1.7669   -1.8613    1.6496 C   0  0  0  0  0  0  0  0  0  0  0  0
    3.1664   -1.3885    1.2644 C   0  0  2  0  0  0  0  0  0  0  0  0
    4.0453   -1.2759    2.5234 C   0  0  0  0  0  0  0  0  0  0  0  0
    3.2497   -0.0636    0.4395 C   0  0  2  0  0  0  0  0  0  0  0  0
    2.4896    0.9542    1.1420 O   0  0  0  0  0  0  0  0  0  0  0  0
    2.9814    2.2182    1.0964 C   0  0  0  0  0  0  0  0  0  0  0  0
    3.9342    2.5771    0.4193 O   0  0  0  0  0  0  0  0  0  0  0  0
    2.2582    3.1063    2.0397 C   0  0  0  0  0  0  0  0  0  0  0  0
    0.9777    2.8045    2.5166 C   0  0  0  0  0  0  0  0  0  0  0  0
    0.3427    3.6645    3.4147 C   0  0  0  0  0  0  0  0  0  0  0  0
    0.9842    4.8274    3.8400 C   0  0  0  0  0  0  0  0  0  0  0  0
    2.2576    5.1372    3.3636 C   0  0  0  0  0  0  0  0  0  0  0  0
    2.8931    4.2820    2.4615 C   0  0  0  0  0  0  0  0  0  0  0  0
    2.8701   -0.1465   -1.0822 C   0  0  1  0  0  0  0  0  0  0  0  0
    2.7074    1.1827   -1.6077 O   0  0  0  0  0  0  0  0  0  0  0  0
    4.0185   -0.7913   -1.9026 C   0  0  0  0  0  0  0  0  0  0  0  0
    3.3584   -1.6787   -2.9744 C   0  0  2  0  0  0  0  0  0  0  0  0
    4.0549   -1.5845   -4.3240 C   0  0  0  0  0  0  0  0  0  0  0  0
    1.8684   -1.2911   -2.9703 C   0  0  2  0  0  0  0  0  0  0  0  0
    1.6551   -0.1517   -3.8117 O   0  0  0  0  0  0  0  0  0  0  0  0
    0.9656   -0.3565   -4.9646 C   0  0  0  0  0  0  0  0  0  0  0  0
    0.8895    0.9150   -5.7529 C   0  0  0  0  0  0  0  0  0  0  0  0
    0.5106   -1.4247   -5.3495 O   0  0  0  0  0  0  0  0  0  0  0  0
    1.6319   -0.9997   -1.4686 C   0  0  2  0  0  0  0  0  0  0  0  0
    0.2791   -0.3829   -1.0397 C   0  0  1  0  0  0  0  0  0  0  0  0
   -0.1750    0.5963   -1.9861 O   0  0  0  0  0  0  0  0  0  0  0  0
   -0.3869    1.8509   -1.5141 C   0  0  0  0  0  0  0  0  0  0  0  0
   -0.6284    2.8015   -2.6452 C   0  0  0  0  0  0  0  0  0  0  0  0
   -0.3732    2.1843   -0.3372 O   0  0  0  0  0  0  0  0  0  0  0  0
   -0.2615   -2.9442   -2.1442 H   0  0  0  0  0  0  0  0  0  0  0  0
   -1.8227   -3.2303   -1.2513 H   0  0  0  0  0  0  0  0  0  0  0  0
   -1.5475   -0.0243    0.7258 H   0  0  0  0  0  0  0  0  0  0  0  0
   -5.0218    2.0322   -1.0941 H   0  0  0  0  0  0  0  0  0  0  0  0
   -4.2285   -0.2782   -2.9376 H   0  0  0  0  0  0  0  0  0  0  0  0
   -3.4038    1.2829   -2.8451 H   0  0  0  0  0  0  0  0  0  0  0  0
   -5.0899    1.1992   -3.3860 H   0  0  0  0  0  0  0  0  0  0  0  0
   -6.4615    0.3202    0.0469 H   0  0  0  0  0  0  0  0  0  0  0  0
   -6.9266    0.5443   -1.6487 H   0  0  0  0  0  0  0  0  0  0  0  0
   -5.9927   -0.8793   -1.1635 H   0  0  0  0  0  0  0  0  0  0  0  0
   -2.8433   -2.8069    0.6998 H   0  0  0  0  0  0  0  0  0  0  0  0
   -5.0453   -1.3363    4.0283 H   0  0  0  0  0  0  0  0  0  0  0  0
   -5.4662    0.0166    2.9232 H   0  0  0  0  0  0  0  0  0  0  0  0
   -6.4756   -1.4504    2.9889 H   0  0  0  0  0  0  0  0  0  0  0  0
   -1.0737   -3.1018    4.6625 H   0  0  0  0  0  0  0  0  0  0  0  0
    0.4745   -3.5766    3.9602 H   0  0  0  0  0  0  0  0  0  0  0  0
    0.4016   -2.2087    5.0762 H   0  0  0  0  0  0  0  0  0  0  0  0
   -1.3872    0.2012    2.8888 H   0  0  0  0  0  0  0  0  0  0  0  0
   -0.5366   -0.0211    4.4080 H   0  0  0  0  0  0  0  0  0  0  0  0
   -2.0649   -0.8393    4.1548 H   0  0  0  0  0  0  0  0  0  0  0  0
    1.3592   -0.3989    3.0761 H   0  0  0  0  0  0  0  0  0  0  0  0
    1.4426   -2.7860    1.1714 H   0  0  0  0  0  0  0  0  0  0  0  0
    3.6132   -2.1907    0.6618 H   0  0  0  0  0  0  0  0  0  0  0  0
    3.7447   -0.4394    3.1641 H   0  0  0  0  0  0  0  0  0  0  0  0
    5.0932   -1.1183    2.2458 H   0  0  0  0  0  0  0  0  0  0  0  0
    3.9995   -2.1944    3.1190 H   0  0  0  0  0  0  0  0  0  0  0  0
    4.3056    0.2430    0.4695 H   0  0  0  0  0  0  0  0  0  0  0  0
    0.4516    1.9188    2.1711 H   0  0  0  0  0  0  0  0  0  0  0  0
   -0.6585    3.4331    3.7691 H   0  0  0  0  0  0  0  0  0  0  0  0
    0.4862    5.4979    4.5355 H   0  0  0  0  0  0  0  0  0  0  0  0
    2.7540    6.0476    3.6905 H   0  0  0  0  0  0  0  0  0  0  0  0
    3.8852    4.5341    2.0926 H   0  0  0  0  0  0  0  0  0  0  0  0
    3.4331    1.7425   -1.2591 H   0  0  0  0  0  0  0  0  0  0  0  0
    4.6563   -0.0225   -2.3563 H   0  0  0  0  0  0  0  0  0  0  0  0
    4.6643   -1.4217   -1.2807 H   0  0  0  0  0  0  0  0  0  0  0  0
    3.4347   -2.7195   -2.6284 H   0  0  0  0  0  0  0  0  0  0  0  0
    5.0909   -1.9298   -4.2435 H   0  0  0  0  0  0  0  0  0  0  0  0
    3.5484   -2.2109   -5.0649 H   0  0  0  0  0  0  0  0  0  0  0  0
    4.0779   -0.5572   -4.7010 H   0  0  0  0  0  0  0  0  0  0  0  0
    1.2752   -2.1462   -3.3020 H   0  0  0  0  0  0  0  0  0  0  0  0
    1.7783    1.0085   -6.3816 H   0  0  0  0  0  0  0  0  0  0  0  0
    0.8155    1.7752   -5.0833 H   0  0  0  0  0  0  0  0  0  0  0  0
   -0.0086    0.9004   -6.3764 H   0  0  0  0  0  0  0  0  0  0  0  0
    1.7382   -1.9669   -0.9633 H   0  0  0  0  0  0  0  0  0  0  0  0
    0.4646    0.0791   -0.0659 H   0  0  0  0  0  0  0  0  0  0  0  0
   -1.1837    2.3072   -3.4475 H   0  0  0  0  0  0  0  0  0  0  0  0
    0.3288    3.1707   -3.0207 H   0  0  0  0  0  0  0  0  0  0  0  0
   -1.2340    3.6393   -2.2883 H   0  0  0  0  0  0  0  0  0  0  0  0
  1  2  2  0
  2  3  1  0
  3  4  1  0
  4  5  1  0
  5  6  2  0
  5  7  1  0
  7  8  1  0
  7  9  1  0
  3 10  1  0
 10 11  1  0
 11 12  1  0
 12 13  1  0
 12 14  2  0
 10 15  1  0
 15 16  2  0
 15 17  1  0
 17 18  1  0
 17 19  1  0
 17 20  1  0
 20 21  2  0
 21 22  1  0
 22 23  1  0
 22 24  1  0
 24 25  1  0
 25 26  1  0
 26 27  2  0
 26 28  1  0
 28 29  2  0
 29 30  1  0
 30 31  2  0
 31 32  1  0
 32 33  2  0
 24 34  1  0
 34 35  1  6
 34 36  1  0
 36 37  1  0
 37 38  1  0
 37 39  1  0
 39 40  1  0
 40 41  1  0
 41 42  1  0
 41 43  2  0
 39 44  1  0
 44 45  1  0
 45 46  1  0
 46 47  1  0
 47 48  1  0
 47 49  2  0
 45  2  1  0
 33 28  1  0
 44 34  1  0
  1 50  1  0
  1 51  1  0
  3 52  1  1
  7 53  1  0
  8 54  1  0
  8 55  1  0
  8 56  1  0
  9 57  1  0
  9 58  1  0
  9 59  1  0
 10 60  1  0
 13 61  1  0
 13 62  1  0
 13 63  1  0
 18 64  1  0
 18 65  1  0
 18 66  1  0
 19 67  1  0
 19 68  1  0
 19 69  1  0
 20 70  1  0
 21 71  1  0
 22 72  1  6
 23 73  1  0
 23 74  1  0
 23 75  1  0
 24 76  1  6
 29 77  1  0
 30 78  1  0
 31 79  1  0
 32 80  1  0
 33 81  1  0
 35 82  1  0
 36 83  1  0
 36 84  1  0
 37 85  1  1
 38 86  1  0
 38 87  1  0
 38 88  1  0
 39 89  1  6
 42 90  1  0
 42 91  1  0
 42 92  1  0
 44 93  1  1
 45 94  1  1
 48 95  1  0
 48 96  1  0
 48 97  1  0
M  END
$$$$
