
     RDKit          3D

 29 30  0  0  0  0  0  0  0  0999 V2000
    1.5723    3.7045   -1.0122 C   0  0  0  0  0  0  0  0  0  0  0  0
    1.3003    2.9715    0.0761 C   0  0  0  0  0  0  0  0  0  0  0  0
   -0.0850    2.5520    0.4891 C   0  0  0  0  0  0  0  0  0  0  0  0
   -0.2717    1.1333    0.1816 N   0  0  0  0  0  0  0  0  0  0  0  0
    0.0830    0.0991    1.0350 C   0  0  0  0  0  0  0  0  0  0  0  0
    0.7825    0.5038    2.5936 S   0  0  0  0  0  0  0  0  0  0  0  0
    1.1532   -1.1575    3.2347 C   0  0  0  0  0  0  0  0  0  0  0  0
    1.7925   -1.1059    4.5567 C   0  0  0  0  0  0  0  0  0  0  0  0
    2.2991   -1.0826    5.6016 N   0  0  0  0  0  0  0  0  0  0  0  0
   -0.0702   -1.1552    0.7619 N   0  0  0  0  0  0  0  0  0  0  0  0
   -0.6207   -1.5120   -0.4714 C   0  0  0  0  0  0  0  0  0  0  0  0
   -0.7774   -2.8668   -0.7750 C   0  0  0  0  0  0  0  0  0  0  0  0
   -1.3247   -3.2636   -1.9983 C   0  0  0  0  0  0  0  0  0  0  0  0
   -1.7207   -2.3048   -2.9297 C   0  0  0  0  0  0  0  0  0  0  0  0
   -1.5691   -0.9503   -2.6366 C   0  0  0  0  0  0  0  0  0  0  0  0
   -1.0191   -0.5649   -1.4077 C   0  0  0  0  0  0  0  0  0  0  0  0
   -0.8448    0.8548   -1.0607 C   0  0  0  0  0  0  0  0  0  0  0  0
   -1.2156    1.7075   -1.8650 O   0  0  0  0  0  0  0  0  0  0  0  0
    2.5918    3.9878   -1.2550 H   0  0  0  0  0  0  0  0  0  0  0  0
    0.7871    4.0246   -1.6924 H   0  0  0  0  0  0  0  0  0  0  0  0
    2.1217    2.6761    0.7244 H   0  0  0  0  0  0  0  0  0  0  0  0
   -0.2327    2.7516    1.5543 H   0  0  0  0  0  0  0  0  0  0  0  0
   -0.8398    3.1532   -0.0320 H   0  0  0  0  0  0  0  0  0  0  0  0
    0.2234   -1.7310    3.3103 H   0  0  0  0  0  0  0  0  0  0  0  0
    1.8205   -1.6730    2.5359 H   0  0  0  0  0  0  0  0  0  0  0  0
   -0.4708   -3.6194   -0.0529 H   0  0  0  0  0  0  0  0  0  0  0  0
   -1.4413   -4.3213   -2.2228 H   0  0  0  0  0  0  0  0  0  0  0  0
   -2.1467   -2.6116   -3.8822 H   0  0  0  0  0  0  0  0  0  0  0  0
   -1.8772   -0.1998   -3.3614 H   0  0  0  0  0  0  0  0  0  0  0  0
  1  2  2  0
  2  3  1  0
  3  4  1  0
  4  5  1  0
  5  6  1  0
  6  7  1  0
  7  8  1  0
  8  9  3  0
  5 10  2  0
 10 11  1  0
 11 12  2  0
 12 13  1  0
 13 14  2  0
 14 15  1  0
 15 16  2  0
 16 17  1  0
 17 18  2  0
 17  4  1  0
 16 11  1  0
  1 19  1  0
  1 20  1  0
  2 21  1  0
  3 22  1  0
  3 23  1  0
  7 24  1  0
  7 25  1  0
 12 26  1  0
 13 27  1  0
 14 28  1  0
 15 29  1  0
M  END
$$$$
