
     RDKit          3D

 38 39  0  0  0  0  0  0  0  0999 V2000
    4.5123    1.8376   -2.1619 C   0  0  0  0  0  0  0  0  0  0  0  0
    4.1761    0.7033   -1.2689 C   0  0  0  0  0  0  0  0  0  0  0  0
    4.7972    0.3363   -0.0556 C   0  0  0  0  0  0  0  0  0  0  0  0
    4.1158   -0.7777    0.3870 C   0  0  0  0  0  0  0  0  0  0  0  0
    4.3003   -1.5958    1.6101 C   0  0  0  0  0  0  0  0  0  0  0  0
    3.1586   -1.0207   -0.5625 N   0  0  0  0  0  0  0  0  0  0  0  0
    2.1597   -2.0714   -0.5931 C   0  0  0  0  0  0  0  0  0  0  0  0
    0.7824   -1.5338   -0.2755 C   0  0  0  0  0  0  0  0  0  0  0  0
    0.1027   -2.0192    0.6291 O   0  0  0  0  0  0  0  0  0  0  0  0
    0.3708   -0.5135   -1.1379 N   0  0  0  0  0  0  0  0  0  0  0  0
   -0.7701    0.2291   -0.9590 N   0  0  0  0  0  0  0  0  0  0  0  0
   -1.8473   -0.4085   -0.6177 C   0  0  0  0  0  0  0  0  0  0  0  0
   -3.1080    0.3165   -0.3505 C   0  0  0  0  0  0  0  0  0  0  0  0
   -4.2337   -0.4351    0.0036 C   0  0  0  0  0  0  0  0  0  0  0  0
   -5.4443    0.2251    0.2631 C   0  0  0  0  0  0  0  0  0  0  0  0
   -6.6315   -0.5569    0.6318 N   0  0  0  0  0  4  0  0  0  0  0  0
   -7.6691    0.0624    0.9042 O   0  0  0  0  0  0  0  0  0  0  0  0
   -6.5238   -1.7912    0.6454 O   0  0  0  0  0  1  0  0  0  0  0  0
   -5.5353    1.6212    0.1728 C   0  0  0  0  0  0  0  0  0  0  0  0
   -4.4057    2.3617   -0.1796 C   0  0  0  0  0  0  0  0  0  0  0  0
   -3.1997    1.7124   -0.4389 C   0  0  0  0  0  0  0  0  0  0  0  0
   -2.1419    2.5112   -0.7752 O   0  0  0  0  0  0  0  0  0  0  0  0
    3.1667   -0.1213   -1.5729 N   0  0  0  0  0  0  0  0  0  0  0  0
    4.7779    1.4748   -3.1600 H   0  0  0  0  0  0  0  0  0  0  0  0
    3.6597    2.5179   -2.2553 H   0  0  0  0  0  0  0  0  0  0  0  0
    5.3608    2.4090   -1.7722 H   0  0  0  0  0  0  0  0  0  0  0  0
    5.6285    0.8242    0.4348 H   0  0  0  0  0  0  0  0  0  0  0  0
    5.0778   -1.1686    2.2517 H   0  0  0  0  0  0  0  0  0  0  0  0
    4.6018   -2.6156    1.3508 H   0  0  0  0  0  0  0  0  0  0  0  0
    3.3738   -1.6403    2.1915 H   0  0  0  0  0  0  0  0  0  0  0  0
    2.4315   -2.8437    0.1316 H   0  0  0  0  0  0  0  0  0  0  0  0
    2.1646   -2.5191   -1.5925 H   0  0  0  0  0  0  0  0  0  0  0  0
    1.1346   -0.0017   -1.5999 H   0  0  0  0  0  0  0  0  0  0  0  0
   -1.8869   -1.5089   -0.5355 H   0  0  0  0  0  0  0  0  0  0  0  0
   -4.1642   -1.5185    0.0785 H   0  0  0  0  0  0  0  0  0  0  0  0
   -6.4689    2.1440    0.3719 H   0  0  0  0  0  0  0  0  0  0  0  0
   -4.4619    3.4456   -0.2522 H   0  0  0  0  0  0  0  0  0  0  0  0
   -1.3616    1.9290   -0.9151 H   0  0  0  0  0  0  0  0  0  0  0  0
  1  2  1  0
  2  3  1  0
  3  4  2  0
  4  5  1  0
  4  6  1  0
  6  7  1  0
  7  8  1  0
  8  9  2  0
  8 10  1  0
 10 11  1  0
 11 12  2  3
 12 13  1  0
 13 14  2  0
 14 15  1  0
 15 16  1  0
 16 17  2  0
 16 18  1  0
 15 19  2  0
 19 20  1  0
 20 21  2  0
 21 22  1  0
  6 23  1  0
 23  2  2  0
 21 13  1  0
  1 24  1  0
  1 25  1  0
  1 26  1  0
  3 27  1  0
  5 28  1  0
  5 29  1  0
  5 30  1  0
  7 31  1  0
  7 32  1  0
 10 33  1  0
 12 34  1  0
 14 35  1  0
 19 36  1  0
 20 37  1  0
 22 38  1  0
M  CHG  2  16   1  18  -1
M  END
$$$$
