
     RDKit          3D

 51 55  0  0  0  0  0  0  0  0999 V2000
   -8.1311    1.9812    0.8416 F   0  0  0  0  0  0  0  0  0  0  0  0
   -7.3356    1.0033    0.3883 C   0  0  0  0  0  0  0  0  0  0  0  0
   -7.8723   -0.0012   -0.4077 C   0  0  0  0  0  0  0  0  0  0  0  0
   -7.0435   -1.0162   -0.8818 C   0  0  0  0  0  0  0  0  0  0  0  0
   -5.6849   -1.0184   -0.5537 C   0  0  0  0  0  0  0  0  0  0  0  0
   -5.1437   -0.0072    0.2551 C   0  0  0  0  0  0  0  0  0  0  0  0
   -3.6714   -0.0015    0.5932 C   0  0  0  0  0  0  0  0  0  0  0  0
   -2.8504    0.7628   -0.4618 C   0  0  0  0  0  0  0  0  0  0  0  0
   -1.3956    0.7643   -0.2802 N   0  0  0  0  0  0  0  0  0  0  0  0
   -0.9351    1.4478    0.9362 C   0  0  0  0  0  0  0  0  0  0  0  0
    0.6007    1.3811    1.1106 C   0  0  0  0  0  0  0  0  0  0  0  0
    1.1310   -0.0020    1.0633 N   0  0  0  0  0  0  0  0  0  0  0  0
    2.4305   -0.1833    0.5806 C   0  0  0  0  0  0  0  0  0  0  0  0
    2.6298   -1.0448   -0.3868 N   0  0  0  0  0  0  0  0  0  0  0  0
    3.9114   -1.2289   -0.9391 C   0  0  0  0  0  0  0  0  0  0  0  0
    4.0592   -2.1489   -1.9791 C   0  0  0  0  0  0  0  0  0  0  0  0
    5.3066   -2.3618   -2.5721 C   0  0  0  0  0  0  0  0  0  0  0  0
    6.4227   -1.6520   -2.1282 C   0  0  0  0  0  0  0  0  0  0  0  0
    6.2981   -0.7278   -1.0902 C   0  0  0  0  0  0  0  0  0  0  0  0
    5.0433   -0.5255   -0.5073 C   0  0  0  0  0  0  0  0  0  0  0  0
    4.8305    0.3735    0.5498 N   0  0  0  0  0  0  0  0  0  0  0  0
    5.7321    1.1795    1.2040 C   0  0  0  0  0  0  0  0  0  0  0  0
    5.0695    1.8273    2.2230 C   0  0  0  0  0  0  0  0  0  0  0  0
    3.7186    1.4112    2.1739 C   0  0  0  0  0  0  0  0  0  0  0  0
    3.5804    0.5415    1.1061 C   0  0  0  0  0  0  0  0  0  0  0  0
    0.1096   -1.0130    0.7253 C   0  0  0  0  0  0  0  0  0  0  0  0
   -0.7551   -0.5537   -0.4671 C   0  0  0  0  0  0  0  0  0  0  0  0
   -5.9845    1.0118    0.7213 C   0  0  0  0  0  0  0  0  0  0  0  0
   -8.9289    0.0147   -0.6541 H   0  0  0  0  0  0  0  0  0  0  0  0
   -7.4532   -1.8049   -1.5078 H   0  0  0  0  0  0  0  0  0  0  0  0
   -5.0495   -1.8156   -0.9351 H   0  0  0  0  0  0  0  0  0  0  0  0
   -3.3254   -1.0380    0.6847 H   0  0  0  0  0  0  0  0  0  0  0  0
   -3.5418    0.4474    1.5850 H   0  0  0  0  0  0  0  0  0  0  0  0
   -3.1951    1.8050   -0.4982 H   0  0  0  0  0  0  0  0  0  0  0  0
   -3.0710    0.3611   -1.4600 H   0  0  0  0  0  0  0  0  0  0  0  0
   -1.3996    1.0147    1.8302 H   0  0  0  0  0  0  0  0  0  0  0  0
   -1.2339    2.5020    0.8988 H   0  0  0  0  0  0  0  0  0  0  0  0
    1.0672    1.9845    0.3213 H   0  0  0  0  0  0  0  0  0  0  0  0
    0.8521    1.8330    2.0748 H   0  0  0  0  0  0  0  0  0  0  0  0
    3.1910   -2.7008   -2.3289 H   0  0  0  0  0  0  0  0  0  0  0  0
    5.4044   -3.0812   -3.3810 H   0  0  0  0  0  0  0  0  0  0  0  0
    7.3914   -1.8208   -2.5922 H   0  0  0  0  0  0  0  0  0  0  0  0
    7.1805   -0.1898   -0.7605 H   0  0  0  0  0  0  0  0  0  0  0  0
    6.7724    1.2218    0.9166 H   0  0  0  0  0  0  0  0  0  0  0  0
    5.5147    2.5139    2.9316 H   0  0  0  0  0  0  0  0  0  0  0  0
    2.9355    1.7129    2.8547 H   0  0  0  0  0  0  0  0  0  0  0  0
    0.5565   -1.9913    0.5132 H   0  0  0  0  0  0  0  0  0  0  0  0
   -0.5275   -1.1709    1.6050 H   0  0  0  0  0  0  0  0  0  0  0  0
   -1.4903   -1.3359   -0.6894 H   0  0  0  0  0  0  0  0  0  0  0  0
   -0.1177   -0.4772   -1.3566 H   0  0  0  0  0  0  0  0  0  0  0  0
   -5.6024    1.8164    1.3424 H   0  0  0  0  0  0  0  0  0  0  0  0
  1  2  1  0
  2  3  2  0
  3  4  1  0
  4  5  2  0
  5  6  1  0
  6  7  1  0
  7  8  1  0
  8  9  1  0
  9 10  1  0
 10 11  1  0
 11 12  1  0
 12 13  1  0
 13 14  2  0
 14 15  1  0
 15 16  2  0
 16 17  1  0
 17 18  2  0
 18 19  1  0
 19 20  2  0
 20 21  1  0
 21 22  1  0
 22 23  2  0
 23 24  1  0
 24 25  2  0
 12 26  1  0
 26 27  1  0
  6 28  2  0
 28  2  1  0
 27  9  1  0
 25 13  1  0
 20 15  1  0
 25 21  1  0
  3 29  1  0
  4 30  1  0
  5 31  1  0
  7 32  1  0
  7 33  1  0
  8 34  1  0
  8 35  1  0
 10 36  1  0
 10 37  1  0
 11 38  1  0
 11 39  1  0
 16 40  1  0
 17 41  1  0
 18 42  1  0
 19 43  1  0
 22 44  1  0
 23 45  1  0
 24 46  1  0
 26 47  1  0
 26 48  1  0
 27 49  1  0
 27 50  1  0
 28 51  1  0
M  END
$$$$
