
     RDKit          3D

 60 64  0  0  0  0  0  0  0  0999 V2000
   -2.4588   -2.7619   -1.8304 C   0  0  0  0  0  0  0  0  0  0  0  0
   -2.6125   -1.3114   -1.8073 N   0  0  0  0  0  0  0  0  0  0  0  0
   -3.9105   -0.8111   -1.6682 C   0  0  0  0  0  0  0  0  0  0  0  0
   -4.9035   -1.5403   -1.6471 O   0  0  0  0  0  0  0  0  0  0  0  0
   -4.0704    0.6684   -1.4932 C   0  0  0  0  0  0  0  0  0  0  0  0
   -4.9493    1.2194   -0.6366 C   0  0  0  0  0  0  0  0  0  0  0  0
   -5.8140    0.5169    0.3171 C   0  0  0  0  0  0  0  0  0  0  0  0
   -7.2003    0.6796    0.2313 C   0  0  0  0  0  0  0  0  0  0  0  0
   -8.0447    0.0454    1.1467 C   0  0  0  0  0  0  0  0  0  0  0  0
   -7.5147   -0.7515    2.1726 C   0  0  0  0  0  0  0  0  0  0  0  0
   -8.4234   -1.4579    3.1497 C   0  0  0  0  0  0  0  0  0  0  0  0
   -7.8951   -1.5323    4.4048 F   0  0  0  0  0  0  0  0  0  0  0  0
   -9.6351   -0.8495    3.2967 F   0  0  0  0  0  0  0  0  0  0  0  0
   -8.6921   -2.7397    2.7805 F   0  0  0  0  0  0  0  0  0  0  0  0
   -6.1229   -0.9092    2.2555 C   0  0  0  0  0  0  0  0  0  0  0  0
   -5.2794   -0.2739    1.3399 C   0  0  0  0  0  0  0  0  0  0  0  0
   -3.1074    1.6826   -2.5030 S   0  0  0  0  0  0  0  0  0  0  0  0
   -1.5449    0.8824   -2.2272 C   0  0  0  0  0  0  0  0  0  0  0  0
   -0.3895    1.6682   -2.3833 C   0  0  0  0  0  0  0  0  0  0  0  0
    0.8754    1.1085   -2.2299 C   0  0  0  0  0  0  0  0  0  0  0  0
    0.9830   -0.2410   -1.9054 C   0  0  0  0  0  0  0  0  0  0  0  0
    2.3095   -0.8741   -1.7819 C   0  0  0  0  0  0  0  0  0  0  0  0
    2.6018   -1.7206   -2.6217 O   0  0  0  0  0  0  0  0  0  0  0  0
    3.1451   -0.4962   -0.7407 N   0  0  0  0  0  0  0  0  0  0  0  0
    4.4818   -1.1105   -0.6739 C   0  0  0  0  0  0  0  0  0  0  0  0
    5.0665   -1.0988    0.7476 C   0  0  0  0  0  0  0  0  0  0  0  0
    5.1162    0.2658    1.3203 N   0  0  0  0  0  0  0  0  0  0  0  0
    6.3569    0.9136    1.1424 C   0  0  0  0  0  0  0  0  0  0  0  0
    6.6370    2.0684    1.8761 C   0  0  0  0  0  0  0  0  0  0  0  0
    7.8582    2.7202    1.7062 C   0  0  0  0  0  0  0  0  0  0  0  0
    8.7807    2.2071    0.8067 C   0  0  0  0  0  0  0  0  0  0  0  0
    8.4391    1.0587    0.1211 C   0  0  0  0  0  0  0  0  0  0  0  0
    7.2619    0.4121    0.2724 N   0  0  0  0  0  0  0  0  0  0  0  0
    3.9824    1.1438    0.9513 C   0  0  0  0  0  0  0  0  0  0  0  0
    2.7762    0.3505    0.4064 C   0  0  0  0  0  0  0  0  0  0  0  0
   -0.1593   -1.0402   -1.7803 C   0  0  0  0  0  0  0  0  0  0  0  0
   -1.4438   -0.4891   -1.9278 C   0  0  0  0  0  0  0  0  0  0  0  0
   -1.8609   -3.0562   -2.6994 H   0  0  0  0  0  0  0  0  0  0  0  0
   -1.9747   -3.0859   -0.9040 H   0  0  0  0  0  0  0  0  0  0  0  0
   -3.4187   -3.2804   -1.9031 H   0  0  0  0  0  0  0  0  0  0  0  0
   -5.0571    2.3017   -0.5984 H   0  0  0  0  0  0  0  0  0  0  0  0
   -7.6353    1.2884   -0.5583 H   0  0  0  0  0  0  0  0  0  0  0  0
   -9.1216    0.1725    1.0500 H   0  0  0  0  0  0  0  0  0  0  0  0
   -5.6886   -1.5330    3.0357 H   0  0  0  0  0  0  0  0  0  0  0  0
   -4.2051   -0.4077    1.4318 H   0  0  0  0  0  0  0  0  0  0  0  0
   -0.4715    2.7217   -2.6434 H   0  0  0  0  0  0  0  0  0  0  0  0
    1.7657    1.7139   -2.3787 H   0  0  0  0  0  0  0  0  0  0  0  0
    5.1216   -0.5449   -1.3620 H   0  0  0  0  0  0  0  0  0  0  0  0
    4.4307   -2.1412   -1.0417 H   0  0  0  0  0  0  0  0  0  0  0  0
    4.4125   -1.6953    1.3983 H   0  0  0  0  0  0  0  0  0  0  0  0
    6.0378   -1.6089    0.7776 H   0  0  0  0  0  0  0  0  0  0  0  0
    5.9194    2.4494    2.5963 H   0  0  0  0  0  0  0  0  0  0  0  0
    8.0856    3.6137    2.2787 H   0  0  0  0  0  0  0  0  0  0  0  0
    9.7414    2.6823    0.6497 H   0  0  0  0  0  0  0  0  0  0  0  0
    9.1234    0.6075   -0.5926 H   0  0  0  0  0  0  0  0  0  0  0  0
    3.6681    1.7130    1.8339 H   0  0  0  0  0  0  0  0  0  0  0  0
    4.2808    1.8622    0.1752 H   0  0  0  0  0  0  0  0  0  0  0  0
    1.9723    1.0407    0.1490 H   0  0  0  0  0  0  0  0  0  0  0  0
    2.3843   -0.3212    1.1806 H   0  0  0  0  0  0  0  0  0  0  0  0
   -0.0100   -2.0945   -1.5629 H   0  0  0  0  0  0  0  0  0  0  0  0
  1  2  1  0
  2  3  1  0
  3  4  2  0
  3  5  1  0
  5  6  2  3
  6  7  1  0
  7  8  2  0
  8  9  1  0
  9 10  2  0
 10 11  1  0
 11 12  1  0
 11 13  1  0
 11 14  1  0
 10 15  1  0
 15 16  2  0
  5 17  1  0
 17 18  1  0
 18 19  2  0
 19 20  1  0
 20 21  2  0
 21 22  1  0
 22 23  2  0
 22 24  1  0
 24 25  1  0
 25 26  1  0
 26 27  1  0
 27 28  1  0
 28 29  2  0
 29 30  1  0
 30 31  2  0
 31 32  1  0
 32 33  2  0
 27 34  1  0
 34 35  1  0
 21 36  1  0
 36 37  2  0
 37  2  1  0
 16  7  1  0
 37 18  1  0
 35 24  1  0
 33 28  1  0
  1 38  1  0
  1 39  1  0
  1 40  1  0
  6 41  1  0
  8 42  1  0
  9 43  1  0
 15 44  1  0
 16 45  1  0
 19 46  1  0
 20 47  1  0
 25 48  1  0
 25 49  1  0
 26 50  1  0
 26 51  1  0
 29 52  1  0
 30 53  1  0
 31 54  1  0
 32 55  1  0
 34 56  1  0
 34 57  1  0
 35 58  1  0
 35 59  1  0
 36 60  1  0
M  END
$$$$
