
     RDKit          3D

 54 57  0  0  0  0  0  0  0  0999 V2000
    5.9712    0.7452    3.4897 C   0  0  0  0  0  0  0  0  0  0  0  0
    6.6067    0.3729    2.1478 C   0  0  0  0  0  0  0  0  0  0  0  0
    7.5260    1.4914    1.6509 C   0  0  0  0  0  0  0  0  0  0  0  0
    5.5544    0.0137    1.1145 C   0  0  0  0  0  0  0  0  0  0  0  0
    4.6028    0.9423    0.6746 C   0  0  0  0  0  0  0  0  0  0  0  0
    3.6435    0.5838   -0.2781 C   0  0  0  0  0  0  0  0  0  0  0  0
    3.6113   -0.7093   -0.8112 C   0  0  0  0  0  0  0  0  0  0  0  0
    2.6135   -0.9840   -1.7658 N   0  0  0  0  0  0  0  0  0  0  0  0
    2.3360   -2.1898   -2.3850 C   0  0  0  0  0  0  0  0  0  0  0  0
    2.9141   -3.2575   -2.2017 O   0  0  0  0  0  0  0  0  0  0  0  0
    1.1826   -2.0903   -3.3912 C   0  0  0  0  0  0  0  0  0  0  0  0
   -0.1115   -2.0347   -2.7867 O   0  0  0  0  0  0  0  0  0  0  0  0
   -0.4804   -0.8217   -2.3152 C   0  0  0  0  0  0  0  0  0  0  0  0
    0.2071    0.1879   -2.3479 O   0  0  0  0  0  0  0  0  0  0  0  0
   -1.8473   -0.8690   -1.7306 C   0  0  0  0  0  0  0  0  0  0  0  0
   -2.5907   -2.0519   -1.6488 C   0  0  0  0  0  0  0  0  0  0  0  0
   -3.8741   -2.0405   -1.0868 C   0  0  0  0  0  0  0  0  0  0  0  0
   -4.4388   -0.8517   -0.5961 C   0  0  0  0  0  0  0  0  0  0  0  0
   -3.6901    0.3126   -0.6837 C   0  0  0  0  0  0  0  0  0  0  0  0
   -2.4026    0.3186   -1.2430 C   0  0  0  0  0  0  0  0  0  0  0  0
   -4.3349    1.8280   -0.0961 S   0  0  0  0  0  6  0  0  0  0  0  0
   -4.5304    2.6624   -1.2642 O   0  0  0  0  0  0  0  0  0  0  0  0
   -3.4785    2.2324    1.0004 O   0  0  0  0  0  0  0  0  0  0  0  0
   -5.9183    1.5444    0.5858 C   0  0  0  0  0  0  0  0  0  0  0  0
   -6.5984    2.6335    1.1482 C   0  0  0  0  0  0  0  0  0  0  0  0
   -7.8639    2.4468    1.6988 C   0  0  0  0  0  0  0  0  0  0  0  0
   -8.4427    1.1801    1.6858 C   0  0  0  0  0  0  0  0  0  0  0  0
   -7.7546    0.1011    1.1229 C   0  0  0  0  0  0  0  0  0  0  0  0
   -6.4774    0.2742    0.5649 C   0  0  0  0  0  0  0  0  0  0  0  0
   -5.8006   -0.9098   -0.0145 C   0  0  0  0  0  0  0  0  0  0  0  0
   -6.3896   -1.9876   -0.0122 O   0  0  0  0  0  0  0  0  0  0  0  0
    4.5567   -1.6369   -0.3783 C   0  0  0  0  0  0  0  0  0  0  0  0
    5.5181   -1.2790    0.5752 C   0  0  0  0  0  0  0  0  0  0  0  0
    5.3240   -0.0608    3.8531 H   0  0  0  0  0  0  0  0  0  0  0  0
    5.3639    1.6540    3.4175 H   0  0  0  0  0  0  0  0  0  0  0  0
    6.7441    0.9210    4.2459 H   0  0  0  0  0  0  0  0  0  0  0  0
    7.2383   -0.5081    2.3238 H   0  0  0  0  0  0  0  0  0  0  0  0
    7.9902    1.2215    0.6959 H   0  0  0  0  0  0  0  0  0  0  0  0
    8.3286    1.6787    2.3725 H   0  0  0  0  0  0  0  0  0  0  0  0
    6.9847    2.4324    1.5048 H   0  0  0  0  0  0  0  0  0  0  0  0
    4.5963    1.9557    1.0690 H   0  0  0  0  0  0  0  0  0  0  0  0
    2.9204    1.3322   -0.5938 H   0  0  0  0  0  0  0  0  0  0  0  0
    1.9815   -0.2122   -1.9837 H   0  0  0  0  0  0  0  0  0  0  0  0
    1.2078   -2.9879   -4.0192 H   0  0  0  0  0  0  0  0  0  0  0  0
    1.3437   -1.2399   -4.0656 H   0  0  0  0  0  0  0  0  0  0  0  0
   -2.1889   -2.9955   -2.0139 H   0  0  0  0  0  0  0  0  0  0  0  0
   -4.4313   -2.9766   -1.0345 H   0  0  0  0  0  0  0  0  0  0  0  0
   -1.8389    1.2506   -1.2968 H   0  0  0  0  0  0  0  0  0  0  0  0
   -6.1456    3.6239    1.1575 H   0  0  0  0  0  0  0  0  0  0  0  0
   -8.3989    3.2865    2.1371 H   0  0  0  0  0  0  0  0  0  0  0  0
   -9.4313    1.0283    2.1141 H   0  0  0  0  0  0  0  0  0  0  0  0
   -8.2272   -0.8811    1.1245 H   0  0  0  0  0  0  0  0  0  0  0  0
    4.5788   -2.6515   -0.7629 H   0  0  0  0  0  0  0  0  0  0  0  0
    6.2407   -2.0289    0.8909 H   0  0  0  0  0  0  0  0  0  0  0  0
  1  2  1  0
  2  3  1  0
  2  4  1  0
  4  5  2  0
  5  6  1  0
  6  7  2  0
  7  8  1  0
  8  9  1  0
  9 10  2  0
  9 11  1  0
 11 12  1  0
 12 13  1  0
 13 14  2  0
 13 15  1  0
 15 16  2  0
 16 17  1  0
 17 18  2  0
 18 19  1  0
 19 20  2  0
 19 21  1  0
 21 22  2  0
 21 23  2  0
 21 24  1  0
 24 25  2  0
 25 26  1  0
 26 27  2  0
 27 28  1  0
 28 29  2  0
 29 30  1  0
 30 31  2  0
  7 32  1  0
 32 33  2  0
 33  4  1  0
 20 15  1  0
 29 24  1  0
 30 18  1  0
  1 34  1  0
  1 35  1  0
  1 36  1  0
  2 37  1  0
  3 38  1  0
  3 39  1  0
  3 40  1  0
  5 41  1  0
  6 42  1  0
  8 43  1  0
 11 44  1  0
 11 45  1  0
 16 46  1  0
 17 47  1  0
 20 48  1  0
 25 49  1  0
 26 50  1  0
 27 51  1  0
 28 52  1  0
 32 53  1  0
 33 54  1  0
M  END
$$$$
