
     RDKit          3D

 38 40  0  0  0  0  0  0  0  0999 V2000
   -5.2765    2.8456    1.0974 C   0  0  0  0  0  0  0  0  0  0  0  0
   -4.4791    1.7621    0.4318 C   0  0  0  0  0  0  0  0  0  0  0  0
   -3.5126    2.0858   -0.5307 C   0  0  0  0  0  0  0  0  0  0  0  0
   -2.7493    1.0839   -1.1319 C   0  0  0  0  0  0  0  0  0  0  0  0
   -2.9400   -0.2466   -0.7519 C   0  0  0  0  0  0  0  0  0  0  0  0
   -1.9814   -1.5286   -1.5150 S   0  0  0  0  0  6  0  0  0  0  0  0
   -2.8347   -2.6926   -1.6378 O   0  0  0  0  0  0  0  0  0  0  0  0
   -1.2956   -0.9855   -2.6674 O   0  0  0  0  0  0  0  0  0  0  0  0
   -0.8479   -1.9108   -0.3163 N   0  0  0  0  0  0  0  0  0  0  0  0
    0.2872   -1.0651   -0.1822 C   0  0  0  0  0  0  0  0  0  0  0  0
    0.2188    0.0485    0.6518 C   0  0  0  0  0  0  0  0  0  0  0  0
    1.3154    0.9019    0.7551 C   0  0  0  0  0  0  0  0  0  0  0  0
    2.4736    0.6380    0.0252 C   0  0  0  0  0  0  0  0  0  0  0  0
    3.5011    1.5253    0.1964 O   0  0  0  0  0  0  0  0  0  0  0  0
    2.5510   -0.4724   -0.8288 C   0  0  0  0  0  0  0  0  0  0  0  0
    3.9620   -0.8248   -1.8664 S   0  0  0  0  0  0  0  0  0  0  0  0
    5.1978   -1.1593   -0.6890 C   0  0  0  0  0  0  0  0  0  0  0  0
    5.6947   -2.4073   -0.4437 N   0  0  0  0  0  0  0  0  0  0  0  0
    6.5932   -2.1894    0.4873 C   0  0  0  0  0  0  0  0  0  0  0  0
    6.6302   -0.8632    0.7818 N   0  0  0  0  0  0  0  0  0  0  0  0
    5.7427   -0.1763    0.0401 N   0  0  0  0  0  0  0  0  0  0  0  0
    1.4385   -1.3199   -0.9300 C   0  0  0  0  0  0  0  0  0  0  0  0
   -3.8984   -0.5850    0.2065 C   0  0  0  0  0  0  0  0  0  0  0  0
   -4.6590    0.4221    0.8026 C   0  0  0  0  0  0  0  0  0  0  0  0
   -6.2656    2.4786    1.3908 H   0  0  0  0  0  0  0  0  0  0  0  0
   -5.4324    3.6897    0.4173 H   0  0  0  0  0  0  0  0  0  0  0  0
   -4.7518    3.2014    1.9893 H   0  0  0  0  0  0  0  0  0  0  0  0
   -3.3523    3.1222   -0.8214 H   0  0  0  0  0  0  0  0  0  0  0  0
   -2.0085    1.3486   -1.8836 H   0  0  0  0  0  0  0  0  0  0  0  0
   -0.6902   -2.9179   -0.2889 H   0  0  0  0  0  0  0  0  0  0  0  0
   -0.6769    0.2562    1.2307 H   0  0  0  0  0  0  0  0  0  0  0  0
    1.2717    1.7717    1.4051 H   0  0  0  0  0  0  0  0  0  0  0  0
    4.3294    1.0952   -0.1071 H   0  0  0  0  0  0  0  0  0  0  0  0
    7.2241   -2.9249    0.9659 H   0  0  0  0  0  0  0  0  0  0  0  0
    7.2125   -0.3710    1.4511 H   0  0  0  0  0  0  0  0  0  0  0  0
    1.4620   -2.1692   -1.6089 H   0  0  0  0  0  0  0  0  0  0  0  0
   -4.0552   -1.6226    0.4921 H   0  0  0  0  0  0  0  0  0  0  0  0
   -5.3986    0.1556    1.5550 H   0  0  0  0  0  0  0  0  0  0  0  0
  1  2  1  0
  2  3  2  0
  3  4  1  0
  4  5  2  0
  5  6  1  0
  6  7  2  0
  6  8  2  0
  6  9  1  0
  9 10  1  0
 10 11  2  0
 11 12  1  0
 12 13  2  0
 13 14  1  0
 13 15  1  0
 15 16  1  0
 16 17  1  0
 17 18  1  0
 18 19  2  0
 19 20  1  0
 20 21  1  0
 15 22  2  0
  5 23  1  0
 23 24  2  0
 24  2  1  0
 22 10  1  0
 21 17  2  0
  1 25  1  0
  1 26  1  0
  1 27  1  0
  3 28  1  0
  4 29  1  0
  9 30  1  0
 11 31  1  0
 12 32  1  0
 14 33  1  0
 19 34  1  0
 20 35  1  0
 22 36  1  0
 23 37  1  0
 24 38  1  0
M  END
$$$$
