
     RDKit          3D

 39 41  0  0  0  0  0  0  0  0999 V2000
   -4.7379    2.2353   -0.1501 C   0  0  0  0  0  0  0  0  0  0  0  0
   -3.7736    1.6236    0.7119 O   0  0  0  0  0  0  0  0  0  0  0  0
   -3.3213    0.4328    0.2027 C   0  0  0  0  0  0  0  0  0  0  0  0
   -3.5200   -0.7010    0.9934 C   0  0  0  0  0  0  0  0  0  0  0  0
   -3.0838   -1.9592    0.5538 C   0  0  0  0  0  0  0  0  0  0  0  0
   -3.3487   -3.1872    1.3760 C   0  0  0  0  0  0  0  0  0  0  0  0
   -2.4565   -2.0673   -0.6931 C   0  0  0  0  0  0  0  0  0  0  0  0
   -2.2247   -0.9298   -1.4718 C   0  0  0  0  0  0  0  0  0  0  0  0
   -2.6257    0.3221   -1.0072 C   0  0  0  0  0  0  0  0  0  0  0  0
   -2.3357    1.4095   -1.7901 O   0  0  0  0  0  0  0  0  0  0  0  0
   -1.2324    2.1374   -1.2587 C   0  0  0  0  0  0  0  0  0  0  0  0
    0.1362    1.4868   -1.5109 C   0  0  0  0  0  0  0  0  0  0  0  0
    0.4355    1.0421   -2.6144 O   0  0  0  0  0  0  0  0  0  0  0  0
    0.9353    1.4815   -0.3869 N   0  0  0  0  0  0  0  0  0  0  0  0
    2.2193    1.0136   -0.4145 C   0  0  0  0  0  0  0  0  0  0  0  0
    2.9364    0.5425   -1.4038 N   0  0  0  0  0  0  0  0  0  0  0  0
    4.2167    0.2029   -0.9919 N   0  0  0  0  0  0  0  0  0  0  0  0
    4.3897    0.4333    0.2919 C   0  0  0  0  0  0  0  0  0  0  0  0
    5.7470    0.1651    1.0125 C   0  0  0  0  0  0  0  0  0  0  0  0
    6.5018   -1.1068    0.7179 C   0  0  0  0  0  0  0  0  0  0  0  0
    5.8332   -0.9260    2.0507 C   0  0  0  0  0  0  0  0  0  0  0  0
    3.0246    1.0823    1.0943 S   0  0  0  0  0  0  0  0  0  0  0  0
   -5.4344    1.4985   -0.5726 H   0  0  0  0  0  0  0  0  0  0  0  0
   -5.3195    2.9457    0.4485 H   0  0  0  0  0  0  0  0  0  0  0  0
   -4.2469    2.8046   -0.9471 H   0  0  0  0  0  0  0  0  0  0  0  0
   -4.0271   -0.6001    1.9515 H   0  0  0  0  0  0  0  0  0  0  0  0
   -3.4420   -2.9358    2.4387 H   0  0  0  0  0  0  0  0  0  0  0  0
   -4.2779   -3.6658    1.0432 H   0  0  0  0  0  0  0  0  0  0  0  0
   -2.5262   -3.9046    1.2826 H   0  0  0  0  0  0  0  0  0  0  0  0
   -2.1366   -3.0373   -1.0660 H   0  0  0  0  0  0  0  0  0  0  0  0
   -1.7195   -1.0179   -2.4324 H   0  0  0  0  0  0  0  0  0  0  0  0
   -1.3763    2.3694   -0.1961 H   0  0  0  0  0  0  0  0  0  0  0  0
   -1.2099    3.1046   -1.7761 H   0  0  0  0  0  0  0  0  0  0  0  0
    0.5877    1.8014    0.5039 H   0  0  0  0  0  0  0  0  0  0  0  0
    6.3376    1.0609    1.1775 H   0  0  0  0  0  0  0  0  0  0  0  0
    7.5824   -1.0433    0.6683 H   0  0  0  0  0  0  0  0  0  0  0  0
    6.0698   -1.8205    0.0225 H   0  0  0  0  0  0  0  0  0  0  0  0
    4.9552   -1.5348    2.2582 H   0  0  0  0  0  0  0  0  0  0  0  0
    6.4682   -0.7584    2.9110 H   0  0  0  0  0  0  0  0  0  0  0  0
  1  2  1  0
  2  3  1  0
  3  4  2  0
  4  5  1  0
  5  6  1  0
  5  7  2  0
  7  8  1  0
  8  9  2  0
  9 10  1  0
 10 11  1  0
 11 12  1  0
 12 13  2  0
 12 14  1  0
 14 15  1  0
 15 16  2  0
 16 17  1  0
 17 18  2  0
 18 19  1  0
 19 20  1  0
 20 21  1  0
 18 22  1  0
  9  3  1  0
 22 15  1  0
 21 19  1  0
  1 23  1  0
  1 24  1  0
  1 25  1  0
  4 26  1  0
  6 27  1  0
  6 28  1  0
  6 29  1  0
  7 30  1  0
  8 31  1  0
 11 32  1  0
 11 33  1  0
 14 34  1  0
 19 35  1  0
 20 36  1  0
 20 37  1  0
 21 38  1  0
 21 39  1  0
M  END
$$$$
