
     RDKit          3D

 40 42  0  0  0  0  0  0  0  0999 V2000
    0.4520   -2.1855    2.1248 O   0  0  0  0  0  0  0  0  0  0  0  0
    1.2288   -1.5604    1.4008 C   0  0  0  0  0  0  0  0  0  0  0  0
    2.6887   -1.3804    1.7938 C   0  0  0  0  0  0  0  0  0  0  0  0
    3.6160   -0.8623    0.7173 C   0  0  0  0  0  0  0  0  0  0  0  0
    3.9830    0.4915    0.6831 C   0  0  0  0  0  0  0  0  0  0  0  0
    4.8154    0.9718   -0.3293 C   0  0  0  0  0  0  0  0  0  0  0  0
    5.2871    0.1064   -1.3159 C   0  0  0  0  0  0  0  0  0  0  0  0
    4.9277   -1.2406   -1.2916 C   0  0  0  0  0  0  0  0  0  0  0  0
    4.0946   -1.7239   -0.2808 C   0  0  0  0  0  0  0  0  0  0  0  0
    0.8156   -0.9681    0.2296 N   0  0  0  0  0  0  0  0  0  0  0  0
   -0.5950   -0.9165   -0.1276 C   0  0  0  0  0  0  0  0  0  0  0  0
   -1.3412    0.2198    0.6156 C   0  0  0  0  0  0  0  0  0  0  0  0
   -0.7231    1.4922    0.3037 O   0  0  0  0  0  0  0  0  0  0  0  0
   -1.1826    2.0550   -0.9245 C   0  0  0  0  0  0  0  0  0  0  0  0
   -2.6543    2.4260   -0.8078 C   0  0  0  0  0  0  0  0  0  0  0  0
   -3.4636    1.2384   -0.3594 C   0  0  0  0  0  0  0  0  0  0  0  0
   -4.8460    1.2002   -0.5853 C   0  0  0  0  0  0  0  0  0  0  0  0
   -5.6046    0.1233   -0.1265 C   0  0  0  0  0  0  0  0  0  0  0  0
   -4.9918   -0.9126    0.5743 C   0  0  0  0  0  0  0  0  0  0  0  0
   -3.6182   -0.8751    0.8154 C   0  0  0  0  0  0  0  0  0  0  0  0
   -2.8384    0.1962    0.3489 C   0  0  0  0  0  0  0  0  0  0  0  0
    3.0647   -2.3530    2.1384 H   0  0  0  0  0  0  0  0  0  0  0  0
    2.7129   -0.7072    2.6603 H   0  0  0  0  0  0  0  0  0  0  0  0
    3.6220    1.1819    1.4432 H   0  0  0  0  0  0  0  0  0  0  0  0
    5.0991    2.0218   -0.3477 H   0  0  0  0  0  0  0  0  0  0  0  0
    5.9374    0.4813   -2.1026 H   0  0  0  0  0  0  0  0  0  0  0  0
    5.2954   -1.9165   -2.0601 H   0  0  0  0  0  0  0  0  0  0  0  0
    3.8171   -2.7771   -0.2781 H   0  0  0  0  0  0  0  0  0  0  0  0
    1.4155   -0.2662   -0.1894 H   0  0  0  0  0  0  0  0  0  0  0  0
   -0.6309   -0.7729   -1.2129 H   0  0  0  0  0  0  0  0  0  0  0  0
   -1.0422   -1.8931    0.0924 H   0  0  0  0  0  0  0  0  0  0  0  0
   -1.1972    0.0948    1.6963 H   0  0  0  0  0  0  0  0  0  0  0  0
   -0.5896    2.9546   -1.1213 H   0  0  0  0  0  0  0  0  0  0  0  0
   -1.0017    1.3611   -1.7533 H   0  0  0  0  0  0  0  0  0  0  0  0
   -3.0148    2.7989   -1.7726 H   0  0  0  0  0  0  0  0  0  0  0  0
   -2.7785    3.2180   -0.0594 H   0  0  0  0  0  0  0  0  0  0  0  0
   -5.3394    2.0128   -1.1148 H   0  0  0  0  0  0  0  0  0  0  0  0
   -6.6764    0.0985   -0.3053 H   0  0  0  0  0  0  0  0  0  0  0  0
   -5.5851   -1.7470    0.9421 H   0  0  0  0  0  0  0  0  0  0  0  0
   -3.1586   -1.6860    1.3799 H   0  0  0  0  0  0  0  0  0  0  0  0
  1  2  2  0
  2  3  1  0
  3  4  1  0
  4  5  2  0
  5  6  1  0
  6  7  2  0
  7  8  1  0
  8  9  2  0
  2 10  1  0
 10 11  1  0
 11 12  1  0
 12 13  1  0
 13 14  1  0
 14 15  1  0
 15 16  1  0
 16 17  2  0
 17 18  1  0
 18 19  2  0
 19 20  1  0
 20 21  2  0
  9  4  1  0
 21 12  1  0
 21 16  1  0
  3 22  1  0
  3 23  1  0
  5 24  1  0
  6 25  1  0
  7 26  1  0
  8 27  1  0
  9 28  1  0
 10 29  1  0
 11 30  1  0
 11 31  1  0
 12 32  1  0
 14 33  1  0
 14 34  1  0
 15 35  1  0
 15 36  1  0
 17 37  1  0
 18 38  1  0
 19 39  1  0
 20 40  1  0
M  END
$$$$
