
     RDKit          3D

 40 42  0  0  0  0  0  0  0  0999 V2000
    2.3646   -0.8768    1.6479 O   0  0  0  0  0  0  0  0  0  0  0  0
    2.6785   -0.1867    0.6865 C   0  0  0  0  0  0  0  0  0  0  0  0
    1.9666   -0.0169   -0.4870 N   0  0  0  0  0  0  0  0  0  0  0  0
    0.6980   -0.5482   -0.8023 C   0  0  0  0  0  0  0  0  0  0  0  0
    0.1978   -0.2870   -2.0868 C   0  0  0  0  0  0  0  0  0  0  0  0
   -1.0560   -0.7656   -2.4778 C   0  0  0  0  0  0  0  0  0  0  0  0
   -1.8208   -1.5039   -1.5733 C   0  0  0  0  0  0  0  0  0  0  0  0
   -3.4137   -2.1221   -2.0728 S   0  0  0  0  0  6  0  0  0  0  0  0
   -3.3475   -2.3680   -3.4986 O   0  0  0  0  0  0  0  0  0  0  0  0
   -3.7954   -3.1754   -1.1551 O   0  0  0  0  0  0  0  0  0  0  0  0
   -4.4379   -0.8042   -1.8608 N   0  0  0  0  0  0  0  0  0  0  0  0
   -4.4356   -0.2012   -0.5905 C   0  0  0  0  0  0  0  0  0  0  0  0
   -4.8957   -0.8336    0.5515 C   0  0  0  0  0  0  0  0  0  0  0  0
   -4.7947   -0.1479    1.7570 C   0  0  0  0  0  0  0  0  0  0  0  0
   -4.2456    1.1302    1.7681 C   0  0  0  0  0  0  0  0  0  0  0  0
   -3.8248    1.6754    0.5642 C   0  0  0  0  0  0  0  0  0  0  0  0
   -3.9113    1.0363   -0.6232 N   0  0  0  0  0  0  0  0  0  0  0  0
   -1.3282   -1.7901   -0.2991 C   0  0  0  0  0  0  0  0  0  0  0  0
   -0.0743   -1.3029    0.0849 C   0  0  0  0  0  0  0  0  0  0  0  0
    3.9794    0.5353    0.7384 C   0  0  0  0  0  0  0  0  0  0  0  0
    5.0655   -0.0896    1.3658 C   0  0  0  0  0  0  0  0  0  0  0  0
    6.3001    0.5570    1.4385 C   0  0  0  0  0  0  0  0  0  0  0  0
    6.4502    1.8334    0.8951 C   0  0  0  0  0  0  0  0  0  0  0  0
    5.3622    2.4600    0.2873 C   0  0  0  0  0  0  0  0  0  0  0  0
    5.5646    4.1991   -0.4277 Br  0  0  0  0  0  0  0  0  0  0  0  0
    4.1241    1.8226    0.2071 C   0  0  0  0  0  0  0  0  0  0  0  0
    2.4237    0.4910   -1.2325 H   0  0  0  0  0  0  0  0  0  0  0  0
    0.7769    0.2907   -2.8031 H   0  0  0  0  0  0  0  0  0  0  0  0
   -1.4237   -0.5595   -3.4804 H   0  0  0  0  0  0  0  0  0  0  0  0
   -4.3013   -0.1096   -2.5913 H   0  0  0  0  0  0  0  0  0  0  0  0
   -5.3186   -1.8316    0.5131 H   0  0  0  0  0  0  0  0  0  0  0  0
   -5.1374   -0.6089    2.6795 H   0  0  0  0  0  0  0  0  0  0  0  0
   -4.1475    1.6881    2.6929 H   0  0  0  0  0  0  0  0  0  0  0  0
   -3.3882    2.6695    0.5258 H   0  0  0  0  0  0  0  0  0  0  0  0
   -1.9079   -2.3826    0.4054 H   0  0  0  0  0  0  0  0  0  0  0  0
    0.2709   -1.5332    1.0884 H   0  0  0  0  0  0  0  0  0  0  0  0
    4.9489   -1.0828    1.7974 H   0  0  0  0  0  0  0  0  0  0  0  0
    7.1418    0.0677    1.9232 H   0  0  0  0  0  0  0  0  0  0  0  0
    7.4141    2.3327    0.9592 H   0  0  0  0  0  0  0  0  0  0  0  0
    3.2782    2.3393   -0.2367 H   0  0  0  0  0  0  0  0  0  0  0  0
  1  2  2  0
  2  3  1  0
  3  4  1  0
  4  5  2  0
  5  6  1  0
  6  7  2  0
  7  8  1  0
  8  9  2  0
  8 10  2  0
  8 11  1  0
 11 12  1  0
 12 13  2  0
 13 14  1  0
 14 15  2  0
 15 16  1  0
 16 17  2  0
  7 18  1  0
 18 19  2  0
  2 20  1  0
 20 21  2  0
 21 22  1  0
 22 23  2  0
 23 24  1  0
 24 25  1  0
 24 26  2  0
 19  4  1  0
 26 20  1  0
 17 12  1  0
  3 27  1  0
  5 28  1  0
  6 29  1  0
 11 30  1  0
 13 31  1  0
 14 32  1  0
 15 33  1  0
 16 34  1  0
 18 35  1  0
 19 36  1  0
 21 37  1  0
 22 38  1  0
 23 39  1  0
 26 40  1  0
M  END
$$$$
