
     RDKit          3D

 39 41  0  0  0  0  0  0  0  0999 V2000
   -5.6141    2.4263    0.8608 C   0  0  0  0  0  0  0  0  0  0  0  0
   -6.0871    1.2990    0.1325 O   0  0  0  0  0  0  0  0  0  0  0  0
   -5.1712    0.3149   -0.1391 C   0  0  0  0  0  0  0  0  0  0  0  0
   -3.8469    0.2760    0.3007 C   0  0  0  0  0  0  0  0  0  0  0  0
   -3.0124   -0.7946   -0.0623 C   0  0  0  0  0  0  0  0  0  0  0  0
   -1.6210   -0.8690    0.3992 C   0  0  0  0  0  0  0  0  0  0  0  0
   -0.6390   -0.0081    0.0991 C   0  0  0  0  0  0  0  0  0  0  0  0
   -0.7234    1.4008   -0.8938 S   0  0  0  0  0  0  0  0  0  0  0  0
    0.9892    1.7694   -0.6977 C   0  0  0  0  0  0  0  0  0  0  0  0
    1.7219    3.1124   -1.3621 S   0  0  0  0  0  0  0  0  0  0  0  0
    1.5541    0.8031    0.1084 N   0  0  0  0  0  0  0  0  0  0  0  0
    2.9337    0.7662    0.3955 N   0  0  0  0  0  0  0  0  0  0  0  0
    3.7108    0.0132   -0.4714 C   0  0  0  0  0  0  0  0  0  0  0  0
    3.2927   -0.4463   -1.5297 O   0  0  0  0  0  0  0  0  0  0  0  0
    5.0988   -0.2625   -0.0388 C   0  0  0  0  0  0  0  0  0  0  0  0
    5.7526   -1.4078   -0.4972 C   0  0  0  0  0  0  0  0  0  0  0  0
    7.0585   -1.6627   -0.0847 C   0  0  0  0  0  0  0  0  0  0  0  0
    7.6669   -0.7566    0.7696 C   0  0  0  0  0  0  0  0  0  0  0  0
    7.0677    0.3684    1.2205 N   0  0  0  0  0  0  0  0  0  0  0  0
    5.8014    0.5970    0.7957 C   0  0  0  0  0  0  0  0  0  0  0  0
    0.7447   -0.1984    0.6141 C   0  0  0  0  0  0  0  0  0  0  0  0
    1.0857   -1.0774    1.3949 O   0  0  0  0  0  0  0  0  0  0  0  0
   -3.5200   -1.8372   -0.8488 C   0  0  0  0  0  0  0  0  0  0  0  0
   -4.8433   -1.8069   -1.2858 C   0  0  0  0  0  0  0  0  0  0  0  0
   -5.6513   -0.7359   -0.9288 C   0  0  0  0  0  0  0  0  0  0  0  0
   -6.9465   -0.7293   -1.3706 O   0  0  0  0  0  0  0  0  0  0  0  0
   -5.3028    2.1392    1.8705 H   0  0  0  0  0  0  0  0  0  0  0  0
   -6.4435    3.1336    0.9568 H   0  0  0  0  0  0  0  0  0  0  0  0
   -4.8044    2.9330    0.3250 H   0  0  0  0  0  0  0  0  0  0  0  0
   -3.4437    1.0627    0.9292 H   0  0  0  0  0  0  0  0  0  0  0  0
   -1.4009   -1.7379    1.0192 H   0  0  0  0  0  0  0  0  0  0  0  0
    3.1533    0.7507    1.3874 H   0  0  0  0  0  0  0  0  0  0  0  0
    5.2490   -2.0991   -1.1695 H   0  0  0  0  0  0  0  0  0  0  0  0
    7.5885   -2.5467   -0.4231 H   0  0  0  0  0  0  0  0  0  0  0  0
    8.6837   -0.9132    1.1200 H   0  0  0  0  0  0  0  0  0  0  0  0
    5.3789    1.5318    1.1519 H   0  0  0  0  0  0  0  0  0  0  0  0
   -2.8895   -2.6773   -1.1320 H   0  0  0  0  0  0  0  0  0  0  0  0
   -5.2418   -2.6093   -1.8994 H   0  0  0  0  0  0  0  0  0  0  0  0
   -7.3292    0.0969   -1.0166 H   0  0  0  0  0  0  0  0  0  0  0  0
  1  2  1  0
  2  3  1  0
  3  4  2  0
  4  5  1  0
  5  6  1  0
  6  7  2  3
  7  8  1  0
  8  9  1  0
  9 10  2  0
  9 11  1  0
 11 12  1  0
 12 13  1  0
 13 14  2  0
 13 15  1  0
 15 16  2  0
 16 17  1  0
 17 18  2  0
 18 19  1  0
 19 20  2  0
 11 21  1  0
 21 22  2  0
  5 23  2  0
 23 24  1  0
 24 25  2  0
 25 26  1  0
 25  3  1  0
 21  7  1  0
 20 15  1  0
  1 27  1  0
  1 28  1  0
  1 29  1  0
  4 30  1  0
  6 31  1  0
 12 32  1  0
 16 33  1  0
 17 34  1  0
 18 35  1  0
 20 36  1  0
 23 37  1  0
 24 38  1  0
 26 39  1  0
M  END
$$$$
