
     RDKit          3D

 42 44  0  0  0  0  0  0  0  0999 V2000
    4.8703    1.0016    5.6780 C   0  0  0  0  0  0  0  0  0  0  0  0
    3.4518    0.8952    5.6436 O   0  0  0  0  0  0  0  0  0  0  0  0
    2.8723    0.7122    4.4184 C   0  0  0  0  0  0  0  0  0  0  0  0
    3.5415    0.6207    3.2037 C   0  0  0  0  0  0  0  0  0  0  0  0
    2.8163    0.4325    2.0242 C   0  0  0  0  0  0  0  0  0  0  0  0
    1.4130    0.3327    2.0382 C   0  0  0  0  0  0  0  0  0  0  0  0
    0.7503    0.1315    0.7059 C   0  0  0  0  0  0  0  0  0  0  0  0
    1.4290    0.0625   -0.3192 O   0  0  0  0  0  0  0  0  0  0  0  0
   -0.6342    0.0286    0.6816 N   0  0  0  0  0  0  0  0  0  0  0  0
   -1.4999   -0.1573   -0.3899 C   0  0  0  0  0  0  0  0  0  0  0  0
   -3.1223   -0.2300   -0.0029 S   0  0  0  0  0  0  0  0  0  0  0  0
   -0.8733   -0.2526   -1.6108 N   0  0  0  0  0  0  0  0  0  0  0  0
   -1.3222   -0.4378   -2.9374 C   0  0  0  0  0  0  0  0  0  0  0  0
   -0.2960   -0.4773   -3.9251 C   0  0  0  0  0  0  0  0  0  0  0  0
   -0.5719   -0.6542   -5.2880 C   0  0  0  0  0  0  0  0  0  0  0  0
   -1.8916   -0.7888   -5.6288 C   0  0  0  0  0  0  0  0  0  0  0  0
   -2.4780   -0.9746   -6.8749 N   0  0  0  0  0  0  0  0  0  0  0  0
   -3.8684   -1.0561   -6.7100 C   0  0  0  0  0  0  0  0  0  0  0  0
   -4.6959   -1.2171   -7.5889 O   0  0  0  0  0  0  0  0  0  0  0  0
   -4.1180   -0.9161   -5.3374 N   0  0  0  0  0  0  0  0  0  0  0  0
   -2.9044   -0.7522   -4.6759 C   0  0  0  0  0  0  0  0  0  0  0  0
   -2.6561   -0.5794   -3.3306 C   0  0  0  0  0  0  0  0  0  0  0  0
    0.7329    0.4253    3.2689 C   0  0  0  0  0  0  0  0  0  0  0  0
   -0.6356    0.3242    3.2497 O   0  0  0  0  0  0  0  0  0  0  0  0
   -1.3310    0.4168    4.4907 C   0  0  0  0  0  0  0  0  0  0  0  0
    1.4760    0.6143    4.4441 C   0  0  0  0  0  0  0  0  0  0  0  0
    5.3435    0.0824    5.3173 H   0  0  0  0  0  0  0  0  0  0  0  0
    5.2141    1.8731    5.1112 H   0  0  0  0  0  0  0  0  0  0  0  0
    5.1695    1.1433    6.7210 H   0  0  0  0  0  0  0  0  0  0  0  0
    4.6222    0.6907    3.1335 H   0  0  0  0  0  0  0  0  0  0  0  0
    3.3617    0.3636    1.0834 H   0  0  0  0  0  0  0  0  0  0  0  0
   -1.1083    0.0974    1.5765 H   0  0  0  0  0  0  0  0  0  0  0  0
    0.1419   -0.1693   -1.5243 H   0  0  0  0  0  0  0  0  0  0  0  0
    0.7464   -0.3676   -3.6265 H   0  0  0  0  0  0  0  0  0  0  0  0
    0.2212   -0.6817   -6.0243 H   0  0  0  0  0  0  0  0  0  0  0  0
   -2.0150   -1.0437   -7.7658 H   0  0  0  0  0  0  0  0  0  0  0  0
   -5.0372   -0.9353   -4.9271 H   0  0  0  0  0  0  0  0  0  0  0  0
   -3.4895   -0.5610   -2.6479 H   0  0  0  0  0  0  0  0  0  0  0  0
   -2.3999    0.3153    4.2799 H   0  0  0  0  0  0  0  0  0  0  0  0
   -1.1752    1.3949    4.9572 H   0  0  0  0  0  0  0  0  0  0  0  0
   -1.0457   -0.3982    5.1637 H   0  0  0  0  0  0  0  0  0  0  0  0
    0.9958    0.6914    5.4153 H   0  0  0  0  0  0  0  0  0  0  0  0
  1  2  1  0
  2  3  1  0
  3  4  2  0
  4  5  1  0
  5  6  2  0
  6  7  1  0
  7  8  2  0
  7  9  1  0
  9 10  1  0
 10 11  2  0
 10 12  1  0
 12 13  1  0
 13 14  2  0
 14 15  1  0
 15 16  2  0
 16 17  1  0
 17 18  1  0
 18 19  2  0
 18 20  1  0
 20 21  1  0
 21 22  2  0
  6 23  1  0
 23 24  1  0
 24 25  1  0
 23 26  2  0
 26  3  1  0
 22 13  1  0
 21 16  1  0
  1 27  1  0
  1 28  1  0
  1 29  1  0
  4 30  1  0
  5 31  1  0
  9 32  1  0
 12 33  1  0
 14 34  1  0
 15 35  1  0
 17 36  1  0
 20 37  1  0
 22 38  1  0
 25 39  1  0
 25 40  1  0
 25 41  1  0
 26 42  1  0
M  END
$$$$
