
     RDKit          3D

 57 60  0  0  0  0  0  0  0  0999 V2000
   -7.8689    2.6332    1.3486 C   0  0  0  0  0  0  0  0  0  0  0  0
   -7.3193    1.4379    1.8868 O   0  0  0  0  0  0  0  0  0  0  0  0
   -6.2414    0.8983    1.2386 C   0  0  0  0  0  0  0  0  0  0  0  0
   -5.6515   -0.1815    1.8985 C   0  0  0  0  0  0  0  0  0  0  0  0
   -4.5374   -0.8304    1.3598 C   0  0  0  0  0  0  0  0  0  0  0  0
   -4.0062   -0.4054    0.1446 C   0  0  0  0  0  0  0  0  0  0  0  0
   -2.8772   -0.9916   -0.4677 N   0  0  0  0  0  0  0  0  0  0  0  0
   -2.0868   -2.0271   -0.0044 C   0  0  0  0  0  0  0  0  0  0  0  0
   -2.2481   -2.6542    1.0396 O   0  0  0  0  0  0  0  0  0  0  0  0
   -0.9403   -2.3640   -0.9384 C   0  0  0  0  0  0  0  0  0  0  0  0
    0.2025   -1.4919   -0.7212 N   0  0  0  0  0  0  0  0  0  0  0  0
    1.1345   -1.6957    0.2630 C   0  0  0  0  0  0  0  0  0  0  0  0
    2.0593   -0.6760    0.1884 C   0  0  0  0  0  0  0  0  0  0  0  0
    3.4626   -0.5118    1.1929 S   0  0  0  0  0  6  0  0  0  0  0  0
    3.4770    0.8905    1.5633 O   0  0  0  0  0  0  0  0  0  0  0  0
    3.3246   -1.5794    2.1667 O   0  0  0  0  0  0  0  0  0  0  0  0
    4.7947   -0.8766    0.0544 C   0  0  0  0  0  0  0  0  0  0  0  0
    6.0958   -0.9301    0.8114 C   0  0  0  0  0  0  0  0  0  0  0  0
    6.5661   -2.1484    1.3240 C   0  0  0  0  0  0  0  0  0  0  0  0
    7.7687   -2.2022    2.0296 C   0  0  0  0  0  0  0  0  0  0  0  0
    8.5118   -1.0411    2.2322 C   0  0  0  0  0  0  0  0  0  0  0  0
    8.0511    0.1760    1.7333 C   0  0  0  0  0  0  0  0  0  0  0  0
    6.8483    0.2336    1.0268 C   0  0  0  0  0  0  0  0  0  0  0  0
    1.6799    0.1842   -0.8830 C   0  0  0  0  0  0  0  0  0  0  0  0
    2.2027    1.3766   -1.4312 C   0  0  0  0  0  0  0  0  0  0  0  0
    1.5828    1.9676   -2.5368 C   0  0  0  0  0  0  0  0  0  0  0  0
    0.4545    1.3891   -3.1051 C   0  0  0  0  0  0  0  0  0  0  0  0
   -0.0923    0.2144   -2.5810 C   0  0  0  0  0  0  0  0  0  0  0  0
    0.5277   -0.3700   -1.4619 C   0  0  0  0  0  0  0  0  0  0  0  0
   -4.6080    0.6753   -0.5383 C   0  0  0  0  0  0  0  0  0  0  0  0
   -4.0174    1.0030   -1.7397 O   0  0  0  0  0  0  0  0  0  0  0  0
   -4.6065    2.0617   -2.4853 C   0  0  0  0  0  0  0  0  0  0  0  0
   -5.7203    1.3241    0.0145 C   0  0  0  0  0  0  0  0  0  0  0  0
   -7.1172    3.4274    1.2932 H   0  0  0  0  0  0  0  0  0  0  0  0
   -8.3244    2.4515    0.3699 H   0  0  0  0  0  0  0  0  0  0  0  0
   -8.6585    2.9693    2.0263 H   0  0  0  0  0  0  0  0  0  0  0  0
   -6.0573   -0.5197    2.8498 H   0  0  0  0  0  0  0  0  0  0  0  0
   -4.1093   -1.6574    1.9174 H   0  0  0  0  0  0  0  0  0  0  0  0
   -2.6111   -0.5236   -1.3297 H   0  0  0  0  0  0  0  0  0  0  0  0
   -1.2537   -2.3008   -1.9834 H   0  0  0  0  0  0  0  0  0  0  0  0
   -0.6165   -3.3949   -0.7595 H   0  0  0  0  0  0  0  0  0  0  0  0
    1.0627   -2.5346    0.9479 H   0  0  0  0  0  0  0  0  0  0  0  0
    4.8238   -0.0991   -0.7158 H   0  0  0  0  0  0  0  0  0  0  0  0
    4.5842   -1.8391   -0.4239 H   0  0  0  0  0  0  0  0  0  0  0  0
    5.9920   -3.0643    1.1907 H   0  0  0  0  0  0  0  0  0  0  0  0
    8.1204   -3.1498    2.4297 H   0  0  0  0  0  0  0  0  0  0  0  0
    9.4454   -1.0830    2.7870 H   0  0  0  0  0  0  0  0  0  0  0  0
    8.6264    1.0837    1.9024 H   0  0  0  0  0  0  0  0  0  0  0  0
    6.5005    1.1973    0.6581 H   0  0  0  0  0  0  0  0  0  0  0  0
    3.0758    1.8535   -0.9915 H   0  0  0  0  0  0  0  0  0  0  0  0
    1.9867    2.8894   -2.9504 H   0  0  0  0  0  0  0  0  0  0  0  0
   -0.0142    1.8621   -3.9659 H   0  0  0  0  0  0  0  0  0  0  0  0
   -0.9736   -0.2185   -3.0425 H   0  0  0  0  0  0  0  0  0  0  0  0
   -4.0428    2.1655   -3.4172 H   0  0  0  0  0  0  0  0  0  0  0  0
   -4.5372    3.0121   -1.9481 H   0  0  0  0  0  0  0  0  0  0  0  0
   -5.6444    1.8314   -2.7520 H   0  0  0  0  0  0  0  0  0  0  0  0
   -6.1807    2.1537   -0.5039 H   0  0  0  0  0  0  0  0  0  0  0  0
  1  2  1  0
  2  3  1  0
  3  4  2  0
  4  5  1  0
  5  6  2  0
  6  7  1  0
  7  8  1  0
  8  9  2  0
  8 10  1  0
 10 11  1  0
 11 12  1  0
 12 13  2  0
 13 14  1  0
 14 15  2  0
 14 16  2  0
 14 17  1  0
 17 18  1  0
 18 19  2  0
 19 20  1  0
 20 21  2  0
 21 22  1  0
 22 23  2  0
 13 24  1  0
 24 25  2  0
 25 26  1  0
 26 27  2  0
 27 28  1  0
 28 29  2  0
  6 30  1  0
 30 31  1  0
 31 32  1  0
 30 33  2  0
 33  3  1  0
 29 11  1  0
 23 18  1  0
 29 24  1  0
  1 34  1  0
  1 35  1  0
  1 36  1  0
  4 37  1  0
  5 38  1  0
  7 39  1  0
 10 40  1  0
 10 41  1  0
 12 42  1  0
 17 43  1  0
 17 44  1  0
 19 45  1  0
 20 46  1  0
 21 47  1  0
 22 48  1  0
 23 49  1  0
 25 50  1  0
 26 51  1  0
 27 52  1  0
 28 53  1  0
 32 54  1  0
 32 55  1  0
 32 56  1  0
 33 57  1  0
M  END
$$$$
