
     RDKit          3D

 36 38  0  0  0  0  0  0  0  0999 V2000
    4.5987    2.6897   -0.7081 C   0  0  0  0  0  0  0  0  0  0  0  0
    4.2355    1.2879   -0.3120 C   0  0  0  0  0  0  0  0  0  0  0  0
    5.2375    0.3626   -0.0067 C   0  0  0  0  0  0  0  0  0  0  0  0
    4.9287   -0.9403    0.3960 C   0  0  0  0  0  0  0  0  0  0  0  0
    3.5772   -1.2879    0.4946 C   0  0  0  0  0  0  0  0  0  0  0  0
    2.9981   -2.4799    0.8622 N   0  0  0  0  0  0  0  0  0  0  0  0
    1.6312   -2.3761    0.8249 C   0  0  0  0  0  0  0  0  0  0  0  0
    1.3120   -1.0950    0.4275 C   0  0  0  0  0  0  0  0  0  0  0  0
   -0.0058   -0.5652    0.2530 C   0  0  0  0  0  0  0  0  0  0  0  0
   -1.1565   -1.2009    0.5340 C   0  0  0  0  0  0  0  0  0  0  0  0
   -2.4823   -0.6053    0.3375 C   0  0  0  0  0  0  0  0  0  0  0  0
   -3.4631   -0.7908    1.3097 C   0  0  0  0  0  0  0  0  0  0  0  0
   -4.7305   -0.2505    1.1228 C   0  0  0  0  0  0  0  0  0  0  0  0
   -5.0232    0.4468    0.0026 N   0  0  0  0  0  4  0  0  0  0  0  0
   -6.3759    1.0004   -0.1791 C   0  0  0  0  0  0  0  0  0  0  0  0
   -4.0958    0.6181   -0.9657 C   0  0  0  0  0  0  0  0  0  0  0  0
   -2.8149    0.0978   -0.8195 C   0  0  0  0  0  0  0  0  0  0  0  0
    2.5428   -0.3946    0.2130 C   0  0  0  0  0  0  0  0  0  0  0  0
    2.8852    0.9161   -0.1901 C   0  0  0  0  0  0  0  0  0  0  0  0
    3.8407    3.1164   -1.3734 H   0  0  0  0  0  0  0  0  0  0  0  0
    5.5513    2.7090   -1.2478 H   0  0  0  0  0  0  0  0  0  0  0  0
    4.6830    3.3197    0.1827 H   0  0  0  0  0  0  0  0  0  0  0  0
    6.2849    0.6513   -0.0809 H   0  0  0  0  0  0  0  0  0  0  0  0
    5.7174   -1.6498    0.6256 H   0  0  0  0  0  0  0  0  0  0  0  0
    3.5151   -3.3093    1.1208 H   0  0  0  0  0  0  0  0  0  0  0  0
    1.0220   -3.2309    1.0835 H   0  0  0  0  0  0  0  0  0  0  0  0
   -0.0496    0.4517   -0.1305 H   0  0  0  0  0  0  0  0  0  0  0  0
   -1.1427   -2.2048    0.9521 H   0  0  0  0  0  0  0  0  0  0  0  0
   -3.2452   -1.3470    2.2201 H   0  0  0  0  0  0  0  0  0  0  0  0
   -5.5169   -0.3733    1.8624 H   0  0  0  0  0  0  0  0  0  0  0  0
   -6.9733    0.2424   -0.6917 H   0  0  0  0  0  0  0  0  0  0  0  0
   -6.3109    1.9147   -0.7747 H   0  0  0  0  0  0  0  0  0  0  0  0
   -6.8019    1.2361    0.7996 H   0  0  0  0  0  0  0  0  0  0  0  0
   -4.3894    1.1674   -1.8559 H   0  0  0  0  0  0  0  0  0  0  0  0
   -2.0880    0.2348   -1.6182 H   0  0  0  0  0  0  0  0  0  0  0  0
    2.1044    1.6387   -0.4063 H   0  0  0  0  0  0  0  0  0  0  0  0
  1  2  1  0
  2  3  2  0
  3  4  1  0
  4  5  2  0
  5  6  1  0
  6  7  1  0
  7  8  2  0
  8  9  1  0
  9 10  2  3
 10 11  1  0
 11 12  2  0
 12 13  1  0
 13 14  2  0
 14 15  1  0
 14 16  1  0
 16 17  2  0
  8 18  1  0
 18 19  2  0
 19  2  1  0
 18  5  1  0
 17 11  1  0
  1 20  1  0
  1 21  1  0
  1 22  1  0
  3 23  1  0
  4 24  1  0
  6 25  1  0
  7 26  1  0
  9 27  1  0
 10 28  1  0
 12 29  1  0
 13 30  1  0
 15 31  1  0
 15 32  1  0
 15 33  1  0
 16 34  1  0
 17 35  1  0
 19 36  1  0
M  CHG  1  14   1
M  END
$$$$
