
     RDKit          3D

 43 45  0  0  0  0  0  0  0  0999 V2000
    6.1064   -2.2662   -1.4820 C   0  0  0  0  0  0  0  0  0  0  0  0
    4.7006   -2.3171   -1.6896 O   0  0  0  0  0  0  0  0  0  0  0  0
    3.9356   -1.4020   -1.0202 C   0  0  0  0  0  0  0  0  0  0  0  0
    2.5653   -1.5144   -1.2534 C   0  0  0  0  0  0  0  0  0  0  0  0
    1.6603   -0.6461   -0.6382 C   0  0  0  0  0  0  0  0  0  0  0  0
    2.1114    0.3530    0.2303 C   0  0  0  0  0  0  0  0  0  0  0  0
    1.2537    1.3064    0.8395 N   0  0  0  0  0  0  0  0  0  0  0  0
   -0.1024    1.4153    0.7394 C   0  0  0  0  0  0  0  0  0  0  0  0
   -0.8179    1.5779    1.8114 N   0  0  0  0  0  0  0  0  0  0  0  0
   -2.1691    1.7170    1.5700 C   0  0  0  0  0  0  0  0  0  0  0  0
   -2.9745    1.9256    2.4714 O   0  0  0  0  0  0  0  0  0  0  0  0
   -2.7254    1.6533    0.1459 C   0  0  0  0  0  0  0  0  0  0  0  0
   -4.2175    1.7266   -0.0347 C   0  0  0  0  0  0  0  0  0  0  0  0
   -4.8674    0.3703    0.0809 C   0  0  0  0  0  0  0  0  0  0  0  0
   -5.4283   -0.0501    1.2941 C   0  0  0  0  0  0  0  0  0  0  0  0
   -6.0076   -1.3151    1.4039 C   0  0  0  0  0  0  0  0  0  0  0  0
   -6.0277   -2.1723    0.3053 C   0  0  0  0  0  0  0  0  0  0  0  0
   -5.4654   -1.7672   -0.9036 C   0  0  0  0  0  0  0  0  0  0  0  0
   -4.8849   -0.5030   -1.0156 C   0  0  0  0  0  0  0  0  0  0  0  0
   -1.9265    1.5293   -0.8781 N   0  0  0  0  0  0  0  0  0  0  0  0
   -0.6111    1.4273   -0.5385 N   0  0  0  0  0  0  0  0  0  0  0  0
    3.5035    0.4646    0.4653 C   0  0  0  0  0  0  0  0  0  0  0  0
    3.8613    1.4644    1.3424 O   0  0  0  0  0  0  0  0  0  0  0  0
    5.2496    1.6753    1.5661 C   0  0  0  0  0  0  0  0  0  0  0  0
    4.4045   -0.4113   -0.1565 C   0  0  0  0  0  0  0  0  0  0  0  0
    6.3575   -2.4549   -0.4331 H   0  0  0  0  0  0  0  0  0  0  0  0
    6.5619   -3.0603   -2.0815 H   0  0  0  0  0  0  0  0  0  0  0  0
    6.5210   -1.3119   -1.8231 H   0  0  0  0  0  0  0  0  0  0  0  0
    2.1948   -2.2925   -1.9176 H   0  0  0  0  0  0  0  0  0  0  0  0
    0.6021   -0.7980   -0.8306 H   0  0  0  0  0  0  0  0  0  0  0  0
    1.6068    1.5231    1.7701 H   0  0  0  0  0  0  0  0  0  0  0  0
   -4.4319    2.1465   -1.0257 H   0  0  0  0  0  0  0  0  0  0  0  0
   -4.6517    2.4296    0.6848 H   0  0  0  0  0  0  0  0  0  0  0  0
   -5.4130    0.6028    2.1655 H   0  0  0  0  0  0  0  0  0  0  0  0
   -6.4398   -1.6321    2.3495 H   0  0  0  0  0  0  0  0  0  0  0  0
   -6.4781   -3.1574    0.3931 H   0  0  0  0  0  0  0  0  0  0  0  0
   -5.4761   -2.4372   -1.7592 H   0  0  0  0  0  0  0  0  0  0  0  0
   -4.4420   -0.2040   -1.9637 H   0  0  0  0  0  0  0  0  0  0  0  0
    0.0714    1.4670   -1.2933 H   0  0  0  0  0  0  0  0  0  0  0  0
    5.3524    2.5239    2.2492 H   0  0  0  0  0  0  0  0  0  0  0  0
    5.7070    0.8045    2.0468 H   0  0  0  0  0  0  0  0  0  0  0  0
    5.7660    1.9330    0.6356 H   0  0  0  0  0  0  0  0  0  0  0  0
    5.4654   -0.3231    0.0344 H   0  0  0  0  0  0  0  0  0  0  0  0
  1  2  1  0
  2  3  1  0
  3  4  2  0
  4  5  1  0
  5  6  2  0
  6  7  1  0
  7  8  1  0
  8  9  2  0
  9 10  1  0
 10 11  2  0
 10 12  1  0
 12 13  1  0
 13 14  1  0
 14 15  2  0
 15 16  1  0
 16 17  2  0
 17 18  1  0
 18 19  2  0
 12 20  2  0
 20 21  1  0
  6 22  1  0
 22 23  1  0
 23 24  1  0
 22 25  2  0
 25  3  1  0
 21  8  1  0
 19 14  1  0
  1 26  1  0
  1 27  1  0
  1 28  1  0
  4 29  1  0
  5 30  1  0
  7 31  1  0
 13 32  1  0
 13 33  1  0
 15 34  1  0
 16 35  1  0
 17 36  1  0
 18 37  1  0
 19 38  1  0
 21 39  1  0
 24 40  1  0
 24 41  1  0
 24 42  1  0
 25 43  1  0
M  END
$$$$
