
     RDKit          3D

 42 44  0  0  0  0  0  0  0  0999 V2000
   -6.2149    0.8527   -1.8035 C   0  0  0  0  0  0  0  0  0  0  0  0
   -5.0504    1.5597   -1.3913 O   0  0  0  0  0  0  0  0  0  0  0  0
   -4.1946    0.9030   -0.5490 C   0  0  0  0  0  0  0  0  0  0  0  0
   -4.3668   -0.3854   -0.0524 C   0  0  0  0  0  0  0  0  0  0  0  0
   -3.4088   -0.9270    0.8020 C   0  0  0  0  0  0  0  0  0  0  0  0
   -3.6706   -2.1859    1.2815 O   0  0  0  0  0  0  0  0  0  0  0  0
   -2.2517   -0.2087    1.1437 C   0  0  0  0  0  0  0  0  0  0  0  0
   -1.2579   -0.8793    2.0143 C   0  0  0  0  0  0  0  0  0  0  0  0
   -1.6655   -1.5873    2.9364 O   0  0  0  0  0  0  0  0  0  0  0  0
    0.2019   -0.7963    1.7540 C   0  0  0  0  0  0  0  0  0  0  0  0
    0.7404   -0.6472    0.5336 C   0  0  0  0  0  0  0  0  0  0  0  0
    2.1735   -0.6026    0.2685 C   0  0  0  0  0  0  0  0  0  0  0  0
    2.6048   -0.8988   -0.9838 C   0  0  0  0  0  0  0  0  0  0  0  0
    4.0567   -0.7278   -1.2931 C   0  0  2  0  0  0  0  0  0  0  0  0
    4.6248   -1.5312   -2.3176 O   0  0  0  0  0  0  0  0  0  0  0  0
    6.0337   -1.4661   -1.9799 C   0  0  0  0  0  0  0  0  0  0  0  0
    6.2046   -0.9734   -0.6269 O   0  0  0  0  0  0  0  0  0  0  0  0
    4.8975   -1.1487   -0.1015 C   0  0  1  0  0  0  0  0  0  0  0  0
    4.4959   -0.3386    1.0838 C   0  0  0  0  0  0  0  0  0  0  0  0
    3.1765   -0.0991    1.2394 C   0  0  0  0  0  0  0  0  0  0  0  0
   -2.0946    1.1097    0.6830 C   0  0  0  0  0  0  0  0  0  0  0  0
   -1.0042    1.8059    1.1342 O   0  0  0  0  0  0  0  0  0  0  0  0
   -0.8075    3.1266    0.6435 C   0  0  0  0  0  0  0  0  0  0  0  0
   -3.0676    1.6459   -0.1713 C   0  0  0  0  0  0  0  0  0  0  0  0
   -5.9508   -0.0497   -2.3647 H   0  0  0  0  0  0  0  0  0  0  0  0
   -6.8549    0.6146   -0.9475 H   0  0  0  0  0  0  0  0  0  0  0  0
   -6.7829    1.5065   -2.4722 H   0  0  0  0  0  0  0  0  0  0  0  0
   -5.2340   -0.9893   -0.2969 H   0  0  0  0  0  0  0  0  0  0  0  0
   -3.0908   -2.3379    2.0620 H   0  0  0  0  0  0  0  0  0  0  0  0
    0.8148   -0.9538    2.6354 H   0  0  0  0  0  0  0  0  0  0  0  0
    0.0945   -0.5708   -0.3390 H   0  0  0  0  0  0  0  0  0  0  0  0
    1.9406   -1.2058   -1.7832 H   0  0  0  0  0  0  0  0  0  0  0  0
    4.2301    0.3195   -1.5846 H   0  0  0  0  0  0  0  0  0  0  0  0
    6.5435   -0.7884   -2.6714 H   0  0  0  0  0  0  0  0  0  0  0  0
    6.4643   -2.4688   -2.0602 H   0  0  0  0  0  0  0  0  0  0  0  0
    4.7913   -2.2167    0.1409 H   0  0  0  0  0  0  0  0  0  0  0  0
    5.2375   -0.0073    1.7994 H   0  0  0  0  0  0  0  0  0  0  0  0
    2.8191    0.4631    2.0978 H   0  0  0  0  0  0  0  0  0  0  0  0
    0.1186    3.5103    1.0822 H   0  0  0  0  0  0  0  0  0  0  0  0
   -1.6224    3.7879    0.9555 H   0  0  0  0  0  0  0  0  0  0  0  0
   -0.6861    3.1297   -0.4446 H   0  0  0  0  0  0  0  0  0  0  0  0
   -2.9879    2.6568   -0.5601 H   0  0  0  0  0  0  0  0  0  0  0  0
  1  2  1  0
  2  3  1  0
  3  4  2  0
  4  5  1  0
  5  6  1  0
  5  7  2  0
  7  8  1  0
  8  9  2  0
  8 10  1  0
 10 11  2  0
 11 12  1  0
 12 13  2  0
 13 14  1  0
 14 15  1  0
 15 16  1  0
 16 17  1  0
 17 18  1  0
 18 19  1  0
 19 20  2  0
  7 21  1  0
 21 22  1  0
 22 23  1  0
 21 24  2  0
 24  3  1  0
 20 12  1  0
 18 14  1  0
  1 25  1  0
  1 26  1  0
  1 27  1  0
  4 28  1  0
  6 29  1  0
 10 30  1  0
 11 31  1  0
 13 32  1  0
 14 33  1  6
 16 34  1  0
 16 35  1  0
 18 36  1  1
 19 37  1  0
 20 38  1  0
 23 39  1  0
 23 40  1  0
 23 41  1  0
 24 42  1  0
M  END
$$$$
