
     RDKit          3D

 67 72  0  0  0  0  0  0  0  0999 V2000
    1.5886   -2.6338    2.5582 O   0  0  0  0  0  0  0  0  0  0  0  0
    1.7911   -1.8153    1.6570 C   0  0  0  0  0  0  0  0  0  0  0  0
    3.0943   -0.9997    1.6287 C   0  0  0  0  0  0  0  0  0  0  0  0
    2.9081    0.2944    2.4398 C   0  0  0  0  0  0  0  0  0  0  0  0
    4.1979    1.0537    2.6479 C   0  0  0  0  0  0  0  0  0  0  0  0
    5.0704    0.6986    3.6855 C   0  0  0  0  0  0  0  0  0  0  0  0
    6.2714    1.3864    3.8640 C   0  0  0  0  0  0  0  0  0  0  0  0
    6.6125    2.4311    3.0071 C   0  0  0  0  0  0  0  0  0  0  0  0
    5.7532    2.7898    1.9704 C   0  0  0  0  0  0  0  0  0  0  0  0
    4.5510    2.1049    1.7905 C   0  0  0  0  0  0  0  0  0  0  0  0
    3.5199   -0.7584    0.2480 N   0  0  0  0  0  0  0  0  0  0  0  0
    2.5240   -0.2451   -0.5791 C   0  0  0  0  0  0  0  0  0  0  0  0
    2.9594    0.5544   -1.5609 N   0  0  0  0  0  0  0  0  0  0  0  0
    2.0222    1.0177   -2.3869 C   0  0  0  0  0  0  0  0  0  0  0  0
    0.7048    0.8184   -2.2734 N   0  0  0  0  0  0  0  0  0  0  0  0
    0.2733    0.0540   -1.2476 C   0  0  0  0  0  0  0  0  0  0  0  0
   -1.1155    0.0411   -1.0094 N   0  0  0  0  0  0  0  0  0  0  0  0
   -1.4857    0.8378    0.1954 C   0  0  0  0  0  0  0  0  0  0  0  0
   -2.4968    1.9722   -0.1004 C   0  0  0  0  0  0  0  0  0  0  0  0
   -3.6874    1.4599   -0.7998 N   0  0  0  0  0  0  0  0  0  0  0  0
   -4.8806    2.1702   -0.8241 C   0  0  0  0  0  0  0  0  0  0  0  0
   -4.9731    3.5052   -0.3990 C   0  0  0  0  0  0  0  0  0  0  0  0
   -6.1849    4.2082   -0.4206 C   0  0  0  0  0  0  0  0  0  0  0  0
   -7.3454    3.5859   -0.8638 C   0  0  0  0  0  0  0  0  0  0  0  0
   -7.2915    2.2621   -1.2805 C   0  0  0  0  0  0  0  0  0  0  0  0
   -6.0754    1.5685   -1.2566 C   0  0  0  0  0  0  0  0  0  0  0  0
   -3.4396    0.4216   -1.8246 C   0  0  0  0  0  0  0  0  0  0  0  0
   -1.9429    0.3389   -2.2009 C   0  0  0  0  0  0  0  0  0  0  0  0
    1.1793   -0.5860   -0.3855 C   0  0  0  0  0  0  0  0  0  0  0  0
    0.8437   -1.5114    0.6701 N   0  0  0  0  0  0  0  0  0  0  0  0
   -0.2920   -2.4238    0.5351 C   0  0  0  0  0  0  0  0  0  0  0  0
    0.0065   -3.5884   -0.3905 C   0  0  0  0  0  0  0  0  0  0  0  0
   -0.3590   -3.5378   -1.7437 C   0  0  0  0  0  0  0  0  0  0  0  0
   -0.0660   -4.6012   -2.6007 C   0  0  0  0  0  0  0  0  0  0  0  0
    0.5969   -5.7228   -2.1082 C   0  0  0  0  0  0  0  0  0  0  0  0
    0.9933   -7.1628   -3.2674 Br  0  0  0  0  0  0  0  0  0  0  0  0
    0.9701   -5.7904   -0.7684 C   0  0  0  0  0  0  0  0  0  0  0  0
    0.6767   -4.7255    0.0865 C   0  0  0  0  0  0  0  0  0  0  0  0
    3.8663   -1.6250    2.0948 H   0  0  0  0  0  0  0  0  0  0  0  0
    2.1696    0.9580    1.9710 H   0  0  0  0  0  0  0  0  0  0  0  0
    2.4836    0.0551    3.4245 H   0  0  0  0  0  0  0  0  0  0  0  0
    4.8215   -0.1157    4.3631 H   0  0  0  0  0  0  0  0  0  0  0  0
    6.9428    1.1062    4.6718 H   0  0  0  0  0  0  0  0  0  0  0  0
    7.5489    2.9649    3.1465 H   0  0  0  0  0  0  0  0  0  0  0  0
    6.0207    3.6017    1.2992 H   0  0  0  0  0  0  0  0  0  0  0  0
    3.8955    2.3934    0.9710 H   0  0  0  0  0  0  0  0  0  0  0  0
    4.3895   -0.2510    0.1134 H   0  0  0  0  0  0  0  0  0  0  0  0
    2.3564    1.6287   -3.2182 H   0  0  0  0  0  0  0  0  0  0  0  0
   -0.6104    1.2784    0.6904 H   0  0  0  0  0  0  0  0  0  0  0  0
   -1.9445    0.1501    0.9162 H   0  0  0  0  0  0  0  0  0  0  0  0
   -2.0168    2.7489   -0.7085 H   0  0  0  0  0  0  0  0  0  0  0  0
   -2.7756    2.4169    0.8624 H   0  0  0  0  0  0  0  0  0  0  0  0
   -4.0934    4.0425   -0.0579 H   0  0  0  0  0  0  0  0  0  0  0  0
   -6.2146    5.2434   -0.0912 H   0  0  0  0  0  0  0  0  0  0  0  0
   -8.2866    4.1279   -0.8797 H   0  0  0  0  0  0  0  0  0  0  0  0
   -8.1938    1.7597   -1.6182 H   0  0  0  0  0  0  0  0  0  0  0  0
   -6.0840    0.5256   -1.5623 H   0  0  0  0  0  0  0  0  0  0  0  0
   -3.7753   -0.5459   -1.4322 H   0  0  0  0  0  0  0  0  0  0  0  0
   -3.9980    0.6315   -2.7451 H   0  0  0  0  0  0  0  0  0  0  0  0
   -1.6547    1.2929   -2.6621 H   0  0  0  0  0  0  0  0  0  0  0  0
   -1.8081   -0.4524   -2.9478 H   0  0  0  0  0  0  0  0  0  0  0  0
   -0.5474   -2.8297    1.5228 H   0  0  0  0  0  0  0  0  0  0  0  0
   -1.2038   -1.9207    0.2187 H   0  0  0  0  0  0  0  0  0  0  0  0
   -0.8733   -2.6665   -2.1407 H   0  0  0  0  0  0  0  0  0  0  0  0
   -0.3553   -4.5425   -3.6462 H   0  0  0  0  0  0  0  0  0  0  0  0
    1.4901   -6.6617   -0.3791 H   0  0  0  0  0  0  0  0  0  0  0  0
    0.9776   -4.7875    1.1313 H   0  0  0  0  0  0  0  0  0  0  0  0
  1  2  2  0
  2  3  1  0
  3  4  1  0
  4  5  1  0
  5  6  2  0
  6  7  1  0
  7  8  2  0
  8  9  1  0
  9 10  2  0
  3 11  1  0
 11 12  1  0
 12 13  2  0
 13 14  1  0
 14 15  2  0
 15 16  1  0
 16 17  1  0
 17 18  1  0
 18 19  1  0
 19 20  1  0
 20 21  1  0
 21 22  2  0
 22 23  1  0
 23 24  2  0
 24 25  1  0
 25 26  2  0
 20 27  1  0
 27 28  1  0
 16 29  2  0
 29 30  1  0
 30 31  1  0
 31 32  1  0
 32 33  2  0
 33 34  1  0
 34 35  2  0
 35 36  1  0
 35 37  1  0
 37 38  2  0
 30  2  1  0
 38 32  1  0
 10  5  1  0
 29 12  1  0
 28 17  1  0
 26 21  1  0
  3 39  1  0
  4 40  1  0
  4 41  1  0
  6 42  1  0
  7 43  1  0
  8 44  1  0
  9 45  1  0
 10 46  1  0
 11 47  1  0
 14 48  1  0
 18 49  1  0
 18 50  1  0
 19 51  1  0
 19 52  1  0
 22 53  1  0
 23 54  1  0
 24 55  1  0
 25 56  1  0
 26 57  1  0
 27 58  1  0
 27 59  1  0
 28 60  1  0
 28 61  1  0
 31 62  1  0
 31 63  1  0
 33 64  1  0
 34 65  1  0
 37 66  1  0
 38 67  1  0
M  END
$$$$
