
     RDKit          3D

 56 61  0  0  0  0  0  0  0  0999 V2000
    0.6475    1.3772    2.8110 O   0  0  0  0  0  0  0  0  0  0  0  0
    0.5238    2.0222    1.7807 C   0  0  0  0  0  0  0  0  0  0  0  0
    0.3167    3.4023    1.7196 N   0  0  0  0  0  0  0  0  0  0  0  0
    0.3251    3.8552    0.4066 C   0  0  0  0  0  0  0  0  0  0  0  0
    0.1840    5.1582   -0.0218 C   0  0  0  0  0  0  0  0  0  0  0  0
    0.2365    5.3897   -1.3984 C   0  0  0  0  0  0  0  0  0  0  0  0
    0.4316    4.3282   -2.3013 C   0  0  0  0  0  0  0  0  0  0  0  0
    0.5746    3.0152   -1.8435 C   0  0  0  0  0  0  0  0  0  0  0  0
    0.5123    2.7879   -0.4778 C   0  0  0  0  0  0  0  0  0  0  0  0
    0.6173    1.5183    0.3118 C   0  0  0  0  0  0  0  0  0  0  0  0
    1.8550    0.7198    0.0659 N   0  0  0  0  0  0  0  0  0  0  0  0
    1.4868   -0.7398    0.0026 C   0  0  2  0  0  0  0  0  0  0  0  0
    2.2857   -1.4598   -1.0926 C   0  0  0  0  0  0  0  0  0  0  0  0
    3.7441   -1.6383   -0.7354 C   0  0  0  0  0  0  0  0  0  0  0  0
    4.1603   -2.7329    0.0349 C   0  0  0  0  0  0  0  0  0  0  0  0
    5.5049   -2.8848    0.3773 C   0  0  0  0  0  0  0  0  0  0  0  0
    6.4437   -1.9444   -0.0430 C   0  0  0  0  0  0  0  0  0  0  0  0
    6.0392   -0.8499   -0.8048 C   0  0  0  0  0  0  0  0  0  0  0  0
    4.6956   -0.6962   -1.1486 C   0  0  0  0  0  0  0  0  0  0  0  0
    0.0261   -0.6900   -0.2499 C   0  0  0  0  0  0  0  0  0  0  0  0
   -0.4719    0.6084   -0.0758 C   0  0  0  0  0  0  0  0  0  0  0  0
   -1.8182    0.5991   -0.3352 C   0  0  0  0  0  0  0  0  0  0  0  0
   -2.7306    1.5631   -0.3544 O   0  0  0  0  0  0  0  0  0  0  0  0
   -2.1514   -0.7171   -0.6151 N   0  0  0  0  0  0  0  0  0  0  0  0
   -3.4901   -1.1848   -0.9521 C   0  0  0  0  0  0  0  0  0  0  0  0
   -4.2515   -1.6410    0.2687 C   0  0  0  0  0  0  0  0  0  0  0  0
   -4.9926   -0.7261    1.0307 C   0  0  0  0  0  0  0  0  0  0  0  0
   -5.6913   -1.1475    2.1632 C   0  0  0  0  0  0  0  0  0  0  0  0
   -5.6535   -2.4861    2.5486 C   0  0  0  0  0  0  0  0  0  0  0  0
   -4.9138   -3.4036    1.8050 C   0  0  0  0  0  0  0  0  0  0  0  0
   -4.2143   -2.9836    0.6725 C   0  0  0  0  0  0  0  0  0  0  0  0
   -1.0170   -1.5147   -0.5817 C   0  0  0  0  0  0  0  0  0  0  0  0
   -1.0834   -2.8155   -0.8352 O   0  0  0  0  0  0  0  0  0  0  0  0
    0.2405    3.9782    2.5446 H   0  0  0  0  0  0  0  0  0  0  0  0
    0.0422    5.9776    0.6735 H   0  0  0  0  0  0  0  0  0  0  0  0
    0.1316    6.4031   -1.7802 H   0  0  0  0  0  0  0  0  0  0  0  0
    0.4745    4.5323   -3.3693 H   0  0  0  0  0  0  0  0  0  0  0  0
    0.7281    2.1941   -2.5379 H   0  0  0  0  0  0  0  0  0  0  0  0
    2.4872    0.8463    0.8558 H   0  0  0  0  0  0  0  0  0  0  0  0
    1.6621   -1.1943    0.9863 H   0  0  0  0  0  0  0  0  0  0  0  0
    1.8575   -2.4525   -1.2834 H   0  0  0  0  0  0  0  0  0  0  0  0
    2.2010   -0.9275   -2.0503 H   0  0  0  0  0  0  0  0  0  0  0  0
    3.4417   -3.4751    0.3741 H   0  0  0  0  0  0  0  0  0  0  0  0
    5.8206   -3.7369    0.9737 H   0  0  0  0  0  0  0  0  0  0  0  0
    7.4902   -2.0631    0.2248 H   0  0  0  0  0  0  0  0  0  0  0  0
    6.7693   -0.1136   -1.1299 H   0  0  0  0  0  0  0  0  0  0  0  0
    4.3907    0.1680   -1.7356 H   0  0  0  0  0  0  0  0  0  0  0  0
   -2.2683    2.4076   -0.2057 H   0  0  0  0  0  0  0  0  0  0  0  0
   -3.3959   -1.9964   -1.6832 H   0  0  0  0  0  0  0  0  0  0  0  0
   -4.0219   -0.3735   -1.4629 H   0  0  0  0  0  0  0  0  0  0  0  0
   -5.0201    0.3243    0.7474 H   0  0  0  0  0  0  0  0  0  0  0  0
   -6.2596   -0.4289    2.7475 H   0  0  0  0  0  0  0  0  0  0  0  0
   -6.1943   -2.8127    3.4326 H   0  0  0  0  0  0  0  0  0  0  0  0
   -4.8759   -4.4459    2.1098 H   0  0  0  0  0  0  0  0  0  0  0  0
   -3.6303   -3.7076    0.1078 H   0  0  0  0  0  0  0  0  0  0  0  0
   -0.2020   -3.1919   -0.6722 H   0  0  0  0  0  0  0  0  0  0  0  0
  1  2  2  0
  2  3  1  0
  3  4  1  0
  4  5  2  0
  5  6  1  0
  6  7  2  0
  7  8  1  0
  8  9  2  0
  9 10  1  0
 10 11  1  0
 11 12  1  0
 12 13  1  0
 13 14  1  0
 14 15  2  0
 15 16  1  0
 16 17  2  0
 17 18  1  0
 18 19  2  0
 12 20  1  0
 20 21  1  0
 21 22  2  0
 22 23  1  0
 22 24  1  0
 24 25  1  0
 25 26  1  0
 26 27  2  0
 27 28  1  0
 28 29  2  0
 29 30  1  0
 30 31  2  0
 24 32  1  0
 32 33  1  0
 10  2  1  0
 19 14  1  0
 32 20  2  0
  9  4  1  0
 21 10  1  0
 31 26  1  0
  3 34  1  0
  5 35  1  0
  6 36  1  0
  7 37  1  0
  8 38  1  0
 11 39  1  0
 12 40  1  1
 13 41  1  0
 13 42  1  0
 15 43  1  0
 16 44  1  0
 17 45  1  0
 18 46  1  0
 19 47  1  0
 23 48  1  0
 25 49  1  0
 25 50  1  0
 27 51  1  0
 28 52  1  0
 29 53  1  0
 30 54  1  0
 31 55  1  0
 33 56  1  0
M  END
$$$$
