
     RDKit          3D

 56 61  0  0  0  0  0  0  0  0999 V2000
    7.8207   -1.6441    0.9702 C   0  0  0  0  0  0  0  0  0  0  0  0
    6.3985   -1.4489    0.5296 C   0  0  0  0  0  0  0  0  0  0  0  0
    6.0759   -1.3868   -0.8298 C   0  0  0  0  0  0  0  0  0  0  0  0
    4.7479   -1.2296   -1.2406 C   0  0  0  0  0  0  0  0  0  0  0  0
    3.7240   -1.1458   -0.2954 C   0  0  0  0  0  0  0  0  0  0  0  0
    2.2298   -0.9693   -0.7470 C   0  0  0  0  0  0  0  0  0  0  0  0
    1.1092   -0.9881    0.0762 C   0  0  0  0  0  0  0  0  0  0  0  0
   -0.0322   -0.8232   -0.7087 N   0  0  0  0  0  4  0  0  0  0  0  0
   -1.4274   -0.7454   -0.2460 C   0  0  0  0  0  0  0  0  0  0  0  0
   -1.9507    0.7057   -0.2790 C   0  0  0  0  0  0  0  0  0  0  0  0
   -1.4764    1.5210   -1.0726 O   0  0  0  0  0  0  0  0  0  0  0  0
   -3.0419    0.9240    0.5724 N   0  0  0  0  0  0  0  0  0  0  0  0
   -4.2826    1.4755    0.0768 C   0  0  0  0  0  0  0  0  0  0  0  0
   -4.3424    2.1001   -1.1862 C   0  0  0  0  0  0  0  0  0  0  0  0
   -5.5341    2.6297   -1.6954 C   0  0  0  0  0  0  0  0  0  0  0  0
   -6.7067    2.5336   -0.9625 C   0  0  0  0  0  0  0  0  0  0  0  0
   -6.6854    1.9000    0.2755 C   0  0  0  0  0  0  0  0  0  0  0  0
   -5.4900    1.3699    0.7942 C   0  0  0  0  0  0  0  0  0  0  0  0
   -5.6320    0.4765    2.3207 S   0  0  0  0  0  0  0  0  0  0  0  0
   -3.9559    0.5540    2.8730 C   0  0  0  0  0  0  0  0  0  0  0  0
   -3.7289    0.3795    4.2490 C   0  0  0  0  0  0  0  0  0  0  0  0
   -2.4384    0.4107    4.7710 C   0  0  0  0  0  0  0  0  0  0  0  0
   -1.3616    0.6294    3.9223 C   0  0  0  0  0  0  0  0  0  0  0  0
   -1.5820    0.8076    2.5536 C   0  0  0  0  0  0  0  0  0  0  0  0
   -2.8796    0.7477    1.9957 C   0  0  0  0  0  0  0  0  0  0  0  0
    0.3677   -0.6804   -1.9697 C   0  0  0  0  0  0  0  0  0  0  0  0
    1.6955   -0.7641   -2.0068 N   0  0  0  0  0  0  0  0  0  0  0  0
    2.2122   -0.5831   -3.3575 C   0  0  0  0  0  0  0  0  0  0  0  0
    0.9847   -0.0566   -4.1494 C   0  0  0  0  0  0  0  0  0  0  0  0
   -0.2385   -0.4727   -3.3066 C   0  0  0  0  0  0  0  0  0  0  0  0
    4.0379   -1.2326    1.0657 C   0  0  0  0  0  0  0  0  0  0  0  0
    5.3677   -1.3830    1.4728 C   0  0  0  0  0  0  0  0  0  0  0  0
    8.0193   -2.7077    1.1339 H   0  0  0  0  0  0  0  0  0  0  0  0
    8.0169   -1.0973    1.8979 H   0  0  0  0  0  0  0  0  0  0  0  0
    8.5204   -1.2676    0.2160 H   0  0  0  0  0  0  0  0  0  0  0  0
    6.8614   -1.4632   -1.5807 H   0  0  0  0  0  0  0  0  0  0  0  0
    4.5536   -1.2049   -2.3068 H   0  0  0  0  0  0  0  0  0  0  0  0
    0.9785   -1.1128    1.1385 H   0  0  0  0  0  0  0  0  0  0  0  0
   -2.0426   -1.3417   -0.9283 H   0  0  0  0  0  0  0  0  0  0  0  0
   -1.4959   -1.2036    0.7448 H   0  0  0  0  0  0  0  0  0  0  0  0
   -3.4632    2.2399   -1.8062 H   0  0  0  0  0  0  0  0  0  0  0  0
   -5.5390    3.1277   -2.6638 H   0  0  0  0  0  0  0  0  0  0  0  0
   -7.6354    2.9431   -1.3521 H   0  0  0  0  0  0  0  0  0  0  0  0
   -7.6187    1.8092    0.8321 H   0  0  0  0  0  0  0  0  0  0  0  0
   -4.5649    0.2188    4.9298 H   0  0  0  0  0  0  0  0  0  0  0  0
   -2.2799    0.2831    5.8400 H   0  0  0  0  0  0  0  0  0  0  0  0
   -0.3541    0.6883    4.3325 H   0  0  0  0  0  0  0  0  0  0  0  0
   -0.7138    1.0528    1.9460 H   0  0  0  0  0  0  0  0  0  0  0  0
    2.5397   -1.5539   -3.7406 H   0  0  0  0  0  0  0  0  0  0  0  0
    3.0309    0.1401   -3.3715 H   0  0  0  0  0  0  0  0  0  0  0  0
    0.9465   -0.4314   -5.1756 H   0  0  0  0  0  0  0  0  0  0  0  0
    1.0344    1.0387   -4.1889 H   0  0  0  0  0  0  0  0  0  0  0  0
   -0.6473   -1.4389   -3.6132 H   0  0  0  0  0  0  0  0  0  0  0  0
   -1.0089    0.2947   -3.2547 H   0  0  0  0  0  0  0  0  0  0  0  0
    3.2783   -1.1796    1.8396 H   0  0  0  0  0  0  0  0  0  0  0  0
    5.5992   -1.4454    2.5361 H   0  0  0  0  0  0  0  0  0  0  0  0
  1  2  1  0
  2  3  2  0
  3  4  1  0
  4  5  2  0
  5  6  1  0
  6  7  2  0
  7  8  1  0
  8  9  1  0
  9 10  1  0
 10 11  2  0
 10 12  1  0
 12 13  1  0
 13 14  2  0
 14 15  1  0
 15 16  2  0
 16 17  1  0
 17 18  2  0
 18 19  1  0
 19 20  1  0
 20 21  2  0
 21 22  1  0
 22 23  2  0
 23 24  1  0
 24 25  2  0
  8 26  2  0
 26 27  1  0
 27 28  1  0
 28 29  1  0
 29 30  1  0
  5 31  1  0
 31 32  2  0
 32  2  1  0
 27  6  1  0
 25 12  1  0
 30 26  1  0
 18 13  1  0
 25 20  1  0
  1 33  1  0
  1 34  1  0
  1 35  1  0
  3 36  1  0
  4 37  1  0
  7 38  1  0
  9 39  1  0
  9 40  1  0
 14 41  1  0
 15 42  1  0
 16 43  1  0
 17 44  1  0
 21 45  1  0
 22 46  1  0
 23 47  1  0
 24 48  1  0
 28 49  1  0
 28 50  1  0
 29 51  1  0
 29 52  1  0
 30 53  1  0
 30 54  1  0
 31 55  1  0
 32 56  1  0
M  CHG  1   8   1
M  END
$$$$
