
     RDKit          3D

 43 46  0  0  0  0  0  0  0  0999 V2000
   -1.6211   -2.2219    0.9190 O   0  0  0  0  0  0  0  0  0  0  0  0
   -1.9143   -1.1700    0.3650 C   0  0  0  0  0  0  0  0  0  0  0  0
   -1.0426   -0.2211   -0.1387 N   0  0  0  0  0  0  0  0  0  0  0  0
    0.3644   -0.2191   -0.0457 C   0  0  0  0  0  0  0  0  0  0  0  0
    1.0501    0.7963   -0.7190 C   0  0  0  0  0  0  0  0  0  0  0  0
    2.4476    0.8691   -0.6699 C   0  0  0  0  0  0  0  0  0  0  0  0
    3.1882   -0.0677    0.0593 C   0  0  0  0  0  0  0  0  0  0  0  0
    4.5916    0.0759    0.0505 N   0  0  0  0  0  0  0  0  0  0  0  0
    5.5312   -0.6696    0.7518 C   0  0  0  0  0  0  0  0  0  0  0  0
    5.2461   -1.5531    1.5546 O   0  0  0  0  0  0  0  0  0  0  0  0
    6.9155   -0.2865    0.4619 C   0  0  0  0  0  0  0  0  0  0  0  0
    7.4555    0.3719   -0.6317 C   0  0  0  0  0  0  0  0  0  0  0  0
    8.8662    0.5565   -0.5224 C   0  0  0  0  0  0  0  0  0  0  0  0
    9.3654    0.0273    0.6448 C   0  0  0  0  0  0  0  0  0  0  0  0
    8.1433   -0.6937    1.5949 S   0  0  0  0  0  0  0  0  0  0  0  0
    2.5029   -1.0783    0.7310 C   0  0  0  0  0  0  0  0  0  0  0  0
    1.1021   -1.1523    0.6800 C   0  0  0  0  0  0  0  0  0  0  0  0
   -3.3562   -0.8653    0.1497 C   0  0  0  0  0  0  0  0  0  0  0  0
   -4.2235   -1.9190   -0.1491 C   0  0  0  0  0  0  0  0  0  0  0  0
   -5.5800   -1.6684   -0.3637 C   0  0  0  0  0  0  0  0  0  0  0  0
   -6.0905   -0.3641   -0.2706 C   0  0  0  0  0  0  0  0  0  0  0  0
   -7.4521   -0.0975   -0.4838 C   0  0  0  0  0  0  0  0  0  0  0  0
   -7.9497    1.2020   -0.3774 C   0  0  0  0  0  0  0  0  0  0  0  0
   -7.0937    2.2507   -0.0544 C   0  0  0  0  0  0  0  0  0  0  0  0
   -5.7370    2.0034    0.1608 C   0  0  0  0  0  0  0  0  0  0  0  0
   -5.2186    0.7026    0.0534 C   0  0  0  0  0  0  0  0  0  0  0  0
   -3.8550    0.4392    0.2659 C   0  0  0  0  0  0  0  0  0  0  0  0
   -1.4469    0.5188   -0.6972 H   0  0  0  0  0  0  0  0  0  0  0  0
    0.5118    1.5443   -1.2948 H   0  0  0  0  0  0  0  0  0  0  0  0
    2.9419    1.6724   -1.2096 H   0  0  0  0  0  0  0  0  0  0  0  0
    4.9456    0.8530   -0.4870 H   0  0  0  0  0  0  0  0  0  0  0  0
    6.8828    0.6958   -1.4916 H   0  0  0  0  0  0  0  0  0  0  0  0
    9.4844    1.0441   -1.2666 H   0  0  0  0  0  0  0  0  0  0  0  0
   10.3922    0.0192    0.9847 H   0  0  0  0  0  0  0  0  0  0  0  0
    3.0199   -1.8390    1.3082 H   0  0  0  0  0  0  0  0  0  0  0  0
    0.6221   -1.9576    1.2284 H   0  0  0  0  0  0  0  0  0  0  0  0
   -3.8444   -2.9371   -0.2169 H   0  0  0  0  0  0  0  0  0  0  0  0
   -6.2373   -2.5029   -0.5994 H   0  0  0  0  0  0  0  0  0  0  0  0
   -8.1387   -0.9041   -0.7319 H   0  0  0  0  0  0  0  0  0  0  0  0
   -9.0069    1.3934   -0.5431 H   0  0  0  0  0  0  0  0  0  0  0  0
   -7.4824    3.2621    0.0328 H   0  0  0  0  0  0  0  0  0  0  0  0
   -5.0876    2.8380    0.4158 H   0  0  0  0  0  0  0  0  0  0  0  0
   -3.1922    1.2521    0.5520 H   0  0  0  0  0  0  0  0  0  0  0  0
  1  2  2  0
  2  3  1  0
  3  4  1  0
  4  5  2  0
  5  6  1  0
  6  7  2  0
  7  8  1  0
  8  9  1  0
  9 10  2  0
  9 11  1  0
 11 12  2  0
 12 13  1  0
 13 14  2  0
 14 15  1  0
  7 16  1  0
 16 17  2  0
  2 18  1  0
 18 19  2  0
 19 20  1  0
 20 21  2  0
 21 22  1  0
 22 23  2  0
 23 24  1  0
 24 25  2  0
 25 26  1  0
 26 27  2  0
 17  4  1  0
 27 18  1  0
 15 11  1  0
 26 21  1  0
  3 28  1  0
  5 29  1  0
  6 30  1  0
  8 31  1  0
 12 32  1  0
 13 33  1  0
 14 34  1  0
 16 35  1  0
 17 36  1  0
 19 37  1  0
 20 38  1  0
 22 39  1  0
 23 40  1  0
 24 41  1  0
 25 42  1  0
 27 43  1  0
M  END
$$$$
