
     RDKit          3D

 27 27  0  0  0  0  0  0  0  0999 V2000
    3.1512   -1.0903   -1.6399 C   0  0  0  0  0  0  0  0  0  0  0  0
    2.0664   -0.4075   -0.8976 C   0  0  0  0  0  0  0  0  0  0  0  0
    2.1142    0.8109   -0.2083 C   0  0  0  0  0  0  0  0  0  0  0  0
    0.8456    1.0172    0.3174 C   0  0  0  0  0  0  0  0  0  0  0  0
    0.4144    2.1390    1.1043 C   0  0  0  0  0  0  0  0  0  0  0  0
   -0.6782    2.3764    1.5916 O   0  0  0  0  0  0  0  0  0  0  0  0
    1.4221    3.0212    1.2917 O   0  0  0  0  0  0  0  0  0  0  0  0
    0.1109   -0.0876   -0.0862 N   0  0  0  0  0  0  0  0  0  0  0  0
   -1.3055   -0.4442    0.1613 C   0  0  0  0  0  0  0  0  0  0  0  0
   -1.5711   -0.6324    1.6669 C   0  0  0  0  0  0  0  0  0  0  0  0
   -2.2529    0.5986   -0.4615 C   0  0  0  0  0  0  0  0  0  0  0  0
   -1.6741   -1.8029   -0.5064 C   0  0  0  0  0  0  0  0  0  0  0  0
    0.8546   -0.9520   -0.8243 N   0  0  0  0  0  0  0  0  0  0  0  0
    4.0798   -0.5118   -1.6029 H   0  0  0  0  0  0  0  0  0  0  0  0
    3.3498   -2.0770   -1.2093 H   0  0  0  0  0  0  0  0  0  0  0  0
    2.8750   -1.2198   -2.6914 H   0  0  0  0  0  0  0  0  0  0  0  0
    2.9643    1.4712   -0.0988 H   0  0  0  0  0  0  0  0  0  0  0  0
    1.0051    3.7232    1.8312 H   0  0  0  0  0  0  0  0  0  0  0  0
   -2.5974   -0.9743    1.8455 H   0  0  0  0  0  0  0  0  0  0  0  0
   -0.8923   -1.3812    2.0926 H   0  0  0  0  0  0  0  0  0  0  0  0
   -1.4411    0.2815    2.2468 H   0  0  0  0  0  0  0  0  0  0  0  0
   -3.3004    0.2949   -0.3492 H   0  0  0  0  0  0  0  0  0  0  0  0
   -2.1643    1.5872   -0.0111 H   0  0  0  0  0  0  0  0  0  0  0  0
   -2.0539    0.7159   -1.5335 H   0  0  0  0  0  0  0  0  0  0  0  0
   -1.5364   -1.7688   -1.5938 H   0  0  0  0  0  0  0  0  0  0  0  0
   -2.7232   -2.0630   -0.3207 H   0  0  0  0  0  0  0  0  0  0  0  0
   -1.0624   -2.6244   -0.1143 H   0  0  0  0  0  0  0  0  0  0  0  0
  1  2  1  0
  2  3  1  0
  3  4  2  0
  4  5  1  0
  5  6  2  0
  5  7  1  0
  4  8  1  0
  8  9  1  0
  9 10  1  0
  9 11  1  0
  9 12  1  0
  8 13  1  0
 13  2  2  0
  1 14  1  0
  1 15  1  0
  1 16  1  0
  3 17  1  0
  7 18  1  0
 10 19  1  0
 10 20  1  0
 10 21  1  0
 11 22  1  0
 11 23  1  0
 11 24  1  0
 12 25  1  0
 12 26  1  0
 12 27  1  0
M  END
$$$$
