
     RDKit          3D

 37 39  0  0  0  0  0  0  0  0999 V2000
    5.6747   -1.1111    1.6186 O   0  0  0  0  0  0  0  0  0  0  0  0
    5.9559    0.0394    0.8273 C   0  0  0  0  0  0  0  0  0  0  0  0
    5.0235    1.1812    1.2278 C   0  0  0  0  0  0  0  0  0  0  0  0
    3.6234    0.8379    0.8608 N   0  0  0  0  0  4  0  0  0  0  0  0
    2.8910    0.0555    1.6878 C   0  0  0  0  0  0  0  0  0  0  0  0
    1.5776   -0.2751    1.3743 C   0  0  0  0  0  0  0  0  0  0  0  0
    1.0029    0.2106    0.2012 C   0  0  0  0  0  0  0  0  0  0  0  0
   -0.3671   -0.1262   -0.2011 C   0  0  0  0  0  0  0  0  0  0  0  0
   -1.4084   -0.1902    0.6455 C   0  0  0  0  0  0  0  0  0  0  0  0
   -2.7483   -0.5248    0.2801 C   0  0  0  0  0  0  0  0  0  0  0  0
   -3.5925   -1.2143    1.1237 C   0  0  0  0  0  0  0  0  0  0  0  0
   -4.7866   -1.3893    0.4761 N   0  0  0  0  0  0  0  0  0  0  0  0
   -4.7455   -0.7993   -0.7662 C   0  0  0  0  0  0  0  0  0  0  0  0
   -5.7370   -0.7218   -1.7523 C   0  0  0  0  0  0  0  0  0  0  0  0
   -5.4316   -0.0343   -2.9291 C   0  0  0  0  0  0  0  0  0  0  0  0
   -4.1852    0.5574   -3.1079 C   0  0  0  0  0  0  0  0  0  0  0  0
   -3.2042    0.4691   -2.1124 C   0  0  0  0  0  0  0  0  0  0  0  0
   -3.4763   -0.2330   -0.9171 C   0  0  0  0  0  0  0  0  0  0  0  0
    1.7825    0.9986   -0.6437 C   0  0  0  0  0  0  0  0  0  0  0  0
    3.0919    1.3058   -0.2905 C   0  0  0  0  0  0  0  0  0  0  0  0
    6.3452   -1.7902    1.4039 H   0  0  0  0  0  0  0  0  0  0  0  0
    5.8292   -0.2248   -0.2270 H   0  0  0  0  0  0  0  0  0  0  0  0
    6.9961    0.3296    1.0031 H   0  0  0  0  0  0  0  0  0  0  0  0
    5.0362    1.3566    2.3094 H   0  0  0  0  0  0  0  0  0  0  0  0
    5.2917    2.1119    0.7177 H   0  0  0  0  0  0  0  0  0  0  0  0
    3.3715   -0.3114    2.5912 H   0  0  0  0  0  0  0  0  0  0  0  0
    1.0193   -0.9244    2.0457 H   0  0  0  0  0  0  0  0  0  0  0  0
   -0.5142   -0.3352   -1.2586 H   0  0  0  0  0  0  0  0  0  0  0  0
   -1.2498   -0.0002    1.7050 H   0  0  0  0  0  0  0  0  0  0  0  0
   -3.4506   -1.6116    2.1199 H   0  0  0  0  0  0  0  0  0  0  0  0
   -5.5920   -1.8704    0.8532 H   0  0  0  0  0  0  0  0  0  0  0  0
   -6.7145   -1.1727   -1.6122 H   0  0  0  0  0  0  0  0  0  0  0  0
   -6.1829    0.0453   -3.7119 H   0  0  0  0  0  0  0  0  0  0  0  0
   -3.9734    1.0980   -4.0271 H   0  0  0  0  0  0  0  0  0  0  0  0
   -2.2467    0.9540   -2.2665 H   0  0  0  0  0  0  0  0  0  0  0  0
    1.3738    1.3857   -1.5756 H   0  0  0  0  0  0  0  0  0  0  0  0
    3.7204    1.9237   -0.9252 H   0  0  0  0  0  0  0  0  0  0  0  0
  1  2  1  0
  2  3  1  0
  3  4  1  0
  4  5  2  0
  5  6  1  0
  6  7  2  0
  7  8  1  0
  8  9  2  3
  9 10  1  0
 10 11  2  0
 11 12  1  0
 12 13  1  0
 13 14  2  0
 14 15  1  0
 15 16  2  0
 16 17  1  0
 17 18  2  0
  7 19  1  0
 19 20  2  0
 20  4  1  0
 18 10  1  0
 18 13  1  0
  1 21  1  0
  2 22  1  0
  2 23  1  0
  3 24  1  0
  3 25  1  0
  5 26  1  0
  6 27  1  0
  8 28  1  0
  9 29  1  0
 11 30  1  0
 12 31  1  0
 14 32  1  0
 15 33  1  0
 16 34  1  0
 17 35  1  0
 19 36  1  0
 20 37  1  0
M  CHG  1   4   1
M  END
$$$$
