
     RDKit          3D

 33 34  0  0  0  0  0  0  0  0999 V2000
   -2.0506    3.7568    1.6071 C   0  0  0  0  0  0  0  0  0  0  0  0
   -1.2817    2.5797    1.3596 O   0  0  0  0  0  0  0  0  0  0  0  0
   -0.2969    2.7623    0.4481 C   0  0  0  0  0  0  0  0  0  0  0  0
    0.0621    3.8050   -0.0689 O   0  0  0  0  0  0  0  0  0  0  0  0
    0.4086    1.4868    0.2782 C   0  0  0  0  0  0  0  0  0  0  0  0
    1.7474    1.4663    0.6641 C   0  0  0  0  0  0  0  0  0  0  0  0
    2.4137    0.2664    0.5790 C   0  0  0  0  0  0  0  0  0  0  0  0
    3.7327    0.2654    0.9773 O   0  0  0  0  0  0  0  0  0  0  0  0
    4.3632   -1.0046    0.8420 C   0  0  0  0  0  0  0  0  0  0  0  0
    1.8351   -0.8735    0.1509 N   0  0  0  0  0  0  0  0  0  0  0  0
    0.5348   -0.8329   -0.2391 C   0  0  0  0  0  0  0  0  0  0  0  0
   -0.2080    0.3322   -0.2108 C   0  0  0  0  0  0  0  0  0  0  0  0
   -1.5757    0.2994   -0.7419 C   0  0  0  0  0  0  0  0  0  0  0  0
   -2.1594    1.3475   -0.9982 O   0  0  0  0  0  0  0  0  0  0  0  0
   -2.1207   -0.9532   -0.9798 N   0  0  0  0  0  0  0  0  0  0  0  0
   -3.5003   -1.0094   -1.4299 C   0  0  0  0  0  0  0  0  0  0  0  0
   -1.3794   -2.1246   -1.0556 C   0  0  0  0  0  0  0  0  0  0  0  0
   -1.8784   -3.1810   -1.4478 O   0  0  0  0  0  0  0  0  0  0  0  0
   -0.0515   -2.0345   -0.6857 N   0  0  0  0  0  0  0  0  0  0  0  0
    0.7929   -3.2202   -0.7224 C   0  0  0  0  0  0  0  0  0  0  0  0
   -2.4935    4.1321    0.6790 H   0  0  0  0  0  0  0  0  0  0  0  0
   -1.4293    4.5247    2.0784 H   0  0  0  0  0  0  0  0  0  0  0  0
   -2.8596    3.4947    2.2945 H   0  0  0  0  0  0  0  0  0  0  0  0
    2.2486    2.3566    1.0300 H   0  0  0  0  0  0  0  0  0  0  0  0
    4.3759   -1.3318   -0.2035 H   0  0  0  0  0  0  0  0  0  0  0  0
    3.8858   -1.7540    1.4828 H   0  0  0  0  0  0  0  0  0  0  0  0
    5.4016   -0.8980    1.1705 H   0  0  0  0  0  0  0  0  0  0  0  0
   -4.0795   -0.1715   -1.0305 H   0  0  0  0  0  0  0  0  0  0  0  0
   -3.5099   -0.9614   -2.5236 H   0  0  0  0  0  0  0  0  0  0  0  0
   -3.9714   -1.9446   -1.1119 H   0  0  0  0  0  0  0  0  0  0  0  0
    1.1384   -3.4508    0.2908 H   0  0  0  0  0  0  0  0  0  0  0  0
    0.2550   -4.0925   -1.1037 H   0  0  0  0  0  0  0  0  0  0  0  0
    1.6501   -3.0375   -1.3788 H   0  0  0  0  0  0  0  0  0  0  0  0
  1  2  1  0
  2  3  1  0
  3  4  2  0
  3  5  1  0
  5  6  2  0
  6  7  1  0
  7  8  1  0
  8  9  1  0
  7 10  2  0
 10 11  1  0
 11 12  2  0
 12 13  1  0
 13 14  2  0
 13 15  1  0
 15 16  1  0
 15 17  1  0
 17 18  2  0
 17 19  1  0
 19 20  1  0
 12  5  1  0
 19 11  1  0
  1 21  1  0
  1 22  1  0
  1 23  1  0
  6 24  1  0
  9 25  1  0
  9 26  1  0
  9 27  1  0
 16 28  1  0
 16 29  1  0
 16 30  1  0
 20 31  1  0
 20 32  1  0
 20 33  1  0
M  END
$$$$
