
     RDKit          3D

 48 52  0  0  0  0  0  0  0  0999 V2000
   -3.6147    1.7544    2.4859 C   0  0  0  0  0  0  0  0  0  0  0  0
   -2.9254    0.9658    1.4900 N   0  0  0  0  0  0  0  0  0  0  0  0
   -1.6903    1.2601    0.9866 C   0  0  0  0  0  0  0  0  0  0  0  0
   -1.3443    0.2969    0.0510 C   0  0  0  0  0  0  0  0  0  0  0  0
   -0.0853    0.1926   -0.7778 C   0  0  0  0  0  0  0  0  0  0  0  0
    0.2893    1.6019   -1.2448 C   0  0  0  0  0  0  0  0  0  0  0  0
   -0.1936    2.0453   -2.4818 C   0  0  0  0  0  0  0  0  0  0  0  0
    0.1253    3.3271   -2.9239 C   0  0  0  0  0  0  0  0  0  0  0  0
    0.9139    4.1449   -2.1268 C   0  0  0  0  0  0  0  0  0  0  0  0
    1.3469    3.6478   -0.9112 C   0  0  0  0  0  0  0  0  0  0  0  0
    1.0484    2.4135   -0.4538 N   0  0  0  0  0  0  0  0  0  0  0  0
    1.1075   -0.4216   -0.0902 C   0  0  0  0  0  0  0  0  0  0  0  0
    1.3358   -0.5623    1.2694 C   0  0  0  0  0  0  0  0  0  0  0  0
    2.5342   -1.1929    1.4524 N   0  0  0  0  0  0  0  0  0  0  0  0
    3.1125   -1.4962    2.7416 C   0  0  0  0  0  0  0  0  0  0  0  0
    3.1068   -1.4980    0.2379 C   0  0  0  0  0  0  0  0  0  0  0  0
    4.3124   -2.1466   -0.0757 C   0  0  0  0  0  0  0  0  0  0  0  0
    4.6394   -2.3124   -1.4242 C   0  0  0  0  0  0  0  0  0  0  0  0
    3.7952   -1.8459   -2.4262 C   0  0  0  0  0  0  0  0  0  0  0  0
    2.5965   -1.2011   -2.1027 C   0  0  0  0  0  0  0  0  0  0  0  0
    2.2381   -1.0220   -0.7484 C   0  0  0  0  0  0  0  0  0  0  0  0
   -2.4387   -0.6365    0.0204 C   0  0  0  0  0  0  0  0  0  0  0  0
   -2.6836   -1.8291   -0.6952 C   0  0  0  0  0  0  0  0  0  0  0  0
   -3.8822   -2.5241   -0.5011 C   0  0  0  0  0  0  0  0  0  0  0  0
   -4.8363   -2.0513    0.3935 C   0  0  0  0  0  0  0  0  0  0  0  0
   -4.6190   -0.8777    1.1201 C   0  0  0  0  0  0  0  0  0  0  0  0
   -3.4118   -0.1887    0.9190 C   0  0  0  0  0  0  0  0  0  0  0  0
   -3.7880    1.1276    3.3644 H   0  0  0  0  0  0  0  0  0  0  0  0
   -3.0012    2.6158    2.7621 H   0  0  0  0  0  0  0  0  0  0  0  0
   -4.5618    2.0970    2.0612 H   0  0  0  0  0  0  0  0  0  0  0  0
   -1.1387    2.1308    1.3209 H   0  0  0  0  0  0  0  0  0  0  0  0
   -0.3009   -0.4167   -1.6661 H   0  0  0  0  0  0  0  0  0  0  0  0
   -0.8181    1.4026   -3.0949 H   0  0  0  0  0  0  0  0  0  0  0  0
   -0.2417    3.6827   -3.8821 H   0  0  0  0  0  0  0  0  0  0  0  0
    1.1828    5.1461   -2.4425 H   0  0  0  0  0  0  0  0  0  0  0  0
    1.9651    4.2463   -0.2489 H   0  0  0  0  0  0  0  0  0  0  0  0
    0.7331   -0.2494    2.1122 H   0  0  0  0  0  0  0  0  0  0  0  0
    3.2295   -2.5799    2.8221 H   0  0  0  0  0  0  0  0  0  0  0  0
    2.4522   -1.1363    3.5349 H   0  0  0  0  0  0  0  0  0  0  0  0
    4.0814   -0.9954    2.8130 H   0  0  0  0  0  0  0  0  0  0  0  0
    4.9779   -2.5096    0.7003 H   0  0  0  0  0  0  0  0  0  0  0  0
    5.5686   -2.8096   -1.6917 H   0  0  0  0  0  0  0  0  0  0  0  0
    4.0686   -1.9787   -3.4697 H   0  0  0  0  0  0  0  0  0  0  0  0
    1.9518   -0.8350   -2.8955 H   0  0  0  0  0  0  0  0  0  0  0  0
   -1.9445   -2.2169   -1.3901 H   0  0  0  0  0  0  0  0  0  0  0  0
   -4.0649   -3.4429   -1.0524 H   0  0  0  0  0  0  0  0  0  0  0  0
   -5.7622   -2.6039    0.5341 H   0  0  0  0  0  0  0  0  0  0  0  0
   -5.3659   -0.5188    1.8205 H   0  0  0  0  0  0  0  0  0  0  0  0
  1  2  1  0
  2  3  1  0
  3  4  2  0
  4  5  1  0
  5  6  1  0
  6  7  2  0
  7  8  1  0
  8  9  2  0
  9 10  1  0
 10 11  2  0
  5 12  1  0
 12 13  2  0
 13 14  1  0
 14 15  1  0
 14 16  1  0
 16 17  2  0
 17 18  1  0
 18 19  2  0
 19 20  1  0
 20 21  2  0
  4 22  1  0
 22 23  2  0
 23 24  1  0
 24 25  2  0
 25 26  1  0
 26 27  2  0
 27  2  1  0
 11  6  1  0
 21 12  1  0
 27 22  1  0
 21 16  1  0
  1 28  1  0
  1 29  1  0
  1 30  1  0
  3 31  1  0
  5 32  1  0
  7 33  1  0
  8 34  1  0
  9 35  1  0
 10 36  1  0
 13 37  1  0
 15 38  1  0
 15 39  1  0
 15 40  1  0
 17 41  1  0
 18 42  1  0
 19 43  1  0
 20 44  1  0
 23 45  1  0
 24 46  1  0
 25 47  1  0
 26 48  1  0
M  END
$$$$
