
     RDKit          3D

 53 55  0  0  0  0  0  0  0  0999 V2000
    7.9899   -2.1499    4.0272 C   0  0  0  0  0  0  0  0  0  0  0  0
    7.4731   -2.4437    2.7357 O   0  0  0  0  0  0  0  0  0  0  0  0
    6.8078   -1.4368    2.0923 C   0  0  0  0  0  0  0  0  0  0  0  0
    6.5870   -0.1512    2.5860 C   0  0  0  0  0  0  0  0  0  0  0  0
    5.8865    0.7878    1.8193 C   0  0  0  0  0  0  0  0  0  0  0  0
    5.4045    0.4557    0.5463 C   0  0  0  0  0  0  0  0  0  0  0  0
    4.6299    1.4558   -0.2710 C   0  0  0  0  0  0  0  0  0  0  0  0
    3.2158    1.3187   -0.0431 N   0  0  0  0  0  0  0  0  0  0  0  0
    2.4032    0.5841   -0.8723 C   0  0  0  0  0  0  0  0  0  0  0  0
    2.7182    0.0805   -1.9417 O   0  0  0  0  0  0  0  0  0  0  0  0
    0.9650    0.4138   -0.3311 C   0  0  0  0  0  0  0  0  0  0  0  0
    0.6477    0.9220    0.7354 O   0  0  0  0  0  0  0  0  0  0  0  0
    0.1562   -0.3389   -1.1526 N   0  0  0  0  0  0  0  0  0  0  0  0
   -1.2749   -0.4452   -0.9322 C   0  0  0  0  0  0  0  0  0  0  0  0
   -2.0892    0.6596   -1.6460 C   0  0  0  0  0  0  0  0  0  0  0  0
   -1.6753    1.9660   -1.1949 O   0  0  0  0  0  0  0  0  0  0  0  0
   -2.6851    2.4345   -0.3004 C   0  0  0  0  0  0  0  0  0  0  0  0
   -3.9620    1.8609   -0.8692 C   0  0  0  0  0  0  0  0  0  0  0  0
   -3.5250    0.5277   -1.3088 N   0  0  0  0  0  0  0  0  0  0  0  0
   -4.4353   -0.2561   -2.4894 S   0  0  0  0  0  6  0  0  0  0  0  0
   -3.8493   -1.5627   -2.6972 O   0  0  0  0  0  0  0  0  0  0  0  0
   -4.6180    0.6638   -3.5913 O   0  0  0  0  0  0  0  0  0  0  0  0
   -5.9944   -0.4851   -1.6760 C   0  0  0  0  0  0  0  0  0  0  0  0
   -7.1108    0.2526   -2.0790 C   0  0  0  0  0  0  0  0  0  0  0  0
   -8.3297    0.0575   -1.4296 C   0  0  0  0  0  0  0  0  0  0  0  0
   -8.4285   -0.8715   -0.3916 C   0  0  0  0  0  0  0  0  0  0  0  0
   -7.3118   -1.6125   -0.0002 C   0  0  0  0  0  0  0  0  0  0  0  0
   -6.0894   -1.4239   -0.6441 C   0  0  0  0  0  0  0  0  0  0  0  0
    5.6203   -0.8398    0.0610 C   0  0  0  0  0  0  0  0  0  0  0  0
    6.3193   -1.7742    0.8285 C   0  0  0  0  0  0  0  0  0  0  0  0
    8.4893   -3.0494    4.3999 H   0  0  0  0  0  0  0  0  0  0  0  0
    8.7361   -1.3498    3.9815 H   0  0  0  0  0  0  0  0  0  0  0  0
    7.1854   -1.9017    4.7273 H   0  0  0  0  0  0  0  0  0  0  0  0
    6.9432    0.1540    3.5641 H   0  0  0  0  0  0  0  0  0  0  0  0
    5.7203    1.7829    2.2264 H   0  0  0  0  0  0  0  0  0  0  0  0
    4.9112    2.4770    0.0090 H   0  0  0  0  0  0  0  0  0  0  0  0
    4.8595    1.3360   -1.3360 H   0  0  0  0  0  0  0  0  0  0  0  0
    2.8234    1.5707    0.8592 H   0  0  0  0  0  0  0  0  0  0  0  0
    0.5611   -0.6262   -2.0404 H   0  0  0  0  0  0  0  0  0  0  0  0
   -1.5784   -1.4356   -1.2844 H   0  0  0  0  0  0  0  0  0  0  0  0
   -1.4583   -0.4028    0.1480 H   0  0  0  0  0  0  0  0  0  0  0  0
   -1.9055    0.6313   -2.7255 H   0  0  0  0  0  0  0  0  0  0  0  0
   -2.6849    3.5270   -0.2678 H   0  0  0  0  0  0  0  0  0  0  0  0
   -2.4726    2.0449    0.7015 H   0  0  0  0  0  0  0  0  0  0  0  0
   -4.2941    2.4634   -1.7211 H   0  0  0  0  0  0  0  0  0  0  0  0
   -4.7540    1.8111   -0.1187 H   0  0  0  0  0  0  0  0  0  0  0  0
   -7.0429    0.9711   -2.8928 H   0  0  0  0  0  0  0  0  0  0  0  0
   -9.2060    0.6242   -1.7356 H   0  0  0  0  0  0  0  0  0  0  0  0
   -9.3819   -1.0240    0.1095 H   0  0  0  0  0  0  0  0  0  0  0  0
   -7.3972   -2.3407    0.8030 H   0  0  0  0  0  0  0  0  0  0  0  0
   -5.2214   -2.0067   -0.3437 H   0  0  0  0  0  0  0  0  0  0  0  0
    5.2408   -1.1302   -0.9173 H   0  0  0  0  0  0  0  0  0  0  0  0
    6.4814   -2.7760    0.4382 H   0  0  0  0  0  0  0  0  0  0  0  0
  1  2  1  0
  2  3  1  0
  3  4  2  0
  4  5  1  0
  5  6  2  0
  6  7  1  0
  7  8  1  0
  8  9  1  0
  9 10  2  0
  9 11  1  0
 11 12  2  0
 11 13  1  0
 13 14  1  0
 14 15  1  0
 15 16  1  0
 16 17  1  0
 17 18  1  0
 18 19  1  0
 19 20  1  0
 20 21  2  0
 20 22  2  0
 20 23  1  0
 23 24  2  0
 24 25  1  0
 25 26  2  0
 26 27  1  0
 27 28  2  0
  6 29  1  0
 29 30  2  0
 30  3  1  0
 19 15  1  0
 28 23  1  0
  1 31  1  0
  1 32  1  0
  1 33  1  0
  4 34  1  0
  5 35  1  0
  7 36  1  0
  7 37  1  0
  8 38  1  0
 13 39  1  0
 14 40  1  0
 14 41  1  0
 15 42  1  0
 17 43  1  0
 17 44  1  0
 18 45  1  0
 18 46  1  0
 24 47  1  0
 25 48  1  0
 26 49  1  0
 27 50  1  0
 28 51  1  0
 29 52  1  0
 30 53  1  0
M  END
$$$$
