
     RDKit          3D

 36 37  0  0  0  0  0  0  0  0999 V2000
    1.7757    0.9126   -2.4059 O   0  0  0  0  0  0  0  0  0  0  0  0
    0.8300    0.8338   -1.6283 C   0  0  0  0  0  0  0  0  0  0  0  0
   -0.5050    1.5249   -1.8920 C   0  0  0  0  0  0  0  0  0  0  0  0
   -1.5615    0.8410   -1.2083 O   0  0  0  0  0  0  0  0  0  0  0  0
   -2.7279    1.5226   -1.1784 C   0  0  0  0  0  0  0  0  0  0  0  0
   -2.9535    2.6029   -1.6957 O   0  0  0  0  0  0  0  0  0  0  0  0
   -3.7643    0.7159   -0.5064 C   0  0  0  0  0  0  0  0  0  0  0  0
   -5.0037    0.6218   -1.1587 C   0  0  0  0  0  0  0  0  0  0  0  0
   -6.0315   -0.1254   -0.5890 C   0  0  0  0  0  0  0  0  0  0  0  0
   -7.5452   -0.2510   -1.3942 Cl  0  0  0  0  0  0  0  0  0  0  0  0
   -5.8413   -0.7729    0.6299 C   0  0  0  0  0  0  0  0  0  0  0  0
   -4.6149   -0.6645    1.2907 C   0  0  0  0  0  0  0  0  0  0  0  0
   -3.5733    0.0839    0.7297 C   0  0  0  0  0  0  0  0  0  0  0  0
   -2.1155    0.2184    1.6483 Cl  0  0  0  0  0  0  0  0  0  0  0  0
    0.8941    0.1703   -0.4214 N   0  0  0  0  0  0  0  0  0  0  0  0
    2.0365   -0.6376   -0.0356 C   0  0  0  0  0  0  0  0  0  0  0  0
    3.3150    0.1741    0.2077 C   0  0  0  0  0  0  0  0  0  0  0  0
    4.3259   -0.6024    0.9071 N   0  0  0  0  0  0  0  0  0  0  0  0
    4.4455   -0.6369    2.2744 C   0  0  0  0  0  0  0  0  0  0  0  0
    3.5960    0.1118    3.0319 O   0  0  0  0  0  0  0  0  0  0  0  0
    5.4137   -1.4407    2.7285 C   0  0  0  0  0  0  0  0  0  0  0  0
    6.2383   -2.2329    1.4207 S   0  0  0  0  0  0  0  0  0  0  0  0
    5.1953   -1.4372    0.2233 C   0  0  0  0  0  0  0  0  0  0  0  0
    5.2664   -1.6451   -0.9753 O   0  0  0  0  0  0  0  0  0  0  0  0
   -0.4167    2.5600   -1.5432 H   0  0  0  0  0  0  0  0  0  0  0  0
   -0.7013    1.4929   -2.9688 H   0  0  0  0  0  0  0  0  0  0  0  0
   -5.1603    1.1295   -2.1090 H   0  0  0  0  0  0  0  0  0  0  0  0
   -6.6449   -1.3551    1.0754 H   0  0  0  0  0  0  0  0  0  0  0  0
   -4.4831   -1.1600    2.2506 H   0  0  0  0  0  0  0  0  0  0  0  0
    0.0144    0.0278    0.0653 H   0  0  0  0  0  0  0  0  0  0  0  0
    2.2059   -1.3899   -0.8145 H   0  0  0  0  0  0  0  0  0  0  0  0
    1.7430   -1.1676    0.8775 H   0  0  0  0  0  0  0  0  0  0  0  0
    3.0974    1.0855    0.7771 H   0  0  0  0  0  0  0  0  0  0  0  0
    3.7356    0.4979   -0.7515 H   0  0  0  0  0  0  0  0  0  0  0  0
    3.8431    0.0036    3.9661 H   0  0  0  0  0  0  0  0  0  0  0  0
    5.6721   -1.6121    3.7628 H   0  0  0  0  0  0  0  0  0  0  0  0
  1  2  2  0
  2  3  1  0
  3  4  1  0
  4  5  1  0
  5  6  2  0
  5  7  1  0
  7  8  2  0
  8  9  1  0
  9 10  1  0
  9 11  2  0
 11 12  1  0
 12 13  2  0
 13 14  1  0
  2 15  1  0
 15 16  1  0
 16 17  1  0
 17 18  1  0
 18 19  1  0
 19 20  1  0
 19 21  2  0
 21 22  1  0
 22 23  1  0
 23 24  2  0
 13  7  1  0
 23 18  1  0
  3 25  1  0
  3 26  1  0
  8 27  1  0
 11 28  1  0
 12 29  1  0
 15 30  1  0
 16 31  1  0
 16 32  1  0
 17 33  1  0
 17 34  1  0
 20 35  1  0
 21 36  1  0
M  END
$$$$
