
     RDKit          3D

 61 65  0  0  0  0  0  0  0  0999 V2000
   -7.9463   -1.4695    1.4167 C   0  0  0  0  0  0  0  0  0  0  0  0
   -7.5737   -0.2654    0.7631 O   0  0  0  0  0  0  0  0  0  0  0  0
   -6.2395   -0.0634    0.5116 C   0  0  0  0  0  0  0  0  0  0  0  0
   -5.2315   -0.9830    0.8111 C   0  0  0  0  0  0  0  0  0  0  0  0
   -3.8970   -0.6873    0.5172 C   0  0  0  0  0  0  0  0  0  0  0  0
   -3.5431    0.5280   -0.0815 C   0  0  0  0  0  0  0  0  0  0  0  0
   -2.1382    0.8046   -0.3703 C   0  0  0  0  0  0  0  0  0  0  0  0
   -1.0796    0.0423   -0.1693 N   0  0  0  0  0  0  0  0  0  0  0  0
   -0.0139    0.8119   -0.5926 C   0  0  0  0  0  0  0  0  0  0  0  0
    1.3770    0.2989   -0.5038 C   0  0  0  0  0  0  0  0  0  0  0  0
    2.0126    0.7395    0.7271 N   0  0  0  0  0  0  0  0  0  0  0  0
    3.0022    1.6780    0.8753 C   0  0  0  0  0  0  0  0  0  0  0  0
    3.6763    2.5913   -0.4323 S   0  0  0  0  0  0  0  0  0  0  0  0
    5.3119    1.7965   -0.5358 C   0  0  0  0  0  0  0  0  0  0  0  0
    5.2191    0.3883   -1.0737 C   0  0  0  0  0  0  0  0  0  0  0  0
    5.2115   -0.7072   -0.1991 C   0  0  0  0  0  0  0  0  0  0  0  0
    5.0736   -2.0071   -0.6899 C   0  0  0  0  0  0  0  0  0  0  0  0
    4.9551   -2.2375   -2.0644 C   0  0  0  0  0  0  0  0  0  0  0  0
    4.7776   -3.6326   -2.5868 C   0  0  0  0  0  0  0  0  0  0  0  0
    4.9523   -1.1457   -2.9392 C   0  0  0  0  0  0  0  0  0  0  0  0
    5.0872    0.1555   -2.4494 C   0  0  0  0  0  0  0  0  0  0  0  0
    3.4237    1.7674    2.1145 N   0  0  0  0  0  0  0  0  0  0  0  0
    2.6728    0.8581    2.8149 C   0  0  0  0  0  0  0  0  0  0  0  0
    2.7069    0.5414    4.1723 C   0  0  0  0  0  0  0  0  0  0  0  0
    1.8245   -0.4445    4.5813 C   0  0  0  0  0  0  0  0  0  0  0  0
    0.9602   -1.0957    3.7687 N   0  0  0  0  0  0  0  0  0  0  0  0
    0.9204   -0.7804    2.4518 C   0  0  0  0  0  0  0  0  0  0  0  0
    1.7846    0.1954    1.9757 C   0  0  0  0  0  0  0  0  0  0  0  0
   -0.4859    2.0180   -1.0680 C   0  0  0  0  0  0  0  0  0  0  0  0
    0.1275    3.2260   -1.6464 C   0  0  0  0  0  0  0  0  0  0  0  0
   -1.8448    2.0222   -0.9262 O   0  0  0  0  0  0  0  0  0  0  0  0
   -4.5588    1.4487   -0.3828 C   0  0  0  0  0  0  0  0  0  0  0  0
   -5.9002    1.1643   -0.0915 C   0  0  0  0  0  0  0  0  0  0  0  0
   -6.9471    2.0136   -0.3551 O   0  0  0  0  0  0  0  0  0  0  0  0
   -6.6460    3.2789   -0.9266 C   0  0  0  0  0  0  0  0  0  0  0  0
   -9.0311   -1.4509    1.5593 H   0  0  0  0  0  0  0  0  0  0  0  0
   -7.4827   -1.5430    2.4057 H   0  0  0  0  0  0  0  0  0  0  0  0
   -7.7076   -2.3423    0.8008 H   0  0  0  0  0  0  0  0  0  0  0  0
   -5.4470   -1.9399    1.2741 H   0  0  0  0  0  0  0  0  0  0  0  0
   -3.1271   -1.4172    0.7634 H   0  0  0  0  0  0  0  0  0  0  0  0
    1.3869   -0.7973   -0.5005 H   0  0  0  0  0  0  0  0  0  0  0  0
    1.9673    0.6157   -1.3667 H   0  0  0  0  0  0  0  0  0  0  0  0
    5.9433    2.3963   -1.2013 H   0  0  0  0  0  0  0  0  0  0  0  0
    5.8005    1.8098    0.4453 H   0  0  0  0  0  0  0  0  0  0  0  0
    5.3003   -0.5534    0.8756 H   0  0  0  0  0  0  0  0  0  0  0  0
    5.0615   -2.8398    0.0105 H   0  0  0  0  0  0  0  0  0  0  0  0
    3.7160   -3.8976   -2.5909 H   0  0  0  0  0  0  0  0  0  0  0  0
    5.1678   -3.7218   -3.6060 H   0  0  0  0  0  0  0  0  0  0  0  0
    5.3215   -4.3530   -1.9668 H   0  0  0  0  0  0  0  0  0  0  0  0
    4.8472   -1.3018   -4.0107 H   0  0  0  0  0  0  0  0  0  0  0  0
    5.0823    0.9884   -3.1496 H   0  0  0  0  0  0  0  0  0  0  0  0
    3.3820    1.0349    4.8572 H   0  0  0  0  0  0  0  0  0  0  0  0
    1.7879   -0.7514    5.6235 H   0  0  0  0  0  0  0  0  0  0  0  0
    0.2053   -1.3131    1.8370 H   0  0  0  0  0  0  0  0  0  0  0  0
   -0.6060    3.8078   -2.2133 H   0  0  0  0  0  0  0  0  0  0  0  0
    0.5305    3.8646   -0.8551 H   0  0  0  0  0  0  0  0  0  0  0  0
    0.9404    2.9595   -2.3285 H   0  0  0  0  0  0  0  0  0  0  0  0
   -4.2821    2.3896   -0.8471 H   0  0  0  0  0  0  0  0  0  0  0  0
   -6.0009    3.8691   -0.2666 H   0  0  0  0  0  0  0  0  0  0  0  0
   -7.5869    3.8249   -1.0450 H   0  0  0  0  0  0  0  0  0  0  0  0
   -6.2003    3.1665   -1.9207 H   0  0  0  0  0  0  0  0  0  0  0  0
  1  2  1  0
  2  3  1  0
  3  4  2  0
  4  5  1  0
  5  6  2  0
  6  7  1  0
  7  8  2  0
  8  9  1  0
  9 10  1  0
 10 11  1  0
 11 12  1  0
 12 13  1  0
 13 14  1  0
 14 15  1  0
 15 16  2  0
 16 17  1  0
 17 18  2  0
 18 19  1  0
 18 20  1  0
 20 21  2  0
 12 22  2  0
 22 23  1  0
 23 24  2  0
 24 25  1  0
 25 26  2  0
 26 27  1  0
 27 28  2  0
  9 29  2  0
 29 30  1  0
 29 31  1  0
  6 32  1  0
 32 33  2  0
 33 34  1  0
 34 35  1  0
 33  3  1  0
 31  7  1  0
 28 11  1  0
 21 15  1  0
 28 23  1  0
  1 36  1  0
  1 37  1  0
  1 38  1  0
  4 39  1  0
  5 40  1  0
 10 41  1  0
 10 42  1  0
 14 43  1  0
 14 44  1  0
 16 45  1  0
 17 46  1  0
 19 47  1  0
 19 48  1  0
 19 49  1  0
 20 50  1  0
 21 51  1  0
 24 52  1  0
 25 53  1  0
 27 54  1  0
 30 55  1  0
 30 56  1  0
 30 57  1  0
 32 58  1  0
 35 59  1  0
 35 60  1  0
 35 61  1  0
M  END
$$$$
