
     RDKit          3D

 37 38  0  0  0  0  0  0  0  0999 V2000
   -5.2709    0.9826   -1.9571 C   0  0  0  0  0  0  0  0  0  0  0  0
   -4.7452    0.2119   -0.8866 O   0  0  0  0  0  0  0  0  0  0  0  0
   -3.4604    0.4724   -0.4795 C   0  0  0  0  0  0  0  0  0  0  0  0
   -2.6304    1.4406   -1.0560 C   0  0  0  0  0  0  0  0  0  0  0  0
   -1.3315    1.6353   -0.5774 C   0  0  0  0  0  0  0  0  0  0  0  0
   -0.8515    0.8556    0.4787 C   0  0  0  0  0  0  0  0  0  0  0  0
    0.5242    1.0272    1.0204 C   0  0  0  0  0  0  0  0  0  0  0  0
    0.7600    0.7609    2.1931 O   0  0  0  0  0  0  0  0  0  0  0  0
    1.4840    1.4518    0.1261 N   0  0  0  0  0  0  0  0  0  0  0  0
    2.8780    1.5250    0.5019 C   0  0  0  0  0  0  0  0  0  0  0  0
    3.6134    0.2789    0.0764 C   0  0  0  0  0  0  0  0  0  0  0  0
    4.3429    0.2483   -1.1191 C   0  0  0  0  0  0  0  0  0  0  0  0
    5.0005   -0.9191   -1.5158 C   0  0  0  0  0  0  0  0  0  0  0  0
    4.9311   -2.0712   -0.7267 C   0  0  0  0  0  0  0  0  0  0  0  0
    5.7679   -3.4767   -1.2834 Cl  0  0  0  0  0  0  0  0  0  0  0  0
    4.1990   -2.0546    0.4644 C   0  0  0  0  0  0  0  0  0  0  0  0
    4.0613   -3.4408    1.4863 Cl  0  0  0  0  0  0  0  0  0  0  0  0
    3.5432   -0.8842    0.8604 C   0  0  0  0  0  0  0  0  0  0  0  0
   -1.6827   -0.1030    1.0722 C   0  0  0  0  0  0  0  0  0  0  0  0
   -2.9834   -0.3032    0.5979 C   0  0  0  0  0  0  0  0  0  0  0  0
   -3.8612   -1.2265    1.1108 O   0  0  0  0  0  0  0  0  0  0  0  0
   -3.4394   -1.9820    2.2381 C   0  0  0  0  0  0  0  0  0  0  0  0
   -6.2948    0.6439   -2.1421 H   0  0  0  0  0  0  0  0  0  0  0  0
   -5.3146    2.0448   -1.6950 H   0  0  0  0  0  0  0  0  0  0  0  0
   -4.6976    0.8244   -2.8765 H   0  0  0  0  0  0  0  0  0  0  0  0
   -2.9691    2.0666   -1.8750 H   0  0  0  0  0  0  0  0  0  0  0  0
   -0.7214    2.4165   -1.0218 H   0  0  0  0  0  0  0  0  0  0  0  0
    1.2753    1.4266   -0.8617 H   0  0  0  0  0  0  0  0  0  0  0  0
    3.3013    2.4055    0.0060 H   0  0  0  0  0  0  0  0  0  0  0  0
    2.9839    1.6790    1.5817 H   0  0  0  0  0  0  0  0  0  0  0  0
    4.4073    1.1327   -1.7501 H   0  0  0  0  0  0  0  0  0  0  0  0
    5.5664   -0.9251   -2.4446 H   0  0  0  0  0  0  0  0  0  0  0  0
    2.9660   -0.8737    1.7850 H   0  0  0  0  0  0  0  0  0  0  0  0
   -1.2861   -0.6833    1.9000 H   0  0  0  0  0  0  0  0  0  0  0  0
   -2.5835   -2.6175    1.9885 H   0  0  0  0  0  0  0  0  0  0  0  0
   -4.2658   -2.6378    2.5288 H   0  0  0  0  0  0  0  0  0  0  0  0
   -3.2163   -1.3314    3.0901 H   0  0  0  0  0  0  0  0  0  0  0  0
  1  2  1  0
  2  3  1  0
  3  4  2  0
  4  5  1  0
  5  6  2  0
  6  7  1  0
  7  8  2  0
  7  9  1  0
  9 10  1  0
 10 11  1  0
 11 12  2  0
 12 13  1  0
 13 14  2  0
 14 15  1  0
 14 16  1  0
 16 17  1  0
 16 18  2  0
  6 19  1  0
 19 20  2  0
 20 21  1  0
 21 22  1  0
 20  3  1  0
 18 11  1  0
  1 23  1  0
  1 24  1  0
  1 25  1  0
  4 26  1  0
  5 27  1  0
  9 28  1  0
 10 29  1  0
 10 30  1  0
 12 31  1  0
 13 32  1  0
 18 33  1  0
 19 34  1  0
 22 35  1  0
 22 36  1  0
 22 37  1  0
M  END
$$$$
