
     RDKit          3D

 63 67  0  0  0  0  0  0  0  0999 V2000
   -5.5396   -0.1482    0.4321 C   0  0  0  0  0  0  0  0  0  0  0  0
   -4.3632   -0.5045    1.1701 O   0  0  0  0  0  0  0  0  0  0  0  0
   -4.6176   -1.3408    2.2137 C   0  0  0  0  0  0  0  0  0  0  0  0
   -5.7214   -1.7737    2.5126 O   0  0  0  0  0  0  0  0  0  0  0  0
   -3.3922   -1.6487    2.9997 C   0  0  0  0  0  0  0  0  0  0  0  0
   -3.6174   -2.0953    4.3175 C   0  0  0  0  0  0  0  0  0  0  0  0
   -2.5529   -2.3991    5.1643 C   0  0  0  0  0  0  0  0  0  0  0  0
   -1.2494   -2.2418    4.7106 C   0  0  0  0  0  0  0  0  0  0  0  0
   -1.0110   -1.8176    3.4010 C   0  0  0  0  0  0  0  0  0  0  0  0
   -2.0699   -1.5450    2.5181 C   0  0  0  0  0  0  0  0  0  0  0  0
   -1.7962   -1.0970    1.1983 N   0  0  0  0  0  0  0  0  0  0  0  0
   -0.7176   -1.4041    0.3764 C   0  0  0  0  0  0  0  0  0  0  0  0
    0.0235   -2.9208    0.4036 S   0  0  0  0  0  0  0  0  0  0  0  0
   -0.3782   -0.3625   -0.5150 N   0  0  0  0  0  0  0  0  0  0  0  0
   -1.0205    0.9643   -0.4534 C   0  0  0  0  0  0  0  0  0  0  0  0
   -1.9349    1.2384   -1.6313 C   0  0  0  0  0  0  0  0  0  0  0  0
   -1.8838    2.5008   -2.2705 C   0  0  0  0  0  0  0  0  0  0  0  0
   -2.7325    2.8078   -3.3390 C   0  0  0  0  0  0  0  0  0  0  0  0
   -3.6255    1.8424   -3.7465 C   0  0  0  0  0  0  0  0  0  0  0  0
   -3.6870    0.6140   -3.1333 C   0  0  0  0  0  0  0  0  0  0  0  0
   -2.8594    0.2805   -2.0811 C   0  0  0  0  0  0  0  0  0  0  0  0
   -4.6346   -0.1931   -3.6813 O   0  0  0  0  0  0  0  0  0  0  0  0
   -5.1640    0.6720   -4.7086 C   0  0  0  0  0  0  0  0  0  0  0  0
   -4.5200    1.9621   -4.7633 O   0  0  0  0  0  0  0  0  0  0  0  0
    0.6685   -0.4987   -1.5593 C   0  0  0  0  0  0  0  0  0  0  0  0
    2.0075    0.0142   -1.0925 C   0  0  0  0  0  0  0  0  0  0  0  0
    2.9396   -0.7680   -0.5141 C   0  0  0  0  0  0  0  0  0  0  0  0
    4.2474   -0.2414   -0.1275 C   0  0  0  0  0  0  0  0  0  0  0  0
    5.2108   -1.0455    0.4854 C   0  0  0  0  0  0  0  0  0  0  0  0
    6.4573   -0.5096    0.8330 C   0  0  0  0  0  0  0  0  0  0  0  0
    6.7457    0.8320    0.5704 C   0  0  0  0  0  0  0  0  0  0  0  0
    7.9164    1.4724    0.8694 O   0  0  0  0  0  0  0  0  0  0  0  0
    9.0182    0.6414    1.2343 C   0  0  0  0  0  0  0  0  0  0  0  0
    5.7783    1.6381   -0.0363 C   0  0  0  0  0  0  0  0  0  0  0  0
    4.5410    1.0978   -0.3878 C   0  0  0  0  0  0  0  0  0  0  0  0
    3.5769    1.8966   -1.0150 N   0  0  0  0  0  0  0  0  0  0  0  0
    2.3511    1.4356   -1.4171 C   0  0  0  0  0  0  0  0  0  0  0  0
    1.5760    2.1712   -2.0224 O   0  0  0  0  0  0  0  0  0  0  0  0
   -5.2666    0.5933   -0.3257 H   0  0  0  0  0  0  0  0  0  0  0  0
   -5.9447   -1.0308   -0.0749 H   0  0  0  0  0  0  0  0  0  0  0  0
   -6.2915    0.3034    1.0884 H   0  0  0  0  0  0  0  0  0  0  0  0
   -4.6338   -2.2031    4.6945 H   0  0  0  0  0  0  0  0  0  0  0  0
   -2.7396   -2.7352    6.1807 H   0  0  0  0  0  0  0  0  0  0  0  0
   -0.4117   -2.4483    5.3740 H   0  0  0  0  0  0  0  0  0  0  0  0
    0.0229   -1.6818    3.0937 H   0  0  0  0  0  0  0  0  0  0  0  0
   -2.6110   -0.7431    0.6981 H   0  0  0  0  0  0  0  0  0  0  0  0
   -1.6014    1.1003    0.4635 H   0  0  0  0  0  0  0  0  0  0  0  0
   -0.2285    1.7153   -0.3950 H   0  0  0  0  0  0  0  0  0  0  0  0
   -1.1612    3.2481   -1.9423 H   0  0  0  0  0  0  0  0  0  0  0  0
   -2.6827    3.7702   -3.8354 H   0  0  0  0  0  0  0  0  0  0  0  0
   -2.9329   -0.7039   -1.6311 H   0  0  0  0  0  0  0  0  0  0  0  0
   -6.2332    0.8228   -4.5207 H   0  0  0  0  0  0  0  0  0  0  0  0
   -5.0458    0.1777   -5.6787 H   0  0  0  0  0  0  0  0  0  0  0  0
    0.3385    0.0189   -2.4675 H   0  0  0  0  0  0  0  0  0  0  0  0
    0.7586   -1.5472   -1.8637 H   0  0  0  0  0  0  0  0  0  0  0  0
    2.7504   -1.8163   -0.3148 H   0  0  0  0  0  0  0  0  0  0  0  0
    5.0047   -2.0903    0.7016 H   0  0  0  0  0  0  0  0  0  0  0  0
    7.1753   -1.1662    1.3132 H   0  0  0  0  0  0  0  0  0  0  0  0
    9.2283   -0.1050    0.4577 H   0  0  0  0  0  0  0  0  0  0  0  0
    8.8467    0.1704    2.2087 H   0  0  0  0  0  0  0  0  0  0  0  0
    9.9027    1.2798    1.3299 H   0  0  0  0  0  0  0  0  0  0  0  0
    6.0049    2.6820   -0.2389 H   0  0  0  0  0  0  0  0  0  0  0  0
    3.7818    2.8629   -1.2304 H   0  0  0  0  0  0  0  0  0  0  0  0
  1  2  1  0
  2  3  1  0
  3  4  2  0
  3  5  1  0
  5  6  2  0
  6  7  1  0
  7  8  2  0
  8  9  1  0
  9 10  2  0
 10 11  1  0
 11 12  1  0
 12 13  2  0
 12 14  1  0
 14 15  1  0
 15 16  1  0
 16 17  2  0
 17 18  1  0
 18 19  2  0
 19 20  1  0
 20 21  2  0
 20 22  1  0
 22 23  1  0
 23 24  1  0
 14 25  1  0
 25 26  1  0
 26 27  2  0
 27 28  1  0
 28 29  2  0
 29 30  1  0
 30 31  2  0
 31 32  1  0
 32 33  1  0
 31 34  1  0
 34 35  2  0
 35 36  1  0
 36 37  1  0
 37 38  2  0
 10  5  1  0
 21 16  1  0
 37 26  1  0
 24 19  1  0
 35 28  1  0
  1 39  1  0
  1 40  1  0
  1 41  1  0
  6 42  1  0
  7 43  1  0
  8 44  1  0
  9 45  1  0
 11 46  1  0
 15 47  1  0
 15 48  1  0
 17 49  1  0
 18 50  1  0
 21 51  1  0
 23 52  1  0
 23 53  1  0
 25 54  1  0
 25 55  1  0
 27 56  1  0
 29 57  1  0
 30 58  1  0
 33 59  1  0
 33 60  1  0
 33 61  1  0
 34 62  1  0
 36 63  1  0
M  END
$$$$
