
     RDKit          3D

 34 35  0  0  0  0  0  0  0  0999 V2000
    6.3106    0.5129    0.7499 C   0  0  0  0  0  0  0  0  0  0  0  0
    5.2191   -0.2495    1.2544 O   0  0  0  0  0  0  0  0  0  0  0  0
    4.0318   -0.1434    0.5851 C   0  0  0  0  0  0  0  0  0  0  0  0
    3.8318    0.5111   -0.6291 C   0  0  0  0  0  0  0  0  0  0  0  0
    2.5545    0.5450   -1.2028 C   0  0  0  0  0  0  0  0  0  0  0  0
    1.4701   -0.0796   -0.5834 C   0  0  0  0  0  0  0  0  0  0  0  0
    0.2014    0.0220   -1.1735 N   0  0  0  0  0  0  0  0  0  0  0  0
   -0.4225   -1.0812   -1.4283 C   0  0  0  0  0  0  0  0  0  0  0  0
   -1.8024   -1.0430   -2.0076 C   0  0  0  0  0  0  0  0  0  0  0  0
   -2.8387   -1.4233   -0.9802 C   0  0  0  0  0  0  0  0  0  0  0  0
   -3.1340   -2.6048   -0.7993 O   0  0  0  0  0  0  0  0  0  0  0  0
   -3.4921   -0.3622   -0.1528 C   0  0  0  0  0  0  0  0  0  0  0  0
   -3.0200    0.9564   -0.1060 C   0  0  0  0  0  0  0  0  0  0  0  0
   -3.6712    1.9122    0.6833 C   0  0  0  0  0  0  0  0  0  0  0  0
   -4.7918    1.5529    1.4301 C   0  0  0  0  0  0  0  0  0  0  0  0
   -5.5893    2.7315    2.3995 Cl  0  0  0  0  0  0  0  0  0  0  0  0
   -5.2641    0.2433    1.3997 C   0  0  0  0  0  0  0  0  0  0  0  0
   -4.6147   -0.7132    0.6121 C   0  0  0  0  0  0  0  0  0  0  0  0
    1.6749   -0.7293    0.6368 C   0  0  0  0  0  0  0  0  0  0  0  0
    2.9494   -0.7709    1.2089 C   0  0  0  0  0  0  0  0  0  0  0  0
    6.6168    0.1533   -0.2378 H   0  0  0  0  0  0  0  0  0  0  0  0
    6.0710    1.5814    0.7282 H   0  0  0  0  0  0  0  0  0  0  0  0
    7.1564    0.3771    1.4295 H   0  0  0  0  0  0  0  0  0  0  0  0
    4.6419    1.0077   -1.1539 H   0  0  0  0  0  0  0  0  0  0  0  0
    2.4035    1.0677   -2.1426 H   0  0  0  0  0  0  0  0  0  0  0  0
   -0.0006   -2.0796   -1.2079 H   0  0  0  0  0  0  0  0  0  0  0  0
   -1.8533   -1.7705   -2.8259 H   0  0  0  0  0  0  0  0  0  0  0  0
   -2.0200   -0.0654   -2.4469 H   0  0  0  0  0  0  0  0  0  0  0  0
   -2.1377    1.2722   -0.6573 H   0  0  0  0  0  0  0  0  0  0  0  0
   -3.2941    2.9328    0.7088 H   0  0  0  0  0  0  0  0  0  0  0  0
   -6.1344   -0.0431    1.9845 H   0  0  0  0  0  0  0  0  0  0  0  0
   -4.9918   -1.7354    0.5975 H   0  0  0  0  0  0  0  0  0  0  0  0
    0.8438   -1.2010    1.1544 H   0  0  0  0  0  0  0  0  0  0  0  0
    3.0959   -1.2840    2.1564 H   0  0  0  0  0  0  0  0  0  0  0  0
  1  2  1  0
  2  3  1  0
  3  4  2  0
  4  5  1  0
  5  6  2  0
  6  7  1  0
  7  8  2  3
  8  9  1  0
  9 10  1  0
 10 11  2  0
 10 12  1  0
 12 13  2  0
 13 14  1  0
 14 15  2  0
 15 16  1  0
 15 17  1  0
 17 18  2  0
  6 19  1  0
 19 20  2  0
 20  3  1  0
 18 12  1  0
  1 21  1  0
  1 22  1  0
  1 23  1  0
  4 24  1  0
  5 25  1  0
  8 26  1  0
  9 27  1  0
  9 28  1  0
 13 29  1  0
 14 30  1  0
 17 31  1  0
 18 32  1  0
 19 33  1  0
 20 34  1  0
M  END
$$$$
