
     RDKit          3D

 60 65  0  0  0  0  0  0  0  0999 V2000
    4.8351    0.4956   -3.9994 C   0  0  0  0  0  0  0  0  0  0  0  0
    5.1670   -0.2125   -2.7410 C   0  0  0  0  0  0  0  0  0  0  0  0
    6.4068   -0.1571   -2.2399 N   0  0  0  0  0  0  0  0  0  0  0  0
    6.3886   -0.9462   -1.1070 O   0  0  0  0  0  0  0  0  0  0  0  0
    5.1433   -1.4631   -0.9295 C   0  0  0  0  0  0  0  0  0  0  0  0
    4.9969   -2.3934    0.2054 C   0  0  0  0  0  0  0  0  0  0  0  0
    4.3074   -0.9880   -1.9186 C   0  0  0  0  0  0  0  0  0  0  0  0
    2.9091   -1.2894   -2.1340 C   0  0  0  0  0  0  0  0  0  0  0  0
    2.5179   -1.6628   -3.2378 O   0  0  0  0  0  0  0  0  0  0  0  0
    2.0246   -1.1278   -1.0619 N   0  0  0  0  0  0  0  0  0  0  0  0
    0.6505   -1.5696   -1.2586 C   0  0  0  0  0  0  0  0  0  0  0  0
   -0.0935   -1.7379    0.0602 C   0  0  0  0  0  0  0  0  0  0  0  0
   -0.0977   -0.4495    0.9296 C   0  0  0  0  0  0  0  0  0  0  0  0
    1.0483    0.5094    0.5058 C   0  0  0  0  0  0  0  0  0  0  0  0
    2.2952   -0.2695    0.0945 C   0  0  0  0  0  0  0  0  0  0  0  0
    0.2957   -0.8399    2.2780 O   0  0  0  0  0  0  0  0  0  0  0  0
   -0.6656   -1.3328    3.1082 C   0  0  0  0  0  0  0  0  0  0  0  0
   -0.2095   -1.9386    4.2807 C   0  0  0  0  0  0  0  0  0  0  0  0
   -1.1207   -2.4924    5.1817 C   0  0  0  0  0  0  0  0  0  0  0  0
   -2.4827   -2.4336    4.9050 C   0  0  0  0  0  0  0  0  0  0  0  0
   -3.3533   -2.9701    5.7690 F   0  0  0  0  0  0  0  0  0  0  0  0
   -2.9520   -1.8242    3.7492 C   0  0  0  0  0  0  0  0  0  0  0  0
   -2.0323   -1.2639    2.8587 C   0  0  0  0  0  0  0  0  0  0  0  0
   -2.4926   -0.5914    1.6384 C   0  0  0  0  0  0  0  0  0  0  0  0
   -3.6416   -0.7694    1.2421 O   0  0  0  0  0  0  0  0  0  0  0  0
   -1.4673    0.2875    0.9287 C   0  0  0  0  0  0  0  0  0  0  0  0
   -1.9785    0.7174   -0.4399 C   0  0  0  0  0  0  0  0  0  0  0  0
   -2.5638    2.0357   -0.0597 C   0  0  0  0  0  0  0  0  0  0  0  0
   -3.4657    2.7895   -0.9625 C   0  0  0  0  0  0  0  0  0  0  0  0
   -3.7529    2.3396   -2.2569 C   0  0  0  0  0  0  0  0  0  0  0  0
   -4.6060    3.0803   -3.0824 C   0  0  0  0  0  0  0  0  0  0  0  0
   -5.1696    4.2675   -2.6167 C   0  0  0  0  0  0  0  0  0  0  0  0
   -6.2166    5.1738   -3.6367 Cl  0  0  0  0  0  0  0  0  0  0  0  0
   -4.8881    4.7236   -1.3313 C   0  0  0  0  0  0  0  0  0  0  0  0
   -4.0363    3.9855   -0.5049 C   0  0  0  0  0  0  0  0  0  0  0  0
   -2.1917    2.4797    1.0986 N   0  0  0  0  0  0  0  0  0  0  0  0
   -1.3533    1.5061    1.6819 O   0  0  0  0  0  0  0  0  0  0  0  0
    3.9227    1.0884   -3.8789 H   0  0  0  0  0  0  0  0  0  0  0  0
    4.6759   -0.2234   -4.8091 H   0  0  0  0  0  0  0  0  0  0  0  0
    5.6380    1.1757   -4.3022 H   0  0  0  0  0  0  0  0  0  0  0  0
    4.0758   -2.9782    0.1261 H   0  0  0  0  0  0  0  0  0  0  0  0
    4.9765   -1.8422    1.1502 H   0  0  0  0  0  0  0  0  0  0  0  0
    5.8353   -3.0964    0.2380 H   0  0  0  0  0  0  0  0  0  0  0  0
    0.1525   -0.8359   -1.9018 H   0  0  0  0  0  0  0  0  0  0  0  0
    0.6548   -2.5210   -1.8034 H   0  0  0  0  0  0  0  0  0  0  0  0
    0.3816   -2.5580    0.6159 H   0  0  0  0  0  0  0  0  0  0  0  0
   -1.1142   -2.0760   -0.1514 H   0  0  0  0  0  0  0  0  0  0  0  0
    1.3130    1.1748    1.3374 H   0  0  0  0  0  0  0  0  0  0  0  0
    0.7523    1.1481   -0.3328 H   0  0  0  0  0  0  0  0  0  0  0  0
    2.6294   -0.9140    0.9141 H   0  0  0  0  0  0  0  0  0  0  0  0
    3.0988    0.4368   -0.1346 H   0  0  0  0  0  0  0  0  0  0  0  0
    0.8561   -1.9851    4.4921 H   0  0  0  0  0  0  0  0  0  0  0  0
   -0.7783   -2.9689    6.0955 H   0  0  0  0  0  0  0  0  0  0  0  0
   -4.0205   -1.7810    3.5590 H   0  0  0  0  0  0  0  0  0  0  0  0
   -2.7114    0.0366   -0.8783 H   0  0  0  0  0  0  0  0  0  0  0  0
   -1.1876    0.9060   -1.1687 H   0  0  0  0  0  0  0  0  0  0  0  0
   -3.3279    1.4208   -2.6494 H   0  0  0  0  0  0  0  0  0  0  0  0
   -4.8274    2.7261   -4.0863 H   0  0  0  0  0  0  0  0  0  0  0  0
   -5.3260    5.6484   -0.9644 H   0  0  0  0  0  0  0  0  0  0  0  0
   -3.8244    4.3502    0.4989 H   0  0  0  0  0  0  0  0  0  0  0  0
  1  2  1  0
  2  3  2  0
  3  4  1  0
  4  5  1  0
  5  6  1  0
  5  7  2  0
  7  8  1  0
  8  9  2  0
  8 10  1  0
 10 11  1  0
 11 12  1  0
 12 13  1  0
 13 14  1  0
 14 15  1  0
 13 16  1  0
 16 17  1  0
 17 18  2  0
 18 19  1  0
 19 20  2  0
 20 21  1  0
 20 22  1  0
 22 23  2  0
 23 24  1  0
 24 25  2  0
 24 26  1  0
 26 27  1  0
 27 28  1  0
 28 29  1  0
 29 30  2  0
 30 31  1  0
 31 32  2  0
 32 33  1  0
 32 34  1  0
 34 35  2  0
 28 36  2  0
 36 37  1  0
  7  2  1  0
 15 10  1  0
 23 17  1  0
 37 26  1  0
 26 13  1  0
 35 29  1  0
  1 38  1  0
  1 39  1  0
  1 40  1  0
  6 41  1  0
  6 42  1  0
  6 43  1  0
 11 44  1  0
 11 45  1  0
 12 46  1  0
 12 47  1  0
 14 48  1  0
 14 49  1  0
 15 50  1  0
 15 51  1  0
 18 52  1  0
 19 53  1  0
 22 54  1  0
 27 55  1  0
 27 56  1  0
 30 57  1  0
 31 58  1  0
 34 59  1  0
 35 60  1  0
M  END
$$$$
