
     RDKit          3D

 54 57  0  0  0  0  0  0  0  0999 V2000
   -5.8529   -0.2457   -2.5052 C   0  0  0  0  0  0  0  0  0  0  0  0
   -5.6662    1.0012   -1.8515 O   0  0  0  0  0  0  0  0  0  0  0  0
   -4.4283    1.2537   -1.3157 C   0  0  0  0  0  0  0  0  0  0  0  0
   -3.3917    0.3203   -1.2244 C   0  0  0  0  0  0  0  0  0  0  0  0
   -2.1403    0.6492   -0.6618 C   0  0  0  0  0  0  0  0  0  0  0  0
   -1.0663   -0.3680   -0.5878 C   0  0  0  0  0  0  0  0  0  0  0  0
   -0.0828   -0.3684    0.3847 C   0  0  0  0  0  0  0  0  0  0  0  0
    0.8933   -1.3659    0.3468 C   0  0  0  0  0  0  0  0  0  0  0  0
    1.9612   -1.2710    1.3684 C   0  0  0  0  0  0  0  0  0  0  0  0
    1.6282   -1.2570    2.5453 O   0  0  0  0  0  0  0  0  0  0  0  0
    3.2312   -1.1411    0.8402 N   0  0  0  0  0  0  0  0  0  0  0  0
    4.4449   -1.0324    1.5491 C   0  0  0  0  0  0  0  0  0  0  0  0
    5.6145   -0.8643    0.7931 C   0  0  0  0  0  0  0  0  0  0  0  0
    6.8604   -0.7500    1.4180 C   0  0  0  0  0  0  0  0  0  0  0  0
    6.9352   -0.8073    2.8041 C   0  0  0  0  0  0  0  0  0  0  0  0
    8.1253   -0.6994    3.4588 O   0  0  0  0  0  0  0  0  0  0  0  0
    5.7876   -0.9771    3.5677 C   0  0  0  0  0  0  0  0  0  0  0  0
    4.5424   -1.0896    2.9409 C   0  0  0  0  0  0  0  0  0  0  0  0
    0.8591   -2.3908   -0.6215 C   0  0  0  0  0  0  0  0  0  0  0  0
    1.7616   -3.4843   -0.6886 C   0  0  0  0  0  0  0  0  0  0  0  0
    1.6530   -4.4443   -1.6920 C   0  0  0  0  0  0  0  0  0  0  0  0
    0.6419   -4.3329   -2.6345 C   0  0  0  0  0  0  0  0  0  0  0  0
   -0.2604   -3.2694   -2.5589 C   0  0  0  0  0  0  0  0  0  0  0  0
   -0.1771   -2.3022   -1.5662 C   0  0  0  0  0  0  0  0  0  0  0  0
   -1.0965   -1.3218   -1.5523 N   0  0  0  0  0  0  0  0  0  0  0  0
   -1.9554    1.9671   -0.1968 C   0  0  0  0  0  0  0  0  0  0  0  0
   -2.9768    2.9210   -0.2714 C   0  0  0  0  0  0  0  0  0  0  0  0
   -2.8724    4.2204    0.1579 O   0  0  0  0  0  0  0  0  0  0  0  0
   -1.6180    4.6521    0.6685 C   0  0  0  0  0  0  0  0  0  0  0  0
   -4.2148    2.5476   -0.8167 C   0  0  0  0  0  0  0  0  0  0  0  0
   -5.2081    3.4958   -0.9314 O   0  0  0  0  0  0  0  0  0  0  0  0
   -6.0728    3.4287    0.2012 C   0  0  0  0  0  0  0  0  0  0  0  0
   -6.8583   -0.2493   -2.9388 H   0  0  0  0  0  0  0  0  0  0  0  0
   -5.1378   -0.3765   -3.3234 H   0  0  0  0  0  0  0  0  0  0  0  0
   -5.7964   -1.0741   -1.7913 H   0  0  0  0  0  0  0  0  0  0  0  0
   -3.5322   -0.6938   -1.5873 H   0  0  0  0  0  0  0  0  0  0  0  0
   -0.0584    0.3781    1.1720 H   0  0  0  0  0  0  0  0  0  0  0  0
    3.3030   -1.0899   -0.1695 H   0  0  0  0  0  0  0  0  0  0  0  0
    5.5738   -0.8200   -0.2930 H   0  0  0  0  0  0  0  0  0  0  0  0
    7.7506   -0.6188    0.8110 H   0  0  0  0  0  0  0  0  0  0  0  0
    8.8283   -0.5461    2.8064 H   0  0  0  0  0  0  0  0  0  0  0  0
    5.8552   -1.0182    4.6522 H   0  0  0  0  0  0  0  0  0  0  0  0
    3.6693   -1.2235    3.5716 H   0  0  0  0  0  0  0  0  0  0  0  0
    2.5456   -3.6097    0.0562 H   0  0  0  0  0  0  0  0  0  0  0  0
    2.3488   -5.2791   -1.7295 H   0  0  0  0  0  0  0  0  0  0  0  0
    0.5413   -5.0753   -3.4221 H   0  0  0  0  0  0  0  0  0  0  0  0
   -1.0584   -3.1971   -3.2952 H   0  0  0  0  0  0  0  0  0  0  0  0
   -0.9904    2.2443    0.2108 H   0  0  0  0  0  0  0  0  0  0  0  0
   -1.7117    5.7083    0.9367 H   0  0  0  0  0  0  0  0  0  0  0  0
   -0.8320    4.5714   -0.0896 H   0  0  0  0  0  0  0  0  0  0  0  0
   -1.3512    4.1015    1.5778 H   0  0  0  0  0  0  0  0  0  0  0  0
   -5.5221    3.5740    1.1383 H   0  0  0  0  0  0  0  0  0  0  0  0
   -6.8045    4.2384    0.1110 H   0  0  0  0  0  0  0  0  0  0  0  0
   -6.6210    2.4800    0.2273 H   0  0  0  0  0  0  0  0  0  0  0  0
  1  2  1  0
  2  3  1  0
  3  4  2  0
  4  5  1  0
  5  6  1  0
  6  7  2  0
  7  8  1  0
  8  9  1  0
  9 10  2  0
  9 11  1  0
 11 12  1  0
 12 13  2  0
 13 14  1  0
 14 15  2  0
 15 16  1  0
 15 17  1  0
 17 18  2  0
  8 19  2  0
 19 20  1  0
 20 21  2  0
 21 22  1  0
 22 23  2  0
 23 24  1  0
 24 25  2  0
  5 26  2  0
 26 27  1  0
 27 28  1  0
 28 29  1  0
 27 30  2  0
 30 31  1  0
 31 32  1  0
 30  3  1  0
 25  6  1  0
 18 12  1  0
 24 19  1  0
  1 33  1  0
  1 34  1  0
  1 35  1  0
  4 36  1  0
  7 37  1  0
 11 38  1  0
 13 39  1  0
 14 40  1  0
 16 41  1  0
 17 42  1  0
 18 43  1  0
 20 44  1  0
 21 45  1  0
 22 46  1  0
 23 47  1  0
 26 48  1  0
 29 49  1  0
 29 50  1  0
 29 51  1  0
 32 52  1  0
 32 53  1  0
 32 54  1  0
M  END
$$$$
