
     RDKit          3D

 36 38  0  0  0  0  0  0  0  0999 V2000
   -6.0288   -1.4445    0.0344 C   0  0  0  0  0  0  0  0  0  0  0  0
   -5.2946   -0.1970    0.2396 N   0  0  0  0  0  0  0  0  0  0  0  0
   -5.9285    1.0030   -0.3043 C   0  0  0  0  0  0  0  0  0  0  0  0
   -3.8980   -0.2413    0.3334 C   0  0  0  0  0  0  0  0  0  0  0  0
   -3.1040    0.9150    0.2415 C   0  0  0  0  0  0  0  0  0  0  0  0
   -1.7041    0.8787    0.3487 C   0  0  0  0  0  0  0  0  0  0  0  0
   -1.0374   -0.3279    0.5556 C   0  0  0  0  0  0  0  0  0  0  0  0
    0.4226   -0.4101    0.7060 C   0  0  0  0  0  0  0  0  0  0  0  0
    1.2798    0.2960   -0.0497 C   0  0  0  0  0  0  0  0  0  0  0  0
    2.7044    0.2498    0.0504 C   0  0  0  0  0  0  0  0  0  0  0  0
    3.5031    0.9628   -0.7216 N   0  0  0  0  0  0  0  0  0  0  0  0
    4.8332    0.7329   -0.4173 C   0  0  0  0  0  0  0  0  0  0  0  0
    5.9420    1.3305   -1.0503 C   0  0  0  0  0  0  0  0  0  0  0  0
    7.2381    1.0037   -0.6379 C   0  0  0  0  0  0  0  0  0  0  0  0
    7.4395    0.0922    0.3936 C   0  0  0  0  0  0  0  0  0  0  0  0
    6.3552   -0.5134    1.0365 C   0  0  0  0  0  0  0  0  0  0  0  0
    5.0586   -0.1767    0.6127 C   0  0  0  0  0  0  0  0  0  0  0  0
    3.5455   -0.7412    1.1944 S   0  0  0  0  0  0  0  0  0  0  0  0
   -1.8024   -1.4855    0.6859 C   0  0  0  0  0  0  0  0  0  0  0  0
   -3.2015   -1.4379    0.5759 C   0  0  0  0  0  0  0  0  0  0  0  0
   -5.7174   -1.9373   -0.8933 H   0  0  0  0  0  0  0  0  0  0  0  0
   -5.8932   -2.1283    0.8792 H   0  0  0  0  0  0  0  0  0  0  0  0
   -7.1076   -1.2641   -0.0336 H   0  0  0  0  0  0  0  0  0  0  0  0
   -5.7268    1.8776    0.3233 H   0  0  0  0  0  0  0  0  0  0  0  0
   -7.0192    0.8991   -0.3301 H   0  0  0  0  0  0  0  0  0  0  0  0
   -5.5910    1.1975   -1.3284 H   0  0  0  0  0  0  0  0  0  0  0  0
   -3.5540    1.8914    0.0904 H   0  0  0  0  0  0  0  0  0  0  0  0
   -1.1547    1.8146    0.2825 H   0  0  0  0  0  0  0  0  0  0  0  0
    0.7611   -1.1064    1.4681 H   0  0  0  0  0  0  0  0  0  0  0  0
    0.9020    0.9615   -0.8215 H   0  0  0  0  0  0  0  0  0  0  0  0
    5.7788    2.0409   -1.8545 H   0  0  0  0  0  0  0  0  0  0  0  0
    8.0908    1.4669   -1.1288 H   0  0  0  0  0  0  0  0  0  0  0  0
    8.4525   -0.1537    0.7055 H   0  0  0  0  0  0  0  0  0  0  0  0
    6.5129   -1.2246    1.8415 H   0  0  0  0  0  0  0  0  0  0  0  0
   -1.3258   -2.4456    0.8702 H   0  0  0  0  0  0  0  0  0  0  0  0
   -3.7305   -2.3786    0.6926 H   0  0  0  0  0  0  0  0  0  0  0  0
  1  2  1  0
  2  3  1  0
  2  4  1  0
  4  5  2  0
  5  6  1  0
  6  7  2  0
  7  8  1  0
  8  9  2  3
  9 10  1  0
 10 11  2  0
 11 12  1  0
 12 13  2  0
 13 14  1  0
 14 15  2  0
 15 16  1  0
 16 17  2  0
 17 18  1  0
  7 19  1  0
 19 20  2  0
 20  4  1  0
 18 10  1  0
 17 12  1  0
  1 21  1  0
  1 22  1  0
  1 23  1  0
  3 24  1  0
  3 25  1  0
  3 26  1  0
  5 27  1  0
  6 28  1  0
  8 29  1  0
  9 30  1  0
 13 31  1  0
 14 32  1  0
 15 33  1  0
 16 34  1  0
 19 35  1  0
 20 36  1  0
M  END
$$$$
