
     RDKit          3D

 48 50  0  0  0  0  0  0  0  0999 V2000
   -3.6935   -3.3154   -2.4721 C   0  0  0  0  0  0  0  0  0  0  0  0
   -3.2155   -2.2052   -1.7113 O   0  0  0  0  0  0  0  0  0  0  0  0
   -4.1483   -1.6543   -0.8838 C   0  0  0  0  0  0  0  0  0  0  0  0
   -5.2790   -2.1007   -0.7214 O   0  0  0  0  0  0  0  0  0  0  0  0
   -3.5945   -0.4376   -0.1236 C   0  0  0  0  0  0  0  0  0  0  0  0
   -3.6243   -0.7675    1.3791 C   0  0  0  0  0  0  0  0  0  0  0  0
   -3.1428    0.3648    2.2572 C   0  0  0  0  0  0  0  0  0  0  0  0
   -3.8711    1.5598    2.3417 C   0  0  0  0  0  0  0  0  0  0  0  0
   -3.4180    2.6105    3.1407 C   0  0  0  0  0  0  0  0  0  0  0  0
   -2.2368    2.4765    3.8672 C   0  0  0  0  0  0  0  0  0  0  0  0
   -1.5090    1.2904    3.7974 C   0  0  0  0  0  0  0  0  0  0  0  0
   -1.9592    0.2383    2.9977 C   0  0  0  0  0  0  0  0  0  0  0  0
   -2.2422   -0.0664   -0.5551 N   0  0  0  0  0  0  0  0  0  0  0  0
   -2.0590    0.7355   -1.6693 C   0  0  0  0  0  0  0  0  0  0  0  0
   -3.0100    1.2201   -2.2777 O   0  0  0  0  0  0  0  0  0  0  0  0
   -0.6580    0.9331   -2.0629 C   0  0  0  0  0  0  0  0  0  0  0  0
    0.5231    0.6656   -1.3172 C   0  0  0  0  0  0  0  0  0  0  0  0
    1.5561    1.0254   -2.1492 C   0  0  0  0  0  0  0  0  0  0  0  0
    3.0340    1.0304   -2.0380 C   0  0  0  0  0  0  0  0  0  0  0  0
    3.3699    0.0929   -1.0163 O   0  0  0  0  0  0  0  0  0  0  0  0
    4.6966   -0.1006   -0.7432 C   0  0  0  0  0  0  0  0  0  0  0  0
    4.9718   -1.0612    0.2366 C   0  0  0  0  0  0  0  0  0  0  0  0
    3.9636   -1.7147    0.8359 F   0  0  0  0  0  0  0  0  0  0  0  0
    6.2781   -1.3677    0.6189 C   0  0  0  0  0  0  0  0  0  0  0  0
    7.3458   -0.7059    0.0181 C   0  0  0  0  0  0  0  0  0  0  0  0
    7.0937    0.2580   -0.9585 C   0  0  0  0  0  0  0  0  0  0  0  0
    5.7799    0.5544   -1.3312 C   0  0  0  0  0  0  0  0  0  0  0  0
    5.6009    1.4944   -2.2719 F   0  0  0  0  0  0  0  0  0  0  0  0
    1.0399    1.4923   -3.3164 O   0  0  0  0  0  0  0  0  0  0  0  0
   -0.3379    1.4409   -3.2668 N   0  0  0  0  0  0  0  0  0  0  0  0
   -3.9950   -4.1318   -1.8085 H   0  0  0  0  0  0  0  0  0  0  0  0
   -2.8746   -3.6691   -3.1067 H   0  0  0  0  0  0  0  0  0  0  0  0
   -4.5246   -3.0090   -3.1162 H   0  0  0  0  0  0  0  0  0  0  0  0
   -4.2644    0.4021   -0.3483 H   0  0  0  0  0  0  0  0  0  0  0  0
   -3.0169   -1.6638    1.5694 H   0  0  0  0  0  0  0  0  0  0  0  0
   -4.6433   -1.0318    1.6910 H   0  0  0  0  0  0  0  0  0  0  0  0
   -4.7971    1.6846    1.7839 H   0  0  0  0  0  0  0  0  0  0  0  0
   -3.9879    3.5343    3.1950 H   0  0  0  0  0  0  0  0  0  0  0  0
   -1.8866    3.2967    4.4888 H   0  0  0  0  0  0  0  0  0  0  0  0
   -0.5903    1.1846    4.3687 H   0  0  0  0  0  0  0  0  0  0  0  0
   -1.3775   -0.6798    2.9611 H   0  0  0  0  0  0  0  0  0  0  0  0
   -1.4830   -0.6738   -0.2794 H   0  0  0  0  0  0  0  0  0  0  0  0
    0.6173    0.2775   -0.3131 H   0  0  0  0  0  0  0  0  0  0  0  0
    3.4741    0.7300   -2.9955 H   0  0  0  0  0  0  0  0  0  0  0  0
    3.3636    2.0363   -1.7554 H   0  0  0  0  0  0  0  0  0  0  0  0
    6.4497   -2.1217    1.3832 H   0  0  0  0  0  0  0  0  0  0  0  0
    8.3676   -0.9380    0.3096 H   0  0  0  0  0  0  0  0  0  0  0  0
    7.9143    0.7867   -1.4359 H   0  0  0  0  0  0  0  0  0  0  0  0
  1  2  1  0
  2  3  1  0
  3  4  2  0
  3  5  1  0
  5  6  1  0
  6  7  1  0
  7  8  2  0
  8  9  1  0
  9 10  2  0
 10 11  1  0
 11 12  2  0
  5 13  1  0
 13 14  1  0
 14 15  2  0
 14 16  1  0
 16 17  1  0
 17 18  2  0
 18 19  1  0
 19 20  1  0
 20 21  1  0
 21 22  2  0
 22 23  1  0
 22 24  1  0
 24 25  2  0
 25 26  1  0
 26 27  2  0
 27 28  1  0
 18 29  1  0
 29 30  1  0
 12  7  1  0
 30 16  2  0
 27 21  1  0
  1 31  1  0
  1 32  1  0
  1 33  1  0
  5 34  1  0
  6 35  1  0
  6 36  1  0
  8 37  1  0
  9 38  1  0
 10 39  1  0
 11 40  1  0
 12 41  1  0
 13 42  1  0
 17 43  1  0
 19 44  1  0
 19 45  1  0
 24 46  1  0
 25 47  1  0
 26 48  1  0
M  END
$$$$
