
     RDKit          3D

 68 71  0  0  0  0  0  0  0  0999 V2000
   -6.2087   -3.6147    0.7985 C   0  0  0  0  0  0  0  0  0  0  0  0
   -4.9312   -2.8288    0.8079 C   0  0  0  0  0  0  0  0  0  0  0  0
   -4.3667   -2.3793   -0.3902 C   0  0  0  0  0  0  0  0  0  0  0  0
   -3.1592   -1.6781   -0.3850 C   0  0  0  0  0  0  0  0  0  0  0  0
   -2.4864   -1.4190    0.8204 C   0  0  0  0  0  0  0  0  0  0  0  0
   -1.1559   -0.6637    0.8530 C   0  0  0  0  0  0  0  0  0  0  0  0
   -1.1455    0.5508   -0.1280 C   0  0  0  0  0  0  0  0  0  0  0  0
   -0.4043    0.6368   -1.1050 O   0  0  0  0  0  0  0  0  0  0  0  0
   -2.0744    1.5339    0.1947 N   0  0  0  0  0  0  0  0  0  0  0  0
   -2.3076    2.7302   -0.5943 C   0  0  0  0  0  0  0  0  0  0  0  0
   -2.7813    2.4565   -2.0299 C   0  0  0  0  0  0  0  0  0  0  0  0
   -1.7764    3.1600   -2.9353 C   0  0  0  0  0  0  0  0  0  0  0  0
   -1.2354    4.2948   -2.0815 C   0  0  0  0  0  0  0  0  0  0  0  0
   -1.0928    3.6610   -0.7055 C   0  0  0  0  0  0  0  0  0  0  0  0
    0.0466   -1.5193    0.7290 N   0  0  0  0  0  0  0  0  0  0  0  0
    1.2171   -1.0415    1.3216 C   0  0  0  0  0  0  0  0  0  0  0  0
    1.2347   -0.0148    2.0056 O   0  0  0  0  0  0  0  0  0  0  0  0
    2.4748   -1.8901    1.1657 C   0  0  0  0  0  0  0  0  0  0  0  0
    3.6287   -1.3319    1.9938 C   0  0  0  0  0  0  0  0  0  0  0  0
    4.2461   -0.1267    1.3076 C   0  0  0  0  0  0  0  0  0  0  0  0
    4.7076   -0.2175    0.1716 O   0  0  0  0  0  0  0  0  0  0  0  0
    4.2464    1.0040    2.0897 N   0  0  0  0  0  0  0  0  0  0  0  0
    4.7857    2.2192    1.7324 C   0  0  0  0  0  0  0  0  0  0  0  0
    5.4242    2.5988    0.5300 C   0  0  0  0  0  0  0  0  0  0  0  0
    5.7642    3.9143    0.7213 C   0  0  0  0  0  0  0  0  0  0  0  0
    6.4344    4.9336   -0.1025 C   0  0  0  0  0  0  0  0  0  0  0  0
    5.3633    4.3042    1.9620 O   0  0  0  0  0  0  0  0  0  0  0  0
    4.7529    3.2392    2.5989 N   0  0  0  0  0  0  0  0  0  0  0  0
    0.0682   -2.5247   -0.2744 C   0  0  0  0  0  0  0  0  0  0  0  0
    0.6521   -2.2850   -1.5222 C   0  0  0  0  0  0  0  0  0  0  0  0
    0.6550   -3.2837   -2.4978 C   0  0  0  0  0  0  0  0  0  0  0  0
    0.0817   -4.5248   -2.2287 C   0  0  0  0  0  0  0  0  0  0  0  0
   -0.4937   -4.7721   -0.9831 C   0  0  0  0  0  0  0  0  0  0  0  0
   -0.4984   -3.7753   -0.0063 C   0  0  0  0  0  0  0  0  0  0  0  0
   -3.0449   -1.8937    2.0178 C   0  0  0  0  0  0  0  0  0  0  0  0
   -4.2546   -2.5921    2.0095 C   0  0  0  0  0  0  0  0  0  0  0  0
   -5.9884   -4.6840    0.7085 H   0  0  0  0  0  0  0  0  0  0  0  0
   -6.8485   -3.3114   -0.0385 H   0  0  0  0  0  0  0  0  0  0  0  0
   -6.7782   -3.4458    1.7195 H   0  0  0  0  0  0  0  0  0  0  0  0
   -4.8591   -2.5771   -1.3404 H   0  0  0  0  0  0  0  0  0  0  0  0
   -2.7380   -1.3548   -1.3367 H   0  0  0  0  0  0  0  0  0  0  0  0
   -1.1031   -0.1946    1.8475 H   0  0  0  0  0  0  0  0  0  0  0  0
   -2.7474    1.3224    0.9209 H   0  0  0  0  0  0  0  0  0  0  0  0
   -3.1085    3.2667   -0.0698 H   0  0  0  0  0  0  0  0  0  0  0  0
   -3.7723    2.9048   -2.1726 H   0  0  0  0  0  0  0  0  0  0  0  0
   -2.8721    1.3931   -2.2750 H   0  0  0  0  0  0  0  0  0  0  0  0
   -0.9676    2.4731   -3.2044 H   0  0  0  0  0  0  0  0  0  0  0  0
   -2.2383    3.5178   -3.8607 H   0  0  0  0  0  0  0  0  0  0  0  0
   -1.9559    5.1207   -2.0447 H   0  0  0  0  0  0  0  0  0  0  0  0
   -0.2866    4.6836   -2.4596 H   0  0  0  0  0  0  0  0  0  0  0  0
   -0.1436    3.1172   -0.6405 H   0  0  0  0  0  0  0  0  0  0  0  0
   -1.0864    4.4165    0.0891 H   0  0  0  0  0  0  0  0  0  0  0  0
    2.2483   -2.9007    1.5246 H   0  0  0  0  0  0  0  0  0  0  0  0
    2.7618   -1.9445    0.1131 H   0  0  0  0  0  0  0  0  0  0  0  0
    3.3097   -1.0922    3.0133 H   0  0  0  0  0  0  0  0  0  0  0  0
    4.4206   -2.0850    2.0811 H   0  0  0  0  0  0  0  0  0  0  0  0
    3.7725    1.0144    2.9834 H   0  0  0  0  0  0  0  0  0  0  0  0
    5.5996    2.0058   -0.3557 H   0  0  0  0  0  0  0  0  0  0  0  0
    5.7998    5.8198   -0.2086 H   0  0  0  0  0  0  0  0  0  0  0  0
    6.6519    4.5486   -1.1046 H   0  0  0  0  0  0  0  0  0  0  0  0
    7.3806    5.2371    0.3583 H   0  0  0  0  0  0  0  0  0  0  0  0
    1.0943   -1.3171   -1.7514 H   0  0  0  0  0  0  0  0  0  0  0  0
    1.1023   -3.0905   -3.4697 H   0  0  0  0  0  0  0  0  0  0  0  0
    0.0823   -5.3000   -2.9906 H   0  0  0  0  0  0  0  0  0  0  0  0
   -0.9426   -5.7380   -0.7733 H   0  0  0  0  0  0  0  0  0  0  0  0
   -0.9493   -3.9837    0.9605 H   0  0  0  0  0  0  0  0  0  0  0  0
   -2.5374   -1.7282    2.9664 H   0  0  0  0  0  0  0  0  0  0  0  0
   -4.6669   -2.9546    2.9491 H   0  0  0  0  0  0  0  0  0  0  0  0
  1  2  1  0
  2  3  2  0
  3  4  1  0
  4  5  2  0
  5  6  1  0
  6  7  1  0
  7  8  2  0
  7  9  1  0
  9 10  1  0
 10 11  1  0
 11 12  1  0
 12 13  1  0
 13 14  1  0
  6 15  1  0
 15 16  1  0
 16 17  2  0
 16 18  1  0
 18 19  1  0
 19 20  1  0
 20 21  2  0
 20 22  1  0
 22 23  1  0
 23 24  1  0
 24 25  2  0
 25 26  1  0
 25 27  1  0
 27 28  1  0
 15 29  1  0
 29 30  2  0
 30 31  1  0
 31 32  2  0
 32 33  1  0
 33 34  2  0
  5 35  1  0
 35 36  2  0
 36  2  1  0
 14 10  1  0
 28 23  2  0
 34 29  1  0
  1 37  1  0
  1 38  1  0
  1 39  1  0
  3 40  1  0
  4 41  1  0
  6 42  1  0
  9 43  1  0
 10 44  1  0
 11 45  1  0
 11 46  1  0
 12 47  1  0
 12 48  1  0
 13 49  1  0
 13 50  1  0
 14 51  1  0
 14 52  1  0
 18 53  1  0
 18 54  1  0
 19 55  1  0
 19 56  1  0
 22 57  1  0
 24 58  1  0
 26 59  1  0
 26 60  1  0
 26 61  1  0
 30 62  1  0
 31 63  1  0
 32 64  1  0
 33 65  1  0
 34 66  1  0
 35 67  1  0
 36 68  1  0
M  END
$$$$
