
     RDKit          3D

 32 34  0  0  0  0  0  0  0  0999 V2000
   -4.6023    0.1676   -0.4574 O   0  0  0  0  0  0  0  0  0  0  0  0
   -4.4882   -0.9779   -0.0575 C   0  0  0  0  0  0  0  0  0  0  0  0
   -5.5603   -1.7995    0.1602 N   0  0  0  0  0  0  0  0  0  0  0  0
   -5.3297   -3.0800    0.5499 C   0  0  0  0  0  0  0  0  0  0  0  0
   -6.5271   -4.1893    0.8209 S   0  0  0  0  0  0  0  0  0  0  0  0
   -3.6125   -3.3424    0.7087 S   0  0  0  0  0  0  0  0  0  0  0  0
   -3.2196   -1.7056    0.2446 C   0  0  0  0  0  0  0  0  0  0  0  0
   -1.9451   -1.2987    0.1771 C   0  0  0  0  0  0  0  0  0  0  0  0
   -1.4792   -0.0039   -0.1741 C   0  0  0  0  0  0  0  0  0  0  0  0
   -1.9570    1.2688    0.1072 C   0  0  0  0  0  0  0  0  0  0  0  0
   -1.0668    2.2081   -0.4661 C   0  0  0  0  0  0  0  0  0  0  0  0
   -0.0560    1.4826   -1.0512 C   0  0  0  0  0  0  0  0  0  0  0  0
    1.3289    2.0899   -1.9151 S   0  0  0  0  0  0  0  0  0  0  0  0
    2.4935    0.7059   -1.7629 C   0  0  0  0  0  0  0  0  0  0  0  0
    3.1620    0.6433   -0.4110 C   0  0  0  0  0  0  0  0  0  0  0  0
    4.2059    1.5244   -0.0896 C   0  0  0  0  0  0  0  0  0  0  0  0
    4.8210    1.4696    1.1622 C   0  0  0  0  0  0  0  0  0  0  0  0
    4.3992    0.5362    2.1068 C   0  0  0  0  0  0  0  0  0  0  0  0
    3.3613   -0.3420    1.8016 C   0  0  0  0  0  0  0  0  0  0  0  0
    2.7453   -0.2889    0.5501 C   0  0  0  0  0  0  0  0  0  0  0  0
   -0.3000    0.1553   -0.8704 O   0  0  0  0  0  0  0  0  0  0  0  0
   -6.4943   -1.4585   -0.0107 H   0  0  0  0  0  0  0  0  0  0  0  0
   -1.1548   -2.0199    0.3748 H   0  0  0  0  0  0  0  0  0  0  0  0
   -2.8517    1.5039    0.6673 H   0  0  0  0  0  0  0  0  0  0  0  0
   -1.1474    3.2857   -0.4442 H   0  0  0  0  0  0  0  0  0  0  0  0
    3.2676    0.8353   -2.5286 H   0  0  0  0  0  0  0  0  0  0  0  0
    1.9989   -0.2423   -2.0023 H   0  0  0  0  0  0  0  0  0  0  0  0
    4.5424    2.2633   -0.8140 H   0  0  0  0  0  0  0  0  0  0  0  0
    5.6273    2.1581    1.4010 H   0  0  0  0  0  0  0  0  0  0  0  0
    4.8771    0.4955    3.0819 H   0  0  0  0  0  0  0  0  0  0  0  0
    3.0290   -1.0672    2.5395 H   0  0  0  0  0  0  0  0  0  0  0  0
    1.9327   -0.9775    0.3299 H   0  0  0  0  0  0  0  0  0  0  0  0
  1  2  2  0
  2  3  1  0
  3  4  1  0
  4  5  2  0
  4  6  1  0
  6  7  1  0
  7  8  2  3
  8  9  1  0
  9 10  2  0
 10 11  1  0
 11 12  2  0
 12 13  1  0
 13 14  1  0
 14 15  1  0
 15 16  2  0
 16 17  1  0
 17 18  2  0
 18 19  1  0
 19 20  2  0
 12 21  1  0
  7  2  1  0
 21  9  1  0
 20 15  1  0
  3 22  1  0
  8 23  1  0
 10 24  1  0
 11 25  1  0
 14 26  1  0
 14 27  1  0
 16 28  1  0
 17 29  1  0
 18 30  1  0
 19 31  1  0
 20 32  1  0
M  END
$$$$
