
     RDKit          3D

 57 61  0  0  0  0  0  0  0  0999 V2000
    3.1249    2.3248    4.4279 O   0  0  0  0  0  0  0  0  0  0  0  0
    2.8609    1.7742    3.3650 C   0  0  0  0  0  0  0  0  0  0  0  0
    1.7073    2.0693    2.6483 N   0  0  0  0  0  0  0  0  0  0  0  0
    1.3538    1.4661    1.4410 C   0  0  0  0  0  0  0  0  0  0  0  0
    0.0207    1.9361    0.8705 C   0  0  0  0  0  0  0  0  0  0  0  0
   -1.1373    1.3118    1.6696 C   0  0  0  0  0  0  0  0  0  0  0  0
   -1.7145    0.0931    0.9594 C   0  0  0  0  0  0  0  0  0  0  0  0
   -2.2609    0.4534   -0.3813 N   0  0  0  0  0  0  0  0  0  0  0  0
   -3.9714    0.5386   -0.4929 S   0  0  0  0  0  6  0  0  0  0  0  0
   -4.3945    1.3248    0.6448 O   0  0  0  0  0  0  0  0  0  0  0  0
   -4.3186    0.8923   -1.8505 O   0  0  0  0  0  0  0  0  0  0  0  0
   -4.5026   -1.1469   -0.2517 C   0  0  0  0  0  0  0  0  0  0  0  0
   -3.6570   -2.1748   -0.7000 C   0  0  0  0  0  0  0  0  0  0  0  0
   -3.9998   -3.5082   -0.4859 C   0  0  0  0  0  0  0  0  0  0  0  0
   -5.1854   -3.8217    0.1702 C   0  0  0  0  0  0  0  0  0  0  0  0
   -6.0393   -2.8029    0.5956 C   0  0  0  0  0  0  0  0  0  0  0  0
   -5.7230   -1.4462    0.3798 C   0  0  0  0  0  0  0  0  0  0  0  0
   -6.7068   -0.3890    0.8237 C   0  0  0  0  0  0  0  0  0  0  0  0
   -6.8639    0.6212   -0.0700 F   0  0  0  0  0  0  0  0  0  0  0  0
   -7.9631   -0.8979    1.0011 F   0  0  0  0  0  0  0  0  0  0  0  0
   -6.3797    0.1674    2.0193 F   0  0  0  0  0  0  0  0  0  0  0  0
   -1.5804    1.6016   -1.0441 C   0  0  0  0  0  0  0  0  0  0  0  0
   -0.1152    1.6627   -0.6352 C   0  0  0  0  0  0  0  0  0  0  0  0
    2.0630    0.5403    0.8560 N   0  0  0  0  0  0  0  0  0  0  0  0
    3.2065    0.2506    1.5240 C   0  0  0  0  0  0  0  0  0  0  0  0
    3.6596    0.7740    2.7106 C   0  0  0  0  0  0  0  0  0  0  0  0
    4.8487    0.2117    3.0596 N   0  0  0  0  0  0  0  0  0  0  0  0
    5.1723   -0.6579    2.1019 N   0  0  0  0  0  0  0  0  0  0  0  0
    4.1961   -0.6189    1.1627 N   0  0  0  0  0  0  0  0  0  0  0  0
    4.2675   -1.4518   -0.0193 C   0  0  0  0  0  0  0  0  0  0  0  0
    4.7735   -0.6756   -1.2100 C   0  0  0  0  0  0  0  0  0  0  0  0
    6.1459   -0.4189   -1.3661 C   0  0  0  0  0  0  0  0  0  0  0  0
    6.6130    0.3145   -2.4607 C   0  0  0  0  0  0  0  0  0  0  0  0
    5.7137    0.8027   -3.4070 C   0  0  0  0  0  0  0  0  0  0  0  0
    4.3555    0.5569   -3.2500 C   0  0  0  0  0  0  0  0  0  0  0  0
    3.4891    1.0317   -4.1550 F   0  0  0  0  0  0  0  0  0  0  0  0
    3.8782   -0.1724   -2.1652 C   0  0  0  0  0  0  0  0  0  0  0  0
    1.1223    2.7771    3.0685 H   0  0  0  0  0  0  0  0  0  0  0  0
   -0.0233    3.0227    1.0290 H   0  0  0  0  0  0  0  0  0  0  0  0
   -0.8249    1.0289    2.6808 H   0  0  0  0  0  0  0  0  0  0  0  0
   -1.9274    2.0632    1.7876 H   0  0  0  0  0  0  0  0  0  0  0  0
   -0.9433   -0.6734    0.8170 H   0  0  0  0  0  0  0  0  0  0  0  0
   -2.4847   -0.3647    1.5893 H   0  0  0  0  0  0  0  0  0  0  0  0
   -2.7302   -1.9447   -1.2219 H   0  0  0  0  0  0  0  0  0  0  0  0
   -3.3430   -4.3022   -0.8315 H   0  0  0  0  0  0  0  0  0  0  0  0
   -5.4547   -4.8621    0.3402 H   0  0  0  0  0  0  0  0  0  0  0  0
   -6.9718   -3.0751    1.0911 H   0  0  0  0  0  0  0  0  0  0  0  0
   -2.0777    2.5430   -0.7852 H   0  0  0  0  0  0  0  0  0  0  0  0
   -1.6445    1.4646   -2.1284 H   0  0  0  0  0  0  0  0  0  0  0  0
    0.3681    0.7218   -0.9242 H   0  0  0  0  0  0  0  0  0  0  0  0
    0.3978    2.4547   -1.1938 H   0  0  0  0  0  0  0  0  0  0  0  0
    3.2668   -1.8592   -0.2042 H   0  0  0  0  0  0  0  0  0  0  0  0
    4.9256   -2.3020    0.1942 H   0  0  0  0  0  0  0  0  0  0  0  0
    6.8609   -0.7811   -0.6281 H   0  0  0  0  0  0  0  0  0  0  0  0
    7.6775    0.5081   -2.5702 H   0  0  0  0  0  0  0  0  0  0  0  0
    6.0623    1.3753   -4.2607 H   0  0  0  0  0  0  0  0  0  0  0  0
    2.8073   -0.3320   -2.0734 H   0  0  0  0  0  0  0  0  0  0  0  0
  1  2  2  0
  2  3  1  0
  3  4  1  0
  4  5  1  0
  5  6  1  0
  6  7  1  0
  7  8  1  0
  8  9  1  0
  9 10  2  0
  9 11  2  0
  9 12  1  0
 12 13  2  0
 13 14  1  0
 14 15  2  0
 15 16  1  0
 16 17  2  0
 17 18  1  0
 18 19  1  0
 18 20  1  0
 18 21  1  0
  8 22  1  0
 22 23  1  0
  4 24  2  0
 24 25  1  0
 25 26  2  0
 26 27  1  0
 27 28  2  0
 28 29  1  0
 29 30  1  0
 30 31  1  0
 31 32  2  0
 32 33  1  0
 33 34  2  0
 34 35  1  0
 35 36  1  0
 35 37  2  0
 26  2  1  0
 37 31  1  0
 23  5  1  0
 29 25  1  0
 17 12  1  0
  3 38  1  0
  5 39  1  0
  6 40  1  0
  6 41  1  0
  7 42  1  0
  7 43  1  0
 13 44  1  0
 14 45  1  0
 15 46  1  0
 16 47  1  0
 22 48  1  0
 22 49  1  0
 23 50  1  0
 23 51  1  0
 30 52  1  0
 30 53  1  0
 32 54  1  0
 33 55  1  0
 34 56  1  0
 37 57  1  0
M  END
$$$$
