
     RDKit          3D

 51 53  0  0  0  0  0  0  0  0999 V2000
    4.6380   -3.9702   -1.9441 C   0  0  0  0  0  0  0  0  0  0  0  0
    4.2867   -2.8655   -1.1201 O   0  0  0  0  0  0  0  0  0  0  0  0
    2.9594   -2.5453   -1.0144 C   0  0  0  0  0  0  0  0  0  0  0  0
    1.9207   -3.2586   -1.6278 C   0  0  0  0  0  0  0  0  0  0  0  0
    0.5877   -2.8657   -1.4619 C   0  0  0  0  0  0  0  0  0  0  0  0
    0.2854   -1.7537   -0.6784 C   0  0  0  0  0  0  0  0  0  0  0  0
   -1.1250   -1.3527   -0.5082 C   0  0  0  0  0  0  0  0  0  0  0  0
   -1.4575   -0.3568    0.2474 N   0  0  0  0  0  0  0  0  0  0  0  0
   -2.7910   -0.0904    0.3135 N   0  0  0  0  0  0  0  0  0  0  0  0
   -3.2603    0.9596    1.0829 C   0  0  0  0  0  0  0  0  0  0  0  0
   -2.5401    1.6938    1.7580 O   0  0  0  0  0  0  0  0  0  0  0  0
   -4.7468    1.1933    1.0738 C   0  0  0  0  0  0  0  0  0  0  0  0
   -5.2071    2.2601    1.8711 C   0  0  0  0  0  0  0  0  0  0  0  0
   -6.5627    2.5751    1.9434 C   0  0  0  0  0  0  0  0  0  0  0  0
   -7.4803    1.8262    1.2193 C   0  0  0  0  0  0  0  0  0  0  0  0
   -7.0452    0.7647    0.4216 C   0  0  0  0  0  0  0  0  0  0  0  0
   -5.6824    0.4360    0.3343 C   0  0  0  0  0  0  0  0  0  0  0  0
   -5.2092   -0.5991   -0.4371 O   0  0  0  0  0  0  0  0  0  0  0  0
   -6.1433   -1.2986   -1.2545 C   0  0  0  0  0  0  0  0  0  0  0  0
    1.3114   -1.0338   -0.0639 C   0  0  0  0  0  0  0  0  0  0  0  0
    2.6554   -1.4217   -0.2235 C   0  0  0  0  0  0  0  0  0  0  0  0
    3.7250   -0.6039    0.4659 C   0  0  0  0  0  0  0  0  0  0  0  0
    3.7557    0.6871   -0.1473 O   0  0  0  0  0  0  0  0  0  0  0  0
    4.5435    1.6501    0.4202 C   0  0  0  0  0  0  0  0  0  0  0  0
    5.4241    1.4871    1.4931 C   0  0  0  0  0  0  0  0  0  0  0  0
    5.5884    0.2955    2.0862 F   0  0  0  0  0  0  0  0  0  0  0  0
    6.1684    2.5640    1.9719 C   0  0  0  0  0  0  0  0  0  0  0  0
    7.0084    2.3862    3.0017 F   0  0  0  0  0  0  0  0  0  0  0  0
    6.0474    3.8155    1.3875 C   0  0  0  0  0  0  0  0  0  0  0  0
    6.7691    4.8454    1.8503 F   0  0  0  0  0  0  0  0  0  0  0  0
    5.1840    3.9944    0.3193 C   0  0  0  0  0  0  0  0  0  0  0  0
    5.0690    5.1998   -0.2542 F   0  0  0  0  0  0  0  0  0  0  0  0
    4.4408    2.9205   -0.1604 C   0  0  0  0  0  0  0  0  0  0  0  0
    3.6155    3.1158   -1.2005 F   0  0  0  0  0  0  0  0  0  0  0  0
    5.7281   -4.0684   -1.9242 H   0  0  0  0  0  0  0  0  0  0  0  0
    4.3383   -3.7998   -2.9837 H   0  0  0  0  0  0  0  0  0  0  0  0
    4.2139   -4.9019   -1.5557 H   0  0  0  0  0  0  0  0  0  0  0  0
    2.1152   -4.1311   -2.2432 H   0  0  0  0  0  0  0  0  0  0  0  0
   -0.1991   -3.4360   -1.9478 H   0  0  0  0  0  0  0  0  0  0  0  0
   -1.8808   -1.9458   -1.0541 H   0  0  0  0  0  0  0  0  0  0  0  0
   -3.4500   -0.6489   -0.2205 H   0  0  0  0  0  0  0  0  0  0  0  0
   -4.4993    2.8578    2.4446 H   0  0  0  0  0  0  0  0  0  0  0  0
   -6.8954    3.4025    2.5645 H   0  0  0  0  0  0  0  0  0  0  0  0
   -8.5395    2.0665    1.2742 H   0  0  0  0  0  0  0  0  0  0  0  0
   -7.8059    0.2114   -0.1199 H   0  0  0  0  0  0  0  0  0  0  0  0
   -6.8839   -1.8250   -0.6440 H   0  0  0  0  0  0  0  0  0  0  0  0
   -6.6219   -0.6254   -1.9738 H   0  0  0  0  0  0  0  0  0  0  0  0
   -5.5883   -2.0518   -1.8212 H   0  0  0  0  0  0  0  0  0  0  0  0
    1.0705   -0.1588    0.5404 H   0  0  0  0  0  0  0  0  0  0  0  0
    4.7090   -1.0759    0.3817 H   0  0  0  0  0  0  0  0  0  0  0  0
    3.4561   -0.5238    1.5266 H   0  0  0  0  0  0  0  0  0  0  0  0
  1  2  1  0
  2  3  1  0
  3  4  2  0
  4  5  1  0
  5  6  2  0
  6  7  1  0
  7  8  2  3
  8  9  1  0
  9 10  1  0
 10 11  2  0
 10 12  1  0
 12 13  2  0
 13 14  1  0
 14 15  2  0
 15 16  1  0
 16 17  2  0
 17 18  1  0
 18 19  1  0
  6 20  1  0
 20 21  2  0
 21 22  1  0
 22 23  1  0
 23 24  1  0
 24 25  2  0
 25 26  1  0
 25 27  1  0
 27 28  1  0
 27 29  2  0
 29 30  1  0
 29 31  1  0
 31 32  1  0
 31 33  2  0
 33 34  1  0
 21  3  1  0
 33 24  1  0
 17 12  1  0
  1 35  1  0
  1 36  1  0
  1 37  1  0
  4 38  1  0
  5 39  1  0
  7 40  1  0
  9 41  1  0
 13 42  1  0
 14 43  1  0
 15 44  1  0
 16 45  1  0
 19 46  1  0
 19 47  1  0
 19 48  1  0
 20 49  1  0
 22 50  1  0
 22 51  1  0
M  END
$$$$
