
     RDKit          3D

 72 74  0  0  0  0  0  0  0  0999 V2000
   -3.7331   -5.5873    1.5270 C   0  0  0  0  0  0  0  0  0  0  0  0
   -3.4552   -5.0010    0.2623 O   0  0  0  0  0  0  0  0  0  0  0  0
   -3.0905   -3.6837    0.2597 C   0  0  0  0  0  0  0  0  0  0  0  0
   -3.0520   -2.8391    1.3664 C   0  0  0  0  0  0  0  0  0  0  0  0
   -2.6595   -1.5004    1.2251 C   0  0  0  0  0  0  0  0  0  0  0  0
   -2.2971   -0.9754   -0.0253 C   0  0  0  0  0  0  0  0  0  0  0  0
   -1.8636    0.4738   -0.2366 C   0  0  0  0  0  0  0  0  0  0  0  0
   -2.0534    1.4527    0.9693 C   0  0  0  0  0  0  0  0  0  0  0  0
   -3.0687    1.4639    1.6615 O   0  0  0  0  0  0  0  0  0  0  0  0
   -1.0148    2.3469    1.1662 N   0  0  0  0  0  0  0  0  0  0  0  0
   -0.9548    3.3776    2.2132 C   0  0  0  0  0  0  0  0  0  0  0  0
    0.3863    4.1204    2.0670 C   0  0  0  0  0  0  0  0  0  0  0  0
   -2.0939    4.3960    2.0537 C   0  0  0  0  0  0  0  0  0  0  0  0
   -1.0046    2.7405    3.6109 C   0  0  0  0  0  0  0  0  0  0  0  0
   -0.5281    0.5975   -0.8892 N   0  0  0  0  0  0  0  0  0  0  0  0
   -0.4947    1.1238   -2.2655 C   0  0  0  0  0  0  0  0  0  0  0  0
   -0.3864    2.6499   -2.3788 C   0  0  0  0  0  0  0  0  0  0  0  0
   -1.6939    3.3938   -2.1547 C   0  0  0  0  0  0  0  0  0  0  0  0
   -1.4514    4.6768   -2.9096 C   0  0  0  0  0  0  0  0  0  0  0  0
   -0.6839    4.1903   -4.1176 C   0  0  0  0  0  0  0  0  0  0  0  0
    0.0234    3.0085   -3.7152 O   0  0  0  0  0  0  0  0  0  0  0  0
    0.6869    0.2070   -0.3304 C   0  0  0  0  0  0  0  0  0  0  0  0
    1.7541    0.5508   -0.8444 O   0  0  0  0  0  0  0  0  0  0  0  0
    0.6806   -0.6006    0.9590 C   0  0  0  0  0  0  0  0  0  0  0  0
    2.1021   -0.8848    1.4445 C   0  0  0  0  0  0  0  0  0  0  0  0
    2.7795   -1.9696    0.6207 C   0  0  0  0  0  0  0  0  0  0  0  0
    2.1432   -2.7687   -0.0586 O   0  0  0  0  0  0  0  0  0  0  0  0
    4.1449   -1.9740    0.7948 N   0  0  0  0  0  0  0  0  0  0  0  0
    5.0173   -2.8617    0.2053 C   0  0  0  0  0  0  0  0  0  0  0  0
    4.7512   -3.9328   -0.6752 C   0  0  0  0  0  0  0  0  0  0  0  0
    5.9830   -4.4754   -0.9421 C   0  0  0  0  0  0  0  0  0  0  0  0
    6.4558   -5.5967   -1.7708 C   0  0  0  0  0  0  0  0  0  0  0  0
    6.9323   -3.7787   -0.2643 O   0  0  0  0  0  0  0  0  0  0  0  0
    6.3282   -2.7644    0.4566 N   0  0  0  0  0  0  0  0  0  0  0  0
   -2.3474   -1.8411   -1.1324 C   0  0  0  0  0  0  0  0  0  0  0  0
   -2.7377   -3.1758   -0.9889 C   0  0  0  0  0  0  0  0  0  0  0  0
   -4.6046   -5.1196    1.9957 H   0  0  0  0  0  0  0  0  0  0  0  0
   -2.8585   -5.5425    2.1839 H   0  0  0  0  0  0  0  0  0  0  0  0
   -3.9707   -6.6425    1.3614 H   0  0  0  0  0  0  0  0  0  0  0  0
   -3.3250   -3.1848    2.3582 H   0  0  0  0  0  0  0  0  0  0  0  0
   -2.6475   -0.8852    2.1226 H   0  0  0  0  0  0  0  0  0  0  0  0
   -2.5923    0.8729   -0.9584 H   0  0  0  0  0  0  0  0  0  0  0  0
   -0.2770    2.3434    0.4720 H   0  0  0  0  0  0  0  0  0  0  0  0
    1.2325    3.4312    2.1732 H   0  0  0  0  0  0  0  0  0  0  0  0
    0.4946    4.9063    2.8231 H   0  0  0  0  0  0  0  0  0  0  0  0
    0.4718    4.5891    1.0796 H   0  0  0  0  0  0  0  0  0  0  0  0
   -2.0053    5.2061    2.7866 H   0  0  0  0  0  0  0  0  0  0  0  0
   -2.0833    4.8460    1.0547 H   0  0  0  0  0  0  0  0  0  0  0  0
   -3.0774    3.9367    2.1939 H   0  0  0  0  0  0  0  0  0  0  0  0
   -0.8564    3.4929    4.3933 H   0  0  0  0  0  0  0  0  0  0  0  0
   -0.2243    1.9791    3.7240 H   0  0  0  0  0  0  0  0  0  0  0  0
   -1.9652    2.2536    3.8056 H   0  0  0  0  0  0  0  0  0  0  0  0
   -1.3704    0.7548   -2.8131 H   0  0  0  0  0  0  0  0  0  0  0  0
    0.3617    0.6769   -2.7876 H   0  0  0  0  0  0  0  0  0  0  0  0
    0.3877    3.0285   -1.7003 H   0  0  0  0  0  0  0  0  0  0  0  0
   -1.9258    3.5633   -1.1029 H   0  0  0  0  0  0  0  0  0  0  0  0
   -2.5354    2.8571   -2.6096 H   0  0  0  0  0  0  0  0  0  0  0  0
   -2.3673    5.2124   -3.1729 H   0  0  0  0  0  0  0  0  0  0  0  0
   -0.8238    5.3470   -2.3110 H   0  0  0  0  0  0  0  0  0  0  0  0
    0.0243    4.9346   -4.4926 H   0  0  0  0  0  0  0  0  0  0  0  0
   -1.3601    3.9108   -4.9321 H   0  0  0  0  0  0  0  0  0  0  0  0
    0.1553   -1.5432    0.7932 H   0  0  0  0  0  0  0  0  0  0  0  0
    0.1625   -0.0326    1.7357 H   0  0  0  0  0  0  0  0  0  0  0  0
    2.7099    0.0275    1.4378 H   0  0  0  0  0  0  0  0  0  0  0  0
    2.0605   -1.2510    2.4775 H   0  0  0  0  0  0  0  0  0  0  0  0
    4.5965   -1.2742    1.3665 H   0  0  0  0  0  0  0  0  0  0  0  0
    3.8003   -4.2634   -1.0659 H   0  0  0  0  0  0  0  0  0  0  0  0
    5.6199   -6.0935   -2.2732 H   0  0  0  0  0  0  0  0  0  0  0  0
    7.1509   -5.2413   -2.5376 H   0  0  0  0  0  0  0  0  0  0  0  0
    6.9720   -6.3393   -1.1543 H   0  0  0  0  0  0  0  0  0  0  0  0
   -2.0735   -1.4898   -2.1247 H   0  0  0  0  0  0  0  0  0  0  0  0
   -2.7607   -3.8264   -1.8600 H   0  0  0  0  0  0  0  0  0  0  0  0
  1  2  1  0
  2  3  1  0
  3  4  2  0
  4  5  1  0
  5  6  2  0
  6  7  1  0
  7  8  1  0
  8  9  2  0
  8 10  1  0
 10 11  1  0
 11 12  1  0
 11 13  1  0
 11 14  1  0
  7 15  1  0
 15 16  1  0
 16 17  1  0
 17 18  1  0
 18 19  1  0
 19 20  1  0
 20 21  1  0
 15 22  1  0
 22 23  2  0
 22 24  1  0
 24 25  1  0
 25 26  1  0
 26 27  2  0
 26 28  1  0
 28 29  1  0
 29 30  1  0
 30 31  2  0
 31 32  1  0
 31 33  1  0
 33 34  1  0
  6 35  1  0
 35 36  2  0
 36  3  1  0
 21 17  1  0
 34 29  2  0
  1 37  1  0
  1 38  1  0
  1 39  1  0
  4 40  1  0
  5 41  1  0
  7 42  1  0
 10 43  1  0
 12 44  1  0
 12 45  1  0
 12 46  1  0
 13 47  1  0
 13 48  1  0
 13 49  1  0
 14 50  1  0
 14 51  1  0
 14 52  1  0
 16 53  1  0
 16 54  1  0
 17 55  1  0
 18 56  1  0
 18 57  1  0
 19 58  1  0
 19 59  1  0
 20 60  1  0
 20 61  1  0
 24 62  1  0
 24 63  1  0
 25 64  1  0
 25 65  1  0
 28 66  1  0
 30 67  1  0
 32 68  1  0
 32 69  1  0
 32 70  1  0
 35 71  1  0
 36 72  1  0
M  END
$$$$
