
     RDKit          3D

 29 30  0  0  0  0  0  0  0  0999 V2000
    4.9340    2.2787   -0.2702 O   0  0  0  0  0  0  0  0  0  0  0  0
    4.6826    1.6034    0.7196 C   0  0  0  0  0  0  0  0  0  0  0  0
    3.4831    0.7469    0.8026 C   0  0  0  0  0  0  0  0  0  0  0  0
    3.2884   -0.0506    1.9334 C   0  0  0  0  0  0  0  0  0  0  0  0
    2.1650   -0.8750    2.0103 C   0  0  0  0  0  0  0  0  0  0  0  0
    1.2364   -0.8958    0.9662 C   0  0  0  0  0  0  0  0  0  0  0  0
    1.4236   -0.0776   -0.1528 C   0  0  0  0  0  0  0  0  0  0  0  0
    0.5687   -0.0348   -1.2340 O   0  0  0  0  0  0  0  0  0  0  0  0
   -0.7669   -0.2386   -0.9951 C   0  0  0  0  0  0  0  0  0  0  0  0
   -1.3304   -1.4072   -1.5174 C   0  0  0  0  0  0  0  0  0  0  0  0
   -2.6879   -1.6825   -1.3216 C   0  0  0  0  0  0  0  0  0  0  0  0
   -3.4892   -0.7742   -0.6110 C   0  0  0  0  0  0  0  0  0  0  0  0
   -4.9139   -1.0694   -0.4055 N   0  0  0  0  0  4  0  0  0  0  0  0
   -5.5998   -0.2090    0.1619 O   0  0  0  0  0  0  0  0  0  0  0  0
   -5.3385   -2.1600   -0.8094 O   0  0  0  0  0  1  0  0  0  0  0  0
   -2.9473    0.4136   -0.1044 C   0  0  0  0  0  0  0  0  0  0  0  0
   -1.5868    0.6714   -0.3187 C   0  0  0  0  0  0  0  0  0  0  0  0
   -1.0482    1.9250    0.1698 N   0  0  0  0  0  4  0  0  0  0  0  0
   -1.1976    2.1602    1.3763 O   0  0  0  0  0  0  0  0  0  0  0  0
   -0.5176    2.6776   -0.6555 O   0  0  0  0  0  1  0  0  0  0  0  0
    2.5565    0.7326   -0.2428 C   0  0  0  0  0  0  0  0  0  0  0  0
    5.3516    1.6009    1.5964 H   0  0  0  0  0  0  0  0  0  0  0  0
    4.0033   -0.0450    2.7525 H   0  0  0  0  0  0  0  0  0  0  0  0
    2.0140   -1.5068    2.8829 H   0  0  0  0  0  0  0  0  0  0  0  0
    0.3832   -1.5636    1.0435 H   0  0  0  0  0  0  0  0  0  0  0  0
   -0.7092   -2.1086   -2.0721 H   0  0  0  0  0  0  0  0  0  0  0  0
   -3.1038   -2.6029   -1.7302 H   0  0  0  0  0  0  0  0  0  0  0  0
   -3.5630    1.1313    0.4360 H   0  0  0  0  0  0  0  0  0  0  0  0
    2.7097    1.3599   -1.1191 H   0  0  0  0  0  0  0  0  0  0  0  0
  1  2  2  0
  2  3  1  0
  3  4  2  0
  4  5  1  0
  5  6  2  0
  6  7  1  0
  7  8  1  0
  8  9  1  0
  9 10  2  0
 10 11  1  0
 11 12  2  0
 12 13  1  0
 13 14  2  0
 13 15  1  0
 12 16  1  0
 16 17  2  0
 17 18  1  0
 18 19  2  0
 18 20  1  0
  7 21  2  0
 21  3  1  0
 17  9  1  0
  2 22  1  0
  4 23  1  0
  5 24  1  0
  6 25  1  0
 10 26  1  0
 11 27  1  0
 16 28  1  0
 21 29  1  0
M  CHG  4  13   1  15  -1  18   1  20  -1
M  END
$$$$
