
     RDKit          3D

 43 45  0  0  0  0  0  0  0  0999 V2000
    4.6566    4.9524    1.2225 C   0  0  0  0  0  0  0  0  0  0  0  0
    4.4698    3.6150    1.6650 O   0  0  0  0  0  0  0  0  0  0  0  0
    3.4918    2.8754    1.0590 C   0  0  0  0  0  0  0  0  0  0  0  0
    2.6559    3.3351    0.0398 C   0  0  0  0  0  0  0  0  0  0  0  0
    1.6511    2.5087   -0.4838 C   0  0  0  0  0  0  0  0  0  0  0  0
    1.4497    1.2139    0.0102 C   0  0  0  0  0  0  0  0  0  0  0  0
    0.3787    0.3898   -0.5722 C   0  0  0  0  0  0  0  0  0  0  0  0
   -0.2969   -0.5501    0.1098 C   0  0  0  0  0  0  0  0  0  0  0  0
   -1.3695   -1.3525   -0.4936 C   0  0  0  0  0  0  0  0  0  0  0  0
   -1.0633   -2.1525   -1.5977 C   0  0  0  0  0  0  0  0  0  0  0  0
   -2.0298   -2.9682   -2.1585 C   0  0  0  0  0  0  0  0  0  0  0  0
   -3.3005   -3.0027   -1.5980 C   0  0  0  0  0  0  0  0  0  0  0  0
   -4.2817   -3.8439   -2.1446 C   0  0  0  0  0  0  0  0  0  0  0  0
   -5.5582   -3.9007   -1.5890 C   0  0  0  0  0  0  0  0  0  0  0  0
   -5.8653   -3.1225   -0.4801 C   0  0  0  0  0  0  0  0  0  0  0  0
   -4.8973   -2.2779    0.0742 C   0  0  0  0  0  0  0  0  0  0  0  0
   -3.5996   -2.1895   -0.4712 C   0  0  0  0  0  0  0  0  0  0  0  0
   -2.6258   -1.3630    0.0394 N   0  0  0  0  0  4  0  0  0  0  0  0
   -2.9660   -0.4532    1.1610 C   0  0  0  0  0  0  0  0  0  0  0  0
    2.3059    0.7433    1.0106 C   0  0  0  0  0  0  0  0  0  0  0  0
    3.3219    1.5615    1.5167 C   0  0  0  0  0  0  0  0  0  0  0  0
    4.0751    1.0350    2.5370 O   0  0  0  0  0  0  0  0  0  0  0  0
    5.3899    0.7081    2.0835 C   0  0  0  0  0  0  0  0  0  0  0  0
    4.9594    4.9792    0.1704 H   0  0  0  0  0  0  0  0  0  0  0  0
    5.4654    5.3902    1.8137 H   0  0  0  0  0  0  0  0  0  0  0  0
    3.7584    5.5551    1.3917 H   0  0  0  0  0  0  0  0  0  0  0  0
    2.7509    4.3370   -0.3660 H   0  0  0  0  0  0  0  0  0  0  0  0
    1.0186    2.9067   -1.2746 H   0  0  0  0  0  0  0  0  0  0  0  0
    0.1417    0.6083   -1.6127 H   0  0  0  0  0  0  0  0  0  0  0  0
   -0.0792   -0.7597    1.1550 H   0  0  0  0  0  0  0  0  0  0  0  0
   -0.0591   -2.1540   -2.0207 H   0  0  0  0  0  0  0  0  0  0  0  0
   -1.7754   -3.5858   -3.0194 H   0  0  0  0  0  0  0  0  0  0  0  0
   -4.0641   -4.4700   -3.0108 H   0  0  0  0  0  0  0  0  0  0  0  0
   -6.3123   -4.5586   -2.0205 H   0  0  0  0  0  0  0  0  0  0  0  0
   -6.8632   -3.1749   -0.0447 H   0  0  0  0  0  0  0  0  0  0  0  0
   -5.2014   -1.7060    0.9456 H   0  0  0  0  0  0  0  0  0  0  0  0
   -2.1888    0.2871    1.3468 H   0  0  0  0  0  0  0  0  0  0  0  0
   -3.8748    0.0949    0.8967 H   0  0  0  0  0  0  0  0  0  0  0  0
   -3.1108   -1.0673    2.0532 H   0  0  0  0  0  0  0  0  0  0  0  0
    2.2155   -0.2614    1.4104 H   0  0  0  0  0  0  0  0  0  0  0  0
    5.3494   -0.0496    1.2939 H   0  0  0  0  0  0  0  0  0  0  0  0
    5.9348    0.2810    2.9306 H   0  0  0  0  0  0  0  0  0  0  0  0
    5.9427    1.5862    1.7353 H   0  0  0  0  0  0  0  0  0  0  0  0
  1  2  1  0
  2  3  1  0
  3  4  2  0
  4  5  1  0
  5  6  2  0
  6  7  1  0
  7  8  2  3
  8  9  1  0
  9 10  2  0
 10 11  1  0
 11 12  2  0
 12 13  1  0
 13 14  2  0
 14 15  1  0
 15 16  2  0
 16 17  1  0
 17 18  2  0
 18 19  1  0
  6 20  1  0
 20 21  2  0
 21 22  1  0
 22 23  1  0
 21  3  1  0
 18  9  1  0
 17 12  1  0
  1 24  1  0
  1 25  1  0
  1 26  1  0
  4 27  1  0
  5 28  1  0
  7 29  1  0
  8 30  1  0
 10 31  1  0
 11 32  1  0
 13 33  1  0
 14 34  1  0
 15 35  1  0
 16 36  1  0
 19 37  1  0
 19 38  1  0
 19 39  1  0
 20 40  1  0
 23 41  1  0
 23 42  1  0
 23 43  1  0
M  CHG  1  18   1
M  END
$$$$
