
     RDKit          3D

 47 50  0  0  0  0  0  0  0  0999 V2000
   -6.9778    0.4474    1.6452 C   0  0  0  0  0  0  0  0  0  0  0  0
   -5.9441    1.5591    1.5316 C   0  0  0  0  0  0  0  0  0  0  0  0
   -4.5186    1.0525    1.7435 C   0  0  0  0  0  0  0  0  0  0  0  0
   -4.2017    0.1255    0.7083 O   0  0  0  0  0  0  0  0  0  0  0  0
   -2.9234   -0.3726    0.6630 C   0  0  0  0  0  0  0  0  0  0  0  0
   -1.9573   -0.1581    1.6503 C   0  0  0  0  0  0  0  0  0  0  0  0
   -0.6802   -0.7107    1.5226 C   0  0  0  0  0  0  0  0  0  0  0  0
   -0.3495   -1.4703    0.3993 C   0  0  0  0  0  0  0  0  0  0  0  0
    0.9752   -2.0818    0.2509 C   0  0  0  0  0  0  0  0  0  0  0  0
    2.1488   -1.4394    0.1471 C   0  0  0  0  0  0  0  0  0  0  0  0
    3.6618   -2.3319   -0.0430 S   0  0  0  0  0  0  0  0  0  0  0  0
    4.5216   -0.8527   -0.1117 C   0  0  0  0  0  0  0  0  0  0  0  0
    5.7718   -0.5165   -0.2433 N   0  0  0  0  0  0  0  0  0  0  0  0
    5.6875    0.8692   -0.2036 C   0  0  0  0  0  0  0  0  0  0  0  0
    6.9529    1.7796   -0.3245 C   0  0  0  0  0  0  0  0  0  0  0  0
    8.2500    1.3290   -0.4799 C   0  0  0  0  0  0  0  0  0  0  0  0
    9.0757    2.4776   -0.5464 C   0  0  0  0  0  0  0  0  0  0  0  0
    8.2342    3.5577   -0.4275 C   0  0  0  0  0  0  0  0  0  0  0  0
    6.9478    3.1467   -0.2926 O   0  0  0  0  0  0  0  0  0  0  0  0
    4.4425    1.3645   -0.0526 N   0  0  0  0  0  0  0  0  0  0  0  0
    3.7268    0.2290   -0.0005 N   0  0  0  0  0  0  0  0  0  0  0  0
    2.3677    0.0465    0.1505 C   0  0  0  0  0  0  0  0  0  0  0  0
    1.5788    0.9647    0.2628 O   0  0  0  0  0  0  0  0  0  0  0  0
   -1.3202   -1.7007   -0.5849 C   0  0  0  0  0  0  0  0  0  0  0  0
   -2.6067   -1.1626   -0.4605 C   0  0  0  0  0  0  0  0  0  0  0  0
   -3.6127   -1.3238   -1.3795 O   0  0  0  0  0  0  0  0  0  0  0  0
   -3.4656   -2.2761   -2.4282 C   0  0  0  0  0  0  0  0  0  0  0  0
   -2.8768   -1.6228   -3.6662 C   0  0  0  0  0  0  0  0  0  0  0  0
   -6.9296   -0.0328    2.6277 H   0  0  0  0  0  0  0  0  0  0  0  0
   -6.8246   -0.3194    0.8794 H   0  0  0  0  0  0  0  0  0  0  0  0
   -7.9855    0.8550    1.5159 H   0  0  0  0  0  0  0  0  0  0  0  0
   -6.1667    2.3360    2.2713 H   0  0  0  0  0  0  0  0  0  0  0  0
   -6.0285    2.0110    0.5363 H   0  0  0  0  0  0  0  0  0  0  0  0
   -4.4467    0.5660    2.7235 H   0  0  0  0  0  0  0  0  0  0  0  0
   -3.8351    1.9091    1.7032 H   0  0  0  0  0  0  0  0  0  0  0  0
   -2.1647    0.4352    2.5343 H   0  0  0  0  0  0  0  0  0  0  0  0
    0.0504   -0.5267    2.3068 H   0  0  0  0  0  0  0  0  0  0  0  0
    0.9483   -3.1701    0.2062 H   0  0  0  0  0  0  0  0  0  0  0  0
    8.5538    0.2927   -0.5377 H   0  0  0  0  0  0  0  0  0  0  0  0
   10.1494    2.5143   -0.6660 H   0  0  0  0  0  0  0  0  0  0  0  0
    8.3839    4.6286   -0.4202 H   0  0  0  0  0  0  0  0  0  0  0  0
   -1.0454   -2.2912   -1.4521 H   0  0  0  0  0  0  0  0  0  0  0  0
   -4.4748   -2.6278   -2.6712 H   0  0  0  0  0  0  0  0  0  0  0  0
   -2.9067   -3.1656   -2.1175 H   0  0  0  0  0  0  0  0  0  0  0  0
   -3.4904   -0.7708   -3.9774 H   0  0  0  0  0  0  0  0  0  0  0  0
   -2.8240   -2.3375   -4.4924 H   0  0  0  0  0  0  0  0  0  0  0  0
   -1.8718   -1.2349   -3.4757 H   0  0  0  0  0  0  0  0  0  0  0  0
  1  2  1  0
  2  3  1  0
  3  4  1  0
  4  5  1  0
  5  6  2  0
  6  7  1  0
  7  8  2  0
  8  9  1  0
  9 10  2  3
 10 11  1  0
 11 12  1  0
 12 13  2  0
 13 14  1  0
 14 15  1  0
 15 16  2  0
 16 17  1  0
 17 18  2  0
 18 19  1  0
 14 20  2  0
 20 21  1  0
 21 22  1  0
 22 23  2  0
  8 24  1  0
 24 25  2  0
 25 26  1  0
 26 27  1  0
 27 28  1  0
 25  5  1  0
 22 10  1  0
 21 12  1  0
 19 15  1  0
  1 29  1  0
  1 30  1  0
  1 31  1  0
  2 32  1  0
  2 33  1  0
  3 34  1  0
  3 35  1  0
  6 36  1  0
  7 37  1  0
  9 38  1  0
 16 39  1  0
 17 40  1  0
 18 41  1  0
 24 42  1  0
 27 43  1  0
 27 44  1  0
 28 45  1  0
 28 46  1  0
 28 47  1  0
M  END
$$$$
