
     RDKit          3D

 42 44  0  0  0  0  0  0  0  0999 V2000
   -5.9570    1.5180   -0.0205 C   0  0  0  0  0  0  0  0  0  0  0  0
   -4.7856    0.7507    0.2229 O   0  0  0  0  0  0  0  0  0  0  0  0
   -4.9360   -0.6023    0.3999 C   0  0  0  0  0  0  0  0  0  0  0  0
   -6.1750   -1.2536    0.4549 C   0  0  0  0  0  0  0  0  0  0  0  0
   -6.2437   -2.6402    0.6144 C   0  0  0  0  0  0  0  0  0  0  0  0
   -5.0774   -3.3904    0.7179 C   0  0  0  0  0  0  0  0  0  0  0  0
   -3.8378   -2.7541    0.6696 C   0  0  0  0  0  0  0  0  0  0  0  0
   -3.7515   -1.3599    0.5252 C   0  0  0  0  0  0  0  0  0  0  0  0
   -2.3993   -0.7788    0.4701 C   0  0  0  0  0  0  0  0  0  0  0  0
   -2.0173    0.2574    1.2302 C   0  0  0  0  0  0  0  0  0  0  0  0
   -0.6511    0.7716    1.1258 C   0  0  0  0  0  0  0  0  0  0  0  0
    0.3538    0.3230    0.4557 N   0  0  0  0  0  0  0  0  0  0  0  0
    1.3519    1.2168    0.7571 C   0  0  0  0  0  0  0  0  0  0  0  0
    2.5932    1.1215    0.2598 C   0  0  0  0  0  0  0  0  0  0  0  0
    3.7131    2.0045    0.5172 C   0  0  0  0  0  0  0  0  0  0  0  0
    4.9447    1.8903   -0.0073 C   0  0  0  0  0  0  0  0  0  0  0  0
    5.3849    0.8601   -0.9501 C   0  0  0  0  0  0  0  0  0  0  0  0
    5.0816    0.9677   -2.3116 C   0  0  0  0  0  0  0  0  0  0  0  0
    5.5015   -0.0201   -3.2043 C   0  0  0  0  0  0  0  0  0  0  0  0
    6.2251   -1.1180   -2.7404 C   0  0  0  0  0  0  0  0  0  0  0  0
    6.5304   -1.2295   -1.3843 C   0  0  0  0  0  0  0  0  0  0  0  0
    6.1118   -0.2424   -0.4899 C   0  0  0  0  0  0  0  0  0  0  0  0
    0.8302    2.2581    1.6908 C   0  0  0  0  0  0  0  0  0  0  0  0
    1.3830    3.2157    2.1926 O   0  0  0  0  0  0  0  0  0  0  0  0
   -0.4670    1.8850    1.8714 O   0  0  0  0  0  0  0  0  0  0  0  0
   -5.6479    2.5538   -0.1906 H   0  0  0  0  0  0  0  0  0  0  0  0
   -6.6210    1.5086    0.8499 H   0  0  0  0  0  0  0  0  0  0  0  0
   -6.4768    1.1748   -0.9211 H   0  0  0  0  0  0  0  0  0  0  0  0
   -7.1109   -0.7108    0.3745 H   0  0  0  0  0  0  0  0  0  0  0  0
   -7.2116   -3.1339    0.6540 H   0  0  0  0  0  0  0  0  0  0  0  0
   -5.1307   -4.4696    0.8369 H   0  0  0  0  0  0  0  0  0  0  0  0
   -2.9343   -3.3549    0.7542 H   0  0  0  0  0  0  0  0  0  0  0  0
   -1.7038   -1.2602   -0.2143 H   0  0  0  0  0  0  0  0  0  0  0  0
   -2.6876    0.7448    1.9283 H   0  0  0  0  0  0  0  0  0  0  0  0
    2.7826    0.2832   -0.4092 H   0  0  0  0  0  0  0  0  0  0  0  0
    3.5502    2.8336    1.2041 H   0  0  0  0  0  0  0  0  0  0  0  0
    5.7123    2.6085    0.2732 H   0  0  0  0  0  0  0  0  0  0  0  0
    4.5157    1.8189   -2.6823 H   0  0  0  0  0  0  0  0  0  0  0  0
    5.2624    0.0668   -4.2609 H   0  0  0  0  0  0  0  0  0  0  0  0
    6.5508   -1.8873   -3.4357 H   0  0  0  0  0  0  0  0  0  0  0  0
    7.0927   -2.0861   -1.0222 H   0  0  0  0  0  0  0  0  0  0  0  0
    6.3513   -0.3410    0.5661 H   0  0  0  0  0  0  0  0  0  0  0  0
  1  2  1  0
  2  3  1  0
  3  4  2  0
  4  5  1  0
  5  6  2  0
  6  7  1  0
  7  8  2  0
  8  9  1  0
  9 10  2  3
 10 11  1  0
 11 12  2  0
 12 13  1  0
 13 14  2  3
 14 15  1  0
 15 16  2  3
 16 17  1  0
 17 18  2  0
 18 19  1  0
 19 20  2  0
 20 21  1  0
 21 22  2  0
 13 23  1  0
 23 24  2  0
 23 25  1  0
  8  3  1  0
 25 11  1  0
 22 17  1  0
  1 26  1  0
  1 27  1  0
  1 28  1  0
  4 29  1  0
  5 30  1  0
  6 31  1  0
  7 32  1  0
  9 33  1  0
 10 34  1  0
 14 35  1  0
 15 36  1  0
 16 37  1  0
 18 38  1  0
 19 39  1  0
 20 40  1  0
 21 41  1  0
 22 42  1  0
M  END
$$$$
