
     RDKit          3D

 52 56  0  0  0  0  0  0  0  0999 V2000
    1.3617    0.3934    3.4503 O   0  0  0  0  0  0  0  0  0  0  0  0
    1.2408    0.9725    2.3752 C   0  0  0  0  0  0  0  0  0  0  0  0
   -0.1334    1.3072    1.8175 C   0  0  0  0  0  0  0  0  0  0  0  0
   -0.7234   -0.0963    0.8297 S   0  0  0  0  0  0  0  0  0  0  0  0
   -2.1766    0.5761    0.1639 C   0  0  0  0  0  0  0  0  0  0  0  0
   -2.3987    1.8659    0.0577 N   0  0  0  0  0  0  0  0  0  0  0  0
   -3.6647    2.0374   -0.4179 N   0  0  0  0  0  0  0  0  0  0  0  0
   -4.2015    0.8464   -0.6099 C   0  0  0  0  0  0  0  0  0  0  0  0
   -5.5170    0.6284   -1.2881 C   0  0  0  0  0  0  0  0  0  0  0  0
   -5.3813    0.0110   -2.6531 C   0  0  0  0  0  0  0  0  0  0  0  0
   -4.5600    0.3997   -3.6964 C   0  0  0  0  0  0  0  0  0  0  0  0
   -4.7058   -0.4359   -4.8410 C   0  0  0  0  0  0  0  0  0  0  0  0
   -5.6528   -1.4149   -4.6482 C   0  0  0  0  0  0  0  0  0  0  0  0
   -6.3430   -1.3417   -3.0857 S   0  0  0  0  0  0  0  0  0  0  0  0
   -3.2955   -0.1411   -0.2261 N   0  0  0  0  0  0  0  0  0  0  0  0
   -3.4829   -1.5471   -0.2581 C   0  0  0  0  0  0  0  0  0  0  0  0
   -4.6684   -2.1080    0.2301 C   0  0  0  0  0  0  0  0  0  0  0  0
   -4.8568   -3.4916    0.1861 C   0  0  0  0  0  0  0  0  0  0  0  0
   -3.8674   -4.3166   -0.3428 C   0  0  0  0  0  0  0  0  0  0  0  0
   -2.6843   -3.7616   -0.8268 C   0  0  0  0  0  0  0  0  0  0  0  0
   -2.4884   -2.3798   -0.7856 C   0  0  0  0  0  0  0  0  0  0  0  0
    2.2717    1.3805    1.5415 N   0  0  0  0  0  0  0  0  0  0  0  0
    3.6583    1.2058    1.7356 C   0  0  0  0  0  0  0  0  0  0  0  0
    4.2180    0.5384    2.8285 C   0  0  0  0  0  0  0  0  0  0  0  0
    5.6055    0.4089    2.9493 C   0  0  0  0  0  0  0  0  0  0  0  0
    6.4426    0.9498    1.9801 C   0  0  0  0  0  0  0  0  0  0  0  0
    5.8930    1.5965    0.8716 C   0  0  0  0  0  0  0  0  0  0  0  0
    4.5097    1.7350    0.7563 C   0  0  0  0  0  0  0  0  0  0  0  0
    6.6505    2.1307   -0.1401 O   0  0  0  0  0  0  0  0  0  0  0  0
    7.9936    1.6354   -0.0997 C   0  0  0  0  0  0  0  0  0  0  0  0
    8.5379    1.6747    1.3191 C   0  0  0  0  0  0  0  0  0  0  0  0
    7.7903    0.8018    2.1735 O   0  0  0  0  0  0  0  0  0  0  0  0
   -0.0764    2.2204    1.2155 H   0  0  0  0  0  0  0  0  0  0  0  0
   -0.8139    1.5008    2.6541 H   0  0  0  0  0  0  0  0  0  0  0  0
   -6.0020    1.6057   -1.4177 H   0  0  0  0  0  0  0  0  0  0  0  0
   -6.1924    0.0586   -0.6433 H   0  0  0  0  0  0  0  0  0  0  0  0
   -3.8794    1.2432   -3.6389 H   0  0  0  0  0  0  0  0  0  0  0  0
   -4.1514   -0.3135   -5.7641 H   0  0  0  0  0  0  0  0  0  0  0  0
   -5.9718   -2.1744   -5.3472 H   0  0  0  0  0  0  0  0  0  0  0  0
   -5.4407   -1.5018    0.6933 H   0  0  0  0  0  0  0  0  0  0  0  0
   -5.7731   -3.9280    0.5734 H   0  0  0  0  0  0  0  0  0  0  0  0
   -4.0155   -5.3936   -0.3739 H   0  0  0  0  0  0  0  0  0  0  0  0
   -1.9139   -4.4063   -1.2435 H   0  0  0  0  0  0  0  0  0  0  0  0
   -1.5695   -1.9793   -1.2066 H   0  0  0  0  0  0  0  0  0  0  0  0
    2.0044    1.8465    0.6825 H   0  0  0  0  0  0  0  0  0  0  0  0
    3.6033    0.1027    3.6097 H   0  0  0  0  0  0  0  0  0  0  0  0
    6.0273   -0.1075    3.8075 H   0  0  0  0  0  0  0  0  0  0  0  0
    4.1118    2.2546   -0.1110 H   0  0  0  0  0  0  0  0  0  0  0  0
    8.0013    0.6150   -0.5048 H   0  0  0  0  0  0  0  0  0  0  0  0
    8.6011    2.2681   -0.7562 H   0  0  0  0  0  0  0  0  0  0  0  0
    8.5003    2.6888    1.7357 H   0  0  0  0  0  0  0  0  0  0  0  0
    9.5789    1.3392    1.3325 H   0  0  0  0  0  0  0  0  0  0  0  0
  1  2  2  0
  2  3  1  0
  3  4  1  0
  4  5  1  0
  5  6  2  0
  6  7  1  0
  7  8  2  0
  8  9  1  0
  9 10  1  0
 10 11  2  0
 11 12  1  0
 12 13  2  0
 13 14  1  0
  8 15  1  0
 15 16  1  0
 16 17  2  0
 17 18  1  0
 18 19  2  0
 19 20  1  0
 20 21  2  0
  2 22  1  0
 22 23  1  0
 23 24  2  0
 24 25  1  0
 25 26  2  0
 26 27  1  0
 27 28  2  0
 27 29  1  0
 29 30  1  0
 30 31  1  0
 31 32  1  0
 15  5  1  0
 21 16  1  0
 28 23  1  0
 14 10  1  0
 32 26  1  0
  3 33  1  0
  3 34  1  0
  9 35  1  0
  9 36  1  0
 11 37  1  0
 12 38  1  0
 13 39  1  0
 17 40  1  0
 18 41  1  0
 19 42  1  0
 20 43  1  0
 21 44  1  0
 22 45  1  0
 24 46  1  0
 25 47  1  0
 28 48  1  0
 30 49  1  0
 30 50  1  0
 31 51  1  0
 31 52  1  0
M  END
$$$$
