
     RDKit          3D

 35 37  0  0  0  0  0  0  0  0999 V2000
    6.5347   -1.7716    1.2440 C   0  0  0  0  0  0  0  0  0  0  0  0
    6.3601   -0.5206    0.5905 O   0  0  0  0  0  0  0  0  0  0  0  0
    5.0750   -0.1304    0.3359 C   0  0  0  0  0  0  0  0  0  0  0  0
    4.9554    1.1028   -0.3074 C   0  0  0  0  0  0  0  0  0  0  0  0
    3.6970    1.6224   -0.6279 C   0  0  0  0  0  0  0  0  0  0  0  0
    2.5305    0.9152   -0.3093 C   0  0  0  0  0  0  0  0  0  0  0  0
    1.2284    1.4719   -0.6507 C   0  0  0  0  0  0  0  0  0  0  0  0
    0.9145    2.6006   -1.2574 N   0  0  0  0  0  0  0  0  0  0  0  0
   -0.4647    2.6350   -1.3266 N   0  0  0  0  0  0  0  0  0  0  0  0
   -0.8901    1.5272   -0.7602 C   0  0  0  0  0  0  0  0  0  0  0  0
   -2.1934    1.1536   -0.6043 N   0  0  0  0  0  0  0  0  0  0  0  0
   -2.5654   -0.0464   -0.0493 C   0  0  0  0  0  0  0  0  0  0  0  0
   -1.8170   -0.9384    0.3322 O   0  0  0  0  0  0  0  0  0  0  0  0
   -4.0375   -0.2662    0.0499 C   0  0  0  0  0  0  0  0  0  0  0  0
   -4.9333    0.7887    0.2841 C   0  0  0  0  0  0  0  0  0  0  0  0
   -6.3040    0.5304    0.3723 C   0  0  0  0  0  0  0  0  0  0  0  0
   -6.7709   -0.7730    0.2358 C   0  0  0  0  0  0  0  0  0  0  0  0
   -8.0851   -1.0137    0.3224 F   0  0  0  0  0  0  0  0  0  0  0  0
   -5.8936   -1.8293    0.0199 C   0  0  0  0  0  0  0  0  0  0  0  0
   -4.5232   -1.5776   -0.0682 C   0  0  0  0  0  0  0  0  0  0  0  0
    0.1238    0.7418   -0.3036 O   0  0  0  0  0  0  0  0  0  0  0  0
    2.6591   -0.3234    0.3368 C   0  0  0  0  0  0  0  0  0  0  0  0
    3.9209   -0.8430    0.6573 C   0  0  0  0  0  0  0  0  0  0  0  0
    7.6092   -1.9346    1.3721 H   0  0  0  0  0  0  0  0  0  0  0  0
    6.0781   -1.7642    2.2392 H   0  0  0  0  0  0  0  0  0  0  0  0
    6.1437   -2.5932    0.6348 H   0  0  0  0  0  0  0  0  0  0  0  0
    5.8501    1.6661   -0.5625 H   0  0  0  0  0  0  0  0  0  0  0  0
    3.6364    2.5867   -1.1299 H   0  0  0  0  0  0  0  0  0  0  0  0
   -2.8651    1.7952   -0.9961 H   0  0  0  0  0  0  0  0  0  0  0  0
   -4.5854    1.8074    0.4316 H   0  0  0  0  0  0  0  0  0  0  0  0
   -7.0110    1.3338    0.5577 H   0  0  0  0  0  0  0  0  0  0  0  0
   -6.2792   -2.8399   -0.0736 H   0  0  0  0  0  0  0  0  0  0  0  0
   -3.8339   -2.4049   -0.2297 H   0  0  0  0  0  0  0  0  0  0  0  0
    1.7746   -0.9030    0.5995 H   0  0  0  0  0  0  0  0  0  0  0  0
    3.9615   -1.8054    1.1568 H   0  0  0  0  0  0  0  0  0  0  0  0
  1  2  1  0
  2  3  1  0
  3  4  2  0
  4  5  1  0
  5  6  2  0
  6  7  1  0
  7  8  2  0
  8  9  1  0
  9 10  2  0
 10 11  1  0
 11 12  1  0
 12 13  2  0
 12 14  1  0
 14 15  2  0
 15 16  1  0
 16 17  2  0
 17 18  1  0
 17 19  1  0
 19 20  2  0
 10 21  1  0
  6 22  1  0
 22 23  2  0
 23  3  1  0
 21  7  1  0
 20 14  1  0
  1 24  1  0
  1 25  1  0
  1 26  1  0
  4 27  1  0
  5 28  1  0
 11 29  1  0
 15 30  1  0
 16 31  1  0
 19 32  1  0
 20 33  1  0
 22 34  1  0
 23 35  1  0
M  END
$$$$
