
     RDKit          3D

 36 36  0  0  0  0  0  0  0  0999 V2000
    0.5812   -4.8073    3.3423 C   0  0  0  0  0  0  0  0  0  0  0  0
    1.5814   -3.7006    3.0623 C   0  0  0  0  0  0  0  0  0  0  0  0
    1.8716   -3.5942    1.6691 O   0  0  0  0  0  0  0  0  0  0  0  0
    0.8523   -2.9155    0.9323 C   0  0  0  0  0  0  0  0  0  0  0  0
    1.3112   -2.8252   -0.5194 C   0  0  0  0  0  0  0  0  0  0  0  0
    0.2690   -2.2085   -1.4451 C   0  0  0  0  0  0  0  0  0  0  0  0
    0.0953   -0.7833   -1.2296 N   0  0  0  0  0  0  0  0  0  0  0  0
   -0.8830   -0.2856   -0.3965 C   0  0  0  0  0  0  0  0  0  0  0  0
   -1.6705   -0.9898    0.2244 O   0  0  0  0  0  0  0  0  0  0  0  0
   -0.8972    1.1961   -0.2514 C   0  0  0  0  0  0  0  0  0  0  0  0
   -0.9407    1.6985    1.0753 C   0  0  0  0  0  0  0  0  0  0  0  0
   -0.9503    2.1445    2.1477 N   0  0  0  0  0  0  0  0  0  0  0  0
   -0.9245    1.9285   -1.3796 C   0  0  0  0  0  0  0  0  0  0  0  0
   -0.9564    3.3500   -1.4875 C   0  0  0  0  0  0  0  0  0  0  0  0
   -1.1697    4.3807   -0.5706 C   0  0  0  0  0  0  0  0  0  0  0  0
   -1.0933    5.6220   -1.2569 C   0  0  0  0  0  0  0  0  0  0  0  0
   -0.8399    5.2897   -2.5596 C   0  0  0  0  0  0  0  0  0  0  0  0
   -0.6590    6.0866   -3.7309 N   0  0  0  0  0  4  0  0  0  0  0  0
   -0.7926    7.3091   -3.5879 O   0  0  0  0  0  0  0  0  0  0  0  0
   -0.3799    5.5059   -4.7866 O   0  0  0  0  0  1  0  0  0  0  0  0
   -0.7578    3.9469   -2.7215 O   0  0  0  0  0  0  0  0  0  0  0  0
   -0.4060   -4.5627    2.9392 H   0  0  0  0  0  0  0  0  0  0  0  0
    0.4774   -4.9733    4.4189 H   0  0  0  0  0  0  0  0  0  0  0  0
    0.8989   -5.7426    2.8693 H   0  0  0  0  0  0  0  0  0  0  0  0
    1.2405   -2.7387    3.4605 H   0  0  0  0  0  0  0  0  0  0  0  0
    2.5246   -3.9446    3.5619 H   0  0  0  0  0  0  0  0  0  0  0  0
    0.7127   -1.9150    1.3550 H   0  0  0  0  0  0  0  0  0  0  0  0
   -0.0880   -3.4719    0.9929 H   0  0  0  0  0  0  0  0  0  0  0  0
    2.2520   -2.2622   -0.5708 H   0  0  0  0  0  0  0  0  0  0  0  0
    1.5482   -3.8367   -0.8742 H   0  0  0  0  0  0  0  0  0  0  0  0
   -0.6944   -2.7201   -1.3419 H   0  0  0  0  0  0  0  0  0  0  0  0
    0.5967   -2.3217   -2.4843 H   0  0  0  0  0  0  0  0  0  0  0  0
    0.7944   -0.1652   -1.6251 H   0  0  0  0  0  0  0  0  0  0  0  0
   -0.9219    1.4125   -2.3397 H   0  0  0  0  0  0  0  0  0  0  0  0
   -1.3717    4.2757    0.4871 H   0  0  0  0  0  0  0  0  0  0  0  0
   -1.2104    6.6179   -0.8505 H   0  0  0  0  0  0  0  0  0  0  0  0
  1  2  1  0
  2  3  1  0
  3  4  1  0
  4  5  1  0
  5  6  1  0
  6  7  1  0
  7  8  1  0
  8  9  2  0
  8 10  1  0
 10 11  1  0
 11 12  3  0
 10 13  2  3
 13 14  1  0
 14 15  2  0
 15 16  1  0
 16 17  2  0
 17 18  1  0
 18 19  2  0
 18 20  1  0
 17 21  1  0
 21 14  1  0
  1 22  1  0
  1 23  1  0
  1 24  1  0
  2 25  1  0
  2 26  1  0
  4 27  1  0
  4 28  1  0
  5 29  1  0
  5 30  1  0
  6 31  1  0
  6 32  1  0
  7 33  1  0
 13 34  1  0
 15 35  1  0
 16 36  1  0
M  CHG  2  18   1  20  -1
M  END
$$$$
