
     RDKit          3D

 54 57  0  0  0  0  0  0  0  0999 V2000
   -4.9412    4.6344   -1.7032 C   0  0  0  0  0  0  0  0  0  0  0  0
   -4.1496    3.4134   -1.3416 C   0  0  0  0  0  0  0  0  0  0  0  0
   -3.2201    3.4502   -0.3033 C   0  0  0  0  0  0  0  0  0  0  0  0
   -2.4820    2.3075    0.0540 C   0  0  0  0  0  0  0  0  0  0  0  0
   -1.4723    2.4455    1.1651 C   0  0  0  0  0  0  0  0  0  0  0  0
   -2.6780    1.0929   -0.6490 C   0  0  0  0  0  0  0  0  0  0  0  0
   -1.8835   -0.0167   -0.2674 N   0  0  0  0  0  0  0  0  0  0  0  0
   -1.3333   -0.9660   -1.1162 C   0  0  0  0  0  0  0  0  0  0  0  0
   -1.3839   -0.9695   -2.3432 O   0  0  0  0  0  0  0  0  0  0  0  0
   -0.5142   -2.0178   -0.3654 C   0  0  0  0  0  0  0  0  0  0  0  0
    0.8671   -1.5677   -0.1854 N   0  0  0  0  0  0  0  0  0  0  0  0
    1.1229   -0.7828    0.9325 C   0  0  0  0  0  0  0  0  0  0  0  0
    0.1923   -0.4037    1.6511 O   0  0  0  0  0  0  0  0  0  0  0  0
    2.4385   -0.4290    1.1695 N   0  0  0  0  0  0  0  0  0  0  0  0
    2.7369    0.3098    2.3878 C   0  0  0  0  0  0  0  0  0  0  0  0
    3.0894   -0.6474    3.4738 C   0  0  0  0  0  0  0  0  0  0  0  0
    4.2596   -1.2887    3.8271 C   0  0  0  0  0  0  0  0  0  0  0  0
    3.9554   -2.0810    4.9594 C   0  0  0  0  0  0  0  0  0  0  0  0
    2.6227   -1.8726    5.2257 C   0  0  0  0  0  0  0  0  0  0  0  0
    2.0885   -1.0036    4.3299 O   0  0  0  0  0  0  0  0  0  0  0  0
    3.5023   -0.7381    0.3357 C   0  0  0  0  0  0  0  0  0  0  0  0
    4.6680   -0.4231    0.5677 O   0  0  0  0  0  0  0  0  0  0  0  0
    3.1870   -1.4756   -0.8977 C   0  0  0  0  0  0  0  0  0  0  0  0
    4.2163   -1.7647   -1.8077 C   0  0  0  0  0  0  0  0  0  0  0  0
    3.9332   -2.4466   -2.9866 C   0  0  0  0  0  0  0  0  0  0  0  0
    2.6247   -2.8313   -3.2558 C   0  0  0  0  0  0  0  0  0  0  0  0
    1.6020   -2.5445   -2.3435 C   0  0  0  0  0  0  0  0  0  0  0  0
    1.8716   -1.8700   -1.1428 C   0  0  0  0  0  0  0  0  0  0  0  0
   -3.6809    1.0271   -1.6393 C   0  0  0  0  0  0  0  0  0  0  0  0
   -4.1100   -0.2364   -2.3364 C   0  0  0  0  0  0  0  0  0  0  0  0
   -4.3822    2.1992   -1.9887 C   0  0  0  0  0  0  0  0  0  0  0  0
   -4.3601    5.5448   -1.5221 H   0  0  0  0  0  0  0  0  0  0  0  0
   -5.8586    4.6760   -1.1080 H   0  0  0  0  0  0  0  0  0  0  0  0
   -5.2080    4.6266   -2.7653 H   0  0  0  0  0  0  0  0  0  0  0  0
   -3.0583    4.3857    0.2296 H   0  0  0  0  0  0  0  0  0  0  0  0
   -1.7242    1.7763    1.9937 H   0  0  0  0  0  0  0  0  0  0  0  0
   -0.4670    2.2206    0.7948 H   0  0  0  0  0  0  0  0  0  0  0  0
   -1.4488    3.4641    1.5675 H   0  0  0  0  0  0  0  0  0  0  0  0
   -1.3900    0.0665    0.6216 H   0  0  0  0  0  0  0  0  0  0  0  0
   -0.5688   -2.9792   -0.8843 H   0  0  0  0  0  0  0  0  0  0  0  0
   -0.9774   -2.1995    0.6131 H   0  0  0  0  0  0  0  0  0  0  0  0
    1.8796    0.9231    2.6872 H   0  0  0  0  0  0  0  0  0  0  0  0
    3.5739    0.9964    2.2154 H   0  0  0  0  0  0  0  0  0  0  0  0
    5.2109   -1.1949    3.3196 H   0  0  0  0  0  0  0  0  0  0  0  0
    4.6236   -2.7253    5.5130 H   0  0  0  0  0  0  0  0  0  0  0  0
    1.9405   -2.2473    5.9760 H   0  0  0  0  0  0  0  0  0  0  0  0
    5.2384   -1.4533   -1.6006 H   0  0  0  0  0  0  0  0  0  0  0  0
    4.7269   -2.6668   -3.6962 H   0  0  0  0  0  0  0  0  0  0  0  0
    2.3904   -3.3486   -4.1839 H   0  0  0  0  0  0  0  0  0  0  0  0
    0.5967   -2.8433   -2.6264 H   0  0  0  0  0  0  0  0  0  0  0  0
   -3.5854   -0.3469   -3.2895 H   0  0  0  0  0  0  0  0  0  0  0  0
   -5.1859   -0.2106   -2.5472 H   0  0  0  0  0  0  0  0  0  0  0  0
   -3.9545   -1.1204   -1.7116 H   0  0  0  0  0  0  0  0  0  0  0  0
   -5.1410    2.1526   -2.7691 H   0  0  0  0  0  0  0  0  0  0  0  0
  1  2  1  0
  2  3  2  0
  3  4  1  0
  4  5  1  0
  4  6  2  0
  6  7  1  0
  7  8  1  0
  8  9  2  0
  8 10  1  0
 10 11  1  0
 11 12  1  0
 12 13  2  0
 12 14  1  0
 14 15  1  0
 15 16  1  0
 16 17  2  0
 17 18  1  0
 18 19  2  0
 19 20  1  0
 14 21  1  0
 21 22  2  0
 21 23  1  0
 23 24  2  0
 24 25  1  0
 25 26  2  0
 26 27  1  0
 27 28  2  0
  6 29  1  0
 29 30  1  0
 29 31  2  0
 31  2  1  0
 28 11  1  0
 20 16  1  0
 28 23  1  0
  1 32  1  0
  1 33  1  0
  1 34  1  0
  3 35  1  0
  5 36  1  0
  5 37  1  0
  5 38  1  0
  7 39  1  0
 10 40  1  0
 10 41  1  0
 15 42  1  0
 15 43  1  0
 17 44  1  0
 18 45  1  0
 19 46  1  0
 24 47  1  0
 25 48  1  0
 26 49  1  0
 27 50  1  0
 30 51  1  0
 30 52  1  0
 30 53  1  0
 31 54  1  0
M  END
$$$$
