
     RDKit          3D

 70 76  0  0  0  0  0  0  0  0999 V2000
   -5.1484   -4.5781   -0.3790 C   0  0  0  0  0  0  0  0  0  0  0  0
   -4.0577   -3.7562    0.2412 C   0  0  0  0  0  0  0  0  0  0  0  0
   -3.5466   -4.0533    1.5188 C   0  0  0  0  0  0  0  0  0  0  0  0
   -4.1356   -5.4014    2.4312 Cl  0  0  0  0  0  0  0  0  0  0  0  0
   -2.5431   -3.2639    2.1128 C   0  0  0  0  0  0  0  0  0  0  0  0
   -2.0173   -2.1551    1.4483 C   0  0  0  0  0  0  0  0  0  0  0  0
   -2.4982   -1.8582    0.1811 C   0  0  0  0  0  0  0  0  0  0  0  0
   -3.5102   -2.6456   -0.3926 C   0  0  0  0  0  0  0  0  0  0  0  0
   -3.8647   -2.1227   -1.6336 N   0  0  0  0  0  0  0  0  0  0  0  0
   -3.1429   -0.9676   -1.9397 C   0  0  0  0  0  0  0  0  0  0  0  0
   -3.3000   -0.3140   -2.9607 O   0  0  0  0  0  0  0  0  0  0  0  0
   -2.1442   -0.7363   -0.7672 C   0  0  1  0  0  0  0  0  0  0  0  0
   -2.3525    0.5475   -0.0689 C   0  0  0  0  0  0  0  0  0  0  0  0
   -1.2357    1.3693   -0.1947 C   0  0  0  0  0  0  0  0  0  0  0  0
   -1.4667    2.5438    0.4663 C   0  0  0  0  0  0  0  0  0  0  0  0
   -0.6842    3.6190    0.5212 O   0  0  0  0  0  0  0  0  0  0  0  0
   -2.7543    2.4526    1.0243 N   0  0  0  0  0  0  0  0  0  0  0  0
   -3.4005    3.4590    1.7968 C   0  0  0  0  0  0  0  0  0  0  0  0
   -4.7606    3.7298    1.5963 C   0  0  0  0  0  0  0  0  0  0  0  0
   -5.3891    4.7217    2.3499 C   0  0  0  0  0  0  0  0  0  0  0  0
   -4.6669    5.4365    3.3058 C   0  0  0  0  0  0  0  0  0  0  0  0
   -3.3137    5.1669    3.5091 C   0  0  0  0  0  0  0  0  0  0  0  0
   -2.6759    4.1819    2.7540 C   0  0  0  0  0  0  0  0  0  0  0  0
   -3.2931    1.1964    0.6876 C   0  0  0  0  0  0  0  0  0  0  0  0
   -4.4699    0.7357    1.1083 O   0  0  0  0  0  0  0  0  0  0  0  0
   -0.1922    0.7582   -1.0418 C   0  0  1  0  0  0  0  0  0  0  0  0
    1.2193    0.7829   -0.4227 C   0  0  0  0  0  0  0  0  0  0  0  0
    2.1426   -0.1082   -1.1409 N   0  0  0  0  0  0  0  0  0  0  0  0
    3.4151    0.3450   -1.4632 C   0  0  0  0  0  0  0  0  0  0  0  0
    3.8069    1.4671   -1.1437 O   0  0  0  0  0  0  0  0  0  0  0  0
    4.2847   -0.6115   -2.2713 C   0  0  0  0  0  0  0  0  0  0  0  0
    5.7036   -0.0916   -2.5143 C   0  0  0  0  0  0  0  0  0  0  0  0
    6.6357   -0.3700   -1.3569 C   0  0  0  0  0  0  0  0  0  0  0  0
    7.2924   -1.6041   -1.2561 C   0  0  0  0  0  0  0  0  0  0  0  0
    8.1489   -1.8644   -0.1843 C   0  0  0  0  0  0  0  0  0  0  0  0
    8.3549   -0.8957    0.7976 C   0  0  0  0  0  0  0  0  0  0  0  0
    7.7016    0.3317    0.7106 C   0  0  0  0  0  0  0  0  0  0  0  0
    6.8460    0.5932   -0.3610 C   0  0  0  0  0  0  0  0  0  0  0  0
    1.6009   -1.4143   -1.5378 C   0  0  0  0  0  0  0  0  0  0  0  0
    0.1967   -1.6902   -0.9611 C   0  0  0  0  0  0  0  0  0  0  0  0
   -0.7451   -0.6270   -1.3058 N   0  0  0  0  0  0  0  0  0  0  0  0
   -5.3837   -4.2618   -1.3990 H   0  0  0  0  0  0  0  0  0  0  0  0
   -6.0669   -4.4915    0.2100 H   0  0  0  0  0  0  0  0  0  0  0  0
   -4.8507   -5.6306   -0.4358 H   0  0  0  0  0  0  0  0  0  0  0  0
   -2.1768   -3.5116    3.1072 H   0  0  0  0  0  0  0  0  0  0  0  0
   -1.2605   -1.5363    1.9219 H   0  0  0  0  0  0  0  0  0  0  0  0
   -4.5911   -2.4637   -2.2433 H   0  0  0  0  0  0  0  0  0  0  0  0
   -1.2295    4.4037    0.7136 H   0  0  0  0  0  0  0  0  0  0  0  0
   -5.3334    3.2169    0.8254 H   0  0  0  0  0  0  0  0  0  0  0  0
   -6.4397    4.9475    2.1822 H   0  0  0  0  0  0  0  0  0  0  0  0
   -5.1603    6.2080    3.8921 H   0  0  0  0  0  0  0  0  0  0  0  0
   -2.7569    5.7201    4.2626 H   0  0  0  0  0  0  0  0  0  0  0  0
   -1.6292    3.9633    2.9575 H   0  0  0  0  0  0  0  0  0  0  0  0
   -4.7604    1.2497    1.8820 H   0  0  0  0  0  0  0  0  0  0  0  0
   -0.1621    1.2705   -2.0119 H   0  0  0  0  0  0  0  0  0  0  0  0
    1.1977    0.4381    0.6203 H   0  0  0  0  0  0  0  0  0  0  0  0
    1.6002    1.8103   -0.4067 H   0  0  0  0  0  0  0  0  0  0  0  0
    4.3183   -1.5869   -1.7752 H   0  0  0  0  0  0  0  0  0  0  0  0
    3.7956   -0.7316   -3.2465 H   0  0  0  0  0  0  0  0  0  0  0  0
    6.1158   -0.5843   -3.4058 H   0  0  0  0  0  0  0  0  0  0  0  0
    5.7048    0.9804   -2.7479 H   0  0  0  0  0  0  0  0  0  0  0  0
    7.1442   -2.3694   -2.0149 H   0  0  0  0  0  0  0  0  0  0  0  0
    8.6592   -2.8214   -0.1192 H   0  0  0  0  0  0  0  0  0  0  0  0
    9.0239   -1.0982    1.6301 H   0  0  0  0  0  0  0  0  0  0  0  0
    7.8563    1.0916    1.4733 H   0  0  0  0  0  0  0  0  0  0  0  0
    6.3376    1.5546   -0.4129 H   0  0  0  0  0  0  0  0  0  0  0  0
    1.5716   -1.4436   -2.6338 H   0  0  0  0  0  0  0  0  0  0  0  0
    2.2906   -2.1937   -1.1954 H   0  0  0  0  0  0  0  0  0  0  0  0
    0.3022   -1.7874    0.1259 H   0  0  0  0  0  0  0  0  0  0  0  0
   -0.1569   -2.6515   -1.3532 H   0  0  0  0  0  0  0  0  0  0  0  0
  1  2  1  0
  2  3  2  0
  3  4  1  0
  3  5  1  0
  5  6  2  0
  6  7  1  0
  7  8  2  0
  8  9  1  0
  9 10  1  0
 10 11  2  0
 10 12  1  0
 12 13  1  0
 13 14  1  0
 14 15  2  0
 15 16  1  0
 15 17  1  0
 17 18  1  0
 18 19  2  0
 19 20  1  0
 20 21  2  0
 21 22  1  0
 22 23  2  0
 17 24  1  0
 24 25  1  0
 14 26  1  0
 26 27  1  0
 27 28  1  0
 28 29  1  0
 29 30  2  0
 29 31  1  0
 31 32  1  0
 32 33  1  0
 33 34  2  0
 34 35  1  0
 35 36  2  0
 36 37  1  0
 37 38  2  0
 28 39  1  0
 39 40  1  0
 40 41  1  0
  8  2  1  0
 12 41  1  6
 12  7  1  0
 24 13  2  0
 41 26  1  0
 23 18  1  0
 38 33  1  0
  1 42  1  0
  1 43  1  0
  1 44  1  0
  5 45  1  0
  6 46  1  0
  9 47  1  0
 16 48  1  0
 19 49  1  0
 20 50  1  0
 21 51  1  0
 22 52  1  0
 23 53  1  0
 25 54  1  0
 26 55  1  6
 27 56  1  0
 27 57  1  0
 31 58  1  0
 31 59  1  0
 32 60  1  0
 32 61  1  0
 34 62  1  0
 35 63  1  0
 36 64  1  0
 37 65  1  0
 38 66  1  0
 39 67  1  0
 39 68  1  0
 40 69  1  0
 40 70  1  0
M  END
$$$$
