
     RDKit          3D

 48 50  0  0  0  0  0  0  0  0999 V2000
   10.1364   -0.5540   -0.8960 C   0  0  0  0  0  0  0  0  0  0  0  0
    9.2487   -1.1507    0.0414 O   0  0  0  0  0  0  0  0  0  0  0  0
    7.9132   -0.9164   -0.1300 C   0  0  0  0  0  0  0  0  0  0  0  0
    7.3394   -0.1306   -1.1284 C   0  0  0  0  0  0  0  0  0  0  0  0
    5.9482    0.0335   -1.1932 C   0  0  0  0  0  0  0  0  0  0  0  0
    5.1141   -0.5877   -0.2589 C   0  0  0  0  0  0  0  0  0  0  0  0
    3.7484   -0.4874   -0.2437 O   0  0  0  0  0  0  0  0  0  0  0  0
    3.1293    0.3637   -1.2043 C   0  0  0  0  0  0  0  0  0  0  0  0
    1.6717    0.3389   -0.9399 C   0  0  0  0  0  0  0  0  0  0  0  0
    0.8765   -0.0971    0.0918 C   0  0  0  0  0  0  0  0  0  0  0  0
   -0.4455    0.2052   -0.3185 C   0  0  0  0  0  0  0  0  0  0  0  0
   -1.6871   -0.0558    0.4143 C   0  0  0  0  0  0  0  0  0  0  0  0
   -1.7027   -0.6260    1.5003 O   0  0  0  0  0  0  0  0  0  0  0  0
   -2.8222    0.3872   -0.2343 N   0  0  0  0  0  0  0  0  0  0  0  0
   -4.1731    0.1082    0.2489 C   0  0  0  0  0  0  0  0  0  0  0  0
   -4.5870   -1.3020   -0.1810 C   0  0  0  0  0  0  0  0  0  0  0  0
   -5.1454    1.1798   -0.2744 C   0  0  0  0  0  0  0  0  0  0  0  0
   -6.5352    1.0594    0.2959 C   0  0  0  0  0  0  0  0  0  0  0  0
   -7.6275    0.8228   -0.5350 C   0  0  0  0  0  0  0  0  0  0  0  0
   -8.8952    0.7234    0.0323 C   0  0  0  0  0  0  0  0  0  0  0  0
   -9.0400    0.8677    1.4062 C   0  0  0  0  0  0  0  0  0  0  0  0
   -7.9045    1.1081    2.1595 C   0  0  0  0  0  0  0  0  0  0  0  0
   -6.6632    1.2086    1.6359 N   0  0  0  0  0  0  0  0  0  0  0  0
   -0.4442    0.7907   -1.5315 N   0  0  0  0  0  0  0  0  0  0  0  0
    0.8825    0.8701   -1.9128 O   0  0  0  0  0  0  0  0  0  0  0  0
    5.6999   -1.3792    0.7410 C   0  0  0  0  0  0  0  0  0  0  0  0
    4.7346   -2.1818    1.9321 Cl  0  0  0  0  0  0  0  0  0  0  0  0
    7.0862   -1.5399    0.8042 C   0  0  0  0  0  0  0  0  0  0  0  0
   10.0728    0.5382   -0.8601 H   0  0  0  0  0  0  0  0  0  0  0  0
   11.1561   -0.8370   -0.6184 H   0  0  0  0  0  0  0  0  0  0  0  0
    9.9503   -0.9286   -1.9077 H   0  0  0  0  0  0  0  0  0  0  0  0
    7.9454    0.3717   -1.8761 H   0  0  0  0  0  0  0  0  0  0  0  0
    5.5553    0.6548   -1.9922 H   0  0  0  0  0  0  0  0  0  0  0  0
    3.3217   -0.0071   -2.2180 H   0  0  0  0  0  0  0  0  0  0  0  0
    3.4934    1.3925   -1.0979 H   0  0  0  0  0  0  0  0  0  0  0  0
    1.1934   -0.5680    1.0122 H   0  0  0  0  0  0  0  0  0  0  0  0
   -2.6816    0.7411   -1.1757 H   0  0  0  0  0  0  0  0  0  0  0  0
   -4.1430    0.1368    1.3452 H   0  0  0  0  0  0  0  0  0  0  0  0
   -4.6288   -1.3849   -1.2728 H   0  0  0  0  0  0  0  0  0  0  0  0
   -3.8681   -2.0475    0.1764 H   0  0  0  0  0  0  0  0  0  0  0  0
   -5.5677   -1.5730    0.2218 H   0  0  0  0  0  0  0  0  0  0  0  0
   -4.7651    2.1767   -0.0167 H   0  0  0  0  0  0  0  0  0  0  0  0
   -5.1780    1.1486   -1.3709 H   0  0  0  0  0  0  0  0  0  0  0  0
   -7.5029    0.7143   -1.6078 H   0  0  0  0  0  0  0  0  0  0  0  0
   -9.7632    0.5371   -0.5940 H   0  0  0  0  0  0  0  0  0  0  0  0
  -10.0131    0.7972    1.8785 H   0  0  0  0  0  0  0  0  0  0  0  0
   -7.9625    1.2321    3.2365 H   0  0  0  0  0  0  0  0  0  0  0  0
    7.5294   -2.1538    1.5845 H   0  0  0  0  0  0  0  0  0  0  0  0
  1  2  1  0
  2  3  1  0
  3  4  2  0
  4  5  1  0
  5  6  2  0
  6  7  1  0
  7  8  1  0
  8  9  1  0
  9 10  2  0
 10 11  1  0
 11 12  1  0
 12 13  2  0
 12 14  1  0
 14 15  1  0
 15 16  1  0
 15 17  1  0
 17 18  1  0
 18 19  2  0
 19 20  1  0
 20 21  2  0
 21 22  1  0
 22 23  2  0
 11 24  2  0
 24 25  1  0
  6 26  1  0
 26 27  1  0
 26 28  2  0
 28  3  1  0
 25  9  1  0
 23 18  1  0
  1 29  1  0
  1 30  1  0
  1 31  1  0
  4 32  1  0
  5 33  1  0
  8 34  1  0
  8 35  1  0
 10 36  1  0
 14 37  1  0
 15 38  1  0
 16 39  1  0
 16 40  1  0
 16 41  1  0
 17 42  1  0
 17 43  1  0
 19 44  1  0
 20 45  1  0
 21 46  1  0
 22 47  1  0
 28 48  1  0
M  END
$$$$
