
     RDKit          3D

 61 66  0  0  0  0  0  0  0  0999 V2000
    9.1772    0.8805    1.1295 F   0  0  0  0  0  0  0  0  0  0  0  0
    7.8642    1.2119    0.9710 C   0  0  0  0  0  0  0  0  0  0  0  0
    7.8604    2.3585    0.2341 F   0  0  0  0  0  0  0  0  0  0  0  0
    7.4174    1.5617    2.2092 F   0  0  0  0  0  0  0  0  0  0  0  0
    7.0398    0.1128    0.3499 C   0  0  0  0  0  0  0  0  0  0  0  0
    7.4999   -1.2115    0.3272 C   0  0  0  0  0  0  0  0  0  0  0  0
    6.7182   -2.2226   -0.2317 C   0  0  0  0  0  0  0  0  0  0  0  0
    5.4658   -1.9242   -0.7688 C   0  0  0  0  0  0  0  0  0  0  0  0
    4.9788   -0.6109   -0.7500 C   0  0  0  0  0  0  0  0  0  0  0  0
    3.6206   -0.2834   -1.3358 C   0  0  0  0  0  0  0  0  0  0  0  0
    2.7113    0.3527   -0.3681 N   0  0  0  0  0  0  0  0  0  0  0  0
    1.5022    0.8517   -1.0637 C   0  0  0  0  0  0  0  0  0  0  0  0
    0.4808    1.4868   -0.0929 C   0  0  0  0  0  0  0  0  0  0  0  0
    0.0778    0.5186    0.9459 N   0  0  0  0  0  0  0  0  0  0  0  0
   -0.9649   -0.3620    0.6606 C   0  0  0  0  0  0  0  0  0  0  0  0
   -0.7358   -1.6509    0.6570 N   0  0  0  0  0  0  0  0  0  0  0  0
   -1.7628   -2.5621    0.3413 C   0  0  0  0  0  0  0  0  0  0  0  0
   -1.4612   -3.9253    0.3389 C   0  0  0  0  0  0  0  0  0  0  0  0
   -2.4393   -4.8720    0.0233 C   0  0  0  0  0  0  0  0  0  0  0  0
   -3.7345   -4.4612   -0.2947 C   0  0  0  0  0  0  0  0  0  0  0  0
   -4.0588   -3.1040   -0.2983 C   0  0  0  0  0  0  0  0  0  0  0  0
   -3.0695   -2.1687    0.0188 C   0  0  0  0  0  0  0  0  0  0  0  0
   -3.3113   -0.7857    0.0511 N   0  0  0  0  0  0  0  0  0  0  0  0
   -4.4747   -0.0941   -0.1903 C   0  0  0  0  0  0  0  0  0  0  0  0
   -4.2399    1.2521    0.0246 C   0  0  0  0  0  0  0  0  0  0  0  0
   -5.2559    2.2881   -0.0985 C   0  0  0  0  0  0  0  0  0  0  0  0
   -6.2691    2.1999   -1.0631 C   0  0  0  0  0  0  0  0  0  0  0  0
   -7.2343    3.2046   -1.1754 C   0  0  0  0  0  0  0  0  0  0  0  0
   -7.1958    4.3079   -0.3257 C   0  0  0  0  0  0  0  0  0  0  0  0
   -6.1926    4.4088    0.6356 C   0  0  0  0  0  0  0  0  0  0  0  0
   -5.2266    3.4050    0.7478 C   0  0  0  0  0  0  0  0  0  0  0  0
   -2.8753    1.3650    0.4078 C   0  0  0  0  0  0  0  0  0  0  0  0
   -2.3126    0.1020    0.3752 C   0  0  0  0  0  0  0  0  0  0  0  0
    1.2625    0.0040    1.6645 C   0  0  0  0  0  0  0  0  0  0  0  0
    2.2982   -0.6035    0.6918 C   0  0  0  0  0  0  0  0  0  0  0  0
    5.7757    0.4004   -0.1899 C   0  0  0  0  0  0  0  0  0  0  0  0
    8.4732   -1.4620    0.7467 H   0  0  0  0  0  0  0  0  0  0  0  0
    7.0843   -3.2464   -0.2469 H   0  0  0  0  0  0  0  0  0  0  0  0
    4.8687   -2.7264   -1.1972 H   0  0  0  0  0  0  0  0  0  0  0  0
    3.8038    0.4002   -2.1759 H   0  0  0  0  0  0  0  0  0  0  0  0
    3.1623   -1.1833   -1.7673 H   0  0  0  0  0  0  0  0  0  0  0  0
    1.7942    1.6158   -1.7942 H   0  0  0  0  0  0  0  0  0  0  0  0
    1.0156    0.0364   -1.6160 H   0  0  0  0  0  0  0  0  0  0  0  0
    0.9256    2.3647    0.3927 H   0  0  0  0  0  0  0  0  0  0  0  0
   -0.3773    1.8486   -0.6675 H   0  0  0  0  0  0  0  0  0  0  0  0
   -0.4535   -4.2484    0.5862 H   0  0  0  0  0  0  0  0  0  0  0  0
   -2.1890   -5.9298    0.0276 H   0  0  0  0  0  0  0  0  0  0  0  0
   -4.4928   -5.2018   -0.5374 H   0  0  0  0  0  0  0  0  0  0  0  0
   -5.0736   -2.8097   -0.5444 H   0  0  0  0  0  0  0  0  0  0  0  0
   -5.3843   -0.6072   -0.4667 H   0  0  0  0  0  0  0  0  0  0  0  0
   -6.3115    1.3559   -1.7466 H   0  0  0  0  0  0  0  0  0  0  0  0
   -8.0135    3.1256   -1.9287 H   0  0  0  0  0  0  0  0  0  0  0  0
   -7.9468    5.0887   -0.4127 H   0  0  0  0  0  0  0  0  0  0  0  0
   -6.1614    5.2673    1.3015 H   0  0  0  0  0  0  0  0  0  0  0  0
   -4.4597    3.4993    1.5129 H   0  0  0  0  0  0  0  0  0  0  0  0
   -2.3513    2.2740    0.6723 H   0  0  0  0  0  0  0  0  0  0  0  0
    0.9698   -0.7355    2.4195 H   0  0  0  0  0  0  0  0  0  0  0  0
    1.7235    0.8350    2.2136 H   0  0  0  0  0  0  0  0  0  0  0  0
    3.1704   -0.8998    1.2859 H   0  0  0  0  0  0  0  0  0  0  0  0
    1.8890   -1.5151    0.2385 H   0  0  0  0  0  0  0  0  0  0  0  0
    5.3986    1.4232   -0.1672 H   0  0  0  0  0  0  0  0  0  0  0  0
  1  2  1  0
  2  3  1  0
  2  4  1  0
  2  5  1  0
  5  6  2  0
  6  7  1  0
  7  8  2  0
  8  9  1  0
  9 10  1  0
 10 11  1  0
 11 12  1  0
 12 13  1  0
 13 14  1  0
 14 15  1  0
 15 16  2  0
 16 17  1  0
 17 18  2  0
 18 19  1  0
 19 20  2  0
 20 21  1  0
 21 22  2  0
 22 23  1  0
 23 24  1  0
 24 25  2  0
 25 26  1  0
 26 27  2  0
 27 28  1  0
 28 29  2  0
 29 30  1  0
 30 31  2  0
 25 32  1  0
 32 33  2  0
 14 34  1  0
 34 35  1  0
  9 36  2  0
 36  5  1  0
 35 11  1  0
 33 15  1  0
 22 17  1  0
 33 23  1  0
 31 26  1  0
  6 37  1  0
  7 38  1  0
  8 39  1  0
 10 40  1  0
 10 41  1  0
 12 42  1  0
 12 43  1  0
 13 44  1  0
 13 45  1  0
 18 46  1  0
 19 47  1  0
 20 48  1  0
 21 49  1  0
 24 50  1  0
 27 51  1  0
 28 52  1  0
 29 53  1  0
 30 54  1  0
 31 55  1  0
 32 56  1  0
 34 57  1  0
 34 58  1  0
 35 59  1  0
 35 60  1  0
 36 61  1  0
M  END
$$$$
