
     RDKit          3D

 63 65  0  0  0  0  0  0  0  0999 V2000
    0.5878    3.2816    4.3302 C   0  0  0  0  0  0  0  0  0  0  0  0
    1.5970    3.6406    3.3956 O   0  0  0  0  0  0  0  0  0  0  0  0
    1.4462    3.1775    2.1176 C   0  0  0  0  0  0  0  0  0  0  0  0
    2.4869    3.5170    1.2506 C   0  0  0  0  0  0  0  0  0  0  0  0
    2.4679    3.1022   -0.0820 C   0  0  0  0  0  0  0  0  0  0  0  0
    1.4027    2.3403   -0.5571 C   0  0  0  0  0  0  0  0  0  0  0  0
    0.3496    1.9892    0.2989 C   0  0  0  0  0  0  0  0  0  0  0  0
   -0.7867    1.1366   -0.2170 C   0  0  0  0  0  0  0  0  0  0  0  0
   -0.3760   -0.2473   -0.4729 N   0  0  0  0  0  0  0  0  0  0  0  0
    0.1191   -1.0159    0.6783 C   0  0  0  0  0  0  0  0  0  0  0  0
   -0.9813   -1.3300    1.6980 C   0  0  0  0  0  0  0  0  0  0  0  0
   -2.1515   -1.5164    1.3779 O   0  0  0  0  0  0  0  0  0  0  0  0
   -0.5168   -1.4439    2.9946 N   0  0  0  0  0  0  0  0  0  0  0  0
   -1.4303   -1.5805    4.1182 C   0  0  0  0  0  0  0  0  0  0  0  0
   -1.4761   -0.3102    4.9774 C   0  0  0  0  0  0  0  0  0  0  0  0
   -2.4712   -0.4124    6.1253 C   0  0  0  0  0  0  0  0  0  0  0  0
   -2.8825    1.0261    6.3156 C   0  0  0  0  0  0  0  0  0  0  0  0
   -2.9134    1.5292    4.8904 C   0  0  0  0  0  0  0  0  0  0  0  0
   -1.8643    0.8393    4.1952 O   0  0  0  0  0  0  0  0  0  0  0  0
   -0.7139   -0.8054   -1.7005 C   0  0  0  0  0  0  0  0  0  0  0  0
   -1.2198   -0.1409   -2.6087 O   0  0  0  0  0  0  0  0  0  0  0  0
   -0.4413   -2.2897   -1.8950 C   0  0  0  0  0  0  0  0  0  0  0  0
   -0.7093   -2.7236   -3.3352 C   0  0  0  0  0  0  0  0  0  0  0  0
    0.4118   -2.2829   -4.2644 C   0  0  0  0  0  0  0  0  0  0  0  0
    1.5227   -1.9695   -3.8441 O   0  0  0  0  0  0  0  0  0  0  0  0
    0.0464   -2.3434   -5.5892 N   0  0  0  0  0  0  0  0  0  0  0  0
    0.8658   -2.0323   -6.6517 C   0  0  0  0  0  0  0  0  0  0  0  0
    2.2102   -1.6007   -6.6519 C   0  0  0  0  0  0  0  0  0  0  0  0
    2.5275   -1.4520   -7.9783 C   0  0  0  0  0  0  0  0  0  0  0  0
    3.7387   -1.0379   -8.7070 C   0  0  0  0  0  0  0  0  0  0  0  0
    1.4408   -1.7714   -8.7330 O   0  0  0  0  0  0  0  0  0  0  0  0
    0.3935   -2.1229   -7.9008 N   0  0  0  0  0  0  0  0  0  0  0  0
    0.3777    2.4157    1.6392 C   0  0  0  0  0  0  0  0  0  0  0  0
    0.8456    3.7322    5.2940 H   0  0  0  0  0  0  0  0  0  0  0  0
   -0.3878    3.6778    4.0299 H   0  0  0  0  0  0  0  0  0  0  0  0
    0.5546    2.1969    4.4696 H   0  0  0  0  0  0  0  0  0  0  0  0
    3.3241    4.1091    1.6151 H   0  0  0  0  0  0  0  0  0  0  0  0
    3.2848    3.3720   -0.7461 H   0  0  0  0  0  0  0  0  0  0  0  0
    1.3897    2.0174   -1.5984 H   0  0  0  0  0  0  0  0  0  0  0  0
   -1.6187    1.1181    0.4992 H   0  0  0  0  0  0  0  0  0  0  0  0
   -1.1853    1.6129   -1.1227 H   0  0  0  0  0  0  0  0  0  0  0  0
    0.9263   -0.4509    1.1536 H   0  0  0  0  0  0  0  0  0  0  0  0
    0.5469   -1.9723    0.3722 H   0  0  0  0  0  0  0  0  0  0  0  0
    0.4310   -1.1519    3.1942 H   0  0  0  0  0  0  0  0  0  0  0  0
   -2.4306   -1.8209    3.7453 H   0  0  0  0  0  0  0  0  0  0  0  0
   -1.0772   -2.4242    4.7186 H   0  0  0  0  0  0  0  0  0  0  0  0
   -0.4727   -0.0921    5.3667 H   0  0  0  0  0  0  0  0  0  0  0  0
   -3.3458   -1.0088    5.8377 H   0  0  0  0  0  0  0  0  0  0  0  0
   -2.0359   -0.8615    7.0227 H   0  0  0  0  0  0  0  0  0  0  0  0
   -2.1133    1.5577    6.8864 H   0  0  0  0  0  0  0  0  0  0  0  0
   -3.8393    1.1428    6.8311 H   0  0  0  0  0  0  0  0  0  0  0  0
   -3.8611    1.2815    4.3991 H   0  0  0  0  0  0  0  0  0  0  0  0
   -2.7532    2.6081    4.8177 H   0  0  0  0  0  0  0  0  0  0  0  0
    0.5934   -2.5148   -1.6222 H   0  0  0  0  0  0  0  0  0  0  0  0
   -1.1122   -2.8417   -1.2276 H   0  0  0  0  0  0  0  0  0  0  0  0
   -1.6708   -2.3375   -3.6974 H   0  0  0  0  0  0  0  0  0  0  0  0
   -0.7489   -3.8195   -3.3795 H   0  0  0  0  0  0  0  0  0  0  0  0
   -0.8932   -2.6062   -5.8549 H   0  0  0  0  0  0  0  0  0  0  0  0
    2.8683   -1.4405   -5.8131 H   0  0  0  0  0  0  0  0  0  0  0  0
    4.2207   -1.9037   -9.1712 H   0  0  0  0  0  0  0  0  0  0  0  0
    3.4918   -0.3169   -9.4934 H   0  0  0  0  0  0  0  0  0  0  0  0
    4.4569   -0.5640   -8.0309 H   0  0  0  0  0  0  0  0  0  0  0  0
   -0.4463    2.1354    2.2902 H   0  0  0  0  0  0  0  0  0  0  0  0
  1  2  1  0
  2  3  1  0
  3  4  2  0
  4  5  1  0
  5  6  2  0
  6  7  1  0
  7  8  1  0
  8  9  1  0
  9 10  1  0
 10 11  1  0
 11 12  2  0
 11 13  1  0
 13 14  1  0
 14 15  1  0
 15 16  1  0
 16 17  1  0
 17 18  1  0
 18 19  1  0
  9 20  1  0
 20 21  2  0
 20 22  1  0
 22 23  1  0
 23 24  1  0
 24 25  2  0
 24 26  1  0
 26 27  1  0
 27 28  1  0
 28 29  2  0
 29 30  1  0
 29 31  1  0
 31 32  1  0
  7 33  2  0
 33  3  1  0
 19 15  1  0
 32 27  2  0
  1 34  1  0
  1 35  1  0
  1 36  1  0
  4 37  1  0
  5 38  1  0
  6 39  1  0
  8 40  1  0
  8 41  1  0
 10 42  1  0
 10 43  1  0
 13 44  1  0
 14 45  1  0
 14 46  1  0
 15 47  1  0
 16 48  1  0
 16 49  1  0
 17 50  1  0
 17 51  1  0
 18 52  1  0
 18 53  1  0
 22 54  1  0
 22 55  1  0
 23 56  1  0
 23 57  1  0
 26 58  1  0
 28 59  1  0
 30 60  1  0
 30 61  1  0
 30 62  1  0
 33 63  1  0
M  END
$$$$
