
     RDKit          3D

 38 38  0  0  0  0  0  0  0  0999 V2000
    5.0598    3.4577    2.9879 C   0  0  0  0  0  0  0  0  0  0  0  0
    5.7296    2.6671    2.0177 O   0  0  0  0  0  0  0  0  0  0  0  0
    4.8260    1.9828    1.1498 C   0  0  0  0  0  0  0  0  0  0  0  0
    4.3113    0.6853    1.7780 C   0  0  0  0  0  0  0  0  0  0  0  0
    3.3714   -0.0109    0.9159 N   0  0  0  0  0  0  0  0  0  0  0  0
    2.0505    0.3746    0.8483 C   0  0  0  0  0  0  0  0  0  0  0  0
    1.6147    1.3068    1.5217 O   0  0  0  0  0  0  0  0  0  0  0  0
    1.1706   -0.4073   -0.0898 C   0  0  0  0  0  0  0  0  0  0  0  0
    1.7792   -1.2823   -1.0236 C   0  0  0  0  0  0  0  0  0  0  0  0
    2.3388   -1.9836   -1.7602 N   0  0  0  0  0  0  0  0  0  0  0  0
   -0.1579   -0.2048    0.0261 C   0  0  0  0  0  0  0  0  0  0  0  0
   -1.3076   -0.7789   -0.6876 C   0  0  0  0  0  0  0  0  0  0  0  0
   -1.0982   -1.8460   -1.7281 C   0  0  0  0  0  0  0  0  0  0  0  0
   -2.5352   -0.3250   -0.3558 C   0  0  0  0  0  0  0  0  0  0  0  0
   -3.8087   -0.7724   -0.9263 C   0  0  0  0  0  0  0  0  0  0  0  0
   -4.2815   -0.2322   -2.1287 C   0  0  0  0  0  0  0  0  0  0  0  0
   -5.5132   -0.6421   -2.6433 C   0  0  0  0  0  0  0  0  0  0  0  0
   -6.2749   -1.5896   -1.9608 C   0  0  0  0  0  0  0  0  0  0  0  0
   -5.8043   -2.1365   -0.7646 C   0  0  0  0  0  0  0  0  0  0  0  0
   -4.5735   -1.7282   -0.2477 C   0  0  0  0  0  0  0  0  0  0  0  0
    4.4955    2.8308    3.6832 H   0  0  0  0  0  0  0  0  0  0  0  0
    5.8125    4.0053    3.5593 H   0  0  0  0  0  0  0  0  0  0  0  0
    4.3924    4.1805    2.5022 H   0  0  0  0  0  0  0  0  0  0  0  0
    5.3867    1.7320    0.2411 H   0  0  0  0  0  0  0  0  0  0  0  0
    4.0034    2.6481    0.8363 H   0  0  0  0  0  0  0  0  0  0  0  0
    5.1478    0.0067    1.9750 H   0  0  0  0  0  0  0  0  0  0  0  0
    3.8312    0.8791    2.7434 H   0  0  0  0  0  0  0  0  0  0  0  0
    3.7443   -0.7518    0.3319 H   0  0  0  0  0  0  0  0  0  0  0  0
   -0.4630    0.5128    0.7933 H   0  0  0  0  0  0  0  0  0  0  0  0
   -0.5711   -2.7021   -1.3008 H   0  0  0  0  0  0  0  0  0  0  0  0
   -0.5300   -1.4510   -2.5716 H   0  0  0  0  0  0  0  0  0  0  0  0
   -2.0317   -2.2392   -2.1404 H   0  0  0  0  0  0  0  0  0  0  0  0
   -2.6651    0.4389    0.4066 H   0  0  0  0  0  0  0  0  0  0  0  0
   -3.7027    0.5154   -2.6595 H   0  0  0  0  0  0  0  0  0  0  0  0
   -5.8855   -0.2124   -3.5715 H   0  0  0  0  0  0  0  0  0  0  0  0
   -7.2380   -1.9017   -2.3569 H   0  0  0  0  0  0  0  0  0  0  0  0
   -6.4048   -2.8717   -0.2238 H   0  0  0  0  0  0  0  0  0  0  0  0
   -4.2188   -2.1543    0.6870 H   0  0  0  0  0  0  0  0  0  0  0  0
  1  2  1  0
  2  3  1  0
  3  4  1  0
  4  5  1  0
  5  6  1  0
  6  7  2  0
  6  8  1  0
  8  9  1  0
  9 10  3  0
  8 11  2  3
 11 12  1  0
 12 13  1  0
 12 14  2  3
 14 15  1  0
 15 16  2  0
 16 17  1  0
 17 18  2  0
 18 19  1  0
 19 20  2  0
 20 15  1  0
  1 21  1  0
  1 22  1  0
  1 23  1  0
  3 24  1  0
  3 25  1  0
  4 26  1  0
  4 27  1  0
  5 28  1  0
 11 29  1  0
 13 30  1  0
 13 31  1  0
 13 32  1  0
 14 33  1  0
 16 34  1  0
 17 35  1  0
 18 36  1  0
 19 37  1  0
 20 38  1  0
M  END
$$$$
