
     RDKit          3D

 65 70  0  0  0  0  0  0  0  0999 V2000
   -4.4793   -4.2952   -3.0698 C   0  0  0  0  0  0  0  0  0  0  0  0
   -4.8945   -3.1544   -2.3305 O   0  0  0  0  0  0  0  0  0  0  0  0
   -3.9986   -2.6350   -1.4396 C   0  0  0  0  0  0  0  0  0  0  0  0
   -2.7502   -3.1658   -1.1253 C   0  0  0  0  0  0  0  0  0  0  0  0
   -1.9242   -2.5202   -0.1967 C   0  0  0  0  0  0  0  0  0  0  0  0
   -2.3231   -1.3266    0.4271 C   0  0  0  0  0  0  0  0  0  0  0  0
   -3.6008   -0.8352    0.1419 C   0  0  0  0  0  0  0  0  0  0  0  0
   -4.4183   -1.4687   -0.7981 C   0  0  0  0  0  0  0  0  0  0  0  0
   -4.1194    0.2989    0.7105 O   0  0  0  0  0  0  0  0  0  0  0  0
   -3.5054    0.6561    1.9481 C   0  0  0  0  0  0  0  0  0  0  0  0
   -1.9927    0.7297    1.8503 C   0  0  0  0  0  0  0  0  0  0  0  0
   -1.4197   -0.6152    1.4161 C   0  0  0  0  0  0  0  0  0  0  0  0
   -0.1054   -0.2714    0.8603 N   0  0  0  0  0  0  0  0  0  0  0  0
    0.9364   -1.1675    0.9554 C   0  0  0  0  0  0  0  0  0  0  0  0
    0.8191   -2.2222    1.5811 O   0  0  0  0  0  0  0  0  0  0  0  0
    2.2263   -0.9256    0.2597 C   0  0  0  0  0  0  0  0  0  0  0  0
    3.3207   -1.6604    0.7567 C   0  0  0  0  0  0  0  0  0  0  0  0
    4.5404   -1.6842    0.0799 C   0  0  0  0  0  0  0  0  0  0  0  0
    5.6004   -2.3901    0.5888 O   0  0  0  0  0  0  0  0  0  0  0  0
    5.3377   -3.7936    0.5916 C   0  0  0  0  0  0  0  0  0  0  0  0
    4.7113   -0.9544   -1.0982 C   0  0  0  0  0  0  0  0  0  0  0  0
    5.9381   -1.0498   -1.6948 O   0  0  0  0  0  0  0  0  0  0  0  0
    6.1989   -0.2139   -2.8127 C   0  0  0  0  0  0  0  0  0  0  0  0
    3.6291   -0.2226   -1.5919 C   0  0  0  0  0  0  0  0  0  0  0  0
    2.3910   -0.1758   -0.9118 C   0  0  0  0  0  0  0  0  0  0  0  0
    1.4270    0.6457   -1.5158 N   0  0  0  0  0  0  0  0  0  0  0  0
    0.3058    1.2384   -1.0147 C   0  0  0  0  0  0  0  0  0  0  0  0
   -0.3491    1.9181   -1.8087 O   0  0  0  0  0  0  0  0  0  0  0  0
   -0.0134    1.1581    0.4898 C   0  0  0  0  0  0  0  0  0  0  0  0
    1.0446    1.9032    1.3273 C   0  0  0  0  0  0  0  0  0  0  0  0
   -1.4659    1.6994    0.7653 C   0  0  0  0  0  0  0  0  0  0  0  0
   -1.6181    3.1784    1.0976 C   0  0  0  0  0  0  0  0  0  0  0  0
   -1.4747    3.6964    2.3955 C   0  0  0  0  0  0  0  0  0  0  0  0
   -1.6258    5.0633    2.6443 C   0  0  0  0  0  0  0  0  0  0  0  0
   -1.9211    5.9358    1.6018 C   0  0  0  0  0  0  0  0  0  0  0  0
   -2.0657    5.4428    0.3093 C   0  0  0  0  0  0  0  0  0  0  0  0
   -1.9141    4.0773    0.0598 C   0  0  0  0  0  0  0  0  0  0  0  0
   -4.2927   -5.1490   -2.4102 H   0  0  0  0  0  0  0  0  0  0  0  0
   -3.6017   -4.0676   -3.6848 H   0  0  0  0  0  0  0  0  0  0  0  0
   -5.2966   -4.5688   -3.7437 H   0  0  0  0  0  0  0  0  0  0  0  0
   -2.3837   -4.0792   -1.5811 H   0  0  0  0  0  0  0  0  0  0  0  0
   -0.9599   -2.9688    0.0341 H   0  0  0  0  0  0  0  0  0  0  0  0
   -5.3953   -1.0511   -1.0339 H   0  0  0  0  0  0  0  0  0  0  0  0
   -3.8153   -0.0634    2.7181 H   0  0  0  0  0  0  0  0  0  0  0  0
   -3.9142    1.6272    2.2455 H   0  0  0  0  0  0  0  0  0  0  0  0
   -1.5721    0.9778    2.8312 H   0  0  0  0  0  0  0  0  0  0  0  0
   -1.3060   -1.2667    2.2919 H   0  0  0  0  0  0  0  0  0  0  0  0
    3.2162   -2.2355    1.6747 H   0  0  0  0  0  0  0  0  0  0  0  0
    4.7500   -4.0685    1.4728 H   0  0  0  0  0  0  0  0  0  0  0  0
    4.8251   -4.1149   -0.3239 H   0  0  0  0  0  0  0  0  0  0  0  0
    6.2968   -4.3146    0.6474 H   0  0  0  0  0  0  0  0  0  0  0  0
    5.5188   -0.4310   -3.6439 H   0  0  0  0  0  0  0  0  0  0  0  0
    7.2179   -0.4212   -3.1559 H   0  0  0  0  0  0  0  0  0  0  0  0
    6.1492    0.8435   -2.5294 H   0  0  0  0  0  0  0  0  0  0  0  0
    3.7375    0.3425   -2.5112 H   0  0  0  0  0  0  0  0  0  0  0  0
    1.5863    0.9371   -2.4735 H   0  0  0  0  0  0  0  0  0  0  0  0
    2.0608    1.5318    1.1797 H   0  0  0  0  0  0  0  0  0  0  0  0
    0.8359    1.8113    2.3995 H   0  0  0  0  0  0  0  0  0  0  0  0
    1.0845    2.9663    1.0640 H   0  0  0  0  0  0  0  0  0  0  0  0
   -2.0729    1.5298   -0.1340 H   0  0  0  0  0  0  0  0  0  0  0  0
   -1.2327    3.0570    3.2390 H   0  0  0  0  0  0  0  0  0  0  0  0
   -1.5131    5.4458    3.6561 H   0  0  0  0  0  0  0  0  0  0  0  0
   -2.0387    6.9981    1.7943 H   0  0  0  0  0  0  0  0  0  0  0  0
   -2.2980    6.1189   -0.5090 H   0  0  0  0  0  0  0  0  0  0  0  0
   -2.0337    3.7189   -0.9636 H   0  0  0  0  0  0  0  0  0  0  0  0
  1  2  1  0
  2  3  1  0
  3  4  2  0
  4  5  1  0
  5  6  2  0
  6  7  1  0
  7  8  2  0
  7  9  1  0
  9 10  1  0
 10 11  1  0
 11 12  1  0
 12 13  1  0
 13 14  1  0
 14 15  2  0
 14 16  1  0
 16 17  2  0
 17 18  1  0
 18 19  1  0
 19 20  1  0
 18 21  2  0
 21 22  1  0
 22 23  1  0
 21 24  1  0
 24 25  2  0
 25 26  1  0
 26 27  1  0
 27 28  2  0
 27 29  1  0
 29 30  1  0
 29 31  1  0
 31 32  1  0
 32 33  2  0
 33 34  1  0
 34 35  2  0
 35 36  1  0
 36 37  2  0
  8  3  1  0
 31 11  1  0
 37 32  1  0
 12  6  1  0
 29 13  1  0
 25 16  1  0
  1 38  1  0
  1 39  1  0
  1 40  1  0
  4 41  1  0
  5 42  1  0
  8 43  1  0
 10 44  1  0
 10 45  1  0
 11 46  1  0
 12 47  1  0
 17 48  1  0
 20 49  1  0
 20 50  1  0
 20 51  1  0
 23 52  1  0
 23 53  1  0
 23 54  1  0
 24 55  1  0
 26 56  1  0
 30 57  1  0
 30 58  1  0
 30 59  1  0
 31 60  1  0
 33 61  1  0
 34 62  1  0
 35 63  1  0
 36 64  1  0
 37 65  1  0
M  END
$$$$
