
     RDKit          3D

 32 33  0  0  0  0  0  0  0  0999 V2000
    4.2354    0.6444   -0.4778 C   0  0  0  0  0  0  0  0  0  0  0  0
    4.2086   -0.8747   -0.4649 C   0  0  0  0  0  0  0  0  0  0  0  0
    2.8947   -1.5125    0.6182 S   0  0  0  0  0  0  0  0  0  0  0  0
    1.4580   -1.1583   -0.2867 C   0  0  0  0  0  0  0  0  0  0  0  0
    1.1849   -1.2221   -1.6320 C   0  0  0  0  0  0  0  0  0  0  0  0
   -0.0997   -0.8283   -1.8894 N   0  0  0  0  0  0  0  0  0  0  0  0
   -0.6393   -0.5527   -0.7162 C   0  0  0  0  0  0  0  0  0  0  0  0
   -2.0119   -0.0940   -0.5235 C   0  0  0  0  0  0  0  0  0  0  0  0
   -2.9979   -0.9719   -0.0563 C   0  0  0  0  0  0  0  0  0  0  0  0
   -4.3076   -0.5248    0.1294 C   0  0  0  0  0  0  0  0  0  0  0  0
   -4.6400    0.7984   -0.1591 C   0  0  0  0  0  0  0  0  0  0  0  0
   -3.6669    1.6741   -0.6404 C   0  0  0  0  0  0  0  0  0  0  0  0
   -2.3570    1.2280   -0.8268 C   0  0  0  0  0  0  0  0  0  0  0  0
    0.2874   -0.7344    0.2988 N   0  0  0  0  0  0  0  0  0  0  0  0
    0.0538   -0.4770    1.7097 C   0  0  0  0  0  0  0  0  0  0  0  0
    0.4118    0.9455    2.1073 C   0  0  0  0  0  0  0  0  0  0  0  0
    5.0618    0.9958   -1.1048 H   0  0  0  0  0  0  0  0  0  0  0  0
    4.3888    1.0510    0.5277 H   0  0  0  0  0  0  0  0  0  0  0  0
    3.3116    1.0669   -0.8855 H   0  0  0  0  0  0  0  0  0  0  0  0
    5.1630   -1.2473   -0.0782 H   0  0  0  0  0  0  0  0  0  0  0  0
    4.0963   -1.2711   -1.4787 H   0  0  0  0  0  0  0  0  0  0  0  0
    1.8417   -1.5275   -2.4351 H   0  0  0  0  0  0  0  0  0  0  0  0
   -2.7512   -2.0103    0.1531 H   0  0  0  0  0  0  0  0  0  0  0  0
   -5.0699   -1.2111    0.4890 H   0  0  0  0  0  0  0  0  0  0  0  0
   -5.6614    1.1442   -0.0212 H   0  0  0  0  0  0  0  0  0  0  0  0
   -3.9290    2.7014   -0.8797 H   0  0  0  0  0  0  0  0  0  0  0  0
   -1.6056    1.9115   -1.2168 H   0  0  0  0  0  0  0  0  0  0  0  0
   -0.9983   -0.6783    1.9323 H   0  0  0  0  0  0  0  0  0  0  0  0
    0.6299   -1.2001    2.2957 H   0  0  0  0  0  0  0  0  0  0  0  0
    1.4685    1.1599    1.9166 H   0  0  0  0  0  0  0  0  0  0  0  0
    0.2209    1.0996    3.1738 H   0  0  0  0  0  0  0  0  0  0  0  0
   -0.1813    1.6756    1.5471 H   0  0  0  0  0  0  0  0  0  0  0  0
  1  2  1  0
  2  3  1  0
  3  4  1  0
  4  5  2  0
  5  6  1  0
  6  7  2  0
  7  8  1  0
  8  9  2  0
  9 10  1  0
 10 11  2  0
 11 12  1  0
 12 13  2  0
  7 14  1  0
 14 15  1  0
 15 16  1  0
 14  4  1  0
 13  8  1  0
  1 17  1  0
  1 18  1  0
  1 19  1  0
  2 20  1  0
  2 21  1  0
  5 22  1  0
  9 23  1  0
 10 24  1  0
 11 25  1  0
 12 26  1  0
 13 27  1  0
 15 28  1  0
 15 29  1  0
 16 30  1  0
 16 31  1  0
 16 32  1  0
M  END
$$$$
