
     RDKit          3D

 37 39  0  0  0  0  0  0  0  0999 V2000
   -4.0933    2.0984    0.3206 O   0  0  0  0  0  0  0  0  0  0  0  0
   -4.3599    0.9019    0.2527 C   0  0  0  0  0  0  0  0  0  0  0  0
   -3.4042   -0.0987    0.1299 N   0  0  0  0  0  0  0  0  0  0  0  0
   -2.0004    0.0384    0.1223 C   0  0  0  0  0  0  0  0  0  0  0  0
   -1.3249    1.2401    0.3240 C   0  0  0  0  0  0  0  0  0  0  0  0
    0.0760    1.2801    0.3049 C   0  0  0  0  0  0  0  0  0  0  0  0
    0.8273    0.1207    0.0865 C   0  0  0  0  0  0  0  0  0  0  0  0
    2.2310    0.2537    0.0815 N   0  0  0  0  0  0  0  0  0  0  0  0
    3.1723   -0.7431   -0.0802 C   0  0  0  0  0  0  0  0  0  0  0  0
    2.9447   -1.9330   -0.2718 O   0  0  0  0  0  0  0  0  0  0  0  0
    4.6012   -0.3071   -0.0784 C   0  0  0  0  0  0  0  0  0  0  0  0
    5.4614   -1.0048   -0.9473 C   0  0  0  0  0  0  0  0  0  0  0  0
    6.8170   -0.6788   -1.0289 C   0  0  0  0  0  0  0  0  0  0  0  0
    7.3265    0.3437   -0.2357 C   0  0  0  0  0  0  0  0  0  0  0  0
    8.9946    0.7497   -0.3322 Cl  0  0  0  0  0  0  0  0  0  0  0  0
    6.4949    1.0373    0.6407 C   0  0  0  0  0  0  0  0  0  0  0  0
    5.1343    0.7123    0.7255 C   0  0  0  0  0  0  0  0  0  0  0  0
    4.2026    1.6033    1.8777 Cl  0  0  0  0  0  0  0  0  0  0  0  0
    0.1528   -1.0815   -0.1117 C   0  0  0  0  0  0  0  0  0  0  0  0
   -1.2480   -1.1217   -0.0924 C   0  0  0  0  0  0  0  0  0  0  0  0
   -5.7363    0.3993    0.2739 C   0  0  0  0  0  0  0  0  0  0  0  0
   -6.2291   -0.8625    0.5673 C   0  0  0  0  0  0  0  0  0  0  0  0
   -7.6508   -0.9360    0.4675 C   0  0  0  0  0  0  0  0  0  0  0  0
   -8.2047    0.2710    0.1104 C   0  0  0  0  0  0  0  0  0  0  0  0
   -7.0199    1.4836   -0.0936 S   0  0  0  0  0  0  0  0  0  0  0  0
   -3.7475   -1.0345   -0.0293 H   0  0  0  0  0  0  0  0  0  0  0  0
   -1.8517    2.1718    0.5048 H   0  0  0  0  0  0  0  0  0  0  0  0
    0.5631    2.2385    0.4680 H   0  0  0  0  0  0  0  0  0  0  0  0
    2.5777    1.1912    0.2492 H   0  0  0  0  0  0  0  0  0  0  0  0
    5.0720   -1.8107   -1.5696 H   0  0  0  0  0  0  0  0  0  0  0  0
    7.4642   -1.2283   -1.7086 H   0  0  0  0  0  0  0  0  0  0  0  0
    6.9092    1.8260    1.2649 H   0  0  0  0  0  0  0  0  0  0  0  0
    0.6836   -2.0121   -0.2851 H   0  0  0  0  0  0  0  0  0  0  0  0
   -1.7327   -2.0817   -0.2516 H   0  0  0  0  0  0  0  0  0  0  0  0
   -5.6150   -1.7042    0.8617 H   0  0  0  0  0  0  0  0  0  0  0  0
   -8.2372   -1.8272    0.6569 H   0  0  0  0  0  0  0  0  0  0  0  0
   -9.2509    0.5050   -0.0330 H   0  0  0  0  0  0  0  0  0  0  0  0
  1  2  2  0
  2  3  1  0
  3  4  1  0
  4  5  2  0
  5  6  1  0
  6  7  2  0
  7  8  1  0
  8  9  1  0
  9 10  2  0
  9 11  1  0
 11 12  2  0
 12 13  1  0
 13 14  2  0
 14 15  1  0
 14 16  1  0
 16 17  2  0
 17 18  1  0
  7 19  1  0
 19 20  2  0
  2 21  1  0
 21 22  2  0
 22 23  1  0
 23 24  2  0
 24 25  1  0
 20  4  1  0
 25 21  1  0
 17 11  1  0
  3 26  1  0
  5 27  1  0
  6 28  1  0
  8 29  1  0
 12 30  1  0
 13 31  1  0
 16 32  1  0
 19 33  1  0
 20 34  1  0
 22 35  1  0
 23 36  1  0
 24 37  1  0
M  END
$$$$
