
     RDKit          3D

 44 44  0  0  0  0  0  0  0  0999 V2000
   -1.2019   -2.5787    1.7424 C   0  0  0  0  0  0  0  0  0  0  0  0
   -2.2897   -1.8737    0.9017 C   0  0  0  0  0  0  0  0  0  0  0  0
   -3.6352   -2.3193    1.5065 C   0  0  0  0  0  0  0  0  0  0  0  0
   -2.1101   -0.3108    0.8214 C   0  0  0  0  0  0  0  0  0  0  0  0
   -2.6787    0.2803    1.9917 O   0  0  0  0  0  0  0  0  0  0  0  0
   -0.6658    0.0409    0.8261 C   0  0  0  0  0  0  0  0  0  0  0  0
    0.4971    0.3483    0.8224 C   0  0  0  0  0  0  0  0  0  0  0  0
    1.9178    0.7289    0.8280 C   0  0  0  0  0  0  0  0  0  0  0  0
    2.2833    1.4894   -0.3762 N   0  0  0  0  0  0  0  0  0  0  0  0
    3.5912    2.1445   -0.2287 C   0  0  0  0  0  0  0  0  0  0  0  0
    4.7805    1.1813   -0.2955 C   0  0  0  0  0  0  0  0  0  0  0  0
    4.7414    0.3459   -1.5718 C   0  0  0  0  0  0  0  0  0  0  0  0
    3.3820   -0.3232   -1.7452 C   0  0  0  0  0  0  0  0  0  0  0  0
    2.2405    0.6904   -1.6114 C   0  0  0  0  0  0  0  0  0  0  0  0
   -2.7310    0.3409   -0.4737 C   0  0  0  0  0  0  0  0  0  0  0  0
   -4.1712   -0.0665   -0.7967 C   0  0  0  0  0  0  0  0  0  0  0  0
   -2.6844    1.8817   -0.4322 C   0  0  0  0  0  0  0  0  0  0  0  0
   -1.4210   -3.6476    1.8477 H   0  0  0  0  0  0  0  0  0  0  0  0
   -0.2185   -2.5123    1.2660 H   0  0  0  0  0  0  0  0  0  0  0  0
   -1.1347   -2.1497    2.7490 H   0  0  0  0  0  0  0  0  0  0  0  0
   -2.2109   -2.2822   -0.1150 H   0  0  0  0  0  0  0  0  0  0  0  0
   -3.6876   -2.0893    2.5757 H   0  0  0  0  0  0  0  0  0  0  0  0
   -4.4991   -1.8585    1.0295 H   0  0  0  0  0  0  0  0  0  0  0  0
   -3.7554   -3.4024    1.3995 H   0  0  0  0  0  0  0  0  0  0  0  0
   -3.6422    0.2890    1.8850 H   0  0  0  0  0  0  0  0  0  0  0  0
    2.0775    1.3553    1.7152 H   0  0  0  0  0  0  0  0  0  0  0  0
    2.5415   -0.1629    0.9609 H   0  0  0  0  0  0  0  0  0  0  0  0
    3.6293    2.7171    0.7065 H   0  0  0  0  0  0  0  0  0  0  0  0
    3.6940    2.8901   -1.0291 H   0  0  0  0  0  0  0  0  0  0  0  0
    5.7164    1.7520   -0.2593 H   0  0  0  0  0  0  0  0  0  0  0  0
    4.7818    0.5189    0.5800 H   0  0  0  0  0  0  0  0  0  0  0  0
    5.5335   -0.4109   -1.5503 H   0  0  0  0  0  0  0  0  0  0  0  0
    4.9393    0.9928   -2.4343 H   0  0  0  0  0  0  0  0  0  0  0  0
    3.2673   -1.1234   -1.0043 H   0  0  0  0  0  0  0  0  0  0  0  0
    3.3337   -0.8003   -2.7320 H   0  0  0  0  0  0  0  0  0  0  0  0
    1.2784    0.1758   -1.7180 H   0  0  0  0  0  0  0  0  0  0  0  0
    2.2858    1.3837   -2.4627 H   0  0  0  0  0  0  0  0  0  0  0  0
   -2.1219    0.0239   -1.3335 H   0  0  0  0  0  0  0  0  0  0  0  0
   -4.2426   -1.1357   -1.0155 H   0  0  0  0  0  0  0  0  0  0  0  0
   -4.8580    0.1844    0.0181 H   0  0  0  0  0  0  0  0  0  0  0  0
   -4.5261    0.4531   -1.6950 H   0  0  0  0  0  0  0  0  0  0  0  0
   -3.3013    2.2791    0.3801 H   0  0  0  0  0  0  0  0  0  0  0  0
   -3.0599    2.3033   -1.3704 H   0  0  0  0  0  0  0  0  0  0  0  0
   -1.6650    2.2564   -0.3024 H   0  0  0  0  0  0  0  0  0  0  0  0
  1  2  1  0
  2  3  1  0
  2  4  1  0
  4  5  1  0
  4  6  1  0
  6  7  3  0
  7  8  1  0
  8  9  1  0
  9 10  1  0
 10 11  1  0
 11 12  1  0
 12 13  1  0
 13 14  1  0
  4 15  1  0
 15 16  1  0
 15 17  1  0
 14  9  1  0
  1 18  1  0
  1 19  1  0
  1 20  1  0
  2 21  1  0
  3 22  1  0
  3 23  1  0
  3 24  1  0
  5 25  1  0
  8 26  1  0
  8 27  1  0
 10 28  1  0
 10 29  1  0
 11 30  1  0
 11 31  1  0
 12 32  1  0
 12 33  1  0
 13 34  1  0
 13 35  1  0
 14 36  1  0
 14 37  1  0
 15 38  1  0
 16 39  1  0
 16 40  1  0
 16 41  1  0
 17 42  1  0
 17 43  1  0
 17 44  1  0
M  END
$$$$
