
     RDKit          3D

 53 58  0  0  0  0  0  0  0  0999 V2000
   -0.6398    1.8154    0.0333 O   0  0  0  0  0  0  0  0  0  0  0  0
   -1.1474    0.9188   -0.6477 C   0  0  0  0  0  0  0  0  0  0  0  0
   -0.2189   -0.1834   -1.2030 C   0  0  0  0  0  0  0  0  0  0  0  0
    0.9728   -0.3554   -0.3445 N   0  0  0  0  0  4  0  0  0  0  0  0
    2.3048   -0.2015   -0.7234 C   0  0  0  0  0  0  0  0  0  0  0  0
    3.1173   -0.3882    0.3893 C   0  0  0  0  0  0  0  0  0  0  0  0
    4.6903   -0.3371    0.4163 C   0  0  0  0  0  0  0  0  0  0  0  0
    5.3952   -0.6005    1.5925 C   0  0  0  0  0  0  0  0  0  0  0  0
    6.7944   -0.5554    1.5993 C   0  0  0  0  0  0  0  0  0  0  0  0
    7.5002   -0.2511    0.4328 C   0  0  0  0  0  0  0  0  0  0  0  0
    9.2214   -0.2185    0.5179 Cl  0  0  0  0  0  0  0  0  0  0  0  0
    6.7989    0.0088   -0.7475 C   0  0  0  0  0  0  0  0  0  0  0  0
    7.5914    0.3858   -2.2356 Cl  0  0  0  0  0  0  0  0  0  0  0  0
    5.3978   -0.0346   -0.7550 C   0  0  0  0  0  0  0  0  0  0  0  0
    2.2114   -0.6229    1.4082 N   0  0  0  0  0  0  0  0  0  0  0  0
    0.9567   -0.5996    0.9627 C   0  0  0  0  0  0  0  0  0  0  0  0
   -0.0457   -0.8594    2.0229 C   0  0  0  0  0  0  0  0  0  0  0  0
    0.7958   -0.7130    3.3051 C   0  0  0  0  0  0  0  0  0  0  0  0
    2.2712   -0.8650    2.8430 C   0  0  0  0  0  0  0  0  0  0  0  0
   -2.5271    0.7060   -0.8230 N   0  0  0  0  0  0  0  0  0  0  0  0
   -3.4873    1.2290    0.1209 C   0  0  0  0  0  0  0  0  0  0  0  0
   -3.2797    2.4639    0.7596 C   0  0  0  0  0  0  0  0  0  0  0  0
   -4.1957    2.9710    1.6873 C   0  0  0  0  0  0  0  0  0  0  0  0
   -5.3407    2.2532    2.0009 C   0  0  0  0  0  0  0  0  0  0  0  0
   -5.5711    1.0273    1.3846 C   0  0  0  0  0  0  0  0  0  0  0  0
   -4.6587    0.5172    0.4484 C   0  0  0  0  0  0  0  0  0  0  0  0
   -4.9947   -1.0970   -0.2210 S   0  0  0  0  0  0  0  0  0  0  0  0
   -4.1687   -0.9064   -1.7770 C   0  0  0  0  0  0  0  0  0  0  0  0
   -4.6357   -1.6514   -2.8689 C   0  0  0  0  0  0  0  0  0  0  0  0
   -4.0279   -1.5374   -4.1165 C   0  0  0  0  0  0  0  0  0  0  0  0
   -2.9581   -0.6674   -4.2837 C   0  0  0  0  0  0  0  0  0  0  0  0
   -2.4816    0.0704   -3.1967 C   0  0  0  0  0  0  0  0  0  0  0  0
   -3.0564   -0.0619   -1.9182 C   0  0  0  0  0  0  0  0  0  0  0  0
    0.1216    0.1020   -2.2015 H   0  0  0  0  0  0  0  0  0  0  0  0
   -0.7188   -1.1553   -1.2337 H   0  0  0  0  0  0  0  0  0  0  0  0
    2.5104    0.0208   -1.7573 H   0  0  0  0  0  0  0  0  0  0  0  0
    4.8980   -0.8548    2.5206 H   0  0  0  0  0  0  0  0  0  0  0  0
    7.3332   -0.7628    2.5231 H   0  0  0  0  0  0  0  0  0  0  0  0
    4.8854    0.1746   -1.6902 H   0  0  0  0  0  0  0  0  0  0  0  0
   -0.8545   -0.1329    1.9571 H   0  0  0  0  0  0  0  0  0  0  0  0
   -0.4020   -1.8802    1.8694 H   0  0  0  0  0  0  0  0  0  0  0  0
    0.6531    0.2945    3.7135 H   0  0  0  0  0  0  0  0  0  0  0  0
    0.5191   -1.4330    4.0805 H   0  0  0  0  0  0  0  0  0  0  0  0
    2.9122   -0.1318    3.3376 H   0  0  0  0  0  0  0  0  0  0  0  0
    2.6372   -1.8815    3.0138 H   0  0  0  0  0  0  0  0  0  0  0  0
   -2.4265    3.0928    0.5213 H   0  0  0  0  0  0  0  0  0  0  0  0
   -4.0157    3.9367    2.1550 H   0  0  0  0  0  0  0  0  0  0  0  0
   -6.0554    2.6469    2.7191 H   0  0  0  0  0  0  0  0  0  0  0  0
   -6.4691    0.4699    1.6439 H   0  0  0  0  0  0  0  0  0  0  0  0
   -5.4901   -2.3178   -2.7588 H   0  0  0  0  0  0  0  0  0  0  0  0
   -4.4093   -2.1062   -4.9620 H   0  0  0  0  0  0  0  0  0  0  0  0
   -2.5146   -0.5414   -5.2694 H   0  0  0  0  0  0  0  0  0  0  0  0
   -1.6988    0.8001   -3.3919 H   0  0  0  0  0  0  0  0  0  0  0  0
  1  2  2  0
  2  3  1  0
  3  4  1  0
  4  5  1  0
  5  6  2  0
  6  7  1  0
  7  8  2  0
  8  9  1  0
  9 10  2  0
 10 11  1  0
 10 12  1  0
 12 13  1  0
 12 14  2  0
  6 15  1  0
 15 16  1  0
 16 17  1  0
 17 18  1  0
 18 19  1  0
  2 20  1  0
 20 21  1  0
 21 22  2  0
 22 23  1  0
 23 24  2  0
 24 25  1  0
 25 26  2  0
 26 27  1  0
 27 28  1  0
 28 29  2  0
 29 30  1  0
 30 31  2  0
 31 32  1  0
 32 33  2  0
 16  4  2  0
 33 20  1  0
 14  7  1  0
 19 15  1  0
 26 21  1  0
 33 28  1  0
  3 34  1  0
  3 35  1  0
  5 36  1  0
  8 37  1  0
  9 38  1  0
 14 39  1  0
 17 40  1  0
 17 41  1  0
 18 42  1  0
 18 43  1  0
 19 44  1  0
 19 45  1  0
 22 46  1  0
 23 47  1  0
 24 48  1  0
 25 49  1  0
 29 50  1  0
 30 51  1  0
 31 52  1  0
 32 53  1  0
M  CHG  1   4   1
M  END
$$$$
