
     RDKit          3D

 51 55  0  0  0  0  0  0  0  0999 V2000
    8.1531   -2.2117    1.3694 F   0  0  0  0  0  0  0  0  0  0  0  0
    7.1607   -1.3557    1.0917 C   0  0  0  0  0  0  0  0  0  0  0  0
    6.1226   -1.7571    0.2609 C   0  0  0  0  0  0  0  0  0  0  0  0
    5.0886   -0.8656   -0.0284 C   0  0  0  0  0  0  0  0  0  0  0  0
    5.0935    0.4290    0.5122 C   0  0  0  0  0  0  0  0  0  0  0  0
    3.9706    1.3951    0.2081 C   0  0  0  0  0  0  0  0  0  0  0  0
    2.7229    1.1905    1.0906 C   0  0  0  0  0  0  0  0  0  0  0  0
    1.9104    0.0049    0.7552 N   0  0  0  0  0  0  0  0  0  0  0  0
    1.2920    0.1215   -0.5858 C   0  0  0  0  0  0  0  0  0  0  0  0
    0.0326   -0.7535   -0.7789 C   0  0  0  0  0  0  0  0  0  0  0  0
   -1.0187   -0.4066    0.1878 N   0  0  0  0  0  0  0  0  0  0  0  0
   -2.3435   -0.2316   -0.1992 C   0  0  0  0  0  0  0  0  0  0  0  0
   -3.0229    0.7405    0.3603 N   0  0  0  0  0  0  0  0  0  0  0  0
   -4.3548    1.0004   -0.0132 C   0  0  0  0  0  0  0  0  0  0  0  0
   -5.0222    2.0596    0.6053 C   0  0  0  0  0  0  0  0  0  0  0  0
   -6.3412    2.3696    0.2633 C   0  0  0  0  0  0  0  0  0  0  0  0
   -7.0075    1.6192   -0.7060 C   0  0  0  0  0  0  0  0  0  0  0  0
   -6.3601    0.5560   -1.3365 C   0  0  0  0  0  0  0  0  0  0  0  0
   -5.0401    0.2585   -0.9839 C   0  0  0  0  0  0  0  0  0  0  0  0
   -4.3194   -0.8020   -1.5561 N   0  0  0  0  0  0  0  0  0  0  0  0
   -4.7192   -1.7174   -2.5007 C   0  0  0  0  0  0  0  0  0  0  0  0
   -3.6941   -2.6177   -2.6886 C   0  0  0  0  0  0  0  0  0  0  0  0
   -2.6323   -2.2240   -1.8416 C   0  0  0  0  0  0  0  0  0  0  0  0
   -3.0207   -1.0720   -1.1786 C   0  0  0  0  0  0  0  0  0  0  0  0
   -0.5397    0.2332    1.4251 C   0  0  0  0  0  0  0  0  0  0  0  0
    0.8782   -0.2527    1.7873 C   0  0  0  0  0  0  0  0  0  0  0  0
    6.1500    0.8127    1.3536 C   0  0  0  0  0  0  0  0  0  0  0  0
    7.1839   -0.0799    1.6411 C   0  0  0  0  0  0  0  0  0  0  0  0
    6.1209   -2.7603   -0.1522 H   0  0  0  0  0  0  0  0  0  0  0  0
    4.2722   -1.1887   -0.6697 H   0  0  0  0  0  0  0  0  0  0  0  0
    3.7249    1.3499   -0.8594 H   0  0  0  0  0  0  0  0  0  0  0  0
    4.3378    2.4175    0.3694 H   0  0  0  0  0  0  0  0  0  0  0  0
    3.0635    1.1141    2.1318 H   0  0  0  0  0  0  0  0  0  0  0  0
    2.0984    2.0919    1.0329 H   0  0  0  0  0  0  0  0  0  0  0  0
    1.0068    1.1634   -0.7862 H   0  0  0  0  0  0  0  0  0  0  0  0
    2.0288   -0.1649   -1.3442 H   0  0  0  0  0  0  0  0  0  0  0  0
   -0.3162   -0.6047   -1.8070 H   0  0  0  0  0  0  0  0  0  0  0  0
    0.2944   -1.8115   -0.6613 H   0  0  0  0  0  0  0  0  0  0  0  0
   -4.5049    2.6469    1.3592 H   0  0  0  0  0  0  0  0  0  0  0  0
   -6.8464    3.1973    0.7545 H   0  0  0  0  0  0  0  0  0  0  0  0
   -8.0341    1.8631   -0.9685 H   0  0  0  0  0  0  0  0  0  0  0  0
   -6.9000   -0.0151   -2.0843 H   0  0  0  0  0  0  0  0  0  0  0  0
   -5.6995   -1.6792   -2.9529 H   0  0  0  0  0  0  0  0  0  0  0  0
   -3.7156   -3.4718   -3.3533 H   0  0  0  0  0  0  0  0  0  0  0  0
   -1.6867   -2.7356   -1.7295 H   0  0  0  0  0  0  0  0  0  0  0  0
   -0.5394    1.3242    1.3095 H   0  0  0  0  0  0  0  0  0  0  0  0
   -1.2147   -0.0186    2.2518 H   0  0  0  0  0  0  0  0  0  0  0  0
    0.8399   -1.3406    1.9317 H   0  0  0  0  0  0  0  0  0  0  0  0
    1.1695    0.1606    2.7606 H   0  0  0  0  0  0  0  0  0  0  0  0
    6.1738    1.8084    1.7904 H   0  0  0  0  0  0  0  0  0  0  0  0
    8.0038    0.2105    2.2897 H   0  0  0  0  0  0  0  0  0  0  0  0
  1  2  1  0
  2  3  2  0
  3  4  1  0
  4  5  2  0
  5  6  1  0
  6  7  1  0
  7  8  1  0
  8  9  1  0
  9 10  1  0
 10 11  1  0
 11 12  1  0
 12 13  2  0
 13 14  1  0
 14 15  2  0
 15 16  1  0
 16 17  2  0
 17 18  1  0
 18 19  2  0
 19 20  1  0
 20 21  1  0
 21 22  2  0
 22 23  1  0
 23 24  2  0
 11 25  1  0
 25 26  1  0
  5 27  1  0
 27 28  2  0
 28  2  1  0
 26  8  1  0
 24 12  1  0
 19 14  1  0
 24 20  1  0
  3 29  1  0
  4 30  1  0
  6 31  1  0
  6 32  1  0
  7 33  1  0
  7 34  1  0
  9 35  1  0
  9 36  1  0
 10 37  1  0
 10 38  1  0
 15 39  1  0
 16 40  1  0
 17 41  1  0
 18 42  1  0
 21 43  1  0
 22 44  1  0
 23 45  1  0
 25 46  1  0
 25 47  1  0
 26 48  1  0
 26 49  1  0
 27 50  1  0
 28 51  1  0
M  END
$$$$
