
     RDKit          3D

 37 39  0  0  0  0  0  0  0  0999 V2000
   -0.8561   -1.7767    2.3539 C   0  0  0  0  0  0  0  0  0  0  0  0
   -1.0589   -0.7802    1.3193 N   0  0  0  0  0  0  0  0  0  0  0  0
   -0.1104   -0.2203    0.4413 C   0  0  0  0  0  0  0  0  0  0  0  0
    1.2229   -0.4140    0.5271 C   0  0  0  0  0  0  0  0  0  0  0  0
    2.2683    0.1348   -0.3149 C   0  0  0  0  0  0  0  0  0  0  0  0
    3.5822   -0.1132   -0.2165 C   0  0  0  0  0  0  0  0  0  0  0  0
    4.4049   -1.1389    0.9030 S   0  0  0  0  0  0  0  0  0  0  0  0
    5.9712   -0.7760    0.2155 C   0  0  0  0  0  0  0  0  0  0  0  0
    7.4299   -1.3761    0.7171 S   0  0  0  0  0  0  0  0  0  0  0  0
    5.8285    0.0937   -0.8212 N   0  0  0  0  0  0  0  0  0  0  0  0
    4.5682    0.5158   -1.1386 C   0  0  0  0  0  0  0  0  0  0  0  0
    4.3026    1.2905   -2.0430 O   0  0  0  0  0  0  0  0  0  0  0  0
   -0.8834    0.6340   -0.6230 C   0  0  0  0  0  0  0  0  0  0  0  0
   -0.5878    2.1354   -0.4974 C   0  0  0  0  0  0  0  0  0  0  0  0
   -0.6792    0.1271   -2.0594 C   0  0  0  0  0  0  0  0  0  0  0  0
   -2.3330    0.3774   -0.2158 C   0  0  0  0  0  0  0  0  0  0  0  0
   -3.5039    0.8429   -0.8045 C   0  0  0  0  0  0  0  0  0  0  0  0
   -4.7238    0.4484   -0.2571 C   0  0  0  0  0  0  0  0  0  0  0  0
   -4.7585   -0.3982    0.8586 C   0  0  0  0  0  0  0  0  0  0  0  0
   -3.5734   -0.8584    1.4440 C   0  0  0  0  0  0  0  0  0  0  0  0
   -2.3580   -0.4650    0.9060 C   0  0  0  0  0  0  0  0  0  0  0  0
   -1.5200   -1.6090    3.2091 H   0  0  0  0  0  0  0  0  0  0  0  0
   -1.0371   -2.7821    1.9589 H   0  0  0  0  0  0  0  0  0  0  0  0
    0.1598   -1.7497    2.7587 H   0  0  0  0  0  0  0  0  0  0  0  0
    1.5809   -1.0524    1.3299 H   0  0  0  0  0  0  0  0  0  0  0  0
    1.9592    0.8212   -1.0971 H   0  0  0  0  0  0  0  0  0  0  0  0
    6.6209    0.4250   -1.3499 H   0  0  0  0  0  0  0  0  0  0  0  0
    0.4412    2.3793   -0.7753 H   0  0  0  0  0  0  0  0  0  0  0  0
   -0.7447    2.4913    0.5283 H   0  0  0  0  0  0  0  0  0  0  0  0
   -1.2420    2.7268   -1.1489 H   0  0  0  0  0  0  0  0  0  0  0  0
   -1.3514    0.6341   -2.7617 H   0  0  0  0  0  0  0  0  0  0  0  0
   -0.8807   -0.9484   -2.1372 H   0  0  0  0  0  0  0  0  0  0  0  0
    0.3373    0.2981   -2.4225 H   0  0  0  0  0  0  0  0  0  0  0  0
   -3.4767    1.4950   -1.6712 H   0  0  0  0  0  0  0  0  0  0  0  0
   -5.6538    0.7974   -0.6987 H   0  0  0  0  0  0  0  0  0  0  0  0
   -5.7166   -0.6994    1.2751 H   0  0  0  0  0  0  0  0  0  0  0  0
   -3.6279   -1.5100    2.3081 H   0  0  0  0  0  0  0  0  0  0  0  0
  1  2  1  0
  2  3  1  0
  3  4  2  3
  4  5  1  0
  5  6  2  3
  6  7  1  0
  7  8  1  0
  8  9  2  0
  8 10  1  0
 10 11  1  0
 11 12  2  0
  3 13  1  0
 13 14  1  0
 13 15  1  0
 13 16  1  0
 16 17  2  0
 17 18  1  0
 18 19  2  0
 19 20  1  0
 20 21  2  0
 21  2  1  0
 11  6  1  0
 21 16  1  0
  1 22  1  0
  1 23  1  0
  1 24  1  0
  4 25  1  0
  5 26  1  0
 10 27  1  0
 14 28  1  0
 14 29  1  0
 14 30  1  0
 15 31  1  0
 15 32  1  0
 15 33  1  0
 17 34  1  0
 18 35  1  0
 19 36  1  0
 20 37  1  0
M  END
$$$$
