
     RDKit          3D

 38 40  0  0  0  0  0  0  0  0999 V2000
    0.8696    2.3471    0.3951 O   0  0  0  0  0  0  0  0  0  0  0  0
    0.5175    1.2828   -0.1078 C   0  0  0  0  0  0  0  0  0  0  0  0
    1.3843    0.5001   -0.8259 N   0  0  0  0  0  0  0  0  0  0  0  0
    2.7757    0.8709   -0.9707 C   0  0  0  0  0  0  0  0  0  0  0  0
    3.6338    0.1622    0.0486 C   0  0  0  0  0  0  0  0  0  0  0  0
    3.7311    0.6585    1.3576 C   0  0  0  0  0  0  0  0  0  0  0  0
    4.5038   -0.0049    2.3130 C   0  0  0  0  0  0  0  0  0  0  0  0
    5.1801   -1.1716    1.9653 C   0  0  0  0  0  0  0  0  0  0  0  0
    6.1314   -1.9921    3.1411 Cl  0  0  0  0  0  0  0  0  0  0  0  0
    5.0884   -1.6815    0.6717 C   0  0  0  0  0  0  0  0  0  0  0  0
    4.3145   -1.0184   -0.2840 C   0  0  0  0  0  0  0  0  0  0  0  0
   -0.7750    0.7990   -0.0109 N   0  0  0  0  0  0  0  0  0  0  0  0
   -1.6988    1.4612    0.9063 C   0  0  0  0  0  0  0  0  0  0  0  0
   -3.0462    1.7224    0.2403 C   0  0  0  0  0  0  0  0  0  0  0  0
   -3.6099    0.4545   -0.3462 C   0  0  0  0  0  0  0  0  0  0  0  0
   -4.9921    0.3153   -0.5289 C   0  0  0  0  0  0  0  0  0  0  0  0
   -5.5145   -0.8492   -1.0899 C   0  0  0  0  0  0  0  0  0  0  0  0
   -4.6609   -1.8776   -1.4807 C   0  0  0  0  0  0  0  0  0  0  0  0
   -3.2822   -1.7407   -1.3165 C   0  0  0  0  0  0  0  0  0  0  0  0
   -2.7417   -0.5734   -0.7547 C   0  0  0  0  0  0  0  0  0  0  0  0
   -1.2416   -0.4525   -0.6058 C   0  0  0  0  0  0  0  0  0  0  0  0
    1.2090   -0.4899   -0.8095 H   0  0  0  0  0  0  0  0  0  0  0  0
    2.9066    1.9561   -0.8936 H   0  0  0  0  0  0  0  0  0  0  0  0
    3.0791    0.5818   -1.9831 H   0  0  0  0  0  0  0  0  0  0  0  0
    3.1973    1.5666    1.6375 H   0  0  0  0  0  0  0  0  0  0  0  0
    4.5698    0.3931    3.3219 H   0  0  0  0  0  0  0  0  0  0  0  0
    5.6157   -2.5927    0.4020 H   0  0  0  0  0  0  0  0  0  0  0  0
    4.2498   -1.4278   -1.2899 H   0  0  0  0  0  0  0  0  0  0  0  0
   -1.8161    0.8014    1.7756 H   0  0  0  0  0  0  0  0  0  0  0  0
   -1.2885    2.4067    1.2752 H   0  0  0  0  0  0  0  0  0  0  0  0
   -2.9313    2.4556   -0.5672 H   0  0  0  0  0  0  0  0  0  0  0  0
   -3.7368    2.1383    0.9829 H   0  0  0  0  0  0  0  0  0  0  0  0
   -5.6687    1.1142   -0.2337 H   0  0  0  0  0  0  0  0  0  0  0  0
   -6.5880   -0.9525   -1.2245 H   0  0  0  0  0  0  0  0  0  0  0  0
   -5.0693   -2.7846   -1.9189 H   0  0  0  0  0  0  0  0  0  0  0  0
   -2.6293   -2.5504   -1.6349 H   0  0  0  0  0  0  0  0  0  0  0  0
   -0.7859   -0.5653   -1.5961 H   0  0  0  0  0  0  0  0  0  0  0  0
   -0.8808   -1.2627    0.0394 H   0  0  0  0  0  0  0  0  0  0  0  0
  1  2  2  0
  2  3  1  0
  3  4  1  0
  4  5  1  0
  5  6  2  0
  6  7  1  0
  7  8  2  0
  8  9  1  0
  8 10  1  0
 10 11  2  0
  2 12  1  0
 12 13  1  0
 13 14  1  0
 14 15  1  0
 15 16  2  0
 16 17  1  0
 17 18  2  0
 18 19  1  0
 19 20  2  0
 20 21  1  0
 11  5  1  0
 21 12  1  0
 20 15  1  0
  3 22  1  0
  4 23  1  0
  4 24  1  0
  6 25  1  0
  7 26  1  0
 10 27  1  0
 11 28  1  0
 13 29  1  0
 13 30  1  0
 14 31  1  0
 14 32  1  0
 16 33  1  0
 17 34  1  0
 18 35  1  0
 19 36  1  0
 21 37  1  0
 21 38  1  0
M  END
$$$$
