
     RDKit          3D

 67 72  0  0  0  0  0  0  0  0999 V2000
    2.7172   -2.6952    0.6540 O   0  0  0  0  0  0  0  0  0  0  0  0
    2.3565   -1.5674    0.3092 C   0  0  0  0  0  0  0  0  0  0  0  0
    3.2967   -0.3448    0.4081 C   0  0  0  0  0  0  0  0  0  0  0  0
    4.7624   -0.8087    0.4911 C   0  0  0  0  0  0  0  0  0  0  0  0
    5.7319    0.3252    0.7450 C   0  0  0  0  0  0  0  0  0  0  0  0
    6.4928    0.8557   -0.3058 C   0  0  0  0  0  0  0  0  0  0  0  0
    7.3722    1.9144   -0.0766 C   0  0  0  0  0  0  0  0  0  0  0  0
    7.4984    2.4525    1.2024 C   0  0  0  0  0  0  0  0  0  0  0  0
    6.7470    1.9319    2.2543 C   0  0  0  0  0  0  0  0  0  0  0  0
    5.8673    0.8725    2.0281 C   0  0  0  0  0  0  0  0  0  0  0  0
    3.1027    0.5244   -0.7555 N   0  0  0  0  0  0  0  0  0  0  0  0
    1.7682    0.9192   -0.8961 C   0  0  0  0  0  0  0  0  0  0  0  0
    1.5928    2.1519   -1.3885 N   0  0  0  0  0  0  0  0  0  0  0  0
    0.3279    2.5214   -1.5853 C   0  0  0  0  0  0  0  0  0  0  0  0
   -0.7592    1.8011   -1.2876 N   0  0  0  0  0  0  0  0  0  0  0  0
   -0.5675    0.5724   -0.7589 C   0  0  0  0  0  0  0  0  0  0  0  0
   -1.7170   -0.0927   -0.2683 N   0  0  0  0  0  0  0  0  0  0  0  0
   -1.8003    0.0954    1.2095 C   0  0  0  0  0  0  0  0  0  0  0  0
   -3.2415   -0.0789    1.7417 C   0  0  0  0  0  0  0  0  0  0  0  0
   -4.1535    0.8980    1.1229 N   0  0  0  0  0  0  0  0  0  0  0  0
   -5.3470    1.2674    1.7197 C   0  0  0  0  0  0  0  0  0  0  0  0
   -5.9426    0.4988    2.7328 C   0  0  0  0  0  0  0  0  0  0  0  0
   -7.1515    0.8719    3.3348 C   0  0  0  0  0  0  0  0  0  0  0  0
   -7.7965    2.0374    2.9410 C   0  0  0  0  0  0  0  0  0  0  0  0
   -7.2303    2.8253    1.9476 C   0  0  0  0  0  0  0  0  0  0  0  0
   -6.0237    2.4414    1.3491 C   0  0  0  0  0  0  0  0  0  0  0  0
   -3.8067    1.3446   -0.2426 C   0  0  0  0  0  0  0  0  0  0  0  0
   -2.9695    0.2764   -0.9806 C   0  0  0  0  0  0  0  0  0  0  0  0
    0.7211    0.0412   -0.5848 C   0  0  0  0  0  0  0  0  0  0  0  0
    1.0472   -1.2842   -0.1138 N   0  0  0  0  0  0  0  0  0  0  0  0
    0.1708   -2.4224   -0.3871 C   0  0  0  0  0  0  0  0  0  0  0  0
    0.2831   -2.9134   -1.8183 C   0  0  0  0  0  0  0  0  0  0  0  0
   -0.6202   -2.4779   -2.7987 C   0  0  0  0  0  0  0  0  0  0  0  0
   -0.5021   -2.9148   -4.1202 C   0  0  0  0  0  0  0  0  0  0  0  0
    0.5220   -3.7910   -4.4708 C   0  0  0  0  0  0  0  0  0  0  0  0
    0.6669   -4.3292   -6.0986 Cl  0  0  0  0  0  0  0  0  0  0  0  0
    1.4288   -4.2339   -3.5112 C   0  0  0  0  0  0  0  0  0  0  0  0
    1.3105   -3.7953   -2.1903 C   0  0  0  0  0  0  0  0  0  0  0  0
    3.0328    0.1951    1.3289 H   0  0  0  0  0  0  0  0  0  0  0  0
    5.0439   -1.3343   -0.4322 H   0  0  0  0  0  0  0  0  0  0  0  0
    4.8871   -1.5450    1.2969 H   0  0  0  0  0  0  0  0  0  0  0  0
    6.4031    0.4480   -1.3110 H   0  0  0  0  0  0  0  0  0  0  0  0
    7.9601    2.3190   -0.8964 H   0  0  0  0  0  0  0  0  0  0  0  0
    8.1845    3.2765    1.3803 H   0  0  0  0  0  0  0  0  0  0  0  0
    6.8481    2.3508    3.2520 H   0  0  0  0  0  0  0  0  0  0  0  0
    5.2929    0.4755    2.8617 H   0  0  0  0  0  0  0  0  0  0  0  0
    3.6889    1.3548   -0.8011 H   0  0  0  0  0  0  0  0  0  0  0  0
    0.1638    3.5026   -2.0151 H   0  0  0  0  0  0  0  0  0  0  0  0
   -1.1512   -0.6339    1.7075 H   0  0  0  0  0  0  0  0  0  0  0  0
   -1.4524    1.0989    1.4947 H   0  0  0  0  0  0  0  0  0  0  0  0
   -3.2094    0.0578    2.8295 H   0  0  0  0  0  0  0  0  0  0  0  0
   -3.5962   -1.0955    1.5315 H   0  0  0  0  0  0  0  0  0  0  0  0
   -5.4876   -0.4309    3.0611 H   0  0  0  0  0  0  0  0  0  0  0  0
   -7.5859    0.2446    4.1082 H   0  0  0  0  0  0  0  0  0  0  0  0
   -8.7335    2.3302    3.4066 H   0  0  0  0  0  0  0  0  0  0  0  0
   -7.7197    3.7439    1.6356 H   0  0  0  0  0  0  0  0  0  0  0  0
   -5.6059    3.1019    0.5940 H   0  0  0  0  0  0  0  0  0  0  0  0
   -3.2572    2.2907   -0.1801 H   0  0  0  0  0  0  0  0  0  0  0  0
   -4.7108    1.5143   -0.8401 H   0  0  0  0  0  0  0  0  0  0  0  0
   -2.7839    0.5803   -2.0187 H   0  0  0  0  0  0  0  0  0  0  0  0
   -3.5696   -0.6408   -1.0521 H   0  0  0  0  0  0  0  0  0  0  0  0
   -0.8689   -2.2252   -0.1300 H   0  0  0  0  0  0  0  0  0  0  0  0
    0.4433   -3.2533    0.2773 H   0  0  0  0  0  0  0  0  0  0  0  0
   -1.4222   -1.7908   -2.5405 H   0  0  0  0  0  0  0  0  0  0  0  0
   -1.2085   -2.5647   -4.8681 H   0  0  0  0  0  0  0  0  0  0  0  0
    2.2302   -4.9161   -3.7813 H   0  0  0  0  0  0  0  0  0  0  0  0
    2.0290   -4.1448   -1.4502 H   0  0  0  0  0  0  0  0  0  0  0  0
  1  2  2  0
  2  3  1  0
  3  4  1  0
  4  5  1  0
  5  6  2  0
  6  7  1  0
  7  8  2  0
  8  9  1  0
  9 10  2  0
  3 11  1  0
 11 12  1  0
 12 13  2  0
 13 14  1  0
 14 15  2  0
 15 16  1  0
 16 17  1  0
 17 18  1  0
 18 19  1  0
 19 20  1  0
 20 21  1  0
 21 22  2  0
 22 23  1  0
 23 24  2  0
 24 25  1  0
 25 26  2  0
 20 27  1  0
 27 28  1  0
 16 29  2  0
 29 30  1  0
 30 31  1  0
 31 32  1  0
 32 33  2  0
 33 34  1  0
 34 35  2  0
 35 36  1  0
 35 37  1  0
 37 38  2  0
 30  2  1  0
 38 32  1  0
 10  5  1  0
 29 12  1  0
 28 17  1  0
 26 21  1  0
  3 39  1  0
  4 40  1  0
  4 41  1  0
  6 42  1  0
  7 43  1  0
  8 44  1  0
  9 45  1  0
 10 46  1  0
 11 47  1  0
 14 48  1  0
 18 49  1  0
 18 50  1  0
 19 51  1  0
 19 52  1  0
 22 53  1  0
 23 54  1  0
 24 55  1  0
 25 56  1  0
 26 57  1  0
 27 58  1  0
 27 59  1  0
 28 60  1  0
 28 61  1  0
 31 62  1  0
 31 63  1  0
 33 64  1  0
 34 65  1  0
 37 66  1  0
 38 67  1  0
M  END
$$$$
