
     RDKit          3D

 51 54  0  0  0  0  0  0  0  0999 V2000
   -3.5951   -4.3710    2.2285 C   0  0  0  0  0  0  0  0  0  0  0  0
   -2.2451   -4.3908    1.7858 O   0  0  0  0  0  0  0  0  0  0  0  0
   -1.7201   -3.2144    1.3245 C   0  0  0  0  0  0  0  0  0  0  0  0
   -2.3399   -1.9716    1.4080 C   0  0  0  0  0  0  0  0  0  0  0  0
   -1.7126   -0.8260    0.8817 C   0  0  0  0  0  0  0  0  0  0  0  0
   -2.3854    0.4764    1.0101 C   0  0  0  0  0  0  0  0  0  0  0  0
   -3.4609    0.5317    1.6014 O   0  0  0  0  0  0  0  0  0  0  0  0
   -1.7360    1.5729    0.4693 N   0  0  0  0  0  0  0  0  0  0  0  0
   -2.3994    2.8647    0.5699 C   0  0  0  0  0  0  0  0  0  0  0  0
   -3.1331    3.1493   -0.6952 C   0  0  0  0  0  0  0  0  0  0  0  0
   -2.7839    3.7881   -1.8676 C   0  0  0  0  0  0  0  0  0  0  0  0
   -3.9236    3.7380   -2.7044 C   0  0  0  0  0  0  0  0  0  0  0  0
   -4.8936    3.0742   -1.9920 C   0  0  0  0  0  0  0  0  0  0  0  0
   -4.4231    2.7131   -0.7719 O   0  0  0  0  0  0  0  0  0  0  0  0
   -0.4974    1.5341   -0.1475 C   0  0  0  0  0  0  0  0  0  0  0  0
    0.0580    2.5568   -0.5588 O   0  0  0  0  0  0  0  0  0  0  0  0
    0.1012    0.2861   -0.2921 N   0  0  0  0  0  0  0  0  0  0  0  0
    1.4076    0.2611   -0.9560 C   0  0  0  0  0  0  0  0  0  0  0  0
    2.5430    0.4470    0.0499 C   0  0  0  0  0  0  0  0  0  0  0  0
    2.4348    0.1380    1.2365 O   0  0  0  0  0  0  0  0  0  0  0  0
    3.8499    0.9804   -0.4344 C   0  0  0  0  0  0  0  0  0  0  0  0
    4.7796    1.4183    0.5210 C   0  0  0  0  0  0  0  0  0  0  0  0
    6.0223    1.9144    0.1261 C   0  0  0  0  0  0  0  0  0  0  0  0
    6.3486    1.9732   -1.2268 C   0  0  0  0  0  0  0  0  0  0  0  0
    5.4292    1.5341   -2.1771 C   0  0  0  0  0  0  0  0  0  0  0  0
    5.8788    1.6065   -4.0129 Br  0  0  0  0  0  0  0  0  0  0  0  0
    4.1826    1.0364   -1.7924 C   0  0  0  0  0  0  0  0  0  0  0  0
   -0.4709   -0.8956    0.2522 C   0  0  0  0  0  0  0  0  0  0  0  0
    0.1598   -2.1444    0.1920 C   0  0  0  0  0  0  0  0  0  0  0  0
   -0.4512   -3.2795    0.7387 C   0  0  0  0  0  0  0  0  0  0  0  0
    0.2076   -4.4769    0.6070 O   0  0  0  0  0  0  0  0  0  0  0  0
    0.9083   -4.7916    1.8099 C   0  0  0  0  0  0  0  0  0  0  0  0
   -4.2659   -4.0209    1.4391 H   0  0  0  0  0  0  0  0  0  0  0  0
   -3.8811   -5.3975    2.4778 H   0  0  0  0  0  0  0  0  0  0  0  0
   -3.7010   -3.7676    3.1340 H   0  0  0  0  0  0  0  0  0  0  0  0
   -3.3115   -1.8583    1.8792 H   0  0  0  0  0  0  0  0  0  0  0  0
   -3.0921    2.8829    1.4174 H   0  0  0  0  0  0  0  0  0  0  0  0
   -1.6579    3.6508    0.7505 H   0  0  0  0  0  0  0  0  0  0  0  0
   -1.8206    4.2290   -2.0851 H   0  0  0  0  0  0  0  0  0  0  0  0
   -4.0272    4.1352   -3.7035 H   0  0  0  0  0  0  0  0  0  0  0  0
   -5.9160    2.7912   -2.1995 H   0  0  0  0  0  0  0  0  0  0  0  0
    1.5493   -0.6661   -1.5184 H   0  0  0  0  0  0  0  0  0  0  0  0
    1.4363    1.0756   -1.6869 H   0  0  0  0  0  0  0  0  0  0  0  0
    4.5381    1.3766    1.5820 H   0  0  0  0  0  0  0  0  0  0  0  0
    6.7344    2.2517    0.8754 H   0  0  0  0  0  0  0  0  0  0  0  0
    7.3204    2.3573   -1.5271 H   0  0  0  0  0  0  0  0  0  0  0  0
    3.4989    0.6907   -2.5608 H   0  0  0  0  0  0  0  0  0  0  0  0
    1.1374   -2.2818   -0.2549 H   0  0  0  0  0  0  0  0  0  0  0  0
    1.2136   -5.8407    1.7562 H   0  0  0  0  0  0  0  0  0  0  0  0
    0.2916   -4.6633    2.7060 H   0  0  0  0  0  0  0  0  0  0  0  0
    1.8131   -4.1775    1.8882 H   0  0  0  0  0  0  0  0  0  0  0  0
  1  2  1  0
  2  3  1  0
  3  4  2  0
  4  5  1  0
  5  6  1  0
  6  7  2  0
  6  8  1  0
  8  9  1  0
  9 10  1  0
 10 11  2  0
 11 12  1  0
 12 13  2  0
 13 14  1  0
  8 15  1  0
 15 16  2  0
 15 17  1  0
 17 18  1  0
 18 19  1  0
 19 20  2  0
 19 21  1  0
 21 22  2  0
 22 23  1  0
 23 24  2  0
 24 25  1  0
 25 26  1  0
 25 27  2  0
 17 28  1  0
 28 29  1  0
 29 30  2  0
 30 31  1  0
 31 32  1  0
 30  3  1  0
 28  5  2  0
 14 10  1  0
 27 21  1  0
  1 33  1  0
  1 34  1  0
  1 35  1  0
  4 36  1  0
  9 37  1  0
  9 38  1  0
 11 39  1  0
 12 40  1  0
 13 41  1  0
 18 42  1  0
 18 43  1  0
 22 44  1  0
 23 45  1  0
 24 46  1  0
 27 47  1  0
 29 48  1  0
 32 49  1  0
 32 50  1  0
 32 51  1  0
M  END
$$$$
