
     RDKit          3D

 57 61  0  0  0  0  0  0  0  0999 V2000
    4.6741    2.3373    0.4328 C   0  0  0  0  0  0  0  0  0  0  0  0
    4.9220    0.9436    1.0068 C   0  0  0  0  0  0  0  0  0  0  0  0
    6.4298    0.7077    1.1397 C   0  0  0  0  0  0  0  0  0  0  0  0
    4.2833   -0.1298    0.1182 C   0  0  0  0  0  0  0  0  0  0  0  0
    4.9861   -0.8637   -0.5818 O   0  0  0  0  0  0  0  0  0  0  0  0
    2.8948   -0.2383    0.0915 N   0  0  0  0  0  0  0  0  0  0  0  0
    2.3255   -1.2217   -0.8257 C   0  0  0  0  0  0  0  0  0  0  0  0
    0.8308   -1.0134   -1.0421 C   0  0  0  0  0  0  0  0  0  0  0  0
    0.0519   -1.1401    0.2914 C   0  0  0  0  0  0  0  0  0  0  0  0
    0.8316   -0.4364    1.4455 C   0  0  0  0  0  0  0  0  0  0  0  0
    1.9625    0.4698    0.9641 C   0  0  0  0  0  0  0  0  0  0  0  0
    0.0660   -2.5430    0.6857 O   0  0  0  0  0  0  0  0  0  0  0  0
   -0.8512   -3.3786    0.1199 C   0  0  0  0  0  0  0  0  0  0  0  0
   -0.6432   -4.7441    0.3215 C   0  0  0  0  0  0  0  0  0  0  0  0
   -1.5173   -5.6744   -0.2438 C   0  0  0  0  0  0  0  0  0  0  0  0
   -2.5946   -5.2321   -1.0054 C   0  0  0  0  0  0  0  0  0  0  0  0
   -3.4271   -6.1282   -1.5499 F   0  0  0  0  0  0  0  0  0  0  0  0
   -2.8210   -3.8771   -1.2066 C   0  0  0  0  0  0  0  0  0  0  0  0
   -1.9470   -2.9545   -0.6274 C   0  0  0  0  0  0  0  0  0  0  0  0
   -2.1617   -1.5120   -0.7980 C   0  0  0  0  0  0  0  0  0  0  0  0
   -2.9007   -1.1022   -1.6889 O   0  0  0  0  0  0  0  0  0  0  0  0
   -1.4068   -0.6130    0.1735 C   0  0  0  0  0  0  0  0  0  0  0  0
   -1.5392    0.8531   -0.2092 C   0  0  0  0  0  0  0  0  0  0  0  0
   -2.7169    1.2033    0.6365 C   0  0  0  0  0  0  0  0  0  0  0  0
   -3.4846    2.4563    0.4443 C   0  0  0  0  0  0  0  0  0  0  0  0
   -3.1030    3.4139   -0.5031 C   0  0  0  0  0  0  0  0  0  0  0  0
   -3.8502    4.5874   -0.6529 C   0  0  0  0  0  0  0  0  0  0  0  0
   -4.9746    4.8044    0.1423 C   0  0  0  0  0  0  0  0  0  0  0  0
   -5.8874    6.2498   -0.0456 Cl  0  0  0  0  0  0  0  0  0  0  0  0
   -5.3610    3.8581    1.0881 C   0  0  0  0  0  0  0  0  0  0  0  0
   -4.6163    2.6851    1.2394 C   0  0  0  0  0  0  0  0  0  0  0  0
   -2.9846    0.3468    1.5703 N   0  0  0  0  0  0  0  0  0  0  0  0
   -2.0680   -0.7201    1.4466 O   0  0  0  0  0  0  0  0  0  0  0  0
    3.6090    2.5779    0.3830 H   0  0  0  0  0  0  0  0  0  0  0  0
    5.1564    3.1035    1.0490 H   0  0  0  0  0  0  0  0  0  0  0  0
    5.0721    2.4193   -0.5850 H   0  0  0  0  0  0  0  0  0  0  0  0
    4.5051    0.8677    2.0156 H   0  0  0  0  0  0  0  0  0  0  0  0
    6.8787    1.4378    1.8215 H   0  0  0  0  0  0  0  0  0  0  0  0
    6.6331   -0.2927    1.5373 H   0  0  0  0  0  0  0  0  0  0  0  0
    6.9374    0.7909    0.1722 H   0  0  0  0  0  0  0  0  0  0  0  0
    2.5274   -2.2175   -0.4131 H   0  0  0  0  0  0  0  0  0  0  0  0
    2.8473   -1.1560   -1.7877 H   0  0  0  0  0  0  0  0  0  0  0  0
    0.4874   -1.7540   -1.7730 H   0  0  0  0  0  0  0  0  0  0  0  0
    0.6737   -0.0247   -1.4897 H   0  0  0  0  0  0  0  0  0  0  0  0
    1.2681   -1.1914    2.1142 H   0  0  0  0  0  0  0  0  0  0  0  0
    0.1620    0.1580    2.0771 H   0  0  0  0  0  0  0  0  0  0  0  0
    1.5629    1.3122    0.3897 H   0  0  0  0  0  0  0  0  0  0  0  0
    2.4712    0.8883    1.8337 H   0  0  0  0  0  0  0  0  0  0  0  0
    0.2034   -5.0852    0.9128 H   0  0  0  0  0  0  0  0  0  0  0  0
   -1.3640   -6.7394   -0.0973 H   0  0  0  0  0  0  0  0  0  0  0  0
   -3.6732   -3.5541   -1.7972 H   0  0  0  0  0  0  0  0  0  0  0  0
   -0.6994    1.4658    0.1269 H   0  0  0  0  0  0  0  0  0  0  0  0
   -1.7108    1.0239   -1.2741 H   0  0  0  0  0  0  0  0  0  0  0  0
   -2.2323    3.2748   -1.1367 H   0  0  0  0  0  0  0  0  0  0  0  0
   -3.5513    5.3270   -1.3918 H   0  0  0  0  0  0  0  0  0  0  0  0
   -6.2377    4.0230    1.7092 H   0  0  0  0  0  0  0  0  0  0  0  0
   -4.9286    1.9508    1.9804 H   0  0  0  0  0  0  0  0  0  0  0  0
  1  2  1  0
  2  3  1  0
  2  4  1  0
  4  5  2  0
  4  6  1  0
  6  7  1  0
  7  8  1  0
  8  9  1  0
  9 10  1  0
 10 11  1  0
  9 12  1  0
 12 13  1  0
 13 14  2  0
 14 15  1  0
 15 16  2  0
 16 17  1  0
 16 18  1  0
 18 19  2  0
 19 20  1  0
 20 21  2  0
 20 22  1  0
 22 23  1  0
 23 24  1  0
 24 25  1  0
 25 26  2  0
 26 27  1  0
 27 28  2  0
 28 29  1  0
 28 30  1  0
 30 31  2  0
 24 32  2  0
 32 33  1  0
 11  6  1  0
 19 13  1  0
 33 22  1  0
 22  9  1  0
 31 25  1  0
  1 34  1  0
  1 35  1  0
  1 36  1  0
  2 37  1  0
  3 38  1  0
  3 39  1  0
  3 40  1  0
  7 41  1  0
  7 42  1  0
  8 43  1  0
  8 44  1  0
 10 45  1  0
 10 46  1  0
 11 47  1  0
 11 48  1  0
 14 49  1  0
 15 50  1  0
 18 51  1  0
 23 52  1  0
 23 53  1  0
 26 54  1  0
 27 55  1  0
 30 56  1  0
 31 57  1  0
M  END
$$$$
