
     RDKit          3D

 71 72  0  0  0  0  0  0  0  0999 V2000
   -6.2761    0.5517   -1.3089 C   0  0  0  0  0  0  0  0  0  0  0  0
   -5.2100    0.6550   -0.3739 O   0  0  0  0  0  0  0  0  0  0  0  0
   -3.9477    0.3207   -0.7927 C   0  0  0  0  0  0  0  0  0  0  0  0
   -3.6739   -0.2036   -2.0600 C   0  0  0  0  0  0  0  0  0  0  0  0
   -2.3821   -0.5911   -2.3989 C   0  0  0  0  0  0  0  0  0  0  0  0
   -1.3563   -0.4756   -1.4668 C   0  0  0  0  0  0  0  0  0  0  0  0
   -1.5870    0.0501   -0.1753 C   0  0  0  0  0  0  0  0  0  0  0  0
   -0.3723    0.0996    0.7593 C   0  0  0  0  0  0  0  0  0  0  0  0
   -0.5545    0.0893    2.3072 C   0  0  0  0  0  0  0  0  0  0  0  0
    0.1806    0.7307    3.0580 O   0  0  0  0  0  0  0  0  0  0  0  0
   -1.4847   -0.8221    2.7872 N   0  0  0  0  0  0  0  0  0  0  0  0
   -1.8112   -1.0071    4.2105 C   0  0  0  0  0  0  0  0  0  0  0  0
   -2.3985    0.2774    4.8150 C   0  0  0  0  0  0  0  0  0  0  0  0
   -2.8698   -2.1219    4.3067 C   0  0  0  0  0  0  0  0  0  0  0  0
   -0.5784   -1.4546    5.0136 C   0  0  0  0  0  0  0  0  0  0  0  0
    0.7121    1.0205    0.2845 N   0  0  0  0  0  0  0  0  0  0  0  0
    2.0126    0.5775    0.0141 C   0  0  0  0  0  0  0  0  0  0  0  0
    2.8710    1.3158   -0.4777 O   0  0  0  0  0  0  0  0  0  0  0  0
    2.3727   -0.8620    0.3590 C   0  0  0  0  0  0  0  0  0  0  0  0
    3.8396   -1.1559    0.0498 C   0  0  0  0  0  0  0  0  0  0  0  0
    4.0691   -1.3266   -1.4440 C   0  0  0  0  0  0  0  0  0  0  0  0
    3.1749   -1.6987   -2.2001 O   0  0  0  0  0  0  0  0  0  0  0  0
    5.3769   -1.0921   -1.8002 N   0  0  0  0  0  0  0  0  0  0  0  0
    5.8878   -1.2030   -3.0737 C   0  0  0  0  0  0  0  0  0  0  0  0
    5.2427   -1.5802   -4.2716 C   0  0  0  0  0  0  0  0  0  0  0  0
    6.2258   -1.5209   -5.2274 C   0  0  0  0  0  0  0  0  0  0  0  0
    6.2691   -1.7784   -6.6762 C   0  0  0  0  0  0  0  0  0  0  0  0
    7.3911   -1.1388   -4.6430 O   0  0  0  0  0  0  0  0  0  0  0  0
    7.1806   -0.9361   -3.2920 N   0  0  0  0  0  0  0  0  0  0  0  0
    0.4605    2.4710    0.0875 C   0  0  0  0  0  0  0  0  0  0  0  0
   -0.2056    2.7813   -1.2544 C   0  0  0  0  0  0  0  0  0  0  0  0
   -0.2508    3.1712    1.2410 C   0  0  0  0  0  0  0  0  0  0  0  0
   -2.8927    0.4813    0.1384 C   0  0  0  0  0  0  0  0  0  0  0  0
   -3.0838    0.9703    1.4058 O   0  0  0  0  0  0  0  0  0  0  0  0
   -3.9027    2.1354    1.5059 C   0  0  0  0  0  0  0  0  0  0  0  0
   -6.4430   -0.4901   -1.6015 H   0  0  0  0  0  0  0  0  0  0  0  0
   -6.1009    1.1884   -2.1831 H   0  0  0  0  0  0  0  0  0  0  0  0
   -7.1867    0.9084   -0.8171 H   0  0  0  0  0  0  0  0  0  0  0  0
   -4.4486   -0.3362   -2.8075 H   0  0  0  0  0  0  0  0  0  0  0  0
   -2.1741   -0.9952   -3.3870 H   0  0  0  0  0  0  0  0  0  0  0  0
   -0.3542   -0.7932   -1.7581 H   0  0  0  0  0  0  0  0  0  0  0  0
    0.0153   -0.9185    0.6404 H   0  0  0  0  0  0  0  0  0  0  0  0
   -2.2424   -1.0185    2.1418 H   0  0  0  0  0  0  0  0  0  0  0  0
   -3.2887    0.6008    4.2639 H   0  0  0  0  0  0  0  0  0  0  0  0
   -2.6898    0.1247    5.8607 H   0  0  0  0  0  0  0  0  0  0  0  0
   -1.6821    1.1051    4.7918 H   0  0  0  0  0  0  0  0  0  0  0  0
   -2.4932   -3.0611    3.8841 H   0  0  0  0  0  0  0  0  0  0  0  0
   -3.1594   -2.3115    5.3464 H   0  0  0  0  0  0  0  0  0  0  0  0
   -3.7762   -1.8558    3.7500 H   0  0  0  0  0  0  0  0  0  0  0  0
   -0.8511   -1.7120    6.0438 H   0  0  0  0  0  0  0  0  0  0  0  0
   -0.1119   -2.3363    4.5587 H   0  0  0  0  0  0  0  0  0  0  0  0
    0.1858   -0.6734    5.0710 H   0  0  0  0  0  0  0  0  0  0  0  0
    2.2065   -1.0054    1.4323 H   0  0  0  0  0  0  0  0  0  0  0  0
    1.7337   -1.5501   -0.2018 H   0  0  0  0  0  0  0  0  0  0  0  0
    4.4921   -0.3723    0.4508 H   0  0  0  0  0  0  0  0  0  0  0  0
    4.1258   -2.1019    0.5239 H   0  0  0  0  0  0  0  0  0  0  0  0
    6.0451   -0.7596   -1.1191 H   0  0  0  0  0  0  0  0  0  0  0  0
    4.2092   -1.8527   -4.4221 H   0  0  0  0  0  0  0  0  0  0  0  0
    5.2595   -1.8058   -7.0986 H   0  0  0  0  0  0  0  0  0  0  0  0
    6.7520   -2.7394   -6.8783 H   0  0  0  0  0  0  0  0  0  0  0  0
    6.8308   -0.9943   -7.1938 H   0  0  0  0  0  0  0  0  0  0  0  0
    1.4383    2.9664    0.0370 H   0  0  0  0  0  0  0  0  0  0  0  0
   -0.1280    3.8513   -1.4784 H   0  0  0  0  0  0  0  0  0  0  0  0
    0.2758    2.2337   -2.0715 H   0  0  0  0  0  0  0  0  0  0  0  0
   -1.2701    2.5364   -1.2534 H   0  0  0  0  0  0  0  0  0  0  0  0
   -0.3660    4.2402    1.0303 H   0  0  0  0  0  0  0  0  0  0  0  0
    0.3293    3.0852    2.1648 H   0  0  0  0  0  0  0  0  0  0  0  0
   -1.2434    2.7649    1.4222 H   0  0  0  0  0  0  0  0  0  0  0  0
   -4.9380    1.8552    1.7194 H   0  0  0  0  0  0  0  0  0  0  0  0
   -3.5433    2.7176    2.3603 H   0  0  0  0  0  0  0  0  0  0  0  0
   -3.8373    2.7749    0.6189 H   0  0  0  0  0  0  0  0  0  0  0  0
  1  2  1  0
  2  3  1  0
  3  4  2  0
  4  5  1  0
  5  6  2  0
  6  7  1  0
  7  8  1  0
  8  9  1  0
  9 10  2  0
  9 11  1  0
 11 12  1  0
 12 13  1  0
 12 14  1  0
 12 15  1  0
  8 16  1  0
 16 17  1  0
 17 18  2  0
 17 19  1  0
 19 20  1  0
 20 21  1  0
 21 22  2  0
 21 23  1  0
 23 24  1  0
 24 25  1  0
 25 26  2  0
 26 27  1  0
 26 28  1  0
 28 29  1  0
 16 30  1  0
 30 31  1  0
 30 32  1  0
  7 33  2  0
 33 34  1  0
 34 35  1  0
 33  3  1  0
 29 24  2  0
  1 36  1  0
  1 37  1  0
  1 38  1  0
  4 39  1  0
  5 40  1  0
  6 41  1  0
  8 42  1  0
 11 43  1  0
 13 44  1  0
 13 45  1  0
 13 46  1  0
 14 47  1  0
 14 48  1  0
 14 49  1  0
 15 50  1  0
 15 51  1  0
 15 52  1  0
 19 53  1  0
 19 54  1  0
 20 55  1  0
 20 56  1  0
 23 57  1  0
 25 58  1  0
 27 59  1  0
 27 60  1  0
 27 61  1  0
 30 62  1  0
 31 63  1  0
 31 64  1  0
 31 65  1  0
 32 66  1  0
 32 67  1  0
 32 68  1  0
 35 69  1  0
 35 70  1  0
 35 71  1  0
M  END
$$$$
