
     RDKit          3D

 56 60  0  0  0  0  0  0  0  0999 V2000
   -5.9580    1.6415    0.3874 C   0  0  0  0  0  0  0  0  0  0  0  0
   -4.4866    1.3487    0.2996 C   0  0  0  0  0  0  0  0  0  0  0  0
   -3.6866    2.2020   -0.4776 C   0  0  0  0  0  0  0  0  0  0  0  0
   -2.3129    1.9813   -0.6121 C   0  0  0  0  0  0  0  0  0  0  0  0
   -1.6922    0.9039    0.0309 C   0  0  0  0  0  0  0  0  0  0  0  0
   -0.2589    0.6478   -0.1490 C   0  0  0  0  0  0  0  0  0  0  0  0
    0.5412    1.5020    0.5225 N   0  0  0  0  0  0  0  0  0  0  0  0
    1.8992    1.3648    0.4543 N   0  0  0  0  0  0  0  0  0  0  0  0
    2.4673    0.3834   -0.2786 C   0  0  0  0  0  0  0  0  0  0  0  0
    3.8837    0.2811   -0.3589 N   0  0  0  0  0  0  0  0  0  0  0  0
    4.8514    0.9188    0.4531 C   0  0  0  0  0  0  0  0  0  0  0  0
    4.6076    1.2446    1.8062 C   0  0  0  0  0  0  0  0  0  0  0  0
    5.6012    1.8105    2.6156 C   0  0  0  0  0  0  0  0  0  0  0  0
    6.8404    2.0180    2.0567 C   0  0  0  0  0  0  0  0  0  0  0  0
    7.1049    1.6775    0.7535 C   0  0  0  0  0  0  0  0  0  0  0  0
    6.1433    1.1180   -0.0641 C   0  0  0  0  0  0  0  0  0  0  0  0
    8.3906    1.9454    0.3977 O   0  0  0  0  0  0  0  0  0  0  0  0
    8.9005    2.5018    1.6276 C   0  0  0  0  0  0  0  0  0  0  0  0
    7.9229    2.5449    2.6870 O   0  0  0  0  0  0  0  0  0  0  0  0
    1.6663   -0.5385   -0.9944 C   0  0  0  0  0  0  0  0  0  0  0  0
    2.2011   -1.6070   -1.7593 C   0  0  0  0  0  0  0  0  0  0  0  0
    1.3834   -2.4867   -2.4702 C   0  0  0  0  0  0  0  0  0  0  0  0
    0.0073   -2.3256   -2.4362 C   0  0  0  0  0  0  0  0  0  0  0  0
   -0.5485   -1.2949   -1.6797 C   0  0  0  0  0  0  0  0  0  0  0  0
    0.2605   -0.3945   -0.9391 C   0  0  0  0  0  0  0  0  0  0  0  0
   -2.4761    0.0736    0.8449 C   0  0  0  0  0  0  0  0  0  0  0  0
   -3.8596    0.2832    0.9725 C   0  0  0  0  0  0  0  0  0  0  0  0
   -4.7629   -0.8679    1.9939 S   0  0  0  0  0  6  0  0  0  0  0  0
   -5.8729   -0.1815    2.6132 O   0  0  0  0  0  0  0  0  0  0  0  0
   -3.8314   -1.6497    2.7752 O   0  0  0  0  0  0  0  0  0  0  0  0
   -5.4269   -1.8791    0.8227 N   0  0  0  0  0  0  0  0  0  0  0  0
   -4.6132   -3.0061    0.3288 C   0  0  0  0  0  0  0  0  0  0  0  0
   -4.8934   -3.2038   -1.1601 C   0  0  0  0  0  0  0  0  0  0  0  0
   -4.4953   -2.0420   -1.8877 O   0  0  0  0  0  0  0  0  0  0  0  0
   -6.2033    2.0718    1.3629 H   0  0  0  0  0  0  0  0  0  0  0  0
   -6.2647    2.3636   -0.3775 H   0  0  0  0  0  0  0  0  0  0  0  0
   -6.5502    0.7384    0.2123 H   0  0  0  0  0  0  0  0  0  0  0  0
   -4.1287    3.0528   -0.9946 H   0  0  0  0  0  0  0  0  0  0  0  0
   -1.7234    2.6590   -1.2286 H   0  0  0  0  0  0  0  0  0  0  0  0
    4.1521    0.2950   -1.3376 H   0  0  0  0  0  0  0  0  0  0  0  0
    3.6335    1.0520    2.2506 H   0  0  0  0  0  0  0  0  0  0  0  0
    5.4009    2.0655    3.6495 H   0  0  0  0  0  0  0  0  0  0  0  0
    6.3979    0.8473   -1.0823 H   0  0  0  0  0  0  0  0  0  0  0  0
    9.7506    1.8950    1.9597 H   0  0  0  0  0  0  0  0  0  0  0  0
    9.2518    3.5212    1.4323 H   0  0  0  0  0  0  0  0  0  0  0  0
    3.2760   -1.7755   -1.7960 H   0  0  0  0  0  0  0  0  0  0  0  0
    1.8248   -3.2955   -3.0473 H   0  0  0  0  0  0  0  0  0  0  0  0
   -0.6390   -3.0003   -2.9924 H   0  0  0  0  0  0  0  0  0  0  0  0
   -1.6339   -1.1989   -1.6800 H   0  0  0  0  0  0  0  0  0  0  0  0
   -1.9974   -0.7511    1.3732 H   0  0  0  0  0  0  0  0  0  0  0  0
   -6.4253   -2.0314    0.9680 H   0  0  0  0  0  0  0  0  0  0  0  0
   -4.8696   -3.9093    0.8905 H   0  0  0  0  0  0  0  0  0  0  0  0
   -3.5462   -2.7954    0.4533 H   0  0  0  0  0  0  0  0  0  0  0  0
   -5.9577   -3.3768   -1.3483 H   0  0  0  0  0  0  0  0  0  0  0  0
   -4.3274   -4.0561   -1.5468 H   0  0  0  0  0  0  0  0  0  0  0  0
   -4.9185   -1.2869   -1.4366 H   0  0  0  0  0  0  0  0  0  0  0  0
  1  2  1  0
  2  3  2  0
  3  4  1  0
  4  5  2  0
  5  6  1  0
  6  7  2  0
  7  8  1  0
  8  9  2  0
  9 10  1  0
 10 11  1  0
 11 12  2  0
 12 13  1  0
 13 14  2  0
 14 15  1  0
 15 16  2  0
 15 17  1  0
 17 18  1  0
 18 19  1  0
  9 20  1  0
 20 21  2  0
 21 22  1  0
 22 23  2  0
 23 24  1  0
 24 25  2  0
  5 26  1  0
 26 27  2  0
 27 28  1  0
 28 29  2  0
 28 30  2  0
 28 31  1  0
 31 32  1  0
 32 33  1  0
 33 34  1  0
 27  2  1  0
 25  6  1  0
 16 11  1  0
 25 20  1  0
 19 14  1  0
  1 35  1  0
  1 36  1  0
  1 37  1  0
  3 38  1  0
  4 39  1  0
 10 40  1  0
 12 41  1  0
 13 42  1  0
 16 43  1  0
 18 44  1  0
 18 45  1  0
 21 46  1  0
 22 47  1  0
 23 48  1  0
 24 49  1  0
 26 50  1  0
 31 51  1  0
 32 52  1  0
 32 53  1  0
 33 54  1  0
 33 55  1  0
 34 56  1  0
M  END
$$$$
