
     RDKit          3D

 47 50  0  0  0  0  0  0  0  0999 V2000
   -5.1555    1.4644    0.7072 N   0  0  0  0  0  0  0  0  0  0  0  0
   -4.8010    2.5090    1.4810 C   0  0  0  0  0  0  0  0  0  0  0  0
   -5.7078    3.3385    1.9967 N   0  0  0  0  0  0  0  0  0  0  0  0
   -4.9878    4.3337    2.6356 O   0  0  0  0  0  0  0  0  0  0  0  0
   -3.6250    4.1106    2.5222 N   0  0  0  0  0  0  0  0  0  0  0  0
   -3.5171    2.9601    1.8449 C   0  0  0  0  0  0  0  0  0  0  0  0
   -2.2016    2.4575    1.6281 N   0  0  0  0  0  0  0  0  0  0  0  0
   -1.1107    3.2619    1.8328 N   0  0  0  0  0  0  0  0  0  0  0  0
   -0.0162    2.6317    1.4518 N   0  0  0  0  0  0  0  0  0  0  0  0
   -0.3637    1.3648    1.0824 C   0  0  0  0  0  0  0  0  0  0  0  0
    0.6304    0.3856    0.6486 C   0  0  0  0  0  0  0  0  0  0  0  0
    0.3320   -0.7679    0.3559 O   0  0  0  0  0  0  0  0  0  0  0  0
    1.9112    0.9173    0.6222 N   0  0  0  0  0  0  0  0  0  0  0  0
    2.9778    0.1548    0.2504 N   0  0  0  0  0  0  0  0  0  0  0  0
    4.1231    0.7584    0.2692 C   0  0  0  0  0  0  0  0  0  0  0  0
    5.3727    0.0677   -0.1071 C   0  0  0  0  0  0  0  0  0  0  0  0
    5.3593   -1.2735   -0.5023 C   0  0  0  0  0  0  0  0  0  0  0  0
    6.5542   -1.9032   -0.8531 C   0  0  0  0  0  0  0  0  0  0  0  0
    7.7485   -1.1914   -0.8067 C   0  0  0  0  0  0  0  0  0  0  0  0
    8.8904   -1.8477   -1.1581 O   0  0  0  0  0  0  0  0  0  0  0  0
    7.7718    0.1447   -0.4145 C   0  0  0  0  0  0  0  0  0  0  0  0
    6.5772    0.7787   -0.0625 C   0  0  0  0  0  0  0  0  0  0  0  0
   -1.7348    1.2049    1.2305 C   0  0  0  0  0  0  0  0  0  0  0  0
   -2.5432   -0.0247    1.0667 C   0  0  0  0  0  0  0  0  0  0  0  0
   -2.9823   -0.0132   -0.2903 O   0  0  0  0  0  0  0  0  0  0  0  0
   -3.5066   -1.1826   -0.7733 C   0  0  0  0  0  0  0  0  0  0  0  0
   -3.9856   -2.2408    0.0035 C   0  0  0  0  0  0  0  0  0  0  0  0
   -4.5252   -3.3716   -0.6165 C   0  0  0  0  0  0  0  0  0  0  0  0
   -4.5887   -3.4345   -2.0037 C   0  0  0  0  0  0  0  0  0  0  0  0
   -5.1095   -4.5188   -2.5922 F   0  0  0  0  0  0  0  0  0  0  0  0
   -4.1249   -2.3857   -2.7864 C   0  0  0  0  0  0  0  0  0  0  0  0
   -3.5867   -1.2564   -2.1682 C   0  0  0  0  0  0  0  0  0  0  0  0
   -4.5461    1.1624   -0.0530 H   0  0  0  0  0  0  0  0  0  0  0  0
   -6.1290    1.4500    0.4098 H   0  0  0  0  0  0  0  0  0  0  0  0
    2.0423    1.8879    0.8941 H   0  0  0  0  0  0  0  0  0  0  0  0
    4.2148    1.8184    0.5683 H   0  0  0  0  0  0  0  0  0  0  0  0
    4.4262   -1.8319   -0.5394 H   0  0  0  0  0  0  0  0  0  0  0  0
    6.5520   -2.9452   -1.1614 H   0  0  0  0  0  0  0  0  0  0  0  0
    9.6416   -1.2373   -1.0807 H   0  0  0  0  0  0  0  0  0  0  0  0
    8.7023    0.7027   -0.3773 H   0  0  0  0  0  0  0  0  0  0  0  0
    6.5987    1.8213    0.2432 H   0  0  0  0  0  0  0  0  0  0  0  0
   -1.9328   -0.9107    1.2748 H   0  0  0  0  0  0  0  0  0  0  0  0
   -3.3874   -0.0409    1.7630 H   0  0  0  0  0  0  0  0  0  0  0  0
   -3.9626   -2.2164    1.0880 H   0  0  0  0  0  0  0  0  0  0  0  0
   -4.8977   -4.2028   -0.0259 H   0  0  0  0  0  0  0  0  0  0  0  0
   -4.1811   -2.4538   -3.8679 H   0  0  0  0  0  0  0  0  0  0  0  0
   -3.2158   -0.4360   -2.7780 H   0  0  0  0  0  0  0  0  0  0  0  0
  1  2  1  0
  2  3  2  0
  3  4  1  0
  4  5  1  0
  5  6  2  0
  6  7  1  0
  7  8  1  0
  8  9  2  0
  9 10  1  0
 10 11  1  0
 11 12  2  0
 11 13  1  0
 13 14  1  0
 14 15  2  3
 15 16  1  0
 16 17  2  0
 17 18  1  0
 18 19  2  0
 19 20  1  0
 19 21  1  0
 21 22  2  0
 10 23  2  0
 23 24  1  0
 24 25  1  0
 25 26  1  0
 26 27  2  0
 27 28  1  0
 28 29  2  0
 29 30  1  0
 29 31  1  0
 31 32  2  0
  6  2  1  0
 23  7  1  0
 32 26  1  0
 22 16  1  0
  1 33  1  0
  1 34  1  0
 13 35  1  0
 15 36  1  0
 17 37  1  0
 18 38  1  0
 20 39  1  0
 21 40  1  0
 22 41  1  0
 24 42  1  0
 24 43  1  0
 27 44  1  0
 28 45  1  0
 31 46  1  0
 32 47  1  0
M  END
$$$$
