
     RDKit          3D

 56 58  0  0  0  0  0  0  0  0999 V2000
    6.4970    1.6207   -2.9321 C   0  0  0  0  0  0  0  0  0  0  0  0
    5.6930    2.0714   -4.0167 O   0  0  0  0  0  0  0  0  0  0  0  0
    4.3622    1.7543   -3.9710 C   0  0  0  0  0  0  0  0  0  0  0  0
    3.6105    2.2558   -5.0345 C   0  0  0  0  0  0  0  0  0  0  0  0
    2.2378    2.0115   -5.1195 C   0  0  0  0  0  0  0  0  0  0  0  0
    1.6036    1.2568   -4.1319 C   0  0  0  0  0  0  0  0  0  0  0  0
    0.2614    0.9530   -4.1122 O   0  0  0  0  0  0  0  0  0  0  0  0
   -0.5386    1.4997   -5.1535 C   0  0  0  0  0  0  0  0  0  0  0  0
    2.3577    0.7427   -3.0548 C   0  0  0  0  0  0  0  0  0  0  0  0
    1.6538   -0.0194   -2.0960 N   0  0  0  0  0  0  0  0  0  0  0  0
    2.1195   -0.5887   -0.9270 C   0  0  0  0  0  0  0  0  0  0  0  0
    3.2752   -0.5434   -0.5122 O   0  0  0  0  0  0  0  0  0  0  0  0
    1.0629   -1.3929   -0.1847 C   0  0  0  0  0  0  0  0  0  0  0  0
   -0.4351   -0.4036    0.1087 S   0  0  0  0  0  0  0  0  0  0  0  0
   -1.3737   -1.5328    1.0671 C   0  0  0  0  0  0  0  0  0  0  0  0
   -1.0714   -2.7860    0.9806 N   0  0  0  0  0  0  0  0  0  0  0  0
   -1.8021   -3.7083    1.7333 C   0  0  0  0  0  0  0  0  0  0  0  0
   -1.4895   -5.0658    1.6291 C   0  0  0  0  0  0  0  0  0  0  0  0
   -2.1923   -6.0171    2.3739 C   0  0  0  0  0  0  0  0  0  0  0  0
   -3.2157   -5.6158    3.2321 C   0  0  0  0  0  0  0  0  0  0  0  0
   -3.5359   -4.2635    3.3441 C   0  0  0  0  0  0  0  0  0  0  0  0
   -2.8255   -3.3208    2.5914 C   0  0  0  0  0  0  0  0  0  0  0  0
   -3.1312   -1.8845    2.6799 C   0  0  0  0  0  0  0  0  0  0  0  0
   -3.9925   -1.4996    3.4682 O   0  0  0  0  0  0  0  0  0  0  0  0
   -2.3986   -1.0313    1.8545 N   0  0  0  0  0  0  0  0  0  0  0  0
   -2.7311    0.3945    1.9681 C   0  0  0  0  0  0  0  0  0  0  0  0
   -1.9662    1.0770    3.1076 C   0  0  0  0  0  0  0  0  0  0  0  0
   -2.3827    2.4577    3.2915 N   0  0  0  0  0  0  0  0  0  0  0  0
   -1.5134    3.3888    3.8172 C   0  0  0  0  0  0  0  0  0  0  0  0
   -2.1414    4.7281    4.0965 C   0  0  0  0  0  0  0  0  0  0  0  0
   -0.3303    3.1652    4.0470 O   0  0  0  0  0  0  0  0  0  0  0  0
    3.7321    0.9955   -2.9825 C   0  0  0  0  0  0  0  0  0  0  0  0
    6.1565    2.0476   -1.9828 H   0  0  0  0  0  0  0  0  0  0  0  0
    7.5184    1.9721   -3.1065 H   0  0  0  0  0  0  0  0  0  0  0  0
    6.5244    0.5269   -2.8897 H   0  0  0  0  0  0  0  0  0  0  0  0
    4.1016    2.8446   -5.8061 H   0  0  0  0  0  0  0  0  0  0  0  0
    1.7020    2.4234   -5.9674 H   0  0  0  0  0  0  0  0  0  0  0  0
   -1.5736    1.1916   -4.9753 H   0  0  0  0  0  0  0  0  0  0  0  0
   -0.2375    1.1055   -6.1295 H   0  0  0  0  0  0  0  0  0  0  0  0
   -0.5111    2.5944   -5.1408 H   0  0  0  0  0  0  0  0  0  0  0  0
    0.6554   -0.0877   -2.2795 H   0  0  0  0  0  0  0  0  0  0  0  0
    0.8312   -2.2805   -0.7823 H   0  0  0  0  0  0  0  0  0  0  0  0
    1.4825   -1.7072    0.7764 H   0  0  0  0  0  0  0  0  0  0  0  0
   -0.6901   -5.3832    0.9640 H   0  0  0  0  0  0  0  0  0  0  0  0
   -1.9378   -7.0707    2.2846 H   0  0  0  0  0  0  0  0  0  0  0  0
   -3.7613   -6.3553    3.8137 H   0  0  0  0  0  0  0  0  0  0  0  0
   -4.3326   -3.9472    4.0137 H   0  0  0  0  0  0  0  0  0  0  0  0
   -3.8095    0.4944    2.1478 H   0  0  0  0  0  0  0  0  0  0  0  0
   -2.5507    0.9158    1.0230 H   0  0  0  0  0  0  0  0  0  0  0  0
   -2.1441    0.5630    4.0592 H   0  0  0  0  0  0  0  0  0  0  0  0
   -0.8876    1.0379    2.9197 H   0  0  0  0  0  0  0  0  0  0  0  0
   -3.3720    2.6286    3.4248 H   0  0  0  0  0  0  0  0  0  0  0  0
   -1.5155    5.5128    3.6632 H   0  0  0  0  0  0  0  0  0  0  0  0
   -3.1400    4.8061    3.6577 H   0  0  0  0  0  0  0  0  0  0  0  0
   -2.2167    4.8695    5.1777 H   0  0  0  0  0  0  0  0  0  0  0  0
    4.3084    0.5983   -2.1576 H   0  0  0  0  0  0  0  0  0  0  0  0
  1  2  1  0
  2  3  1  0
  3  4  2  0
  4  5  1  0
  5  6  2  0
  6  7  1  0
  7  8  1  0
  6  9  1  0
  9 10  1  0
 10 11  1  0
 11 12  2  0
 11 13  1  0
 13 14  1  0
 14 15  1  0
 15 16  2  0
 16 17  1  0
 17 18  2  0
 18 19  1  0
 19 20  2  0
 20 21  1  0
 21 22  2  0
 22 23  1  0
 23 24  2  0
 23 25  1  0
 25 26  1  0
 26 27  1  0
 27 28  1  0
 28 29  1  0
 29 30  1  0
 29 31  2  0
  9 32  2  0
 32  3  1  0
 25 15  1  0
 22 17  1  0
  1 33  1  0
  1 34  1  0
  1 35  1  0
  4 36  1  0
  5 37  1  0
  8 38  1  0
  8 39  1  0
  8 40  1  0
 10 41  1  0
 13 42  1  0
 13 43  1  0
 18 44  1  0
 19 45  1  0
 20 46  1  0
 21 47  1  0
 26 48  1  0
 26 49  1  0
 27 50  1  0
 27 51  1  0
 28 52  1  0
 30 53  1  0
 30 54  1  0
 30 55  1  0
 32 56  1  0
M  END
$$$$
