
     RDKit          3D

 37 40  0  0  0  0  0  0  0  0999 V2000
   -1.3893   -2.9467    0.7515 C   0  0  0  0  0  0  0  0  0  0  0  0
   -0.5733   -1.7337    0.4022 C   0  0  0  0  0  0  0  0  0  0  0  0
    0.8274   -1.8330    0.3291 C   0  0  0  0  0  0  0  0  0  0  0  0
    1.6055   -0.7007    0.0051 C   0  0  0  0  0  0  0  0  0  0  0  0
    0.9567    0.5117   -0.2372 C   0  0  0  0  0  0  0  0  0  0  0  0
    1.9412    1.4316   -0.5235 N   0  0  0  0  0  0  0  0  0  0  0  0
    3.1905    0.8612   -0.4752 C   0  0  0  0  0  0  0  0  0  0  0  0
    4.4515    1.4275   -0.6972 C   0  0  0  0  0  0  0  0  0  0  0  0
    5.5659    0.5921   -0.5763 C   0  0  0  0  0  0  0  0  0  0  0  0
    5.4217   -0.7535   -0.2468 C   0  0  0  0  0  0  0  0  0  0  0  0
    4.1526   -1.3018   -0.0286 C   0  0  0  0  0  0  0  0  0  0  0  0
    3.0123   -0.4799   -0.1447 C   0  0  0  0  0  0  0  0  0  0  0  0
   -0.4411    0.6353   -0.1701 C   0  0  0  0  0  0  0  0  0  0  0  0
   -1.1935   -0.5030    0.1481 C   0  0  0  0  0  0  0  0  0  0  0  0
   -2.5602   -0.4740    0.2470 O   0  0  0  0  0  0  0  0  0  0  0  0
   -3.2704    0.7174   -0.1456 C   0  0  0  0  0  0  0  0  0  0  0  0
   -4.0566    0.3661   -1.4142 C   0  0  0  0  0  0  0  0  0  0  0  0
   -4.2461    1.0207    0.9979 C   0  0  0  0  0  0  0  0  0  0  0  0
   -2.4172    1.9388   -0.4050 C   0  0  0  0  0  0  0  0  0  0  0  0
   -1.0816    1.9131   -0.4160 C   0  0  0  0  0  0  0  0  0  0  0  0
   -2.0846   -3.1827   -0.0606 H   0  0  0  0  0  0  0  0  0  0  0  0
   -0.7555   -3.8254    0.9111 H   0  0  0  0  0  0  0  0  0  0  0  0
   -1.9526   -2.7718    1.6738 H   0  0  0  0  0  0  0  0  0  0  0  0
    1.3222   -2.7809    0.5221 H   0  0  0  0  0  0  0  0  0  0  0  0
    1.7708    2.4008   -0.7431 H   0  0  0  0  0  0  0  0  0  0  0  0
    4.5679    2.4753   -0.9539 H   0  0  0  0  0  0  0  0  0  0  0  0
    6.5604    1.0002   -0.7421 H   0  0  0  0  0  0  0  0  0  0  0  0
    6.3016   -1.3858   -0.1578 H   0  0  0  0  0  0  0  0  0  0  0  0
    4.0492   -2.3519    0.2278 H   0  0  0  0  0  0  0  0  0  0  0  0
   -4.6941   -0.5103   -1.2481 H   0  0  0  0  0  0  0  0  0  0  0  0
   -3.3780    0.1016   -2.2341 H   0  0  0  0  0  0  0  0  0  0  0  0
   -4.6905    1.1952   -1.7471 H   0  0  0  0  0  0  0  0  0  0  0  0
   -4.8917    1.8766    0.7721 H   0  0  0  0  0  0  0  0  0  0  0  0
   -3.7038    1.2342    1.9270 H   0  0  0  0  0  0  0  0  0  0  0  0
   -4.8847    0.1542    1.2068 H   0  0  0  0  0  0  0  0  0  0  0  0
   -2.9309    2.8763   -0.6007 H   0  0  0  0  0  0  0  0  0  0  0  0
   -0.5017    2.8055   -0.6077 H   0  0  0  0  0  0  0  0  0  0  0  0
  1  2  1  0
  2  3  2  0
  3  4  1  0
  4  5  2  0
  5  6  1  0
  6  7  1  0
  7  8  2  0
  8  9  1  0
  9 10  2  0
 10 11  1  0
 11 12  2  0
  5 13  1  0
 13 14  2  0
 14 15  1  0
 15 16  1  0
 16 17  1  0
 16 18  1  0
 16 19  1  0
 19 20  2  0
 14  2  1  0
 12  4  1  0
 20 13  1  0
 12  7  1  0
  1 21  1  0
  1 22  1  0
  1 23  1  0
  3 24  1  0
  6 25  1  0
  8 26  1  0
  9 27  1  0
 10 28  1  0
 11 29  1  0
 17 30  1  0
 17 31  1  0
 17 32  1  0
 18 33  1  0
 18 34  1  0
 18 35  1  0
 19 36  1  0
 20 37  1  0
M  END
$$$$
