
     RDKit          3D

 67 69  0  0  0  0  0  0  0  0999 V2000
    6.0779   -2.7783    0.8194 C   0  0  0  0  0  0  0  0  0  0  0  0
    6.6179   -2.0159   -0.3790 C   0  0  0  0  0  0  0  0  0  0  0  0
    6.4295   -0.6124   -0.2189 O   0  0  0  0  0  0  0  0  0  0  0  0
    5.2428   -0.0379   -0.5894 C   0  0  0  0  0  0  0  0  0  0  0  0
    4.1504   -0.7205   -1.1285 C   0  0  0  0  0  0  0  0  0  0  0  0
    2.9793   -0.0330   -1.4636 C   0  0  0  0  0  0  0  0  0  0  0  0
    2.8762    1.3478   -1.2571 C   0  0  0  0  0  0  0  0  0  0  0  0
    1.5842    2.0701   -1.5643 C   0  0  0  0  0  0  0  0  0  0  0  0
    0.7720    2.3960   -0.3039 C   0  0  0  0  0  0  0  0  0  0  0  0
    0.4307    1.2175    0.4725 N   0  0  0  0  0  0  0  0  0  0  0  0
   -0.5744    0.3557    0.0815 C   0  0  0  0  0  0  0  0  0  0  0  0
   -1.2906    0.5678   -0.8930 O   0  0  0  0  0  0  0  0  0  0  0  0
   -0.6764   -0.9054    0.9467 C   0  0  0  0  0  0  0  0  0  0  0  0
   -1.8972   -1.6236    0.7884 O   0  0  0  0  0  0  0  0  0  0  0  0
   -2.9489   -1.0573    1.4350 C   0  0  0  0  0  0  0  0  0  0  0  0
   -2.9147   -0.0738    2.1537 O   0  0  0  0  0  0  0  0  0  0  0  0
   -4.1520   -1.8715    1.1469 C   0  0  0  0  0  0  0  0  0  0  0  0
   -4.1258   -3.2215    1.5352 C   0  0  0  0  0  0  0  0  0  0  0  0
   -5.2610   -4.0099    1.3390 C   0  0  0  0  0  0  0  0  0  0  0  0
   -5.2438   -5.4239    1.7336 N   0  0  0  0  0  4  0  0  0  0  0  0
   -4.1865   -5.8805    2.1909 O   0  0  0  0  0  0  0  0  0  0  0  0
   -6.2864   -6.0760    1.5856 O   0  0  0  0  0  1  0  0  0  0  0  0
   -6.4142   -3.4608    0.7711 C   0  0  0  0  0  0  0  0  0  0  0  0
   -6.4263   -2.1127    0.3908 C   0  0  0  0  0  0  0  0  0  0  0  0
   -5.2999   -1.2880    0.5602 C   0  0  0  0  0  0  0  0  0  0  0  0
   -5.2942    0.0438    0.1363 N   0  0  0  0  0  0  0  0  0  0  0  0
   -4.5832    0.2606   -1.1489 C   0  0  0  0  0  0  0  0  0  0  0  0
   -4.3274    1.7644   -1.3416 C   0  0  0  0  0  0  0  0  0  0  0  0
   -5.5602    2.5110   -1.2975 O   0  0  0  0  0  0  0  0  0  0  0  0
   -6.2092    2.3154   -0.0273 C   0  0  0  0  0  0  0  0  0  0  0  0
   -6.5402    0.8311    0.2074 C   0  0  0  0  0  0  0  0  0  0  0  0
    3.9710    2.0366   -0.7209 C   0  0  0  0  0  0  0  0  0  0  0  0
    5.1506    1.3528   -0.4036 C   0  0  0  0  0  0  0  0  0  0  0  0
    6.2261    1.9900    0.1664 O   0  0  0  0  0  0  0  0  0  0  0  0
    6.5856    3.2153   -0.4742 C   0  0  0  0  0  0  0  0  0  0  0  0
    8.0304    3.5206   -0.1189 C   0  0  0  0  0  0  0  0  0  0  0  0
    6.3067   -3.8446    0.7332 H   0  0  0  0  0  0  0  0  0  0  0  0
    6.5186   -2.3973    1.7469 H   0  0  0  0  0  0  0  0  0  0  0  0
    4.9938   -2.6634    0.9126 H   0  0  0  0  0  0  0  0  0  0  0  0
    7.7011   -2.1768   -0.4286 H   0  0  0  0  0  0  0  0  0  0  0  0
    6.2185   -2.3888   -1.3288 H   0  0  0  0  0  0  0  0  0  0  0  0
    4.1684   -1.7918   -1.2957 H   0  0  0  0  0  0  0  0  0  0  0  0
    2.1396   -0.5898   -1.8776 H   0  0  0  0  0  0  0  0  0  0  0  0
    1.8164    2.9994   -2.0995 H   0  0  0  0  0  0  0  0  0  0  0  0
    0.9818    1.4662   -2.2545 H   0  0  0  0  0  0  0  0  0  0  0  0
    1.3319    3.0627    0.3609 H   0  0  0  0  0  0  0  0  0  0  0  0
   -0.1550    2.9058   -0.5899 H   0  0  0  0  0  0  0  0  0  0  0  0
    1.0927    0.9168    1.1781 H   0  0  0  0  0  0  0  0  0  0  0  0
   -0.4969   -0.6670    2.0013 H   0  0  0  0  0  0  0  0  0  0  0  0
    0.1299   -1.5745    0.6282 H   0  0  0  0  0  0  0  0  0  0  0  0
   -3.2277   -3.6323    1.9915 H   0  0  0  0  0  0  0  0  0  0  0  0
   -7.3068   -4.0629    0.6084 H   0  0  0  0  0  0  0  0  0  0  0  0
   -7.3313   -1.7233   -0.0693 H   0  0  0  0  0  0  0  0  0  0  0  0
   -3.6349   -0.2824   -1.1865 H   0  0  0  0  0  0  0  0  0  0  0  0
   -5.2126   -0.1111   -1.9684 H   0  0  0  0  0  0  0  0  0  0  0  0
   -3.8684    1.9431   -2.3189 H   0  0  0  0  0  0  0  0  0  0  0  0
   -3.6499    2.1546   -0.5722 H   0  0  0  0  0  0  0  0  0  0  0  0
   -5.5635    2.7087    0.7681 H   0  0  0  0  0  0  0  0  0  0  0  0
   -7.1318    2.9039   -0.0331 H   0  0  0  0  0  0  0  0  0  0  0  0
   -7.2413    0.4970   -0.5684 H   0  0  0  0  0  0  0  0  0  0  0  0
   -7.0143    0.7181    1.1894 H   0  0  0  0  0  0  0  0  0  0  0  0
    3.8901    3.1021   -0.5285 H   0  0  0  0  0  0  0  0  0  0  0  0
    6.4912    3.1370   -1.5654 H   0  0  0  0  0  0  0  0  0  0  0  0
    5.9460    4.0260   -0.1058 H   0  0  0  0  0  0  0  0  0  0  0  0
    8.6878    2.7086   -0.4472 H   0  0  0  0  0  0  0  0  0  0  0  0
    8.3586    4.4527   -0.5869 H   0  0  0  0  0  0  0  0  0  0  0  0
    8.1489    3.6097    0.9662 H   0  0  0  0  0  0  0  0  0  0  0  0
  1  2  1  0
  2  3  1  0
  3  4  1  0
  4  5  2  0
  5  6  1  0
  6  7  2  0
  7  8  1  0
  8  9  1  0
  9 10  1  0
 10 11  1  0
 11 12  2  0
 11 13  1  0
 13 14  1  0
 14 15  1  0
 15 16  2  0
 15 17  1  0
 17 18  2  0
 18 19  1  0
 19 20  1  0
 20 21  2  0
 20 22  1  0
 19 23  2  0
 23 24  1  0
 24 25  2  0
 25 26  1  0
 26 27  1  0
 27 28  1  0
 28 29  1  0
 29 30  1  0
 30 31  1  0
  7 32  1  0
 32 33  2  0
 33 34  1  0
 34 35  1  0
 35 36  1  0
 33  4  1  0
 25 17  1  0
 31 26  1  0
  1 37  1  0
  1 38  1  0
  1 39  1  0
  2 40  1  0
  2 41  1  0
  5 42  1  0
  6 43  1  0
  8 44  1  0
  8 45  1  0
  9 46  1  0
  9 47  1  0
 10 48  1  0
 13 49  1  0
 13 50  1  0
 18 51  1  0
 23 52  1  0
 24 53  1  0
 27 54  1  0
 27 55  1  0
 28 56  1  0
 28 57  1  0
 30 58  1  0
 30 59  1  0
 31 60  1  0
 31 61  1  0
 32 62  1  0
 35 63  1  0
 35 64  1  0
 36 65  1  0
 36 66  1  0
 36 67  1  0
M  CHG  2  20   1  22  -1
M  END
$$$$
