
     RDKit          3D

 44 46  0  0  0  0  0  0  0  0999 V2000
   -5.4421   -1.4632    1.9792 C   0  0  0  0  0  0  0  0  0  0  0  0
   -4.6674   -1.0703    0.7552 C   0  0  0  0  0  0  0  0  0  0  0  0
   -3.5608   -1.8278    0.3471 C   0  0  0  0  0  0  0  0  0  0  0  0
   -2.8193   -1.4506   -0.7731 C   0  0  0  0  0  0  0  0  0  0  0  0
   -3.1712   -0.2940   -1.4730 C   0  0  0  0  0  0  0  0  0  0  0  0
   -2.2288    0.1975   -2.8988 S   0  0  0  0  0  6  0  0  0  0  0  0
   -1.5140   -0.9602   -3.3909 O   0  0  0  0  0  0  0  0  0  0  0  0
   -3.1088    0.9580   -3.7622 O   0  0  0  0  0  0  0  0  0  0  0  0
   -1.1263    1.3119   -2.2623 N   0  0  0  0  0  0  0  0  0  0  0  0
   -0.3090    0.9280   -1.1624 C   0  0  0  0  0  0  0  0  0  0  0  0
   -0.5284    1.5241    0.0801 C   0  0  0  0  0  0  0  0  0  0  0  0
    0.2233    1.1334    1.1953 C   0  0  0  0  0  0  0  0  0  0  0  0
   -0.0265    1.7637    2.5356 C   0  0  0  0  0  0  0  0  0  0  0  0
    1.2031    0.1419    1.0385 C   0  0  0  0  0  0  0  0  0  0  0  0
    1.9164   -0.2058    2.1570 O   0  0  0  0  0  0  0  0  0  0  0  0
    1.4313   -0.4665   -0.2077 C   0  0  0  0  0  0  0  0  0  0  0  0
    2.5914   -1.8040   -0.4566 S   0  0  0  0  0  0  0  0  0  0  0  0
    4.1171   -1.0189   -0.1702 C   0  0  0  0  0  0  0  0  0  0  0  0
    4.4666   -0.6112    1.0566 N   0  0  0  0  0  0  0  0  0  0  0  0
    5.6873   -0.0974    0.8235 N   0  0  0  0  0  0  0  0  0  0  0  0
    6.0325   -0.2122   -0.4932 C   0  0  0  0  0  0  0  0  0  0  0  0
    7.3214    0.2664   -1.0333 C   0  0  0  0  0  0  0  0  0  0  0  0
    5.0505   -0.7999   -1.1414 N   0  0  0  0  0  0  0  0  0  0  0  0
    0.6608   -0.0637   -1.3059 C   0  0  0  0  0  0  0  0  0  0  0  0
   -4.2742    0.4692   -1.0813 C   0  0  0  0  0  0  0  0  0  0  0  0
   -5.0132    0.0836    0.0383 C   0  0  0  0  0  0  0  0  0  0  0  0
   -5.0036   -0.9941    2.8653 H   0  0  0  0  0  0  0  0  0  0  0  0
   -6.4889   -1.1528    1.8953 H   0  0  0  0  0  0  0  0  0  0  0  0
   -5.4357   -2.5500    2.1133 H   0  0  0  0  0  0  0  0  0  0  0  0
   -3.2716   -2.7201    0.8992 H   0  0  0  0  0  0  0  0  0  0  0  0
   -1.9692   -2.0543   -1.0838 H   0  0  0  0  0  0  0  0  0  0  0  0
   -1.5057    2.2570   -2.2667 H   0  0  0  0  0  0  0  0  0  0  0  0
   -1.2982    2.2835    0.1914 H   0  0  0  0  0  0  0  0  0  0  0  0
    0.8836    2.2489    2.9029 H   0  0  0  0  0  0  0  0  0  0  0  0
   -0.8095    2.5273    2.4804 H   0  0  0  0  0  0  0  0  0  0  0  0
   -0.3514    1.0059    3.2558 H   0  0  0  0  0  0  0  0  0  0  0  0
    2.7637   -0.6048    1.8620 H   0  0  0  0  0  0  0  0  0  0  0  0
    6.2172    0.3036    1.5900 H   0  0  0  0  0  0  0  0  0  0  0  0
    7.4309    1.3435   -0.8735 H   0  0  0  0  0  0  0  0  0  0  0  0
    8.1576   -0.2450   -0.5468 H   0  0  0  0  0  0  0  0  0  0  0  0
    7.3838    0.0739   -2.1088 H   0  0  0  0  0  0  0  0  0  0  0  0
    0.8169   -0.5261   -2.2788 H   0  0  0  0  0  0  0  0  0  0  0  0
   -4.5648    1.3570   -1.6379 H   0  0  0  0  0  0  0  0  0  0  0  0
   -5.8666    0.6845    0.3464 H   0  0  0  0  0  0  0  0  0  0  0  0
  1  2  1  0
  2  3  2  0
  3  4  1  0
  4  5  2  0
  5  6  1  0
  6  7  2  0
  6  8  2  0
  6  9  1  0
  9 10  1  0
 10 11  2  0
 11 12  1  0
 12 13  1  0
 12 14  2  0
 14 15  1  0
 14 16  1  0
 16 17  1  0
 17 18  1  0
 18 19  2  0
 19 20  1  0
 20 21  1  0
 21 22  1  0
 21 23  2  0
 16 24  2  0
  5 25  1  0
 25 26  2  0
 26  2  1  0
 24 10  1  0
 23 18  1  0
  1 27  1  0
  1 28  1  0
  1 29  1  0
  3 30  1  0
  4 31  1  0
  9 32  1  0
 11 33  1  0
 13 34  1  0
 13 35  1  0
 13 36  1  0
 15 37  1  0
 20 38  1  0
 22 39  1  0
 22 40  1  0
 22 41  1  0
 24 42  1  0
 25 43  1  0
 26 44  1  0
M  END
$$$$
