
     RDKit          3D

 53 55  0  0  0  0  0  0  0  0999 V2000
    8.6807    1.2290    1.0729 C   0  0  0  0  0  0  0  0  0  0  0  0
    7.6811    0.8071    0.1546 O   0  0  0  0  0  0  0  0  0  0  0  0
    6.6631    0.0442    0.6562 C   0  0  0  0  0  0  0  0  0  0  0  0
    5.7011   -0.3343   -0.2822 C   0  0  0  0  0  0  0  0  0  0  0  0
    4.6069   -1.1167    0.0938 C   0  0  0  0  0  0  0  0  0  0  0  0
    4.4615   -1.5408    1.4204 C   0  0  0  0  0  0  0  0  0  0  0  0
    3.2680   -2.3642    1.8295 C   0  0  0  0  0  0  0  0  0  0  0  0
    2.1511   -1.5210    2.1650 N   0  0  0  0  0  0  0  0  0  0  0  0
    1.1974   -1.1670    1.2389 C   0  0  0  0  0  0  0  0  0  0  0  0
    1.0864   -1.6178    0.1085 O   0  0  0  0  0  0  0  0  0  0  0  0
    0.2280   -0.0750    1.7496 C   0  0  0  0  0  0  0  0  0  0  0  0
    0.3286    0.3392    2.8972 O   0  0  0  0  0  0  0  0  0  0  0  0
   -0.6931    0.3468    0.8180 N   0  0  0  0  0  0  0  0  0  0  0  0
   -1.7835    1.2338    1.1808 C   0  0  0  0  0  0  0  0  0  0  0  0
   -2.4128    1.9921   -0.0115 C   0  0  0  0  0  0  0  0  0  0  0  0
   -3.0575    3.1835    0.4859 O   0  0  0  0  0  0  0  0  0  0  0  0
   -4.4226    2.8213    0.7075 C   0  0  0  0  0  0  0  0  0  0  0  0
   -4.7510    1.9047   -0.4492 C   0  0  0  0  0  0  0  0  0  0  0  0
   -3.4588    1.2827   -0.7805 N   0  0  0  0  0  0  0  0  0  0  0  0
   -3.3831   -0.3788   -0.9475 S   0  0  0  0  0  6  0  0  0  0  0  0
   -3.9921   -0.9599    0.2299 O   0  0  0  0  0  0  0  0  0  0  0  0
   -2.0358   -0.7261   -1.3452 O   0  0  0  0  0  0  0  0  0  0  0  0
   -4.4449   -0.6734   -2.3374 C   0  0  0  0  0  0  0  0  0  0  0  0
   -5.6575   -1.3467   -2.1660 C   0  0  0  0  0  0  0  0  0  0  0  0
   -6.4765   -1.5717   -3.2726 C   0  0  0  0  0  0  0  0  0  0  0  0
   -6.0812   -1.1301   -4.5373 C   0  0  0  0  0  0  0  0  0  0  0  0
   -4.8639   -0.4662   -4.7035 C   0  0  0  0  0  0  0  0  0  0  0  0
   -4.0393   -0.2369   -3.6027 C   0  0  0  0  0  0  0  0  0  0  0  0
    5.4230   -1.1508    2.3620 C   0  0  0  0  0  0  0  0  0  0  0  0
    6.5186   -0.3655    1.9819 C   0  0  0  0  0  0  0  0  0  0  0  0
    9.4127    1.8261    0.5199 H   0  0  0  0  0  0  0  0  0  0  0  0
    9.2080    0.3719    1.5042 H   0  0  0  0  0  0  0  0  0  0  0  0
    8.2547    1.8666    1.8548 H   0  0  0  0  0  0  0  0  0  0  0  0
    5.8018   -0.0155   -1.3166 H   0  0  0  0  0  0  0  0  0  0  0  0
    3.8641   -1.3895   -0.6545 H   0  0  0  0  0  0  0  0  0  0  0  0
    3.5049   -2.9664    2.7141 H   0  0  0  0  0  0  0  0  0  0  0  0
    2.9928   -3.0592    1.0278 H   0  0  0  0  0  0  0  0  0  0  0  0
    2.1799   -0.9585    3.0100 H   0  0  0  0  0  0  0  0  0  0  0  0
   -0.7571   -0.2238   -0.0331 H   0  0  0  0  0  0  0  0  0  0  0  0
   -1.3910    1.9640    1.8998 H   0  0  0  0  0  0  0  0  0  0  0  0
   -2.5289    0.6481    1.7295 H   0  0  0  0  0  0  0  0  0  0  0  0
   -1.6267    2.3202   -0.7004 H   0  0  0  0  0  0  0  0  0  0  0  0
   -5.0524    3.7142    0.7332 H   0  0  0  0  0  0  0  0  0  0  0  0
   -4.5010    2.3040    1.6703 H   0  0  0  0  0  0  0  0  0  0  0  0
   -5.0786    2.4829   -1.3205 H   0  0  0  0  0  0  0  0  0  0  0  0
   -5.5425    1.1983   -0.1861 H   0  0  0  0  0  0  0  0  0  0  0  0
   -5.9660   -1.7035   -1.1862 H   0  0  0  0  0  0  0  0  0  0  0  0
   -7.4195   -2.0997   -3.1524 H   0  0  0  0  0  0  0  0  0  0  0  0
   -6.7198   -1.3124   -5.3988 H   0  0  0  0  0  0  0  0  0  0  0  0
   -4.5567   -0.1329   -5.6921 H   0  0  0  0  0  0  0  0  0  0  0  0
   -3.0865    0.2716   -3.7341 H   0  0  0  0  0  0  0  0  0  0  0  0
    5.3274   -1.4558    3.4023 H   0  0  0  0  0  0  0  0  0  0  0  0
    7.2383   -0.0918    2.7461 H   0  0  0  0  0  0  0  0  0  0  0  0
  1  2  1  0
  2  3  1  0
  3  4  2  0
  4  5  1  0
  5  6  2  0
  6  7  1  0
  7  8  1  0
  8  9  1  0
  9 10  2  0
  9 11  1  0
 11 12  2  0
 11 13  1  0
 13 14  1  0
 14 15  1  0
 15 16  1  0
 16 17  1  0
 17 18  1  0
 18 19  1  0
 19 20  1  0
 20 21  2  0
 20 22  2  0
 20 23  1  0
 23 24  2  0
 24 25  1  0
 25 26  2  0
 26 27  1  0
 27 28  2  0
  6 29  1  0
 29 30  2  0
 30  3  1  0
 19 15  1  0
 28 23  1  0
  1 31  1  0
  1 32  1  0
  1 33  1  0
  4 34  1  0
  5 35  1  0
  7 36  1  0
  7 37  1  0
  8 38  1  0
 13 39  1  0
 14 40  1  0
 14 41  1  0
 15 42  1  0
 17 43  1  0
 17 44  1  0
 18 45  1  0
 18 46  1  0
 24 47  1  0
 25 48  1  0
 26 49  1  0
 27 50  1  0
 28 51  1  0
 29 52  1  0
 30 53  1  0
M  END
$$$$
