
     RDKit          3D

 53 52  0  0  0  0  0  0  0  0999 V2000
   -7.9023    2.6335   -0.1691 C   0  0  0  0  0  0  0  0  0  0  0  0
   -7.4100    2.2610   -1.5677 C   0  0  0  0  0  0  0  0  0  0  0  0
   -7.2290    3.5154   -2.4222 C   0  0  0  0  0  0  0  0  0  0  0  0
   -6.1406    1.3906   -1.5276 C   0  0  0  0  0  0  0  0  0  0  0  0
   -4.9105    2.0585   -0.9107 C   0  0  0  0  0  0  0  0  0  0  0  0
   -3.7653    1.1690   -0.9306 N   0  0  0  0  0  0  0  0  0  0  0  0
   -3.5512    0.2361    0.0627 C   0  0  0  0  0  0  0  0  0  0  0  0
   -4.3090    0.0800    1.0141 O   0  0  0  0  0  0  0  0  0  0  0  0
   -2.3337   -0.6333   -0.1841 C   0  0  0  0  0  0  0  0  0  0  0  0
   -1.7367   -1.1919    1.1025 C   0  0  0  0  0  0  0  0  0  0  0  0
   -0.7180    0.0414    1.9942 S   0  0  0  0  0  0  0  0  0  0  0  0
    0.8302   -0.0555    1.0291 C   0  0  0  0  0  0  0  0  0  0  0  0
    1.6971   -1.2169    1.4977 C   0  0  0  0  0  0  0  0  0  0  0  0
    2.9746   -1.2978    0.6888 C   0  0  0  0  0  0  0  0  0  0  0  0
    3.2050   -0.5908   -0.2858 O   0  0  0  0  0  0  0  0  0  0  0  0
    3.8400   -2.2680    1.1495 N   0  0  0  0  0  0  0  0  0  0  0  0
    5.1485   -2.4678    0.5581 C   0  0  0  0  0  0  0  0  0  0  0  0
    6.1723   -1.4841    1.1253 C   0  0  0  0  0  0  0  0  0  0  0  0
    7.6105   -1.7557    0.6491 C   0  0  0  0  0  0  0  0  0  0  0  0
    7.7660   -1.5820   -0.8623 C   0  0  0  0  0  0  0  0  0  0  0  0
    8.5834   -0.8265    1.3792 C   0  0  0  0  0  0  0  0  0  0  0  0
   -7.2129    3.3162    0.3375 H   0  0  0  0  0  0  0  0  0  0  0  0
   -8.8769    3.1307   -0.2254 H   0  0  0  0  0  0  0  0  0  0  0  0
   -8.0195    1.7406    0.4542 H   0  0  0  0  0  0  0  0  0  0  0  0
   -8.1948    1.6550   -2.0399 H   0  0  0  0  0  0  0  0  0  0  0  0
   -6.5249    4.2197   -1.9676 H   0  0  0  0  0  0  0  0  0  0  0  0
   -6.8606    3.2577   -3.4205 H   0  0  0  0  0  0  0  0  0  0  0  0
   -8.1846    4.0366   -2.5444 H   0  0  0  0  0  0  0  0  0  0  0  0
   -6.3654    0.4672   -0.9774 H   0  0  0  0  0  0  0  0  0  0  0  0
   -5.8967    1.0737   -2.5505 H   0  0  0  0  0  0  0  0  0  0  0  0
   -5.1026    2.3550    0.1252 H   0  0  0  0  0  0  0  0  0  0  0  0
   -4.6220    2.9493   -1.4764 H   0  0  0  0  0  0  0  0  0  0  0  0
   -3.1426    1.2044   -1.7266 H   0  0  0  0  0  0  0  0  0  0  0  0
   -1.5876   -0.0913   -0.7746 H   0  0  0  0  0  0  0  0  0  0  0  0
   -2.6829   -1.4708   -0.8013 H   0  0  0  0  0  0  0  0  0  0  0  0
   -1.1150   -2.0639    0.8783 H   0  0  0  0  0  0  0  0  0  0  0  0
   -2.5199   -1.5306    1.7883 H   0  0  0  0  0  0  0  0  0  0  0  0
    1.3662    0.8886    1.1774 H   0  0  0  0  0  0  0  0  0  0  0  0
    0.6033   -0.1263   -0.0390 H   0  0  0  0  0  0  0  0  0  0  0  0
    1.9664   -1.0890    2.5531 H   0  0  0  0  0  0  0  0  0  0  0  0
    1.1730   -2.1724    1.3848 H   0  0  0  0  0  0  0  0  0  0  0  0
    3.6396   -2.7248    2.0303 H   0  0  0  0  0  0  0  0  0  0  0  0
    5.4430   -3.4990    0.7780 H   0  0  0  0  0  0  0  0  0  0  0  0
    5.0584   -2.3583   -0.5271 H   0  0  0  0  0  0  0  0  0  0  0  0
    5.8808   -0.4577    0.8674 H   0  0  0  0  0  0  0  0  0  0  0  0
    6.1426   -1.5420    2.2216 H   0  0  0  0  0  0  0  0  0  0  0  0
    7.8768   -2.7890    0.9056 H   0  0  0  0  0  0  0  0  0  0  0  0
    7.1748   -2.3208   -1.4117 H   0  0  0  0  0  0  0  0  0  0  0  0
    8.8110   -1.7157   -1.1628 H   0  0  0  0  0  0  0  0  0  0  0  0
    7.4481   -0.5838   -1.1819 H   0  0  0  0  0  0  0  0  0  0  0  0
    8.3711    0.2251    1.1580 H   0  0  0  0  0  0  0  0  0  0  0  0
    8.5158   -0.9660    2.4635 H   0  0  0  0  0  0  0  0  0  0  0  0
    9.6168   -1.0337    1.0815 H   0  0  0  0  0  0  0  0  0  0  0  0
  1  2  1  0
  2  3  1  0
  2  4  1  0
  4  5  1  0
  5  6  1  0
  6  7  1  0
  7  8  2  0
  7  9  1  0
  9 10  1  0
 10 11  1  0
 11 12  1  0
 12 13  1  0
 13 14  1  0
 14 15  2  0
 14 16  1  0
 16 17  1  0
 17 18  1  0
 18 19  1  0
 19 20  1  0
 19 21  1  0
  1 22  1  0
  1 23  1  0
  1 24  1  0
  2 25  1  0
  3 26  1  0
  3 27  1  0
  3 28  1  0
  4 29  1  0
  4 30  1  0
  5 31  1  0
  5 32  1  0
  6 33  1  0
  9 34  1  0
  9 35  1  0
 10 36  1  0
 10 37  1  0
 12 38  1  0
 12 39  1  0
 13 40  1  0
 13 41  1  0
 16 42  1  0
 17 43  1  0
 17 44  1  0
 18 45  1  0
 18 46  1  0
 19 47  1  0
 20 48  1  0
 20 49  1  0
 20 50  1  0
 21 51  1  0
 21 52  1  0
 21 53  1  0
M  END
$$$$
