
     RDKit          3D

 44 47  0  0  0  0  0  0  0  0999 V2000
   -1.1261    4.4901   -0.6197 C   0  0  0  0  0  0  0  0  0  0  0  0
   -1.5873    3.1626   -0.2395 N   0  0  0  0  0  0  0  0  0  0  0  0
   -2.9321    2.9365   -0.0191 C   0  0  0  0  0  0  0  0  0  0  0  0
   -3.7819    3.8183   -0.1374 O   0  0  0  0  0  0  0  0  0  0  0  0
   -3.3504    1.5572    0.3767 C   0  0  0  0  0  0  0  0  0  0  0  0
   -4.7489    1.3646    0.5994 C   0  0  0  0  0  0  0  0  0  0  0  0
   -5.8765    1.1614    0.7878 N   0  0  0  0  0  0  0  0  0  0  0  0
   -2.4459    0.5598    0.5108 C   0  0  0  0  0  0  0  0  0  0  0  0
   -2.9273   -0.7883    0.9045 C   0  0  0  0  0  0  0  0  0  0  0  0
   -3.3412   -1.7039   -0.0752 C   0  0  0  0  0  0  0  0  0  0  0  0
   -3.7863   -2.9729    0.2988 C   0  0  0  0  0  0  0  0  0  0  0  0
   -3.8145   -3.3224    1.6442 C   0  0  0  0  0  0  0  0  0  0  0  0
   -4.2386   -4.5418    1.9993 F   0  0  0  0  0  0  0  0  0  0  0  0
   -3.4064   -2.4267    2.6259 C   0  0  0  0  0  0  0  0  0  0  0  0
   -2.9612   -1.1559    2.2582 C   0  0  0  0  0  0  0  0  0  0  0  0
   -1.0176    0.8647    0.2599 C   0  0  0  0  0  0  0  0  0  0  0  0
   -0.0210   -0.1174    0.3784 C   0  0  0  0  0  0  0  0  0  0  0  0
    1.3143    0.2020    0.1272 C   0  0  0  0  0  0  0  0  0  0  0  0
    2.3550   -0.8319    0.2838 C   0  0  0  0  0  0  0  0  0  0  0  0
    2.2443   -1.6466    1.1984 O   0  0  0  0  0  0  0  0  0  0  0  0
    3.5435   -0.9208   -0.6018 C   0  0  0  0  0  0  0  0  0  0  0  0
    3.4775   -0.5076   -1.9387 C   0  0  0  0  0  0  0  0  0  0  0  0
    4.6113   -0.5971   -2.7471 C   0  0  0  0  0  0  0  0  0  0  0  0
    4.5245   -0.0763   -4.3845 Cl  0  0  0  0  0  0  0  0  0  0  0  0
    5.8080   -1.1019   -2.2467 C   0  0  0  0  0  0  0  0  0  0  0  0
    5.8700   -1.5395   -0.9238 C   0  0  0  0  0  0  0  0  0  0  0  0
    7.3658   -2.1773   -0.3443 Cl  0  0  0  0  0  0  0  0  0  0  0  0
    4.7391   -1.4649   -0.1012 C   0  0  0  0  0  0  0  0  0  0  0  0
    4.8315   -1.9264    1.1881 O   0  0  0  0  0  0  0  0  0  0  0  0
    1.6176    1.5102   -0.2007 C   0  0  0  0  0  0  0  0  0  0  0  0
    0.6824    2.4770   -0.3358 N   0  0  0  0  0  0  0  0  0  0  0  0
   -0.6150    2.1509   -0.1050 C   0  0  0  0  0  0  0  0  0  0  0  0
   -0.4307    4.8645    0.1386 H   0  0  0  0  0  0  0  0  0  0  0  0
   -1.9543    5.1997   -0.7004 H   0  0  0  0  0  0  0  0  0  0  0  0
   -0.6280    4.4375   -1.5934 H   0  0  0  0  0  0  0  0  0  0  0  0
   -3.3260   -1.4385   -1.1300 H   0  0  0  0  0  0  0  0  0  0  0  0
   -4.1149   -3.6898   -0.4474 H   0  0  0  0  0  0  0  0  0  0  0  0
   -3.4405   -2.7235    3.6697 H   0  0  0  0  0  0  0  0  0  0  0  0
   -2.6451   -0.4612    3.0336 H   0  0  0  0  0  0  0  0  0  0  0  0
   -0.2683   -1.1372    0.6694 H   0  0  0  0  0  0  0  0  0  0  0  0
    2.5528   -0.1332   -2.3710 H   0  0  0  0  0  0  0  0  0  0  0  0
    6.6861   -1.1653   -2.8848 H   0  0  0  0  0  0  0  0  0  0  0  0
    3.9248   -2.0383    1.5525 H   0  0  0  0  0  0  0  0  0  0  0  0
    2.6380    1.8495   -0.3576 H   0  0  0  0  0  0  0  0  0  0  0  0
  1  2  1  0
  2  3  1  0
  3  4  2  0
  3  5  1  0
  5  6  1  0
  6  7  3  0
  5  8  2  0
  8  9  1  0
  9 10  2  0
 10 11  1  0
 11 12  2  0
 12 13  1  0
 12 14  1  0
 14 15  2  0
  8 16  1  0
 16 17  2  0
 17 18  1  0
 18 19  1  0
 19 20  2  0
 19 21  1  0
 21 22  2  0
 22 23  1  0
 23 24  1  0
 23 25  2  0
 25 26  1  0
 26 27  1  0
 26 28  2  0
 28 29  1  0
 18 30  2  0
 30 31  1  0
 31 32  2  0
 32  2  1  0
 15  9  1  0
 32 16  1  0
 28 21  1  0
  1 33  1  0
  1 34  1  0
  1 35  1  0
 10 36  1  0
 11 37  1  0
 14 38  1  0
 15 39  1  0
 17 40  1  0
 22 41  1  0
 25 42  1  0
 29 43  1  0
 30 44  1  0
M  END
$$$$
