
     RDKit          3D

 34 35  0  0  0  0  0  0  0  0999 V2000
   -3.2855   -2.4537    0.0695 C   0  0  0  0  0  0  0  0  0  0  0  0
   -3.4640   -1.0051   -0.2987 C   0  0  0  0  0  0  0  0  0  0  0  0
   -4.6782   -0.6147   -0.8928 C   0  0  0  0  0  0  0  0  0  0  0  0
   -4.9039    0.7115   -1.2533 C   0  0  0  0  0  0  0  0  0  0  0  0
   -3.9138    1.6611   -1.0368 C   0  0  0  0  0  0  0  0  0  0  0  0
   -2.7017    1.2878   -0.4508 C   0  0  0  0  0  0  0  0  0  0  0  0
   -2.4671   -0.0344   -0.0556 C   0  0  0  0  0  0  0  0  0  0  0  0
   -1.2310   -0.4446    0.5015 N   0  0  0  0  0  0  0  0  0  0  0  0
   -0.2760    0.2647    1.2229 C   0  0  0  0  0  0  0  0  0  0  0  0
   -0.5024    1.7034    2.0440 S   0  0  0  0  0  0  0  0  0  0  0  0
    0.9075   -0.4628    1.2326 N   0  0  0  0  0  0  0  0  0  0  0  0
    2.1819   -0.0729    1.8231 C   0  0  0  0  0  0  0  0  0  0  0  0
    3.1900    0.2398    0.7465 C   0  0  0  0  0  0  0  0  0  0  0  0
    4.1329   -0.7192    0.3486 C   0  0  0  0  0  0  0  0  0  0  0  0
    5.0501   -0.4325   -0.6642 C   0  0  0  0  0  0  0  0  0  0  0  0
    5.0304    0.8111   -1.2928 C   0  0  0  0  0  0  0  0  0  0  0  0
    4.0931    1.7690   -0.9111 C   0  0  0  0  0  0  0  0  0  0  0  0
    3.1759    1.4847    0.1016 C   0  0  0  0  0  0  0  0  0  0  0  0
   -2.4791   -2.8984   -0.5224 H   0  0  0  0  0  0  0  0  0  0  0  0
   -4.1941   -3.0348   -0.1216 H   0  0  0  0  0  0  0  0  0  0  0  0
   -3.0570   -2.5510    1.1358 H   0  0  0  0  0  0  0  0  0  0  0  0
   -5.4614   -1.3471   -1.0773 H   0  0  0  0  0  0  0  0  0  0  0  0
   -5.8467    1.0006   -1.7100 H   0  0  0  0  0  0  0  0  0  0  0  0
   -4.0746    2.6947   -1.3321 H   0  0  0  0  0  0  0  0  0  0  0  0
   -1.9380    2.0520   -0.3510 H   0  0  0  0  0  0  0  0  0  0  0  0
   -1.0957   -1.4435    0.5574 H   0  0  0  0  0  0  0  0  0  0  0  0
    0.9929   -1.1468    0.4939 H   0  0  0  0  0  0  0  0  0  0  0  0
    2.5228   -0.9279    2.4181 H   0  0  0  0  0  0  0  0  0  0  0  0
    2.0860    0.7714    2.5106 H   0  0  0  0  0  0  0  0  0  0  0  0
    4.1617   -1.6957    0.8266 H   0  0  0  0  0  0  0  0  0  0  0  0
    5.7808   -1.1795   -0.9636 H   0  0  0  0  0  0  0  0  0  0  0  0
    5.7444    1.0341   -2.0812 H   0  0  0  0  0  0  0  0  0  0  0  0
    4.0739    2.7382   -1.4027 H   0  0  0  0  0  0  0  0  0  0  0  0
    2.4458    2.2404    0.3853 H   0  0  0  0  0  0  0  0  0  0  0  0
  1  2  1  0
  2  3  2  0
  3  4  1  0
  4  5  2  0
  5  6  1  0
  6  7  2  0
  7  8  1  0
  8  9  1  0
  9 10  2  0
  9 11  1  0
 11 12  1  0
 12 13  1  0
 13 14  2  0
 14 15  1  0
 15 16  2  0
 16 17  1  0
 17 18  2  0
  7  2  1  0
 18 13  1  0
  1 19  1  0
  1 20  1  0
  1 21  1  0
  3 22  1  0
  4 23  1  0
  5 24  1  0
  6 25  1  0
  8 26  1  0
 11 27  1  0
 12 28  1  0
 12 29  1  0
 14 30  1  0
 15 31  1  0
 16 32  1  0
 17 33  1  0
 18 34  1  0
M  END
$$$$
