
     RDKit          3D

 53 57  0  0  0  0  0  0  0  0999 V2000
    5.8417   -0.0871    3.8201 C   0  0  0  0  0  0  0  0  0  0  0  0
    4.9076    0.8924    3.3845 O   0  0  0  0  0  0  0  0  0  0  0  0
    4.2669    0.6526    2.2004 C   0  0  0  0  0  0  0  0  0  0  0  0
    4.4264   -0.4728    1.3935 C   0  0  0  0  0  0  0  0  0  0  0  0
    3.7024   -0.5933    0.2012 C   0  0  0  0  0  0  0  0  0  0  0  0
    2.7992    0.4028   -0.1968 C   0  0  0  0  0  0  0  0  0  0  0  0
    2.0187    0.2648   -1.4880 C   0  0  0  0  0  0  0  0  0  0  0  0
    0.5638    0.2613   -1.2824 N   0  0  0  0  0  0  0  0  0  0  0  0
   -0.1447   -0.8459   -0.8697 C   0  0  0  0  0  0  0  0  0  0  0  0
    0.5649   -2.1242   -0.6563 C   0  0  0  0  0  0  0  0  0  0  0  0
    0.8685   -2.9424   -1.7483 C   0  0  0  0  0  0  0  0  0  0  0  0
    1.5176   -4.1578   -1.5323 C   0  0  0  0  0  0  0  0  0  0  0  0
    1.8429   -4.5548   -0.2330 C   0  0  0  0  0  0  0  0  0  0  0  0
    1.5129   -3.7441    0.8556 C   0  0  0  0  0  0  0  0  0  0  0  0
    0.8640   -2.5274    0.6474 C   0  0  0  0  0  0  0  0  0  0  0  0
   -1.4170   -0.8415   -0.6540 N   0  0  0  0  0  0  0  0  0  0  0  0
   -2.1581    0.3071   -0.8213 C   0  0  0  0  0  0  0  0  0  0  0  0
   -1.5690    1.4488   -1.2370 C   0  0  0  0  0  0  0  0  0  0  0  0
   -2.3866    2.6767   -1.4014 C   0  0  0  0  0  0  0  0  0  0  0  0
   -1.9116    3.7601   -1.7277 O   0  0  0  0  0  0  0  0  0  0  0  0
   -3.8381    2.5860   -1.1564 C   0  0  0  0  0  0  0  0  0  0  0  0
   -4.6359    3.7267   -1.3512 C   0  0  0  0  0  0  0  0  0  0  0  0
   -6.0064    3.6673   -1.1262 C   0  0  0  0  0  0  0  0  0  0  0  0
   -6.5756    2.4715   -0.7079 C   0  0  0  0  0  0  0  0  0  0  0  0
   -5.7744    1.3386   -0.5144 C   0  0  0  0  0  0  0  0  0  0  0  0
   -4.3839    1.3677   -0.7327 C   0  0  0  0  0  0  0  0  0  0  0  0
   -3.5400    0.2506   -0.5473 N   0  0  0  0  0  0  0  0  0  0  0  0
   -4.1670   -0.9913   -0.0802 C   0  0  0  0  0  0  0  0  0  0  0  0
   -0.1109    1.4470   -1.5151 C   0  0  0  0  0  0  0  0  0  0  0  0
    0.4650    2.4488   -1.9355 O   0  0  0  0  0  0  0  0  0  0  0  0
    2.6577    1.5378    0.6116 C   0  0  0  0  0  0  0  0  0  0  0  0
    3.3825    1.6557    1.8005 C   0  0  0  0  0  0  0  0  0  0  0  0
    6.2699    0.2567    4.7666 H   0  0  0  0  0  0  0  0  0  0  0  0
    5.3482   -1.0467    4.0076 H   0  0  0  0  0  0  0  0  0  0  0  0
    6.6628   -0.1968    3.1037 H   0  0  0  0  0  0  0  0  0  0  0  0
    5.1045   -1.2764    1.6603 H   0  0  0  0  0  0  0  0  0  0  0  0
    3.8457   -1.4834   -0.4091 H   0  0  0  0  0  0  0  0  0  0  0  0
    2.3188    1.0807   -2.1562 H   0  0  0  0  0  0  0  0  0  0  0  0
    2.3077   -0.6542   -2.0076 H   0  0  0  0  0  0  0  0  0  0  0  0
    0.5960   -2.6418   -2.7564 H   0  0  0  0  0  0  0  0  0  0  0  0
    1.7615   -4.8022   -2.3737 H   0  0  0  0  0  0  0  0  0  0  0  0
    2.3441   -5.5058   -0.0669 H   0  0  0  0  0  0  0  0  0  0  0  0
    1.7567   -4.0628    1.8661 H   0  0  0  0  0  0  0  0  0  0  0  0
    0.6005   -1.8963    1.4926 H   0  0  0  0  0  0  0  0  0  0  0  0
   -4.1852    4.6617   -1.6791 H   0  0  0  0  0  0  0  0  0  0  0  0
   -6.6239    4.5488   -1.2769 H   0  0  0  0  0  0  0  0  0  0  0  0
   -7.6469    2.4137   -0.5295 H   0  0  0  0  0  0  0  0  0  0  0  0
   -6.2777    0.4330   -0.1885 H   0  0  0  0  0  0  0  0  0  0  0  0
   -3.4516   -1.8035    0.0842 H   0  0  0  0  0  0  0  0  0  0  0  0
   -4.8909   -1.3595   -0.8163 H   0  0  0  0  0  0  0  0  0  0  0  0
   -4.6703   -0.8351    0.8811 H   0  0  0  0  0  0  0  0  0  0  0  0
    1.9886    2.3464    0.3226 H   0  0  0  0  0  0  0  0  0  0  0  0
    3.2578    2.5418    2.4184 H   0  0  0  0  0  0  0  0  0  0  0  0
  1  2  1  0
  2  3  1  0
  3  4  2  0
  4  5  1  0
  5  6  2  0
  6  7  1  0
  7  8  1  0
  8  9  1  0
  9 10  1  0
 10 11  2  0
 11 12  1  0
 12 13  2  0
 13 14  1  0
 14 15  2  0
  9 16  2  0
 16 17  1  0
 17 18  2  0
 18 19  1  0
 19 20  2  0
 19 21  1  0
 21 22  2  0
 22 23  1  0
 23 24  2  0
 24 25  1  0
 25 26  2  0
 26 27  1  0
 27 28  1  0
 18 29  1  0
 29 30  2  0
  6 31  1  0
 31 32  2  0
 32  3  1  0
 29  8  1  0
 15 10  1  0
 27 17  1  0
 26 21  1  0
  1 33  1  0
  1 34  1  0
  1 35  1  0
  4 36  1  0
  5 37  1  0
  7 38  1  0
  7 39  1  0
 11 40  1  0
 12 41  1  0
 13 42  1  0
 14 43  1  0
 15 44  1  0
 22 45  1  0
 23 46  1  0
 24 47  1  0
 25 48  1  0
 28 49  1  0
 28 50  1  0
 28 51  1  0
 31 52  1  0
 32 53  1  0
M  END
$$$$
