
     RDKit          3D

 37 39  0  0  0  0  0  0  0  0999 V2000
   -6.5282    1.6205    1.8920 C   0  0  0  0  0  0  0  0  0  0  0  0
   -6.5553    0.4793    0.8877 C   0  0  0  0  0  0  0  0  0  0  0  0
   -5.4226    0.5739   -0.0792 C   0  0  0  0  0  0  0  0  0  0  0  0
   -5.4371    1.2884   -1.1856 N   0  0  0  0  0  0  0  0  0  0  0  0
   -4.2493    1.1848   -1.8811 N   0  0  0  0  0  0  0  0  0  0  0  0
   -3.3873    0.3967   -1.2776 C   0  0  0  0  0  0  0  0  0  0  0  0
   -2.1411    0.1567   -1.8000 N   0  0  0  0  0  0  0  0  0  0  0  0
   -1.1586   -0.6538   -1.2646 C   0  0  0  0  0  0  0  0  0  0  0  0
   -1.2372   -1.3025   -0.2279 O   0  0  0  0  0  0  0  0  0  0  0  0
    0.1064   -0.6524   -2.1400 C   0  0  0  0  0  0  0  0  0  0  0  0
    1.1907   -1.4396   -1.6796 O   0  0  0  0  0  0  0  0  0  0  0  0
    2.0730   -0.8602   -0.8103 C   0  0  0  0  0  0  0  0  0  0  0  0
    1.8358    0.2748   -0.0389 C   0  0  0  0  0  0  0  0  0  0  0  0
    2.8301    0.7621    0.8167 C   0  0  0  0  0  0  0  0  0  0  0  0
    4.0730    0.1189    0.9197 C   0  0  0  0  0  0  0  0  0  0  0  0
    5.0801    0.5977    1.7735 C   0  0  0  0  0  0  0  0  0  0  0  0
    6.3083   -0.0591    1.8657 C   0  0  0  0  0  0  0  0  0  0  0  0
    6.5441   -1.2022    1.1079 C   0  0  0  0  0  0  0  0  0  0  0  0
    5.5523   -1.6914    0.2562 C   0  0  0  0  0  0  0  0  0  0  0  0
    4.3120   -1.0408    0.1506 C   0  0  0  0  0  0  0  0  0  0  0  0
    3.3021   -1.5176   -0.7015 C   0  0  0  0  0  0  0  0  0  0  0  0
   -3.9517   -0.2735    0.1814 S   0  0  0  0  0  0  0  0  0  0  0  0
   -5.6096    1.6035    2.4883 H   0  0  0  0  0  0  0  0  0  0  0  0
   -7.3785    1.5432    2.5769 H   0  0  0  0  0  0  0  0  0  0  0  0
   -6.5839    2.5923    1.3894 H   0  0  0  0  0  0  0  0  0  0  0  0
   -7.4999    0.5105    0.3320 H   0  0  0  0  0  0  0  0  0  0  0  0
   -6.5362   -0.4796    1.4188 H   0  0  0  0  0  0  0  0  0  0  0  0
   -1.9816    0.6379   -2.6749 H   0  0  0  0  0  0  0  0  0  0  0  0
    0.4192    0.3795   -2.3466 H   0  0  0  0  0  0  0  0  0  0  0  0
   -0.1892   -1.0813   -3.1056 H   0  0  0  0  0  0  0  0  0  0  0  0
    0.8844    0.7942   -0.0553 H   0  0  0  0  0  0  0  0  0  0  0  0
    2.6207    1.6471    1.4138 H   0  0  0  0  0  0  0  0  0  0  0  0
    4.9133    1.4877    2.3759 H   0  0  0  0  0  0  0  0  0  0  0  0
    7.0789    0.3214    2.5310 H   0  0  0  0  0  0  0  0  0  0  0  0
    7.4990   -1.7162    1.1801 H   0  0  0  0  0  0  0  0  0  0  0  0
    5.7535   -2.5875   -0.3265 H   0  0  0  0  0  0  0  0  0  0  0  0
    3.4701   -2.4134   -1.2955 H   0  0  0  0  0  0  0  0  0  0  0  0
  1  2  1  0
  2  3  1  0
  3  4  2  0
  4  5  1  0
  5  6  2  0
  6  7  1  0
  7  8  1  0
  8  9  2  0
  8 10  1  0
 10 11  1  0
 11 12  1  0
 12 13  2  0
 13 14  1  0
 14 15  2  0
 15 16  1  0
 16 17  2  0
 17 18  1  0
 18 19  2  0
 19 20  1  0
 20 21  2  0
  6 22  1  0
 22  3  1  0
 21 12  1  0
 20 15  1  0
  1 23  1  0
  1 24  1  0
  1 25  1  0
  2 26  1  0
  2 27  1  0
  7 28  1  0
 10 29  1  0
 10 30  1  0
 13 31  1  0
 14 32  1  0
 16 33  1  0
 17 34  1  0
 18 35  1  0
 19 36  1  0
 21 37  1  0
M  END
$$$$
