
     RDKit          3D

 57 61  0  0  0  0  0  0  0  0999 V2000
   -0.2400   -3.9268    4.6405 O   0  0  0  0  0  0  0  0  0  0  0  0
   -0.6114   -3.2165    3.7118 C   0  0  0  0  0  0  0  0  0  0  0  0
    0.2865   -2.5031    2.9263 N   0  0  0  0  0  0  0  0  0  0  0  0
   -0.0801   -1.7073    1.8444 C   0  0  0  0  0  0  0  0  0  0  0  0
    1.0853   -1.0342    1.1397 C   0  0  0  0  0  0  0  0  0  0  0  0
    0.8549   -0.9259   -0.3719 C   0  0  0  0  0  0  0  0  0  0  0  0
    0.4167    0.4748   -0.7767 C   0  0  0  0  0  0  0  0  0  0  0  0
    1.5007    1.4291   -0.4435 N   0  0  0  0  0  0  0  0  0  0  0  0
    1.2664    3.0081   -1.0170 S   0  0  0  0  0  6  0  0  0  0  0  0
    0.8087    2.9644   -2.3856 O   0  0  0  0  0  0  0  0  0  0  0  0
    0.5142    3.7150   -0.0052 O   0  0  0  0  0  0  0  0  0  0  0  0
    2.9319    3.6483   -1.0366 C   0  0  0  0  0  0  0  0  0  0  0  0
    3.2646    4.6214   -0.0784 C   0  0  0  0  0  0  0  0  0  0  0  0
    4.5559    5.1408   -0.0251 C   0  0  0  0  0  0  0  0  0  0  0  0
    5.5165    4.7017   -0.9322 C   0  0  0  0  0  0  0  0  0  0  0  0
    5.1826    3.7561   -1.9044 C   0  0  0  0  0  0  0  0  0  0  0  0
    3.8827    3.2097   -1.9808 C   0  0  0  0  0  0  0  0  0  0  0  0
    3.5812    2.2336   -3.0974 C   0  0  0  0  0  0  0  0  0  0  0  0
    4.7277    1.6933   -3.6215 F   0  0  0  0  0  0  0  0  0  0  0  0
    2.8429    1.1544   -2.7332 F   0  0  0  0  0  0  0  0  0  0  0  0
    2.9551    2.8161   -4.1544 F   0  0  0  0  0  0  0  0  0  0  0  0
    2.1164    1.2685    0.8934 C   0  0  0  0  0  0  0  0  0  0  0  0
    1.3262    0.3316    1.7951 C   0  0  0  0  0  0  0  0  0  0  0  0
   -1.3136   -1.4926    1.4775 N   0  0  0  0  0  0  0  0  0  0  0  0
   -2.2119   -2.1744    2.2329 C   0  0  0  0  0  0  0  0  0  0  0  0
   -1.9715   -3.0089    3.2978 C   0  0  0  0  0  0  0  0  0  0  0  0
   -3.1367   -3.5057    3.7939 N   0  0  0  0  0  0  0  0  0  0  0  0
   -4.1277   -2.9944    3.0637 N   0  0  0  0  0  0  0  0  0  0  0  0
   -3.5737   -2.2000    2.1123 N   0  0  0  0  0  0  0  0  0  0  0  0
   -4.4040   -1.4524    1.1899 C   0  0  0  0  0  0  0  0  0  0  0  0
   -4.5141   -2.1437   -0.1458 C   0  0  0  0  0  0  0  0  0  0  0  0
   -5.4013   -3.2149   -0.3242 C   0  0  0  0  0  0  0  0  0  0  0  0
   -5.5004   -3.8571   -1.5598 C   0  0  0  0  0  0  0  0  0  0  0  0
   -4.7108   -3.4371   -2.6290 C   0  0  0  0  0  0  0  0  0  0  0  0
   -3.8182   -2.3787   -2.4622 C   0  0  0  0  0  0  0  0  0  0  0  0
   -3.7179   -1.7375   -1.2263 C   0  0  0  0  0  0  0  0  0  0  0  0
    1.2555   -2.6310    3.1781 H   0  0  0  0  0  0  0  0  0  0  0  0
    1.9732   -1.6589    1.2940 H   0  0  0  0  0  0  0  0  0  0  0  0
    1.7996   -1.1492   -0.8806 H   0  0  0  0  0  0  0  0  0  0  0  0
    0.1354   -1.6691   -0.7263 H   0  0  0  0  0  0  0  0  0  0  0  0
   -0.5129    0.7649   -0.2759 H   0  0  0  0  0  0  0  0  0  0  0  0
    0.2432    0.4791   -1.8578 H   0  0  0  0  0  0  0  0  0  0  0  0
    2.5232    4.9841    0.6305 H   0  0  0  0  0  0  0  0  0  0  0  0
    4.8083    5.8952    0.7167 H   0  0  0  0  0  0  0  0  0  0  0  0
    6.5257    5.1064   -0.8977 H   0  0  0  0  0  0  0  0  0  0  0  0
    5.9526    3.4523   -2.6224 H   0  0  0  0  0  0  0  0  0  0  0  0
    2.2248    2.2294    1.3990 H   0  0  0  0  0  0  0  0  0  0  0  0
    3.1246    0.8715    0.7431 H   0  0  0  0  0  0  0  0  0  0  0  0
    1.8622    0.1940    2.7421 H   0  0  0  0  0  0  0  0  0  0  0  0
    0.3719    0.8086    2.0568 H   0  0  0  0  0  0  0  0  0  0  0  0
   -3.9718   -0.4491    1.0849 H   0  0  0  0  0  0  0  0  0  0  0  0
   -5.3954   -1.3238    1.6435 H   0  0  0  0  0  0  0  0  0  0  0  0
   -6.0168   -3.5607    0.5026 H   0  0  0  0  0  0  0  0  0  0  0  0
   -6.1909   -4.6885   -1.6877 H   0  0  0  0  0  0  0  0  0  0  0  0
   -4.7884   -3.9369   -3.5911 H   0  0  0  0  0  0  0  0  0  0  0  0
   -3.1967   -2.0544   -3.2950 H   0  0  0  0  0  0  0  0  0  0  0  0
   -3.0113   -0.9194   -1.1112 H   0  0  0  0  0  0  0  0  0  0  0  0
  1  2  2  0
  2  3  1  0
  3  4  1  0
  4  5  1  0
  5  6  1  0
  6  7  1  0
  7  8  1  0
  8  9  1  0
  9 10  2  0
  9 11  2  0
  9 12  1  0
 12 13  2  0
 13 14  1  0
 14 15  2  0
 15 16  1  0
 16 17  2  0
 17 18  1  0
 18 19  1  0
 18 20  1  0
 18 21  1  0
  8 22  1  0
 22 23  1  0
  4 24  2  0
 24 25  1  0
 25 26  2  0
 26 27  1  0
 27 28  2  0
 28 29  1  0
 29 30  1  0
 30 31  1  0
 31 32  2  0
 32 33  1  0
 33 34  2  0
 34 35  1  0
 35 36  2  0
 26  2  1  0
 36 31  1  0
 23  5  1  0
 29 25  1  0
 17 12  1  0
  3 37  1  0
  5 38  1  0
  6 39  1  0
  6 40  1  0
  7 41  1  0
  7 42  1  0
 13 43  1  0
 14 44  1  0
 15 45  1  0
 16 46  1  0
 22 47  1  0
 22 48  1  0
 23 49  1  0
 23 50  1  0
 30 51  1  0
 30 52  1  0
 32 53  1  0
 33 54  1  0
 34 55  1  0
 35 56  1  0
 36 57  1  0
M  END
$$$$
