
     RDKit          3D

 43 45  0  0  0  0  0  0  0  0999 V2000
   -6.2216    0.0631    1.4402 C   0  0  0  0  0  0  0  0  0  0  0  0
   -6.5526    0.7605    0.2048 N   0  0  0  0  0  0  0  0  0  0  0  0
   -7.9457    1.1391    0.0438 C   0  0  0  0  0  0  0  0  0  0  0  0
   -5.6146    1.3631   -0.6332 C   0  0  0  0  0  0  0  0  0  0  0  0
   -5.8929    2.2408   -1.4468 O   0  0  0  0  0  0  0  0  0  0  0  0
   -4.2065    0.9130   -0.5720 C   0  0  0  0  0  0  0  0  0  0  0  0
   -3.8803   -0.4300   -0.7731 C   0  0  0  0  0  0  0  0  0  0  0  0
   -2.5403   -0.8282   -0.7421 C   0  0  0  0  0  0  0  0  0  0  0  0
   -1.5174    0.1070   -0.5198 C   0  0  0  0  0  0  0  0  0  0  0  0
   -0.1949   -0.3859   -0.5052 N   0  0  0  0  0  0  0  0  0  0  0  0
    0.9754    0.3183   -0.2484 C   0  0  0  0  0  0  0  0  0  0  0  0
    1.0118    1.5081    0.0509 O   0  0  0  0  0  0  0  0  0  0  0  0
    2.1863   -0.4887   -0.3486 C   0  0  0  0  0  0  0  0  0  0  0  0
    2.4446   -1.7927   -0.7353 C   0  0  0  0  0  0  0  0  0  0  0  0
    3.8446   -1.9899   -0.6157 C   0  0  0  0  0  0  0  0  0  0  0  0
    4.3778   -0.7999   -0.1651 C   0  0  0  0  0  0  0  0  0  0  0  0
    5.7249   -0.3343    0.1585 C   0  0  0  0  0  0  0  0  0  0  0  0
    6.8266   -1.1974    0.0472 C   0  0  0  0  0  0  0  0  0  0  0  0
    8.1189   -0.7570    0.3560 C   0  0  0  0  0  0  0  0  0  0  0  0
    8.3221    0.5534    0.7796 C   0  0  0  0  0  0  0  0  0  0  0  0
    9.9103    1.0935    1.1590 Cl  0  0  0  0  0  0  0  0  0  0  0  0
    7.2455    1.4267    0.8969 C   0  0  0  0  0  0  0  0  0  0  0  0
    5.9550    0.9835    0.5876 C   0  0  0  0  0  0  0  0  0  0  0  0
    3.3716    0.1074   -0.0054 O   0  0  0  0  0  0  0  0  0  0  0  0
   -1.8579    1.4513   -0.3449 C   0  0  0  0  0  0  0  0  0  0  0  0
   -3.1973    1.8568   -0.3799 C   0  0  0  0  0  0  0  0  0  0  0  0
   -5.1481   -0.0576    1.5889 H   0  0  0  0  0  0  0  0  0  0  0  0
   -6.7002   -0.9201    1.4243 H   0  0  0  0  0  0  0  0  0  0  0  0
   -6.6127    0.6423    2.2828 H   0  0  0  0  0  0  0  0  0  0  0  0
   -8.1745    1.9461    0.7463 H   0  0  0  0  0  0  0  0  0  0  0  0
   -8.5804    0.2737    0.2559 H   0  0  0  0  0  0  0  0  0  0  0  0
   -8.1502    1.4841   -0.9737 H   0  0  0  0  0  0  0  0  0  0  0  0
   -4.6617   -1.1609   -0.9642 H   0  0  0  0  0  0  0  0  0  0  0  0
   -2.3111   -1.8791   -0.8995 H   0  0  0  0  0  0  0  0  0  0  0  0
   -0.0987   -1.3749   -0.6790 H   0  0  0  0  0  0  0  0  0  0  0  0
    1.7271   -2.5259   -1.0733 H   0  0  0  0  0  0  0  0  0  0  0  0
    4.3941   -2.8938   -0.8378 H   0  0  0  0  0  0  0  0  0  0  0  0
    6.6965   -2.2257   -0.2807 H   0  0  0  0  0  0  0  0  0  0  0  0
    8.9581   -1.4413    0.2633 H   0  0  0  0  0  0  0  0  0  0  0  0
    7.3967    2.4511    1.2265 H   0  0  0  0  0  0  0  0  0  0  0  0
    5.1259    1.6833    0.6854 H   0  0  0  0  0  0  0  0  0  0  0  0
   -1.1065    2.2203   -0.1926 H   0  0  0  0  0  0  0  0  0  0  0  0
   -3.4478    2.9089   -0.2617 H   0  0  0  0  0  0  0  0  0  0  0  0
  1  2  1  0
  2  3  1  0
  2  4  1  0
  4  5  2  0
  4  6  1  0
  6  7  2  0
  7  8  1  0
  8  9  2  0
  9 10  1  0
 10 11  1  0
 11 12  2  0
 11 13  1  0
 13 14  2  0
 14 15  1  0
 15 16  2  0
 16 17  1  0
 17 18  2  0
 18 19  1  0
 19 20  2  0
 20 21  1  0
 20 22  1  0
 22 23  2  0
 16 24  1  0
  9 25  1  0
 25 26  2  0
 26  6  1  0
 24 13  1  0
 23 17  1  0
  1 27  1  0
  1 28  1  0
  1 29  1  0
  3 30  1  0
  3 31  1  0
  3 32  1  0
  7 33  1  0
  8 34  1  0
 10 35  1  0
 14 36  1  0
 15 37  1  0
 18 38  1  0
 19 39  1  0
 22 40  1  0
 23 41  1  0
 25 42  1  0
 26 43  1  0
M  END
$$$$
