
     RDKit          3D

 46 49  0  0  0  0  0  0  0  0999 V2000
   -3.8297   -4.3082    1.2180 C   0  0  0  0  0  0  0  0  0  0  0  0
   -3.2487   -3.0661    1.5941 O   0  0  0  0  0  0  0  0  0  0  0  0
   -2.6451   -2.3413    0.6029 C   0  0  0  0  0  0  0  0  0  0  0  0
   -2.5618   -2.7014   -0.7423 C   0  0  0  0  0  0  0  0  0  0  0  0
   -1.9086   -1.8665   -1.6530 C   0  0  0  0  0  0  0  0  0  0  0  0
   -1.3409   -0.6663   -1.2252 C   0  0  0  0  0  0  0  0  0  0  0  0
   -1.4264   -0.2907    0.1188 C   0  0  0  0  0  0  0  0  0  0  0  0
   -0.8209    0.9550    0.5742 C   0  0  0  0  0  0  0  0  0  0  0  0
    0.5147    1.2680    0.7903 C   0  0  0  0  0  0  0  0  0  0  0  0
    1.6912    0.4234    0.6056 C   0  0  0  0  0  0  0  0  0  0  0  0
    1.6228   -0.7586    0.2833 O   0  0  0  0  0  0  0  0  0  0  0  0
    2.8850    1.1146    0.8365 N   0  0  0  0  0  0  0  0  0  0  0  0
    4.0792    0.4486    0.9666 N   0  0  0  0  0  0  0  0  0  0  0  0
    4.5539   -0.2285   -0.0452 C   0  0  0  0  0  0  0  0  0  0  0  0
    5.7597   -1.1014    0.2402 C   0  0  0  0  0  0  0  0  0  0  0  0
    4.0639   -0.1725   -1.4184 C   0  0  0  0  0  0  0  0  0  0  0  0
    3.6166    0.9279   -2.1338 C   0  0  0  0  0  0  0  0  0  0  0  0
    3.1928    0.5895   -3.4536 C   0  0  0  0  0  0  0  0  0  0  0  0
    3.3471   -0.7508   -3.6889 C   0  0  0  0  0  0  0  0  0  0  0  0
    2.9628   -1.5856   -5.1392 Cl  0  0  0  0  0  0  0  0  0  0  0  0
    3.9962   -1.5967   -2.3783 S   0  0  0  0  0  0  0  0  0  0  0  0
    0.6134    2.5606    1.2343 N   0  0  0  0  0  0  0  0  0  0  0  0
   -0.6029    3.0684    1.3068 N   0  0  0  0  0  0  0  0  0  0  0  0
   -1.5077    2.1311    0.8891 N   0  0  0  0  0  0  0  0  0  0  0  0
   -2.8904    2.4335    0.7961 C   0  0  0  0  0  0  0  0  0  0  0  0
   -3.7597    1.5597    0.2885 N   0  0  0  0  0  0  0  0  0  0  0  0
   -4.9837    2.2221    0.3466 O   0  0  0  0  0  0  0  0  0  0  0  0
   -4.8412    3.4996    0.8783 N   0  0  0  0  0  0  0  0  0  0  0  0
   -3.5455    3.6246    1.1620 C   0  0  0  0  0  0  0  0  0  0  0  0
   -2.9927    4.7238    1.7096 N   0  0  0  0  0  0  0  0  0  0  0  0
   -2.0732   -1.1379    1.0276 C   0  0  0  0  0  0  0  0  0  0  0  0
   -4.2594   -4.7618    2.1164 H   0  0  0  0  0  0  0  0  0  0  0  0
   -4.6418   -4.1621    0.4981 H   0  0  0  0  0  0  0  0  0  0  0  0
   -3.0728   -4.9964    0.8274 H   0  0  0  0  0  0  0  0  0  0  0  0
   -2.9883   -3.6264   -1.1151 H   0  0  0  0  0  0  0  0  0  0  0  0
   -1.8365   -2.1567   -2.6982 H   0  0  0  0  0  0  0  0  0  0  0  0
   -0.8267   -0.0373   -1.9475 H   0  0  0  0  0  0  0  0  0  0  0  0
    2.7900    1.9280    1.4419 H   0  0  0  0  0  0  0  0  0  0  0  0
    6.2149   -0.8198    1.1947 H   0  0  0  0  0  0  0  0  0  0  0  0
    5.4486   -2.1482    0.3018 H   0  0  0  0  0  0  0  0  0  0  0  0
    6.5091   -0.9880   -0.5484 H   0  0  0  0  0  0  0  0  0  0  0  0
    3.5946    1.9320   -1.7267 H   0  0  0  0  0  0  0  0  0  0  0  0
    2.8024    1.2916   -4.1792 H   0  0  0  0  0  0  0  0  0  0  0  0
   -3.5332    5.5820    1.7424 H   0  0  0  0  0  0  0  0  0  0  0  0
   -1.9832    4.8572    1.7260 H   0  0  0  0  0  0  0  0  0  0  0  0
   -2.1380   -0.8718    2.0800 H   0  0  0  0  0  0  0  0  0  0  0  0
  1  2  1  0
  2  3  1  0
  3  4  2  0
  4  5  1  0
  5  6  2  0
  6  7  1  0
  7  8  1  0
  8  9  2  0
  9 10  1  0
 10 11  2  0
 10 12  1  0
 12 13  1  0
 13 14  2  3
 14 15  1  0
 14 16  1  0
 16 17  2  0
 17 18  1  0
 18 19  2  0
 19 20  1  0
 19 21  1  0
  9 22  1  0
 22 23  2  0
 23 24  1  0
 24 25  1  0
 25 26  2  0
 26 27  1  0
 27 28  1  0
 28 29  2  0
 29 30  1  0
  7 31  2  0
 31  3  1  0
 24  8  1  0
 29 25  1  0
 21 16  1  0
  1 32  1  0
  1 33  1  0
  1 34  1  0
  4 35  1  0
  5 36  1  0
  6 37  1  0
 12 38  1  0
 15 39  1  0
 15 40  1  0
 15 41  1  0
 17 42  1  0
 18 43  1  0
 30 44  1  0
 30 45  1  0
 31 46  1  0
M  END
$$$$
