
     RDKit          3D

 60 63  0  0  0  0  0  0  0  0999 V2000
   -8.3207   -2.2653    1.1024 C   0  0  0  0  0  0  0  0  0  0  0  0
   -8.1421   -0.8564    1.1206 O   0  0  0  0  0  0  0  0  0  0  0  0
   -6.9650   -0.3546    0.6227 C   0  0  0  0  0  0  0  0  0  0  0  0
   -5.9235   -1.1418    0.1153 C   0  0  0  0  0  0  0  0  0  0  0  0
   -4.7580   -0.5432   -0.3650 C   0  0  0  0  0  0  0  0  0  0  0  0
   -4.6339    0.8461   -0.3292 C   0  0  0  0  0  0  0  0  0  0  0  0
   -3.1408    1.5908   -0.9303 S   0  0  0  0  0  6  0  0  0  0  0  0
   -2.7608    0.8961   -2.1410 O   0  0  0  0  0  0  0  0  0  0  0  0
   -3.3018    3.0284   -0.9121 O   0  0  0  0  0  0  0  0  0  0  0  0
   -2.0301    1.1783    0.2653 N   0  0  0  0  0  0  0  0  0  0  0  0
   -2.2377    1.7099    1.6204 C   0  0  0  0  0  0  0  0  0  0  0  0
   -0.8485    1.6166    2.2075 C   0  0  0  0  0  0  0  0  0  0  0  0
    0.0033    1.9771    1.1195 O   0  0  0  0  0  0  0  0  0  0  0  0
   -0.6249    1.4897   -0.0840 C   0  0  0  0  0  0  0  0  0  0  0  0
    0.0883    0.2143   -0.5919 C   0  0  0  0  0  0  0  0  0  0  0  0
    1.4988    0.4149   -0.8704 N   0  0  0  0  0  0  0  0  0  0  0  0
    2.4631    0.2353    0.0958 C   0  0  0  0  0  0  0  0  0  0  0  0
    2.3004   -0.2588    1.2031 O   0  0  0  0  0  0  0  0  0  0  0  0
    3.8656    0.7204   -0.3366 C   0  0  0  0  0  0  0  0  0  0  0  0
    4.0234    1.2354   -1.4349 O   0  0  0  0  0  0  0  0  0  0  0  0
    4.8364    0.5003    0.6105 N   0  0  0  0  0  0  0  0  0  0  0  0
    6.2334    0.7261    0.3511 C   0  0  0  0  0  0  0  0  0  0  0  0
    6.9167   -0.5544   -0.0558 C   0  0  0  0  0  0  0  0  0  0  0  0
    7.5263   -1.3808    0.9169 C   0  0  0  0  0  0  0  0  0  0  0  0
    8.1438   -2.5827    0.5551 C   0  0  0  0  0  0  0  0  0  0  0  0
    8.1304   -2.9351   -0.7766 C   0  0  0  0  0  0  0  0  0  0  0  0
    7.5321   -2.1445   -1.7286 C   0  0  0  0  0  0  0  0  0  0  0  0
    6.9156   -0.9549   -1.4029 C   0  0  0  0  0  0  0  0  0  0  0  0
    7.6261   -2.6750   -2.9771 O   0  0  0  0  0  0  0  0  0  0  0  0
    8.3561   -3.8882   -2.7020 C   0  0  0  0  0  0  0  0  0  0  0  0
    8.6778   -4.0616   -1.3062 O   0  0  0  0  0  0  0  0  0  0  0  0
   -5.6674    1.6494    0.1601 C   0  0  0  0  0  0  0  0  0  0  0  0
   -6.8374    1.0525    0.6384 C   0  0  0  0  0  0  0  0  0  0  0  0
   -7.9037    1.7483    1.1525 O   0  0  0  0  0  0  0  0  0  0  0  0
   -7.8921    3.1636    1.0254 C   0  0  0  0  0  0  0  0  0  0  0  0
   -7.5735   -2.7658    1.7267 H   0  0  0  0  0  0  0  0  0  0  0  0
   -8.3057   -2.6526    0.0784 H   0  0  0  0  0  0  0  0  0  0  0  0
   -9.3063   -2.4830    1.5252 H   0  0  0  0  0  0  0  0  0  0  0  0
   -5.9900   -2.2242    0.0789 H   0  0  0  0  0  0  0  0  0  0  0  0
   -3.9546   -1.1612   -0.7609 H   0  0  0  0  0  0  0  0  0  0  0  0
   -2.9592    1.1211    2.1907 H   0  0  0  0  0  0  0  0  0  0  0  0
   -2.5575    2.7564    1.5839 H   0  0  0  0  0  0  0  0  0  0  0  0
   -0.6942    2.2952    3.0504 H   0  0  0  0  0  0  0  0  0  0  0  0
   -0.6041    0.5948    2.5191 H   0  0  0  0  0  0  0  0  0  0  0  0
   -0.5429    2.2930   -0.8243 H   0  0  0  0  0  0  0  0  0  0  0  0
   -0.0026   -0.5838    0.1545 H   0  0  0  0  0  0  0  0  0  0  0  0
   -0.3723   -0.1409   -1.5186 H   0  0  0  0  0  0  0  0  0  0  0  0
    1.7915    0.9087   -1.7102 H   0  0  0  0  0  0  0  0  0  0  0  0
    4.5527   -0.0312    1.4284 H   0  0  0  0  0  0  0  0  0  0  0  0
    6.3600    1.4885   -0.4262 H   0  0  0  0  0  0  0  0  0  0  0  0
    6.6804    1.1214    1.2699 H   0  0  0  0  0  0  0  0  0  0  0  0
    7.5200   -1.0862    1.9648 H   0  0  0  0  0  0  0  0  0  0  0  0
    8.6153   -3.2187    1.2956 H   0  0  0  0  0  0  0  0  0  0  0  0
    6.4408   -0.3522   -2.1715 H   0  0  0  0  0  0  0  0  0  0  0  0
    9.2891   -3.8740   -3.2774 H   0  0  0  0  0  0  0  0  0  0  0  0
    7.7535   -4.7427   -3.0315 H   0  0  0  0  0  0  0  0  0  0  0  0
   -5.5403    2.7270    0.1649 H   0  0  0  0  0  0  0  0  0  0  0  0
   -7.0966    3.6049    1.6343 H   0  0  0  0  0  0  0  0  0  0  0  0
   -7.8050    3.4686   -0.0227 H   0  0  0  0  0  0  0  0  0  0  0  0
   -8.8472    3.5408    1.4032 H   0  0  0  0  0  0  0  0  0  0  0  0
  1  2  1  0
  2  3  1  0
  3  4  2  0
  4  5  1  0
  5  6  2  0
  6  7  1  0
  7  8  2  0
  7  9  2  0
  7 10  1  0
 10 11  1  0
 11 12  1  0
 12 13  1  0
 13 14  1  0
 14 15  1  0
 15 16  1  0
 16 17  1  0
 17 18  2  0
 17 19  1  0
 19 20  2  0
 19 21  1  0
 21 22  1  0
 22 23  1  0
 23 24  2  0
 24 25  1  0
 25 26  2  0
 26 27  1  0
 27 28  2  0
 27 29  1  0
 29 30  1  0
 30 31  1  0
  6 32  1  0
 32 33  2  0
 33 34  1  0
 34 35  1  0
 33  3  1  0
 14 10  1  0
 28 23  1  0
 31 26  1  0
  1 36  1  0
  1 37  1  0
  1 38  1  0
  4 39  1  0
  5 40  1  0
 11 41  1  0
 11 42  1  0
 12 43  1  0
 12 44  1  0
 14 45  1  0
 15 46  1  0
 15 47  1  0
 16 48  1  0
 21 49  1  0
 22 50  1  0
 22 51  1  0
 24 52  1  0
 25 53  1  0
 28 54  1  0
 30 55  1  0
 30 56  1  0
 32 57  1  0
 35 58  1  0
 35 59  1  0
 35 60  1  0
M  END
$$$$
