
     RDKit          3D

 46 48  0  0  0  0  0  0  0  0999 V2000
    1.8663    2.4310   -2.8560 O   0  0  0  0  0  0  0  0  0  0  0  0
    1.2852    1.4555   -2.3792 C   0  0  0  0  0  0  0  0  0  0  0  0
   -0.2010    1.4613   -2.0360 C   0  0  0  0  0  0  0  0  0  0  0  0
   -0.5257    0.3481   -1.2084 O   0  0  0  0  0  0  0  0  0  0  0  0
   -1.8213    0.2428   -0.7875 C   0  0  0  0  0  0  0  0  0  0  0  0
   -2.0806   -0.8590    0.0276 C   0  0  0  0  0  0  0  0  0  0  0  0
   -3.3655   -1.0893    0.5291 C   0  0  0  0  0  0  0  0  0  0  0  0
   -4.4222   -0.2183    0.2292 C   0  0  0  0  0  0  0  0  0  0  0  0
   -5.7743   -0.4543    0.7592 C   0  0  0  0  0  0  0  0  0  0  0  0
   -6.4314   -1.6778    0.5452 C   0  0  0  0  0  0  0  0  0  0  0  0
   -7.7138   -1.9048    1.0517 C   0  0  0  0  0  0  0  0  0  0  0  0
   -8.3606   -0.9112    1.7827 C   0  0  0  0  0  0  0  0  0  0  0  0
   -7.7271    0.3087    2.0065 C   0  0  0  0  0  0  0  0  0  0  0  0
   -6.4450    0.5343    1.4982 C   0  0  0  0  0  0  0  0  0  0  0  0
   -4.1472    0.8873   -0.5917 C   0  0  0  0  0  0  0  0  0  0  0  0
   -2.8608    1.1165   -1.0983 C   0  0  0  0  0  0  0  0  0  0  0  0
    1.9261    0.2522   -2.1432 N   0  0  0  0  0  0  0  0  0  0  0  0
    3.3447    0.2855   -2.1295 N   0  0  0  0  0  0  0  0  0  0  0  0
    3.9402   -0.0986   -0.9333 C   0  0  0  0  0  0  0  0  0  0  0  0
    3.2901   -0.6012   -0.0223 O   0  0  0  0  0  0  0  0  0  0  0  0
    5.2949    0.1376   -0.9495 N   0  0  0  0  0  0  0  0  0  0  0  0
    6.2167   -0.0657    0.0977 C   0  0  0  0  0  0  0  0  0  0  0  0
    5.8605   -0.4192    1.4010 C   0  0  0  0  0  0  0  0  0  0  0  0
    6.8501   -0.5892    2.3758 C   0  0  0  0  0  0  0  0  0  0  0  0
    8.1892   -0.4034    2.0463 C   0  0  0  0  0  0  0  0  0  0  0  0
    9.1283   -0.5670    2.9864 F   0  0  0  0  0  0  0  0  0  0  0  0
    8.5655   -0.0485    0.7597 C   0  0  0  0  0  0  0  0  0  0  0  0
    7.5756    0.1194   -0.2009 C   0  0  0  0  0  0  0  0  0  0  0  0
    7.9344    0.4703   -1.4466 F   0  0  0  0  0  0  0  0  0  0  0  0
   -0.4036    2.3981   -1.5048 H   0  0  0  0  0  0  0  0  0  0  0  0
   -0.7544    1.4124   -2.9804 H   0  0  0  0  0  0  0  0  0  0  0  0
   -1.2773   -1.5464    0.2815 H   0  0  0  0  0  0  0  0  0  0  0  0
   -3.5329   -1.9528    1.1694 H   0  0  0  0  0  0  0  0  0  0  0  0
   -5.9475   -2.4636   -0.0311 H   0  0  0  0  0  0  0  0  0  0  0  0
   -8.2060   -2.8572    0.8735 H   0  0  0  0  0  0  0  0  0  0  0  0
   -9.3572   -1.0874    2.1784 H   0  0  0  0  0  0  0  0  0  0  0  0
   -8.2270    1.0842    2.5809 H   0  0  0  0  0  0  0  0  0  0  0  0
   -5.9622    1.4893    1.6964 H   0  0  0  0  0  0  0  0  0  0  0  0
   -4.9458    1.5789   -0.8555 H   0  0  0  0  0  0  0  0  0  0  0  0
   -2.7148    1.9852   -1.7315 H   0  0  0  0  0  0  0  0  0  0  0  0
    1.5056   -0.3603   -1.4375 H   0  0  0  0  0  0  0  0  0  0  0  0
    3.7199    1.1267   -2.5678 H   0  0  0  0  0  0  0  0  0  0  0  0
    5.6987    0.3817   -1.8460 H   0  0  0  0  0  0  0  0  0  0  0  0
    4.8245   -0.5647    1.6925 H   0  0  0  0  0  0  0  0  0  0  0  0
    6.5794   -0.8644    3.3918 H   0  0  0  0  0  0  0  0  0  0  0  0
    9.6094    0.0973    0.5095 H   0  0  0  0  0  0  0  0  0  0  0  0
  1  2  2  0
  2  3  1  0
  3  4  1  0
  4  5  1  0
  5  6  2  0
  6  7  1  0
  7  8  2  0
  8  9  1  0
  9 10  2  0
 10 11  1  0
 11 12  2  0
 12 13  1  0
 13 14  2  0
  8 15  1  0
 15 16  2  0
  2 17  1  0
 17 18  1  0
 18 19  1  0
 19 20  2  0
 19 21  1  0
 21 22  1  0
 22 23  2  0
 23 24  1  0
 24 25  2  0
 25 26  1  0
 25 27  1  0
 27 28  2  0
 28 29  1  0
 16  5  1  0
 28 22  1  0
 14  9  1  0
  3 30  1  0
  3 31  1  0
  6 32  1  0
  7 33  1  0
 10 34  1  0
 11 35  1  0
 12 36  1  0
 13 37  1  0
 14 38  1  0
 15 39  1  0
 16 40  1  0
 17 41  1  0
 18 42  1  0
 21 43  1  0
 23 44  1  0
 24 45  1  0
 27 46  1  0
M  END
$$$$
