
     RDKit          3D

 36 37  0  0  0  0  0  0  0  0999 V2000
    6.2179    1.2059    0.7564 C   0  0  0  0  0  0  0  0  0  0  0  0
    4.8896    1.0353    0.2598 O   0  0  0  0  0  0  0  0  0  0  0  0
    4.3357   -0.1635    0.5708 C   0  0  0  0  0  0  0  0  0  0  0  0
    4.8719   -1.0516    1.2148 O   0  0  0  0  0  0  0  0  0  0  0  0
    2.9574   -0.2660    0.0183 C   0  0  0  0  0  0  0  0  0  0  0  0
    2.3600    0.7677   -0.7123 C   0  0  0  0  0  0  0  0  0  0  0  0
    1.0604    0.6189   -1.2087 C   0  0  0  0  0  0  0  0  0  0  0  0
    0.3250   -0.5545   -0.9718 C   0  0  0  0  0  0  0  0  0  0  0  0
   -1.0772   -0.7283   -1.5503 C   0  0  0  0  0  0  0  0  0  0  0  0
   -1.7685    0.5021   -1.7797 O   0  0  0  0  0  0  0  0  0  0  0  0
   -2.3059    1.0732   -0.5916 C   0  0  0  0  0  0  0  0  0  0  0  0
   -3.2281    0.0876    0.1307 C   0  0  0  0  0  0  0  0  0  0  0  0
   -4.4621   -0.2153   -0.7394 C   0  0  0  0  0  0  0  0  0  0  0  0
   -3.6859    0.6743    1.4713 C   0  0  0  0  0  0  0  0  0  0  0  0
   -2.4214   -1.1930    0.3608 C   0  0  0  0  0  0  0  0  0  0  0  0
   -1.8797   -1.6882   -0.8589 O   0  0  0  0  0  0  0  0  0  0  0  0
    0.9449   -1.5952   -0.2614 C   0  0  0  0  0  0  0  0  0  0  0  0
    2.2432   -1.4500    0.2368 C   0  0  0  0  0  0  0  0  0  0  0  0
    6.8873    0.4536    0.3276 H   0  0  0  0  0  0  0  0  0  0  0  0
    6.5689    2.1956    0.4511 H   0  0  0  0  0  0  0  0  0  0  0  0
    6.2277    1.1570    1.8498 H   0  0  0  0  0  0  0  0  0  0  0  0
    2.8935    1.6941   -0.9105 H   0  0  0  0  0  0  0  0  0  0  0  0
    0.6215    1.4299   -1.7887 H   0  0  0  0  0  0  0  0  0  0  0  0
   -0.9168   -1.1557   -2.5473 H   0  0  0  0  0  0  0  0  0  0  0  0
   -1.4854    1.4015    0.0578 H   0  0  0  0  0  0  0  0  0  0  0  0
   -2.8553    1.9763   -0.8813 H   0  0  0  0  0  0  0  0  0  0  0  0
   -4.1881   -0.6380   -1.7119 H   0  0  0  0  0  0  0  0  0  0  0  0
   -5.0416    0.6957   -0.9275 H   0  0  0  0  0  0  0  0  0  0  0  0
   -5.1246   -0.9332   -0.2428 H   0  0  0  0  0  0  0  0  0  0  0  0
   -2.8310    0.9025    2.1177 H   0  0  0  0  0  0  0  0  0  0  0  0
   -4.2488    1.6028    1.3245 H   0  0  0  0  0  0  0  0  0  0  0  0
   -4.3318   -0.0281    2.0099 H   0  0  0  0  0  0  0  0  0  0  0  0
   -1.6096   -1.0295    1.0799 H   0  0  0  0  0  0  0  0  0  0  0  0
   -3.0569   -1.9808    0.7812 H   0  0  0  0  0  0  0  0  0  0  0  0
    0.4172   -2.5330   -0.0924 H   0  0  0  0  0  0  0  0  0  0  0  0
    2.6966   -2.2701    0.7913 H   0  0  0  0  0  0  0  0  0  0  0  0
  1  2  1  0
  2  3  1  0
  3  4  2  0
  3  5  1  0
  5  6  2  0
  6  7  1  0
  7  8  2  0
  8  9  1  0
  9 10  1  0
 10 11  1  0
 11 12  1  0
 12 13  1  0
 12 14  1  0
 12 15  1  0
 15 16  1  0
  8 17  1  0
 17 18  2  0
 18  5  1  0
 16  9  1  0
  1 19  1  0
  1 20  1  0
  1 21  1  0
  6 22  1  0
  7 23  1  0
  9 24  1  0
 11 25  1  0
 11 26  1  0
 13 27  1  0
 13 28  1  0
 13 29  1  0
 14 30  1  0
 14 31  1  0
 14 32  1  0
 15 33  1  0
 15 34  1  0
 17 35  1  0
 18 36  1  0
M  END
$$$$
