
     RDKit          3D

 41 43  0  0  0  0  0  0  0  0999 V2000
   -2.4224    0.4794    3.0992 C   0  0  0  0  0  0  0  0  0  0  0  0
   -2.7827   -0.2651    1.8484 C   0  0  0  0  0  0  0  0  0  0  0  0
   -3.5441   -1.4339    1.9095 C   0  0  0  0  0  0  0  0  0  0  0  0
   -3.9081   -2.1058    0.7391 C   0  0  0  0  0  0  0  0  0  0  0  0
   -3.5292   -1.6227   -0.5239 C   0  0  0  0  0  0  0  0  0  0  0  0
   -3.9639   -2.3889   -1.7418 C   0  0  0  0  0  0  0  0  0  0  0  0
   -2.7509   -0.4516   -0.5821 C   0  0  0  0  0  0  0  0  0  0  0  0
   -2.1709    0.1994   -2.1413 S   0  0  0  0  0  6  0  0  0  0  0  0
   -1.8076   -0.8963   -3.0129 O   0  0  0  0  0  0  0  0  0  0  0  0
   -3.1386    1.1974   -2.5489 O   0  0  0  0  0  0  0  0  0  0  0  0
   -0.7735    1.0457   -1.7666 N   0  0  0  0  0  0  0  0  0  0  0  0
    0.4879    0.4556   -1.4670 C   0  0  0  0  0  0  0  0  0  0  0  0
    0.6638   -0.8874   -1.1357 C   0  0  0  0  0  0  0  0  0  0  0  0
    1.9284   -1.3681   -0.7877 C   0  0  0  0  0  0  0  0  0  0  0  0
    3.0187   -0.5045   -0.7487 C   0  0  0  0  0  0  0  0  0  0  0  0
    4.2130   -1.0637   -0.3866 O   0  0  0  0  0  0  0  0  0  0  0  0
    2.8672    0.8496   -1.0670 C   0  0  0  0  0  0  0  0  0  0  0  0
    4.2240    2.0106   -1.1220 S   0  0  0  0  0  0  0  0  0  0  0  0
    4.7157    2.0582    0.5465 C   0  0  0  0  0  0  0  0  0  0  0  0
    4.4488    3.1012    1.3870 N   0  0  0  0  0  0  0  0  0  0  0  0
    5.0055    2.7213    2.5129 C   0  0  0  0  0  0  0  0  0  0  0  0
    5.5783    1.4996    2.3475 N   0  0  0  0  0  0  0  0  0  0  0  0
    5.4020    1.0468    1.0935 N   0  0  0  0  0  0  0  0  0  0  0  0
    1.5922    1.3174   -1.4197 C   0  0  0  0  0  0  0  0  0  0  0  0
   -2.4025    0.2308    0.5961 C   0  0  0  0  0  0  0  0  0  0  0  0
   -2.3651   -0.1970    3.9579 H   0  0  0  0  0  0  0  0  0  0  0  0
   -1.4421    0.9554    2.9952 H   0  0  0  0  0  0  0  0  0  0  0  0
   -3.1721    1.2495    3.3058 H   0  0  0  0  0  0  0  0  0  0  0  0
   -3.8661   -1.8322    2.8693 H   0  0  0  0  0  0  0  0  0  0  0  0
   -4.5027   -3.0144    0.8221 H   0  0  0  0  0  0  0  0  0  0  0  0
   -3.1350   -2.9840   -2.1332 H   0  0  0  0  0  0  0  0  0  0  0  0
   -4.3424   -1.7158   -2.5172 H   0  0  0  0  0  0  0  0  0  0  0  0
   -4.7842   -3.0761   -1.5042 H   0  0  0  0  0  0  0  0  0  0  0  0
   -0.8175    2.0242   -2.0463 H   0  0  0  0  0  0  0  0  0  0  0  0
   -0.1564   -1.5973   -1.1465 H   0  0  0  0  0  0  0  0  0  0  0  0
    2.0620   -2.4187   -0.5442 H   0  0  0  0  0  0  0  0  0  0  0  0
    4.8221   -0.3459   -0.1131 H   0  0  0  0  0  0  0  0  0  0  0  0
    5.0249    3.2691    3.4443 H   0  0  0  0  0  0  0  0  0  0  0  0
    6.0901    0.9338    3.0176 H   0  0  0  0  0  0  0  0  0  0  0  0
    1.4629    2.3687   -1.6696 H   0  0  0  0  0  0  0  0  0  0  0  0
   -1.8295    1.1552    0.5487 H   0  0  0  0  0  0  0  0  0  0  0  0
  1  2  1  0
  2  3  2  0
  3  4  1  0
  4  5  2  0
  5  6  1  0
  5  7  1  0
  7  8  1  0
  8  9  2  0
  8 10  2  0
  8 11  1  0
 11 12  1  0
 12 13  2  0
 13 14  1  0
 14 15  2  0
 15 16  1  0
 15 17  1  0
 17 18  1  0
 18 19  1  0
 19 20  1  0
 20 21  2  0
 21 22  1  0
 22 23  1  0
 17 24  2  0
  7 25  2  0
 25  2  1  0
 24 12  1  0
 23 19  2  0
  1 26  1  0
  1 27  1  0
  1 28  1  0
  3 29  1  0
  4 30  1  0
  6 31  1  0
  6 32  1  0
  6 33  1  0
 11 34  1  0
 13 35  1  0
 14 36  1  0
 16 37  1  0
 21 38  1  0
 22 39  1  0
 24 40  1  0
 25 41  1  0
M  END
$$$$
