
     RDKit          3D

 54 57  0  0  0  0  0  0  0  0999 V2000
    1.0197   -1.9038    0.8528 O   0  0  0  0  0  0  0  0  0  0  0  0
    0.1592   -1.5857    0.0348 C   0  0  0  0  0  0  0  0  0  0  0  0
   -1.1295   -2.4070   -0.1127 C   0  0  0  0  0  0  0  0  0  0  0  0
   -2.3314   -1.7127    0.2240 O   0  0  0  0  0  0  0  0  0  0  0  0
   -2.8316   -0.9042   -0.7398 C   0  0  0  0  0  0  0  0  0  0  0  0
   -2.2990   -0.6894   -1.8194 O   0  0  0  0  0  0  0  0  0  0  0  0
   -4.1143   -0.2870   -0.3114 C   0  0  0  0  0  0  0  0  0  0  0  0
   -4.7615    0.5815   -1.2042 C   0  0  0  0  0  0  0  0  0  0  0  0
   -5.9658    1.1923   -0.8461 C   0  0  0  0  0  0  0  0  0  0  0  0
   -6.5256    0.9401    0.4038 C   0  0  0  0  0  0  0  0  0  0  0  0
   -5.8990    0.0538    1.2862 C   0  0  0  0  0  0  0  0  0  0  0  0
   -4.6892   -0.5480    0.9395 C   0  0  0  0  0  0  0  0  0  0  0  0
   -6.4116   -0.2654    2.5177 O   0  0  0  0  0  0  0  0  0  0  0  0
   -7.7852    0.1258    2.6317 C   0  0  0  0  0  0  0  0  0  0  0  0
   -7.9885    1.5343    2.0982 C   0  0  0  0  0  0  0  0  0  0  0  0
   -7.6961    1.5904    0.6968 O   0  0  0  0  0  0  0  0  0  0  0  0
    0.2488   -0.5418   -0.8698 N   0  0  0  0  0  0  0  0  0  0  0  0
    1.2877    0.3996   -0.9901 C   0  0  0  0  0  0  0  0  0  0  0  0
    1.2750    1.2294   -2.1189 C   0  0  0  0  0  0  0  0  0  0  0  0
    2.2909    2.1657   -2.3296 C   0  0  0  0  0  0  0  0  0  0  0  0
    3.3332    2.2791   -1.4132 C   0  0  0  0  0  0  0  0  0  0  0  0
    3.3434    1.4578   -0.2826 C   0  0  0  0  0  0  0  0  0  0  0  0
    4.6583    1.6085    0.9087 S   0  0  0  0  0  6  0  0  0  0  0  0
    4.0693    1.4986    2.2251 O   0  0  0  0  0  0  0  0  0  0  0  0
    5.4424    2.7690    0.5373 O   0  0  0  0  0  0  0  0  0  0  0  0
    5.6170    0.2438    0.6272 N   0  0  0  0  0  0  0  0  0  0  0  0
    5.1322   -1.0876    1.0914 C   0  0  0  0  0  0  0  0  0  0  0  0
    4.9471   -2.0448   -0.0909 C   0  0  0  0  0  0  0  0  0  0  0  0
    6.1485   -2.2640   -0.8468 O   0  0  0  0  0  0  0  0  0  0  0  0
    7.0678   -1.1635   -0.7947 C   0  0  0  0  0  0  0  0  0  0  0  0
    6.3705    0.1937   -0.6543 C   0  0  0  0  0  0  0  0  0  0  0  0
    2.3092    0.5441   -0.0528 C   0  0  0  0  0  0  0  0  0  0  0  0
   -1.0575   -3.2613    0.5699 H   0  0  0  0  0  0  0  0  0  0  0  0
   -1.1830   -2.8256   -1.1256 H   0  0  0  0  0  0  0  0  0  0  0  0
   -4.3301    0.7906   -2.1813 H   0  0  0  0  0  0  0  0  0  0  0  0
   -6.4598    1.8725   -1.5354 H   0  0  0  0  0  0  0  0  0  0  0  0
   -4.2155   -1.2207    1.6499 H   0  0  0  0  0  0  0  0  0  0  0  0
   -8.4006   -0.6021    2.0887 H   0  0  0  0  0  0  0  0  0  0  0  0
   -8.0562    0.0792    3.6911 H   0  0  0  0  0  0  0  0  0  0  0  0
   -7.3471    2.2573    2.6173 H   0  0  0  0  0  0  0  0  0  0  0  0
   -9.0299    1.8434    2.2322 H   0  0  0  0  0  0  0  0  0  0  0  0
   -0.4976   -0.4852   -1.5655 H   0  0  0  0  0  0  0  0  0  0  0  0
    0.4776    1.1504   -2.8550 H   0  0  0  0  0  0  0  0  0  0  0  0
    2.2685    2.8032   -3.2104 H   0  0  0  0  0  0  0  0  0  0  0  0
    4.1214    3.0100   -1.5810 H   0  0  0  0  0  0  0  0  0  0  0  0
    5.8924   -1.4843    1.7752 H   0  0  0  0  0  0  0  0  0  0  0  0
    4.2039   -1.0101    1.6615 H   0  0  0  0  0  0  0  0  0  0  0  0
    4.6021   -3.0203    0.2654 H   0  0  0  0  0  0  0  0  0  0  0  0
    4.1891   -1.6646   -0.7841 H   0  0  0  0  0  0  0  0  0  0  0  0
    7.6617   -1.1898   -1.7139 H   0  0  0  0  0  0  0  0  0  0  0  0
    7.7528   -1.3366    0.0434 H   0  0  0  0  0  0  0  0  0  0  0  0
    7.1212    0.9897   -0.6657 H   0  0  0  0  0  0  0  0  0  0  0  0
    5.6833    0.3334   -1.4948 H   0  0  0  0  0  0  0  0  0  0  0  0
    2.3114   -0.0317    0.8663 H   0  0  0  0  0  0  0  0  0  0  0  0
  1  2  2  0
  2  3  1  0
  3  4  1  0
  4  5  1  0
  5  6  2  0
  5  7  1  0
  7  8  2  0
  8  9  1  0
  9 10  2  0
 10 11  1  0
 11 12  2  0
 11 13  1  0
 13 14  1  0
 14 15  1  0
 15 16  1  0
  2 17  1  0
 17 18  1  0
 18 19  2  0
 19 20  1  0
 20 21  2  0
 21 22  1  0
 22 23  1  0
 23 24  2  0
 23 25  2  0
 23 26  1  0
 26 27  1  0
 27 28  1  0
 28 29  1  0
 29 30  1  0
 30 31  1  0
 22 32  2  0
 12  7  1  0
 32 18  1  0
 16 10  1  0
 31 26  1  0
  3 33  1  0
  3 34  1  0
  8 35  1  0
  9 36  1  0
 12 37  1  0
 14 38  1  0
 14 39  1  0
 15 40  1  0
 15 41  1  0
 17 42  1  0
 19 43  1  0
 20 44  1  0
 21 45  1  0
 27 46  1  0
 27 47  1  0
 28 48  1  0
 28 49  1  0
 30 50  1  0
 30 51  1  0
 31 52  1  0
 31 53  1  0
 32 54  1  0
M  END
$$$$
