
     RDKit          3D

 44 47  0  0  0  0  0  0  0  0999 V2000
   -6.0880    0.2103    2.9524 C   0  0  0  0  0  0  0  0  0  0  0  0
   -4.8623    0.2796    2.0590 C   0  0  0  0  0  0  0  0  0  0  0  0
   -4.7876   -0.9467    1.3233 O   0  0  0  0  0  0  0  0  0  0  0  0
   -3.5244   -1.1627    0.8337 C   0  0  0  0  0  0  0  0  0  0  0  0
   -2.8374   -2.2587    1.3569 C   0  0  0  0  0  0  0  0  0  0  0  0
   -1.5569   -2.5649    0.8971 C   0  0  0  0  0  0  0  0  0  0  0  0
   -0.9620   -1.7774   -0.0925 C   0  0  0  0  0  0  0  0  0  0  0  0
    0.3888   -2.1088   -0.5569 C   0  0  0  0  0  0  0  0  0  0  0  0
    1.4877   -1.3678   -0.3564 C   0  0  0  0  0  0  0  0  0  0  0  0
    1.5947    0.1559    0.5071 S   0  0  0  0  0  0  0  0  0  0  0  0
    3.2792    0.2075    0.1913 C   0  0  0  0  0  0  0  0  0  0  0  0
    4.2477    1.0331    0.4629 N   0  0  0  0  0  0  0  0  0  0  0  0
    5.3278    0.3925   -0.1308 C   0  0  0  0  0  0  0  0  0  0  0  0
    6.7703    0.9946   -0.0921 C   0  0  0  0  0  0  0  0  0  0  0  0
    7.1246    2.1844    0.5161 C   0  0  0  0  0  0  0  0  0  0  0  0
    8.5158    2.3492    0.3117 C   0  0  0  0  0  0  0  0  0  0  0  0
    8.9264    1.2515   -0.4070 C   0  0  0  0  0  0  0  0  0  0  0  0
    7.8783    0.4257   -0.6564 O   0  0  0  0  0  0  0  0  0  0  0  0
    5.0389   -0.7758   -0.7401 N   0  0  0  0  0  0  0  0  0  0  0  0
    3.7194   -0.8560   -0.5097 N   0  0  0  0  0  0  0  0  0  0  0  0
    2.8116   -1.8246   -0.8812 C   0  0  0  0  0  0  0  0  0  0  0  0
    3.0922   -2.8263   -1.5134 O   0  0  0  0  0  0  0  0  0  0  0  0
   -1.6724   -0.7006   -0.6438 C   0  0  0  0  0  0  0  0  0  0  0  0
   -2.9646   -0.3993   -0.1991 C   0  0  0  0  0  0  0  0  0  0  0  0
   -3.7128    0.6316   -0.7037 O   0  0  0  0  0  0  0  0  0  0  0  0
   -3.5433    0.8933   -2.0981 C   0  0  0  0  0  0  0  0  0  0  0  0
   -4.7236    1.7278   -2.5637 C   0  0  0  0  0  0  0  0  0  0  0  0
   -6.9939    0.0631    2.3548 H   0  0  0  0  0  0  0  0  0  0  0  0
   -6.0167   -0.6421    3.6373 H   0  0  0  0  0  0  0  0  0  0  0  0
   -6.1967    1.1269    3.5395 H   0  0  0  0  0  0  0  0  0  0  0  0
   -3.9708    0.4246    2.6817 H   0  0  0  0  0  0  0  0  0  0  0  0
   -4.9687    1.1266    1.3737 H   0  0  0  0  0  0  0  0  0  0  0  0
   -3.3016   -2.8699    2.1273 H   0  0  0  0  0  0  0  0  0  0  0  0
   -1.0321   -3.4190    1.3214 H   0  0  0  0  0  0  0  0  0  0  0  0
    0.4631   -3.0559   -1.0909 H   0  0  0  0  0  0  0  0  0  0  0  0
    6.4512    2.8481    1.0413 H   0  0  0  0  0  0  0  0  0  0  0  0
    9.1418    3.1647    0.6460 H   0  0  0  0  0  0  0  0  0  0  0  0
    9.8795    0.9261   -0.7998 H   0  0  0  0  0  0  0  0  0  0  0  0
   -1.2043   -0.0982   -1.4165 H   0  0  0  0  0  0  0  0  0  0  0  0
   -2.6187    1.4587   -2.2603 H   0  0  0  0  0  0  0  0  0  0  0  0
   -3.5157   -0.0409   -2.6725 H   0  0  0  0  0  0  0  0  0  0  0  0
   -4.6463    1.9506   -3.6321 H   0  0  0  0  0  0  0  0  0  0  0  0
   -5.6651    1.1987   -2.3801 H   0  0  0  0  0  0  0  0  0  0  0  0
   -4.7730    2.6704   -2.0071 H   0  0  0  0  0  0  0  0  0  0  0  0
  1  2  1  0
  2  3  1  0
  3  4  1  0
  4  5  2  0
  5  6  1  0
  6  7  2  0
  7  8  1  0
  8  9  2  3
  9 10  1  0
 10 11  1  0
 11 12  2  0
 12 13  1  0
 13 14  1  0
 14 15  2  0
 15 16  1  0
 16 17  2  0
 17 18  1  0
 13 19  2  0
 19 20  1  0
 20 21  1  0
 21 22  2  0
  7 23  1  0
 23 24  2  0
 24 25  1  0
 25 26  1  0
 26 27  1  0
 24  4  1  0
 21  9  1  0
 20 11  1  0
 18 14  1  0
  1 28  1  0
  1 29  1  0
  1 30  1  0
  2 31  1  0
  2 32  1  0
  5 33  1  0
  6 34  1  0
  8 35  1  0
 15 36  1  0
 16 37  1  0
 17 38  1  0
 23 39  1  0
 26 40  1  0
 26 41  1  0
 27 42  1  0
 27 43  1  0
 27 44  1  0
M  END
$$$$
