
     RDKit          3D

 37 39  0  0  0  0  0  0  0  0999 V2000
   -7.6754    0.6971   -0.9214 C   0  0  0  0  0  0  0  0  0  0  0  0
   -7.0084    1.2776    0.3154 C   0  0  0  0  0  0  0  0  0  0  0  0
   -5.5225    1.2853    0.1806 C   0  0  0  0  0  0  0  0  0  0  0  0
   -4.8284    2.2252   -0.4266 N   0  0  0  0  0  0  0  0  0  0  0  0
   -3.4732    1.9610   -0.4026 N   0  0  0  0  0  0  0  0  0  0  0  0
   -3.1961    0.8387    0.2238 C   0  0  0  0  0  0  0  0  0  0  0  0
   -1.9145    0.3781    0.3652 N   0  0  0  0  0  0  0  0  0  0  0  0
   -1.5000   -0.7732    0.9919 C   0  0  0  0  0  0  0  0  0  0  0  0
   -2.2067   -1.6035    1.5564 O   0  0  0  0  0  0  0  0  0  0  0  0
    0.0198   -0.9596    0.9452 C   0  0  0  0  0  0  0  0  0  0  0  0
    0.6408    0.0599    0.1661 O   0  0  0  0  0  0  0  0  0  0  0  0
    1.9964   -0.0236    0.0032 C   0  0  0  0  0  0  0  0  0  0  0  0
    2.5397    0.9412   -0.8450 C   0  0  0  0  0  0  0  0  0  0  0  0
    3.9119    0.9712   -1.1011 C   0  0  0  0  0  0  0  0  0  0  0  0
    4.7682    0.0342   -0.5073 C   0  0  0  0  0  0  0  0  0  0  0  0
    6.1506    0.0485   -0.7527 C   0  0  0  0  0  0  0  0  0  0  0  0
    6.9904   -0.8903   -0.1522 C   0  0  0  0  0  0  0  0  0  0  0  0
    6.4592   -1.8537    0.6999 C   0  0  0  0  0  0  0  0  0  0  0  0
    5.0868   -1.8811    0.9529 C   0  0  0  0  0  0  0  0  0  0  0  0
    4.2261   -0.9443    0.3568 C   0  0  0  0  0  0  0  0  0  0  0  0
    2.8400   -0.9613    0.6026 C   0  0  0  0  0  0  0  0  0  0  0  0
   -4.5602    0.0205    0.8318 S   0  0  0  0  0  0  0  0  0  0  0  0
   -7.3668   -0.3404   -1.0892 H   0  0  0  0  0  0  0  0  0  0  0  0
   -8.7638    0.7131   -0.8073 H   0  0  0  0  0  0  0  0  0  0  0  0
   -7.4184    1.2728   -1.8174 H   0  0  0  0  0  0  0  0  0  0  0  0
   -7.3579    2.3058    0.4675 H   0  0  0  0  0  0  0  0  0  0  0  0
   -7.3174    0.7079    1.2000 H   0  0  0  0  0  0  0  0  0  0  0  0
   -1.2042    0.9644   -0.0599 H   0  0  0  0  0  0  0  0  0  0  0  0
    0.3792   -0.9173    1.9795 H   0  0  0  0  0  0  0  0  0  0  0  0
    0.2079   -1.9430    0.4989 H   0  0  0  0  0  0  0  0  0  0  0  0
    1.8935    1.6777   -1.3164 H   0  0  0  0  0  0  0  0  0  0  0  0
    4.3061    1.7334   -1.7691 H   0  0  0  0  0  0  0  0  0  0  0  0
    6.5844    0.7944   -1.4157 H   0  0  0  0  0  0  0  0  0  0  0  0
    8.0588   -0.8679   -0.3501 H   0  0  0  0  0  0  0  0  0  0  0  0
    7.1125   -2.5849    1.1691 H   0  0  0  0  0  0  0  0  0  0  0  0
    4.6937   -2.6427    1.6225 H   0  0  0  0  0  0  0  0  0  0  0  0
    2.4479   -1.7213    1.2718 H   0  0  0  0  0  0  0  0  0  0  0  0
  1  2  1  0
  2  3  1  0
  3  4  2  0
  4  5  1  0
  5  6  2  0
  6  7  1  0
  7  8  1  0
  8  9  2  0
  8 10  1  0
 10 11  1  0
 11 12  1  0
 12 13  2  0
 13 14  1  0
 14 15  2  0
 15 16  1  0
 16 17  2  0
 17 18  1  0
 18 19  2  0
 19 20  1  0
 20 21  2  0
  6 22  1  0
 22  3  1  0
 21 12  1  0
 20 15  1  0
  1 23  1  0
  1 24  1  0
  1 25  1  0
  2 26  1  0
  2 27  1  0
  7 28  1  0
 10 29  1  0
 10 30  1  0
 13 31  1  0
 14 32  1  0
 16 33  1  0
 17 34  1  0
 18 35  1  0
 19 36  1  0
 21 37  1  0
M  END
$$$$
