
     RDKit          3D

 47 49  0  0  0  0  0  0  0  0999 V2000
   -3.3276    2.0404    1.5345 C   0  0  0  0  0  0  0  0  0  0  0  0
   -3.4589    0.6322    2.0904 C   0  0  0  0  0  0  0  0  0  0  0  0
   -4.0259   -0.3041    1.1094 N   0  0  0  0  0  4  0  0  0  0  0  0
   -3.2843   -1.1412    0.3957 C   0  0  0  0  0  0  0  0  0  0  0  0
   -1.8761   -1.2776    0.4145 C   0  0  0  0  0  0  0  0  0  0  0  0
   -1.0869   -0.3798   -0.1951 C   0  0  0  0  0  0  0  0  0  0  0  0
    0.3554   -0.4893   -0.1970 C   0  0  0  0  0  0  0  0  0  0  0  0
    1.1505    0.4138   -0.7919 C   0  0  0  0  0  0  0  0  0  0  0  0
    2.6168    0.3261   -0.7883 C   0  0  0  0  0  0  0  0  0  0  0  0
    3.2972   -0.8732   -0.9930 C   0  0  0  0  0  0  0  0  0  0  0  0
    4.7010   -0.9080   -1.0011 C   0  0  0  0  0  0  0  0  0  0  0  0
    5.4854    0.2452   -0.8269 C   0  0  0  0  0  0  0  0  0  0  0  0
    6.8831    0.2001   -0.8117 N   0  0  0  0  0  0  0  0  0  0  0  0
    7.6392    1.4477   -0.9178 C   0  0  0  0  0  0  0  0  0  0  0  0
    7.5643   -0.9913   -1.3178 C   0  0  0  0  0  0  0  0  0  0  0  0
    4.7724    1.4398   -0.6276 C   0  0  0  0  0  0  0  0  0  0  0  0
    3.3691    1.4870   -0.6190 C   0  0  0  0  0  0  0  0  0  0  0  0
   -4.2612   -2.1481   -0.5889 S   0  0  0  0  0  0  0  0  0  0  0  0
   -5.7078   -1.3950   -0.0438 C   0  0  0  0  0  0  0  0  0  0  0  0
   -7.0327   -1.6685   -0.4169 C   0  0  0  0  0  0  0  0  0  0  0  0
   -8.0519   -0.9215    0.1783 C   0  0  0  0  0  0  0  0  0  0  0  0
   -7.7614    0.0644    1.1156 C   0  0  0  0  0  0  0  0  0  0  0  0
   -6.4375    0.3331    1.4844 C   0  0  0  0  0  0  0  0  0  0  0  0
   -5.3961   -0.4094    0.8900 C   0  0  0  0  0  0  0  0  0  0  0  0
   -4.3003    2.4439    1.2381 H   0  0  0  0  0  0  0  0  0  0  0  0
   -2.8983    2.7073    2.2884 H   0  0  0  0  0  0  0  0  0  0  0  0
   -2.6816    2.0606    0.6528 H   0  0  0  0  0  0  0  0  0  0  0  0
   -2.4813    0.2762    2.4337 H   0  0  0  0  0  0  0  0  0  0  0  0
   -4.0951    0.6373    2.9832 H   0  0  0  0  0  0  0  0  0  0  0  0
   -1.4535   -2.1530    0.9040 H   0  0  0  0  0  0  0  0  0  0  0  0
   -1.5070    0.4700   -0.7320 H   0  0  0  0  0  0  0  0  0  0  0  0
    0.7996   -1.3387    0.3209 H   0  0  0  0  0  0  0  0  0  0  0  0
    0.7403    1.2851   -1.2973 H   0  0  0  0  0  0  0  0  0  0  0  0
    2.7572   -1.8017   -1.1587 H   0  0  0  0  0  0  0  0  0  0  0  0
    5.1641   -1.8786   -1.1521 H   0  0  0  0  0  0  0  0  0  0  0  0
    8.7190    1.2625   -0.8935 H   0  0  0  0  0  0  0  0  0  0  0  0
    7.4137    1.9655   -1.8566 H   0  0  0  0  0  0  0  0  0  0  0  0
    7.4304    2.1108   -0.0714 H   0  0  0  0  0  0  0  0  0  0  0  0
    7.3139   -1.1706   -2.3692 H   0  0  0  0  0  0  0  0  0  0  0  0
    7.3115   -1.8752   -0.7224 H   0  0  0  0  0  0  0  0  0  0  0  0
    8.6531   -0.8867   -1.2506 H   0  0  0  0  0  0  0  0  0  0  0  0
    5.2932    2.3796   -0.4698 H   0  0  0  0  0  0  0  0  0  0  0  0
    2.8833    2.4474   -0.4644 H   0  0  0  0  0  0  0  0  0  0  0  0
   -7.2678   -2.4402   -1.1469 H   0  0  0  0  0  0  0  0  0  0  0  0
   -9.0891   -1.1165   -0.0960 H   0  0  0  0  0  0  0  0  0  0  0  0
   -8.5765    0.6319    1.5653 H   0  0  0  0  0  0  0  0  0  0  0  0
   -6.2547    1.1124    2.2186 H   0  0  0  0  0  0  0  0  0  0  0  0
  1  2  1  0
  2  3  1  0
  3  4  2  0
  4  5  1  0
  5  6  2  3
  6  7  1  0
  7  8  2  3
  8  9  1  0
  9 10  2  0
 10 11  1  0
 11 12  2  0
 12 13  1  0
 13 14  1  0
 13 15  1  0
 12 16  1  0
 16 17  2  0
  4 18  1  0
 18 19  1  0
 19 20  2  0
 20 21  1  0
 21 22  2  0
 22 23  1  0
 23 24  2  0
 24  3  1  0
 17  9  1  0
 24 19  1  0
  1 25  1  0
  1 26  1  0
  1 27  1  0
  2 28  1  0
  2 29  1  0
  5 30  1  0
  6 31  1  0
  7 32  1  0
  8 33  1  0
 10 34  1  0
 11 35  1  0
 14 36  1  0
 14 37  1  0
 14 38  1  0
 15 39  1  0
 15 40  1  0
 15 41  1  0
 16 42  1  0
 17 43  1  0
 20 44  1  0
 21 45  1  0
 22 46  1  0
 23 47  1  0
M  CHG  1   3   1
M  END
$$$$
