
     RDKit          3D

 54 56  0  0  0  0  0  0  0  0999 V2000
    9.1933   -0.3205    0.3878 C   0  0  0  0  0  0  0  0  0  0  0  0
    8.3034    0.4088   -0.4477 O   0  0  0  0  0  0  0  0  0  0  0  0
    7.0038   -0.0198   -0.4869 C   0  0  0  0  0  0  0  0  0  0  0  0
    6.1714    0.7232   -1.3256 C   0  0  0  0  0  0  0  0  0  0  0  0
    4.8197    0.3971   -1.4604 C   0  0  0  0  0  0  0  0  0  0  0  0
    4.2788   -0.6816   -0.7526 C   0  0  0  0  0  0  0  0  0  0  0  0
    2.8183   -1.0323   -0.8894 C   0  0  0  0  0  0  0  0  0  0  0  0
    1.9868   -0.7270    0.3611 C   0  0  0  0  0  0  0  0  0  0  0  0
    1.9716    0.7618    0.7183 C   0  0  0  0  0  0  0  0  0  0  0  0
    0.9880    1.0471    1.7894 C   0  0  0  0  0  0  0  0  0  0  0  0
    0.9055    0.5688    3.0127 N   0  0  0  0  0  0  0  0  0  0  0  0
   -0.2117    1.1533    3.5787 N   0  0  0  0  0  0  0  0  0  0  0  0
   -0.7312    1.9440    2.6614 C   0  0  0  0  0  0  0  0  0  0  0  0
   -2.1641    2.8974    2.9029 S   0  0  0  0  0  0  0  0  0  0  0  0
   -2.5020    3.4313    1.2041 C   0  0  0  0  0  0  0  0  0  0  0  0
   -2.9237    2.2562    0.3331 C   0  0  0  0  0  0  0  0  0  0  0  0
   -2.2158    1.8796   -0.5973 O   0  0  0  0  0  0  0  0  0  0  0  0
   -4.1540    1.7347    0.6952 N   0  0  0  0  0  0  0  0  0  0  0  0
   -4.8736    0.6735    0.0973 C   0  0  0  0  0  0  0  0  0  0  0  0
   -4.4037   -0.0452   -1.0038 C   0  0  0  0  0  0  0  0  0  0  0  0
   -5.1550   -1.0946   -1.5707 C   0  0  0  0  0  0  0  0  0  0  0  0
   -4.5949   -1.8330   -2.7591 C   0  0  0  0  0  0  0  0  0  0  0  0
   -6.4175   -1.4162   -1.0366 C   0  0  0  0  0  0  0  0  0  0  0  0
   -7.2573   -2.5259   -1.6096 C   0  0  0  0  0  0  0  0  0  0  0  0
   -6.8886   -0.7032    0.0745 C   0  0  0  0  0  0  0  0  0  0  0  0
   -6.1267    0.3281    0.6312 C   0  0  0  0  0  0  0  0  0  0  0  0
   -6.8555    1.2546    2.1284 Br  0  0  0  0  0  0  0  0  0  0  0  0
   -0.0074    1.9367    1.4992 O   0  0  0  0  0  0  0  0  0  0  0  0
    5.1165   -1.4233    0.0887 C   0  0  0  0  0  0  0  0  0  0  0  0
    6.4703   -1.0955    0.2214 C   0  0  0  0  0  0  0  0  0  0  0  0
   10.1780    0.1479    0.3147 H   0  0  0  0  0  0  0  0  0  0  0  0
    9.2919   -1.3590    0.0495 H   0  0  0  0  0  0  0  0  0  0  0  0
    8.8805   -0.2715    1.4381 H   0  0  0  0  0  0  0  0  0  0  0  0
    6.5804    1.5651   -1.8789 H   0  0  0  0  0  0  0  0  0  0  0  0
    4.1968    0.9932   -2.1223 H   0  0  0  0  0  0  0  0  0  0  0  0
    2.3854   -0.5089   -1.7508 H   0  0  0  0  0  0  0  0  0  0  0  0
    2.7408   -2.1020   -1.1213 H   0  0  0  0  0  0  0  0  0  0  0  0
    0.9601   -1.0715    0.1789 H   0  0  0  0  0  0  0  0  0  0  0  0
    2.3590   -1.3063    1.2165 H   0  0  0  0  0  0  0  0  0  0  0  0
    2.9614    1.0831    1.0626 H   0  0  0  0  0  0  0  0  0  0  0  0
    1.7298    1.3561   -0.1721 H   0  0  0  0  0  0  0  0  0  0  0  0
   -1.6234    3.9183    0.7689 H   0  0  0  0  0  0  0  0  0  0  0  0
   -3.3110    4.1686    1.2147 H   0  0  0  0  0  0  0  0  0  0  0  0
   -4.6037    2.1415    1.5115 H   0  0  0  0  0  0  0  0  0  0  0  0
   -3.4385    0.1867   -1.4471 H   0  0  0  0  0  0  0  0  0  0  0  0
   -4.6422   -2.9156   -2.5959 H   0  0  0  0  0  0  0  0  0  0  0  0
   -3.5433   -1.5800   -2.9323 H   0  0  0  0  0  0  0  0  0  0  0  0
   -5.1577   -1.5749   -3.6620 H   0  0  0  0  0  0  0  0  0  0  0  0
   -7.3667   -2.4058   -2.6924 H   0  0  0  0  0  0  0  0  0  0  0  0
   -6.7970   -3.4973   -1.3947 H   0  0  0  0  0  0  0  0  0  0  0  0
   -8.2671   -2.5283   -1.1802 H   0  0  0  0  0  0  0  0  0  0  0  0
   -7.8561   -0.9503    0.5034 H   0  0  0  0  0  0  0  0  0  0  0  0
    4.7205   -2.2666    0.6492 H   0  0  0  0  0  0  0  0  0  0  0  0
    7.0770   -1.7005    0.8864 H   0  0  0  0  0  0  0  0  0  0  0  0
  1  2  1  0
  2  3  1  0
  3  4  2  0
  4  5  1  0
  5  6  2  0
  6  7  1  0
  7  8  1  0
  8  9  1  0
  9 10  1  0
 10 11  2  0
 11 12  1  0
 12 13  2  0
 13 14  1  0
 14 15  1  0
 15 16  1  0
 16 17  2  0
 16 18  1  0
 18 19  1  0
 19 20  2  0
 20 21  1  0
 21 22  1  0
 21 23  2  0
 23 24  1  0
 23 25  1  0
 25 26  2  0
 26 27  1  0
 13 28  1  0
  6 29  1  0
 29 30  2  0
 30  3  1  0
 28 10  1  0
 26 19  1  0
  1 31  1  0
  1 32  1  0
  1 33  1  0
  4 34  1  0
  5 35  1  0
  7 36  1  0
  7 37  1  0
  8 38  1  0
  8 39  1  0
  9 40  1  0
  9 41  1  0
 15 42  1  0
 15 43  1  0
 18 44  1  0
 20 45  1  0
 22 46  1  0
 22 47  1  0
 22 48  1  0
 24 49  1  0
 24 50  1  0
 24 51  1  0
 25 52  1  0
 29 53  1  0
 30 54  1  0
M  END
$$$$
