
     RDKit          3D

 49 52  0  0  0  0  0  0  0  0999 V2000
   -8.8615   -4.4561   -1.1981 C   0  0  0  0  0  0  0  0  0  0  0  0
   -7.4486   -4.2916   -1.0696 O   0  0  0  0  0  0  0  0  0  0  0  0
   -7.0738   -3.1976   -0.3435 C   0  0  0  0  0  0  0  0  0  0  0  0
   -7.8731   -2.4166    0.1601 O   0  0  0  0  0  0  0  0  0  0  0  0
   -5.6316   -3.1133   -0.2721 C   0  0  0  0  0  0  0  0  0  0  0  0
   -4.9137   -1.9101    0.7269 S   0  0  0  0  0  0  0  0  0  0  0  0
   -3.3702   -2.4455    0.2752 C   0  0  0  0  0  0  0  0  0  0  0  0
   -2.2081   -1.8781    0.7265 N   0  0  0  0  0  0  0  0  0  0  0  0
   -2.0752   -0.8784    1.6669 C   0  0  0  0  0  0  0  0  0  0  0  0
   -2.9793   -0.3424    2.3011 O   0  0  0  0  0  0  0  0  0  0  0  0
   -0.6279   -0.4627    1.8784 C   0  0  0  0  0  0  0  0  0  0  0  0
   -0.3385    1.1224    1.0392 S   0  0  0  0  0  0  0  0  0  0  0  0
    1.3072    1.3979    1.4796 C   0  0  0  0  0  0  0  0  0  0  0  0
    2.1285    0.5101    1.9878 N   0  0  0  0  0  0  0  0  0  0  0  0
    3.3466    1.1169    2.1564 N   0  0  0  0  0  0  0  0  0  0  0  0
    3.2463    2.3674    1.7457 C   0  0  0  0  0  0  0  0  0  0  0  0
    4.3520    3.3594    1.7407 C   0  0  0  0  0  0  0  0  0  0  0  0
    4.7662    3.6644    0.3858 N   0  0  0  0  0  0  0  0  0  0  0  0
    4.3854    4.8253   -0.1864 N   0  0  0  0  0  0  0  0  0  0  0  0
    4.9005    4.8554   -1.4082 N   0  0  0  0  0  0  0  0  0  0  0  0
    5.6207    3.7050   -1.5955 C   0  0  0  0  0  0  0  0  0  0  0  0
    6.3551    3.2553   -2.7015 C   0  0  0  0  0  0  0  0  0  0  0  0
    6.9995    2.0142   -2.6148 C   0  0  0  0  0  0  0  0  0  0  0  0
    6.9086    1.2386   -1.4555 C   0  0  0  0  0  0  0  0  0  0  0  0
    6.1770    1.6722   -0.3432 C   0  0  0  0  0  0  0  0  0  0  0  0
    5.5505    2.9173   -0.4524 C   0  0  0  0  0  0  0  0  0  0  0  0
    1.9528    2.5942    1.3263 N   0  0  0  0  0  0  0  0  0  0  0  0
    1.4035    3.8264    0.8164 C   0  0  0  0  0  0  0  0  0  0  0  0
   -3.3349   -3.4454   -0.5701 N   0  0  0  0  0  0  0  0  0  0  0  0
   -4.6264   -3.8478   -0.8891 C   0  0  0  0  0  0  0  0  0  0  0  0
   -4.7708   -4.9820   -1.8434 C   0  0  0  0  0  0  0  0  0  0  0  0
   -9.0442   -5.4089   -1.7011 H   0  0  0  0  0  0  0  0  0  0  0  0
   -9.3435   -4.4889   -0.2162 H   0  0  0  0  0  0  0  0  0  0  0  0
   -9.2798   -3.6527   -1.8114 H   0  0  0  0  0  0  0  0  0  0  0  0
   -1.3864   -2.2988    0.3138 H   0  0  0  0  0  0  0  0  0  0  0  0
   -0.4486   -0.3763    2.9561 H   0  0  0  0  0  0  0  0  0  0  0  0
    0.0556   -1.2219    1.4821 H   0  0  0  0  0  0  0  0  0  0  0  0
    5.2281    2.9659    2.2674 H   0  0  0  0  0  0  0  0  0  0  0  0
    4.0603    4.2911    2.2371 H   0  0  0  0  0  0  0  0  0  0  0  0
    6.4195    3.8584   -3.6005 H   0  0  0  0  0  0  0  0  0  0  0  0
    7.5731    1.6487   -3.4638 H   0  0  0  0  0  0  0  0  0  0  0  0
    7.4147    0.2749   -1.4154 H   0  0  0  0  0  0  0  0  0  0  0  0
    6.0983    1.0588    0.5493 H   0  0  0  0  0  0  0  0  0  0  0  0
    0.3563    3.9190    1.1186 H   0  0  0  0  0  0  0  0  0  0  0  0
    1.9495    4.6752    1.2352 H   0  0  0  0  0  0  0  0  0  0  0  0
    1.4877    3.8138   -0.2748 H   0  0  0  0  0  0  0  0  0  0  0  0
   -3.7908   -5.3280   -2.1885 H   0  0  0  0  0  0  0  0  0  0  0  0
   -5.3443   -4.6771   -2.7237 H   0  0  0  0  0  0  0  0  0  0  0  0
   -5.2722   -5.8282   -1.3643 H   0  0  0  0  0  0  0  0  0  0  0  0
  1  2  1  0
  2  3  1  0
  3  4  2  0
  3  5  1  0
  5  6  1  0
  6  7  1  0
  7  8  1  0
  8  9  1  0
  9 10  2  0
  9 11  1  0
 11 12  1  0
 12 13  1  0
 13 14  2  0
 14 15  1  0
 15 16  2  0
 16 17  1  0
 17 18  1  0
 18 19  1  0
 19 20  2  0
 20 21  1  0
 21 22  2  0
 22 23  1  0
 23 24  2  0
 24 25  1  0
 25 26  2  0
 16 27  1  0
 27 28  1  0
  7 29  2  0
 29 30  1  0
 30 31  1  0
 30  5  2  0
 27 13  1  0
 26 18  1  0
 26 21  1  0
  1 32  1  0
  1 33  1  0
  1 34  1  0
  8 35  1  0
 11 36  1  0
 11 37  1  0
 17 38  1  0
 17 39  1  0
 22 40  1  0
 23 41  1  0
 24 42  1  0
 25 43  1  0
 28 44  1  0
 28 45  1  0
 28 46  1  0
 31 47  1  0
 31 48  1  0
 31 49  1  0
M  END
$$$$
