
     RDKit          3D

 42 44  0  0  0  0  0  0  0  0999 V2000
   -3.3679   -0.5089   -2.4475 C   0  0  0  0  0  0  0  0  0  0  0  0
   -3.7223   -0.1930   -1.0173 C   0  0  0  0  0  0  0  0  0  0  0  0
   -5.0738   -0.3151   -0.6390 C   0  0  0  0  0  0  0  0  0  0  0  0
   -5.4861    0.0019    0.6518 C   0  0  0  0  0  0  0  0  0  0  0  0
   -4.5474    0.4405    1.5732 C   0  0  0  0  0  0  0  0  0  0  0  0
   -5.0401    0.8383    3.1740 Cl  0  0  0  0  0  0  0  0  0  0  0  0
   -3.2009    0.5511    1.2190 C   0  0  0  0  0  0  0  0  0  0  0  0
   -2.7521    0.2219   -0.0724 C   0  0  0  0  0  0  0  0  0  0  0  0
   -1.3966    0.2992   -0.4158 N   0  0  0  0  0  0  0  0  0  0  0  0
   -0.5461    1.3065    0.2382 C   0  0  0  0  0  0  0  0  0  0  0  0
    0.8487    1.3396   -0.4263 C   0  0  0  0  0  0  0  0  0  0  0  0
    1.5321    0.0092   -0.4234 N   0  0  0  0  0  0  0  0  0  0  0  0
    2.7365   -0.0008    0.2833 C   0  0  0  0  0  0  0  0  0  0  0  0
    2.8018    0.1613    1.6774 C   0  0  0  0  0  0  0  0  0  0  0  0
    4.0263    0.1491    2.3340 C   0  0  0  0  0  0  0  0  0  0  0  0
    5.1848   -0.0224    1.5956 C   0  0  0  0  0  0  0  0  0  0  0  0
    5.0941   -0.1761    0.2193 C   0  0  0  0  0  0  0  0  0  0  0  0
    3.8963   -0.1623   -0.4074 N   0  0  0  0  0  4  0  0  0  0  0  0
    3.8455   -0.3245   -1.8717 C   0  0  0  0  0  0  0  0  0  0  0  0
    0.6347   -1.1288   -0.0727 C   0  0  0  0  0  0  0  0  0  0  0  0
   -0.7492   -0.9900   -0.7484 C   0  0  0  0  0  0  0  0  0  0  0  0
   -2.6155    0.1878   -2.8304 H   0  0  0  0  0  0  0  0  0  0  0  0
   -4.2418   -0.4125   -3.1014 H   0  0  0  0  0  0  0  0  0  0  0  0
   -2.9949   -1.5345   -2.5267 H   0  0  0  0  0  0  0  0  0  0  0  0
   -5.8184   -0.6459   -1.3612 H   0  0  0  0  0  0  0  0  0  0  0  0
   -6.5338   -0.0891    0.9255 H   0  0  0  0  0  0  0  0  0  0  0  0
   -2.5044    0.8761    1.9841 H   0  0  0  0  0  0  0  0  0  0  0  0
   -1.0031    2.2991    0.1481 H   0  0  0  0  0  0  0  0  0  0  0  0
   -0.4225    1.0802    1.3039 H   0  0  0  0  0  0  0  0  0  0  0  0
    1.4623    2.1163    0.0485 H   0  0  0  0  0  0  0  0  0  0  0  0
    0.7328    1.6333   -1.4775 H   0  0  0  0  0  0  0  0  0  0  0  0
    1.8941    0.3004    2.2599 H   0  0  0  0  0  0  0  0  0  0  0  0
    4.0735    0.2735    3.4149 H   0  0  0  0  0  0  0  0  0  0  0  0
    6.1545   -0.0352    2.0885 H   0  0  0  0  0  0  0  0  0  0  0  0
    5.9826   -0.3108   -0.3910 H   0  0  0  0  0  0  0  0  0  0  0  0
    3.2653   -1.2229   -2.0977 H   0  0  0  0  0  0  0  0  0  0  0  0
    3.3878    0.5707   -2.3013 H   0  0  0  0  0  0  0  0  0  0  0  0
    4.8569   -0.4386   -2.2703 H   0  0  0  0  0  0  0  0  0  0  0  0
    0.4885   -1.1958    1.0129 H   0  0  0  0  0  0  0  0  0  0  0  0
    1.0994   -2.0654   -0.4034 H   0  0  0  0  0  0  0  0  0  0  0  0
   -0.6149   -1.0374   -1.8356 H   0  0  0  0  0  0  0  0  0  0  0  0
   -1.3666   -1.8460   -0.4475 H   0  0  0  0  0  0  0  0  0  0  0  0
  1  2  1  0
  2  3  2  0
  3  4  1  0
  4  5  2  0
  5  6  1  0
  5  7  1  0
  7  8  2  0
  8  9  1  0
  9 10  1  0
 10 11  1  0
 11 12  1  0
 12 13  1  0
 13 14  2  0
 14 15  1  0
 15 16  2  0
 16 17  1  0
 17 18  2  0
 18 19  1  0
 12 20  1  0
 20 21  1  0
  8  2  1  0
 21  9  1  0
 18 13  1  0
  1 22  1  0
  1 23  1  0
  1 24  1  0
  3 25  1  0
  4 26  1  0
  7 27  1  0
 10 28  1  0
 10 29  1  0
 11 30  1  0
 11 31  1  0
 14 32  1  0
 15 33  1  0
 16 34  1  0
 17 35  1  0
 19 36  1  0
 19 37  1  0
 19 38  1  0
 20 39  1  0
 20 40  1  0
 21 41  1  0
 21 42  1  0
M  CHG  1  18   1
M  END
$$$$
