
     RDKit          3D

 27 27  0  0  0  0  0  0  0  0999 V2000
   -2.2259   -0.1503    0.4994 C   0  0  0  0  0  0  0  0  0  0  0  0
   -1.3413    0.3742   -0.6411 C   0  0  0  0  0  0  0  0  0  0  0  0
   -0.9288   -0.7911   -1.5435 C   0  0  0  0  0  0  0  0  0  0  0  0
   -2.1529    1.3830   -1.4741 C   0  0  0  0  0  0  0  0  0  0  0  0
    0.1087    1.2524    0.0230 S   0  0  0  0  0  6  0  0  0  0  0  0
    1.0249    1.6167   -1.0364 O   0  0  0  0  0  0  0  0  0  0  0  0
   -0.3426    2.2462    0.9794 O   0  0  0  0  0  0  0  0  0  0  0  0
    0.9970    0.1269    1.0123 C   0  0  0  0  0  0  0  0  0  0  0  0
    0.7063   -0.0599    2.4041 C   0  0  0  0  0  0  0  0  0  0  0  0
    1.5710   -0.9461    3.0029 C   0  0  0  0  0  0  0  0  0  0  0  0
    2.7385   -1.5351    1.9065 S   0  0  0  0  0  0  0  0  0  0  0  0
    2.0970   -0.6090    0.6075 C   0  0  0  0  0  0  0  0  0  0  0  0
    2.7014   -0.7208   -0.6957 C   0  0  0  0  0  0  0  0  0  0  0  0
    2.1417   -0.9361   -1.7595 O   0  0  0  0  0  0  0  0  0  0  0  0
    4.0438   -0.5785   -0.6479 O   0  0  0  0  0  0  0  0  0  0  0  0
   -3.1477   -0.5963    0.1083 H   0  0  0  0  0  0  0  0  0  0  0  0
   -2.5134    0.6513    1.1883 H   0  0  0  0  0  0  0  0  0  0  0  0
   -1.7165   -0.9235    1.0829 H   0  0  0  0  0  0  0  0  0  0  0  0
   -1.8079   -1.2918   -1.9654 H   0  0  0  0  0  0  0  0  0  0  0  0
   -0.3169   -0.4470   -2.3834 H   0  0  0  0  0  0  0  0  0  0  0  0
   -0.3607   -1.5466   -0.9923 H   0  0  0  0  0  0  0  0  0  0  0  0
   -3.0462    0.9165   -1.9043 H   0  0  0  0  0  0  0  0  0  0  0  0
   -2.4812    2.2311   -0.8627 H   0  0  0  0  0  0  0  0  0  0  0  0
   -1.5561    1.7870   -2.2996 H   0  0  0  0  0  0  0  0  0  0  0  0
   -0.0871    0.4483    2.9420 H   0  0  0  0  0  0  0  0  0  0  0  0
    1.5838   -1.2647    4.0370 H   0  0  0  0  0  0  0  0  0  0  0  0
    4.3109   -0.6367   -1.5878 H   0  0  0  0  0  0  0  0  0  0  0  0
  1  2  1  0
  2  3  1  0
  2  4  1  0
  2  5  1  0
  5  6  2  0
  5  7  2  0
  5  8  1  0
  8  9  1  0
  9 10  2  0
 10 11  1  0
 11 12  1  0
 12 13  1  0
 13 14  2  0
 13 15  1  0
 12  8  2  0
  1 16  1  0
  1 17  1  0
  1 18  1  0
  3 19  1  0
  3 20  1  0
  3 21  1  0
  4 22  1  0
  4 23  1  0
  4 24  1  0
  9 25  1  0
 10 26  1  0
 15 27  1  0
M  END
$$$$
