
     RDKit          3D

 32 32  0  0  0  0  0  0  0  0999 V2000
   -3.4021    3.3143   -1.4760 C   0  0  0  0  0  0  0  0  0  0  0  0
   -2.4457    2.9709   -2.1169 C   0  0  0  0  0  0  0  0  0  0  0  0
   -1.2715    2.5595   -2.9043 C   0  0  0  0  0  0  0  0  0  0  0  0
   -1.2688    1.1184   -3.1916 N   0  0  0  0  0  0  0  0  0  0  0  0
   -0.2207    0.7956   -4.1587 C   0  0  0  0  0  0  0  0  0  0  0  0
   -1.2011    0.2608   -1.9976 C   0  0  0  0  0  0  0  0  0  0  0  0
    0.0340    0.4132   -1.1039 C   0  0  0  0  0  0  0  0  0  0  0  0
   -0.0322   -0.5430    0.0861 C   0  0  0  0  0  0  0  0  0  0  0  0
    1.1525   -0.3559    0.8600 O   0  0  0  0  0  0  0  0  0  0  0  0
    1.3118   -1.1139    1.9906 C   0  0  0  0  0  0  0  0  0  0  0  0
    0.3890   -2.0615    2.4468 C   0  0  0  0  0  0  0  0  0  0  0  0
    0.6463   -2.7842    3.6151 C   0  0  0  0  0  0  0  0  0  0  0  0
   -0.4979   -3.9472    4.1647 Cl  0  0  0  0  0  0  0  0  0  0  0  0
    1.8165   -2.5762    4.3411 C   0  0  0  0  0  0  0  0  0  0  0  0
    2.7426   -1.6346    3.8955 C   0  0  0  0  0  0  0  0  0  0  0  0
    2.4918   -0.9078    2.7274 C   0  0  0  0  0  0  0  0  0  0  0  0
    3.6784    0.2458    2.2244 Cl  0  0  0  0  0  0  0  0  0  0  0  0
   -4.2544    3.6154   -0.9121 H   0  0  0  0  0  0  0  0  0  0  0  0
   -1.3097    3.1131   -3.8517 H   0  0  0  0  0  0  0  0  0  0  0  0
   -0.3490    2.8737   -2.4025 H   0  0  0  0  0  0  0  0  0  0  0  0
   -0.3978    1.3227   -5.1031 H   0  0  0  0  0  0  0  0  0  0  0  0
    0.7789    1.0670   -3.8031 H   0  0  0  0  0  0  0  0  0  0  0  0
   -0.2260   -0.2739   -4.3970 H   0  0  0  0  0  0  0  0  0  0  0  0
   -2.1026    0.4174   -1.3920 H   0  0  0  0  0  0  0  0  0  0  0  0
   -1.2736   -0.7852   -2.3254 H   0  0  0  0  0  0  0  0  0  0  0  0
    0.1237    1.4373   -0.7237 H   0  0  0  0  0  0  0  0  0  0  0  0
    0.9539    0.2142   -1.6661 H   0  0  0  0  0  0  0  0  0  0  0  0
   -0.0828   -1.5766   -0.2768 H   0  0  0  0  0  0  0  0  0  0  0  0
   -0.9168   -0.3119    0.6915 H   0  0  0  0  0  0  0  0  0  0  0  0
   -0.5359   -2.2572    1.9151 H   0  0  0  0  0  0  0  0  0  0  0  0
    2.0124   -3.1405    5.2492 H   0  0  0  0  0  0  0  0  0  0  0  0
    3.6571   -1.4697    4.4598 H   0  0  0  0  0  0  0  0  0  0  0  0
  1  2  3  0
  2  3  1  0
  3  4  1  0
  4  5  1  0
  4  6  1  0
  6  7  1  0
  7  8  1  0
  8  9  1  0
  9 10  1  0
 10 11  2  0
 11 12  1  0
 12 13  1  0
 12 14  2  0
 14 15  1  0
 15 16  2  0
 16 17  1  0
 16 10  1  0
  1 18  1  0
  3 19  1  0
  3 20  1  0
  5 21  1  0
  5 22  1  0
  5 23  1  0
  6 24  1  0
  6 25  1  0
  7 26  1  0
  7 27  1  0
  8 28  1  0
  8 29  1  0
 11 30  1  0
 14 31  1  0
 15 32  1  0
M  END
$$$$
