
     RDKit          3D

 37 37  0  0  0  0  0  0  0  0999 V2000
   -1.4863   -3.9239    1.9822 C   0  0  0  0  0  0  0  0  0  0  0  0
   -1.1205   -2.6500    1.4505 O   0  0  0  0  0  0  0  0  0  0  0  0
   -1.9488   -2.2032    0.4604 C   0  0  0  0  0  0  0  0  0  0  0  0
   -2.9651   -2.7825    0.0932 O   0  0  0  0  0  0  0  0  0  0  0  0
   -1.5043   -0.8325   -0.0810 C   0  0  0  0  0  0  0  0  0  0  0  0
   -2.5507    0.2153    0.3210 C   0  0  0  0  0  0  0  0  0  0  0  0
   -2.3201    1.5419   -0.4005 C   0  0  0  0  0  0  0  0  0  0  0  0
   -3.5312    2.8079    0.1098 S   0  0  0  0  0  0  0  0  0  0  0  0
   -4.9865    2.2154   -0.7902 C   0  0  0  0  0  0  0  0  0  0  0  0
   -0.1780   -0.4425    0.4090 N   0  0  0  0  0  0  0  0  0  0  0  0
    0.9367   -0.8744   -0.2669 C   0  0  0  0  0  0  0  0  0  0  0  0
    0.8981   -1.5046   -1.3127 O   0  0  0  0  0  0  0  0  0  0  0  0
    2.0792   -0.5125    0.3917 N   0  0  0  0  0  0  0  0  0  0  0  0
    3.3815   -0.7455   -0.1940 C   0  0  0  0  0  0  0  0  0  0  0  0
    3.9760    0.5748   -0.5756 C   0  0  0  0  0  0  0  0  0  0  0  0
    4.7881    1.3986    0.1812 C   0  0  0  0  0  0  0  0  0  0  0  0
    5.1593    2.5844   -0.5163 C   0  0  0  0  0  0  0  0  0  0  0  0
    4.6207    2.6268   -1.7823 C   0  0  0  0  0  0  0  0  0  0  0  0
    3.6760    1.2442   -2.1253 S   0  0  0  0  0  0  0  0  0  0  0  0
   -0.7404   -4.2048    2.7308 H   0  0  0  0  0  0  0  0  0  0  0  0
   -2.4637   -3.8668    2.4712 H   0  0  0  0  0  0  0  0  0  0  0  0
   -1.4889   -4.6839    1.1945 H   0  0  0  0  0  0  0  0  0  0  0  0
   -1.4624   -0.9265   -1.1729 H   0  0  0  0  0  0  0  0  0  0  0  0
   -3.5505   -0.1670    0.0834 H   0  0  0  0  0  0  0  0  0  0  0  0
   -2.5202    0.3660    1.4086 H   0  0  0  0  0  0  0  0  0  0  0  0
   -2.3631    1.4163   -1.4875 H   0  0  0  0  0  0  0  0  0  0  0  0
   -1.3289    1.9382   -0.1578 H   0  0  0  0  0  0  0  0  0  0  0  0
   -5.7969    2.9399   -0.6713 H   0  0  0  0  0  0  0  0  0  0  0  0
   -4.7647    2.1180   -1.8560 H   0  0  0  0  0  0  0  0  0  0  0  0
   -5.3256    1.2562   -0.3925 H   0  0  0  0  0  0  0  0  0  0  0  0
   -0.0651   -0.4928    1.4128 H   0  0  0  0  0  0  0  0  0  0  0  0
    1.9954    0.2897    0.9976 H   0  0  0  0  0  0  0  0  0  0  0  0
    3.9964   -1.2203    0.5784 H   0  0  0  0  0  0  0  0  0  0  0  0
    3.3244   -1.4309   -1.0458 H   0  0  0  0  0  0  0  0  0  0  0  0
    5.1039    1.1622    1.1904 H   0  0  0  0  0  0  0  0  0  0  0  0
    5.7902    3.3662   -0.1114 H   0  0  0  0  0  0  0  0  0  0  0  0
    4.7361    3.4027   -2.5267 H   0  0  0  0  0  0  0  0  0  0  0  0
  1  2  1  0
  2  3  1  0
  3  4  2  0
  3  5  1  0
  5  6  1  0
  6  7  1  0
  7  8  1  0
  8  9  1  0
  5 10  1  0
 10 11  1  0
 11 12  2  0
 11 13  1  0
 13 14  1  0
 14 15  1  0
 15 16  2  0
 16 17  1  0
 17 18  2  0
 18 19  1  0
 19 15  1  0
  1 20  1  0
  1 21  1  0
  1 22  1  0
  5 23  1  0
  6 24  1  0
  6 25  1  0
  7 26  1  0
  7 27  1  0
  9 28  1  0
  9 29  1  0
  9 30  1  0
 10 31  1  0
 13 32  1  0
 14 33  1  0
 14 34  1  0
 16 35  1  0
 17 36  1  0
 18 37  1  0
M  END
$$$$
