
     RDKit          3D

 36 37  0  0  0  0  0  0  0  0999 V2000
    1.1587    3.0149   -1.5680 O   0  0  0  0  0  0  0  0  0  0  0  0
    0.8726    2.1835   -0.7099 C   0  0  0  0  0  0  0  0  0  0  0  0
   -0.0412    2.5109    0.4679 C   0  0  0  0  0  0  0  0  0  0  0  0
   -1.3394    1.9274    0.3303 O   0  0  0  0  0  0  0  0  0  0  0  0
   -1.4949    0.6923    0.8667 C   0  0  0  0  0  0  0  0  0  0  0  0
   -0.6279    0.0478    1.4411 O   0  0  0  0  0  0  0  0  0  0  0  0
   -2.8907    0.2125    0.6671 C   0  0  0  0  0  0  0  0  0  0  0  0
   -3.8461    0.9499   -0.0475 C   0  0  0  0  0  0  0  0  0  0  0  0
   -5.1470    0.4510   -0.1999 C   0  0  0  0  0  0  0  0  0  0  0  0
   -5.4951   -0.7795    0.3602 C   0  0  0  0  0  0  0  0  0  0  0  0
   -7.2555   -1.4473    0.1484 Br  0  0  0  0  0  0  0  0  0  0  0  0
   -4.5558   -1.5119    1.0786 C   0  0  0  0  0  0  0  0  0  0  0  0
   -3.2533   -1.0183    1.2289 C   0  0  0  0  0  0  0  0  0  0  0  0
    1.3649    0.8946   -0.7137 N   0  0  0  0  0  0  0  0  0  0  0  0
    2.2928    0.4467   -1.7375 C   0  0  0  0  0  0  0  0  0  0  0  0
    2.8250   -0.9715   -1.4888 C   0  0  0  0  0  0  0  0  0  0  0  0
    3.5455   -1.0916   -0.2264 N   0  0  0  0  0  0  0  0  0  0  0  0
    2.9463   -1.4482    0.9606 C   0  0  0  0  0  0  0  0  0  0  0  0
    1.6154   -1.7142    0.9496 O   0  0  0  0  0  0  0  0  0  0  0  0
    3.7619   -1.4515    2.0261 C   0  0  0  0  0  0  0  0  0  0  0  0
    5.3799   -0.9931    1.5698 S   0  0  0  0  0  0  0  0  0  0  0  0
    4.8874   -0.7520   -0.1264 C   0  0  0  0  0  0  0  0  0  0  0  0
    5.6322   -0.3530   -1.0089 O   0  0  0  0  0  0  0  0  0  0  0  0
    0.4456    2.2234    1.4117 H   0  0  0  0  0  0  0  0  0  0  0  0
   -0.1691    3.5954    0.5041 H   0  0  0  0  0  0  0  0  0  0  0  0
   -3.5952    1.9128   -0.4952 H   0  0  0  0  0  0  0  0  0  0  0  0
   -5.8780    1.0263   -0.7615 H   0  0  0  0  0  0  0  0  0  0  0  0
   -4.8233   -2.4664    1.5307 H   0  0  0  0  0  0  0  0  0  0  0  0
   -2.5286   -1.5983    1.7905 H   0  0  0  0  0  0  0  0  0  0  0  0
    1.0291    0.2234   -0.0206 H   0  0  0  0  0  0  0  0  0  0  0  0
    3.1225    1.1697   -1.7758 H   0  0  0  0  0  0  0  0  0  0  0  0
    1.7700    0.4859   -2.7040 H   0  0  0  0  0  0  0  0  0  0  0  0
    3.5160   -1.2336   -2.2979 H   0  0  0  0  0  0  0  0  0  0  0  0
    2.0013   -1.7040   -1.5160 H   0  0  0  0  0  0  0  0  0  0  0  0
    1.2841   -1.7344    1.8663 H   0  0  0  0  0  0  0  0  0  0  0  0
    3.4900   -1.6996    3.0452 H   0  0  0  0  0  0  0  0  0  0  0  0
  1  2  2  0
  2  3  1  0
  3  4  1  0
  4  5  1  0
  5  6  2  0
  5  7  1  0
  7  8  2  0
  8  9  1  0
  9 10  2  0
 10 11  1  0
 10 12  1  0
 12 13  2  0
  2 14  1  0
 14 15  1  0
 15 16  1  0
 16 17  1  0
 17 18  1  0
 18 19  1  0
 18 20  2  0
 20 21  1  0
 21 22  1  0
 22 23  2  0
 13  7  1  0
 22 17  1  0
  3 24  1  0
  3 25  1  0
  8 26  1  0
  9 27  1  0
 12 28  1  0
 13 29  1  0
 14 30  1  0
 15 31  1  0
 15 32  1  0
 16 33  1  0
 16 34  1  0
 19 35  1  0
 20 36  1  0
M  END
$$$$
