
     RDKit          3D

 32 33  0  0  0  0  0  0  0  0999 V2000
   -5.4156   -1.1074   -0.4046 C   0  0  0  0  0  0  0  0  0  0  0  0
   -4.0108   -0.6142   -0.2178 C   0  0  0  0  0  0  0  0  0  0  0  0
   -3.6670    0.6980   -0.5647 C   0  0  0  0  0  0  0  0  0  0  0  0
   -2.3513    1.1478   -0.4183 C   0  0  0  0  0  0  0  0  0  0  0  0
   -2.0014    2.7905   -0.8273 Cl  0  0  0  0  0  0  0  0  0  0  0  0
   -1.3537    0.2821    0.0491 C   0  0  0  0  0  0  0  0  0  0  0  0
   -0.0704    0.7397    0.2182 O   0  0  0  0  0  0  0  0  0  0  0  0
    0.6977    0.5708   -0.9815 C   0  0  0  0  0  0  0  0  0  0  0  0
    1.8290    1.5975   -0.9860 C   0  0  0  0  0  0  0  0  0  0  0  0
    2.7643    1.4857    0.2186 C   0  0  0  0  0  0  0  0  0  0  0  0
    3.5454    0.2667    0.2289 N   0  0  0  0  0  0  0  0  0  0  0  0
    3.3594   -0.8090    1.0492 C   0  0  0  0  0  0  0  0  0  0  0  0
    4.3372   -1.7047    0.6851 C   0  0  0  0  0  0  0  0  0  0  0  0
    5.1159   -1.1926   -0.3210 N   0  0  0  0  0  0  0  0  0  0  0  0
    4.6234    0.0007   -0.5659 C   0  0  0  0  0  0  0  0  0  0  0  0
   -1.6978   -1.0244    0.4116 C   0  0  0  0  0  0  0  0  0  0  0  0
   -0.4236   -2.2354    1.1259 Br  0  0  0  0  0  0  0  0  0  0  0  0
   -3.0151   -1.4736    0.2642 C   0  0  0  0  0  0  0  0  0  0  0  0
   -6.1360   -0.2922   -0.2797 H   0  0  0  0  0  0  0  0  0  0  0  0
   -5.6621   -1.8745    0.3370 H   0  0  0  0  0  0  0  0  0  0  0  0
   -5.5322   -1.5325   -1.4062 H   0  0  0  0  0  0  0  0  0  0  0  0
   -4.4292    1.3763   -0.9433 H   0  0  0  0  0  0  0  0  0  0  0  0
    1.0996   -0.4475   -1.0162 H   0  0  0  0  0  0  0  0  0  0  0  0
    0.0864    0.7227   -1.8807 H   0  0  0  0  0  0  0  0  0  0  0  0
    2.3965    1.5031   -1.9192 H   0  0  0  0  0  0  0  0  0  0  0  0
    1.3892    2.6023   -0.9722 H   0  0  0  0  0  0  0  0  0  0  0  0
    2.2130    1.5466    1.1635 H   0  0  0  0  0  0  0  0  0  0  0  0
    3.4801    2.3164    0.2094 H   0  0  0  0  0  0  0  0  0  0  0  0
    2.5756   -0.8529    1.7924 H   0  0  0  0  0  0  0  0  0  0  0  0
    4.5235   -2.6886    1.0956 H   0  0  0  0  0  0  0  0  0  0  0  0
    5.0022    0.6989   -1.3009 H   0  0  0  0  0  0  0  0  0  0  0  0
   -3.2721   -2.4963    0.5348 H   0  0  0  0  0  0  0  0  0  0  0  0
  1  2  1  0
  2  3  2  0
  3  4  1  0
  4  5  1  0
  4  6  2  0
  6  7  1  0
  7  8  1  0
  8  9  1  0
  9 10  1  0
 10 11  1  0
 11 12  1  0
 12 13  2  0
 13 14  1  0
 14 15  2  0
  6 16  1  0
 16 17  1  0
 16 18  2  0
 18  2  1  0
 15 11  1  0
  1 19  1  0
  1 20  1  0
  1 21  1  0
  3 22  1  0
  8 23  1  0
  8 24  1  0
  9 25  1  0
  9 26  1  0
 10 27  1  0
 10 28  1  0
 12 29  1  0
 13 30  1  0
 15 31  1  0
 18 32  1  0
M  END
$$$$
