
     RDKit          3D

 54 57  0  0  0  0  0  0  0  0999 V2000
   -6.4802    2.1557   -1.1574 C   0  0  0  0  0  0  0  0  0  0  0  0
   -4.9987    1.9245   -1.1417 C   0  0  0  0  0  0  0  0  0  0  0  0
   -4.3248    1.7464    0.0660 C   0  0  0  0  0  0  0  0  0  0  0  0
   -2.9345    1.5378    0.1002 C   0  0  0  0  0  0  0  0  0  0  0  0
   -2.2921    1.3200    1.4465 C   0  0  0  0  0  0  0  0  0  0  0  0
   -2.1971    1.5016   -1.1095 C   0  0  0  0  0  0  0  0  0  0  0  0
   -0.8050    1.2543   -1.0156 N   0  0  0  0  0  0  0  0  0  0  0  0
   -0.0424    0.4895   -1.8865 C   0  0  0  0  0  0  0  0  0  0  0  0
   -0.4507   -0.1519   -2.8504 O   0  0  0  0  0  0  0  0  0  0  0  0
    1.4281    0.4220   -1.4708 C   0  0  0  0  0  0  0  0  0  0  0  0
    1.6482   -0.6455   -0.4941 N   0  0  0  0  0  0  0  0  0  0  0  0
    1.4626   -0.3168    0.8416 C   0  0  0  0  0  0  0  0  0  0  0  0
    1.0089    0.7897    1.1557 O   0  0  0  0  0  0  0  0  0  0  0  0
    1.7810   -1.2780    1.7832 N   0  0  0  0  0  0  0  0  0  0  0  0
    1.6877   -0.9061    3.1879 C   0  0  0  0  0  0  0  0  0  0  0  0
    2.9086   -0.1476    3.5830 C   0  0  0  0  0  0  0  0  0  0  0  0
    3.2079    1.1989    3.6445 C   0  0  0  0  0  0  0  0  0  0  0  0
    4.5469    1.2909    4.0933 C   0  0  0  0  0  0  0  0  0  0  0  0
    4.9785   -0.0013    4.2777 C   0  0  0  0  0  0  0  0  0  0  0  0
    3.9912   -0.8809    3.9710 O   0  0  0  0  0  0  0  0  0  0  0  0
    2.1542   -2.5797    1.4863 C   0  0  0  0  0  0  0  0  0  0  0  0
    2.3733   -3.4451    2.3309 O   0  0  0  0  0  0  0  0  0  0  0  0
    2.2516   -2.9320    0.0603 C   0  0  0  0  0  0  0  0  0  0  0  0
    2.6002   -4.2434   -0.3008 C   0  0  0  0  0  0  0  0  0  0  0  0
    2.6759   -4.6008   -1.6432 C   0  0  0  0  0  0  0  0  0  0  0  0
    2.3971   -3.6514   -2.6193 C   0  0  0  0  0  0  0  0  0  0  0  0
    2.0537   -2.3437   -2.2555 C   0  0  0  0  0  0  0  0  0  0  0  0
    1.9866   -1.9618   -0.9065 C   0  0  0  0  0  0  0  0  0  0  0  0
   -2.8602    1.7683   -2.3263 C   0  0  0  0  0  0  0  0  0  0  0  0
   -2.1730    1.9284   -3.6565 C   0  0  0  0  0  0  0  0  0  0  0  0
   -4.2586    1.9485   -2.3241 C   0  0  0  0  0  0  0  0  0  0  0  0
   -6.9798    1.5018   -0.4343 H   0  0  0  0  0  0  0  0  0  0  0  0
   -6.9048    1.9356   -2.1425 H   0  0  0  0  0  0  0  0  0  0  0  0
   -6.6996    3.1988   -0.9076 H   0  0  0  0  0  0  0  0  0  0  0  0
   -4.8928    1.7577    0.9951 H   0  0  0  0  0  0  0  0  0  0  0  0
   -1.5498    2.1003    1.6446 H   0  0  0  0  0  0  0  0  0  0  0  0
   -1.8178    0.3339    1.4863 H   0  0  0  0  0  0  0  0  0  0  0  0
   -3.0274    1.3603    2.2578 H   0  0  0  0  0  0  0  0  0  0  0  0
   -0.3932    1.3453   -0.0871 H   0  0  0  0  0  0  0  0  0  0  0  0
    1.7188    1.3882   -1.0382 H   0  0  0  0  0  0  0  0  0  0  0  0
    2.0645    0.3076   -2.3529 H   0  0  0  0  0  0  0  0  0  0  0  0
    1.5741   -1.7891    3.8258 H   0  0  0  0  0  0  0  0  0  0  0  0
    0.7979   -0.2839    3.3443 H   0  0  0  0  0  0  0  0  0  0  0  0
    2.5396    2.0098    3.3882 H   0  0  0  0  0  0  0  0  0  0  0  0
    5.1273    2.1866    4.2614 H   0  0  0  0  0  0  0  0  0  0  0  0
    5.9099   -0.4421    4.6055 H   0  0  0  0  0  0  0  0  0  0  0  0
    2.8078   -4.9883    0.4651 H   0  0  0  0  0  0  0  0  0  0  0  0
    2.9404   -5.6168   -1.9250 H   0  0  0  0  0  0  0  0  0  0  0  0
    2.4355   -3.9262   -3.6711 H   0  0  0  0  0  0  0  0  0  0  0  0
    1.8172   -1.6579   -3.0642 H   0  0  0  0  0  0  0  0  0  0  0  0
   -2.1739    0.9818   -4.2043 H   0  0  0  0  0  0  0  0  0  0  0  0
   -1.1515    2.3029   -3.5453 H   0  0  0  0  0  0  0  0  0  0  0  0
   -2.6947    2.6721   -4.2711 H   0  0  0  0  0  0  0  0  0  0  0  0
   -4.7727    2.1317   -3.2673 H   0  0  0  0  0  0  0  0  0  0  0  0
  1  2  1  0
  2  3  2  0
  3  4  1  0
  4  5  1  0
  4  6  2  0
  6  7  1  0
  7  8  1  0
  8  9  2  0
  8 10  1  0
 10 11  1  0
 11 12  1  0
 12 13  2  0
 12 14  1  0
 14 15  1  0
 15 16  1  0
 16 17  2  0
 17 18  1  0
 18 19  2  0
 19 20  1  0
 14 21  1  0
 21 22  2  0
 21 23  1  0
 23 24  2  0
 24 25  1  0
 25 26  2  0
 26 27  1  0
 27 28  2  0
  6 29  1  0
 29 30  1  0
 29 31  2  0
 31  2  1  0
 28 11  1  0
 20 16  1  0
 28 23  1  0
  1 32  1  0
  1 33  1  0
  1 34  1  0
  3 35  1  0
  5 36  1  0
  5 37  1  0
  5 38  1  0
  7 39  1  0
 10 40  1  0
 10 41  1  0
 15 42  1  0
 15 43  1  0
 17 44  1  0
 18 45  1  0
 19 46  1  0
 24 47  1  0
 25 48  1  0
 26 49  1  0
 27 50  1  0
 30 51  1  0
 30 52  1  0
 30 53  1  0
 31 54  1  0
M  END
$$$$
