
     RDKit          3D

 68 74  0  0  0  0  0  0  0  0999 V2000
   -4.2232   -3.4127   -4.0055 C   0  0  0  0  0  0  0  0  0  0  0  0
   -3.5304   -3.0168   -2.7362 C   0  0  0  0  0  0  0  0  0  0  0  0
   -3.6262   -3.7997   -1.5697 C   0  0  0  0  0  0  0  0  0  0  0  0
   -4.5418   -5.2694   -1.5497 Cl  0  0  0  0  0  0  0  0  0  0  0  0
   -2.9858   -3.4246   -0.3720 C   0  0  0  0  0  0  0  0  0  0  0  0
   -2.2286   -2.2547   -0.3033 C   0  0  0  0  0  0  0  0  0  0  0  0
   -2.1181   -1.4770   -1.4474 C   0  0  0  0  0  0  0  0  0  0  0  0
   -2.7667   -1.8595   -2.6329 C   0  0  0  0  0  0  0  0  0  0  0  0
   -2.5284   -0.9105   -3.6243 N   0  0  0  0  0  0  0  0  0  0  0  0
   -1.7455    0.1486   -3.1591 C   0  0  0  0  0  0  0  0  0  0  0  0
   -1.4217    1.1119   -3.8386 O   0  0  0  0  0  0  0  0  0  0  0  0
   -1.3902   -0.1742   -1.6841 C   0  0  1  0  0  0  0  0  0  0  0  0
   -1.9160    0.7997   -0.7058 C   0  0  0  0  0  0  0  0  0  0  0  0
   -0.8947    1.3032    0.0989 C   0  0  0  0  0  0  0  0  0  0  0  0
   -1.4286    2.1781    1.0038 C   0  0  0  0  0  0  0  0  0  0  0  0
   -0.8102    2.7951    2.0090 O   0  0  0  0  0  0  0  0  0  0  0  0
   -2.8052    2.2608    0.7264 N   0  0  0  0  0  0  0  0  0  0  0  0
   -3.7503    3.0620    1.4277 C   0  0  0  0  0  0  0  0  0  0  0  0
   -3.4178    4.3687    1.8083 C   0  0  0  0  0  0  0  0  0  0  0  0
   -4.3441    5.1444    2.5073 C   0  0  0  0  0  0  0  0  0  0  0  0
   -5.5959    4.6186    2.8313 C   0  0  0  0  0  0  0  0  0  0  0  0
   -5.9297    3.3197    2.4488 C   0  0  0  0  0  0  0  0  0  0  0  0
   -5.0116    2.5383    1.7456 C   0  0  0  0  0  0  0  0  0  0  0  0
   -3.0934    1.4026   -0.3507 C   0  0  0  0  0  0  0  0  0  0  0  0
   -4.2876    1.2819   -0.9283 O   0  0  0  0  0  0  0  0  0  0  0  0
    0.4200    0.7336   -0.2572 C   0  0  1  0  0  0  0  0  0  0  0  0
    1.1063   -0.0440    0.8800 C   0  0  0  0  0  0  0  0  0  0  0  0
    2.2601   -0.8199    0.4142 N   0  0  0  0  0  0  0  0  0  0  0  0
    3.2750   -1.1217    1.2983 C   0  0  0  0  0  0  0  0  0  0  0  0
    3.2489   -0.8258    2.4870 O   0  0  0  0  0  0  0  0  0  0  0  0
    4.2956   -1.7888    0.6999 O   0  0  0  0  0  0  0  0  0  0  0  0
    5.4058   -2.1195    1.5406 C   0  0  0  0  0  0  0  0  0  0  0  0
    6.5137   -1.1196    1.3322 C   0  0  0  0  0  0  0  0  0  0  0  0
    6.6610   -0.0313    2.2045 C   0  0  0  0  0  0  0  0  0  0  0  0
    7.6751    0.9061    2.0012 C   0  0  0  0  0  0  0  0  0  0  0  0
    8.5465    0.7686    0.9224 C   0  0  0  0  0  0  0  0  0  0  0  0
    8.4013   -0.3029    0.0423 C   0  0  0  0  0  0  0  0  0  0  0  0
    7.3872   -1.2409    0.2427 C   0  0  0  0  0  0  0  0  0  0  0  0
    2.2836   -1.1973   -1.0033 C   0  0  0  0  0  0  0  0  0  0  0  0
    0.8619   -1.3401   -1.5816 C   0  0  0  0  0  0  0  0  0  0  0  0
    0.0861   -0.1110   -1.4542 N   0  0  0  0  0  0  0  0  0  0  0  0
   -3.8654   -4.3909   -4.3446 H   0  0  0  0  0  0  0  0  0  0  0  0
   -4.0431   -2.7069   -4.8210 H   0  0  0  0  0  0  0  0  0  0  0  0
   -5.3061   -3.4540   -3.8499 H   0  0  0  0  0  0  0  0  0  0  0  0
   -3.0820   -4.0469    0.5156 H   0  0  0  0  0  0  0  0  0  0  0  0
   -1.7460   -1.9623    0.6240 H   0  0  0  0  0  0  0  0  0  0  0  0
   -2.8971   -0.9169   -4.5622 H   0  0  0  0  0  0  0  0  0  0  0  0
   -1.4684    3.0746    2.6702 H   0  0  0  0  0  0  0  0  0  0  0  0
   -2.4638    4.8158    1.5299 H   0  0  0  0  0  0  0  0  0  0  0  0
   -4.0928    6.1628    2.7941 H   0  0  0  0  0  0  0  0  0  0  0  0
   -6.3135    5.2241    3.3803 H   0  0  0  0  0  0  0  0  0  0  0  0
   -6.9029    2.9093    2.7123 H   0  0  0  0  0  0  0  0  0  0  0  0
   -5.2789    1.5125    1.4968 H   0  0  0  0  0  0  0  0  0  0  0  0
   -4.8109    2.0822   -0.7407 H   0  0  0  0  0  0  0  0  0  0  0  0
    1.0895    1.5325   -0.6002 H   0  0  0  0  0  0  0  0  0  0  0  0
    0.4123   -0.7615    1.3371 H   0  0  0  0  0  0  0  0  0  0  0  0
    1.4193    0.6430    1.6760 H   0  0  0  0  0  0  0  0  0  0  0  0
    5.7527   -3.1171    1.2479 H   0  0  0  0  0  0  0  0  0  0  0  0
    5.1327   -2.2010    2.5998 H   0  0  0  0  0  0  0  0  0  0  0  0
    5.9764    0.0950    3.0416 H   0  0  0  0  0  0  0  0  0  0  0  0
    7.7809    1.7477    2.6812 H   0  0  0  0  0  0  0  0  0  0  0  0
    9.3321    1.5015    0.7618 H   0  0  0  0  0  0  0  0  0  0  0  0
    9.0743   -0.4049   -0.8050 H   0  0  0  0  0  0  0  0  0  0  0  0
    7.2773   -2.0643   -0.4599 H   0  0  0  0  0  0  0  0  0  0  0  0
    2.8262   -2.1404   -1.1303 H   0  0  0  0  0  0  0  0  0  0  0  0
    2.8413   -0.4181   -1.5374 H   0  0  0  0  0  0  0  0  0  0  0  0
    0.9280   -1.6234   -2.6388 H   0  0  0  0  0  0  0  0  0  0  0  0
    0.3913   -2.1720   -1.0471 H   0  0  0  0  0  0  0  0  0  0  0  0
  1  2  1  0
  2  3  2  0
  3  4  1  0
  3  5  1  0
  5  6  2  0
  6  7  1  0
  7  8  2  0
  8  9  1  0
  9 10  1  0
 10 11  2  0
 10 12  1  0
 12 13  1  0
 13 14  1  0
 14 15  2  0
 15 16  1  0
 15 17  1  0
 17 18  1  0
 18 19  2  0
 19 20  1  0
 20 21  2  0
 21 22  1  0
 22 23  2  0
 17 24  1  0
 24 25  1  0
 14 26  1  0
 26 27  1  0
 27 28  1  0
 28 29  1  0
 29 30  2  0
 29 31  1  0
 31 32  1  0
 32 33  1  0
 33 34  2  0
 34 35  1  0
 35 36  2  0
 36 37  1  0
 37 38  2  0
 28 39  1  0
 39 40  1  0
 40 41  1  0
  8  2  1  0
 12 41  1  6
 12  7  1  0
 24 13  2  0
 41 26  1  0
 23 18  1  0
 38 33  1  0
  1 42  1  0
  1 43  1  0
  1 44  1  0
  5 45  1  0
  6 46  1  0
  9 47  1  0
 16 48  1  0
 19 49  1  0
 20 50  1  0
 21 51  1  0
 22 52  1  0
 23 53  1  0
 25 54  1  0
 26 55  1  6
 27 56  1  0
 27 57  1  0
 32 58  1  0
 32 59  1  0
 34 60  1  0
 35 61  1  0
 36 62  1  0
 37 63  1  0
 38 64  1  0
 39 65  1  0
 39 66  1  0
 40 67  1  0
 40 68  1  0
M  END
$$$$
