
     RDKit          3D

 47 48  0  0  0  0  0  0  0  0999 V2000
    3.8879    1.8812    4.5526 C   0  0  0  0  0  0  0  0  0  0  0  0
    2.7223    2.7752    4.1738 C   0  0  0  0  0  0  0  0  0  0  0  0
    2.4767    2.6951    2.7609 O   0  0  0  0  0  0  0  0  0  0  0  0
    1.6591    1.6925    2.3493 C   0  0  0  0  0  0  0  0  0  0  0  0
    1.1360    0.8667    3.0849 O   0  0  0  0  0  0  0  0  0  0  0  0
    1.4887    1.7280    0.8678 C   0  0  0  0  0  0  0  0  0  0  0  0
    2.0468    2.8153    0.1453 C   0  0  0  0  0  0  0  0  0  0  0  0
    2.5043    3.6972   -0.4561 N   0  0  0  0  0  0  0  0  0  0  0  0
    0.7715    0.7233    0.3215 C   0  0  0  0  0  0  0  0  0  0  0  0
    0.3904    0.4387   -1.0699 C   0  0  0  0  0  0  0  0  0  0  0  0
   -0.6220   -0.4213   -1.3715 C   0  0  0  0  0  0  0  0  0  0  0  0
   -1.3883   -1.0887   -0.3993 N   0  0  0  0  0  0  0  0  0  0  0  0
   -2.4695   -0.4057    0.3477 C   0  0  0  0  0  0  0  0  0  0  0  0
   -2.5556   -0.9276    1.7903 C   0  0  0  0  0  0  0  0  0  0  0  0
   -2.7927   -2.3409    1.8769 O   0  0  0  0  0  0  0  0  0  0  0  0
   -2.2099   -3.0841    0.7952 C   0  0  0  0  0  0  0  0  0  0  0  0
   -0.9926   -2.3989    0.1570 C   0  0  0  0  0  0  0  0  0  0  0  0
   -1.0426   -0.6730   -2.8556 C   0  0  0  0  0  0  0  0  0  0  0  0
   -2.5319   -0.3548   -3.0668 C   0  0  0  0  0  0  0  0  0  0  0  0
   -0.7835   -2.1254   -3.2871 C   0  0  0  0  0  0  0  0  0  0  0  0
   -0.3643    0.1969   -3.7854 O   0  0  0  0  0  0  0  0  0  0  0  0
    1.0176    0.3506   -3.5059 C   0  0  0  0  0  0  0  0  0  0  0  0
    1.1790    1.0860   -2.1865 C   0  0  0  0  0  0  0  0  0  0  0  0
    4.7775    2.1420    3.9701 H   0  0  0  0  0  0  0  0  0  0  0  0
    4.1214    1.9784    5.6166 H   0  0  0  0  0  0  0  0  0  0  0  0
    3.6637    0.8314    4.3385 H   0  0  0  0  0  0  0  0  0  0  0  0
    1.8226    2.5277    4.7485 H   0  0  0  0  0  0  0  0  0  0  0  0
    2.9701    3.8182    4.3964 H   0  0  0  0  0  0  0  0  0  0  0  0
    0.3767   -0.0148    1.0196 H   0  0  0  0  0  0  0  0  0  0  0  0
   -2.3118    0.6786    0.3586 H   0  0  0  0  0  0  0  0  0  0  0  0
   -3.4172   -0.6042   -0.1650 H   0  0  0  0  0  0  0  0  0  0  0  0
   -1.6294   -0.7110    2.3349 H   0  0  0  0  0  0  0  0  0  0  0  0
   -3.3697   -0.4259    2.3229 H   0  0  0  0  0  0  0  0  0  0  0  0
   -1.9279   -4.0663    1.1873 H   0  0  0  0  0  0  0  0  0  0  0  0
   -2.9931   -3.2429    0.0446 H   0  0  0  0  0  0  0  0  0  0  0  0
   -0.2136   -2.2508    0.9132 H   0  0  0  0  0  0  0  0  0  0  0  0
   -0.5804   -3.0434   -0.6251 H   0  0  0  0  0  0  0  0  0  0  0  0
   -3.1866   -1.0413   -2.5207 H   0  0  0  0  0  0  0  0  0  0  0  0
   -2.7606    0.6698   -2.7503 H   0  0  0  0  0  0  0  0  0  0  0  0
   -2.7954   -0.4149   -4.1297 H   0  0  0  0  0  0  0  0  0  0  0  0
   -0.9085   -2.2365   -4.3706 H   0  0  0  0  0  0  0  0  0  0  0  0
   -1.4658   -2.8261   -2.7948 H   0  0  0  0  0  0  0  0  0  0  0  0
    0.2409   -2.4379   -3.0571 H   0  0  0  0  0  0  0  0  0  0  0  0
    1.5264   -0.6198   -3.5001 H   0  0  0  0  0  0  0  0  0  0  0  0
    1.4608    0.9415   -4.3143 H   0  0  0  0  0  0  0  0  0  0  0  0
    2.2492    1.1058   -1.9538 H   0  0  0  0  0  0  0  0  0  0  0  0
    0.8233    2.1162   -2.3085 H   0  0  0  0  0  0  0  0  0  0  0  0
  1  2  1  0
  2  3  1  0
  3  4  1  0
  4  5  2  0
  4  6  1  0
  6  7  1  0
  7  8  3  0
  6  9  2  3
  9 10  1  0
 10 11  2  0
 11 12  1  0
 12 13  1  0
 13 14  1  0
 14 15  1  0
 15 16  1  0
 16 17  1  0
 11 18  1  0
 18 19  1  0
 18 20  1  0
 18 21  1  0
 21 22  1  0
 22 23  1  0
 23 10  1  0
 17 12  1  0
  1 24  1  0
  1 25  1  0
  1 26  1  0
  2 27  1  0
  2 28  1  0
  9 29  1  0
 13 30  1  0
 13 31  1  0
 14 32  1  0
 14 33  1  0
 16 34  1  0
 16 35  1  0
 17 36  1  0
 17 37  1  0
 19 38  1  0
 19 39  1  0
 19 40  1  0
 20 41  1  0
 20 42  1  0
 20 43  1  0
 22 44  1  0
 22 45  1  0
 23 46  1  0
 23 47  1  0
M  END
$$$$
