
     RDKit          3D

 32 33  0  0  0  0  0  0  0  0999 V2000
    4.1729    1.8431   -0.2603 C   0  0  0  0  0  0  0  0  0  0  0  0
    4.2190    0.4001   -1.2915 S   0  0  0  0  0  6  0  0  0  0  0  0
    3.7384    0.7520   -2.6126 O   0  0  0  0  0  0  0  0  0  0  0  0
    5.5189   -0.2198   -1.1114 O   0  0  0  0  0  0  0  0  0  0  0  0
    3.0096   -0.6918   -0.5791 C   0  0  0  0  0  0  0  0  0  0  0  0
    3.3913   -1.9600   -0.1371 C   0  0  0  0  0  0  0  0  0  0  0  0
    2.4294   -2.8113    0.4041 C   0  0  0  0  0  0  0  0  0  0  0  0
    1.1012   -2.3864    0.5064 C   0  0  0  0  0  0  0  0  0  0  0  0
   -0.0547   -3.4807    1.1887 Cl  0  0  0  0  0  0  0  0  0  0  0  0
    0.7130   -1.1026    0.0736 C   0  0  0  0  0  0  0  0  0  0  0  0
   -0.6443   -0.7241    0.2126 N   0  0  0  0  0  0  0  0  0  0  0  0
   -1.1845    0.5351    0.0368 C   0  0  0  0  0  0  0  0  0  0  0  0
   -0.5584    1.5652   -0.1833 O   0  0  0  0  0  0  0  0  0  0  0  0
   -2.6640    0.6172    0.1967 C   0  0  0  0  0  0  0  0  0  0  0  0
   -3.5075   -0.4361   -0.1855 C   0  0  0  0  0  0  0  0  0  0  0  0
   -4.8896   -0.3183   -0.0219 C   0  0  0  0  0  0  0  0  0  0  0  0
   -5.4327    0.8500    0.5141 C   0  0  0  0  0  0  0  0  0  0  0  0
   -4.5926    1.9023    0.8768 C   0  0  0  0  0  0  0  0  0  0  0  0
   -5.3343    3.4875    1.5915 Br  0  0  0  0  0  0  0  0  0  0  0  0
   -3.2125    1.7960    0.7170 C   0  0  0  0  0  0  0  0  0  0  0  0
    1.6790   -0.2647   -0.4896 C   0  0  0  0  0  0  0  0  0  0  0  0
    4.9398    2.5350   -0.6157 H   0  0  0  0  0  0  0  0  0  0  0  0
    4.3880    1.5508    0.7694 H   0  0  0  0  0  0  0  0  0  0  0  0
    3.1920    2.3148   -0.3348 H   0  0  0  0  0  0  0  0  0  0  0  0
    4.4233   -2.2961   -0.2209 H   0  0  0  0  0  0  0  0  0  0  0  0
    2.7196   -3.8034    0.7420 H   0  0  0  0  0  0  0  0  0  0  0  0
   -1.2469   -1.4468    0.5939 H   0  0  0  0  0  0  0  0  0  0  0  0
   -3.1102   -1.3408   -0.6387 H   0  0  0  0  0  0  0  0  0  0  0  0
   -5.5457   -1.1324   -0.3220 H   0  0  0  0  0  0  0  0  0  0  0  0
   -6.5100    0.9346    0.6355 H   0  0  0  0  0  0  0  0  0  0  0  0
   -2.5605    2.6214    0.9950 H   0  0  0  0  0  0  0  0  0  0  0  0
    1.4129    0.7101   -0.8879 H   0  0  0  0  0  0  0  0  0  0  0  0
  1  2  1  0
  2  3  2  0
  2  4  2  0
  2  5  1  0
  5  6  2  0
  6  7  1  0
  7  8  2  0
  8  9  1  0
  8 10  1  0
 10 11  1  0
 11 12  1  0
 12 13  2  0
 12 14  1  0
 14 15  2  0
 15 16  1  0
 16 17  2  0
 17 18  1  0
 18 19  1  0
 18 20  2  0
 10 21  2  0
 21  5  1  0
 20 14  1  0
  1 22  1  0
  1 23  1  0
  1 24  1  0
  6 25  1  0
  7 26  1  0
 11 27  1  0
 15 28  1  0
 16 29  1  0
 17 30  1  0
 20 31  1  0
 21 32  1  0
M  END
$$$$
