
     RDKit          3D

 63 65  0  0  0  0  0  0  0  0999 V2000
    2.2074    6.0922    5.4587 C   0  0  0  0  0  0  0  0  0  0  0  0
    1.2562    5.3308    4.7263 O   0  0  0  0  0  0  0  0  0  0  0  0
    1.5164    5.1345    3.3974 C   0  0  0  0  0  0  0  0  0  0  0  0
    2.6606    5.5462    2.7157 C   0  0  0  0  0  0  0  0  0  0  0  0
    2.7984    5.2774    1.3511 C   0  0  0  0  0  0  0  0  0  0  0  0
    1.7952    4.5964    0.6634 C   0  0  0  0  0  0  0  0  0  0  0  0
    0.6402    4.1755    1.3332 C   0  0  0  0  0  0  0  0  0  0  0  0
   -0.4472    3.4351    0.5916 C   0  0  0  0  0  0  0  0  0  0  0  0
   -0.0322    2.0832    0.2191 N   0  0  0  0  0  0  0  0  0  0  0  0
   -0.0752    1.0648    1.2740 C   0  0  0  0  0  0  0  0  0  0  0  0
   -1.4852    0.4966    1.4873 C   0  0  0  0  0  0  0  0  0  0  0  0
   -2.4859    0.9175    0.9130 O   0  0  0  0  0  0  0  0  0  0  0  0
   -1.5307   -0.5308    2.4096 N   0  0  0  0  0  0  0  0  0  0  0  0
   -2.7564   -1.2895    2.6084 C   0  0  0  0  0  0  0  0  0  0  0  0
   -2.9340   -2.3572    1.5193 C   0  0  0  0  0  0  0  0  0  0  0  0
   -4.2287   -3.1442    1.6706 C   0  0  0  0  0  0  0  0  0  0  0  0
   -3.7988   -4.3601    2.4518 C   0  0  0  0  0  0  0  0  0  0  0  0
   -2.4126   -4.6041    1.9036 C   0  0  0  0  0  0  0  0  0  0  0  0
   -1.8520   -3.3105    1.6430 O   0  0  0  0  0  0  0  0  0  0  0  0
    0.2152    1.8104   -1.1187 C   0  0  0  0  0  0  0  0  0  0  0  0
    0.2221    2.6897   -1.9815 O   0  0  0  0  0  0  0  0  0  0  0  0
    0.5130    0.3683   -1.4867 C   0  0  0  0  0  0  0  0  0  0  0  0
    0.6377    0.1902   -2.9967 C   0  0  0  0  0  0  0  0  0  0  0  0
    0.9895   -1.2356   -3.3655 C   0  0  0  0  0  0  0  0  0  0  0  0
    1.1768   -2.1055   -2.5211 O   0  0  0  0  0  0  0  0  0  0  0  0
    1.0747   -1.4037   -4.7289 N   0  0  0  0  0  0  0  0  0  0  0  0
    1.4002   -2.5790   -5.3669 C   0  0  0  0  0  0  0  0  0  0  0  0
    1.7021   -3.8448   -4.8199 C   0  0  0  0  0  0  0  0  0  0  0  0
    1.9573   -4.6404   -5.9088 C   0  0  0  0  0  0  0  0  0  0  0  0
    2.3339   -6.0526   -6.0882 C   0  0  0  0  0  0  0  0  0  0  0  0
    1.8165   -3.9024   -7.0402 O   0  0  0  0  0  0  0  0  0  0  0  0
    1.4647   -2.6087   -6.7028 N   0  0  0  0  0  0  0  0  0  0  0  0
    0.5138    4.4509    2.7029 C   0  0  0  0  0  0  0  0  0  0  0  0
    3.1710    5.5747    5.5087 H   0  0  0  0  0  0  0  0  0  0  0  0
    1.8322    6.1984    6.4812 H   0  0  0  0  0  0  0  0  0  0  0  0
    2.3183    7.0981    5.0396 H   0  0  0  0  0  0  0  0  0  0  0  0
    3.4642    6.0771    3.2134 H   0  0  0  0  0  0  0  0  0  0  0  0
    3.6890    5.6021    0.8214 H   0  0  0  0  0  0  0  0  0  0  0  0
    1.9124    4.3950   -0.4007 H   0  0  0  0  0  0  0  0  0  0  0  0
   -0.7257    4.0218   -0.2920 H   0  0  0  0  0  0  0  0  0  0  0  0
   -1.3550    3.3640    1.2016 H   0  0  0  0  0  0  0  0  0  0  0  0
    0.5983    0.2388    1.0313 H   0  0  0  0  0  0  0  0  0  0  0  0
    0.2700    1.5060    2.2145 H   0  0  0  0  0  0  0  0  0  0  0  0
   -0.6723   -1.0366    2.5979 H   0  0  0  0  0  0  0  0  0  0  0  0
   -2.6694   -1.7527    3.5968 H   0  0  0  0  0  0  0  0  0  0  0  0
   -3.6058   -0.5991    2.6158 H   0  0  0  0  0  0  0  0  0  0  0  0
   -2.8723   -1.9004    0.5257 H   0  0  0  0  0  0  0  0  0  0  0  0
   -5.0366   -2.5833    2.1475 H   0  0  0  0  0  0  0  0  0  0  0  0
   -4.5817   -3.4577    0.6807 H   0  0  0  0  0  0  0  0  0  0  0  0
   -3.7440   -4.1164    3.5191 H   0  0  0  0  0  0  0  0  0  0  0  0
   -4.4649   -5.2182    2.3284 H   0  0  0  0  0  0  0  0  0  0  0  0
   -2.4494   -5.1525    0.9557 H   0  0  0  0  0  0  0  0  0  0  0  0
   -1.7719   -5.1499    2.6019 H   0  0  0  0  0  0  0  0  0  0  0  0
    1.4544    0.0781   -1.0067 H   0  0  0  0  0  0  0  0  0  0  0  0
   -0.2895   -0.2760   -1.1114 H   0  0  0  0  0  0  0  0  0  0  0  0
    1.4208    0.8477   -3.3931 H   0  0  0  0  0  0  0  0  0  0  0  0
   -0.3067    0.4556   -3.4859 H   0  0  0  0  0  0  0  0  0  0  0  0
    0.9036   -0.6287   -5.3554 H   0  0  0  0  0  0  0  0  0  0  0  0
    1.7336   -4.1405   -3.7824 H   0  0  0  0  0  0  0  0  0  0  0  0
    1.5968   -6.5721   -6.7081 H   0  0  0  0  0  0  0  0  0  0  0  0
    2.3926   -6.5690   -5.1262 H   0  0  0  0  0  0  0  0  0  0  0  0
    3.3106   -6.1296   -6.5758 H   0  0  0  0  0  0  0  0  0  0  0  0
   -0.3760    4.1349    3.2425 H   0  0  0  0  0  0  0  0  0  0  0  0
  1  2  1  0
  2  3  1  0
  3  4  2  0
  4  5  1  0
  5  6  2  0
  6  7  1  0
  7  8  1  0
  8  9  1  0
  9 10  1  0
 10 11  1  0
 11 12  2  0
 11 13  1  0
 13 14  1  0
 14 15  1  0
 15 16  1  0
 16 17  1  0
 17 18  1  0
 18 19  1  0
  9 20  1  0
 20 21  2  0
 20 22  1  0
 22 23  1  0
 23 24  1  0
 24 25  2  0
 24 26  1  0
 26 27  1  0
 27 28  1  0
 28 29  2  0
 29 30  1  0
 29 31  1  0
 31 32  1  0
  7 33  2  0
 33  3  1  0
 19 15  1  0
 32 27  2  0
  1 34  1  0
  1 35  1  0
  1 36  1  0
  4 37  1  0
  5 38  1  0
  6 39  1  0
  8 40  1  0
  8 41  1  0
 10 42  1  0
 10 43  1  0
 13 44  1  0
 14 45  1  0
 14 46  1  0
 15 47  1  0
 16 48  1  0
 16 49  1  0
 17 50  1  0
 17 51  1  0
 18 52  1  0
 18 53  1  0
 22 54  1  0
 22 55  1  0
 23 56  1  0
 23 57  1  0
 26 58  1  0
 28 59  1  0
 30 60  1  0
 30 61  1  0
 30 62  1  0
 33 63  1  0
M  END
$$$$
