
     RDKit          3D

 47 50  0  0  0  0  0  0  0  0999 V2000
   -8.8610   -1.4224    2.7871 C   0  0  0  0  0  0  0  0  0  0  0  0
   -7.7325   -1.6967    1.9530 O   0  0  0  0  0  0  0  0  0  0  0  0
   -6.8413   -0.6743    1.8691 C   0  0  0  0  0  0  0  0  0  0  0  0
   -6.9373    0.4060    2.4300 O   0  0  0  0  0  0  0  0  0  0  0  0
   -5.6925   -1.0455    0.9949 C   0  0  0  0  0  0  0  0  0  0  0  0
   -5.6820   -2.2205    0.2400 C   0  0  0  0  0  0  0  0  0  0  0  0
   -4.5822   -2.5184   -0.5652 C   0  0  0  0  0  0  0  0  0  0  0  0
   -3.4911   -1.6429   -0.6361 C   0  0  0  0  0  0  0  0  0  0  0  0
   -3.4867   -0.4496    0.0923 C   0  0  0  0  0  0  0  0  0  0  0  0
   -2.4145    0.4960    0.0391 N   0  0  0  0  0  0  0  0  0  0  0  0
   -2.4025    1.5429    0.9144 N   0  0  0  0  0  0  0  0  0  0  0  0
   -1.3001    2.2361    0.6667 N   0  0  0  0  0  0  0  0  0  0  0  0
   -0.6101    1.7048   -0.3816 N   0  0  0  0  0  0  0  0  0  0  0  0
   -1.2893    0.6469   -0.7714 C   0  0  0  0  0  0  0  0  0  0  0  0
   -0.8132   -0.3293   -2.1224 S   0  0  0  0  0  0  0  0  0  0  0  0
   -0.0389    0.9147   -3.2023 C   0  0  0  0  0  0  0  0  0  0  0  0
    1.3359    1.3982   -2.7520 C   0  0  0  0  0  0  0  0  0  0  0  0
    1.7177    2.5138   -3.1075 O   0  0  0  0  0  0  0  0  0  0  0  0
    2.0725    0.4622   -2.0632 N   0  0  0  0  0  0  0  0  0  0  0  0
    3.3181    0.6137   -1.5123 C   0  0  0  0  0  0  0  0  0  0  0  0
    3.8886   -0.3777   -0.8583 N   0  0  0  0  0  0  0  0  0  0  0  0
    5.1214    0.0359   -0.3946 C   0  0  0  0  0  0  0  0  0  0  0  0
    5.4612    1.3361   -0.7083 C   0  0  0  0  0  0  0  0  0  0  0  0
    4.2130    2.0645   -1.6075 S   0  0  0  0  0  0  0  0  0  0  0  0
    6.7414    2.0092   -0.3366 C   0  0  0  0  0  0  0  0  0  0  0  0
    7.4396    1.2202    0.7882 C   0  0  0  0  0  0  0  0  0  0  0  0
    7.4275   -0.2959    0.5209 C   0  0  0  0  0  0  0  0  0  0  0  0
    5.9946   -0.8555    0.4223 C   0  0  0  0  0  0  0  0  0  0  0  0
   -4.5944   -0.1688    0.9220 C   0  0  0  0  0  0  0  0  0  0  0  0
   -8.5384   -1.2312    3.8186 H   0  0  0  0  0  0  0  0  0  0  0  0
   -9.5118   -2.3043    2.7806 H   0  0  0  0  0  0  0  0  0  0  0  0
   -9.4286   -0.5690    2.3943 H   0  0  0  0  0  0  0  0  0  0  0  0
   -6.5230   -2.9154    0.2656 H   0  0  0  0  0  0  0  0  0  0  0  0
   -4.5742   -3.4431   -1.1403 H   0  0  0  0  0  0  0  0  0  0  0  0
   -2.6648   -1.9601   -1.2578 H   0  0  0  0  0  0  0  0  0  0  0  0
   -0.7084    1.7770   -3.2970 H   0  0  0  0  0  0  0  0  0  0  0  0
    0.0814    0.4691   -4.1961 H   0  0  0  0  0  0  0  0  0  0  0  0
    1.6584   -0.4376   -1.8560 H   0  0  0  0  0  0  0  0  0  0  0  0
    7.3939    2.0480   -1.2153 H   0  0  0  0  0  0  0  0  0  0  0  0
    6.5708    3.0375   -0.0048 H   0  0  0  0  0  0  0  0  0  0  0  0
    8.4725    1.5752    0.9001 H   0  0  0  0  0  0  0  0  0  0  0  0
    6.9237    1.4140    1.7368 H   0  0  0  0  0  0  0  0  0  0  0  0
    7.9675   -0.4972   -0.4119 H   0  0  0  0  0  0  0  0  0  0  0  0
    7.9647   -0.8181    1.3194 H   0  0  0  0  0  0  0  0  0  0  0  0
    5.5657   -0.9312    1.4294 H   0  0  0  0  0  0  0  0  0  0  0  0
    6.0164   -1.8662   -0.0024 H   0  0  0  0  0  0  0  0  0  0  0  0
   -4.6277    0.7485    1.5112 H   0  0  0  0  0  0  0  0  0  0  0  0
  1  2  1  0
  2  3  1  0
  3  4  2  0
  3  5  1  0
  5  6  2  0
  6  7  1  0
  7  8  2  0
  8  9  1  0
  9 10  1  0
 10 11  1  0
 11 12  2  0
 12 13  1  0
 13 14  2  0
 14 15  1  0
 15 16  1  0
 16 17  1  0
 17 18  2  0
 17 19  1  0
 19 20  1  0
 20 21  2  0
 21 22  1  0
 22 23  2  0
 23 24  1  0
 23 25  1  0
 25 26  1  0
 26 27  1  0
 27 28  1  0
  9 29  2  0
 29  5  1  0
 14 10  1  0
 24 20  1  0
 28 22  1  0
  1 30  1  0
  1 31  1  0
  1 32  1  0
  6 33  1  0
  7 34  1  0
  8 35  1  0
 16 36  1  0
 16 37  1  0
 19 38  1  0
 25 39  1  0
 25 40  1  0
 26 41  1  0
 26 42  1  0
 27 43  1  0
 27 44  1  0
 28 45  1  0
 28 46  1  0
 29 47  1  0
M  END
$$$$
