
     RDKit          3D

 57 60  0  0  0  0  0  0  0  0999 V2000
   -4.4956   -2.9383   -1.3001 C   0  0  0  0  0  0  0  0  0  0  0  0
   -5.1880   -1.7890   -0.5679 C   0  0  0  0  0  0  0  0  0  0  0  0
   -6.5376   -2.2640   -0.0226 C   0  0  0  0  0  0  0  0  0  0  0  0
   -4.2939   -1.2723    0.5643 C   0  0  0  0  0  0  0  0  0  0  0  0
   -4.5515   -1.5420    1.7392 O   0  0  0  0  0  0  0  0  0  0  0  0
   -3.1593   -0.5405    0.2200 N   0  0  0  0  0  0  0  0  0  0  0  0
   -2.3589   -0.0009    1.3279 C   0  0  0  0  0  0  0  0  0  0  0  0
   -0.8884    0.2060    0.9433 C   0  0  0  0  0  0  0  0  0  0  0  0
   -0.7349    1.0015   -0.2963 N   0  0  0  0  0  0  0  0  0  0  0  0
   -0.6132    2.3874   -0.0706 C   0  0  0  0  0  0  0  0  0  0  0  0
   -1.7057    3.2628   -0.0567 C   0  0  0  0  0  0  0  0  0  0  0  0
   -1.5327    4.6226    0.2160 C   0  0  0  0  0  0  0  0  0  0  0  0
   -0.2629    5.1276    0.4803 C   0  0  0  0  0  0  0  0  0  0  0  0
    0.8436    4.2789    0.4670 C   0  0  0  0  0  0  0  0  0  0  0  0
    0.6795    2.9219    0.1859 C   0  0  0  0  0  0  0  0  0  0  0  0
    1.7489    2.0016    0.1103 N   0  0  0  0  0  0  0  0  0  0  0  0
    3.0946    2.2307    0.2884 C   0  0  0  0  0  0  0  0  0  0  0  0
    3.6271    3.3087    0.5262 O   0  0  0  0  0  0  0  0  0  0  0  0
    3.9689    1.0283    0.1479 C   0  0  0  0  0  0  0  0  0  0  0  0
    5.2900    1.2142   -0.2877 C   0  0  0  0  0  0  0  0  0  0  0  0
    6.1514    0.1225   -0.4207 C   0  0  0  0  0  0  0  0  0  0  0  0
    5.6984   -1.1572   -0.1099 C   0  0  0  0  0  0  0  0  0  0  0  0
    4.3782   -1.3505    0.3111 C   0  0  0  0  0  0  0  0  0  0  0  0
    3.5192   -0.2615    0.4614 C   0  0  0  0  0  0  0  0  0  0  0  0
    3.8585   -2.5848    0.6096 O   0  0  0  0  0  0  0  0  0  0  0  0
    4.6947   -3.6382    0.1141 C   0  0  0  0  0  0  0  0  0  0  0  0
    6.1545   -3.3616    0.4329 C   0  0  0  0  0  0  0  0  0  0  0  0
    6.6026   -2.1793   -0.2409 O   0  0  0  0  0  0  0  0  0  0  0  0
   -1.5705    0.5398   -1.4206 C   0  0  0  0  0  0  0  0  0  0  0  0
   -3.0252    0.1977   -1.0432 C   0  0  0  0  0  0  0  0  0  0  0  0
   -3.5275   -2.6380   -1.7134 H   0  0  0  0  0  0  0  0  0  0  0  0
   -4.3085   -3.7787   -0.6219 H   0  0  0  0  0  0  0  0  0  0  0  0
   -5.1153   -3.3011   -2.1273 H   0  0  0  0  0  0  0  0  0  0  0  0
   -5.3996   -0.9697   -1.2616 H   0  0  0  0  0  0  0  0  0  0  0  0
   -7.1926   -2.5910   -0.8370 H   0  0  0  0  0  0  0  0  0  0  0  0
   -7.0454   -1.4555    0.5148 H   0  0  0  0  0  0  0  0  0  0  0  0
   -6.4194   -3.1022    0.6729 H   0  0  0  0  0  0  0  0  0  0  0  0
   -2.4041   -0.6747    2.1905 H   0  0  0  0  0  0  0  0  0  0  0  0
   -2.8204    0.9468    1.6295 H   0  0  0  0  0  0  0  0  0  0  0  0
   -0.4315   -0.7747    0.7601 H   0  0  0  0  0  0  0  0  0  0  0  0
   -0.3401    0.6517    1.7827 H   0  0  0  0  0  0  0  0  0  0  0  0
   -2.7137    2.9084   -0.2296 H   0  0  0  0  0  0  0  0  0  0  0  0
   -2.3923    5.2875    0.2308 H   0  0  0  0  0  0  0  0  0  0  0  0
   -0.1289    6.1846    0.6961 H   0  0  0  0  0  0  0  0  0  0  0  0
    1.8213    4.7039    0.6688 H   0  0  0  0  0  0  0  0  0  0  0  0
    1.4299    1.0869   -0.1922 H   0  0  0  0  0  0  0  0  0  0  0  0
    5.6528    2.2140   -0.5200 H   0  0  0  0  0  0  0  0  0  0  0  0
    7.1754    0.2739   -0.7516 H   0  0  0  0  0  0  0  0  0  0  0  0
    2.5170   -0.4371    0.8388 H   0  0  0  0  0  0  0  0  0  0  0  0
    4.3730   -4.5693    0.5914 H   0  0  0  0  0  0  0  0  0  0  0  0
    4.5312   -3.7333   -0.9667 H   0  0  0  0  0  0  0  0  0  0  0  0
    6.3122   -3.2303    1.5109 H   0  0  0  0  0  0  0  0  0  0  0  0
    6.7804   -4.1932    0.0939 H   0  0  0  0  0  0  0  0  0  0  0  0
   -1.5512    1.2554   -2.2516 H   0  0  0  0  0  0  0  0  0  0  0  0
   -1.1015   -0.3766   -1.8011 H   0  0  0  0  0  0  0  0  0  0  0  0
   -3.6281    1.1052   -0.9388 H   0  0  0  0  0  0  0  0  0  0  0  0
   -3.4645   -0.3646   -1.8703 H   0  0  0  0  0  0  0  0  0  0  0  0
  1  2  1  0
  2  3  1  0
  2  4  1  0
  4  5  2  0
  4  6  1  0
  6  7  1  0
  7  8  1  0
  8  9  1  0
  9 10  1  0
 10 11  2  0
 11 12  1  0
 12 13  2  0
 13 14  1  0
 14 15  2  0
 15 16  1  0
 16 17  1  0
 17 18  2  0
 17 19  1  0
 19 20  2  0
 20 21  1  0
 21 22  2  0
 22 23  1  0
 23 24  2  0
 23 25  1  0
 25 26  1  0
 26 27  1  0
 27 28  1  0
  9 29  1  0
 29 30  1  0
 30  6  1  0
 15 10  1  0
 24 19  1  0
 28 22  1  0
  1 31  1  0
  1 32  1  0
  1 33  1  0
  2 34  1  0
  3 35  1  0
  3 36  1  0
  3 37  1  0
  7 38  1  0
  7 39  1  0
  8 40  1  0
  8 41  1  0
 11 42  1  0
 12 43  1  0
 13 44  1  0
 14 45  1  0
 16 46  1  0
 20 47  1  0
 21 48  1  0
 24 49  1  0
 26 50  1  0
 26 51  1  0
 27 52  1  0
 27 53  1  0
 29 54  1  0
 29 55  1  0
 30 56  1  0
 30 57  1  0
M  END
$$$$
