
     RDKit          3D

 40 41  0  0  0  0  0  0  0  0999 V2000
    8.1660   -0.5504    0.9062 C   0  0  0  0  0  0  0  0  0  0  0  0
    6.7289    0.1386    0.0539 S   0  0  0  0  0  0  0  0  0  0  0  0
    5.4524   -0.3213    1.2636 C   0  0  0  0  0  0  0  0  0  0  0  0
    4.0860    0.1529    0.8348 C   0  0  0  0  0  0  0  0  0  0  0  0
    3.3040   -0.6196   -0.0370 C   0  0  0  0  0  0  0  0  0  0  0  0
    2.0425   -0.1761   -0.4466 C   0  0  0  0  0  0  0  0  0  0  0  0
    1.5450    1.0477    0.0165 C   0  0  0  0  0  0  0  0  0  0  0  0
    0.2077    1.5647   -0.3879 C   0  0  0  0  0  0  0  0  0  0  0  0
   -0.0198    2.7689   -0.3805 O   0  0  0  0  0  0  0  0  0  0  0  0
   -0.7439    0.6211   -0.7170 N   0  0  0  0  0  0  0  0  0  0  0  0
   -2.0985    1.0068   -1.0789 C   0  0  0  0  0  0  0  0  0  0  0  0
   -2.9309    1.4201    0.1372 C   0  0  0  0  0  0  0  0  0  0  0  0
   -4.6700    1.7724   -0.3099 S   0  0  0  0  0  0  0  0  0  0  0  0
   -5.2593    0.1255   -0.6527 C   0  0  0  0  0  0  0  0  0  0  0  0
   -5.2792   -0.8616    0.3382 C   0  0  0  0  0  0  0  0  0  0  0  0
   -5.7504   -2.1447    0.0470 C   0  0  0  0  0  0  0  0  0  0  0  0
   -6.2106   -2.4372   -1.2354 C   0  0  0  0  0  0  0  0  0  0  0  0
   -6.8464   -4.1725   -1.6309 Br  0  0  0  0  0  0  0  0  0  0  0  0
   -6.2101   -1.4577   -2.2262 C   0  0  0  0  0  0  0  0  0  0  0  0
   -5.7392   -0.1754   -1.9318 C   0  0  0  0  0  0  0  0  0  0  0  0
    2.3318    1.8345    0.8653 C   0  0  0  0  0  0  0  0  0  0  0  0
    3.5924    1.3901    1.2722 C   0  0  0  0  0  0  0  0  0  0  0  0
    9.0622   -0.3669    0.3077 H   0  0  0  0  0  0  0  0  0  0  0  0
    8.2959   -0.0733    1.8810 H   0  0  0  0  0  0  0  0  0  0  0  0
    8.0505   -1.6295    1.0366 H   0  0  0  0  0  0  0  0  0  0  0  0
    5.4406   -1.4104    1.3844 H   0  0  0  0  0  0  0  0  0  0  0  0
    5.7051    0.1096    2.2390 H   0  0  0  0  0  0  0  0  0  0  0  0
    3.6850   -1.5653   -0.4185 H   0  0  0  0  0  0  0  0  0  0  0  0
    1.4819   -0.7811   -1.1527 H   0  0  0  0  0  0  0  0  0  0  0  0
   -0.5645   -0.3548   -0.5254 H   0  0  0  0  0  0  0  0  0  0  0  0
   -2.0392    1.8311   -1.7993 H   0  0  0  0  0  0  0  0  0  0  0  0
   -2.5324    0.1391   -1.5859 H   0  0  0  0  0  0  0  0  0  0  0  0
   -2.8912    0.6512    0.9159 H   0  0  0  0  0  0  0  0  0  0  0  0
   -2.5187    2.3326    0.5806 H   0  0  0  0  0  0  0  0  0  0  0  0
   -4.9427   -0.6391    1.3480 H   0  0  0  0  0  0  0  0  0  0  0  0
   -5.7619   -2.9017    0.8268 H   0  0  0  0  0  0  0  0  0  0  0  0
   -6.5767   -1.6773   -3.2256 H   0  0  0  0  0  0  0  0  0  0  0  0
   -5.7496    0.5855   -2.7094 H   0  0  0  0  0  0  0  0  0  0  0  0
    1.9663    2.8006    1.2089 H   0  0  0  0  0  0  0  0  0  0  0  0
    4.1912    2.0230    1.9243 H   0  0  0  0  0  0  0  0  0  0  0  0
  1  2  1  0
  2  3  1  0
  3  4  1  0
  4  5  2  0
  5  6  1  0
  6  7  2  0
  7  8  1  0
  8  9  2  0
  8 10  1  0
 10 11  1  0
 11 12  1  0
 12 13  1  0
 13 14  1  0
 14 15  2  0
 15 16  1  0
 16 17  2  0
 17 18  1  0
 17 19  1  0
 19 20  2  0
  7 21  1  0
 21 22  2  0
 22  4  1  0
 20 14  1  0
  1 23  1  0
  1 24  1  0
  1 25  1  0
  3 26  1  0
  3 27  1  0
  5 28  1  0
  6 29  1  0
 10 30  1  0
 11 31  1  0
 11 32  1  0
 12 33  1  0
 12 34  1  0
 15 35  1  0
 16 36  1  0
 19 37  1  0
 20 38  1  0
 21 39  1  0
 22 40  1  0
M  END
$$$$
