
     RDKit          3D

 39 40  0  0  0  0  0  0  0  0999 V2000
   -3.4863   -3.0056    1.5063 C   0  0  0  0  0  0  0  0  0  0  0  0
   -3.4489   -1.9521    0.4157 C   0  0  0  0  0  0  0  0  0  0  0  0
   -2.3091   -1.1166    0.6445 O   0  0  0  0  0  0  0  0  0  0  0  0
   -2.4391    0.0676   -0.0364 C   0  0  0  0  0  0  0  0  0  0  0  0
   -2.7626    1.2035    0.7055 C   0  0  0  0  0  0  0  0  0  0  0  0
   -2.8675    2.4380    0.0674 C   0  0  0  0  0  0  0  0  0  0  0  0
   -2.6444    2.5296   -1.3056 C   0  0  0  0  0  0  0  0  0  0  0  0
   -2.2902    1.3951   -2.0438 C   0  0  0  0  0  0  0  0  0  0  0  0
   -2.1637    0.1603   -1.4069 C   0  0  0  0  0  0  0  0  0  0  0  0
   -1.7979   -0.9952   -2.0449 O   0  0  0  0  0  0  0  0  0  0  0  0
   -0.7371   -0.8721   -2.9851 C   0  0  0  0  0  0  0  0  0  0  0  0
    0.6318   -0.4780   -2.4111 C   0  0  0  0  0  0  0  0  0  0  0  0
    1.4500    0.1022   -3.1183 O   0  0  0  0  0  0  0  0  0  0  0  0
    0.8035   -0.8901   -1.1086 N   0  0  0  0  0  0  0  0  0  0  0  0
    1.8953   -0.6702   -0.3086 C   0  0  0  0  0  0  0  0  0  0  0  0
    1.9299   -1.0415    0.9534 N   0  0  0  0  0  0  0  0  0  0  0  0
    3.1229   -0.7108    1.5647 N   0  0  0  0  0  0  0  0  0  0  0  0
    3.9409   -0.0893    0.7387 C   0  0  0  0  0  0  0  0  0  0  0  0
    5.2907    0.4275    1.1060 C   0  0  0  0  0  0  0  0  0  0  0  0
    5.2229    1.8416    1.3285 O   0  0  0  0  0  0  0  0  0  0  0  0
    4.6954    2.1759    2.6075 C   0  0  0  0  0  0  0  0  0  0  0  0
    3.3186    0.0932   -0.8521 S   0  0  0  0  0  0  0  0  0  0  0  0
   -4.3491   -3.6687    1.3817 H   0  0  0  0  0  0  0  0  0  0  0  0
   -3.5464   -2.5331    2.4924 H   0  0  0  0  0  0  0  0  0  0  0  0
   -2.5710   -3.6079    1.4932 H   0  0  0  0  0  0  0  0  0  0  0  0
   -3.3612   -2.4423   -0.5581 H   0  0  0  0  0  0  0  0  0  0  0  0
   -4.3812   -1.3707    0.4452 H   0  0  0  0  0  0  0  0  0  0  0  0
   -2.9283    1.1251    1.7769 H   0  0  0  0  0  0  0  0  0  0  0  0
   -3.1215    3.3262    0.6381 H   0  0  0  0  0  0  0  0  0  0  0  0
   -2.7382    3.4890   -1.8066 H   0  0  0  0  0  0  0  0  0  0  0  0
   -2.1323    1.5055   -3.1117 H   0  0  0  0  0  0  0  0  0  0  0  0
   -1.0055   -0.1915   -3.8012 H   0  0  0  0  0  0  0  0  0  0  0  0
   -0.6043   -1.8596   -3.4407 H   0  0  0  0  0  0  0  0  0  0  0  0
    0.0129   -1.3021   -0.6216 H   0  0  0  0  0  0  0  0  0  0  0  0
    5.9977    0.2643    0.2871 H   0  0  0  0  0  0  0  0  0  0  0  0
    5.6902   -0.0820    1.9916 H   0  0  0  0  0  0  0  0  0  0  0  0
    4.7498    3.2616    2.7261 H   0  0  0  0  0  0  0  0  0  0  0  0
    5.2860    1.7115    3.4013 H   0  0  0  0  0  0  0  0  0  0  0  0
    3.6475    1.8752    2.6894 H   0  0  0  0  0  0  0  0  0  0  0  0
  1  2  1  0
  2  3  1  0
  3  4  1  0
  4  5  2  0
  5  6  1  0
  6  7  2  0
  7  8  1  0
  8  9  2  0
  9 10  1  0
 10 11  1  0
 11 12  1  0
 12 13  2  0
 12 14  1  0
 14 15  1  0
 15 16  2  0
 16 17  1  0
 17 18  2  0
 18 19  1  0
 19 20  1  0
 20 21  1  0
 18 22  1  0
  9  4  1  0
 22 15  1  0
  1 23  1  0
  1 24  1  0
  1 25  1  0
  2 26  1  0
  2 27  1  0
  5 28  1  0
  6 29  1  0
  7 30  1  0
  8 31  1  0
 11 32  1  0
 11 33  1  0
 14 34  1  0
 19 35  1  0
 19 36  1  0
 21 37  1  0
 21 38  1  0
 21 39  1  0
M  END
$$$$
