
     RDKit          3D

 61 63  0  0  0  0  0  0  0  0999 V2000
   -9.0219    2.2655   -1.2941 C   0  0  0  0  0  0  0  0  0  0  0  0
   -8.1947    1.1944   -1.7297 O   0  0  0  0  0  0  0  0  0  0  0  0
   -7.6127    0.4280   -0.7576 C   0  0  0  0  0  0  0  0  0  0  0  0
   -6.8345   -0.6287   -1.2345 C   0  0  0  0  0  0  0  0  0  0  0  0
   -6.1835   -1.4916   -0.3497 C   0  0  0  0  0  0  0  0  0  0  0  0
   -6.3064   -1.3119    1.0332 C   0  0  0  0  0  0  0  0  0  0  0  0
   -5.5882   -2.2290    1.9874 C   0  0  0  0  0  0  0  0  0  0  0  0
   -4.2196   -1.8189    2.1590 N   0  0  0  0  0  0  0  0  0  0  0  0
   -3.1731   -2.4556    1.5373 C   0  0  0  0  0  0  0  0  0  0  0  0
   -3.2335   -3.4850    0.8791 O   0  0  0  0  0  0  0  0  0  0  0  0
   -1.8154   -1.7426    1.7323 C   0  0  0  0  0  0  0  0  0  0  0  0
   -1.7669   -0.6600    2.2994 O   0  0  0  0  0  0  0  0  0  0  0  0
   -0.7485   -2.4486    1.2245 N   0  0  0  0  0  0  0  0  0  0  0  0
    0.5827   -1.8728    1.1267 C   0  0  0  0  0  0  0  0  0  0  0  0
    0.8375   -1.1575   -0.2291 C   0  0  0  0  0  0  0  0  0  0  0  0
   -0.1644   -0.1510   -0.4638 O   0  0  0  0  0  0  0  0  0  0  0  0
    0.3389    1.0460    0.1359 C   0  0  0  0  0  0  0  0  0  0  0  0
    1.8353    0.9936   -0.0973 C   0  0  0  0  0  0  0  0  0  0  0  0
    2.1156   -0.4322   -0.3316 N   0  0  0  0  0  0  0  0  0  0  0  0
    3.4778   -1.1266    0.3416 S   0  0  0  0  0  6  0  0  0  0  0  0
    3.4684   -0.8207    1.7559 O   0  0  0  0  0  0  0  0  0  0  0  0
    3.5578   -2.4923   -0.1278 O   0  0  0  0  0  0  0  0  0  0  0  0
    4.7920   -0.2166   -0.4255 C   0  0  0  0  0  0  0  0  0  0  0  0
    5.0410   -0.4076   -1.7850 C   0  0  0  0  0  0  0  0  0  0  0  0
    6.0698    0.3051   -2.4024 C   0  0  0  0  0  0  0  0  0  0  0  0
    6.8521    1.2006   -1.6624 C   0  0  0  0  0  0  0  0  0  0  0  0
    7.8810    1.9442   -2.1857 O   0  0  0  0  0  0  0  0  0  0  0  0
    8.1744    1.7884   -3.5666 C   0  0  0  0  0  0  0  0  0  0  0  0
    6.6025    1.3763   -0.2828 C   0  0  0  0  0  0  0  0  0  0  0  0
    7.4147    2.2729    0.3669 O   0  0  0  0  0  0  0  0  0  0  0  0
    7.3144    2.3500    1.7822 C   0  0  0  0  0  0  0  0  0  0  0  0
    5.5687    0.6641    0.3323 C   0  0  0  0  0  0  0  0  0  0  0  0
   -7.0780   -0.2434    1.5084 C   0  0  0  0  0  0  0  0  0  0  0  0
   -7.7303    0.6189    0.6189 C   0  0  0  0  0  0  0  0  0  0  0  0
   -8.4456    3.0031   -0.7257 H   0  0  0  0  0  0  0  0  0  0  0  0
   -9.4174    2.7660   -2.1835 H   0  0  0  0  0  0  0  0  0  0  0  0
   -9.8739    1.8961   -0.7138 H   0  0  0  0  0  0  0  0  0  0  0  0
   -6.7316   -0.7803   -2.3061 H   0  0  0  0  0  0  0  0  0  0  0  0
   -5.5769   -2.3038   -0.7464 H   0  0  0  0  0  0  0  0  0  0  0  0
   -6.0634   -2.2018    2.9742 H   0  0  0  0  0  0  0  0  0  0  0  0
   -5.6414   -3.2638    1.6302 H   0  0  0  0  0  0  0  0  0  0  0  0
   -4.0149   -0.9104    2.5650 H   0  0  0  0  0  0  0  0  0  0  0  0
   -0.9805   -3.2914    0.7029 H   0  0  0  0  0  0  0  0  0  0  0  0
    1.2832   -2.7014    1.2660 H   0  0  0  0  0  0  0  0  0  0  0  0
    0.7118   -1.1729    1.9591 H   0  0  0  0  0  0  0  0  0  0  0  0
    0.7584   -1.8809   -1.0479 H   0  0  0  0  0  0  0  0  0  0  0  0
   -0.1288    1.9204   -0.3246 H   0  0  0  0  0  0  0  0  0  0  0  0
    0.0975    1.0434    1.2035 H   0  0  0  0  0  0  0  0  0  0  0  0
    2.1030    1.5489   -1.0027 H   0  0  0  0  0  0  0  0  0  0  0  0
    2.3811    1.4242    0.7463 H   0  0  0  0  0  0  0  0  0  0  0  0
    4.4399   -1.1049   -2.3652 H   0  0  0  0  0  0  0  0  0  0  0  0
    6.2383    0.1382   -3.4615 H   0  0  0  0  0  0  0  0  0  0  0  0
    7.3241    2.0891   -4.1876 H   0  0  0  0  0  0  0  0  0  0  0  0
    8.4868    0.7629   -3.7906 H   0  0  0  0  0  0  0  0  0  0  0  0
    9.0116    2.4511   -3.8082 H   0  0  0  0  0  0  0  0  0  0  0  0
    6.3428    2.7541    2.0846 H   0  0  0  0  0  0  0  0  0  0  0  0
    8.0861    3.0412    2.1347 H   0  0  0  0  0  0  0  0  0  0  0  0
    7.5018    1.3769    2.2479 H   0  0  0  0  0  0  0  0  0  0  0  0
    5.3520    0.7826    1.3888 H   0  0  0  0  0  0  0  0  0  0  0  0
   -7.1786   -0.0721    2.5780 H   0  0  0  0  0  0  0  0  0  0  0  0
   -8.3183    1.4299    1.0348 H   0  0  0  0  0  0  0  0  0  0  0  0
  1  2  1  0
  2  3  1  0
  3  4  2  0
  4  5  1  0
  5  6  2  0
  6  7  1  0
  7  8  1  0
  8  9  1  0
  9 10  2  0
  9 11  1  0
 11 12  2  0
 11 13  1  0
 13 14  1  0
 14 15  1  0
 15 16  1  0
 16 17  1  0
 17 18  1  0
 18 19  1  0
 19 20  1  0
 20 21  2  0
 20 22  2  0
 20 23  1  0
 23 24  2  0
 24 25  1  0
 25 26  2  0
 26 27  1  0
 27 28  1  0
 26 29  1  0
 29 30  1  0
 30 31  1  0
 29 32  2  0
  6 33  1  0
 33 34  2  0
 34  3  1  0
 19 15  1  0
 32 23  1  0
  1 35  1  0
  1 36  1  0
  1 37  1  0
  4 38  1  0
  5 39  1  0
  7 40  1  0
  7 41  1  0
  8 42  1  0
 13 43  1  0
 14 44  1  0
 14 45  1  0
 15 46  1  0
 17 47  1  0
 17 48  1  0
 18 49  1  0
 18 50  1  0
 24 51  1  0
 25 52  1  0
 28 53  1  0
 28 54  1  0
 28 55  1  0
 31 56  1  0
 31 57  1  0
 31 58  1  0
 32 59  1  0
 33 60  1  0
 34 61  1  0
M  END
$$$$
