
     RDKit          3D

 48 52  0  0  0  0  0  0  0  0999 V2000
   -2.8945   -3.2730    1.3436 C   0  0  0  0  0  0  0  0  0  0  0  0
   -2.4848   -1.9381    0.9690 N   0  0  0  0  0  0  0  0  0  0  0  0
   -1.1939   -1.5628    0.7175 C   0  0  0  0  0  0  0  0  0  0  0  0
   -1.1717   -0.2165    0.3867 C   0  0  0  0  0  0  0  0  0  0  0  0
    0.0252    0.6525    0.0596 C   0  0  0  0  0  0  0  0  0  0  0  0
   -0.1772    1.2737   -1.3200 C   0  0  0  0  0  0  0  0  0  0  0  0
   -0.5413    0.5226   -2.4436 C   0  0  0  0  0  0  0  0  0  0  0  0
   -0.7084    1.1595   -3.6710 C   0  0  0  0  0  0  0  0  0  0  0  0
   -0.5086    2.5297   -3.7598 C   0  0  0  0  0  0  0  0  0  0  0  0
   -0.1526    3.2113   -2.6106 C   0  0  0  0  0  0  0  0  0  0  0  0
    0.0109    2.6235   -1.4055 N   0  0  0  0  0  0  0  0  0  0  0  0
    1.3832   -0.0168    0.0363 C   0  0  0  0  0  0  0  0  0  0  0  0
    1.7900   -1.1395   -0.6712 C   0  0  0  0  0  0  0  0  0  0  0  0
    3.1051   -1.3878   -0.3904 N   0  0  0  0  0  0  0  0  0  0  0  0
    3.8751   -2.4746   -0.9523 C   0  0  0  0  0  0  0  0  0  0  0  0
    3.5899   -0.4555    0.4979 C   0  0  0  0  0  0  0  0  0  0  0  0
    4.8632   -0.3068    1.0724 C   0  0  0  0  0  0  0  0  0  0  0  0
    5.0692    0.7599    1.9510 C   0  0  0  0  0  0  0  0  0  0  0  0
    4.0422    1.6497    2.2453 C   0  0  0  0  0  0  0  0  0  0  0  0
    2.7778    1.4918    1.6676 C   0  0  0  0  0  0  0  0  0  0  0  0
    2.5373    0.4205    0.7790 C   0  0  0  0  0  0  0  0  0  0  0  0
   -2.5379    0.2352    0.4887 C   0  0  0  0  0  0  0  0  0  0  0  0
   -3.1664    1.4880    0.3122 C   0  0  0  0  0  0  0  0  0  0  0  0
   -4.5503    1.6038    0.4793 C   0  0  0  0  0  0  0  0  0  0  0  0
   -5.3155    0.4946    0.8220 C   0  0  0  0  0  0  0  0  0  0  0  0
   -4.7214   -0.7562    1.0093 C   0  0  0  0  0  0  0  0  0  0  0  0
   -3.3311   -0.8609    0.8391 C   0  0  0  0  0  0  0  0  0  0  0  0
   -2.0223   -3.9313    1.3697 H   0  0  0  0  0  0  0  0  0  0  0  0
   -3.3540   -3.2289    2.3343 H   0  0  0  0  0  0  0  0  0  0  0  0
   -3.6087   -3.6369    0.6005 H   0  0  0  0  0  0  0  0  0  0  0  0
   -0.3851   -2.2768    0.8040 H   0  0  0  0  0  0  0  0  0  0  0  0
    0.0363    1.4618    0.8017 H   0  0  0  0  0  0  0  0  0  0  0  0
   -0.7050   -0.5473   -2.3661 H   0  0  0  0  0  0  0  0  0  0  0  0
   -0.9945    0.5872   -4.5483 H   0  0  0  0  0  0  0  0  0  0  0  0
   -0.6285    3.0543   -4.7003 H   0  0  0  0  0  0  0  0  0  0  0  0
    0.0160    4.2840   -2.6266 H   0  0  0  0  0  0  0  0  0  0  0  0
    1.2395   -1.7760   -1.3511 H   0  0  0  0  0  0  0  0  0  0  0  0
    4.2243   -3.1101   -0.1345 H   0  0  0  0  0  0  0  0  0  0  0  0
    3.2468   -3.0578   -1.6304 H   0  0  0  0  0  0  0  0  0  0  0  0
    4.7193   -2.0522   -1.5032 H   0  0  0  0  0  0  0  0  0  0  0  0
    5.6713   -0.9938    0.8445 H   0  0  0  0  0  0  0  0  0  0  0  0
    6.0466    0.8972    2.4069 H   0  0  0  0  0  0  0  0  0  0  0  0
    4.2200    2.4775    2.9267 H   0  0  0  0  0  0  0  0  0  0  0  0
    1.9887    2.2004    1.9026 H   0  0  0  0  0  0  0  0  0  0  0  0
   -2.5821    2.3642    0.0425 H   0  0  0  0  0  0  0  0  0  0  0  0
   -5.0270    2.5705    0.3388 H   0  0  0  0  0  0  0  0  0  0  0  0
   -6.3901    0.6015    0.9491 H   0  0  0  0  0  0  0  0  0  0  0  0
   -5.3252   -1.6152    1.2825 H   0  0  0  0  0  0  0  0  0  0  0  0
  1  2  1  0
  2  3  1  0
  3  4  2  0
  4  5  1  0
  5  6  1  0
  6  7  2  0
  7  8  1  0
  8  9  2  0
  9 10  1  0
 10 11  2  0
  5 12  1  0
 12 13  2  0
 13 14  1  0
 14 15  1  0
 14 16  1  0
 16 17  2  0
 17 18  1  0
 18 19  2  0
 19 20  1  0
 20 21  2  0
  4 22  1  0
 22 23  2  0
 23 24  1  0
 24 25  2  0
 25 26  1  0
 26 27  2  0
 27  2  1  0
 11  6  1  0
 21 12  1  0
 27 22  1  0
 21 16  1  0
  1 28  1  0
  1 29  1  0
  1 30  1  0
  3 31  1  0
  5 32  1  0
  7 33  1  0
  8 34  1  0
  9 35  1  0
 10 36  1  0
 13 37  1  0
 15 38  1  0
 15 39  1  0
 15 40  1  0
 17 41  1  0
 18 42  1  0
 19 43  1  0
 20 44  1  0
 23 45  1  0
 24 46  1  0
 25 47  1  0
 26 48  1  0
M  END
$$$$
