
     RDKit          3D

 43 45  0  0  0  0  0  0  0  0999 V2000
    7.4472    1.3214    2.1441 C   0  0  0  0  0  0  0  0  0  0  0  0
    6.1360    0.9775    1.6946 O   0  0  0  0  0  0  0  0  0  0  0  0
    5.8503   -0.3453    1.7918 C   0  0  0  0  0  0  0  0  0  0  0  0
    6.6005   -1.2072    2.2224 O   0  0  0  0  0  0  0  0  0  0  0  0
    4.4729   -0.6237    1.3009 C   0  0  0  0  0  0  0  0  0  0  0  0
    3.6281    0.3822    0.8138 C   0  0  0  0  0  0  0  0  0  0  0  0
    2.3396    0.0685    0.3630 C   0  0  0  0  0  0  0  0  0  0  0  0
    1.8823   -1.2484    0.4044 C   0  0  0  0  0  0  0  0  0  0  0  0
    0.6566   -1.6751   -0.0223 O   0  0  0  0  0  0  0  0  0  0  0  0
   -0.4279   -0.7498    0.0622 C   0  0  0  0  0  0  0  0  0  0  0  0
   -0.7335   -0.0330   -1.2645 C   0  0  0  0  0  0  0  0  0  0  0  0
    0.1754    0.1787   -2.0774 O   0  0  0  0  0  0  0  0  0  0  0  0
   -2.0641    0.2877   -1.5815 N   0  0  0  0  0  0  0  0  0  0  0  0
   -2.3227    0.4145   -3.0197 C   0  0  0  0  0  0  0  0  0  0  0  0
   -3.7498    0.7654   -3.4057 C   0  0  0  0  0  0  0  0  0  0  0  0
   -4.7121   -0.1133   -2.6303 C   0  0  0  0  0  0  0  0  0  0  0  0
   -4.4782    0.1228   -1.1634 C   0  0  0  0  0  0  0  0  0  0  0  0
   -5.5732    0.1134   -0.2843 C   0  0  0  0  0  0  0  0  0  0  0  0
   -5.3928    0.3863    1.0675 C   0  0  0  0  0  0  0  0  0  0  0  0
   -4.1226    0.6883    1.5424 C   0  0  0  0  0  0  0  0  0  0  0  0
   -3.0263    0.6782    0.6736 C   0  0  0  0  0  0  0  0  0  0  0  0
   -3.1733    0.3434   -0.6785 C   0  0  0  0  0  0  0  0  0  0  0  0
    2.7314   -2.2548    0.8691 C   0  0  0  0  0  0  0  0  0  0  0  0
    4.0170   -1.9470    1.3224 C   0  0  0  0  0  0  0  0  0  0  0  0
    7.5648    1.0785    3.2049 H   0  0  0  0  0  0  0  0  0  0  0  0
    7.5756    2.4002    2.0198 H   0  0  0  0  0  0  0  0  0  0  0  0
    8.2055    0.8108    1.5421 H   0  0  0  0  0  0  0  0  0  0  0  0
    3.9611    1.4161    0.7640 H   0  0  0  0  0  0  0  0  0  0  0  0
    1.7300    0.8686   -0.0455 H   0  0  0  0  0  0  0  0  0  0  0  0
   -0.2590   -0.0172    0.8571 H   0  0  0  0  0  0  0  0  0  0  0  0
   -1.2920   -1.3607    0.3398 H   0  0  0  0  0  0  0  0  0  0  0  0
   -2.0432   -0.5419   -3.4821 H   0  0  0  0  0  0  0  0  0  0  0  0
   -1.6447    1.1732   -3.4302 H   0  0  0  0  0  0  0  0  0  0  0  0
   -3.9423    1.8232   -3.1831 H   0  0  0  0  0  0  0  0  0  0  0  0
   -3.8906    0.6324   -4.4840 H   0  0  0  0  0  0  0  0  0  0  0  0
   -4.5590   -1.1740   -2.8604 H   0  0  0  0  0  0  0  0  0  0  0  0
   -5.7396    0.1485   -2.9077 H   0  0  0  0  0  0  0  0  0  0  0  0
   -6.5754   -0.0893   -0.6560 H   0  0  0  0  0  0  0  0  0  0  0  0
   -6.2449    0.3908    1.7423 H   0  0  0  0  0  0  0  0  0  0  0  0
   -3.9829    0.9469    2.5894 H   0  0  0  0  0  0  0  0  0  0  0  0
   -2.0742    0.9960    1.0815 H   0  0  0  0  0  0  0  0  0  0  0  0
    2.3892   -3.2869    0.8815 H   0  0  0  0  0  0  0  0  0  0  0  0
    4.6606   -2.7457    1.6861 H   0  0  0  0  0  0  0  0  0  0  0  0
  1  2  1  0
  2  3  1  0
  3  4  2  0
  3  5  1  0
  5  6  2  0
  6  7  1  0
  7  8  2  0
  8  9  1  0
  9 10  1  0
 10 11  1  0
 11 12  2  0
 11 13  1  0
 13 14  1  0
 14 15  1  0
 15 16  1  0
 16 17  1  0
 17 18  2  0
 18 19  1  0
 19 20  2  0
 20 21  1  0
 21 22  2  0
  8 23  1  0
 23 24  2  0
 24  5  1  0
 22 13  1  0
 22 17  1  0
  1 25  1  0
  1 26  1  0
  1 27  1  0
  6 28  1  0
  7 29  1  0
 10 30  1  0
 10 31  1  0
 14 32  1  0
 14 33  1  0
 15 34  1  0
 15 35  1  0
 16 36  1  0
 16 37  1  0
 18 38  1  0
 19 39  1  0
 20 40  1  0
 21 41  1  0
 23 42  1  0
 24 43  1  0
M  END
$$$$
