
     RDKit          3D

 63 67  0  0  0  0  0  0  0  0999 V2000
    5.4289   -0.0818   -5.3661 C   0  0  0  0  0  0  0  0  0  0  0  0
    6.1044   -0.5085   -4.0773 C   0  0  0  0  0  0  0  0  0  0  0  0
    5.1894   -0.2828   -3.0000 O   0  0  0  0  0  0  0  0  0  0  0  0
    5.6676   -0.6490   -1.7748 C   0  0  0  0  0  0  0  0  0  0  0  0
    6.7744   -1.1382   -1.5802 O   0  0  0  0  0  0  0  0  0  0  0  0
    4.7041   -0.3957   -0.7115 C   0  0  0  0  0  0  0  0  0  0  0  0
    3.4049    0.1831   -0.7990 C   0  0  0  0  0  0  0  0  0  0  0  0
    2.8559    0.2096    0.4701 C   0  0  0  0  0  0  0  0  0  0  0  0
    1.5724    0.6898    0.9570 C   0  0  0  0  0  0  0  0  0  0  0  0
    0.5832    1.1561    0.0941 N   0  0  0  0  0  0  0  0  0  0  0  0
   -0.4608    2.0531    0.6325 C   0  0  0  0  0  0  0  0  0  0  0  0
   -1.6413    1.2567    1.2313 C   0  0  0  0  0  0  0  0  0  0  0  0
   -2.2359    0.2993    0.2624 N   0  0  0  0  0  0  0  0  0  0  0  0
   -3.3172   -0.4648    0.9146 C   0  0  0  0  0  0  0  0  0  0  0  0
   -4.2326   -1.2406   -0.0546 C   0  0  0  0  0  0  0  0  0  0  0  0
   -5.1483   -0.3527   -0.8774 C   0  0  0  0  0  0  0  0  0  0  0  0
   -4.6422    0.2128   -2.0614 C   0  0  0  0  0  0  0  0  0  0  0  0
   -5.4311    1.0406   -2.8591 C   0  0  0  0  0  0  0  0  0  0  0  0
   -6.7411    1.3187   -2.4882 C   0  0  0  0  0  0  0  0  0  0  0  0
   -7.2611    0.7706   -1.3166 C   0  0  0  0  0  0  0  0  0  0  0  0
   -6.4788   -0.0636   -0.4926 C   0  0  0  0  0  0  0  0  0  0  0  0
   -7.0986   -0.6379    0.7630 C   0  0  0  0  0  0  0  0  0  0  0  0
   -6.3368   -0.4365    1.8757 F   0  0  0  0  0  0  0  0  0  0  0  0
   -7.2924   -1.9850    0.6810 F   0  0  0  0  0  0  0  0  0  0  0  0
   -8.3212   -0.1105    1.0603 F   0  0  0  0  0  0  0  0  0  0  0  0
   -1.1640   -0.5847   -0.2533 C   0  0  0  0  0  0  0  0  0  0  0  0
    0.0043    0.2123   -0.8822 C   0  0  0  0  0  0  0  0  0  0  0  0
    1.3562    0.6916    2.2476 N   0  0  0  0  0  0  0  0  0  0  0  0
    2.3281    0.1960    3.1395 C   0  0  0  0  0  0  0  0  0  0  0  0
    2.0402    0.2047    4.5056 C   0  0  0  0  0  0  0  0  0  0  0  0
    2.9649   -0.2853    5.4325 C   0  0  0  0  0  0  0  0  0  0  0  0
    4.1915   -0.7908    4.9989 C   0  0  0  0  0  0  0  0  0  0  0  0
    4.5012   -0.8086    3.6387 C   0  0  0  0  0  0  0  0  0  0  0  0
    3.5660   -0.3162    2.7233 C   0  0  0  0  0  0  0  0  0  0  0  0
    3.7998   -0.2851    1.3393 N   0  0  0  0  0  0  0  0  0  0  0  0
    4.9061   -0.6814    0.6299 C   0  0  0  0  0  0  0  0  0  0  0  0
    6.0935   -0.2294   -6.2214 H   0  0  0  0  0  0  0  0  0  0  0  0
    5.1403    0.9739   -5.3191 H   0  0  0  0  0  0  0  0  0  0  0  0
    4.5107   -0.6564   -5.5277 H   0  0  0  0  0  0  0  0  0  0  0  0
    6.3621   -1.5724   -4.1307 H   0  0  0  0  0  0  0  0  0  0  0  0
    7.0125    0.0851   -3.9213 H   0  0  0  0  0  0  0  0  0  0  0  0
    2.9248    0.5467   -1.6987 H   0  0  0  0  0  0  0  0  0  0  0  0
   -0.0409    2.7336    1.3833 H   0  0  0  0  0  0  0  0  0  0  0  0
   -0.8284    2.6882   -0.1844 H   0  0  0  0  0  0  0  0  0  0  0  0
   -1.3122    0.7240    2.1322 H   0  0  0  0  0  0  0  0  0  0  0  0
   -2.4075    1.9774    1.5420 H   0  0  0  0  0  0  0  0  0  0  0  0
   -3.9481    0.2267    1.4880 H   0  0  0  0  0  0  0  0  0  0  0  0
   -2.8910   -1.1692    1.6405 H   0  0  0  0  0  0  0  0  0  0  0  0
   -4.8329   -1.9487    0.5278 H   0  0  0  0  0  0  0  0  0  0  0  0
   -3.6492   -1.8787   -0.7290 H   0  0  0  0  0  0  0  0  0  0  0  0
   -3.6154    0.0152   -2.3640 H   0  0  0  0  0  0  0  0  0  0  0  0
   -5.0189    1.4705   -3.7681 H   0  0  0  0  0  0  0  0  0  0  0  0
   -7.3571    1.9647   -3.1087 H   0  0  0  0  0  0  0  0  0  0  0  0
   -8.2906    1.0008   -1.0436 H   0  0  0  0  0  0  0  0  0  0  0  0
   -0.7731   -1.2215    0.5516 H   0  0  0  0  0  0  0  0  0  0  0  0
   -1.5641   -1.2444   -1.0302 H   0  0  0  0  0  0  0  0  0  0  0  0
   -0.3587    0.7779   -1.7503 H   0  0  0  0  0  0  0  0  0  0  0  0
    0.7526   -0.4920   -1.2591 H   0  0  0  0  0  0  0  0  0  0  0  0
    1.0860    0.5973    4.8476 H   0  0  0  0  0  0  0  0  0  0  0  0
    2.7262   -0.2716    6.4928 H   0  0  0  0  0  0  0  0  0  0  0  0
    4.9081   -1.1698    5.7239 H   0  0  0  0  0  0  0  0  0  0  0  0
    5.4631   -1.2032    3.3267 H   0  0  0  0  0  0  0  0  0  0  0  0
    5.7683   -1.1199    1.1133 H   0  0  0  0  0  0  0  0  0  0  0  0
  1  2  1  0
  2  3  1  0
  3  4  1  0
  4  5  2  0
  4  6  1  0
  6  7  1  0
  7  8  2  0
  8  9  1  0
  9 10  1  0
 10 11  1  0
 11 12  1  0
 12 13  1  0
 13 14  1  0
 14 15  1  0
 15 16  1  0
 16 17  2  0
 17 18  1  0
 18 19  2  0
 19 20  1  0
 20 21  2  0
 21 22  1  0
 22 23  1  0
 22 24  1  0
 22 25  1  0
 13 26  1  0
 26 27  1  0
  9 28  2  0
 28 29  1  0
 29 30  2  0
 30 31  1  0
 31 32  2  0
 32 33  1  0
 33 34  2  0
 34 35  1  0
 35 36  1  0
 36  6  2  0
 35  8  1  0
 27 10  1  0
 34 29  1  0
 21 16  1  0
  1 37  1  0
  1 38  1  0
  1 39  1  0
  2 40  1  0
  2 41  1  0
  7 42  1  0
 11 43  1  0
 11 44  1  0
 12 45  1  0
 12 46  1  0
 14 47  1  0
 14 48  1  0
 15 49  1  0
 15 50  1  0
 17 51  1  0
 18 52  1  0
 19 53  1  0
 20 54  1  0
 26 55  1  0
 26 56  1  0
 27 57  1  0
 27 58  1  0
 30 59  1  0
 31 60  1  0
 32 61  1  0
 33 62  1  0
 36 63  1  0
M  END
$$$$
