
     RDKit          3D

 32 33  0  0  0  0  0  0  0  0999 V2000
    4.3187    1.2321    0.9586 C   0  0  0  0  0  0  0  0  0  0  0  0
    4.3204    0.6815   -0.7280 S   0  0  0  0  0  6  0  0  0  0  0  0
    3.9533    1.7918   -1.5839 O   0  0  0  0  0  0  0  0  0  0  0  0
    5.5553   -0.0499   -0.9437 O   0  0  0  0  0  0  0  0  0  0  0  0
    2.9883   -0.4936   -0.8101 C   0  0  0  0  0  0  0  0  0  0  0  0
    3.2440   -1.8099   -1.1993 C   0  0  0  0  0  0  0  0  0  0  0  0
    2.1874   -2.7159   -1.2740 C   0  0  0  0  0  0  0  0  0  0  0  0
    0.8909   -2.3025   -0.9525 C   0  0  0  0  0  0  0  0  0  0  0  0
   -0.3859   -3.4678   -1.0574 Cl  0  0  0  0  0  0  0  0  0  0  0  0
    0.6293   -0.9784   -0.5473 C   0  0  0  0  0  0  0  0  0  0  0  0
   -0.7024   -0.6210   -0.2248 N   0  0  0  0  0  0  0  0  0  0  0  0
   -1.1347    0.5483    0.3708 C   0  0  0  0  0  0  0  0  0  0  0  0
   -0.4194    1.4415    0.8094 O   0  0  0  0  0  0  0  0  0  0  0  0
   -2.6118    0.6708    0.5304 C   0  0  0  0  0  0  0  0  0  0  0  0
   -3.1072    1.3792    1.6339 C   0  0  0  0  0  0  0  0  0  0  0  0
   -4.4835    1.5188    1.8206 C   0  0  0  0  0  0  0  0  0  0  0  0
   -5.3703    0.9598    0.9008 C   0  0  0  0  0  0  0  0  0  0  0  0
   -4.8760    0.2715   -0.2068 C   0  0  0  0  0  0  0  0  0  0  0  0
   -6.0819   -0.4669   -1.4626 Br  0  0  0  0  0  0  0  0  0  0  0  0
   -3.5024    0.1256   -0.4031 C   0  0  0  0  0  0  0  0  0  0  0  0
    1.6904   -0.0705   -0.4980 C   0  0  0  0  0  0  0  0  0  0  0  0
    4.4458    0.3686    1.6143 H   0  0  0  0  0  0  0  0  0  0  0  0
    5.1566    1.9209    1.0883 H   0  0  0  0  0  0  0  0  0  0  0  0
    3.3828    1.7501    1.1733 H   0  0  0  0  0  0  0  0  0  0  0  0
    4.2511   -2.1333   -1.4563 H   0  0  0  0  0  0  0  0  0  0  0  0
    2.3794   -3.7402   -1.5848 H   0  0  0  0  0  0  0  0  0  0  0  0
   -1.3803   -1.3663   -0.3511 H   0  0  0  0  0  0  0  0  0  0  0  0
   -2.4197    1.8239    2.3518 H   0  0  0  0  0  0  0  0  0  0  0  0
   -4.8625    2.0669    2.6801 H   0  0  0  0  0  0  0  0  0  0  0  0
   -6.4412    1.0747    1.0508 H   0  0  0  0  0  0  0  0  0  0  0  0
   -3.1394   -0.3829   -1.2916 H   0  0  0  0  0  0  0  0  0  0  0  0
    1.5249    0.9729   -0.2462 H   0  0  0  0  0  0  0  0  0  0  0  0
  1  2  1  0
  2  3  2  0
  2  4  2  0
  2  5  1  0
  5  6  2  0
  6  7  1  0
  7  8  2  0
  8  9  1  0
  8 10  1  0
 10 11  1  0
 11 12  1  0
 12 13  2  0
 12 14  1  0
 14 15  2  0
 15 16  1  0
 16 17  2  0
 17 18  1  0
 18 19  1  0
 18 20  2  0
 10 21  2  0
 21  5  1  0
 20 14  1  0
  1 22  1  0
  1 23  1  0
  1 24  1  0
  6 25  1  0
  7 26  1  0
 11 27  1  0
 15 28  1  0
 16 29  1  0
 17 30  1  0
 20 31  1  0
 21 32  1  0
M  END
$$$$
