
     RDKit          3D

 57 61  0  0  0  0  0  0  0  0999 V2000
   -6.1813   -1.1956   -0.1806 C   0  0  0  0  0  0  0  0  0  0  0  0
   -4.6985   -1.4785    0.0674 C   0  0  0  0  0  0  0  0  0  0  0  0
   -4.4866   -2.9725    0.3073 C   0  0  0  0  0  0  0  0  0  0  0  0
   -3.8550   -1.0237   -1.1276 C   0  0  0  0  0  0  0  0  0  0  0  0
   -4.3461   -0.9818   -2.2574 O   0  0  0  0  0  0  0  0  0  0  0  0
   -2.5171   -0.7122   -0.8965 N   0  0  0  0  0  0  0  0  0  0  0  0
   -1.6842   -0.3020   -2.0261 C   0  0  0  0  0  0  0  0  0  0  0  0
   -0.9061    0.9642   -1.6855 C   0  0  0  0  0  0  0  0  0  0  0  0
    0.0387    0.7868   -0.4542 C   0  0  0  0  0  0  0  0  0  0  0  0
   -0.3989   -0.4605    0.3631 C   0  0  0  0  0  0  0  0  0  0  0  0
   -1.9186   -0.5859    0.4301 C   0  0  0  0  0  0  0  0  0  0  0  0
   -0.1674    1.9014    0.4569 O   0  0  0  0  0  0  0  0  0  0  0  0
    0.3542    3.1014    0.0631 C   0  0  0  0  0  0  0  0  0  0  0  0
   -0.1658    4.2335    0.6925 C   0  0  0  0  0  0  0  0  0  0  0  0
    0.2975    5.5014    0.3382 C   0  0  0  0  0  0  0  0  0  0  0  0
    1.2809    5.6269   -0.6382 C   0  0  0  0  0  0  0  0  0  0  0  0
    1.7218    6.8455   -0.9738 F   0  0  0  0  0  0  0  0  0  0  0  0
    1.8184    4.5085   -1.2619 C   0  0  0  0  0  0  0  0  0  0  0  0
    1.3551    3.2414   -0.8979 C   0  0  0  0  0  0  0  0  0  0  0  0
    1.9398    2.0311   -1.5036 C   0  0  0  0  0  0  0  0  0  0  0  0
    2.7343    2.1428   -2.4316 O   0  0  0  0  0  0  0  0  0  0  0  0
    1.5382    0.7070   -0.8603 C   0  0  0  0  0  0  0  0  0  0  0  0
    2.5231    0.4323    0.2700 C   0  0  0  0  0  0  0  0  0  0  0  0
    2.8429   -0.9910   -0.0260 C   0  0  0  0  0  0  0  0  0  0  0  0
    3.6083   -1.8358    0.9201 C   0  0  0  0  0  0  0  0  0  0  0  0
    4.1626   -1.3057    2.0909 C   0  0  0  0  0  0  0  0  0  0  0  0
    4.8740   -2.1329    2.9643 C   0  0  0  0  0  0  0  0  0  0  0  0
    5.0352   -3.4868    2.6723 C   0  0  0  0  0  0  0  0  0  0  0  0
    4.4886   -4.0183    1.5058 C   0  0  0  0  0  0  0  0  0  0  0  0
    3.7774   -3.1956    0.6304 C   0  0  0  0  0  0  0  0  0  0  0  0
    2.3994   -1.4230   -1.1624 N   0  0  0  0  0  0  0  0  0  0  0  0
    1.7382   -0.3514   -1.8034 O   0  0  0  0  0  0  0  0  0  0  0  0
   -6.3431   -0.1320   -0.3874 H   0  0  0  0  0  0  0  0  0  0  0  0
   -6.7793   -1.4647    0.6965 H   0  0  0  0  0  0  0  0  0  0  0  0
   -6.5643   -1.7619   -1.0369 H   0  0  0  0  0  0  0  0  0  0  0  0
   -4.4094   -0.9139    0.9592 H   0  0  0  0  0  0  0  0  0  0  0  0
   -3.4323   -3.2156    0.4684 H   0  0  0  0  0  0  0  0  0  0  0  0
   -4.8224   -3.5606   -0.5545 H   0  0  0  0  0  0  0  0  0  0  0  0
   -5.0480   -3.3077    1.1856 H   0  0  0  0  0  0  0  0  0  0  0  0
   -2.2903   -0.1266   -2.9206 H   0  0  0  0  0  0  0  0  0  0  0  0
   -1.0052   -1.1308   -2.2571 H   0  0  0  0  0  0  0  0  0  0  0  0
   -1.6278    1.7685   -1.4886 H   0  0  0  0  0  0  0  0  0  0  0  0
   -0.3458    1.2734   -2.5751 H   0  0  0  0  0  0  0  0  0  0  0  0
   -0.0068   -1.3818   -0.0807 H   0  0  0  0  0  0  0  0  0  0  0  0
   -0.0163   -0.4015    1.3890 H   0  0  0  0  0  0  0  0  0  0  0  0
   -2.3592    0.2959    0.9099 H   0  0  0  0  0  0  0  0  0  0  0  0
   -2.1826   -1.4564    1.0358 H   0  0  0  0  0  0  0  0  0  0  0  0
   -0.9408    4.1318    1.4486 H   0  0  0  0  0  0  0  0  0  0  0  0
   -0.1041    6.3919    0.8128 H   0  0  0  0  0  0  0  0  0  0  0  0
    2.5932    4.6324   -2.0135 H   0  0  0  0  0  0  0  0  0  0  0  0
    2.0954    0.5667    1.2660 H   0  0  0  0  0  0  0  0  0  0  0  0
    3.4443    1.0208    0.1935 H   0  0  0  0  0  0  0  0  0  0  0  0
    4.0648   -0.2543    2.3431 H   0  0  0  0  0  0  0  0  0  0  0  0
    5.3080   -1.7207    3.8723 H   0  0  0  0  0  0  0  0  0  0  0  0
    5.5918   -4.1280    3.3518 H   0  0  0  0  0  0  0  0  0  0  0  0
    4.6179   -5.0727    1.2737 H   0  0  0  0  0  0  0  0  0  0  0  0
    3.3596   -3.6234   -0.2792 H   0  0  0  0  0  0  0  0  0  0  0  0
  1  2  1  0
  2  3  1  0
  2  4  1  0
  4  5  2  0
  4  6  1  0
  6  7  1  0
  7  8  1  0
  8  9  1  0
  9 10  1  0
 10 11  1  0
  9 12  1  0
 12 13  1  0
 13 14  2  0
 14 15  1  0
 15 16  2  0
 16 17  1  0
 16 18  1  0
 18 19  2  0
 19 20  1  0
 20 21  2  0
 20 22  1  0
 22 23  1  0
 23 24  1  0
 24 25  1  0
 25 26  2  0
 26 27  1  0
 27 28  2  0
 28 29  1  0
 29 30  2  0
 24 31  2  0
 31 32  1  0
 11  6  1  0
 19 13  1  0
 32 22  1  0
 22  9  1  0
 30 25  1  0
  1 33  1  0
  1 34  1  0
  1 35  1  0
  2 36  1  0
  3 37  1  0
  3 38  1  0
  3 39  1  0
  7 40  1  0
  7 41  1  0
  8 42  1  0
  8 43  1  0
 10 44  1  0
 10 45  1  0
 11 46  1  0
 11 47  1  0
 14 48  1  0
 15 49  1  0
 18 50  1  0
 23 51  1  0
 23 52  1  0
 26 53  1  0
 27 54  1  0
 28 55  1  0
 29 56  1  0
 30 57  1  0
M  END
$$$$
