
     RDKit          3D

 39 40  0  0  0  0  0  0  0  0999 V2000
   -1.2609   -4.0998   -1.2087 C   0  0  0  0  0  0  0  0  0  0  0  0
   -1.1703   -2.6486   -0.7450 C   0  0  0  0  0  0  0  0  0  0  0  0
   -1.9850   -1.8740   -1.6382 O   0  0  0  0  0  0  0  0  0  0  0  0
   -2.6257   -0.8194   -1.0483 C   0  0  0  0  0  0  0  0  0  0  0  0
   -2.1614    0.4552   -1.3880 C   0  0  0  0  0  0  0  0  0  0  0  0
   -2.7801    1.5910   -0.8637 C   0  0  0  0  0  0  0  0  0  0  0  0
   -3.8862    1.4430   -0.0159 C   0  0  0  0  0  0  0  0  0  0  0  0
   -4.5378    2.6349    0.5417 N   0  0  0  0  0  4  0  0  0  0  0  0
   -5.5619    2.4666    1.2168 O   0  0  0  0  0  0  0  0  0  0  0  0
   -4.0141    3.7340    0.3139 O   0  0  0  0  0  1  0  0  0  0  0  0
   -4.3806    0.1706    0.3006 C   0  0  0  0  0  0  0  0  0  0  0  0
   -3.7538   -0.9603   -0.2287 C   0  0  0  0  0  0  0  0  0  0  0  0
   -4.4304   -2.5048    0.1344 Cl  0  0  0  0  0  0  0  0  0  0  0  0
    0.2985   -2.1633   -0.7842 C   0  0  0  0  0  0  0  0  0  0  0  0
    1.1636   -2.7521   -1.4252 O   0  0  0  0  0  0  0  0  0  0  0  0
    0.4958   -1.0170   -0.0226 N   0  0  0  0  0  0  0  0  0  0  0  0
    1.6913   -0.2907    0.1511 C   0  0  0  0  0  0  0  0  0  0  0  0
    2.9104   -0.6360   -0.4330 C   0  0  0  0  0  0  0  0  0  0  0  0
    4.0523    0.1430   -0.2072 C   0  0  0  0  0  0  0  0  0  0  0  0
    3.9863    1.2845    0.5973 C   0  0  0  0  0  0  0  0  0  0  0  0
    5.2274    2.0761    0.8087 C   0  0  0  0  0  0  0  0  0  0  0  0
    5.0852    3.3876    1.1702 N   0  0  0  0  0  0  0  0  0  0  0  0
    6.3381    1.5920    0.6355 O   0  0  0  0  0  0  0  0  0  0  0  0
    2.7706    1.6300    1.1946 C   0  0  0  0  0  0  0  0  0  0  0  0
    1.6321    0.8465    0.9690 C   0  0  0  0  0  0  0  0  0  0  0  0
   -2.2941   -4.4580   -1.1570 H   0  0  0  0  0  0  0  0  0  0  0  0
   -0.9457   -4.2014   -2.2535 H   0  0  0  0  0  0  0  0  0  0  0  0
   -0.6333   -4.7534   -0.5946 H   0  0  0  0  0  0  0  0  0  0  0  0
   -1.5198   -2.5976    0.2945 H   0  0  0  0  0  0  0  0  0  0  0  0
   -1.3168    0.5625   -2.0676 H   0  0  0  0  0  0  0  0  0  0  0  0
   -2.4008    2.5749   -1.1358 H   0  0  0  0  0  0  0  0  0  0  0  0
   -5.2535    0.0523    0.9403 H   0  0  0  0  0  0  0  0  0  0  0  0
   -0.3131   -0.6546    0.4647 H   0  0  0  0  0  0  0  0  0  0  0  0
    3.0169   -1.5096   -1.0691 H   0  0  0  0  0  0  0  0  0  0  0  0
    4.9956   -0.1487   -0.6665 H   0  0  0  0  0  0  0  0  0  0  0  0
    5.9401    3.9307    1.1743 H   0  0  0  0  0  0  0  0  0  0  0  0
    4.2227    3.8915    1.0256 H   0  0  0  0  0  0  0  0  0  0  0  0
    2.6959    2.4854    1.8595 H   0  0  0  0  0  0  0  0  0  0  0  0
    0.7025    1.1371    1.4521 H   0  0  0  0  0  0  0  0  0  0  0  0
  1  2  1  0
  2  3  1  0
  3  4  1  0
  4  5  2  0
  5  6  1  0
  6  7  2  0
  7  8  1  0
  8  9  2  0
  8 10  1  0
  7 11  1  0
 11 12  2  0
 12 13  1  0
  2 14  1  0
 14 15  2  0
 14 16  1  0
 16 17  1  0
 17 18  2  0
 18 19  1  0
 19 20  2  0
 20 21  1  0
 21 22  1  0
 21 23  2  0
 20 24  1  0
 24 25  2  0
 12  4  1  0
 25 17  1  0
  1 26  1  0
  1 27  1  0
  1 28  1  0
  2 29  1  0
  5 30  1  0
  6 31  1  0
 11 32  1  0
 16 33  1  0
 18 34  1  0
 19 35  1  0
 22 36  1  0
 22 37  1  0
 24 38  1  0
 25 39  1  0
M  CHG  2   8   1  10  -1
M  END
$$$$
