
     RDKit          3D

 44 46  0  0  0  0  0  0  0  0999 V2000
   -4.4448    1.5097   -3.2728 C   0  0  0  0  0  0  0  0  0  0  0  0
   -3.7136    1.9137   -1.9905 C   0  0  0  0  0  0  0  0  0  0  0  0
   -4.7087    2.2794   -0.8867 C   0  0  0  0  0  0  0  0  0  0  0  0
   -2.7471    0.8325   -1.5369 C   0  0  0  0  0  0  0  0  0  0  0  0
   -3.1965   -0.4428   -1.1548 C   0  0  0  0  0  0  0  0  0  0  0  0
   -2.2937   -1.4233   -0.7391 C   0  0  0  0  0  0  0  0  0  0  0  0
   -0.9301   -1.1284   -0.6975 C   0  0  0  0  0  0  0  0  0  0  0  0
    0.2220   -2.3747   -0.1825 S   0  0  0  0  0  6  0  0  0  0  0  0
    1.5422   -2.0220   -0.6616 O   0  0  0  0  0  0  0  0  0  0  0  0
   -0.3549   -3.6643   -0.5026 O   0  0  0  0  0  0  0  0  0  0  0  0
    0.1725   -2.2498    1.5061 N   0  0  0  0  0  0  0  0  0  0  0  0
    0.8631   -1.1636    2.1085 C   0  0  0  0  0  0  0  0  0  0  0  0
    0.1577   -0.0065    2.4351 C   0  0  0  0  0  0  0  0  0  0  0  0
    0.8345    1.0895    2.9686 C   0  0  0  0  0  0  0  0  0  0  0  0
    2.2138    1.0267    3.1497 C   0  0  0  0  0  0  0  0  0  0  0  0
    2.8237    2.1453    3.6484 O   0  0  0  0  0  0  0  0  0  0  0  0
    2.9345   -0.1275    2.8172 C   0  0  0  0  0  0  0  0  0  0  0  0
    4.7134   -0.1831    3.0079 S   0  0  0  0  0  0  0  0  0  0  0  0
    5.1892   -0.6662    1.3989 C   0  0  0  0  0  0  0  0  0  0  0  0
    5.8709   -1.8251    1.1471 N   0  0  0  0  0  0  0  0  0  0  0  0
    5.9058   -1.8649   -0.1642 C   0  0  0  0  0  0  0  0  0  0  0  0
    5.2747   -0.7726   -0.6690 N   0  0  0  0  0  0  0  0  0  0  0  0
    4.8403    0.0319    0.3132 N   0  0  0  0  0  0  0  0  0  0  0  0
    2.2401   -1.2357    2.3141 C   0  0  0  0  0  0  0  0  0  0  0  0
   -0.4606    0.1265   -1.0904 C   0  0  0  0  0  0  0  0  0  0  0  0
   -1.3693    1.1028   -1.5023 C   0  0  0  0  0  0  0  0  0  0  0  0
   -3.7328    1.2617   -4.0679 H   0  0  0  0  0  0  0  0  0  0  0  0
   -5.0749    2.3307   -3.6316 H   0  0  0  0  0  0  0  0  0  0  0  0
   -5.0901    0.6378   -3.1192 H   0  0  0  0  0  0  0  0  0  0  0  0
   -3.1394    2.8216   -2.2191 H   0  0  0  0  0  0  0  0  0  0  0  0
   -5.3721    1.4439   -0.6396 H   0  0  0  0  0  0  0  0  0  0  0  0
   -4.1856    2.5733    0.0301 H   0  0  0  0  0  0  0  0  0  0  0  0
   -5.3370    3.1208   -1.1988 H   0  0  0  0  0  0  0  0  0  0  0  0
   -4.2572   -0.6842   -1.1807 H   0  0  0  0  0  0  0  0  0  0  0  0
   -2.6591   -2.4062   -0.4507 H   0  0  0  0  0  0  0  0  0  0  0  0
    0.2689   -3.1678    1.9389 H   0  0  0  0  0  0  0  0  0  0  0  0
   -0.9159    0.0513    2.2760 H   0  0  0  0  0  0  0  0  0  0  0  0
    0.2937    1.9959    3.2264 H   0  0  0  0  0  0  0  0  0  0  0  0
    3.7836    1.9735    3.6361 H   0  0  0  0  0  0  0  0  0  0  0  0
    6.3464   -2.6357   -0.7800 H   0  0  0  0  0  0  0  0  0  0  0  0
    5.1030   -0.5193   -1.6356 H   0  0  0  0  0  0  0  0  0  0  0  0
    2.7781   -2.1404    2.0409 H   0  0  0  0  0  0  0  0  0  0  0  0
    0.6031    0.3555   -1.0694 H   0  0  0  0  0  0  0  0  0  0  0  0
   -0.9918    2.0802   -1.7972 H   0  0  0  0  0  0  0  0  0  0  0  0
  1  2  1  0
  2  3  1  0
  2  4  1  0
  4  5  2  0
  5  6  1  0
  6  7  2  0
  7  8  1  0
  8  9  2  0
  8 10  2  0
  8 11  1  0
 11 12  1  0
 12 13  2  0
 13 14  1  0
 14 15  2  0
 15 16  1  0
 15 17  1  0
 17 18  1  0
 18 19  1  0
 19 20  1  0
 20 21  2  0
 21 22  1  0
 22 23  1  0
 17 24  2  0
  7 25  1  0
 25 26  2  0
 26  4  1  0
 24 12  1  0
 23 19  2  0
  1 27  1  0
  1 28  1  0
  1 29  1  0
  2 30  1  0
  3 31  1  0
  3 32  1  0
  3 33  1  0
  5 34  1  0
  6 35  1  0
 11 36  1  0
 13 37  1  0
 14 38  1  0
 16 39  1  0
 21 40  1  0
 22 41  1  0
 24 42  1  0
 25 43  1  0
 26 44  1  0
M  END
$$$$
