
     RDKit          3D

 59 64  0  0  0  0  0  0  0  0999 V2000
    0.0642    1.1817   -2.6203 C   0  0  0  0  0  0  0  0  0  0  0  0
    0.6032   -0.0656   -2.2061 O   0  0  0  0  0  0  0  0  0  0  0  0
    1.8679   -0.0477   -1.6613 C   0  0  0  0  0  0  0  0  0  0  0  0
    2.7828    1.0033   -1.8447 C   0  0  0  0  0  0  0  0  0  0  0  0
    4.0579    0.9009   -1.2567 C   0  0  0  0  0  0  0  0  0  0  0  0
    4.3606   -0.2399   -0.5231 C   0  0  0  0  0  0  0  0  0  0  0  0
    3.4834   -1.3046   -0.3254 C   0  0  0  0  0  0  0  0  0  0  0  0
    2.2158   -1.1960   -0.9107 C   0  0  0  0  0  0  0  0  0  0  0  0
    1.2265   -2.2050   -0.7983 N   0  0  0  0  0  0  0  0  0  0  0  0
    1.2716   -3.3673   -0.0569 C   0  0  0  0  0  0  0  0  0  0  0  0
    2.1886   -3.7145    0.6865 O   0  0  0  0  0  0  0  0  0  0  0  0
    0.0572   -4.2625   -0.2443 C   0  0  0  0  0  0  0  0  0  0  0  0
   -1.2884   -3.7831    0.8770 S   0  0  0  0  0  0  0  0  0  0  0  0
   -2.0813   -2.5666   -0.0573 C   0  0  0  0  0  0  0  0  0  0  0  0
   -1.6593   -2.0913   -1.2016 N   0  0  0  0  0  0  0  0  0  0  0  0
   -2.5480   -1.1334   -1.6105 N   0  0  0  0  0  0  0  0  0  0  0  0
   -3.5100   -1.0486   -0.7131 C   0  0  0  0  0  0  0  0  0  0  0  0
   -4.6766   -0.1152   -0.7844 C   0  0  0  0  0  0  0  0  0  0  0  0
   -4.5219    1.0991    0.0904 C   0  0  0  0  0  0  0  0  0  0  0  0
   -3.3899    1.8546    0.3426 C   0  0  0  0  0  0  0  0  0  0  0  0
   -3.6469    2.9421    1.2288 C   0  0  0  0  0  0  0  0  0  0  0  0
   -4.9698    2.9919    1.6133 C   0  0  0  0  0  0  0  0  0  0  0  0
   -5.8932    1.7364    0.9085 S   0  0  0  0  0  0  0  0  0  0  0  0
   -3.2576   -1.9585    0.2931 N   0  0  0  0  0  0  0  0  0  0  0  0
   -4.1046   -2.2551    1.4356 C   0  0  0  0  0  0  0  0  0  0  0  0
   -3.8424   -1.3406    2.5750 C   0  0  0  0  0  0  0  0  0  0  0  0
   -2.7029   -0.8403    3.1782 C   0  0  0  0  0  0  0  0  0  0  0  0
   -3.1422   -0.0107    4.2374 C   0  0  0  0  0  0  0  0  0  0  0  0
   -4.5162   -0.0543    4.2135 C   0  0  0  0  0  0  0  0  0  0  0  0
   -4.9493   -0.8702    3.2204 O   0  0  0  0  0  0  0  0  0  0  0  0
    5.6304   -0.1709   -0.0343 O   0  0  0  0  0  0  0  0  0  0  0  0
    6.1544    1.0129   -0.4547 C   0  0  0  0  0  0  0  0  0  0  0  0
    7.4406    1.4691   -0.1725 C   0  0  0  0  0  0  0  0  0  0  0  0
    7.7940    2.7114   -0.7096 C   0  0  0  0  0  0  0  0  0  0  0  0
    6.8923    3.4491   -1.4833 C   0  0  0  0  0  0  0  0  0  0  0  0
    5.6030    2.9658   -1.7460 C   0  0  0  0  0  0  0  0  0  0  0  0
    5.2268    1.7155   -1.2180 C   0  0  0  0  0  0  0  0  0  0  0  0
    0.5440    1.5245   -3.5428 H   0  0  0  0  0  0  0  0  0  0  0  0
   -0.9987    1.0324   -2.8347 H   0  0  0  0  0  0  0  0  0  0  0  0
    0.1404    1.9387   -1.8275 H   0  0  0  0  0  0  0  0  0  0  0  0
    2.5481    1.8785   -2.4380 H   0  0  0  0  0  0  0  0  0  0  0  0
    3.8055   -2.1606    0.2503 H   0  0  0  0  0  0  0  0  0  0  0  0
    0.3486   -1.9739   -1.2717 H   0  0  0  0  0  0  0  0  0  0  0  0
    0.3580   -5.2864    0.0006 H   0  0  0  0  0  0  0  0  0  0  0  0
   -0.2584   -4.2754   -1.2912 H   0  0  0  0  0  0  0  0  0  0  0  0
   -5.5968   -0.6624   -0.5549 H   0  0  0  0  0  0  0  0  0  0  0  0
   -4.7805    0.2305   -1.8205 H   0  0  0  0  0  0  0  0  0  0  0  0
   -2.4152    1.6325   -0.0851 H   0  0  0  0  0  0  0  0  0  0  0  0
   -2.8985    3.6513    1.5673 H   0  0  0  0  0  0  0  0  0  0  0  0
   -5.4394    3.7085    2.2742 H   0  0  0  0  0  0  0  0  0  0  0  0
   -3.9497   -3.2964    1.7386 H   0  0  0  0  0  0  0  0  0  0  0  0
   -5.1450   -2.1837    1.1025 H   0  0  0  0  0  0  0  0  0  0  0  0
   -1.6771   -1.0484    2.8937 H   0  0  0  0  0  0  0  0  0  0  0  0
   -2.5370    0.5492    4.9347 H   0  0  0  0  0  0  0  0  0  0  0  0
   -5.2918    0.4036    4.8089 H   0  0  0  0  0  0  0  0  0  0  0  0
    8.1257    0.8819    0.4274 H   0  0  0  0  0  0  0  0  0  0  0  0
    8.7891    3.1068   -0.5269 H   0  0  0  0  0  0  0  0  0  0  0  0
    7.1962    4.4111   -1.8923 H   0  0  0  0  0  0  0  0  0  0  0  0
    4.9120    3.5459   -2.3509 H   0  0  0  0  0  0  0  0  0  0  0  0
  1  2  1  0
  2  3  1  0
  3  4  2  0
  4  5  1  0
  5  6  2  0
  6  7  1  0
  7  8  2  0
  8  9  1  0
  9 10  1  0
 10 11  2  0
 10 12  1  0
 12 13  1  0
 13 14  1  0
 14 15  2  0
 15 16  1  0
 16 17  2  0
 17 18  1  0
 18 19  1  0
 19 20  2  0
 20 21  1  0
 21 22  2  0
 22 23  1  0
 17 24  1  0
 24 25  1  0
 25 26  1  0
 26 27  2  0
 27 28  1  0
 28 29  2  0
 29 30  1  0
  6 31  1  0
 31 32  1  0
 32 33  2  0
 33 34  1  0
 34 35  2  0
 35 36  1  0
 36 37  2  0
  8  3  1  0
 24 14  1  0
 30 26  1  0
 37 32  1  0
 37  5  1  0
 23 19  1  0
  1 38  1  0
  1 39  1  0
  1 40  1  0
  4 41  1  0
  7 42  1  0
  9 43  1  0
 12 44  1  0
 12 45  1  0
 18 46  1  0
 18 47  1  0
 20 48  1  0
 21 49  1  0
 22 50  1  0
 25 51  1  0
 25 52  1  0
 27 53  1  0
 28 54  1  0
 29 55  1  0
 33 56  1  0
 34 57  1  0
 35 58  1  0
 36 59  1  0
M  END
$$$$
