
     RDKit          3D

 52 51  0  0  0  0  0  0  0  0999 V2000
   -6.3516   -2.1629    1.3075 C   0  0  0  0  0  0  0  0  0  0  0  0
   -5.9073   -1.6338    0.3245 C   0  0  0  0  0  0  0  0  0  0  0  0
   -5.3749   -0.9983   -0.8841 C   0  0  0  0  0  0  0  0  0  0  0  0
   -4.5353    0.2635   -0.5633 N   0  0  0  0  0  4  0  0  0  0  0  0
   -5.4076    1.2826    0.1641 C   0  0  0  0  0  0  0  0  0  0  0  0
   -4.0960    0.8525   -1.9017 C   0  0  0  0  0  0  0  0  0  0  0  0
   -3.3172   -0.1491    0.2885 C   0  0  0  0  0  0  0  0  0  0  0  0
   -2.3466    1.0008    0.5728 C   0  0  0  0  0  0  0  0  0  0  0  0
   -1.1917    0.5187    1.4580 C   0  0  0  0  0  0  0  0  0  0  0  0
   -0.2298    1.6378    1.8684 C   0  0  0  0  0  0  0  0  0  0  0  0
    0.4728    2.3678    0.7189 C   0  0  0  0  0  0  0  0  0  0  0  0
    1.2602    1.4810   -0.2501 C   0  0  0  0  0  0  0  0  0  0  0  0
    2.3903    0.6999    0.4231 C   0  0  0  0  0  0  0  0  0  0  0  0
    3.2063   -0.0887   -0.6037 C   0  0  0  0  0  0  0  0  0  0  0  0
    4.3371   -0.8720    0.0672 C   0  0  0  0  0  0  0  0  0  0  0  0
    5.1497   -1.6618   -0.9613 C   0  0  0  0  0  0  0  0  0  0  0  0
    6.2334   -2.5403   -0.3324 C   0  0  0  0  0  0  0  0  0  0  0  0
    7.3349   -1.7477    0.3544 C   0  0  0  0  0  0  0  0  0  0  0  0
   -6.7527   -2.6416    2.1738 H   0  0  0  0  0  0  0  0  0  0  0  0
   -4.7235   -1.6851   -1.4362 H   0  0  0  0  0  0  0  0  0  0  0  0
   -6.1910   -0.6847   -1.5450 H   0  0  0  0  0  0  0  0  0  0  0  0
   -5.6114    0.9230    1.1762 H   0  0  0  0  0  0  0  0  0  0  0  0
   -6.3374    1.4073   -0.3991 H   0  0  0  0  0  0  0  0  0  0  0  0
   -4.8750    2.2366    0.2059 H   0  0  0  0  0  0  0  0  0  0  0  0
   -3.6046    1.8129   -1.7268 H   0  0  0  0  0  0  0  0  0  0  0  0
   -3.4123    0.1476   -2.3835 H   0  0  0  0  0  0  0  0  0  0  0  0
   -4.9848    1.0088   -2.5210 H   0  0  0  0  0  0  0  0  0  0  0  0
   -3.6991   -0.5527    1.2325 H   0  0  0  0  0  0  0  0  0  0  0  0
   -2.8061   -0.9521   -0.2562 H   0  0  0  0  0  0  0  0  0  0  0  0
   -2.8601    1.8244    1.0792 H   0  0  0  0  0  0  0  0  0  0  0  0
   -1.9387    1.3883   -0.3651 H   0  0  0  0  0  0  0  0  0  0  0  0
   -1.6039    0.0754    2.3734 H   0  0  0  0  0  0  0  0  0  0  0  0
   -0.6428   -0.2823    0.9494 H   0  0  0  0  0  0  0  0  0  0  0  0
    0.5236    1.2188    2.5461 H   0  0  0  0  0  0  0  0  0  0  0  0
   -0.7825    2.3798    2.4585 H   0  0  0  0  0  0  0  0  0  0  0  0
   -0.2671    2.9394    0.1464 H   0  0  0  0  0  0  0  0  0  0  0  0
    1.1546    3.1111    1.1511 H   0  0  0  0  0  0  0  0  0  0  0  0
    0.5829    0.7887   -0.7630 H   0  0  0  0  0  0  0  0  0  0  0  0
    1.6865    2.1263   -1.0287 H   0  0  0  0  0  0  0  0  0  0  0  0
    1.9785    0.0042    1.1628 H   0  0  0  0  0  0  0  0  0  0  0  0
    3.0480    1.3944    0.9597 H   0  0  0  0  0  0  0  0  0  0  0  0
    2.5473   -0.7810   -1.1417 H   0  0  0  0  0  0  0  0  0  0  0  0
    3.6279    0.6000   -1.3459 H   0  0  0  0  0  0  0  0  0  0  0  0
    3.9164   -1.5606    0.8099 H   0  0  0  0  0  0  0  0  0  0  0  0
    4.9879   -0.1724    0.6034 H   0  0  0  0  0  0  0  0  0  0  0  0
    4.4725   -2.3098   -1.5316 H   0  0  0  0  0  0  0  0  0  0  0  0
    5.6072   -0.9722   -1.6812 H   0  0  0  0  0  0  0  0  0  0  0  0
    5.7814   -3.2342    0.3858 H   0  0  0  0  0  0  0  0  0  0  0  0
    6.6858   -3.1520   -1.1223 H   0  0  0  0  0  0  0  0  0  0  0  0
    7.7825   -1.0212   -0.3311 H   0  0  0  0  0  0  0  0  0  0  0  0
    8.1259   -2.4231    0.6960 H   0  0  0  0  0  0  0  0  0  0  0  0
    6.9574   -1.2118    1.2301 H   0  0  0  0  0  0  0  0  0  0  0  0
  1  2  3  0
  2  3  1  0
  3  4  1  0
  4  5  1  0
  4  6  1  0
  4  7  1  0
  7  8  1  0
  8  9  1  0
  9 10  1  0
 10 11  1  0
 11 12  1  0
 12 13  1  0
 13 14  1  0
 14 15  1  0
 15 16  1  0
 16 17  1  0
 17 18  1  0
  1 19  1  0
  3 20  1  0
  3 21  1  0
  5 22  1  0
  5 23  1  0
  5 24  1  0
  6 25  1  0
  6 26  1  0
  6 27  1  0
  7 28  1  0
  7 29  1  0
  8 30  1  0
  8 31  1  0
  9 32  1  0
  9 33  1  0
 10 34  1  0
 10 35  1  0
 11 36  1  0
 11 37  1  0
 12 38  1  0
 12 39  1  0
 13 40  1  0
 13 41  1  0
 14 42  1  0
 14 43  1  0
 15 44  1  0
 15 45  1  0
 16 46  1  0
 16 47  1  0
 17 48  1  0
 17 49  1  0
 18 50  1  0
 18 51  1  0
 18 52  1  0
M  CHG  1   4   1
M  END
$$$$
