
     RDKit          3D

 40 42  0  0  0  0  0  0  0  0999 V2000
   -1.8126    4.1523    2.4390 C   0  0  0  0  0  0  0  0  0  0  0  0
   -2.5841    3.2167    3.1794 O   0  0  0  0  0  0  0  0  0  0  0  0
   -2.4303    1.8927    2.8670 C   0  0  0  0  0  0  0  0  0  0  0  0
   -3.2222    1.0285    3.6203 C   0  0  0  0  0  0  0  0  0  0  0  0
   -3.1863   -0.3549    3.4254 C   0  0  0  0  0  0  0  0  0  0  0  0
   -2.3224   -0.8566    2.4417 C   0  0  0  0  0  0  0  0  0  0  0  0
   -1.5109   -0.0216    1.6671 C   0  0  0  0  0  0  0  0  0  0  0  0
   -1.5721    1.3765    1.8892 C   0  0  0  0  0  0  0  0  0  0  0  0
   -0.7687   -0.8625    0.7758 C   0  0  0  0  0  0  0  0  0  0  0  0
    0.1925   -0.4345   -0.1946 C   0  0  0  0  0  0  0  0  0  0  0  0
    0.7964   -1.2179   -1.1052 C   0  0  0  0  0  0  0  0  0  0  0  0
    1.7733   -0.7257   -2.0820 C   0  0  0  0  0  0  0  0  0  0  0  0
    1.6998   -1.1691   -3.4008 C   0  0  0  0  0  0  0  0  0  0  0  0
    2.6360   -0.7287   -4.3293 C   0  0  0  0  0  0  0  0  0  0  0  0
    3.6284    0.1121   -3.9611 N   0  0  0  0  0  4  0  0  0  0  0  0
    4.6009    0.5698   -4.9682 C   0  0  0  0  0  0  0  0  0  0  0  0
    3.7253    0.5485   -2.6856 C   0  0  0  0  0  0  0  0  0  0  0  0
    2.8090    0.1362   -1.7245 C   0  0  0  0  0  0  0  0  0  0  0  0
   -1.1435   -2.1648    1.0300 C   0  0  0  0  0  0  0  0  0  0  0  0
   -2.0786   -2.1500    2.0326 N   0  0  0  0  0  0  0  0  0  0  0  0
   -2.7160   -3.3259    2.5841 C   0  0  0  0  0  0  0  0  0  0  0  0
   -2.0644    4.1171    1.3740 H   0  0  0  0  0  0  0  0  0  0  0  0
   -2.0578    5.1536    2.8059 H   0  0  0  0  0  0  0  0  0  0  0  0
   -0.7410    3.9929    2.5975 H   0  0  0  0  0  0  0  0  0  0  0  0
   -3.8863    1.4389    4.3787 H   0  0  0  0  0  0  0  0  0  0  0  0
   -3.8131   -1.0087    4.0235 H   0  0  0  0  0  0  0  0  0  0  0  0
   -0.9474    2.0247    1.2890 H   0  0  0  0  0  0  0  0  0  0  0  0
    0.4259    0.6277   -0.1818 H   0  0  0  0  0  0  0  0  0  0  0  0
    0.5554   -2.2768   -1.1669 H   0  0  0  0  0  0  0  0  0  0  0  0
    0.9091   -1.8482   -3.7156 H   0  0  0  0  0  0  0  0  0  0  0  0
    2.6002   -1.0432   -5.3687 H   0  0  0  0  0  0  0  0  0  0  0  0
    5.5314    0.8562   -4.4713 H   0  0  0  0  0  0  0  0  0  0  0  0
    4.1582    1.4246   -5.4855 H   0  0  0  0  0  0  0  0  0  0  0  0
    4.7999   -0.2490   -5.6648 H   0  0  0  0  0  0  0  0  0  0  0  0
    4.5402    1.2245   -2.4417 H   0  0  0  0  0  0  0  0  0  0  0  0
    2.9174    0.4835   -0.6985 H   0  0  0  0  0  0  0  0  0  0  0  0
   -0.8270   -3.1021    0.5927 H   0  0  0  0  0  0  0  0  0  0  0  0
   -2.3433   -4.2179    2.0742 H   0  0  0  0  0  0  0  0  0  0  0  0
   -3.7948   -3.2374    2.4326 H   0  0  0  0  0  0  0  0  0  0  0  0
   -2.4763   -3.3813    3.6490 H   0  0  0  0  0  0  0  0  0  0  0  0
  1  2  1  0
  2  3  1  0
  3  4  2  0
  4  5  1  0
  5  6  2  0
  6  7  1  0
  7  8  2  0
  7  9  1  0
  9 10  1  0
 10 11  2  3
 11 12  1  0
 12 13  2  0
 13 14  1  0
 14 15  2  0
 15 16  1  0
 15 17  1  0
 17 18  2  0
  9 19  2  0
 19 20  1  0
 20 21  1  0
  8  3  1  0
 18 12  1  0
 20  6  1  0
  1 22  1  0
  1 23  1  0
  1 24  1  0
  4 25  1  0
  5 26  1  0
  8 27  1  0
 10 28  1  0
 11 29  1  0
 13 30  1  0
 14 31  1  0
 16 32  1  0
 16 33  1  0
 16 34  1  0
 17 35  1  0
 18 36  1  0
 19 37  1  0
 21 38  1  0
 21 39  1  0
 21 40  1  0
M  CHG  1  15   1
M  END
$$$$
