
     RDKit          3D

 52 55  0  0  0  0  0  0  0  0999 V2000
    7.9213    1.8231   -1.0364 C   0  0  0  0  0  0  0  0  0  0  0  0
    6.6836    2.4409   -0.7081 O   0  0  0  0  0  0  0  0  0  0  0  0
    5.5710    1.6501   -0.7490 C   0  0  0  0  0  0  0  0  0  0  0  0
    5.5252    0.3136   -1.1378 C   0  0  0  0  0  0  0  0  0  0  0  0
    4.3110   -0.3872   -1.1286 C   0  0  0  0  0  0  0  0  0  0  0  0
    3.1304    0.2401   -0.7355 C   0  0  0  0  0  0  0  0  0  0  0  0
    1.8727   -0.3914   -0.6937 N   0  0  0  0  0  0  0  0  0  0  0  0
    1.5384   -1.6555   -1.1461 C   0  0  0  0  0  0  0  0  0  0  0  0
    2.3124   -2.4713   -1.6420 O   0  0  0  0  0  0  0  0  0  0  0  0
    0.0767   -2.0227   -0.9289 C   0  0  0  0  0  0  0  0  0  0  0  0
   -1.0488   -0.8192   -1.6978 S   0  0  0  0  0  0  0  0  0  0  0  0
   -1.5489    0.0532   -0.2535 C   0  0  0  0  0  0  0  0  0  0  0  0
   -0.5852    0.5926    0.4346 N   0  0  0  0  0  0  0  0  0  0  0  0
   -0.9670    1.3600    1.4977 C   0  0  0  0  0  0  0  0  0  0  0  0
   -2.2259    1.6383    1.8321 C   0  0  0  0  0  0  0  0  0  0  0  0
   -3.3341    1.0565    1.0494 C   0  0  0  0  0  0  0  0  0  0  0  0
   -4.5046    1.3028    1.3359 O   0  0  0  0  0  0  0  0  0  0  0  0
   -2.9093    0.2092    0.0188 N   0  0  0  0  0  0  0  0  0  0  0  0
   -3.9182   -0.5590   -0.6425 C   0  0  0  0  0  0  0  0  0  0  0  0
   -4.9291    0.0987   -1.3573 C   0  0  0  0  0  0  0  0  0  0  0  0
   -5.9220   -0.6332   -2.0081 C   0  0  0  0  0  0  0  0  0  0  0  0
   -5.9168   -2.0245   -1.9433 C   0  0  0  0  0  0  0  0  0  0  0  0
   -4.9359   -2.6906   -1.2026 C   0  0  0  0  0  0  0  0  0  0  0  0
   -3.9520   -1.9632   -0.5267 C   0  0  0  0  0  0  0  0  0  0  0  0
   -2.9938   -2.5585    0.2579 O   0  0  0  0  0  0  0  0  0  0  0  0
   -3.4793   -3.6396    1.0597 C   0  0  0  0  0  0  0  0  0  0  0  0
   -2.4235    2.6367    3.2156 S   0  0  0  0  0  0  0  0  0  0  0  0
   -0.6426    3.0443    3.2453 C   0  0  0  0  0  0  0  0  0  0  0  0
    0.0593    1.9703    2.4080 C   0  0  0  0  0  0  0  0  0  0  0  0
    3.1801    1.5837   -0.3552 C   0  0  0  0  0  0  0  0  0  0  0  0
    4.3907    2.2811   -0.3567 C   0  0  0  0  0  0  0  0  0  0  0  0
    7.9266    1.4782   -2.0769 H   0  0  0  0  0  0  0  0  0  0  0  0
    8.1473    1.0031   -0.3459 H   0  0  0  0  0  0  0  0  0  0  0  0
    8.7102    2.5751   -0.9292 H   0  0  0  0  0  0  0  0  0  0  0  0
    6.4138   -0.2211   -1.4583 H   0  0  0  0  0  0  0  0  0  0  0  0
    4.3255   -1.4274   -1.4406 H   0  0  0  0  0  0  0  0  0  0  0  0
    1.0962    0.1718   -0.3472 H   0  0  0  0  0  0  0  0  0  0  0  0
   -0.1121   -2.1476    0.1422 H   0  0  0  0  0  0  0  0  0  0  0  0
   -0.1058   -2.9898   -1.4106 H   0  0  0  0  0  0  0  0  0  0  0  0
   -4.9458    1.1846   -1.4190 H   0  0  0  0  0  0  0  0  0  0  0  0
   -6.6988   -0.1150   -2.5660 H   0  0  0  0  0  0  0  0  0  0  0  0
   -6.6854   -2.5934   -2.4622 H   0  0  0  0  0  0  0  0  0  0  0  0
   -4.9554   -3.7761   -1.1740 H   0  0  0  0  0  0  0  0  0  0  0  0
   -3.6120   -4.5499    0.4586 H   0  0  0  0  0  0  0  0  0  0  0  0
   -2.7194   -3.8544    1.8189 H   0  0  0  0  0  0  0  0  0  0  0  0
   -4.4096   -3.3706    1.5794 H   0  0  0  0  0  0  0  0  0  0  0  0
   -0.2634    3.0741    4.2706 H   0  0  0  0  0  0  0  0  0  0  0  0
   -0.5059    4.0336    2.7936 H   0  0  0  0  0  0  0  0  0  0  0  0
    0.4821    1.1942    3.0567 H   0  0  0  0  0  0  0  0  0  0  0  0
    0.8833    2.4192    1.8462 H   0  0  0  0  0  0  0  0  0  0  0  0
    2.2781    2.1080   -0.0512 H   0  0  0  0  0  0  0  0  0  0  0  0
    4.4148    3.3241   -0.0503 H   0  0  0  0  0  0  0  0  0  0  0  0
  1  2  1  0
  2  3  1  0
  3  4  2  0
  4  5  1  0
  5  6  2  0
  6  7  1  0
  7  8  1  0
  8  9  2  0
  8 10  1  0
 10 11  1  0
 11 12  1  0
 12 13  2  0
 13 14  1  0
 14 15  2  0
 15 16  1  0
 16 17  2  0
 16 18  1  0
 18 19  1  0
 19 20  2  0
 20 21  1  0
 21 22  2  0
 22 23  1  0
 23 24  2  0
 24 25  1  0
 25 26  1  0
 15 27  1  0
 27 28  1  0
 28 29  1  0
  6 30  1  0
 30 31  2  0
 31  3  1  0
 18 12  1  0
 24 19  1  0
 29 14  1  0
  1 32  1  0
  1 33  1  0
  1 34  1  0
  4 35  1  0
  5 36  1  0
  7 37  1  0
 10 38  1  0
 10 39  1  0
 20 40  1  0
 21 41  1  0
 22 42  1  0
 23 43  1  0
 26 44  1  0
 26 45  1  0
 26 46  1  0
 28 47  1  0
 28 48  1  0
 29 49  1  0
 29 50  1  0
 30 51  1  0
 31 52  1  0
M  END
$$$$
