
     RDKit          3D

 59 64  0  0  0  0  0  0  0  0999 V2000
   -6.9767    1.3619    1.3749 C   0  0  0  0  0  0  0  0  0  0  0  0
   -5.7162    0.8718    0.9413 O   0  0  0  0  0  0  0  0  0  0  0  0
   -5.6662    0.2479   -0.2848 C   0  0  0  0  0  0  0  0  0  0  0  0
   -6.6982    0.3252   -1.2314 C   0  0  0  0  0  0  0  0  0  0  0  0
   -6.5930   -0.3426   -2.4508 C   0  0  0  0  0  0  0  0  0  0  0  0
   -5.4559   -1.0868   -2.7362 C   0  0  0  0  0  0  0  0  0  0  0  0
   -4.4185   -1.1630   -1.8035 C   0  0  0  0  0  0  0  0  0  0  0  0
   -4.4925   -0.5033   -0.5634 C   0  0  0  0  0  0  0  0  0  0  0  0
   -3.4380   -0.5622    0.3706 N   0  0  0  0  0  0  0  0  0  0  0  0
   -2.5812   -1.7664    0.4292 C   0  0  0  0  0  0  0  0  0  0  0  0
   -1.1764   -1.5038   -0.1502 C   0  0  0  0  0  0  0  0  0  0  0  0
   -0.4610   -0.4347    0.6003 N   0  0  0  0  0  0  0  0  0  0  0  0
    0.6657    0.0541   -0.0037 C   0  0  0  0  0  0  0  0  0  0  0  0
    0.7581    0.8481   -1.1305 C   0  0  0  0  0  0  0  0  0  0  0  0
    2.1234    1.0792   -1.3909 C   0  0  0  0  0  0  0  0  0  0  0  0
    2.8511    0.4487   -0.3996 C   0  0  0  0  0  0  0  0  0  0  0  0
    4.2759    0.3488   -0.1652 C   0  0  0  0  0  0  0  0  0  0  0  0
    5.2415    1.0816   -1.0235 C   0  0  0  0  0  0  0  0  0  0  0  0
    6.3368    0.3885   -1.5511 C   0  0  0  0  0  0  0  0  0  0  0  0
    7.2666    1.0590   -2.3468 C   0  0  0  0  0  0  0  0  0  0  0  0
    7.1106    2.4217   -2.6038 C   0  0  0  0  0  0  0  0  0  0  0  0
    6.0313    3.1194   -2.0596 C   0  0  0  0  0  0  0  0  0  0  0  0
    5.0983    2.4528   -1.2633 C   0  0  0  0  0  0  0  0  0  0  0  0
    4.7444   -0.3940    0.7927 N   0  0  0  0  0  0  0  0  0  0  0  0
    3.8467   -1.0671    1.6439 C   0  0  0  0  0  0  0  0  0  0  0  0
    4.3927   -1.8357    2.6768 C   0  0  0  0  0  0  0  0  0  0  0  0
    3.5695   -2.5183    3.5725 C   0  0  0  0  0  0  0  0  0  0  0  0
    2.1857   -2.4339    3.4426 C   0  0  0  0  0  0  0  0  0  0  0  0
    1.6211   -1.6719    2.4167 C   0  0  0  0  0  0  0  0  0  0  0  0
    2.4480   -0.9925    1.5167 C   0  0  0  0  0  0  0  0  0  0  0  0
    1.9614   -0.2082    0.4396 N   0  0  0  0  0  0  0  0  0  0  0  0
   -1.3669    0.5703    1.2249 C   0  0  0  0  0  0  0  0  0  0  0  0
   -2.7029    0.7268    0.4672 C   0  0  0  0  0  0  0  0  0  0  0  0
   -6.8681    1.6910    2.4130 H   0  0  0  0  0  0  0  0  0  0  0  0
   -7.7407    0.5777    1.3538 H   0  0  0  0  0  0  0  0  0  0  0  0
   -7.2825    2.2304    0.7828 H   0  0  0  0  0  0  0  0  0  0  0  0
   -7.5972    0.9033   -1.0483 H   0  0  0  0  0  0  0  0  0  0  0  0
   -7.3984   -0.2778   -3.1777 H   0  0  0  0  0  0  0  0  0  0  0  0
   -5.3673   -1.6033   -3.6883 H   0  0  0  0  0  0  0  0  0  0  0  0
   -3.5361   -1.7313   -2.0794 H   0  0  0  0  0  0  0  0  0  0  0  0
   -2.4800   -2.0434    1.4866 H   0  0  0  0  0  0  0  0  0  0  0  0
   -3.0439   -2.6323   -0.0578 H   0  0  0  0  0  0  0  0  0  0  0  0
   -0.5869   -2.4265   -0.0948 H   0  0  0  0  0  0  0  0  0  0  0  0
   -1.2680   -1.2292   -1.2088 H   0  0  0  0  0  0  0  0  0  0  0  0
   -0.0792    1.2066   -1.7140 H   0  0  0  0  0  0  0  0  0  0  0  0
    2.5249    1.6462   -2.2206 H   0  0  0  0  0  0  0  0  0  0  0  0
    6.4652   -0.6710   -1.3418 H   0  0  0  0  0  0  0  0  0  0  0  0
    8.1154    0.5201   -2.7602 H   0  0  0  0  0  0  0  0  0  0  0  0
    7.8388    2.9435   -3.2202 H   0  0  0  0  0  0  0  0  0  0  0  0
    5.9231    4.1847   -2.2475 H   0  0  0  0  0  0  0  0  0  0  0  0
    4.2778    3.0106   -0.8198 H   0  0  0  0  0  0  0  0  0  0  0  0
    5.4730   -1.8947    2.7810 H   0  0  0  0  0  0  0  0  0  0  0  0
    4.0092   -3.1095    4.3710 H   0  0  0  0  0  0  0  0  0  0  0  0
    1.5413   -2.9603    4.1423 H   0  0  0  0  0  0  0  0  0  0  0  0
    0.5410   -1.6270    2.3544 H   0  0  0  0  0  0  0  0  0  0  0  0
   -0.8753    1.5478    1.3093 H   0  0  0  0  0  0  0  0  0  0  0  0
   -1.5714    0.2361    2.2499 H   0  0  0  0  0  0  0  0  0  0  0  0
   -3.3075    1.4714    0.9954 H   0  0  0  0  0  0  0  0  0  0  0  0
   -2.4928    1.1156   -0.5382 H   0  0  0  0  0  0  0  0  0  0  0  0
  1  2  1  0
  2  3  1  0
  3  4  2  0
  4  5  1  0
  5  6  2  0
  6  7  1  0
  7  8  2  0
  8  9  1  0
  9 10  1  0
 10 11  1  0
 11 12  1  0
 12 13  1  0
 13 14  2  0
 14 15  1  0
 15 16  2  0
 16 17  1  0
 17 18  1  0
 18 19  2  0
 19 20  1  0
 20 21  2  0
 21 22  1  0
 22 23  2  0
 17 24  2  0
 24 25  1  0
 25 26  2  0
 26 27  1  0
 27 28  2  0
 28 29  1  0
 29 30  2  0
 30 31  1  0
 12 32  1  0
 32 33  1  0
  8  3  1  0
 33  9  1  0
 31 13  1  0
 31 16  1  0
 23 18  1  0
 30 25  1  0
  1 34  1  0
  1 35  1  0
  1 36  1  0
  4 37  1  0
  5 38  1  0
  6 39  1  0
  7 40  1  0
 10 41  1  0
 10 42  1  0
 11 43  1  0
 11 44  1  0
 14 45  1  0
 15 46  1  0
 19 47  1  0
 20 48  1  0
 21 49  1  0
 22 50  1  0
 23 51  1  0
 26 52  1  0
 27 53  1  0
 28 54  1  0
 29 55  1  0
 32 56  1  0
 32 57  1  0
 33 58  1  0
 33 59  1  0
M  END
$$$$
