
     RDKit          3D

 55 57  0  0  0  0  0  0  0  0999 V2000
    4.5451    2.2105    3.9072 C   0  0  0  0  0  0  0  0  0  0  0  0
    4.1641    2.9730    2.6475 C   0  0  0  0  0  0  0  0  0  0  0  0
    4.0774    2.0909    1.4813 N   0  0  0  0  0  0  0  0  0  0  0  0
    5.3058    1.8881    0.7092 C   0  0  0  0  0  0  0  0  0  0  0  0
    5.4920    2.9618   -0.3514 C   0  0  0  0  0  0  0  0  0  0  0  0
    2.8561    1.4612    1.2224 C   0  0  0  0  0  0  0  0  0  0  0  0
    1.8959    1.5947    1.9844 O   0  0  0  0  0  0  0  0  0  0  0  0
    2.7801    0.5733   -0.0114 C   0  0  0  0  0  0  0  0  0  0  0  0
    1.4085    0.3321   -0.4594 N   0  0  0  0  0  0  0  0  0  0  0  0
    0.6219   -0.7489   -0.1036 C   0  0  0  0  0  0  0  0  0  0  0  0
    1.0741   -1.7763    0.8790 C   0  0  0  0  0  0  0  0  0  0  0  0
   -0.5776   -0.6169   -0.7833 C   0  0  0  0  0  0  0  0  0  0  0  0
   -1.6687   -1.5319   -0.6511 C   0  0  0  0  0  0  0  0  0  0  0  0
   -2.9529   -1.1615   -0.5108 C   0  0  0  0  0  0  0  0  0  0  0  0
   -4.0731   -2.0919   -0.3423 C   0  0  0  0  0  0  0  0  0  0  0  0
   -5.2996   -1.7883   -0.9305 C   0  0  0  0  0  0  0  0  0  0  0  0
   -6.3822   -2.6417   -0.7504 C   0  0  0  0  0  0  0  0  0  0  0  0
   -6.2591   -3.7611   -0.0033 N   0  0  0  0  0  4  0  0  0  0  0  0
   -7.4234   -4.6428    0.1849 C   0  0  0  0  0  0  0  0  0  0  0  0
   -5.0869   -4.0637    0.5975 C   0  0  0  0  0  0  0  0  0  0  0  0
   -3.9778   -3.2400    0.4426 C   0  0  0  0  0  0  0  0  0  0  0  0
   -0.5057    0.5535   -1.5989 C   0  0  0  0  0  0  0  0  0  0  0  0
   -1.3764    1.1721   -2.5251 C   0  0  0  0  0  0  0  0  0  0  0  0
   -0.9951    2.3583   -3.1600 C   0  0  0  0  0  0  0  0  0  0  0  0
    0.2386    2.9360   -2.8880 C   0  0  0  0  0  0  0  0  0  0  0  0
    1.1258    2.3402   -1.9880 C   0  0  0  0  0  0  0  0  0  0  0  0
    0.7392    1.1417   -1.3619 C   0  0  0  0  0  0  0  0  0  0  0  0
    5.5200    1.7254    3.7956 H   0  0  0  0  0  0  0  0  0  0  0  0
    4.5984    2.8918    4.7619 H   0  0  0  0  0  0  0  0  0  0  0  0
    3.8102    1.4318    4.1357 H   0  0  0  0  0  0  0  0  0  0  0  0
    3.1977    3.4658    2.8030 H   0  0  0  0  0  0  0  0  0  0  0  0
    4.8961    3.7619    2.4436 H   0  0  0  0  0  0  0  0  0  0  0  0
    6.1567    1.8890    1.3997 H   0  0  0  0  0  0  0  0  0  0  0  0
    5.2893    0.9025    0.2355 H   0  0  0  0  0  0  0  0  0  0  0  0
    5.5693    3.9554    0.1015 H   0  0  0  0  0  0  0  0  0  0  0  0
    6.4072    2.7765   -0.9221 H   0  0  0  0  0  0  0  0  0  0  0  0
    4.6505    2.9821   -1.0505 H   0  0  0  0  0  0  0  0  0  0  0  0
    3.3123    1.0168   -0.8563 H   0  0  0  0  0  0  0  0  0  0  0  0
    3.2444   -0.3923    0.2103 H   0  0  0  0  0  0  0  0  0  0  0  0
    0.2484   -2.4169    1.2033 H   0  0  0  0  0  0  0  0  0  0  0  0
    1.4892   -1.3070    1.7765 H   0  0  0  0  0  0  0  0  0  0  0  0
    1.8402   -2.4176    0.4318 H   0  0  0  0  0  0  0  0  0  0  0  0
   -1.4010   -2.5852   -0.6373 H   0  0  0  0  0  0  0  0  0  0  0  0
   -3.2064   -0.1020   -0.5088 H   0  0  0  0  0  0  0  0  0  0  0  0
   -5.4190   -0.8903   -1.5346 H   0  0  0  0  0  0  0  0  0  0  0  0
   -7.3511   -2.4346   -1.1960 H   0  0  0  0  0  0  0  0  0  0  0  0
   -7.9622   -4.2894    1.0674 H   0  0  0  0  0  0  0  0  0  0  0  0
   -8.0570   -4.5940   -0.7045 H   0  0  0  0  0  0  0  0  0  0  0  0
   -7.0764   -5.6698    0.3252 H   0  0  0  0  0  0  0  0  0  0  0  0
   -5.0480   -4.9623    1.2069 H   0  0  0  0  0  0  0  0  0  0  0  0
   -3.0502   -3.4935    0.9522 H   0  0  0  0  0  0  0  0  0  0  0  0
   -2.3404    0.7307   -2.7539 H   0  0  0  0  0  0  0  0  0  0  0  0
   -1.6687    2.8324   -3.8693 H   0  0  0  0  0  0  0  0  0  0  0  0
    0.5204    3.8630   -3.3824 H   0  0  0  0  0  0  0  0  0  0  0  0
    2.0841    2.8072   -1.7855 H   0  0  0  0  0  0  0  0  0  0  0  0
  1  2  1  0
  2  3  1  0
  3  4  1  0
  4  5  1  0
  3  6  1  0
  6  7  2  0
  6  8  1  0
  8  9  1  0
  9 10  1  0
 10 11  1  0
 10 12  2  0
 12 13  1  0
 13 14  2  3
 14 15  1  0
 15 16  2  0
 16 17  1  0
 17 18  2  0
 18 19  1  0
 18 20  1  0
 20 21  2  0
 12 22  1  0
 22 23  2  0
 23 24  1  0
 24 25  2  0
 25 26  1  0
 26 27  2  0
 27  9  1  0
 21 15  1  0
 27 22  1  0
  1 28  1  0
  1 29  1  0
  1 30  1  0
  2 31  1  0
  2 32  1  0
  4 33  1  0
  4 34  1  0
  5 35  1  0
  5 36  1  0
  5 37  1  0
  8 38  1  0
  8 39  1  0
 11 40  1  0
 11 41  1  0
 11 42  1  0
 13 43  1  0
 14 44  1  0
 16 45  1  0
 17 46  1  0
 19 47  1  0
 19 48  1  0
 19 49  1  0
 20 50  1  0
 21 51  1  0
 23 52  1  0
 24 53  1  0
 25 54  1  0
 26 55  1  0
M  CHG  1  18   1
M  END
$$$$
