
     RDKit          3D

 57 59  0  0  0  0  0  0  0  0999 V2000
   -9.0261    2.1771   -1.7118 C   0  0  0  0  0  0  0  0  0  0  0  0
   -8.7035    0.7968   -1.8237 O   0  0  0  0  0  0  0  0  0  0  0  0
   -7.3792    0.4621   -1.7550 C   0  0  0  0  0  0  0  0  0  0  0  0
   -7.1159   -0.9053   -1.8949 C   0  0  0  0  0  0  0  0  0  0  0  0
   -5.8080   -1.3905   -1.8449 C   0  0  0  0  0  0  0  0  0  0  0  0
   -4.7580   -0.4947   -1.6411 C   0  0  0  0  0  0  0  0  0  0  0  0
   -3.0825   -1.0766   -1.5721 S   0  0  0  0  0  6  0  0  0  0  0  0
   -3.0740   -2.4973   -1.8494 O   0  0  0  0  0  0  0  0  0  0  0  0
   -2.2725   -0.1506   -2.3321 O   0  0  0  0  0  0  0  0  0  0  0  0
   -2.7055   -0.8820    0.0635 N   0  0  0  0  0  0  0  0  0  0  0  0
   -3.4404   -1.7264    1.0304 C   0  0  0  0  0  0  0  0  0  0  0  0
   -2.3620   -2.5812    1.6568 C   0  0  0  0  0  0  0  0  0  0  0  0
   -1.2203   -1.7233    1.6496 O   0  0  0  0  0  0  0  0  0  0  0  0
   -1.2642   -1.0704    0.3617 C   0  0  0  0  0  0  0  0  0  0  0  0
   -0.5388    0.2849    0.4652 C   0  0  0  0  0  0  0  0  0  0  0  0
    0.8382    0.1725    0.9162 N   0  0  0  0  0  0  0  0  0  0  0  0
    1.8192   -0.3654    0.1172 C   0  0  0  0  0  0  0  0  0  0  0  0
    1.6959   -0.6715   -1.0605 O   0  0  0  0  0  0  0  0  0  0  0  0
    3.1642   -0.5922    0.8454 C   0  0  0  0  0  0  0  0  0  0  0  0
    3.2590   -0.3560    2.0411 O   0  0  0  0  0  0  0  0  0  0  0  0
    4.1555   -1.0565    0.0161 N   0  0  0  0  0  0  0  0  0  0  0  0
    5.5258   -1.2000    0.4437 C   0  0  0  0  0  0  0  0  0  0  0  0
    6.3149    0.0716    0.2588 C   0  0  0  0  0  0  0  0  0  0  0  0
    6.3648    0.6996   -0.9993 C   0  0  0  0  0  0  0  0  0  0  0  0
    7.1114    1.8652   -1.1887 C   0  0  0  0  0  0  0  0  0  0  0  0
    7.8332    2.4123   -0.1303 C   0  0  0  0  0  0  0  0  0  0  0  0
    7.8053    1.7967    1.1204 C   0  0  0  0  0  0  0  0  0  0  0  0
    7.0392    0.6443    1.3145 C   0  0  0  0  0  0  0  0  0  0  0  0
    7.0567    0.0226    2.5352 O   0  0  0  0  0  0  0  0  0  0  0  0
    6.3232    0.7796    3.4990 C   0  0  0  0  0  0  0  0  0  0  0  0
   -5.0049    0.8753   -1.5121 C   0  0  0  0  0  0  0  0  0  0  0  0
   -6.3180    1.3513   -1.5681 C   0  0  0  0  0  0  0  0  0  0  0  0
   -8.5906    2.7508   -2.5369 H   0  0  0  0  0  0  0  0  0  0  0  0
   -8.7142    2.5801   -0.7419 H   0  0  0  0  0  0  0  0  0  0  0  0
  -10.1145    2.2709   -1.7776 H   0  0  0  0  0  0  0  0  0  0  0  0
   -7.9418   -1.5964   -2.0520 H   0  0  0  0  0  0  0  0  0  0  0  0
   -5.6238   -2.4545   -1.9676 H   0  0  0  0  0  0  0  0  0  0  0  0
   -4.2383   -2.3340    0.5970 H   0  0  0  0  0  0  0  0  0  0  0  0
   -3.8879   -1.0574    1.7748 H   0  0  0  0  0  0  0  0  0  0  0  0
   -2.1416   -3.4706    1.0550 H   0  0  0  0  0  0  0  0  0  0  0  0
   -2.6012   -2.8882    2.6786 H   0  0  0  0  0  0  0  0  0  0  0  0
   -0.7737   -1.7374   -0.3571 H   0  0  0  0  0  0  0  0  0  0  0  0
   -1.0433    0.9290    1.1944 H   0  0  0  0  0  0  0  0  0  0  0  0
   -0.5432    0.7981   -0.5022 H   0  0  0  0  0  0  0  0  0  0  0  0
    1.0401    0.1940    1.9130 H   0  0  0  0  0  0  0  0  0  0  0  0
    3.9184   -1.1401   -0.9681 H   0  0  0  0  0  0  0  0  0  0  0  0
    5.5252   -1.5376    1.4861 H   0  0  0  0  0  0  0  0  0  0  0  0
    5.9790   -1.9952   -0.1599 H   0  0  0  0  0  0  0  0  0  0  0  0
    5.8236    0.2807   -1.8441 H   0  0  0  0  0  0  0  0  0  0  0  0
    7.1359    2.3413   -2.1649 H   0  0  0  0  0  0  0  0  0  0  0  0
    8.4258    3.3104   -0.2796 H   0  0  0  0  0  0  0  0  0  0  0  0
    8.3920    2.2060    1.9371 H   0  0  0  0  0  0  0  0  0  0  0  0
    6.1161    0.1253    4.3508 H   0  0  0  0  0  0  0  0  0  0  0  0
    5.3657    1.1333    3.1023 H   0  0  0  0  0  0  0  0  0  0  0  0
    6.9197    1.6252    3.8566 H   0  0  0  0  0  0  0  0  0  0  0  0
   -4.1817    1.5739   -1.3757 H   0  0  0  0  0  0  0  0  0  0  0  0
   -6.4782    2.4204   -1.4714 H   0  0  0  0  0  0  0  0  0  0  0  0
  1  2  1  0
  2  3  1  0
  3  4  2  0
  4  5  1  0
  5  6  2  0
  6  7  1  0
  7  8  2  0
  7  9  2  0
  7 10  1  0
 10 11  1  0
 11 12  1  0
 12 13  1  0
 13 14  1  0
 14 15  1  0
 15 16  1  0
 16 17  1  0
 17 18  2  0
 17 19  1  0
 19 20  2  0
 19 21  1  0
 21 22  1  0
 22 23  1  0
 23 24  2  0
 24 25  1  0
 25 26  2  0
 26 27  1  0
 27 28  2  0
 28 29  1  0
 29 30  1  0
  6 31  1  0
 31 32  2  0
 32  3  1  0
 14 10  1  0
 28 23  1  0
  1 33  1  0
  1 34  1  0
  1 35  1  0
  4 36  1  0
  5 37  1  0
 11 38  1  0
 11 39  1  0
 12 40  1  0
 12 41  1  0
 14 42  1  0
 15 43  1  0
 15 44  1  0
 16 45  1  0
 21 46  1  0
 22 47  1  0
 22 48  1  0
 24 49  1  0
 25 50  1  0
 26 51  1  0
 27 52  1  0
 30 53  1  0
 30 54  1  0
 30 55  1  0
 31 56  1  0
 32 57  1  0
M  END
$$$$
