
     RDKit          3D

 39 41  0  0  0  0  0  0  0  0999 V2000
    1.6689    2.6422   -2.8988 O   0  0  0  0  0  0  0  0  0  0  0  0
    1.6314    1.8690   -1.9457 C   0  0  0  0  0  0  0  0  0  0  0  0
    2.9057    1.3795   -1.3571 C   0  0  0  0  0  0  0  0  0  0  0  0
    3.0604    0.1757   -0.7843 C   0  0  0  0  0  0  0  0  0  0  0  0
    4.3353   -0.3050   -0.2339 C   0  0  0  0  0  0  0  0  0  0  0  0
    4.3152   -1.0884    0.9286 C   0  0  0  0  0  0  0  0  0  0  0  0
    5.5024   -1.5879    1.4722 C   0  0  0  0  0  0  0  0  0  0  0  0
    6.7165   -1.3150    0.8472 C   0  0  0  0  0  0  0  0  0  0  0  0
    8.3226   -1.9901    1.5797 Br  0  0  0  0  0  0  0  0  0  0  0  0
    6.7535   -0.5519   -0.3171 C   0  0  0  0  0  0  0  0  0  0  0  0
    5.5646   -0.0532   -0.8587 C   0  0  0  0  0  0  0  0  0  0  0  0
    0.3241    1.4361   -1.3960 C   0  0  0  0  0  0  0  0  0  0  0  0
   -0.7378    1.2396   -2.2829 C   0  0  0  0  0  0  0  0  0  0  0  0
   -1.9900    0.8464   -1.8007 C   0  0  0  0  0  0  0  0  0  0  0  0
   -2.2010    0.6566   -0.4288 C   0  0  0  0  0  0  0  0  0  0  0  0
   -3.4885    0.2571   -0.0289 N   0  0  0  0  0  0  0  0  0  0  0  0
   -3.9488   -0.0150    1.2477 C   0  0  0  0  0  0  0  0  0  0  0  0
   -3.2786    0.0426    2.2734 O   0  0  0  0  0  0  0  0  0  0  0  0
   -5.3507   -0.3959    1.2636 C   0  0  0  0  0  0  0  0  0  0  0  0
   -6.1885   -0.7420    2.3071 C   0  0  0  0  0  0  0  0  0  0  0  0
   -7.4548   -1.0200    1.7397 C   0  0  0  0  0  0  0  0  0  0  0  0
   -7.3179   -0.8282    0.3855 C   0  0  0  0  0  0  0  0  0  0  0  0
   -6.0491   -0.4500    0.0824 O   0  0  0  0  0  0  0  0  0  0  0  0
   -1.1421    0.8793    0.4545 C   0  0  0  0  0  0  0  0  0  0  0  0
    0.1135    1.2755   -0.0234 C   0  0  0  0  0  0  0  0  0  0  0  0
    3.7362    2.0657   -1.4902 H   0  0  0  0  0  0  0  0  0  0  0  0
    2.2281   -0.5185   -0.6960 H   0  0  0  0  0  0  0  0  0  0  0  0
    3.3748   -1.3120    1.4284 H   0  0  0  0  0  0  0  0  0  0  0  0
    5.4667   -2.1868    2.3786 H   0  0  0  0  0  0  0  0  0  0  0  0
    7.6971   -0.3437   -0.8146 H   0  0  0  0  0  0  0  0  0  0  0  0
    5.6136    0.5235   -1.7797 H   0  0  0  0  0  0  0  0  0  0  0  0
   -0.5936    1.3926   -3.3508 H   0  0  0  0  0  0  0  0  0  0  0  0
   -2.7961    0.6954   -2.5149 H   0  0  0  0  0  0  0  0  0  0  0  0
   -4.1856    0.1437   -0.7578 H   0  0  0  0  0  0  0  0  0  0  0  0
   -5.9044   -0.7850    3.3503 H   0  0  0  0  0  0  0  0  0  0  0  0
   -8.3562   -1.3230    2.2542 H   0  0  0  0  0  0  0  0  0  0  0  0
   -7.9942   -0.9158   -0.4539 H   0  0  0  0  0  0  0  0  0  0  0  0
   -1.2605    0.7658    1.5279 H   0  0  0  0  0  0  0  0  0  0  0  0
    0.9078    1.4700    0.6930 H   0  0  0  0  0  0  0  0  0  0  0  0
  1  2  2  0
  2  3  1  0
  3  4  2  3
  4  5  1  0
  5  6  2  0
  6  7  1  0
  7  8  2  0
  8  9  1  0
  8 10  1  0
 10 11  2  0
  2 12  1  0
 12 13  2  0
 13 14  1  0
 14 15  2  0
 15 16  1  0
 16 17  1  0
 17 18  2  0
 17 19  1  0
 19 20  2  0
 20 21  1  0
 21 22  2  0
 22 23  1  0
 15 24  1  0
 24 25  2  0
 11  5  1  0
 25 12  1  0
 23 19  1  0
  3 26  1  0
  4 27  1  0
  6 28  1  0
  7 29  1  0
 10 30  1  0
 11 31  1  0
 13 32  1  0
 14 33  1  0
 16 34  1  0
 20 35  1  0
 21 36  1  0
 22 37  1  0
 24 38  1  0
 25 39  1  0
M  END
$$$$
