
     RDKit          3D

 30 31  0  0  0  0  0  0  0  0999 V2000
   -2.7086   -0.6539    1.7307 C   0  0  0  0  0  0  0  0  0  0  0  0
   -3.2957   -0.3764    0.3435 C   0  0  0  0  0  0  0  0  0  0  0  0
   -4.8207   -0.3150    0.4467 C   0  0  0  0  0  0  0  0  0  0  0  0
   -2.8787    0.9099   -0.1375 O   0  0  0  0  0  0  0  0  0  0  0  0
   -1.6715    1.0243   -0.7080 C   0  0  0  0  0  0  0  0  0  0  0  0
   -1.1799    2.0734   -1.0902 O   0  0  0  0  0  0  0  0  0  0  0  0
   -0.9538   -0.2887   -0.8551 C   0  0  0  0  0  0  0  0  0  0  0  0
    0.3233   -0.4584   -0.6591 N   0  0  0  0  0  0  0  0  0  0  0  0
    1.0559    0.6465   -0.3360 N   0  0  0  0  0  0  0  0  0  0  0  0
    2.4580    0.5039   -0.2239 C   0  0  0  0  0  0  0  0  0  0  0  0
    3.0804   -0.7464   -0.1158 C   0  0  0  0  0  0  0  0  0  0  0  0
    4.4632   -0.8488    0.0611 C   0  0  0  0  0  0  0  0  0  0  0  0
    5.2413    0.3022    0.1560 C   0  0  0  0  0  0  0  0  0  0  0  0
    4.6358    1.5541    0.0826 C   0  0  0  0  0  0  0  0  0  0  0  0
    3.2527    1.6524   -0.0952 C   0  0  0  0  0  0  0  0  0  0  0  0
   -1.8094   -1.4839   -1.1730 C   0  0  0  0  0  0  0  0  0  0  0  0
   -1.4542   -2.3606   -1.9388 O   0  0  0  0  0  0  0  0  0  0  0  0
   -3.0021   -1.4533   -0.5577 O   0  0  0  0  0  0  0  0  0  0  0  0
   -2.9699    0.1427    2.4355 H   0  0  0  0  0  0  0  0  0  0  0  0
   -1.6156   -0.7073    1.7061 H   0  0  0  0  0  0  0  0  0  0  0  0
   -3.0626   -1.6131    2.1235 H   0  0  0  0  0  0  0  0  0  0  0  0
   -5.1452    0.4914    1.1133 H   0  0  0  0  0  0  0  0  0  0  0  0
   -5.2371   -1.2642    0.8009 H   0  0  0  0  0  0  0  0  0  0  0  0
   -5.2614   -0.1167   -0.5377 H   0  0  0  0  0  0  0  0  0  0  0  0
    0.7887    1.5536   -0.7399 H   0  0  0  0  0  0  0  0  0  0  0  0
    2.4883   -1.6560   -0.1765 H   0  0  0  0  0  0  0  0  0  0  0  0
    4.9273   -1.8290    0.1283 H   0  0  0  0  0  0  0  0  0  0  0  0
    6.3161    0.2230    0.2948 H   0  0  0  0  0  0  0  0  0  0  0  0
    5.2371    2.4550    0.1693 H   0  0  0  0  0  0  0  0  0  0  0  0
    2.7983    2.6392   -0.1331 H   0  0  0  0  0  0  0  0  0  0  0  0
  1  2  1  0
  2  3  1  0
  2  4  1  0
  4  5  1  0
  5  6  2  0
  5  7  1  0
  7  8  2  3
  8  9  1  0
  9 10  1  0
 10 11  2  0
 11 12  1  0
 12 13  2  0
 13 14  1  0
 14 15  2  0
  7 16  1  0
 16 17  2  0
 16 18  1  0
 18  2  1  0
 15 10  1  0
  1 19  1  0
  1 20  1  0
  1 21  1  0
  3 22  1  0
  3 23  1  0
  3 24  1  0
  9 25  1  0
 11 26  1  0
 12 27  1  0
 13 28  1  0
 14 29  1  0
 15 30  1  0
M  END
$$$$
