
     RDKit          3D

 30 31  0  0  0  0  0  0  0  0999 V2000
   -3.5784   -0.3706   -2.0211 C   0  0  0  0  0  0  0  0  0  0  0  0
   -3.8586   -0.2555   -0.5721 C   0  0  0  0  0  0  0  0  0  0  0  0
   -5.1079   -0.6581   -0.1983 O   0  0  0  0  0  0  0  0  0  0  0  0
   -5.2214   -0.4470    1.1343 C   0  0  0  0  0  0  0  0  0  0  0  0
   -4.0581    0.0842    1.6304 C   0  0  0  0  0  0  0  0  0  0  0  0
   -3.1484    0.1958    0.5326 C   0  0  0  0  0  0  0  0  0  0  0  0
   -1.7902    0.7147    0.6101 C   0  0  0  0  0  0  0  0  0  0  0  0
   -1.3932    1.3587    1.5807 O   0  0  0  0  0  0  0  0  0  0  0  0
   -0.9598    0.4082   -0.4515 N   0  0  0  0  0  0  0  0  0  0  0  0
    0.4144    0.6710   -0.3039 N   0  0  0  0  0  0  0  0  0  0  0  0
    1.2953   -0.2465   -0.8406 C   0  0  0  0  0  0  0  0  0  0  0  0
    0.9098   -1.1625   -1.5666 O   0  0  0  0  0  0  0  0  0  0  0  0
    2.7368   -0.0987   -0.5068 C   0  0  0  0  0  0  0  0  0  0  0  0
    3.6492   -1.0021   -1.0731 C   0  0  0  0  0  0  0  0  0  0  0  0
    5.0143   -0.9025   -0.7890 C   0  0  0  0  0  0  0  0  0  0  0  0
    5.4797    0.0987    0.0627 C   0  0  0  0  0  0  0  0  0  0  0  0
    4.5804    0.9997    0.6306 C   0  0  0  0  0  0  0  0  0  0  0  0
    3.2196    0.8969    0.3444 C   0  0  0  0  0  0  0  0  0  0  0  0
    2.3890    1.7818    0.9163 F   0  0  0  0  0  0  0  0  0  0  0  0
   -3.0628    0.5206   -2.3910 H   0  0  0  0  0  0  0  0  0  0  0  0
   -4.5048   -0.4776   -2.5948 H   0  0  0  0  0  0  0  0  0  0  0  0
   -2.9553   -1.2473   -2.2213 H   0  0  0  0  0  0  0  0  0  0  0  0
   -6.1723   -0.7147    1.5735 H   0  0  0  0  0  0  0  0  0  0  0  0
   -3.8666    0.3587    2.6591 H   0  0  0  0  0  0  0  0  0  0  0  0
   -1.1719   -0.3822   -1.0565 H   0  0  0  0  0  0  0  0  0  0  0  0
    0.6759    1.3151    0.4459 H   0  0  0  0  0  0  0  0  0  0  0  0
    3.3002   -1.7891   -1.7400 H   0  0  0  0  0  0  0  0  0  0  0  0
    5.7131   -1.6080   -1.2336 H   0  0  0  0  0  0  0  0  0  0  0  0
    6.5418    0.1756    0.2840 H   0  0  0  0  0  0  0  0  0  0  0  0
    4.9303    1.7828    1.2970 H   0  0  0  0  0  0  0  0  0  0  0  0
  1  2  1  0
  2  3  1  0
  3  4  1  0
  4  5  2  0
  5  6  1  0
  6  7  1  0
  7  8  2  0
  7  9  1  0
  9 10  1  0
 10 11  1  0
 11 12  2  0
 11 13  1  0
 13 14  2  0
 14 15  1  0
 15 16  2  0
 16 17  1  0
 17 18  2  0
 18 19  1  0
  6  2  2  0
 18 13  1  0
  1 20  1  0
  1 21  1  0
  1 22  1  0
  4 23  1  0
  5 24  1  0
  9 25  1  0
 10 26  1  0
 14 27  1  0
 15 28  1  0
 16 29  1  0
 17 30  1  0
M  END
$$$$
