
     RDKit          3D

 51 53  0  0  0  0  0  0  0  0999 V2000
    7.5868   -2.5774   -1.1609 C   0  0  0  0  0  0  0  0  0  0  0  0
    6.9477   -1.8874   -0.0974 O   0  0  0  0  0  0  0  0  0  0  0  0
    6.0591   -0.8946   -0.4286 C   0  0  0  0  0  0  0  0  0  0  0  0
    5.7287   -0.5328   -1.7372 C   0  0  0  0  0  0  0  0  0  0  0  0
    4.8108    0.4924   -1.9781 C   0  0  0  0  0  0  0  0  0  0  0  0
    4.2188    1.1833   -0.9156 C   0  0  0  0  0  0  0  0  0  0  0  0
    3.2290    2.2873   -1.1920 C   0  0  0  0  0  0  0  0  0  0  0  0
    1.8251    1.7603   -1.4552 C   0  0  0  0  0  0  0  0  0  0  0  0
    1.4943    1.3894   -2.5776 O   0  0  0  0  0  0  0  0  0  0  0  0
    1.0336    1.7600   -0.3167 N   0  0  0  0  0  0  0  0  0  0  0  0
   -0.3054    1.3359   -0.1991 C   0  0  0  0  0  0  0  0  0  0  0  0
   -1.0663    0.8359   -1.2540 C   0  0  0  0  0  0  0  0  0  0  0  0
   -2.3949    0.4312   -1.0502 C   0  0  0  0  0  0  0  0  0  0  0  0
   -2.9829    0.5216    0.2105 C   0  0  0  0  0  0  0  0  0  0  0  0
   -4.3100    0.1387    0.4957 N   0  0  0  0  0  0  0  0  0  0  0  0
   -5.2090   -0.4668   -0.3638 C   0  0  0  0  0  0  0  0  0  0  0  0
   -5.0049   -0.8311   -1.5154 O   0  0  0  0  0  0  0  0  0  0  0  0
   -6.5530   -0.7253    0.2243 C   0  0  0  0  0  0  0  0  0  0  0  0
   -7.1726    0.1987    1.0770 C   0  0  0  0  0  0  0  0  0  0  0  0
   -8.4377   -0.0789    1.6042 C   0  0  0  0  0  0  0  0  0  0  0  0
   -9.0807   -1.2721    1.2743 C   0  0  0  0  0  0  0  0  0  0  0  0
  -10.7909   -1.6428    1.9907 Br  0  0  0  0  0  0  0  0  0  0  0  0
   -8.4767   -2.1889    0.4137 C   0  0  0  0  0  0  0  0  0  0  0  0
   -7.2144   -1.9122   -0.1169 C   0  0  0  0  0  0  0  0  0  0  0  0
   -2.2218    1.0295    1.2681 C   0  0  0  0  0  0  0  0  0  0  0  0
   -0.8955    1.4297    1.0658 C   0  0  0  0  0  0  0  0  0  0  0  0
    4.5415    0.8154    0.3991 C   0  0  0  0  0  0  0  0  0  0  0  0
    5.4502   -0.2220    0.6496 C   0  0  0  0  0  0  0  0  0  0  0  0
    5.8199   -0.6346    1.9066 O   0  0  0  0  0  0  0  0  0  0  0  0
    5.0320   -0.1903    3.0012 C   0  0  0  0  0  0  0  0  0  0  0  0
    8.1966   -1.8966   -1.7638 H   0  0  0  0  0  0  0  0  0  0  0  0
    8.2579   -3.3225   -0.7214 H   0  0  0  0  0  0  0  0  0  0  0  0
    6.8576   -3.1113   -1.7790 H   0  0  0  0  0  0  0  0  0  0  0  0
    6.1637   -1.0305   -2.5976 H   0  0  0  0  0  0  0  0  0  0  0  0
    4.5580    0.7464   -3.0070 H   0  0  0  0  0  0  0  0  0  0  0  0
    3.2168    3.0036   -0.3624 H   0  0  0  0  0  0  0  0  0  0  0  0
    3.5457    2.8668   -2.0670 H   0  0  0  0  0  0  0  0  0  0  0  0
    1.4702    2.0748    0.5383 H   0  0  0  0  0  0  0  0  0  0  0  0
   -0.6625    0.7385   -2.2577 H   0  0  0  0  0  0  0  0  0  0  0  0
   -2.9400    0.0499   -1.9093 H   0  0  0  0  0  0  0  0  0  0  0  0
   -4.6008    0.2521    1.4573 H   0  0  0  0  0  0  0  0  0  0  0  0
   -6.7008    1.1494    1.3110 H   0  0  0  0  0  0  0  0  0  0  0  0
   -8.9189    0.6444    2.2592 H   0  0  0  0  0  0  0  0  0  0  0  0
   -8.9789   -3.1150    0.1451 H   0  0  0  0  0  0  0  0  0  0  0  0
   -6.7463   -2.6219   -0.7978 H   0  0  0  0  0  0  0  0  0  0  0  0
   -2.6442    1.1198    2.2652 H   0  0  0  0  0  0  0  0  0  0  0  0
   -0.3365    1.8147    1.9143 H   0  0  0  0  0  0  0  0  0  0  0  0
    4.0820    1.3557    1.2203 H   0  0  0  0  0  0  0  0  0  0  0  0
    5.1850    0.8794    3.1833 H   0  0  0  0  0  0  0  0  0  0  0  0
    3.9718   -0.4192    2.8514 H   0  0  0  0  0  0  0  0  0  0  0  0
    5.3630   -0.7309    3.8944 H   0  0  0  0  0  0  0  0  0  0  0  0
  1  2  1  0
  2  3  1  0
  3  4  2  0
  4  5  1  0
  5  6  2  0
  6  7  1  0
  7  8  1  0
  8  9  2  0
  8 10  1  0
 10 11  1  0
 11 12  2  0
 12 13  1  0
 13 14  2  0
 14 15  1  0
 15 16  1  0
 16 17  2  0
 16 18  1  0
 18 19  2  0
 19 20  1  0
 20 21  2  0
 21 22  1  0
 21 23  1  0
 23 24  2  0
 14 25  1  0
 25 26  2  0
  6 27  1  0
 27 28  2  0
 28 29  1  0
 29 30  1  0
 28  3  1  0
 26 11  1  0
 24 18  1  0
  1 31  1  0
  1 32  1  0
  1 33  1  0
  4 34  1  0
  5 35  1  0
  7 36  1  0
  7 37  1  0
 10 38  1  0
 12 39  1  0
 13 40  1  0
 15 41  1  0
 19 42  1  0
 20 43  1  0
 23 44  1  0
 24 45  1  0
 25 46  1  0
 26 47  1  0
 27 48  1  0
 30 49  1  0
 30 50  1  0
 30 51  1  0
M  END
$$$$
