
     RDKit          3D

 69 74  0  0  0  0  0  0  0  0999 V2000
    2.6546    2.2192    0.4366 O   0  0  0  0  0  0  0  0  0  0  0  0
    2.1462    0.9574   -0.0291 C   0  0  0  0  0  0  0  0  0  0  0  0
    3.1992    0.2968   -0.9311 C   0  0  0  0  0  0  0  0  0  0  0  0
    4.3982    0.0554   -0.1797 O   0  0  0  0  0  0  0  0  0  0  0  0
    4.5753   -1.1308    0.4738 C   0  0  0  0  0  0  0  0  0  0  0  0
    3.5752   -2.1092    0.5703 C   0  0  0  0  0  0  0  0  0  0  0  0
    3.7961   -3.3018    1.2612 C   0  0  0  0  0  0  0  0  0  0  0  0
    5.0208   -3.5337    1.8755 C   0  0  0  0  0  0  0  0  0  0  0  0
    6.0396   -2.5831    1.8076 C   0  0  0  0  0  0  0  0  0  0  0  0
    7.2484   -2.9007    2.4680 N   0  0  0  0  0  0  0  0  0  0  0  0
    8.2179   -2.0439    2.4287 C   0  0  0  0  0  0  0  0  0  0  0  0
    8.0920   -0.7999    1.7366 C   0  0  0  0  0  0  0  0  0  0  0  0
    8.9930    0.2309    1.5751 C   0  0  0  0  0  0  0  0  0  0  0  0
    8.3541    1.2181    0.7970 C   0  0  0  0  0  0  0  0  0  0  0  0
    7.0858    0.7574    0.5080 C   0  0  0  0  0  0  0  0  0  0  0  0
    6.9168   -0.4807    1.0870 N   0  0  0  0  0  0  0  0  0  0  0  0
    5.8142   -1.3766    1.0999 C   0  0  0  0  0  0  0  0  0  0  0  0
    0.8245    1.2148   -0.7790 C   0  0  0  0  0  0  0  0  0  0  0  0
    0.1573   -0.0124   -1.2497 N   0  0  0  0  0  0  0  0  0  0  0  0
   -0.5223   -0.7466   -0.1602 C   0  0  0  0  0  0  0  0  0  0  0  0
   -1.8258   -0.0962    0.3666 C   0  0  0  0  0  0  0  0  0  0  0  0
   -2.8111    0.1772   -0.7088 N   0  0  0  0  0  0  0  0  0  0  0  0
   -4.0137    0.8795   -0.1633 C   0  0  0  0  0  0  0  0  0  0  0  0
   -5.0028    1.3463   -1.2407 C   0  0  0  0  0  0  0  0  0  0  0  0
   -5.5233    0.4601   -2.1994 C   0  0  0  0  0  0  0  0  0  0  0  0
   -6.4366    0.9023   -3.1579 C   0  0  0  0  0  0  0  0  0  0  0  0
   -6.8456    2.2342   -3.1710 C   0  0  0  0  0  0  0  0  0  0  0  0
   -6.3429    3.1259   -2.2263 C   0  0  0  0  0  0  0  0  0  0  0  0
   -5.4287    2.6863   -1.2670 C   0  0  0  0  0  0  0  0  0  0  0  0
   -4.7688    0.0636    0.8972 C   0  0  0  0  0  0  0  0  0  0  0  0
   -5.3018    0.7100    2.0261 C   0  0  0  0  0  0  0  0  0  0  0  0
   -6.0226   -0.0058    2.9845 C   0  0  0  0  0  0  0  0  0  0  0  0
   -6.2250   -1.3751    2.8275 C   0  0  0  0  0  0  0  0  0  0  0  0
   -5.7068   -2.0313    1.7143 C   0  0  0  0  0  0  0  0  0  0  0  0
   -4.9889   -1.3175    0.7533 C   0  0  0  0  0  0  0  0  0  0  0  0
   -2.1403    0.9734   -1.7633 C   0  0  0  0  0  0  0  0  0  0  0  0
   -0.8530    0.2927   -2.2858 C   0  0  0  0  0  0  0  0  0  0  0  0
    3.5548    2.0407    0.7707 H   0  0  0  0  0  0  0  0  0  0  0  0
    1.9736    0.3589    0.8700 H   0  0  0  0  0  0  0  0  0  0  0  0
    2.8481   -0.6025   -1.4469 H   0  0  0  0  0  0  0  0  0  0  0  0
    3.4885    1.0063   -1.7165 H   0  0  0  0  0  0  0  0  0  0  0  0
    2.5953   -1.9803    0.1215 H   0  0  0  0  0  0  0  0  0  0  0  0
    3.0109   -4.0508    1.3217 H   0  0  0  0  0  0  0  0  0  0  0  0
    5.1901   -4.4625    2.4148 H   0  0  0  0  0  0  0  0  0  0  0  0
    9.1660   -2.2779    2.9403 H   0  0  0  0  0  0  0  0  0  0  0  0
   10.0004    0.2671    1.9699 H   0  0  0  0  0  0  0  0  0  0  0  0
    8.7692    2.1636    0.4718 H   0  0  0  0  0  0  0  0  0  0  0  0
    6.3126    1.2325   -0.0743 H   0  0  0  0  0  0  0  0  0  0  0  0
    1.0699    1.8524   -1.6398 H   0  0  0  0  0  0  0  0  0  0  0  0
    0.1662    1.8307   -0.1543 H   0  0  0  0  0  0  0  0  0  0  0  0
    0.1610   -0.9167    0.6786 H   0  0  0  0  0  0  0  0  0  0  0  0
   -0.7673   -1.7489   -0.5366 H   0  0  0  0  0  0  0  0  0  0  0  0
   -2.2461   -0.7886    1.1038 H   0  0  0  0  0  0  0  0  0  0  0  0
   -1.5769    0.8276    0.9039 H   0  0  0  0  0  0  0  0  0  0  0  0
   -3.6376    1.7834    0.3394 H   0  0  0  0  0  0  0  0  0  0  0  0
   -5.2118   -0.5815   -2.2026 H   0  0  0  0  0  0  0  0  0  0  0  0
   -6.8321    0.2053   -3.8911 H   0  0  0  0  0  0  0  0  0  0  0  0
   -7.5610    2.5753   -3.9145 H   0  0  0  0  0  0  0  0  0  0  0  0
   -6.6676    4.1636   -2.2314 H   0  0  0  0  0  0  0  0  0  0  0  0
   -5.0550    3.3979   -0.5339 H   0  0  0  0  0  0  0  0  0  0  0  0
   -5.1712    1.7813    2.1594 H   0  0  0  0  0  0  0  0  0  0  0  0
   -6.4372    0.5082    3.8471 H   0  0  0  0  0  0  0  0  0  0  0  0
   -6.7911   -1.9303    3.5709 H   0  0  0  0  0  0  0  0  0  0  0  0
   -5.8688   -3.0983    1.5879 H   0  0  0  0  0  0  0  0  0  0  0  0
   -4.5943   -1.8435   -0.1132 H   0  0  0  0  0  0  0  0  0  0  0  0
   -1.9010    1.9792   -1.3957 H   0  0  0  0  0  0  0  0  0  0  0  0
   -2.7986    1.0944   -2.6297 H   0  0  0  0  0  0  0  0  0  0  0  0
   -1.1302   -0.6502   -2.7759 H   0  0  0  0  0  0  0  0  0  0  0  0
   -0.4080    0.9074   -3.0781 H   0  0  0  0  0  0  0  0  0  0  0  0
  1  2  1  0
  2  3  1  0
  3  4  1  0
  4  5  1  0
  5  6  2  0
  6  7  1  0
  7  8  2  0
  8  9  1  0
  9 10  1  0
 10 11  2  0
 11 12  1  0
 12 13  2  0
 13 14  1  0
 14 15  2  0
 15 16  1  0
 16 17  1  0
  2 18  1  0
 18 19  1  0
 19 20  1  0
 20 21  1  0
 21 22  1  0
 22 23  1  0
 23 24  1  0
 24 25  2  0
 25 26  1  0
 26 27  2  0
 27 28  1  0
 28 29  2  0
 23 30  1  0
 30 31  2  0
 31 32  1  0
 32 33  2  0
 33 34  1  0
 34 35  2  0
 22 36  1  0
 36 37  1  0
 17  5  1  0
 37 19  1  0
 17  9  2  0
 29 24  1  0
 35 30  1  0
 16 12  1  0
  1 38  1  0
  2 39  1  0
  3 40  1  0
  3 41  1  0
  6 42  1  0
  7 43  1  0
  8 44  1  0
 11 45  1  0
 13 46  1  0
 14 47  1  0
 15 48  1  0
 18 49  1  0
 18 50  1  0
 20 51  1  0
 20 52  1  0
 21 53  1  0
 21 54  1  0
 23 55  1  0
 25 56  1  0
 26 57  1  0
 27 58  1  0
 28 59  1  0
 29 60  1  0
 31 61  1  0
 32 62  1  0
 33 63  1  0
 34 64  1  0
 35 65  1  0
 36 66  1  0
 36 67  1  0
 37 68  1  0
 37 69  1  0
M  END
$$$$
