
     RDKit          3D

 40 42  0  0  0  0  0  0  0  0999 V2000
   -2.5105   -0.9346    1.4953 C   0  0  0  0  0  0  0  0  0  0  0  0
   -2.9339   -0.4105    0.1942 N   0  0  0  0  0  0  0  0  0  0  0  0
   -2.0339   -0.4124   -0.8890 C   0  0  0  0  0  0  0  0  0  0  0  0
   -2.3275   -0.5045   -2.0788 O   0  0  0  0  0  0  0  0  0  0  0  0
   -0.5851   -0.2800   -0.5911 C   0  0  0  0  0  0  0  0  0  0  0  0
   -0.1172    0.7620    0.2147 C   0  0  0  0  0  0  0  0  0  0  0  0
    1.2532    0.8835    0.4628 C   0  0  0  0  0  0  0  0  0  0  0  0
    2.1663   -0.0222   -0.0969 C   0  0  0  0  0  0  0  0  0  0  0  0
    3.5255    0.1727    0.2077 N   0  0  0  0  0  0  0  0  0  0  0  0
    4.6155   -0.5801   -0.1936 C   0  0  0  0  0  0  0  0  0  0  0  0
    4.5690   -1.5844   -0.8958 O   0  0  0  0  0  0  0  0  0  0  0  0
    5.8703   -0.0560    0.3181 C   0  0  0  0  0  0  0  0  0  0  0  0
    7.1720   -0.4919    0.1572 C   0  0  0  0  0  0  0  0  0  0  0  0
    7.9954    0.4027    0.8814 C   0  0  0  0  0  0  0  0  0  0  0  0
    7.1511    1.3312    1.4421 C   0  0  0  0  0  0  0  0  0  0  0  0
    5.8610    1.0660    1.1102 O   0  0  0  0  0  0  0  0  0  0  0  0
    1.6886   -1.0453   -0.9203 C   0  0  0  0  0  0  0  0  0  0  0  0
    0.3181   -1.1699   -1.1757 C   0  0  0  0  0  0  0  0  0  0  0  0
   -4.3262   -0.0493    0.0345 C   0  0  0  0  0  0  0  0  0  0  0  0
   -4.8069    0.5544   -1.1379 C   0  0  0  0  0  0  0  0  0  0  0  0
   -6.1511    0.9244   -1.2786 C   0  0  0  0  0  0  0  0  0  0  0  0
   -7.0491    0.7101   -0.2411 C   0  0  0  0  0  0  0  0  0  0  0  0
   -6.5995    0.1322    0.9390 C   0  0  0  0  0  0  0  0  0  0  0  0
   -5.2545   -0.2366    1.0758 C   0  0  0  0  0  0  0  0  0  0  0  0
   -3.1191   -1.8079    1.7525 H   0  0  0  0  0  0  0  0  0  0  0  0
   -1.4759   -1.2844    1.4941 H   0  0  0  0  0  0  0  0  0  0  0  0
   -2.6164   -0.1527    2.2536 H   0  0  0  0  0  0  0  0  0  0  0  0
   -0.8100    1.4852    0.6377 H   0  0  0  0  0  0  0  0  0  0  0  0
    1.5969    1.7002    1.0931 H   0  0  0  0  0  0  0  0  0  0  0  0
    3.7598    0.9637    0.7984 H   0  0  0  0  0  0  0  0  0  0  0  0
    7.4759   -1.3558   -0.4192 H   0  0  0  0  0  0  0  0  0  0  0  0
    9.0715    0.3745    0.9818 H   0  0  0  0  0  0  0  0  0  0  0  0
    7.3049    2.1977    2.0707 H   0  0  0  0  0  0  0  0  0  0  0  0
    2.3558   -1.7603   -1.3921 H   0  0  0  0  0  0  0  0  0  0  0  0
   -0.0399   -1.9592   -1.8335 H   0  0  0  0  0  0  0  0  0  0  0  0
   -4.1536    0.7717   -1.9775 H   0  0  0  0  0  0  0  0  0  0  0  0
   -6.4867    1.3832   -2.2053 H   0  0  0  0  0  0  0  0  0  0  0  0
   -8.0913    0.9958   -0.3514 H   0  0  0  0  0  0  0  0  0  0  0  0
   -7.2928   -0.0349    1.7594 H   0  0  0  0  0  0  0  0  0  0  0  0
   -4.9696   -0.6782    2.0249 H   0  0  0  0  0  0  0  0  0  0  0  0
  1  2  1  0
  2  3  1  0
  3  4  2  0
  3  5  1  0
  5  6  2  0
  6  7  1  0
  7  8  2  0
  8  9  1  0
  9 10  1  0
 10 11  2  0
 10 12  1  0
 12 13  2  0
 13 14  1  0
 14 15  2  0
 15 16  1  0
  8 17  1  0
 17 18  2  0
  2 19  1  0
 19 20  2  0
 20 21  1  0
 21 22  2  0
 22 23  1  0
 23 24  2  0
 18  5  1  0
 24 19  1  0
 16 12  1  0
  1 25  1  0
  1 26  1  0
  1 27  1  0
  6 28  1  0
  7 29  1  0
  9 30  1  0
 13 31  1  0
 14 32  1  0
 15 33  1  0
 17 34  1  0
 18 35  1  0
 20 36  1  0
 21 37  1  0
 22 38  1  0
 23 39  1  0
 24 40  1  0
M  END
$$$$
