
     RDKit          3D

 58 60  0  0  0  0  0  0  0  0999 V2000
    0.9695    2.6388    0.3540 C   0  0  0  0  0  0  0  0  0  0  0  0
    1.9465    1.5628   -0.0137 C   0  0  0  0  0  0  0  0  0  0  0  0
    1.9585    1.0217   -1.3025 C   0  0  0  0  0  0  0  0  0  0  0  0
    2.8994    0.0508   -1.6562 C   0  0  0  0  0  0  0  0  0  0  0  0
    3.8421   -0.4058   -0.7270 C   0  0  0  0  0  0  0  0  0  0  0  0
    4.8644   -1.4564   -1.1005 C   0  0  0  0  0  0  0  0  0  0  0  0
    4.2919   -2.7708   -1.6555 C   0  0  0  0  0  0  0  0  0  0  0  0
    3.3535   -3.3956   -0.7391 N   0  0  0  0  0  0  0  0  0  0  0  0
    1.9917   -3.2679   -0.9181 C   0  0  0  0  0  0  0  0  0  0  0  0
    1.4784   -2.8478   -1.9493 O   0  0  0  0  0  0  0  0  0  0  0  0
    1.1814   -3.7146    0.2763 C   0  0  0  0  0  0  0  0  0  0  0  0
   -0.1581   -2.9903    0.2875 C   0  0  0  0  0  0  0  0  0  0  0  0
   -0.8858   -3.3246    1.5208 N   0  0  0  0  0  0  0  0  0  0  0  0
   -2.5328   -3.0054    1.6128 S   0  0  0  0  0  6  0  0  0  0  0  0
   -3.1910   -3.6204    0.4845 O   0  0  0  0  0  0  0  0  0  0  0  0
   -2.9219   -3.2927    2.9761 O   0  0  0  0  0  0  0  0  0  0  0  0
   -2.5972   -1.2416    1.4011 C   0  0  0  0  0  0  0  0  0  0  0  0
   -2.5253   -0.4112    2.5193 C   0  0  0  0  0  0  0  0  0  0  0  0
   -2.5898    0.9769    2.3576 C   0  0  0  0  0  0  0  0  0  0  0  0
   -2.7310    1.5510    1.0827 C   0  0  0  0  0  0  0  0  0  0  0  0
   -2.8138    0.6997   -0.0201 C   0  0  0  0  0  0  0  0  0  0  0  0
   -2.7594   -0.6952    0.1292 C   0  0  0  0  0  0  0  0  0  0  0  0
   -2.9538    1.2774   -1.3657 C   0  0  0  0  0  0  0  0  0  0  0  0
   -2.9883    0.5243   -2.3352 O   0  0  0  0  0  0  0  0  0  0  0  0
   -3.0266    2.6585   -1.4478 N   0  0  0  0  0  0  0  0  0  0  0  0
   -3.1662    3.2603   -2.7615 C   0  0  0  0  0  0  0  0  0  0  0  0
   -2.9202    3.5303   -0.3713 C   0  0  0  0  0  0  0  0  0  0  0  0
   -2.9361    4.7531   -0.5327 O   0  0  0  0  0  0  0  0  0  0  0  0
   -2.7851    2.9570    0.8900 N   0  0  0  0  0  0  0  0  0  0  0  0
   -2.6916    3.8472    2.0407 C   0  0  0  0  0  0  0  0  0  0  0  0
    3.8392    0.1529    0.5583 C   0  0  0  0  0  0  0  0  0  0  0  0
    2.9021    1.1287    0.9106 C   0  0  0  0  0  0  0  0  0  0  0  0
    0.1105    2.6391   -0.3242 H   0  0  0  0  0  0  0  0  0  0  0  0
    0.5877    2.4826    1.3684 H   0  0  0  0  0  0  0  0  0  0  0  0
    1.4537    3.6190    0.3003 H   0  0  0  0  0  0  0  0  0  0  0  0
    1.2362    1.3496   -2.0475 H   0  0  0  0  0  0  0  0  0  0  0  0
    2.8741   -0.3565   -2.6653 H   0  0  0  0  0  0  0  0  0  0  0  0
    5.4718   -1.6963   -0.2179 H   0  0  0  0  0  0  0  0  0  0  0  0
    5.5521   -1.0220   -1.8366 H   0  0  0  0  0  0  0  0  0  0  0  0
    5.1087   -3.4846   -1.8068 H   0  0  0  0  0  0  0  0  0  0  0  0
    3.8142   -2.6060   -2.6269 H   0  0  0  0  0  0  0  0  0  0  0  0
    3.7057   -3.7193    0.1518 H   0  0  0  0  0  0  0  0  0  0  0  0
    1.7325   -3.4967    1.1988 H   0  0  0  0  0  0  0  0  0  0  0  0
    1.0379   -4.7992    0.2168 H   0  0  0  0  0  0  0  0  0  0  0  0
    0.0124   -1.9083    0.2547 H   0  0  0  0  0  0  0  0  0  0  0  0
   -0.7467   -3.2763   -0.5908 H   0  0  0  0  0  0  0  0  0  0  0  0
   -0.4095   -3.2170    2.4143 H   0  0  0  0  0  0  0  0  0  0  0  0
   -2.4256   -0.8314    3.5187 H   0  0  0  0  0  0  0  0  0  0  0  0
   -2.5297    1.5864    3.2554 H   0  0  0  0  0  0  0  0  0  0  0  0
   -2.8361   -1.3428   -0.7439 H   0  0  0  0  0  0  0  0  0  0  0  0
   -2.2471    3.8083   -2.9946 H   0  0  0  0  0  0  0  0  0  0  0  0
   -3.9993    3.9711   -2.7479 H   0  0  0  0  0  0  0  0  0  0  0  0
   -3.3480    2.5202   -3.5447 H   0  0  0  0  0  0  0  0  0  0  0  0
   -1.7306    3.6926    2.5414 H   0  0  0  0  0  0  0  0  0  0  0  0
   -3.5184    3.6410    2.7281 H   0  0  0  0  0  0  0  0  0  0  0  0
   -2.7526    4.9014    1.7570 H   0  0  0  0  0  0  0  0  0  0  0  0
    4.5726   -0.1611    1.2973 H   0  0  0  0  0  0  0  0  0  0  0  0
    2.9291    1.5552    1.9107 H   0  0  0  0  0  0  0  0  0  0  0  0
  1  2  1  0
  2  3  2  0
  3  4  1  0
  4  5  2  0
  5  6  1  0
  6  7  1  0
  7  8  1  0
  8  9  1  0
  9 10  2  0
  9 11  1  0
 11 12  1  0
 12 13  1  0
 13 14  1  0
 14 15  2  0
 14 16  2  0
 14 17  1  0
 17 18  2  0
 18 19  1  0
 19 20  2  0
 20 21  1  0
 21 22  2  0
 21 23  1  0
 23 24  2  0
 23 25  1  0
 25 26  1  0
 25 27  1  0
 27 28  2  0
 27 29  1  0
 29 30  1  0
  5 31  1  0
 31 32  2  0
 32  2  1  0
 22 17  1  0
 29 20  1  0
  1 33  1  0
  1 34  1  0
  1 35  1  0
  3 36  1  0
  4 37  1  0
  6 38  1  0
  6 39  1  0
  7 40  1  0
  7 41  1  0
  8 42  1  0
 11 43  1  0
 11 44  1  0
 12 45  1  0
 12 46  1  0
 13 47  1  0
 18 48  1  0
 19 49  1  0
 22 50  1  0
 26 51  1  0
 26 52  1  0
 26 53  1  0
 30 54  1  0
 30 55  1  0
 30 56  1  0
 31 57  1  0
 32 58  1  0
M  END
$$$$
