
     RDKit          3D

 43 45  0  0  0  0  0  0  0  0999 V2000
   -1.0965    4.5818   -2.7642 C   0  0  0  0  0  0  0  0  0  0  0  0
   -2.0393    3.4715   -2.4060 C   0  0  0  0  0  0  0  0  0  0  0  0
   -2.4373    2.6278   -3.1973 O   0  0  0  0  0  0  0  0  0  0  0  0
   -2.3664    3.5860   -1.0603 O   0  0  0  0  0  0  0  0  0  0  0  0
   -3.2070    2.5581   -0.6164 C   0  0  0  0  0  0  0  0  0  0  0  0
   -4.5862    2.7162   -0.7765 C   0  0  0  0  0  0  0  0  0  0  0  0
   -5.4461    1.7236   -0.3124 C   0  0  0  0  0  0  0  0  0  0  0  0
   -4.9275    0.5938    0.3205 C   0  0  0  0  0  0  0  0  0  0  0  0
   -3.5462    0.4528    0.4936 C   0  0  0  0  0  0  0  0  0  0  0  0
   -2.6626    1.4341    0.0236 C   0  0  0  0  0  0  0  0  0  0  0  0
   -1.2136    1.3179    0.2484 C   0  0  0  0  0  0  0  0  0  0  0  0
   -0.5215    0.1974   -0.0148 C   0  0  0  0  0  0  0  0  0  0  0  0
    0.9180    0.0092    0.1979 C   0  0  0  0  0  0  0  0  0  0  0  0
    1.8361    1.0490    0.1775 C   0  0  0  0  0  0  0  0  0  0  0  0
    3.1835    0.7537    0.3623 C   0  0  0  0  0  0  0  0  0  0  0  0
    3.5877   -0.5711    0.5580 C   0  0  0  0  0  0  0  0  0  0  0  0
    4.9440   -0.9063    0.7402 C   0  0  0  0  0  0  0  0  0  0  0  0
    5.3327   -2.2340    0.9195 C   0  0  0  0  0  0  0  0  0  0  0  0
    4.3702   -3.2350    0.9257 C   0  0  0  0  0  0  0  0  0  0  0  0
    3.0265   -2.8856    0.7643 C   0  0  0  0  0  0  0  0  0  0  0  0
    2.0839   -3.9243    0.7511 O   0  0  0  0  0  0  0  0  0  0  0  0
    1.4107   -4.0228    1.9609 C   0  0  0  0  0  0  0  0  0  0  0  0
    0.2675   -4.9799    1.7987 C   0  0  0  0  0  0  0  0  0  0  0  0
    1.7038   -3.4762    3.0168 O   0  0  0  0  0  0  0  0  0  0  0  0
    2.5950   -1.5706    0.5602 C   0  0  0  0  0  0  0  0  0  0  0  0
    1.2870   -1.2806    0.3677 N   0  0  0  0  0  0  0  0  0  0  0  0
   -0.1888    4.5062   -2.1601 H   0  0  0  0  0  0  0  0  0  0  0  0
   -0.8199    4.4958   -3.8190 H   0  0  0  0  0  0  0  0  0  0  0  0
   -1.5845    5.5472   -2.6089 H   0  0  0  0  0  0  0  0  0  0  0  0
   -4.9866    3.5986   -1.2659 H   0  0  0  0  0  0  0  0  0  0  0  0
   -6.5201    1.8297   -0.4416 H   0  0  0  0  0  0  0  0  0  0  0  0
   -5.5990   -0.1786    0.6877 H   0  0  0  0  0  0  0  0  0  0  0  0
   -3.1691   -0.4269    1.0110 H   0  0  0  0  0  0  0  0  0  0  0  0
   -0.7343    2.2082    0.6443 H   0  0  0  0  0  0  0  0  0  0  0  0
   -1.0252   -0.6849   -0.4035 H   0  0  0  0  0  0  0  0  0  0  0  0
    1.5290    2.0748    0.0110 H   0  0  0  0  0  0  0  0  0  0  0  0
    3.9116    1.5606    0.3480 H   0  0  0  0  0  0  0  0  0  0  0  0
    5.7069   -0.1303    0.7393 H   0  0  0  0  0  0  0  0  0  0  0  0
    6.3819   -2.4831    1.0557 H   0  0  0  0  0  0  0  0  0  0  0  0
    4.6550   -4.2732    1.0649 H   0  0  0  0  0  0  0  0  0  0  0  0
   -0.3732   -4.6567    0.9741 H   0  0  0  0  0  0  0  0  0  0  0  0
   -0.3309   -4.9873    2.7142 H   0  0  0  0  0  0  0  0  0  0  0  0
    0.6508   -5.9869    1.6172 H   0  0  0  0  0  0  0  0  0  0  0  0
  1  2  1  0
  2  3  2  0
  2  4  1  0
  4  5  1  0
  5  6  2  0
  6  7  1  0
  7  8  2  0
  8  9  1  0
  9 10  2  0
 10 11  1  0
 11 12  2  0
 12 13  1  0
 13 14  2  0
 14 15  1  0
 15 16  2  0
 16 17  1  0
 17 18  2  0
 18 19  1  0
 19 20  2  0
 20 21  1  0
 21 22  1  0
 22 23  1  0
 22 24  2  0
 20 25  1  0
 25 26  2  0
 10  5  1  0
 26 13  1  0
 25 16  1  0
  1 27  1  0
  1 28  1  0
  1 29  1  0
  6 30  1  0
  7 31  1  0
  8 32  1  0
  9 33  1  0
 11 34  1  0
 12 35  1  0
 14 36  1  0
 15 37  1  0
 17 38  1  0
 18 39  1  0
 19 40  1  0
 23 41  1  0
 23 42  1  0
 23 43  1  0
M  END
$$$$
