
     RDKit          3D

 55 58  0  0  0  0  0  0  0  0999 V2000
    8.2667    1.9916   -1.6936 C   0  0  0  0  0  0  0  0  0  0  0  0
    7.7306    1.2210   -0.6281 O   0  0  0  0  0  0  0  0  0  0  0  0
    6.3702    1.0448   -0.5858 C   0  0  0  0  0  0  0  0  0  0  0  0
    5.4733    1.5941   -1.5083 C   0  0  0  0  0  0  0  0  0  0  0  0
    4.0997    1.3607   -1.3881 C   0  0  0  0  0  0  0  0  0  0  0  0
    3.6125    0.5654   -0.3474 C   0  0  0  0  0  0  0  0  0  0  0  0
    2.1556    0.2907   -0.1776 C   0  0  0  0  0  0  0  0  0  0  0  0
    1.3381    0.1583   -1.4267 C   0  0  0  0  0  0  0  0  0  0  0  0
    0.0226   -0.0825   -1.2602 C   0  0  0  0  0  0  0  0  0  0  0  0
   -0.9360   -0.2427   -2.3774 C   0  0  0  0  0  0  0  0  0  0  0  0
   -1.9113    0.6991   -2.3682 F   0  0  0  0  0  0  0  0  0  0  0  0
   -1.5319   -1.4605   -2.3934 F   0  0  0  0  0  0  0  0  0  0  0  0
   -0.3124   -0.1181   -3.5839 F   0  0  0  0  0  0  0  0  0  0  0  0
   -0.4970   -0.2034    0.0226 N   0  0  0  0  0  0  0  0  0  0  0  0
   -1.7765   -0.4445    0.3907 N   0  0  0  0  0  0  0  0  0  0  0  0
   -1.7753   -0.4721    1.7345 C   0  0  0  0  0  0  0  0  0  0  0  0
   -2.9668   -0.7605    2.5633 C   0  0  0  0  0  0  0  0  0  0  0  0
   -2.8120   -1.1874    3.7099 O   0  0  0  0  0  0  0  0  0  0  0  0
   -4.2524   -0.5686    2.0330 N   0  0  0  0  0  0  0  0  0  0  0  0
   -5.3718   -1.0250    2.8415 C   0  0  0  0  0  0  0  0  0  0  0  0
   -4.5614    0.4424    1.0186 C   0  0  0  0  0  0  0  0  0  0  0  0
   -5.3788   -0.0929   -0.1345 C   0  0  0  0  0  0  0  0  0  0  0  0
   -6.5872    0.5219   -0.4953 C   0  0  0  0  0  0  0  0  0  0  0  0
   -7.3359    0.0408   -1.5714 C   0  0  0  0  0  0  0  0  0  0  0  0
   -6.8825   -1.0547   -2.3032 C   0  0  0  0  0  0  0  0  0  0  0  0
   -5.6798   -1.6687   -1.9613 C   0  0  0  0  0  0  0  0  0  0  0  0
   -4.9312   -1.1894   -0.8852 C   0  0  0  0  0  0  0  0  0  0  0  0
   -0.4656   -0.2697    2.2340 C   0  0  0  0  0  0  0  0  0  0  0  0
    0.3362   -0.0853    1.1353 C   0  0  0  0  0  0  0  0  0  0  0  0
    1.6736    0.1598    1.0264 N   0  0  0  0  0  0  0  0  0  0  0  0
    4.5049    0.0277    0.5904 C   0  0  0  0  0  0  0  0  0  0  0  0
    5.8802    0.2606    0.4783 C   0  0  0  0  0  0  0  0  0  0  0  0
    6.8225   -0.2360    1.3450 O   0  0  0  0  0  0  0  0  0  0  0  0
    6.3593   -0.9263    2.4972 C   0  0  0  0  0  0  0  0  0  0  0  0
    8.0471    1.5326   -2.6632 H   0  0  0  0  0  0  0  0  0  0  0  0
    9.3544    2.0144   -1.5756 H   0  0  0  0  0  0  0  0  0  0  0  0
    7.9065    3.0247   -1.6533 H   0  0  0  0  0  0  0  0  0  0  0  0
    5.8121    2.2183   -2.3288 H   0  0  0  0  0  0  0  0  0  0  0  0
    3.4319    1.8320   -2.1035 H   0  0  0  0  0  0  0  0  0  0  0  0
    1.8009    0.2279   -2.4028 H   0  0  0  0  0  0  0  0  0  0  0  0
   -6.2154   -1.2941    2.2008 H   0  0  0  0  0  0  0  0  0  0  0  0
   -5.0969   -1.9043    3.4316 H   0  0  0  0  0  0  0  0  0  0  0  0
   -5.6668   -0.2202    3.5216 H   0  0  0  0  0  0  0  0  0  0  0  0
   -5.1219    1.2309    1.5389 H   0  0  0  0  0  0  0  0  0  0  0  0
   -3.6747    0.9475    0.6321 H   0  0  0  0  0  0  0  0  0  0  0  0
   -6.9564    1.3810    0.0602 H   0  0  0  0  0  0  0  0  0  0  0  0
   -8.2723    0.5226   -1.8405 H   0  0  0  0  0  0  0  0  0  0  0  0
   -7.4642   -1.4284   -3.1415 H   0  0  0  0  0  0  0  0  0  0  0  0
   -5.3200   -2.5205   -2.5323 H   0  0  0  0  0  0  0  0  0  0  0  0
   -3.9926   -1.6784   -0.6331 H   0  0  0  0  0  0  0  0  0  0  0  0
   -0.1522   -0.2632    3.2685 H   0  0  0  0  0  0  0  0  0  0  0  0
    4.1026   -0.5765    1.3979 H   0  0  0  0  0  0  0  0  0  0  0  0
    5.7139   -0.2885    3.1101 H   0  0  0  0  0  0  0  0  0  0  0  0
    5.8514   -1.8556    2.2203 H   0  0  0  0  0  0  0  0  0  0  0  0
    7.2324   -1.1927    3.1006 H   0  0  0  0  0  0  0  0  0  0  0  0
  1  2  1  0
  2  3  1  0
  3  4  2  0
  4  5  1  0
  5  6  2  0
  6  7  1  0
  7  8  1  0
  8  9  2  0
  9 10  1  0
 10 11  1  0
 10 12  1  0
 10 13  1  0
  9 14  1  0
 14 15  1  0
 15 16  2  0
 16 17  1  0
 17 18  2  0
 17 19  1  0
 19 20  1  0
 19 21  1  0
 21 22  1  0
 22 23  2  0
 23 24  1  0
 24 25  2  0
 25 26  1  0
 26 27  2  0
 16 28  1  0
 28 29  2  0
 29 30  1  0
  6 31  1  0
 31 32  2  0
 32 33  1  0
 33 34  1  0
 32  3  1  0
 30  7  2  0
 29 14  1  0
 27 22  1  0
  1 35  1  0
  1 36  1  0
  1 37  1  0
  4 38  1  0
  5 39  1  0
  8 40  1  0
 20 41  1  0
 20 42  1  0
 20 43  1  0
 21 44  1  0
 21 45  1  0
 23 46  1  0
 24 47  1  0
 25 48  1  0
 26 49  1  0
 27 50  1  0
 28 51  1  0
 31 52  1  0
 34 53  1  0
 34 54  1  0
 34 55  1  0
M  END
$$$$
