
     RDKit          3D

 42 45  0  0  0  0  0  0  0  0999 V2000
    3.3697    2.0502   -1.2358 O   0  0  0  0  0  0  0  0  0  0  0  0
    3.1554    1.0493   -0.5564 C   0  0  0  0  0  0  0  0  0  0  0  0
    4.2710    0.5181    0.2571 C   0  0  0  0  0  0  0  0  0  0  0  0
    5.5016    0.2735   -0.3660 C   0  0  0  0  0  0  0  0  0  0  0  0
    6.5780   -0.2074    0.3823 C   0  0  0  0  0  0  0  0  0  0  0  0
    6.4256   -0.4277    1.7512 C   0  0  0  0  0  0  0  0  0  0  0  0
    5.2044   -0.1558    2.3621 C   0  0  0  0  0  0  0  0  0  0  0  0
    5.0691   -0.3560    3.6794 F   0  0  0  0  0  0  0  0  0  0  0  0
    4.1240    0.3230    1.6320 C   0  0  0  0  0  0  0  0  0  0  0  0
    1.9236    0.4022   -0.5206 N   0  0  0  0  0  0  0  0  0  0  0  0
    0.8197    0.9939   -1.2794 C   0  0  0  0  0  0  0  0  0  0  0  0
   -0.5554    0.5352   -0.7758 C   0  0  0  0  0  0  0  0  0  0  0  0
   -0.6799   -0.9277   -0.7027 N   0  0  0  0  0  0  0  0  0  0  0  0
   -1.8773   -1.6236   -0.9072 C   0  0  0  0  0  0  0  0  0  0  0  0
   -1.8805   -2.8326   -1.1390 O   0  0  0  0  0  0  0  0  0  0  0  0
   -3.1349   -0.8616   -0.8065 C   0  0  0  0  0  0  0  0  0  0  0  0
   -3.5349    0.0079    0.2387 C   0  0  0  0  0  0  0  0  0  0  0  0
   -4.7860    0.4571   -0.1062 C   0  0  0  0  0  0  0  0  0  0  0  0
   -5.6491    1.3144    0.5183 N   0  0  0  0  0  0  0  0  0  0  0  0
   -6.7859    1.5055   -0.0872 C   0  0  0  0  0  0  0  0  0  0  0  0
   -7.2136    0.8847   -1.3789 C   0  0  0  0  0  0  0  0  0  0  0  0
   -8.8750    1.2856   -2.0811 Br  0  0  0  0  0  0  0  0  0  0  0  0
   -6.3178    0.0617   -1.9381 C   0  0  0  0  0  0  0  0  0  0  0  0
   -5.0965   -0.1657   -1.3171 N   0  0  0  0  0  0  0  0  0  0  0  0
   -4.0892   -0.9553   -1.7491 N   0  0  0  0  0  0  0  0  0  0  0  0
    0.5667   -1.6940   -0.7132 C   0  0  0  0  0  0  0  0  0  0  0  0
    1.7141   -0.9600   -0.0068 C   0  0  0  0  0  0  0  0  0  0  0  0
    5.6200    0.4630   -1.4312 H   0  0  0  0  0  0  0  0  0  0  0  0
    7.5334   -0.4010   -0.0993 H   0  0  0  0  0  0  0  0  0  0  0  0
    7.2536   -0.7976    2.3485 H   0  0  0  0  0  0  0  0  0  0  0  0
    3.1940    0.5530    2.1401 H   0  0  0  0  0  0  0  0  0  0  0  0
    0.9560    0.6931   -2.3256 H   0  0  0  0  0  0  0  0  0  0  0  0
    0.8862    2.0868   -1.2393 H   0  0  0  0  0  0  0  0  0  0  0  0
   -0.7118    0.9124    0.2413 H   0  0  0  0  0  0  0  0  0  0  0  0
   -1.3352    0.9488   -1.4227 H   0  0  0  0  0  0  0  0  0  0  0  0
   -2.9914    0.2644    1.1361 H   0  0  0  0  0  0  0  0  0  0  0  0
   -7.5159    2.1879    0.3804 H   0  0  0  0  0  0  0  0  0  0  0  0
   -6.4770   -0.4620   -2.8709 H   0  0  0  0  0  0  0  0  0  0  0  0
    0.8240   -1.8712   -1.7648 H   0  0  0  0  0  0  0  0  0  0  0  0
    0.4056   -2.6706   -0.2433 H   0  0  0  0  0  0  0  0  0  0  0  0
    1.4758   -0.8591    1.0582 H   0  0  0  0  0  0  0  0  0  0  0  0
    2.6359   -1.5425   -0.1007 H   0  0  0  0  0  0  0  0  0  0  0  0
  1  2  2  0
  2  3  1  0
  3  4  2  0
  4  5  1  0
  5  6  2  0
  6  7  1  0
  7  8  1  0
  7  9  2  0
  2 10  1  0
 10 11  1  0
 11 12  1  0
 12 13  1  0
 13 14  1  0
 14 15  2  0
 14 16  1  0
 16 17  1  0
 17 18  2  0
 18 19  1  0
 19 20  2  0
 20 21  1  0
 21 22  1  0
 21 23  2  0
 23 24  1  0
 24 25  1  0
 13 26  1  0
 26 27  1  0
  9  3  1  0
 27 10  1  0
 25 16  2  0
 24 18  1  0
  4 28  1  0
  5 29  1  0
  6 30  1  0
  9 31  1  0
 11 32  1  0
 11 33  1  0
 12 34  1  0
 12 35  1  0
 17 36  1  0
 20 37  1  0
 23 38  1  0
 26 39  1  0
 26 40  1  0
 27 41  1  0
 27 42  1  0
M  END
$$$$
