
     RDKit          3D

 67 72  0  0  0  0  0  0  0  0999 V2000
   -4.8329   -4.9722    0.0435 C   0  0  0  0  0  0  0  0  0  0  0  0
   -3.9118   -3.9550    0.6512 C   0  0  0  0  0  0  0  0  0  0  0  0
   -3.8386   -3.7637    2.0436 C   0  0  0  0  0  0  0  0  0  0  0  0
   -4.8066   -4.6999    3.1312 Cl  0  0  0  0  0  0  0  0  0  0  0  0
   -2.9880   -2.7942    2.6102 C   0  0  0  0  0  0  0  0  0  0  0  0
   -2.1789   -1.9903    1.8046 C   0  0  0  0  0  0  0  0  0  0  0  0
   -2.2322   -2.1728    0.4302 C   0  0  0  0  0  0  0  0  0  0  0  0
   -3.1053   -3.1261   -0.1216 C   0  0  0  0  0  0  0  0  0  0  0  0
   -3.0467   -3.0668   -1.5108 N   0  0  0  0  0  0  0  0  0  0  0  0
   -2.1545   -2.0913   -1.9556 C   0  0  0  0  0  0  0  0  0  0  0  0
   -1.9614   -1.8195   -3.1317 O   0  0  0  0  0  0  0  0  0  0  0  0
   -1.4980   -1.4680   -0.6849 C   0  0  1  0  0  0  0  0  0  0  0  0
   -1.7328   -0.0116   -0.5700 C   0  0  0  0  0  0  0  0  0  0  0  0
   -0.5408    0.6891   -0.7405 C   0  0  0  0  0  0  0  0  0  0  0  0
   -0.7980    2.0317   -0.6681 C   0  0  0  0  0  0  0  0  0  0  0  0
    0.0204    3.0612   -0.8696 O   0  0  0  0  0  0  0  0  0  0  0  0
   -2.1732    2.1868   -0.3860 N   0  0  0  0  0  0  0  0  0  0  0  0
   -2.8649    3.4350   -0.1922 C   0  0  0  0  0  0  0  0  0  0  0  0
   -2.1691    4.5845    0.2194 C   0  0  0  0  0  0  0  0  0  0  0  0
   -2.8389    5.7992    0.4006 C   0  0  0  0  0  0  0  0  0  0  0  0
   -4.2049    5.8713    0.1725 C   0  0  0  0  0  0  0  0  0  0  0  0
   -4.8448    7.0357    0.3434 F   0  0  0  0  0  0  0  0  0  0  0  0
   -4.9153    4.7512   -0.2315 C   0  0  0  0  0  0  0  0  0  0  0  0
   -4.2486    3.5343   -0.4128 C   0  0  0  0  0  0  0  0  0  0  0  0
   -2.7411    0.8923   -0.3402 C   0  0  0  0  0  0  0  0  0  0  0  0
   -4.0233    0.6784   -0.0544 O   0  0  0  0  0  0  0  0  0  0  0  0
    0.6039   -0.2199   -0.9738 C   0  0  1  0  0  0  0  0  0  0  0  0
    1.8066    0.0675   -0.0511 C   0  0  0  0  0  0  0  0  0  0  0  0
    2.7643   -1.0390   -0.0385 N   0  0  0  0  0  0  0  0  0  0  0  0
    4.1346   -0.8771   -0.0301 C   0  0  0  0  0  0  0  0  0  0  0  0
    4.9196   -1.8157   -0.0110 O   0  0  0  0  0  0  0  0  0  0  0  0
    4.4959    0.4324   -0.0546 O   0  0  0  0  0  0  0  0  0  0  0  0
    5.8924    0.8264   -0.0909 C   0  0  0  0  0  0  0  0  0  0  0  0
    6.6428    0.3560    1.1604 C   0  0  0  0  0  0  0  0  0  0  0  0
    5.8599    2.3630   -0.0946 C   0  0  0  0  0  0  0  0  0  0  0  0
    6.5681    0.3481   -1.3815 C   0  0  0  0  0  0  0  0  0  0  0  0
    2.2129   -2.3921   -0.0275 C   0  0  0  0  0  0  0  0  0  0  0  0
    0.6853   -2.4147    0.1835 C   0  0  0  0  0  0  0  0  0  0  0  0
   -0.0104   -1.5856   -0.7998 N   0  0  0  0  0  0  0  0  0  0  0  0
   -4.6806   -5.9551    0.5022 H   0  0  0  0  0  0  0  0  0  0  0  0
   -4.6604   -5.1042   -1.0291 H   0  0  0  0  0  0  0  0  0  0  0  0
   -5.8752   -4.6650    0.1786 H   0  0  0  0  0  0  0  0  0  0  0  0
   -2.9604   -2.6631    3.6912 H   0  0  0  0  0  0  0  0  0  0  0  0
   -1.5353   -1.2365    2.2514 H   0  0  0  0  0  0  0  0  0  0  0  0
   -3.5878   -3.6186   -2.1604 H   0  0  0  0  0  0  0  0  0  0  0  0
    0.8313    2.7328   -1.2957 H   0  0  0  0  0  0  0  0  0  0  0  0
   -1.1058    4.5620    0.4404 H   0  0  0  0  0  0  0  0  0  0  0  0
   -2.2995    6.6841    0.7212 H   0  0  0  0  0  0  0  0  0  0  0  0
   -5.9827    4.8289   -0.4142 H   0  0  0  0  0  0  0  0  0  0  0  0
   -4.8346    2.6914   -0.7646 H   0  0  0  0  0  0  0  0  0  0  0  0
   -4.1872   -0.2807   -0.0522 H   0  0  0  0  0  0  0  0  0  0  0  0
    0.9278   -0.1452   -2.0195 H   0  0  0  0  0  0  0  0  0  0  0  0
    2.2866    1.0032   -0.3535 H   0  0  0  0  0  0  0  0  0  0  0  0
    1.4780    0.2048    0.9870 H   0  0  0  0  0  0  0  0  0  0  0  0
    6.0771    0.5997    2.0665 H   0  0  0  0  0  0  0  0  0  0  0  0
    6.7925   -0.7276    1.1652 H   0  0  0  0  0  0  0  0  0  0  0  0
    7.6327    0.8202    1.2316 H   0  0  0  0  0  0  0  0  0  0  0  0
    5.2958    2.7380   -0.9579 H   0  0  0  0  0  0  0  0  0  0  0  0
    5.3491    2.7466    0.7985 H   0  0  0  0  0  0  0  0  0  0  0  0
    6.8675    2.7918   -0.1247 H   0  0  0  0  0  0  0  0  0  0  0  0
    7.5779    0.7627   -1.4792 H   0  0  0  0  0  0  0  0  0  0  0  0
    6.6521   -0.7407   -1.4199 H   0  0  0  0  0  0  0  0  0  0  0  0
    5.9825    0.6458   -2.2594 H   0  0  0  0  0  0  0  0  0  0  0  0
    2.7095   -2.9655    0.7671 H   0  0  0  0  0  0  0  0  0  0  0  0
    2.4744   -2.8628   -0.9854 H   0  0  0  0  0  0  0  0  0  0  0  0
    0.3413   -3.4521    0.1115 H   0  0  0  0  0  0  0  0  0  0  0  0
    0.4873   -2.0635    1.2015 H   0  0  0  0  0  0  0  0  0  0  0  0
  1  2  1  0
  2  3  2  0
  3  4  1  0
  3  5  1  0
  5  6  2  0
  6  7  1  0
  7  8  2  0
  8  9  1  0
  9 10  1  0
 10 11  2  0
 10 12  1  0
 12 13  1  0
 13 14  1  0
 14 15  2  0
 15 16  1  0
 15 17  1  0
 17 18  1  0
 18 19  2  0
 19 20  1  0
 20 21  2  0
 21 22  1  0
 21 23  1  0
 23 24  2  0
 17 25  1  0
 25 26  1  0
 14 27  1  0
 27 28  1  0
 28 29  1  0
 29 30  1  0
 30 31  2  0
 30 32  1  0
 32 33  1  0
 33 34  1  0
 33 35  1  0
 33 36  1  0
 29 37  1  0
 37 38  1  0
 38 39  1  0
  8  2  1  0
 12 39  1  6
 12  7  1  0
 25 13  2  0
 39 27  1  0
 24 18  1  0
  1 40  1  0
  1 41  1  0
  1 42  1  0
  5 43  1  0
  6 44  1  0
  9 45  1  0
 16 46  1  0
 19 47  1  0
 20 48  1  0
 23 49  1  0
 24 50  1  0
 26 51  1  0
 27 52  1  6
 28 53  1  0
 28 54  1  0
 34 55  1  0
 34 56  1  0
 34 57  1  0
 35 58  1  0
 35 59  1  0
 35 60  1  0
 36 61  1  0
 36 62  1  0
 36 63  1  0
 37 64  1  0
 37 65  1  0
 38 66  1  0
 38 67  1  0
M  END
$$$$
