
     RDKit          3D

 68 71  0  0  0  0  0  0  0  0999 V2000
    6.5881   -0.1508    4.9516 C   0  0  0  0  0  0  0  0  0  0  0  0
    5.8977    0.1875    3.6937 C   0  0  0  0  0  0  0  0  0  0  0  0
    4.8333    0.9886    3.3715 C   0  0  0  0  0  0  0  0  0  0  0  0
    4.7232    0.8749    1.9635 C   0  0  0  0  0  0  0  0  0  0  0  0
    3.8528    1.5079    1.1073 N   0  0  0  0  0  0  0  0  0  0  0  0
    2.8696    2.3969    1.4777 C   0  0  0  0  0  0  0  0  0  0  0  0
    2.5620    2.7097    2.6279 O   0  0  0  0  0  0  0  0  0  0  0  0
    2.1279    3.0039    0.3015 C   0  0  0  0  0  0  0  0  0  0  0  0
    0.7609    2.3482    0.1525 C   0  0  0  0  0  0  0  0  0  0  0  0
    0.8850    0.9183   -0.3350 C   0  0  0  0  0  0  0  0  0  0  0  0
    1.9335    0.5218   -0.8468 O   0  0  0  0  0  0  0  0  0  0  0  0
   -0.2276    0.0958   -0.1895 N   0  0  0  0  0  0  0  0  0  0  0  0
    0.0035   -1.3500   -0.2262 C   0  0  0  0  0  0  0  0  0  0  0  0
    0.3447   -1.8382    1.1395 C   0  0  0  0  0  0  0  0  0  0  0  0
   -0.2974   -2.6641    2.0408 C   0  0  0  0  0  0  0  0  0  0  0  0
    0.5296   -2.7223    3.1891 C   0  0  0  0  0  0  0  0  0  0  0  0
    1.6309   -1.9456    2.9094 C   0  0  0  0  0  0  0  0  0  0  0  0
    1.5245   -1.4041    1.6698 O   0  0  0  0  0  0  0  0  0  0  0  0
   -1.6192    0.6188   -0.1022 C   0  0  0  0  0  0  0  0  0  0  0  0
   -2.2574    0.8684   -1.4995 C   0  0  0  0  0  0  0  0  0  0  0  0
   -3.3840    1.3454   -1.6393 O   0  0  0  0  0  0  0  0  0  0  0  0
   -1.4564    0.5572   -2.5832 N   0  0  0  0  0  0  0  0  0  0  0  0
   -1.8902    0.7605   -3.9465 C   0  0  0  0  0  0  0  0  0  0  0  0
   -0.7520    0.6087   -4.9482 C   0  0  0  0  0  0  0  0  0  0  0  0
   -1.4915    0.4322   -6.2631 C   0  0  0  0  0  0  0  0  0  0  0  0
   -2.6636   -0.4799   -5.9087 C   0  0  0  0  0  0  0  0  0  0  0  0
   -2.9247   -0.2705   -4.4144 C   0  0  0  0  0  0  0  0  0  0  0  0
   -2.5071   -0.0910    0.9239 C   0  0  0  0  0  0  0  0  0  0  0  0
   -2.3431    0.3252    2.2665 C   0  0  0  0  0  0  0  0  0  0  0  0
   -3.1156   -0.2086    3.2988 C   0  0  0  0  0  0  0  0  0  0  0  0
   -4.0678   -1.1774    3.0175 C   0  0  0  0  0  0  0  0  0  0  0  0
   -4.2350   -1.6230    1.7098 C   0  0  0  0  0  0  0  0  0  0  0  0
   -3.4529   -1.1090    0.6529 C   0  0  0  0  0  0  0  0  0  0  0  0
   -3.7555   -1.6465   -0.7179 C   0  0  0  0  0  0  0  0  0  0  0  0
    5.6515    0.0394    1.4726 N   0  0  0  0  0  0  0  0  0  0  0  0
    6.3908   -0.3833    2.5601 O   0  0  0  0  0  0  0  0  0  0  0  0
    6.4043   -1.1955    5.2261 H   0  0  0  0  0  0  0  0  0  0  0  0
    7.6683   -0.0038    4.8482 H   0  0  0  0  0  0  0  0  0  0  0  0
    6.2426    0.4921    5.7706 H   0  0  0  0  0  0  0  0  0  0  0  0
    4.2310    1.5893    4.0449 H   0  0  0  0  0  0  0  0  0  0  0  0
    3.9181    1.1888    0.1424 H   0  0  0  0  0  0  0  0  0  0  0  0
    2.7216    2.9397   -0.6152 H   0  0  0  0  0  0  0  0  0  0  0  0
    2.0045    4.0724    0.5125 H   0  0  0  0  0  0  0  0  0  0  0  0
    0.1631    2.9067   -0.5741 H   0  0  0  0  0  0  0  0  0  0  0  0
    0.2539    2.3529    1.1214 H   0  0  0  0  0  0  0  0  0  0  0  0
   -0.8684   -1.8653   -0.6289 H   0  0  0  0  0  0  0  0  0  0  0  0
    0.8356   -1.5810   -0.8994 H   0  0  0  0  0  0  0  0  0  0  0  0
   -1.2567   -3.1396    1.8958 H   0  0  0  0  0  0  0  0  0  0  0  0
    0.3484   -3.2596    4.1102 H   0  0  0  0  0  0  0  0  0  0  0  0
    2.5225   -1.6787    3.4603 H   0  0  0  0  0  0  0  0  0  0  0  0
   -1.5547    1.6523    0.2580 H   0  0  0  0  0  0  0  0  0  0  0  0
   -0.5385    0.1589   -2.4067 H   0  0  0  0  0  0  0  0  0  0  0  0
   -2.3221    1.7675   -4.0251 H   0  0  0  0  0  0  0  0  0  0  0  0
   -0.1520   -0.2801   -4.7256 H   0  0  0  0  0  0  0  0  0  0  0  0
   -0.0826    1.4731   -4.9550 H   0  0  0  0  0  0  0  0  0  0  0  0
   -0.8553    0.0092   -7.0488 H   0  0  0  0  0  0  0  0  0  0  0  0
   -1.8617    1.4025   -6.6179 H   0  0  0  0  0  0  0  0  0  0  0  0
   -2.3893   -1.5241   -6.0968 H   0  0  0  0  0  0  0  0  0  0  0  0
   -3.5487   -0.2611   -6.5119 H   0  0  0  0  0  0  0  0  0  0  0  0
   -2.8178   -1.2257   -3.8881 H   0  0  0  0  0  0  0  0  0  0  0  0
   -3.9445    0.0870   -4.2310 H   0  0  0  0  0  0  0  0  0  0  0  0
   -1.6067    1.0908    2.5188 H   0  0  0  0  0  0  0  0  0  0  0  0
   -2.9810    0.1434    4.3163 H   0  0  0  0  0  0  0  0  0  0  0  0
   -4.6843   -1.5807    3.8143 H   0  0  0  0  0  0  0  0  0  0  0  0
   -4.9977   -2.3755    1.5118 H   0  0  0  0  0  0  0  0  0  0  0  0
   -4.5154   -1.0324   -1.2101 H   0  0  0  0  0  0  0  0  0  0  0  0
   -2.8651   -1.6953   -1.3439 H   0  0  0  0  0  0  0  0  0  0  0  0
   -4.1400   -2.6732   -0.6508 H   0  0  0  0  0  0  0  0  0  0  0  0
  1  2  1  0
  2  3  2  0
  3  4  1  0
  4  5  1  0
  5  6  1  0
  6  7  2  0
  6  8  1  0
  8  9  1  0
  9 10  1  0
 10 11  2  0
 10 12  1  0
 12 13  1  0
 13 14  1  0
 14 15  2  0
 15 16  1  0
 16 17  2  0
 17 18  1  0
 12 19  1  0
 19 20  1  0
 20 21  2  0
 20 22  1  0
 22 23  1  0
 23 24  1  0
 24 25  1  0
 25 26  1  0
 26 27  1  0
 19 28  1  0
 28 29  2  0
 29 30  1  0
 30 31  2  0
 31 32  1  0
 32 33  2  0
 33 34  1  0
  4 35  2  0
 35 36  1  0
 36  2  1  0
 18 14  1  0
 27 23  1  0
 33 28  1  0
  1 37  1  0
  1 38  1  0
  1 39  1  0
  3 40  1  0
  5 41  1  0
  8 42  1  0
  8 43  1  0
  9 44  1  0
  9 45  1  0
 13 46  1  0
 13 47  1  0
 15 48  1  0
 16 49  1  0
 17 50  1  0
 19 51  1  0
 22 52  1  0
 23 53  1  0
 24 54  1  0
 24 55  1  0
 25 56  1  0
 25 57  1  0
 26 58  1  0
 26 59  1  0
 27 60  1  0
 27 61  1  0
 29 62  1  0
 30 63  1  0
 31 64  1  0
 32 65  1  0
 34 66  1  0
 34 67  1  0
 34 68  1  0
M  END
$$$$
