
     RDKit          3D

 42 44  0  0  0  0  0  0  0  0999 V2000
   -5.9224    0.7223    3.1457 C   0  0  0  0  0  0  0  0  0  0  0  0
   -5.3114    1.6602    2.2678 O   0  0  0  0  0  0  0  0  0  0  0  0
   -4.2911    1.2023    1.4792 C   0  0  0  0  0  0  0  0  0  0  0  0
   -3.7288   -0.0786    1.5258 C   0  0  0  0  0  0  0  0  0  0  0  0
   -2.6754   -0.4072    0.6667 C   0  0  0  0  0  0  0  0  0  0  0  0
   -2.1220   -1.6598    0.7199 O   0  0  0  0  0  0  0  0  0  0  0  0
   -2.1841    0.5340   -0.2456 C   0  0  0  0  0  0  0  0  0  0  0  0
   -1.1007    0.1853   -1.1838 C   0  0  0  0  0  0  0  0  0  0  0  0
   -1.3157    0.1249   -2.3861 O   0  0  0  0  0  0  0  0  0  0  0  0
    0.2367   -0.0473   -0.5786 C   0  0  0  0  0  0  0  0  0  0  0  0
    1.2782   -0.3674   -1.3617 C   0  0  0  0  0  0  0  0  0  0  0  0
    2.6304   -0.6070   -0.8783 C   0  0  0  0  0  0  0  0  0  0  0  0
    3.4672   -1.3475   -1.6503 C   0  0  0  0  0  0  0  0  0  0  0  0
    4.8921   -1.4822   -1.2257 C   0  0  2  0  0  0  0  0  0  0  0  0
    5.6075   -2.6441   -1.6249 O   0  0  0  0  0  0  0  0  0  0  0  0
    6.6857   -2.6565   -0.6563 C   0  0  0  0  0  0  0  0  0  0  0  0
    6.3712   -1.7848    0.4602 O   0  0  0  0  0  0  0  0  0  0  0  0
    4.9732   -1.6040    0.2861 C   0  0  1  0  0  0  0  0  0  0  0  0
    4.3326   -0.4082    0.9065 C   0  0  0  0  0  0  0  0  0  0  0  0
    3.2007    0.0437    0.3277 C   0  0  0  0  0  0  0  0  0  0  0  0
   -2.7575    1.8084   -0.3021 C   0  0  0  0  0  0  0  0  0  0  0  0
   -2.2359    2.7569   -1.1441 O   0  0  0  0  0  0  0  0  0  0  0  0
   -3.1761    3.1012   -2.1722 C   0  0  0  0  0  0  0  0  0  0  0  0
   -3.7938    2.1458    0.5724 C   0  0  0  0  0  0  0  0  0  0  0  0
   -6.3500   -0.1196    2.5889 H   0  0  0  0  0  0  0  0  0  0  0  0
   -6.7407    1.2343    3.6610 H   0  0  0  0  0  0  0  0  0  0  0  0
   -5.2146    0.3735    3.9051 H   0  0  0  0  0  0  0  0  0  0  0  0
   -4.0909   -0.8218    2.2278 H   0  0  0  0  0  0  0  0  0  0  0  0
   -2.6360   -2.2286    1.3172 H   0  0  0  0  0  0  0  0  0  0  0  0
    0.3226    0.0502    0.4959 H   0  0  0  0  0  0  0  0  0  0  0  0
    1.1196   -0.4724   -2.4346 H   0  0  0  0  0  0  0  0  0  0  0  0
    3.1627   -1.7988   -2.5881 H   0  0  0  0  0  0  0  0  0  0  0  0
    5.4565   -0.6189   -1.6132 H   0  0  0  0  0  0  0  0  0  0  0  0
    7.6080   -2.3057   -1.1316 H   0  0  0  0  0  0  0  0  0  0  0  0
    6.8231   -3.6799   -0.2917 H   0  0  0  0  0  0  0  0  0  0  0  0
    4.4827   -2.5139    0.6690 H   0  0  0  0  0  0  0  0  0  0  0  0
    4.7492    0.0369    1.7999 H   0  0  0  0  0  0  0  0  0  0  0  0
    2.6780    0.9010    0.7418 H   0  0  0  0  0  0  0  0  0  0  0  0
   -3.7252    2.2253   -2.5517 H   0  0  0  0  0  0  0  0  0  0  0  0
   -3.8790    3.8642   -1.8024 H   0  0  0  0  0  0  0  0  0  0  0  0
   -2.6158    3.5317   -3.0083 H   0  0  0  0  0  0  0  0  0  0  0  0
   -4.2107    3.1520    0.5630 H   0  0  0  0  0  0  0  0  0  0  0  0
  1  2  1  0
  2  3  1  0
  3  4  2  0
  4  5  1  0
  5  6  1  0
  5  7  2  0
  7  8  1  0
  8  9  2  0
  8 10  1  0
 10 11  2  0
 11 12  1  0
 12 13  2  0
 13 14  1  0
 14 15  1  0
 15 16  1  0
 16 17  1  0
 17 18  1  0
 18 19  1  0
 19 20  2  0
  7 21  1  0
 21 22  1  0
 22 23  1  0
 21 24  2  0
 24  3  1  0
 20 12  1  0
 18 14  1  0
  1 25  1  0
  1 26  1  0
  1 27  1  0
  4 28  1  0
  6 29  1  0
 10 30  1  0
 11 31  1  0
 13 32  1  0
 14 33  1  6
 16 34  1  0
 16 35  1  0
 18 36  1  1
 19 37  1  0
 20 38  1  0
 23 39  1  0
 23 40  1  0
 23 41  1  0
 24 42  1  0
M  END
$$$$
