
     RDKit          3D

 50 53  0  0  0  0  0  0  0  0999 V2000
   -0.8376    3.3957    3.1851 C   0  0  0  0  0  0  0  0  0  0  0  0
   -1.2055    2.6683    1.9011 C   0  0  0  0  0  0  0  0  0  0  0  0
   -0.6441    1.2546    1.8516 C   0  0  0  0  0  0  0  0  0  0  0  0
    0.0529    0.8221    2.7717 O   0  0  0  0  0  0  0  0  0  0  0  0
   -0.9347    0.4898    0.7271 N   0  0  0  0  0  0  0  0  0  0  0  0
   -1.7797    0.9290   -0.3885 C   0  0  0  0  0  0  0  0  0  0  0  0
   -3.0832    0.1679   -0.4724 C   0  0  0  0  0  0  0  0  0  0  0  0
   -4.0248    0.2277    0.5637 C   0  0  0  0  0  0  0  0  0  0  0  0
   -5.2296   -0.4744    0.4728 C   0  0  0  0  0  0  0  0  0  0  0  0
   -5.5118   -1.2585   -0.6505 C   0  0  0  0  0  0  0  0  0  0  0  0
   -6.8176   -1.9877   -0.7612 C   0  0  0  0  0  0  0  0  0  0  0  0
   -4.5801   -1.3106   -1.6921 C   0  0  0  0  0  0  0  0  0  0  0  0
   -3.3758   -0.6082   -1.6021 C   0  0  0  0  0  0  0  0  0  0  0  0
   -0.3438   -0.8497    0.6274 C   0  0  0  0  0  0  0  0  0  0  0  0
    0.9949   -0.7869   -0.0558 C   0  0  0  0  0  0  0  0  0  0  0  0
    2.1423   -0.5438    0.6045 C   0  0  0  0  0  0  0  0  0  0  0  0
    3.4296   -0.5241   -0.0875 C   0  0  0  0  0  0  0  0  0  0  0  0
    4.6178   -0.2473    0.5974 C   0  0  0  0  0  0  0  0  0  0  0  0
    5.7898   -0.2522   -0.1303 C   0  0  0  0  0  0  0  0  0  0  0  0
    5.8086   -0.5178   -1.4810 C   0  0  0  0  0  0  0  0  0  0  0  0
    4.6575   -0.7944   -2.1872 C   0  0  0  0  0  0  0  0  0  0  0  0
    3.4582   -0.7946   -1.4724 C   0  0  0  0  0  0  0  0  0  0  0  0
    2.2559   -1.0683   -2.1336 N   0  0  0  0  0  0  0  0  0  0  0  0
    1.0321   -1.0870   -1.5185 C   0  0  0  0  0  0  0  0  0  0  0  0
    0.0147   -1.3374   -2.1584 O   0  0  0  0  0  0  0  0  0  0  0  0
    7.0648   -0.4715   -2.0004 O   0  0  0  0  0  0  0  0  0  0  0  0
    7.8355   -0.1478   -0.8238 C   0  0  0  0  0  0  0  0  0  0  0  0
    7.0319   -0.0062    0.3660 O   0  0  0  0  0  0  0  0  0  0  0  0
    0.2489    3.4776    3.2939 H   0  0  0  0  0  0  0  0  0  0  0  0
   -1.2576    4.4063    3.1835 H   0  0  0  0  0  0  0  0  0  0  0  0
   -1.2246    2.8658    4.0618 H   0  0  0  0  0  0  0  0  0  0  0  0
   -2.2960    2.6263    1.8262 H   0  0  0  0  0  0  0  0  0  0  0  0
   -0.8051    3.2338    1.0529 H   0  0  0  0  0  0  0  0  0  0  0  0
   -1.2002    0.8201   -1.3111 H   0  0  0  0  0  0  0  0  0  0  0  0
   -2.0188    1.9932   -0.3208 H   0  0  0  0  0  0  0  0  0  0  0  0
   -3.8277    0.8174    1.4550 H   0  0  0  0  0  0  0  0  0  0  0  0
   -5.9454   -0.4082    1.2892 H   0  0  0  0  0  0  0  0  0  0  0  0
   -7.5660   -1.3449   -1.2347 H   0  0  0  0  0  0  0  0  0  0  0  0
   -7.1826   -2.2878    0.2267 H   0  0  0  0  0  0  0  0  0  0  0  0
   -6.7065   -2.9000   -1.3567 H   0  0  0  0  0  0  0  0  0  0  0  0
   -4.7812   -1.9043   -2.5811 H   0  0  0  0  0  0  0  0  0  0  0  0
   -2.6603   -0.6817   -2.4199 H   0  0  0  0  0  0  0  0  0  0  0  0
   -1.0338   -1.5311    0.1197 H   0  0  0  0  0  0  0  0  0  0  0  0
   -0.2196   -1.2647    1.6357 H   0  0  0  0  0  0  0  0  0  0  0  0
    2.1357   -0.3475    1.6734 H   0  0  0  0  0  0  0  0  0  0  0  0
    4.6309   -0.0347    1.6607 H   0  0  0  0  0  0  0  0  0  0  0  0
    4.6986   -1.0004   -3.2495 H   0  0  0  0  0  0  0  0  0  0  0  0
    2.2538   -1.2728   -3.1237 H   0  0  0  0  0  0  0  0  0  0  0  0
    8.5717   -0.9426   -0.6574 H   0  0  0  0  0  0  0  0  0  0  0  0
    8.3679    0.7937   -1.0016 H   0  0  0  0  0  0  0  0  0  0  0  0
  1  2  1  0
  2  3  1  0
  3  4  2  0
  3  5  1  0
  5  6  1  0
  6  7  1  0
  7  8  2  0
  8  9  1  0
  9 10  2  0
 10 11  1  0
 10 12  1  0
 12 13  2  0
  5 14  1  0
 14 15  1  0
 15 16  2  0
 16 17  1  0
 17 18  2  0
 18 19  1  0
 19 20  2  0
 20 21  1  0
 21 22  2  0
 22 23  1  0
 23 24  1  0
 24 25  2  0
 20 26  1  0
 26 27  1  0
 27 28  1  0
 13  7  1  0
 24 15  1  0
 22 17  1  0
 28 19  1  0
  1 29  1  0
  1 30  1  0
  1 31  1  0
  2 32  1  0
  2 33  1  0
  6 34  1  0
  6 35  1  0
  8 36  1  0
  9 37  1  0
 11 38  1  0
 11 39  1  0
 11 40  1  0
 12 41  1  0
 13 42  1  0
 14 43  1  0
 14 44  1  0
 16 45  1  0
 18 46  1  0
 21 47  1  0
 23 48  1  0
 27 49  1  0
 27 50  1  0
M  END
$$$$
