
     RDKit          3D

 47 48  0  0  0  0  0  0  0  0999 V2000
   -4.9467   -0.4111    0.4936 C   0  0  0  0  0  0  0  0  0  0  0  0
   -4.4910    0.9782    0.9198 C   0  0  0  0  0  0  0  0  0  0  0  0
   -3.3252    0.9201    1.8162 N   0  0  0  0  0  0  0  0  0  0  0  0
   -3.5708    1.2907    3.2192 C   0  0  0  0  0  0  0  0  0  0  0  0
   -4.0908    0.1093    4.0239 C   0  0  0  0  0  0  0  0  0  0  0  0
   -2.0599    0.5448    1.3750 C   0  0  0  0  0  0  0  0  0  0  0  0
   -1.0444    0.1627    2.2649 C   0  0  0  0  0  0  0  0  0  0  0  0
    0.2333   -0.2103    1.8305 C   0  0  0  0  0  0  0  0  0  0  0  0
    0.5480   -0.2100    0.4721 C   0  0  0  0  0  0  0  0  0  0  0  0
    1.9056   -0.6180    0.0839 C   0  0  0  0  0  0  0  0  0  0  0  0
    2.6990    0.1891   -0.6356 C   0  0  0  0  0  0  0  0  0  0  0  0
    4.0196   -0.2280   -1.0972 C   0  0  0  0  0  0  0  0  0  0  0  0
    5.0833   -0.3384   -0.1954 C   0  0  0  0  0  0  0  0  0  0  0  0
    6.3391   -0.7218   -0.6476 C   0  0  0  0  0  0  0  0  0  0  0  0
    6.5181   -0.9913   -1.9954 C   0  0  0  0  0  0  0  0  0  0  0  0
    5.4397   -0.8756   -2.8640 C   0  0  0  0  0  0  0  0  0  0  0  0
    4.2183   -0.5010   -2.4157 N   0  0  0  0  0  4  0  0  0  0  0  0
    3.0949   -0.4262   -3.3735 C   0  0  0  0  0  0  0  0  0  0  0  0
   -0.4450    0.1430   -0.4568 C   0  0  0  0  0  0  0  0  0  0  0  0
   -0.0878    0.0938   -1.7869 O   0  0  0  0  0  0  0  0  0  0  0  0
   -1.1366    0.2445   -2.7396 C   0  0  0  0  0  0  0  0  0  0  0  0
   -1.7179    0.5225    0.0079 C   0  0  0  0  0  0  0  0  0  0  0  0
   -5.1834   -1.0342    1.3615 H   0  0  0  0  0  0  0  0  0  0  0  0
   -4.1827   -0.9326   -0.0903 H   0  0  0  0  0  0  0  0  0  0  0  0
   -5.8466   -0.3372   -0.1254 H   0  0  0  0  0  0  0  0  0  0  0  0
   -4.2874    1.6086    0.0472 H   0  0  0  0  0  0  0  0  0  0  0  0
   -5.3337    1.4630    1.4285 H   0  0  0  0  0  0  0  0  0  0  0  0
   -4.3105    2.1003    3.2626 H   0  0  0  0  0  0  0  0  0  0  0  0
   -2.6753    1.7122    3.6903 H   0  0  0  0  0  0  0  0  0  0  0  0
   -4.2203    0.3953    5.0725 H   0  0  0  0  0  0  0  0  0  0  0  0
   -3.4051   -0.7423    3.9847 H   0  0  0  0  0  0  0  0  0  0  0  0
   -5.0621   -0.2265    3.6474 H   0  0  0  0  0  0  0  0  0  0  0  0
   -1.2268    0.1252    3.3352 H   0  0  0  0  0  0  0  0  0  0  0  0
    0.9726   -0.4965    2.5753 H   0  0  0  0  0  0  0  0  0  0  0  0
    2.2120   -1.6092    0.4103 H   0  0  0  0  0  0  0  0  0  0  0  0
    2.3652    1.1774   -0.9439 H   0  0  0  0  0  0  0  0  0  0  0  0
    4.9358   -0.1191    0.8611 H   0  0  0  0  0  0  0  0  0  0  0  0
    7.1722   -0.8075    0.0487 H   0  0  0  0  0  0  0  0  0  0  0  0
    7.4946   -1.2934   -2.3689 H   0  0  0  0  0  0  0  0  0  0  0  0
    5.5483   -1.0862   -3.9244 H   0  0  0  0  0  0  0  0  0  0  0  0
    2.7077    0.5959   -3.3722 H   0  0  0  0  0  0  0  0  0  0  0  0
    2.3354   -1.1506   -3.0683 H   0  0  0  0  0  0  0  0  0  0  0  0
    3.4455   -0.6746   -4.3786 H   0  0  0  0  0  0  0  0  0  0  0  0
   -0.7089    0.0712   -3.7319 H   0  0  0  0  0  0  0  0  0  0  0  0
   -1.5348    1.2640   -2.7250 H   0  0  0  0  0  0  0  0  0  0  0  0
   -1.9269   -0.4978   -2.5852 H   0  0  0  0  0  0  0  0  0  0  0  0
   -2.4674    0.8278   -0.7108 H   0  0  0  0  0  0  0  0  0  0  0  0
  1  2  1  0
  2  3  1  0
  3  4  1  0
  4  5  1  0
  3  6  1  0
  6  7  2  0
  7  8  1  0
  8  9  2  0
  9 10  1  0
 10 11  2  3
 11 12  1  0
 12 13  2  0
 13 14  1  0
 14 15  2  0
 15 16  1  0
 16 17  2  0
 17 18  1  0
  9 19  1  0
 19 20  1  0
 20 21  1  0
 19 22  2  0
 22  6  1  0
 17 12  1  0
  1 23  1  0
  1 24  1  0
  1 25  1  0
  2 26  1  0
  2 27  1  0
  4 28  1  0
  4 29  1  0
  5 30  1  0
  5 31  1  0
  5 32  1  0
  7 33  1  0
  8 34  1  0
 10 35  1  0
 11 36  1  0
 13 37  1  0
 14 38  1  0
 15 39  1  0
 16 40  1  0
 18 41  1  0
 18 42  1  0
 18 43  1  0
 21 44  1  0
 21 45  1  0
 21 46  1  0
 22 47  1  0
M  CHG  1  17   1
M  END
$$$$
