
     RDKit          3D

 43 45  0  0  0  0  0  0  0  0999 V2000
    5.9144   -1.4977    2.6991 C   0  0  0  0  0  0  0  0  0  0  0  0
    5.3408   -0.6772    1.5819 C   0  0  0  0  0  0  0  0  0  0  0  0
    6.1850   -0.0153    0.6847 C   0  0  0  0  0  0  0  0  0  0  0  0
    5.6549    0.7308   -0.3739 C   0  0  0  0  0  0  0  0  0  0  0  0
    6.5642    1.4171   -1.3510 C   0  0  0  0  0  0  0  0  0  0  0  0
    4.2636    0.7831   -0.5517 C   0  0  0  0  0  0  0  0  0  0  0  0
    3.4047    0.1202    0.3263 C   0  0  0  0  0  0  0  0  0  0  0  0
    1.9982    0.1232    0.2074 N   0  0  0  0  0  0  0  0  0  0  0  0
    1.2327    0.8268   -0.7046 C   0  0  0  0  0  0  0  0  0  0  0  0
    1.6302    1.6338   -1.5361 O   0  0  0  0  0  0  0  0  0  0  0  0
   -0.2356    0.5852   -0.6082 C   0  0  0  0  0  0  0  0  0  0  0  0
   -1.1071    1.6437   -0.8808 C   0  0  0  0  0  0  0  0  0  0  0  0
   -2.4903    1.4542   -0.7995 C   0  0  0  0  0  0  0  0  0  0  0  0
   -3.0218    0.2052   -0.4543 C   0  0  0  0  0  0  0  0  0  0  0  0
   -4.4228    0.1012   -0.3929 N   0  0  0  0  0  0  0  0  0  0  0  0
   -5.1917   -1.0013   -0.0629 C   0  0  0  0  0  0  0  0  0  0  0  0
   -4.7566   -2.1048    0.2493 O   0  0  0  0  0  0  0  0  0  0  0  0
   -6.6163   -0.7216   -0.1169 C   0  0  0  0  0  0  0  0  0  0  0  0
   -7.7124   -1.5263    0.1311 C   0  0  0  0  0  0  0  0  0  0  0  0
   -8.8617   -0.7268   -0.0755 C   0  0  0  0  0  0  0  0  0  0  0  0
   -8.4025    0.5174   -0.4367 C   0  0  0  0  0  0  0  0  0  0  0  0
   -7.0447    0.5357   -0.4656 O   0  0  0  0  0  0  0  0  0  0  0  0
   -2.1474   -0.8546   -0.2031 C   0  0  0  0  0  0  0  0  0  0  0  0
   -0.7608   -0.6702   -0.2840 C   0  0  0  0  0  0  0  0  0  0  0  0
    3.9539   -0.6127    1.3874 C   0  0  0  0  0  0  0  0  0  0  0  0
    5.2413   -1.5061    3.5628 H   0  0  0  0  0  0  0  0  0  0  0  0
    6.8702   -1.0840    3.0375 H   0  0  0  0  0  0  0  0  0  0  0  0
    6.0734   -2.5271    2.3637 H   0  0  0  0  0  0  0  0  0  0  0  0
    7.2642   -0.0795    0.8103 H   0  0  0  0  0  0  0  0  0  0  0  0
    7.5082    1.7013   -0.8743 H   0  0  0  0  0  0  0  0  0  0  0  0
    6.7798    0.7513   -2.1923 H   0  0  0  0  0  0  0  0  0  0  0  0
    6.1050    2.3351   -1.7327 H   0  0  0  0  0  0  0  0  0  0  0  0
    3.8747    1.3464   -1.3947 H   0  0  0  0  0  0  0  0  0  0  0  0
    1.5024   -0.3997    0.9167 H   0  0  0  0  0  0  0  0  0  0  0  0
   -0.7110    2.6196   -1.1558 H   0  0  0  0  0  0  0  0  0  0  0  0
   -3.1418    2.2983   -1.0129 H   0  0  0  0  0  0  0  0  0  0  0  0
   -4.9590    0.9343   -0.6135 H   0  0  0  0  0  0  0  0  0  0  0  0
   -7.6714   -2.5668    0.4253 H   0  0  0  0  0  0  0  0  0  0  0  0
   -9.8971   -1.0210    0.0259 H   0  0  0  0  0  0  0  0  0  0  0  0
   -8.8894    1.4486   -0.6927 H   0  0  0  0  0  0  0  0  0  0  0  0
   -2.5111   -1.8469    0.0465 H   0  0  0  0  0  0  0  0  0  0  0  0
   -0.1129   -1.5275   -0.1213 H   0  0  0  0  0  0  0  0  0  0  0  0
    3.3034   -1.1453    2.0770 H   0  0  0  0  0  0  0  0  0  0  0  0
  1  2  1  0
  2  3  2  0
  3  4  1  0
  4  5  1  0
  4  6  2  0
  6  7  1  0
  7  8  1  0
  8  9  1  0
  9 10  2  0
  9 11  1  0
 11 12  2  0
 12 13  1  0
 13 14  2  0
 14 15  1  0
 15 16  1  0
 16 17  2  0
 16 18  1  0
 18 19  2  0
 19 20  1  0
 20 21  2  0
 21 22  1  0
 14 23  1  0
 23 24  2  0
  7 25  2  0
 25  2  1  0
 24 11  1  0
 22 18  1  0
  1 26  1  0
  1 27  1  0
  1 28  1  0
  3 29  1  0
  5 30  1  0
  5 31  1  0
  5 32  1  0
  6 33  1  0
  8 34  1  0
 12 35  1  0
 13 36  1  0
 15 37  1  0
 19 38  1  0
 20 39  1  0
 21 40  1  0
 23 41  1  0
 24 42  1  0
 25 43  1  0
M  END
$$$$
