
     RDKit          3D

 56 58  0  0  0  0  0  0  0  0999 V2000
   10.1096    2.9036    1.2376 C   0  0  0  0  0  0  0  0  0  0  0  0
    8.8513    2.1160    0.9156 C   0  0  0  0  0  0  0  0  0  0  0  0
    7.7261    2.8888    1.3349 O   0  0  0  0  0  0  0  0  0  0  0  0
    6.5005    2.4561    0.9133 C   0  0  0  0  0  0  0  0  0  0  0  0
    6.2060    1.1784    0.4437 C   0  0  0  0  0  0  0  0  0  0  0  0
    4.9040    0.8565    0.0389 C   0  0  0  0  0  0  0  0  0  0  0  0
    3.8828    1.8055    0.0967 C   0  0  0  0  0  0  0  0  0  0  0  0
    2.5538    1.5652   -0.3107 N   0  0  0  0  0  0  0  0  0  0  0  0
    2.0111    0.3690   -0.7495 C   0  0  0  0  0  0  0  0  0  0  0  0
    2.5838   -0.7141   -0.8072 O   0  0  0  0  0  0  0  0  0  0  0  0
    0.5526    0.5268   -1.1450 C   0  0  0  0  0  0  0  0  0  0  0  0
   -0.0403   -0.7587   -1.7104 C   0  0  0  0  0  0  0  0  0  0  0  0
   -0.1698   -1.7681   -0.6452 N   0  0  0  0  0  0  0  0  0  0  0  0
   -1.1389   -3.1089   -0.9502 S   0  0  0  0  0  6  0  0  0  0  0  0
   -0.6381   -4.1730   -0.1093 O   0  0  0  0  0  0  0  0  0  0  0  0
   -1.2955   -3.2685   -2.3777 O   0  0  0  0  0  0  0  0  0  0  0  0
   -2.6955   -2.5864   -0.2723 C   0  0  0  0  0  0  0  0  0  0  0  0
   -3.0427   -2.9388    1.0307 C   0  0  0  0  0  0  0  0  0  0  0  0
   -4.2899   -2.5620    1.5433 C   0  0  0  0  0  0  0  0  0  0  0  0
   -5.2039   -1.8351    0.7615 C   0  0  0  0  0  0  0  0  0  0  0  0
   -4.8331   -1.4938   -0.5386 C   0  0  0  0  0  0  0  0  0  0  0  0
   -3.5906   -1.8741   -1.0673 C   0  0  0  0  0  0  0  0  0  0  0  0
   -5.7613   -0.7150   -1.3709 C   0  0  0  0  0  0  0  0  0  0  0  0
   -5.3848   -0.3207   -2.4716 O   0  0  0  0  0  0  0  0  0  0  0  0
   -7.0118   -0.4584   -0.8357 N   0  0  0  0  0  0  0  0  0  0  0  0
   -7.9604    0.2801   -1.6486 C   0  0  0  0  0  0  0  0  0  0  0  0
   -7.3966   -0.7520    0.4668 C   0  0  0  0  0  0  0  0  0  0  0  0
   -8.4974   -0.4061    0.9024 O   0  0  0  0  0  0  0  0  0  0  0  0
   -6.4776   -1.4437    1.2511 N   0  0  0  0  0  0  0  0  0  0  0  0
   -6.8580   -1.7797    2.6176 C   0  0  0  0  0  0  0  0  0  0  0  0
    4.1808    3.0818    0.5855 C   0  0  0  0  0  0  0  0  0  0  0  0
    5.4781    3.3996    0.9968 C   0  0  0  0  0  0  0  0  0  0  0  0
   11.0006    2.3756    0.8886 H   0  0  0  0  0  0  0  0  0  0  0  0
   10.0779    3.8913    0.7626 H   0  0  0  0  0  0  0  0  0  0  0  0
   10.1986    3.0682    2.3166 H   0  0  0  0  0  0  0  0  0  0  0  0
    8.8126    1.9360   -0.1655 H   0  0  0  0  0  0  0  0  0  0  0  0
    8.8788    1.1598    1.4536 H   0  0  0  0  0  0  0  0  0  0  0  0
    6.9628    0.4018    0.3893 H   0  0  0  0  0  0  0  0  0  0  0  0
    4.7245   -0.1532   -0.3132 H   0  0  0  0  0  0  0  0  0  0  0  0
    1.9241    2.3550   -0.2430 H   0  0  0  0  0  0  0  0  0  0  0  0
    0.4947    1.3092   -1.9106 H   0  0  0  0  0  0  0  0  0  0  0  0
   -0.0139    0.8560   -0.2674 H   0  0  0  0  0  0  0  0  0  0  0  0
    0.5945   -1.1551   -2.5096 H   0  0  0  0  0  0  0  0  0  0  0  0
   -1.0267   -0.5297   -2.1269 H   0  0  0  0  0  0  0  0  0  0  0  0
    0.7241   -2.0606   -0.2298 H   0  0  0  0  0  0  0  0  0  0  0  0
   -2.3556   -3.5106    1.6521 H   0  0  0  0  0  0  0  0  0  0  0  0
   -4.5196   -2.8611    2.5624 H   0  0  0  0  0  0  0  0  0  0  0  0
   -3.3329   -1.6195   -2.0942 H   0  0  0  0  0  0  0  0  0  0  0  0
   -8.9579   -0.1567   -1.5463 H   0  0  0  0  0  0  0  0  0  0  0  0
   -7.9927    1.3145   -1.2916 H   0  0  0  0  0  0  0  0  0  0  0  0
   -7.6858    0.2764   -2.7065 H   0  0  0  0  0  0  0  0  0  0  0  0
   -6.1444   -1.3327    3.3144 H   0  0  0  0  0  0  0  0  0  0  0  0
   -6.8741   -2.8687    2.7345 H   0  0  0  0  0  0  0  0  0  0  0  0
   -7.8498   -1.4042    2.8742 H   0  0  0  0  0  0  0  0  0  0  0  0
    3.4133    3.8473    0.6597 H   0  0  0  0  0  0  0  0  0  0  0  0
    5.6924    4.3908    1.3866 H   0  0  0  0  0  0  0  0  0  0  0  0
  1  2  1  0
  2  3  1  0
  3  4  1  0
  4  5  2  0
  5  6  1  0
  6  7  2  0
  7  8  1  0
  8  9  1  0
  9 10  2  0
  9 11  1  0
 11 12  1  0
 12 13  1  0
 13 14  1  0
 14 15  2  0
 14 16  2  0
 14 17  1  0
 17 18  2  0
 18 19  1  0
 19 20  2  0
 20 21  1  0
 21 22  2  0
 21 23  1  0
 23 24  2  0
 23 25  1  0
 25 26  1  0
 25 27  1  0
 27 28  2  0
 27 29  1  0
 29 30  1  0
  7 31  1  0
 31 32  2  0
 32  4  1  0
 22 17  1  0
 29 20  1  0
  1 33  1  0
  1 34  1  0
  1 35  1  0
  2 36  1  0
  2 37  1  0
  5 38  1  0
  6 39  1  0
  8 40  1  0
 11 41  1  0
 11 42  1  0
 12 43  1  0
 12 44  1  0
 13 45  1  0
 18 46  1  0
 19 47  1  0
 22 48  1  0
 26 49  1  0
 26 50  1  0
 26 51  1  0
 30 52  1  0
 30 53  1  0
 30 54  1  0
 31 55  1  0
 32 56  1  0
M  END
$$$$
