
     RDKit          3D

 44 46  0  0  0  0  0  0  0  0999 V2000
   -3.0349    2.4437   -2.7594 C   0  0  0  0  0  0  0  0  0  0  0  0
   -1.6815    1.7751   -2.5036 C   0  0  0  0  0  0  0  0  0  0  0  0
   -0.5941    2.8222   -2.2580 C   0  0  0  0  0  0  0  0  0  0  0  0
   -1.7547    0.7719   -1.3647 C   0  0  0  0  0  0  0  0  0  0  0  0
   -1.4428   -0.5754   -1.6094 C   0  0  0  0  0  0  0  0  0  0  0  0
   -1.5363   -1.5276   -0.5923 C   0  0  0  0  0  0  0  0  0  0  0  0
   -1.9285   -1.1330    0.6879 C   0  0  0  0  0  0  0  0  0  0  0  0
   -2.1353   -2.3537    1.9657 S   0  0  0  0  0  6  0  0  0  0  0  0
   -3.1927   -1.8888    2.8399 O   0  0  0  0  0  0  0  0  0  0  0  0
   -2.2098   -3.6556    1.3373 O   0  0  0  0  0  0  0  0  0  0  0  0
   -0.7108   -2.2398    2.8588 N   0  0  0  0  0  0  0  0  0  0  0  0
    0.5579   -2.3394    2.2224 C   0  0  0  0  0  0  0  0  0  0  0  0
    0.8998   -3.4347    1.4309 C   0  0  0  0  0  0  0  0  0  0  0  0
    2.1529   -3.4927    0.8181 C   0  0  0  0  0  0  0  0  0  0  0  0
    3.0666   -2.4556    1.0091 C   0  0  0  0  0  0  0  0  0  0  0  0
    4.2924   -2.5208    0.4046 O   0  0  0  0  0  0  0  0  0  0  0  0
    2.7442   -1.3566    1.8171 C   0  0  0  0  0  0  0  0  0  0  0  0
    3.9118   -0.0341    2.1093 S   0  0  0  0  0  0  0  0  0  0  0  0
    3.1940    1.2873    1.2244 C   0  0  0  0  0  0  0  0  0  0  0  0
    3.9102    2.0649    0.3518 N   0  0  0  0  0  0  0  0  0  0  0  0
    3.0271    2.9408   -0.0629 C   0  0  0  0  0  0  0  0  0  0  0  0
    1.8387    2.7076    0.5494 N   0  0  0  0  0  0  0  0  0  0  0  0
    1.9200    1.6682    1.3923 N   0  0  0  0  0  0  0  0  0  0  0  0
    1.4867   -1.3199    2.4360 C   0  0  0  0  0  0  0  0  0  0  0  0
   -2.2407    0.2021    0.9535 C   0  0  0  0  0  0  0  0  0  0  0  0
   -2.1478    1.1493   -0.0697 C   0  0  0  0  0  0  0  0  0  0  0  0
   -3.8139    1.6946   -2.9394 H   0  0  0  0  0  0  0  0  0  0  0  0
   -3.3544    3.0618   -1.9134 H   0  0  0  0  0  0  0  0  0  0  0  0
   -2.9828    3.0914   -3.6414 H   0  0  0  0  0  0  0  0  0  0  0  0
   -1.4119    1.2395   -3.4236 H   0  0  0  0  0  0  0  0  0  0  0  0
   -0.5099    3.4997   -3.1146 H   0  0  0  0  0  0  0  0  0  0  0  0
    0.3807    2.3438   -2.1143 H   0  0  0  0  0  0  0  0  0  0  0  0
   -0.8043    3.4304   -1.3716 H   0  0  0  0  0  0  0  0  0  0  0  0
   -1.1395   -0.8993   -2.6033 H   0  0  0  0  0  0  0  0  0  0  0  0
   -1.3137   -2.5695   -0.8108 H   0  0  0  0  0  0  0  0  0  0  0  0
   -0.8036   -1.5908    3.6387 H   0  0  0  0  0  0  0  0  0  0  0  0
    0.2074   -4.2615    1.2928 H   0  0  0  0  0  0  0  0  0  0  0  0
    2.3987   -4.3545    0.2047 H   0  0  0  0  0  0  0  0  0  0  0  0
    4.3603   -3.3438   -0.1050 H   0  0  0  0  0  0  0  0  0  0  0  0
    3.1872    3.7363   -0.7763 H   0  0  0  0  0  0  0  0  0  0  0  0
    0.9585    3.1998    0.4495 H   0  0  0  0  0  0  0  0  0  0  0  0
    1.2298   -0.4744    3.0694 H   0  0  0  0  0  0  0  0  0  0  0  0
   -2.5735    0.5088    1.9424 H   0  0  0  0  0  0  0  0  0  0  0  0
   -2.4075    2.1824    0.1498 H   0  0  0  0  0  0  0  0  0  0  0  0
  1  2  1  0
  2  3  1  0
  2  4  1  0
  4  5  2  0
  5  6  1  0
  6  7  2  0
  7  8  1  0
  8  9  2  0
  8 10  2  0
  8 11  1  0
 11 12  1  0
 12 13  2  0
 13 14  1  0
 14 15  2  0
 15 16  1  0
 15 17  1  0
 17 18  1  0
 18 19  1  0
 19 20  1  0
 20 21  2  0
 21 22  1  0
 22 23  1  0
 17 24  2  0
  7 25  1  0
 25 26  2  0
 26  4  1  0
 24 12  1  0
 23 19  2  0
  1 27  1  0
  1 28  1  0
  1 29  1  0
  2 30  1  0
  3 31  1  0
  3 32  1  0
  3 33  1  0
  5 34  1  0
  6 35  1  0
 11 36  1  0
 13 37  1  0
 14 38  1  0
 16 39  1  0
 21 40  1  0
 22 41  1  0
 24 42  1  0
 25 43  1  0
 26 44  1  0
M  END
$$$$
