
     RDKit          3D

 54 57  0  0  0  0  0  0  0  0999 V2000
   -5.4320   -3.3466   -1.9125 C   0  0  0  0  0  0  0  0  0  0  0  0
   -5.2957   -3.0195   -0.5351 O   0  0  0  0  0  0  0  0  0  0  0  0
   -4.3747   -2.0605   -0.2146 C   0  0  0  0  0  0  0  0  0  0  0  0
   -3.5162   -1.4162   -1.1089 C   0  0  0  0  0  0  0  0  0  0  0  0
   -2.6158   -0.4521   -0.6453 C   0  0  0  0  0  0  0  0  0  0  0  0
   -2.5636   -0.1485    0.7173 C   0  0  0  0  0  0  0  0  0  0  0  0
   -1.6210    0.8916    1.1859 C   0  0  0  0  0  0  0  0  0  0  0  0
   -1.8707    2.1107    0.8264 N   0  0  0  0  0  0  0  0  0  0  0  0
   -1.0117    3.1274    1.2509 C   0  0  0  0  0  0  0  0  0  0  0  0
   -1.2745    4.4410    0.8538 C   0  0  0  0  0  0  0  0  0  0  0  0
   -0.4429    5.4888    1.2590 C   0  0  0  0  0  0  0  0  0  0  0  0
    0.6623    5.2294    2.0684 C   0  0  0  0  0  0  0  0  0  0  0  0
    0.9337    3.9224    2.4709 C   0  0  0  0  0  0  0  0  0  0  0  0
    0.0926    2.8807    2.0586 C   0  0  0  0  0  0  0  0  0  0  0  0
    0.3536    1.4883    2.4579 C   0  0  0  0  0  0  0  0  0  0  0  0
    1.3115    1.2517    3.1913 O   0  0  0  0  0  0  0  0  0  0  0  0
   -0.5312    0.5215    1.9726 N   0  0  0  0  0  0  0  0  0  0  0  0
   -0.1654   -0.8817    2.2385 C   0  0  0  0  0  0  0  0  0  0  0  0
    0.5713   -1.5330    1.0593 C   0  0  0  0  0  0  0  0  0  0  0  0
    1.8111   -0.8587    0.8503 O   0  0  0  0  0  0  0  0  0  0  0  0
    2.4629   -1.1021   -0.3284 C   0  0  0  0  0  0  0  0  0  0  0  0
    2.2573   -2.2296   -1.1268 C   0  0  0  0  0  0  0  0  0  0  0  0
    2.9782   -2.3964   -2.3127 C   0  0  0  0  0  0  0  0  0  0  0  0
    3.9101   -1.4372   -2.7185 C   0  0  0  0  0  0  0  0  0  0  0  0
    4.7079   -1.6322   -3.9735 C   0  0  0  0  0  0  0  0  0  0  0  0
    4.1340   -0.3214   -1.9032 C   0  0  0  0  0  0  0  0  0  0  0  0
    3.4194   -0.1459   -0.7076 C   0  0  0  0  0  0  0  0  0  0  0  0
    3.6677    1.0698    0.1430 C   0  0  0  0  0  0  0  0  0  0  0  0
   -3.4378   -0.7636    1.6141 C   0  0  0  0  0  0  0  0  0  0  0  0
   -4.3325   -1.7264    1.1440 C   0  0  0  0  0  0  0  0  0  0  0  0
   -4.5082   -3.7831   -2.3065 H   0  0  0  0  0  0  0  0  0  0  0  0
   -6.2203   -4.1004   -2.0006 H   0  0  0  0  0  0  0  0  0  0  0  0
   -5.7390   -2.4736   -2.4981 H   0  0  0  0  0  0  0  0  0  0  0  0
   -3.5270   -1.6339   -2.1718 H   0  0  0  0  0  0  0  0  0  0  0  0
   -1.9605    0.0624   -1.3448 H   0  0  0  0  0  0  0  0  0  0  0  0
   -2.1365    4.6450    0.2236 H   0  0  0  0  0  0  0  0  0  0  0  0
   -0.6604    6.5058    0.9421 H   0  0  0  0  0  0  0  0  0  0  0  0
    1.3108    6.0425    2.3848 H   0  0  0  0  0  0  0  0  0  0  0  0
    1.7956    3.7145    3.1007 H   0  0  0  0  0  0  0  0  0  0  0  0
    0.4737   -0.9292    3.1274 H   0  0  0  0  0  0  0  0  0  0  0  0
   -1.0621   -1.4608    2.4693 H   0  0  0  0  0  0  0  0  0  0  0  0
    0.7696   -2.5819    1.3086 H   0  0  0  0  0  0  0  0  0  0  0  0
   -0.0471   -1.4850    0.1573 H   0  0  0  0  0  0  0  0  0  0  0  0
    1.5548   -3.0062   -0.8443 H   0  0  0  0  0  0  0  0  0  0  0  0
    2.8097   -3.2858   -2.9156 H   0  0  0  0  0  0  0  0  0  0  0  0
    4.1424   -2.2118   -4.7107 H   0  0  0  0  0  0  0  0  0  0  0  0
    4.9504   -0.6691   -4.4349 H   0  0  0  0  0  0  0  0  0  0  0  0
    5.6386   -2.1613   -3.7467 H   0  0  0  0  0  0  0  0  0  0  0  0
    4.8741    0.4194   -2.2002 H   0  0  0  0  0  0  0  0  0  0  0  0
    2.7745    1.7023    0.1656 H   0  0  0  0  0  0  0  0  0  0  0  0
    4.4947    1.6715   -0.2486 H   0  0  0  0  0  0  0  0  0  0  0  0
    3.9317    0.7752    1.1639 H   0  0  0  0  0  0  0  0  0  0  0  0
   -3.4334   -0.4941    2.6668 H   0  0  0  0  0  0  0  0  0  0  0  0
   -5.0138   -2.2139    1.8380 H   0  0  0  0  0  0  0  0  0  0  0  0
  1  2  1  0
  2  3  1  0
  3  4  2  0
  4  5  1  0
  5  6  2  0
  6  7  1  0
  7  8  2  0
  8  9  1  0
  9 10  2  0
 10 11  1  0
 11 12  2  0
 12 13  1  0
 13 14  2  0
 14 15  1  0
 15 16  2  0
 15 17  1  0
 17 18  1  0
 18 19  1  0
 19 20  1  0
 20 21  1  0
 21 22  2  0
 22 23  1  0
 23 24  2  0
 24 25  1  0
 24 26  1  0
 26 27  2  0
 27 28  1  0
  6 29  1  0
 29 30  2  0
 30  3  1  0
 17  7  1  0
 27 21  1  0
 14  9  1  0
  1 31  1  0
  1 32  1  0
  1 33  1  0
  4 34  1  0
  5 35  1  0
 10 36  1  0
 11 37  1  0
 12 38  1  0
 13 39  1  0
 18 40  1  0
 18 41  1  0
 19 42  1  0
 19 43  1  0
 22 44  1  0
 23 45  1  0
 25 46  1  0
 25 47  1  0
 25 48  1  0
 26 49  1  0
 28 50  1  0
 28 51  1  0
 28 52  1  0
 29 53  1  0
 30 54  1  0
M  END
$$$$
