
     RDKit          3D

 29 30  0  0  0  0  0  0  0  0999 V2000
    3.5337   -0.9183   -1.5126 C   0  0  0  0  0  0  0  0  0  0  0  0
    3.1924   -0.9302   -0.0335 C   0  0  0  0  0  0  0  0  0  0  0  0
    2.7842    0.4147    0.3711 N   0  0  0  0  0  0  0  0  0  0  0  0
    1.9420    0.5947    1.8149 S   0  0  0  0  0  6  0  0  0  0  0  0
    2.3852   -0.4405    2.7223 O   0  0  0  0  0  0  0  0  0  0  0  0
    2.0260    1.9967    2.1584 O   0  0  0  0  0  0  0  0  0  0  0  0
    0.2770    0.2557    1.3120 C   0  0  0  0  0  0  0  0  0  0  0  0
   -0.3445   -0.9407    1.7172 C   0  0  0  0  0  0  0  0  0  0  0  0
   -1.6648   -1.2012    1.3468 C   0  0  0  0  0  0  0  0  0  0  0  0
   -2.3191   -0.2598    0.5698 C   0  0  0  0  0  0  0  0  0  0  0  0
   -1.6950    0.9204    0.1589 C   0  0  0  0  0  0  0  0  0  0  0  0
   -0.4019    1.2094    0.5440 C   0  0  0  0  0  0  0  0  0  0  0  0
   -2.5613    1.7822   -0.5545 N   0  0  0  0  0  0  0  0  0  0  0  0
   -3.6672    0.8886   -0.9413 C   0  0  0  0  0  0  0  0  0  0  0  0
   -3.7288   -0.2581    0.0851 C   0  0  0  0  0  0  0  0  0  0  0  0
    3.8459   -1.9146   -1.8405 H   0  0  0  0  0  0  0  0  0  0  0  0
    4.3484   -0.2174   -1.7231 H   0  0  0  0  0  0  0  0  0  0  0  0
    2.6687   -0.6148   -2.1120 H   0  0  0  0  0  0  0  0  0  0  0  0
    2.3876   -1.6504    0.1431 H   0  0  0  0  0  0  0  0  0  0  0  0
    4.0724   -1.2326    0.5430 H   0  0  0  0  0  0  0  0  0  0  0  0
    3.4236    1.1905    0.2027 H   0  0  0  0  0  0  0  0  0  0  0  0
    0.1911   -1.6603    2.3331 H   0  0  0  0  0  0  0  0  0  0  0  0
   -2.1643   -2.1083    1.6713 H   0  0  0  0  0  0  0  0  0  0  0  0
    0.0675    2.1477    0.2685 H   0  0  0  0  0  0  0  0  0  0  0  0
   -2.0856    2.2398   -1.3277 H   0  0  0  0  0  0  0  0  0  0  0  0
   -3.4669    0.4862   -1.9433 H   0  0  0  0  0  0  0  0  0  0  0  0
   -4.6136    1.4369   -0.9868 H   0  0  0  0  0  0  0  0  0  0  0  0
   -4.4100   -0.0151    0.9072 H   0  0  0  0  0  0  0  0  0  0  0  0
   -4.0228   -1.2013   -0.3830 H   0  0  0  0  0  0  0  0  0  0  0  0
  1  2  1  0
  2  3  1  0
  3  4  1  0
  4  5  2  0
  4  6  2  0
  4  7  1  0
  7  8  2  0
  8  9  1  0
  9 10  2  0
 10 11  1  0
 11 12  2  0
 11 13  1  0
 13 14  1  0
 14 15  1  0
 12  7  1  0
 15 10  1  0
  1 16  1  0
  1 17  1  0
  1 18  1  0
  2 19  1  0
  2 20  1  0
  3 21  1  0
  8 22  1  0
  9 23  1  0
 12 24  1  0
 13 25  1  0
 14 26  1  0
 14 27  1  0
 15 28  1  0
 15 29  1  0
M  END
$$$$
