
     RDKit          3D

 42 44  0  0  0  0  0  0  0  0999 V2000
   -3.3828   -2.2212    2.6617 C   0  0  0  0  0  0  0  0  0  0  0  0
   -3.9202   -1.1849    1.8498 O   0  0  0  0  0  0  0  0  0  0  0  0
   -3.0532   -0.2142    1.4300 C   0  0  0  0  0  0  0  0  0  0  0  0
   -1.6912   -0.1436    1.7316 C   0  0  0  0  0  0  0  0  0  0  0  0
   -0.9140    0.9064    1.2323 C   0  0  0  0  0  0  0  0  0  0  0  0
   -1.5012    1.8763    0.4149 C   0  0  0  0  0  0  0  0  0  0  0  0
   -0.5147    3.2142   -0.2187 S   0  0  0  0  0  6  0  0  0  0  0  0
    0.6173    3.3903    0.6649 O   0  0  0  0  0  0  0  0  0  0  0  0
   -1.4098    4.3138   -0.5147 O   0  0  0  0  0  0  0  0  0  0  0  0
    0.0141    2.6335   -1.7131 N   0  0  0  0  0  0  0  0  0  0  0  0
    0.6934    1.3827   -1.7964 C   0  0  0  0  0  0  0  0  0  0  0  0
    1.9252    1.2223   -1.1497 C   0  0  0  0  0  0  0  0  0  0  0  0
    2.6040   -0.0036   -1.1774 C   0  0  0  0  0  0  0  0  0  0  0  0
    4.2053   -0.0780   -0.3905 S   0  0  0  0  0  0  0  0  0  0  0  0
    3.9616   -1.2661    0.8549 C   0  0  0  0  0  0  0  0  0  0  0  0
    3.5559   -2.5476    0.5781 N   0  0  0  0  0  0  0  0  0  0  0  0
    3.5447   -3.1125    1.7636 C   0  0  0  0  0  0  0  0  0  0  0  0
    3.9364   -2.2094    2.7014 N   0  0  0  0  0  0  0  0  0  0  0  0
    4.2106   -1.0211    2.1433 N   0  0  0  0  0  0  0  0  0  0  0  0
    2.0255   -1.0649   -1.8813 C   0  0  0  0  0  0  0  0  0  0  0  0
    2.5939   -2.3057   -1.9729 O   0  0  0  0  0  0  0  0  0  0  0  0
    0.8122   -0.9051   -2.5511 C   0  0  0  0  0  0  0  0  0  0  0  0
    0.1283    0.3182   -2.5160 C   0  0  0  0  0  0  0  0  0  0  0  0
   -1.1729    0.4477   -3.2559 C   0  0  0  0  0  0  0  0  0  0  0  0
   -2.8664    1.8287    0.1276 C   0  0  0  0  0  0  0  0  0  0  0  0
   -3.6342    0.7780    0.6326 C   0  0  0  0  0  0  0  0  0  0  0  0
   -4.1962   -2.9118    2.9041 H   0  0  0  0  0  0  0  0  0  0  0  0
   -2.9928   -1.8223    3.6039 H   0  0  0  0  0  0  0  0  0  0  0  0
   -2.6152   -2.7868    2.1233 H   0  0  0  0  0  0  0  0  0  0  0  0
   -1.2033   -0.8861    2.3545 H   0  0  0  0  0  0  0  0  0  0  0  0
    0.1444    0.9564    1.4807 H   0  0  0  0  0  0  0  0  0  0  0  0
   -0.6103    2.8997   -2.4715 H   0  0  0  0  0  0  0  0  0  0  0  0
    2.3707    2.0696   -0.6307 H   0  0  0  0  0  0  0  0  0  0  0  0
    3.2770   -4.1336    1.9959 H   0  0  0  0  0  0  0  0  0  0  0  0
    4.0418   -2.3258    3.7035 H   0  0  0  0  0  0  0  0  0  0  0  0
    3.1759   -2.4294   -1.1934 H   0  0  0  0  0  0  0  0  0  0  0  0
    0.4037   -1.7520   -3.0990 H   0  0  0  0  0  0  0  0  0  0  0  0
   -1.4760   -0.5028   -3.7082 H   0  0  0  0  0  0  0  0  0  0  0  0
   -1.9738    0.7542   -2.5773 H   0  0  0  0  0  0  0  0  0  0  0  0
   -1.0773    1.1822   -4.0618 H   0  0  0  0  0  0  0  0  0  0  0  0
   -3.3389    2.5956   -0.4814 H   0  0  0  0  0  0  0  0  0  0  0  0
   -4.6977    0.7313    0.4082 H   0  0  0  0  0  0  0  0  0  0  0  0
  1  2  1  0
  2  3  1  0
  3  4  2  0
  4  5  1  0
  5  6  2  0
  6  7  1  0
  7  8  2  0
  7  9  2  0
  7 10  1  0
 10 11  1  0
 11 12  2  0
 12 13  1  0
 13 14  1  0
 14 15  1  0
 15 16  1  0
 16 17  2  0
 17 18  1  0
 18 19  1  0
 13 20  2  0
 20 21  1  0
 20 22  1  0
 22 23  2  0
 23 24  1  0
  6 25  1  0
 25 26  2  0
 26  3  1  0
 23 11  1  0
 19 15  2  0
  1 27  1  0
  1 28  1  0
  1 29  1  0
  4 30  1  0
  5 31  1  0
 10 32  1  0
 12 33  1  0
 17 34  1  0
 18 35  1  0
 21 36  1  0
 22 37  1  0
 24 38  1  0
 24 39  1  0
 24 40  1  0
 25 41  1  0
 26 42  1  0
M  END
$$$$
