
     RDKit          3D

 43 45  0  0  0  0  0  0  0  0999 V2000
   -2.2766   -1.4527    1.4003 C   0  0  0  0  0  0  0  0  0  0  0  0
   -2.3180   -0.3393    0.3369 C   0  0  0  0  0  0  0  0  0  0  0  0
   -2.3123    1.0004    1.1001 C   0  0  0  0  0  0  0  0  0  0  0  0
   -3.5397   -0.4237   -0.6278 C   0  0  0  0  0  0  0  0  0  0  0  0
   -3.3287   -1.7674   -1.3562 C   0  0  0  0  0  0  0  0  0  0  0  0
   -1.7992   -1.8280   -1.5266 C   0  0  0  0  0  0  0  0  0  0  0  0
   -1.2975   -0.5223   -0.8265 C   0  0  0  0  0  0  0  0  0  0  0  0
    0.2050   -0.5758   -0.6272 C   0  0  0  0  0  0  0  0  0  0  0  0
    0.9325    0.7556    0.3105 S   0  0  0  0  0  6  0  0  0  0  0  0
    0.4133    2.0205   -0.1553 O   0  0  0  0  0  0  0  0  0  0  0  0
    0.8999    0.4053    1.7150 O   0  0  0  0  0  0  0  0  0  0  0  0
    2.5592    0.6625   -0.1769 N   0  0  0  0  0  0  0  0  0  0  0  0
    3.3428   -0.5121    0.3240 C   0  0  0  0  0  0  0  0  0  0  0  0
    4.3396   -0.0837    1.4047 C   0  0  0  0  0  0  0  0  0  0  0  0
    5.3163    0.8509    0.9239 O   0  0  0  0  0  0  0  0  0  0  0  0
    4.8164    1.7114   -0.1111 C   0  0  0  0  0  0  0  0  0  0  0  0
    3.3071    1.9543   -0.0195 C   0  0  0  0  0  0  0  0  0  0  0  0
   -1.7836    0.5442   -1.8076 C   0  0  0  0  0  0  0  0  0  0  0  0
   -1.0965    1.1024   -2.6480 O   0  0  0  0  0  0  0  0  0  0  0  0
   -3.2837    0.7084   -1.6587 C   0  0  0  0  0  0  0  0  0  0  0  0
   -1.3673   -1.3728    2.0064 H   0  0  0  0  0  0  0  0  0  0  0  0
   -2.2897   -2.4662    0.9937 H   0  0  0  0  0  0  0  0  0  0  0  0
   -3.1362   -1.3691    2.0752 H   0  0  0  0  0  0  0  0  0  0  0  0
   -2.1305    1.8706    0.4651 H   0  0  0  0  0  0  0  0  0  0  0  0
   -1.5570    1.0150    1.8901 H   0  0  0  0  0  0  0  0  0  0  0  0
   -3.2799    1.1573    1.5920 H   0  0  0  0  0  0  0  0  0  0  0  0
   -4.5198   -0.3481   -0.1500 H   0  0  0  0  0  0  0  0  0  0  0  0
   -3.8468   -1.8086   -2.3201 H   0  0  0  0  0  0  0  0  0  0  0  0
   -3.6872   -2.6096   -0.7553 H   0  0  0  0  0  0  0  0  0  0  0  0
   -1.5273   -1.8599   -2.5888 H   0  0  0  0  0  0  0  0  0  0  0  0
   -1.3954   -2.7318   -1.0570 H   0  0  0  0  0  0  0  0  0  0  0  0
    0.7023   -0.5637   -1.6046 H   0  0  0  0  0  0  0  0  0  0  0  0
    0.4896   -1.5026   -0.1178 H   0  0  0  0  0  0  0  0  0  0  0  0
    2.6852   -1.2956    0.7115 H   0  0  0  0  0  0  0  0  0  0  0  0
    3.8747   -0.9350   -0.5366 H   0  0  0  0  0  0  0  0  0  0  0  0
    4.8826   -0.9554    1.7831 H   0  0  0  0  0  0  0  0  0  0  0  0
    3.8222    0.3747    2.2553 H   0  0  0  0  0  0  0  0  0  0  0  0
    5.0763    1.2592   -1.0753 H   0  0  0  0  0  0  0  0  0  0  0  0
    5.3578    2.6599   -0.0378 H   0  0  0  0  0  0  0  0  0  0  0  0
    3.0697    2.3994    0.9539 H   0  0  0  0  0  0  0  0  0  0  0  0
    2.9990    2.6404   -0.8150 H   0  0  0  0  0  0  0  0  0  0  0  0
   -3.5247    1.6990   -1.2680 H   0  0  0  0  0  0  0  0  0  0  0  0
   -3.7941    0.5317   -2.6084 H   0  0  0  0  0  0  0  0  0  0  0  0
  1  2  1  0
  2  3  1  0
  2  4  1  0
  4  5  1  0
  5  6  1  0
  6  7  1  0
  7  8  1  0
  8  9  1  0
  9 10  2  0
  9 11  2  0
  9 12  1  0
 12 13  1  0
 13 14  1  0
 14 15  1  0
 15 16  1  0
 16 17  1  0
  7 18  1  0
 18 19  2  0
 18 20  1  0
  7  2  1  0
 17 12  1  0
 20  4  1  0
  1 21  1  0
  1 22  1  0
  1 23  1  0
  3 24  1  0
  3 25  1  0
  3 26  1  0
  4 27  1  0
  5 28  1  0
  5 29  1  0
  6 30  1  0
  6 31  1  0
  8 32  1  0
  8 33  1  0
 13 34  1  0
 13 35  1  0
 14 36  1  0
 14 37  1  0
 16 38  1  0
 16 39  1  0
 17 40  1  0
 17 41  1  0
 20 42  1  0
 20 43  1  0
M  END
$$$$
