
     RDKit          3D

 36 37  0  0  0  0  0  0  0  0999 V2000
   -2.4825    0.7363    2.2243 C   0  0  0  0  0  0  0  0  0  0  0  0
   -2.6616    1.4687    0.5728 S   0  0  0  0  0  0  0  0  0  0  0  0
   -3.3118    0.0447   -0.3020 C   0  0  0  0  0  0  0  0  0  0  0  0
   -4.6631    0.1259   -0.6802 C   0  0  0  0  0  0  0  0  0  0  0  0
   -5.2940   -0.9356   -1.3322 C   0  0  0  0  0  0  0  0  0  0  0  0
   -4.5840   -2.0964   -1.6163 C   0  0  0  0  0  0  0  0  0  0  0  0
   -3.2391   -2.1892   -1.2598 C   0  0  0  0  0  0  0  0  0  0  0  0
   -2.5865   -1.1207   -0.6169 C   0  0  0  0  0  0  0  0  0  0  0  0
   -1.1378   -1.3329   -0.3185 C   0  0  0  0  0  0  0  0  0  0  0  0
   -0.7825   -2.4550    0.0255 O   0  0  0  0  0  0  0  0  0  0  0  0
   -0.3263   -0.2314   -0.5004 N   0  0  0  0  0  0  0  0  0  0  0  0
    1.0675   -0.1418   -0.3109 C   0  0  0  0  0  0  0  0  0  0  0  0
    1.8761   -1.2145    0.0521 C   0  0  0  0  0  0  0  0  0  0  0  0
    3.2531   -1.0368    0.2207 C   0  0  0  0  0  0  0  0  0  0  0  0
    3.8500    0.2170    0.0295 C   0  0  0  0  0  0  0  0  0  0  0  0
    5.3342    0.3642    0.2208 C   0  0  0  0  0  0  0  0  0  0  0  0
    3.0422    1.3081   -0.3391 C   0  0  0  0  0  0  0  0  0  0  0  0
    3.6259    2.6770   -0.5583 C   0  0  0  0  0  0  0  0  0  0  0  0
    1.6590    1.1136   -0.5050 C   0  0  0  0  0  0  0  0  0  0  0  0
   -1.7454   -0.0701    2.2200 H   0  0  0  0  0  0  0  0  0  0  0  0
   -2.1447    1.5082    2.9208 H   0  0  0  0  0  0  0  0  0  0  0  0
   -3.4428    0.3479    2.5748 H   0  0  0  0  0  0  0  0  0  0  0  0
   -5.2451    1.0194   -0.4590 H   0  0  0  0  0  0  0  0  0  0  0  0
   -6.3422   -0.8561   -1.6110 H   0  0  0  0  0  0  0  0  0  0  0  0
   -5.0725   -2.9290   -2.1168 H   0  0  0  0  0  0  0  0  0  0  0  0
   -2.6900   -3.1012   -1.4919 H   0  0  0  0  0  0  0  0  0  0  0  0
   -0.7925    0.6330   -0.7549 H   0  0  0  0  0  0  0  0  0  0  0  0
    1.4695   -2.2079    0.2110 H   0  0  0  0  0  0  0  0  0  0  0  0
    3.8565   -1.8967    0.5045 H   0  0  0  0  0  0  0  0  0  0  0  0
    5.7985   -0.5845    0.5105 H   0  0  0  0  0  0  0  0  0  0  0  0
    5.8070    0.6914   -0.7106 H   0  0  0  0  0  0  0  0  0  0  0  0
    5.5457    1.0893    1.0129 H   0  0  0  0  0  0  0  0  0  0  0  0
    4.0969    3.0409    0.3603 H   0  0  0  0  0  0  0  0  0  0  0  0
    2.8564    3.4022   -0.8434 H   0  0  0  0  0  0  0  0  0  0  0  0
    4.3667    2.6502   -1.3636 H   0  0  0  0  0  0  0  0  0  0  0  0
    1.0392    1.9617   -0.7882 H   0  0  0  0  0  0  0  0  0  0  0  0
  1  2  1  0
  2  3  1  0
  3  4  2  0
  4  5  1  0
  5  6  2  0
  6  7  1  0
  7  8  2  0
  8  9  1  0
  9 10  2  0
  9 11  1  0
 11 12  1  0
 12 13  2  0
 13 14  1  0
 14 15  2  0
 15 16  1  0
 15 17  1  0
 17 18  1  0
 17 19  2  0
  8  3  1  0
 19 12  1  0
  1 20  1  0
  1 21  1  0
  1 22  1  0
  4 23  1  0
  5 24  1  0
  6 25  1  0
  7 26  1  0
 11 27  1  0
 13 28  1  0
 14 29  1  0
 16 30  1  0
 16 31  1  0
 16 32  1  0
 18 33  1  0
 18 34  1  0
 18 35  1  0
 19 36  1  0
M  END
$$$$
