
     RDKit          3D

 51 55  0  0  0  0  0  0  0  0999 V2000
   -5.6616    3.8301   -0.4383 C   0  0  0  0  0  0  0  0  0  0  0  0
   -6.3194    2.4824   -0.4197 C   0  0  0  0  0  0  0  0  0  0  0  0
   -7.7165    2.3870   -0.3699 C   0  0  0  0  0  0  0  0  0  0  0  0
   -8.3443    1.1422   -0.4071 C   0  0  0  0  0  0  0  0  0  0  0  0
   -7.5805   -0.0217   -0.4906 C   0  0  0  0  0  0  0  0  0  0  0  0
   -6.1840    0.0573   -0.5300 C   0  0  0  0  0  0  0  0  0  0  0  0
   -5.4020   -1.2091   -0.6089 C   0  0  0  0  0  0  0  0  0  0  0  0
   -5.8697   -2.1477   -1.2399 O   0  0  0  0  0  0  0  0  0  0  0  0
   -4.2236   -1.1955    0.1003 N   0  0  0  0  0  0  0  0  0  0  0  0
   -3.3730   -2.2674    0.1149 C   0  0  0  0  0  0  0  0  0  0  0  0
   -3.4206   -3.4077   -0.5297 N   0  0  0  0  0  0  0  0  0  0  0  0
   -2.3300   -4.2083   -0.2318 N   0  0  0  0  0  0  0  0  0  0  0  0
   -1.5228   -3.6282    0.6278 C   0  0  0  0  0  0  0  0  0  0  0  0
   -0.0619   -4.4080    1.1851 S   0  0  0  0  0  0  0  0  0  0  0  0
    0.8603   -4.4207   -0.3794 C   0  0  0  0  0  0  0  0  0  0  0  0
    1.4095   -3.0280   -0.6497 C   0  0  0  0  0  0  0  0  0  0  0  0
    0.8172   -2.2467   -1.3880 O   0  0  0  0  0  0  0  0  0  0  0  0
    2.5822   -2.7704    0.0460 N   0  0  0  0  0  0  0  0  0  0  0  0
    3.3625   -1.5942    0.0151 C   0  0  0  0  0  0  0  0  0  0  0  0
    3.1093   -0.5189   -0.8442 C   0  0  0  0  0  0  0  0  0  0  0  0
    3.9152    0.6339   -0.8380 C   0  0  0  0  0  0  0  0  0  0  0  0
    4.9998    0.7013    0.0534 C   0  0  0  0  0  0  0  0  0  0  0  0
    5.2293   -0.3846    0.8885 C   0  0  0  0  0  0  0  0  0  0  0  0
    4.4491   -1.5409    0.9030 C   0  0  0  0  0  0  0  0  0  0  0  0
    6.3133   -0.1595    1.6823 O   0  0  0  0  0  0  0  0  0  0  0  0
    6.7886    1.0762    1.3634 C   0  0  0  0  0  0  0  0  0  0  0  0
    7.8950    1.6896    1.9490 C   0  0  0  0  0  0  0  0  0  0  0  0
    8.2221    2.9667    1.4813 C   0  0  0  0  0  0  0  0  0  0  0  0
    7.4691    3.5832    0.4774 C   0  0  0  0  0  0  0  0  0  0  0  0
    6.3608    2.9401   -0.0945 C   0  0  0  0  0  0  0  0  0  0  0  0
    6.0137    1.6544    0.3619 C   0  0  0  0  0  0  0  0  0  0  0  0
   -2.0243   -2.0752    1.1465 S   0  0  0  0  0  0  0  0  0  0  0  0
   -5.5555    1.3103   -0.5147 C   0  0  0  0  0  0  0  0  0  0  0  0
   -5.7424    4.2705   -1.4367 H   0  0  0  0  0  0  0  0  0  0  0  0
   -6.1350    4.4990    0.2879 H   0  0  0  0  0  0  0  0  0  0  0  0
   -4.6010    3.7582   -0.1747 H   0  0  0  0  0  0  0  0  0  0  0  0
   -8.3270    3.2871   -0.3154 H   0  0  0  0  0  0  0  0  0  0  0  0
   -9.4295    1.0792   -0.3788 H   0  0  0  0  0  0  0  0  0  0  0  0
   -8.0739   -0.9904   -0.5268 H   0  0  0  0  0  0  0  0  0  0  0  0
   -3.9793   -0.4164    0.6912 H   0  0  0  0  0  0  0  0  0  0  0  0
    1.6883   -5.1329   -0.3016 H   0  0  0  0  0  0  0  0  0  0  0  0
    0.2349   -4.7406   -1.2193 H   0  0  0  0  0  0  0  0  0  0  0  0
    2.8821   -3.4797    0.7064 H   0  0  0  0  0  0  0  0  0  0  0  0
    2.2852   -0.5402   -1.5525 H   0  0  0  0  0  0  0  0  0  0  0  0
    3.6969    1.4540   -1.5162 H   0  0  0  0  0  0  0  0  0  0  0  0
    4.6907   -2.3460    1.5859 H   0  0  0  0  0  0  0  0  0  0  0  0
    8.4691    1.1973    2.7255 H   0  0  0  0  0  0  0  0  0  0  0  0
    9.0783    3.4874    1.9074 H   0  0  0  0  0  0  0  0  0  0  0  0
    7.7463    4.5774    0.1325 H   0  0  0  0  0  0  0  0  0  0  0  0
    5.7833    3.4284   -0.8747 H   0  0  0  0  0  0  0  0  0  0  0  0
   -4.4747    1.3858   -0.6087 H   0  0  0  0  0  0  0  0  0  0  0  0
  1  2  1  0
  2  3  2  0
  3  4  1  0
  4  5  2  0
  5  6  1  0
  6  7  1  0
  7  8  2  0
  7  9  1  0
  9 10  1  0
 10 11  2  0
 11 12  1  0
 12 13  2  0
 13 14  1  0
 14 15  1  0
 15 16  1  0
 16 17  2  0
 16 18  1  0
 18 19  1  0
 19 20  2  0
 20 21  1  0
 21 22  2  0
 22 23  1  0
 23 24  2  0
 23 25  1  0
 25 26  1  0
 26 27  2  0
 27 28  1  0
 28 29  2  0
 29 30  1  0
 30 31  2  0
 13 32  1  0
  6 33  2  0
 33  2  1  0
 32 10  1  0
 24 19  1  0
 31 26  1  0
 31 22  1  0
  1 34  1  0
  1 35  1  0
  1 36  1  0
  3 37  1  0
  4 38  1  0
  5 39  1  0
  9 40  1  0
 15 41  1  0
 15 42  1  0
 18 43  1  0
 20 44  1  0
 21 45  1  0
 24 46  1  0
 27 47  1  0
 28 48  1  0
 29 49  1  0
 30 50  1  0
 33 51  1  0
M  END
$$$$
