
     RDKit          3D

 38 38  0  0  0  0  0  0  0  0999 V2000
    5.7428    0.3459   -2.1967 C   0  0  0  0  0  0  0  0  0  0  0  0
    4.4070    0.3970   -2.9139 C   0  0  0  0  0  0  0  0  0  0  0  0
    3.3373    0.1850   -1.9812 O   0  0  0  0  0  0  0  0  0  0  0  0
    2.9853   -1.1132   -1.7693 C   0  0  0  0  0  0  0  0  0  0  0  0
    3.5551   -2.0902   -2.2379 O   0  0  0  0  0  0  0  0  0  0  0  0
    1.8390   -1.1991   -0.8066 C   0  0  0  0  0  0  0  0  0  0  0  0
    0.5565   -0.6138   -1.3376 C   0  0  0  0  0  0  0  0  0  0  0  0
    0.3942   -0.3494   -2.5270 O   0  0  0  0  0  0  0  0  0  0  0  0
   -0.5686   -0.3627   -0.3839 C   0  0  0  0  0  0  0  0  0  0  0  0
   -1.6534    0.4071   -0.8354 C   0  0  0  0  0  0  0  0  0  0  0  0
   -2.7303    0.6805    0.0086 C   0  0  0  0  0  0  0  0  0  0  0  0
   -3.8297    1.4210   -0.3394 O   0  0  0  0  0  0  0  0  0  0  0  0
   -3.9675    1.7844   -1.7069 C   0  0  0  0  0  0  0  0  0  0  0  0
   -2.7014    0.1845    1.3222 C   0  0  0  0  0  0  0  0  0  0  0  0
   -3.7762    0.4086    2.1544 O   0  0  0  0  0  0  0  0  0  0  0  0
   -3.5872    1.6257    2.8743 C   0  0  0  0  0  0  0  0  0  0  0  0
   -1.6379   -0.6131    1.7797 C   0  0  0  0  0  0  0  0  0  0  0  0
   -1.7294   -1.0600    3.0726 O   0  0  0  0  0  0  0  0  0  0  0  0
   -0.8229   -2.0731    3.4862 C   0  0  0  0  0  0  0  0  0  0  0  0
   -0.5673   -0.8764    0.9210 C   0  0  0  0  0  0  0  0  0  0  0  0
    6.5625    0.5626   -2.8875 H   0  0  0  0  0  0  0  0  0  0  0  0
    5.7681    1.0736   -1.3790 H   0  0  0  0  0  0  0  0  0  0  0  0
    5.9122   -0.6394   -1.7512 H   0  0  0  0  0  0  0  0  0  0  0  0
    4.3662   -0.3240   -3.7386 H   0  0  0  0  0  0  0  0  0  0  0  0
    4.2599    1.3910   -3.3487 H   0  0  0  0  0  0  0  0  0  0  0  0
    2.1464   -0.6890    0.1127 H   0  0  0  0  0  0  0  0  0  0  0  0
    1.6683   -2.2575   -0.5801 H   0  0  0  0  0  0  0  0  0  0  0  0
   -1.6311    0.7869   -1.8532 H   0  0  0  0  0  0  0  0  0  0  0  0
   -3.9735    0.9017   -2.3550 H   0  0  0  0  0  0  0  0  0  0  0  0
   -3.1858    2.4904   -2.0052 H   0  0  0  0  0  0  0  0  0  0  0  0
   -4.9317    2.2887   -1.8226 H   0  0  0  0  0  0  0  0  0  0  0  0
   -4.4494    1.7611    3.5342 H   0  0  0  0  0  0  0  0  0  0  0  0
   -2.6877    1.5846    3.4983 H   0  0  0  0  0  0  0  0  0  0  0  0
   -3.5406    2.4871    2.1993 H   0  0  0  0  0  0  0  0  0  0  0  0
   -0.8685   -2.9444    2.8241 H   0  0  0  0  0  0  0  0  0  0  0  0
   -1.1196   -2.3994    4.4877 H   0  0  0  0  0  0  0  0  0  0  0  0
    0.1966   -1.6803    3.5529 H   0  0  0  0  0  0  0  0  0  0  0  0
    0.2622   -1.4825    1.2636 H   0  0  0  0  0  0  0  0  0  0  0  0
  1  2  1  0
  2  3  1  0
  3  4  1  0
  4  5  2  0
  4  6  1  0
  6  7  1  0
  7  8  2  0
  7  9  1  0
  9 10  2  0
 10 11  1  0
 11 12  1  0
 12 13  1  0
 11 14  2  0
 14 15  1  0
 15 16  1  0
 14 17  1  0
 17 18  1  0
 18 19  1  0
 17 20  2  0
 20  9  1  0
  1 21  1  0
  1 22  1  0
  1 23  1  0
  2 24  1  0
  2 25  1  0
  6 26  1  0
  6 27  1  0
 10 28  1  0
 13 29  1  0
 13 30  1  0
 13 31  1  0
 16 32  1  0
 16 33  1  0
 16 34  1  0
 19 35  1  0
 19 36  1  0
 19 37  1  0
 20 38  1  0
M  END
$$$$
