
     RDKit          3D

 55 58  0  0  0  0  0  0  0  0999 V2000
    2.9058   -3.2004    0.1739 O   0  0  0  0  0  0  0  0  0  0  0  0
    2.3329   -2.4359    0.9526 C   0  0  0  0  0  0  0  0  0  0  0  0
    1.1926   -2.8736    1.8498 C   0  0  0  0  0  0  0  0  0  0  0  0
   -0.3627   -2.9340    0.9152 S   0  0  0  0  0  0  0  0  0  0  0  0
   -0.7277   -1.2510    0.7817 C   0  0  0  0  0  0  0  0  0  0  0  0
   -0.0511   -0.2811    1.3484 N   0  0  0  0  0  0  0  0  0  0  0  0
   -0.6206    0.9006    0.9646 N   0  0  0  0  0  0  0  0  0  0  0  0
   -1.6203    0.6381    0.1395 C   0  0  0  0  0  0  0  0  0  0  0  0
   -2.4684    1.6598   -0.4676 C   0  0  0  0  0  0  0  0  0  0  0  0
   -2.6796    1.6993   -1.8530 C   0  0  0  0  0  0  0  0  0  0  0  0
   -3.5176    2.6660   -2.4163 C   0  0  0  0  0  0  0  0  0  0  0  0
   -4.1434    3.6090   -1.6029 C   0  0  0  0  0  0  0  0  0  0  0  0
   -3.9161    3.6020   -0.2280 C   0  0  0  0  0  0  0  0  0  0  0  0
   -3.0713    2.6450    0.3286 C   0  0  0  0  0  0  0  0  0  0  0  0
   -2.8695    2.7179    1.6818 O   0  0  0  0  0  0  0  0  0  0  0  0
   -1.7693   -0.7337    0.0575 N   0  0  0  0  0  0  0  0  0  0  0  0
   -2.8255   -1.4699   -0.6138 C   0  0  0  0  0  0  0  0  0  0  0  0
   -3.8890   -1.9498    0.3447 C   0  0  0  0  0  0  0  0  0  0  0  0
   -4.7497   -1.0431    0.9829 C   0  0  0  0  0  0  0  0  0  0  0  0
   -5.7307   -1.4959    1.8666 C   0  0  0  0  0  0  0  0  0  0  0  0
   -5.8689   -2.8584    2.1188 C   0  0  0  0  0  0  0  0  0  0  0  0
   -5.0277   -3.7705    1.4862 C   0  0  0  0  0  0  0  0  0  0  0  0
   -4.0451   -3.3203    0.6027 C   0  0  0  0  0  0  0  0  0  0  0  0
    2.6934   -1.1081    1.0807 N   0  0  0  0  0  0  0  0  0  0  0  0
    3.6565   -0.6173    0.1835 N   0  0  0  0  0  0  0  0  0  0  0  0
    4.2558    0.5914    0.4787 C   0  0  0  0  0  0  0  0  0  0  0  0
    3.8907    1.3213    1.4002 O   0  0  0  0  0  0  0  0  0  0  0  0
    5.4283    0.9912   -0.3485 C   0  0  0  0  0  0  0  0  0  0  0  0
    5.6748    0.4198   -1.6067 C   0  0  0  0  0  0  0  0  0  0  0  0
    6.7948    0.8068   -2.3497 C   0  0  0  0  0  0  0  0  0  0  0  0
    7.6709    1.7684   -1.8485 C   0  0  0  0  0  0  0  0  0  0  0  0
    7.4246    2.3560   -0.6091 C   0  0  0  0  0  0  0  0  0  0  0  0
    6.3064    1.9762    0.1314 C   0  0  0  0  0  0  0  0  0  0  0  0
    6.1346    2.6171    1.3305 O   0  0  0  0  0  0  0  0  0  0  0  0
    1.1061   -2.2245    2.7271 H   0  0  0  0  0  0  0  0  0  0  0  0
    1.4238   -3.8784    2.2185 H   0  0  0  0  0  0  0  0  0  0  0  0
   -2.1840    0.9895   -2.5109 H   0  0  0  0  0  0  0  0  0  0  0  0
   -3.6773    2.6886   -3.4919 H   0  0  0  0  0  0  0  0  0  0  0  0
   -4.7941    4.3621   -2.0402 H   0  0  0  0  0  0  0  0  0  0  0  0
   -4.3825    4.3493    0.4086 H   0  0  0  0  0  0  0  0  0  0  0  0
   -2.0483    2.2278    1.8919 H   0  0  0  0  0  0  0  0  0  0  0  0
   -3.2895   -0.8415   -1.3772 H   0  0  0  0  0  0  0  0  0  0  0  0
   -2.3622   -2.3030   -1.1549 H   0  0  0  0  0  0  0  0  0  0  0  0
   -4.6708    0.0268    0.8025 H   0  0  0  0  0  0  0  0  0  0  0  0
   -6.3870   -0.7824    2.3592 H   0  0  0  0  0  0  0  0  0  0  0  0
   -6.6325   -3.2088    2.8082 H   0  0  0  0  0  0  0  0  0  0  0  0
   -5.1359   -4.8344    1.6823 H   0  0  0  0  0  0  0  0  0  0  0  0
   -3.4006   -4.0536    0.1214 H   0  0  0  0  0  0  0  0  0  0  0  0
    2.0252   -0.4186    1.4420 H   0  0  0  0  0  0  0  0  0  0  0  0
    4.1233   -1.3328   -0.3711 H   0  0  0  0  0  0  0  0  0  0  0  0
    5.0014   -0.3129   -2.0417 H   0  0  0  0  0  0  0  0  0  0  0  0
    6.9822    0.3609   -3.3239 H   0  0  0  0  0  0  0  0  0  0  0  0
    8.5420    2.0683   -2.4258 H   0  0  0  0  0  0  0  0  0  0  0  0
    8.0990    3.1139   -0.2190 H   0  0  0  0  0  0  0  0  0  0  0  0
    5.2539    2.3607    1.6874 H   0  0  0  0  0  0  0  0  0  0  0  0
  1  2  2  0
  2  3  1  0
  3  4  1  0
  4  5  1  0
  5  6  2  0
  6  7  1  0
  7  8  2  0
  8  9  1  0
  9 10  2  0
 10 11  1  0
 11 12  2  0
 12 13  1  0
 13 14  2  0
 14 15  1  0
  8 16  1  0
 16 17  1  0
 17 18  1  0
 18 19  2  0
 19 20  1  0
 20 21  2  0
 21 22  1  0
 22 23  2  0
  2 24  1  0
 24 25  1  0
 25 26  1  0
 26 27  2  0
 26 28  1  0
 28 29  2  0
 29 30  1  0
 30 31  2  0
 31 32  1  0
 32 33  2  0
 33 34  1  0
 16  5  1  0
 23 18  1  0
 33 28  1  0
 14  9  1  0
  3 35  1  0
  3 36  1  0
 10 37  1  0
 11 38  1  0
 12 39  1  0
 13 40  1  0
 15 41  1  0
 17 42  1  0
 17 43  1  0
 19 44  1  0
 20 45  1  0
 21 46  1  0
 22 47  1  0
 23 48  1  0
 24 49  1  0
 25 50  1  0
 29 51  1  0
 30 52  1  0
 31 53  1  0
 32 54  1  0
 34 55  1  0
M  END
$$$$
