
     RDKit          3D

 59 62  0  0  0  0  0  0  0  0999 V2000
   10.0923   -0.2134    0.9033 C   0  0  0  0  0  0  0  0  0  0  0  0
    8.6072   -0.0578    1.0440 C   0  0  0  0  0  0  0  0  0  0  0  0
    8.0152   -0.0082    2.3098 C   0  0  0  0  0  0  0  0  0  0  0  0
    6.6258    0.1037    2.4485 C   0  0  0  0  0  0  0  0  0  0  0  0
    5.8047    0.1719    1.3182 C   0  0  0  0  0  0  0  0  0  0  0  0
    4.3816    0.2830    1.4062 N   0  0  0  0  0  0  0  0  0  0  0  0
    3.6381   -0.0291    0.3104 N   0  0  0  0  0  0  0  0  0  0  0  0
    2.3740   -0.0421    0.7375 C   0  0  0  0  0  0  0  0  0  0  0  0
    1.1985   -0.3915   -0.0511 C   0  0  0  0  0  0  0  0  0  0  0  0
    1.2485   -0.7300   -1.2315 O   0  0  0  0  0  0  0  0  0  0  0  0
    0.0004   -0.2865    0.6877 N   0  0  0  0  0  0  0  0  0  0  0  0
   -1.2734   -0.5634    0.0280 C   0  0  0  0  0  0  0  0  0  0  0  0
   -1.7710    0.6548   -0.7552 C   0  0  0  0  0  0  0  0  0  0  0  0
   -3.2730    0.6216   -1.0296 C   0  0  0  0  0  0  0  0  0  0  0  0
   -3.7152   -0.4925   -1.9570 C   0  0  0  0  0  0  0  0  0  0  0  0
   -2.9652   -1.3496   -2.4057 O   0  0  0  0  0  0  0  0  0  0  0  0
   -5.0639   -0.4585   -2.2239 N   0  0  0  0  0  0  0  0  0  0  0  0
   -5.6431   -1.3660   -3.1870 C   0  0  0  0  0  0  0  0  0  0  0  0
   -7.1183   -1.2866   -3.0748 C   0  0  0  0  0  0  0  0  0  0  0  0
   -8.0887   -2.1817   -2.6756 C   0  0  0  0  0  0  0  0  0  0  0  0
   -9.3259   -1.5022   -2.7763 C   0  0  0  0  0  0  0  0  0  0  0  0
   -9.0365   -0.2328   -3.2289 C   0  0  0  0  0  0  0  0  0  0  0  0
   -9.8638    0.9483   -3.5436 C   0  0  0  0  0  0  0  0  0  0  0  0
   -7.6939   -0.0937   -3.4105 O   0  0  0  0  0  0  0  0  0  0  0  0
   -0.0921    0.1433    2.0176 N   0  0  0  0  0  0  0  0  0  0  0  0
    0.9748    0.4500    2.7010 C   0  0  0  0  0  0  0  0  0  0  0  0
    0.8033    0.8860    4.1283 C   0  0  0  0  0  0  0  0  0  0  0  0
    2.2692    0.3701    2.0702 C   0  0  0  0  0  0  0  0  0  0  0  0
    3.5599    0.6761    2.4709 C   0  0  0  0  0  0  0  0  0  0  0  0
    4.0410    1.3394    3.7104 C   0  0  0  0  0  0  0  0  0  0  0  0
    6.3991    0.0786    0.0485 C   0  0  0  0  0  0  0  0  0  0  0  0
    7.7864   -0.0325   -0.0859 C   0  0  0  0  0  0  0  0  0  0  0  0
   10.3600   -1.2752    0.9127 H   0  0  0  0  0  0  0  0  0  0  0  0
   10.6162    0.2926    1.7223 H   0  0  0  0  0  0  0  0  0  0  0  0
   10.4454    0.2331   -0.0334 H   0  0  0  0  0  0  0  0  0  0  0  0
    8.6341   -0.0702    3.2028 H   0  0  0  0  0  0  0  0  0  0  0  0
    6.2286    0.0831    3.4555 H   0  0  0  0  0  0  0  0  0  0  0  0
   -1.9956   -0.8544    0.7999 H   0  0  0  0  0  0  0  0  0  0  0  0
   -1.1391   -1.4223   -0.6377 H   0  0  0  0  0  0  0  0  0  0  0  0
   -1.5566    1.5682   -0.1838 H   0  0  0  0  0  0  0  0  0  0  0  0
   -1.2127    0.7398   -1.6965 H   0  0  0  0  0  0  0  0  0  0  0  0
   -3.8238    0.5267   -0.0867 H   0  0  0  0  0  0  0  0  0  0  0  0
   -3.5639    1.5731   -1.4905 H   0  0  0  0  0  0  0  0  0  0  0  0
   -5.5780    0.3938   -2.0404 H   0  0  0  0  0  0  0  0  0  0  0  0
   -5.3109   -1.0651   -4.1863 H   0  0  0  0  0  0  0  0  0  0  0  0
   -5.2814   -2.3818   -2.9945 H   0  0  0  0  0  0  0  0  0  0  0  0
   -7.9199   -3.1988   -2.3491 H   0  0  0  0  0  0  0  0  0  0  0  0
  -10.3090   -1.8895   -2.5474 H   0  0  0  0  0  0  0  0  0  0  0  0
   -9.8979    1.1102   -4.6254 H   0  0  0  0  0  0  0  0  0  0  0  0
   -9.4512    1.8462   -3.0719 H   0  0  0  0  0  0  0  0  0  0  0  0
  -10.8893    0.8162   -3.1833 H   0  0  0  0  0  0  0  0  0  0  0  0
   -0.2126    0.6688    4.4715 H   0  0  0  0  0  0  0  0  0  0  0  0
    0.9706    1.9640    4.2026 H   0  0  0  0  0  0  0  0  0  0  0  0
    1.5079    0.3563    4.7746 H   0  0  0  0  0  0  0  0  0  0  0  0
    3.2862    2.0226    4.1092 H   0  0  0  0  0  0  0  0  0  0  0  0
    4.2646    0.5987    4.4846 H   0  0  0  0  0  0  0  0  0  0  0  0
    4.9240    1.9587    3.5271 H   0  0  0  0  0  0  0  0  0  0  0  0
    5.7923    0.0983   -0.8564 H   0  0  0  0  0  0  0  0  0  0  0  0
    8.2162   -0.1017   -1.0827 H   0  0  0  0  0  0  0  0  0  0  0  0
  1  2  1  0
  2  3  2  0
  3  4  1  0
  4  5  2  0
  5  6  1  0
  6  7  1  0
  7  8  2  0
  8  9  1  0
  9 10  2  0
  9 11  1  0
 11 12  1  0
 12 13  1  0
 13 14  1  0
 14 15  1  0
 15 16  2  0
 15 17  1  0
 17 18  1  0
 18 19  1  0
 19 20  2  0
 20 21  1  0
 21 22  2  0
 22 23  1  0
 22 24  1  0
 11 25  1  0
 25 26  2  0
 26 27  1  0
 26 28  1  0
 28 29  2  0
 29 30  1  0
  5 31  1  0
 31 32  2  0
 32  2  1  0
 29  6  1  0
 28  8  1  0
 24 19  1  0
  1 33  1  0
  1 34  1  0
  1 35  1  0
  3 36  1  0
  4 37  1  0
 12 38  1  0
 12 39  1  0
 13 40  1  0
 13 41  1  0
 14 42  1  0
 14 43  1  0
 17 44  1  0
 18 45  1  0
 18 46  1  0
 20 47  1  0
 21 48  1  0
 23 49  1  0
 23 50  1  0
 23 51  1  0
 27 52  1  0
 27 53  1  0
 27 54  1  0
 30 55  1  0
 30 56  1  0
 30 57  1  0
 31 58  1  0
 32 59  1  0
M  END
$$$$
