
     RDKit          3D

 33 33  0  0  0  0  0  0  0  0999 V2000
   -4.5886    0.7851    0.8107 C   0  0  0  0  0  0  0  0  0  0  0  0
   -3.0850    0.5268    0.9356 C   0  0  0  0  0  0  0  0  0  0  0  0
   -2.8174   -0.3913    2.1310 C   0  0  0  0  0  0  0  0  0  0  0  0
   -2.5464   -0.0669   -0.3808 C   0  0  0  0  0  0  0  0  0  0  0  0
   -1.0403   -0.1596   -0.4367 C   0  0  0  0  0  0  0  0  0  0  0  0
   -0.3978   -1.3989   -0.3449 C   0  0  0  0  0  0  0  0  0  0  0  0
    0.9965   -1.4823   -0.3948 C   0  0  0  0  0  0  0  0  0  0  0  0
    1.7812   -0.3280   -0.5377 C   0  0  0  0  0  0  0  0  0  0  0  0
    3.2972   -0.4439   -0.5763 C   0  0  0  0  0  0  0  0  0  0  0  0
    3.9559    0.3205    0.5724 C   0  0  0  0  0  0  0  0  0  0  0  0
    3.9043    0.0082   -1.8936 C   0  0  0  0  0  0  0  0  0  0  0  0
    3.5044    0.8759   -2.6521 O   0  0  0  0  0  0  0  0  0  0  0  0
    5.0548   -0.6440   -2.1756 O   0  0  0  0  0  0  0  0  0  0  0  0
    1.1318    0.9113   -0.6312 C   0  0  0  0  0  0  0  0  0  0  0  0
   -0.2622    0.9942   -0.5825 C   0  0  0  0  0  0  0  0  0  0  0  0
   -4.9844    1.2325    1.7286 H   0  0  0  0  0  0  0  0  0  0  0  0
   -4.7974    1.4761   -0.0129 H   0  0  0  0  0  0  0  0  0  0  0  0
   -5.1376   -0.1439    0.6222 H   0  0  0  0  0  0  0  0  0  0  0  0
   -2.5964    1.4899    1.1305 H   0  0  0  0  0  0  0  0  0  0  0  0
   -1.7441   -0.5172    2.3040 H   0  0  0  0  0  0  0  0  0  0  0  0
   -3.2477    0.0293    3.0463 H   0  0  0  0  0  0  0  0  0  0  0  0
   -3.2567   -1.3828    1.9768 H   0  0  0  0  0  0  0  0  0  0  0  0
   -2.8733    0.5510   -1.2280 H   0  0  0  0  0  0  0  0  0  0  0  0
   -2.9880   -1.0575   -0.5518 H   0  0  0  0  0  0  0  0  0  0  0  0
   -0.9786   -2.3114   -0.2307 H   0  0  0  0  0  0  0  0  0  0  0  0
    1.4628   -2.4622   -0.3178 H   0  0  0  0  0  0  0  0  0  0  0  0
    3.5525   -1.5066   -0.4634 H   0  0  0  0  0  0  0  0  0  0  0  0
    3.8049    1.4021    0.4823 H   0  0  0  0  0  0  0  0  0  0  0  0
    3.5529    0.0026    1.5402 H   0  0  0  0  0  0  0  0  0  0  0  0
    5.0378    0.1470    0.5836 H   0  0  0  0  0  0  0  0  0  0  0  0
    5.3369   -0.2530   -3.0295 H   0  0  0  0  0  0  0  0  0  0  0  0
    1.7050    1.8277   -0.7581 H   0  0  0  0  0  0  0  0  0  0  0  0
   -0.7371    1.9693   -0.6655 H   0  0  0  0  0  0  0  0  0  0  0  0
  1  2  1  0
  2  3  1  0
  2  4  1  0
  4  5  1  0
  5  6  2  0
  6  7  1  0
  7  8  2  0
  8  9  1  0
  9 10  1  0
  9 11  1  0
 11 12  2  0
 11 13  1  0
  8 14  1  0
 14 15  2  0
 15  5  1  0
  1 16  1  0
  1 17  1  0
  1 18  1  0
  2 19  1  0
  3 20  1  0
  3 21  1  0
  3 22  1  0
  4 23  1  0
  4 24  1  0
  6 25  1  0
  7 26  1  0
  9 27  1  0
 10 28  1  0
 10 29  1  0
 10 30  1  0
 13 31  1  0
 14 32  1  0
 15 33  1  0
M  END
$$$$
