
     RDKit          3D

 37 39  0  0  0  0  0  0  0  0999 V2000
    4.2924    0.4757    1.5815 N   0  0  0  0  0  0  0  0  0  0  0  0
    3.5374    0.1920    0.3670 C   0  0  0  0  0  0  0  0  0  0  0  0
    2.0549   -0.0147    0.6679 C   0  0  0  0  0  0  0  0  0  0  0  0
    1.2782   -0.3064   -0.6250 C   0  0  0  0  0  0  0  0  0  0  0  0
   -0.1626   -0.5262   -0.3598 N   0  0  0  0  0  0  0  0  0  0  0  0
   -0.5848   -1.8733   -0.1510 C   0  0  0  0  0  0  0  0  0  0  0  0
    0.3266   -2.9124    0.1495 C   0  0  0  0  0  0  0  0  0  0  0  0
   -0.0793   -4.2350    0.3684 C   0  0  0  0  0  0  0  0  0  0  0  0
   -1.4206   -4.5678    0.2978 C   0  0  0  0  0  0  0  0  0  0  0  0
   -2.3484   -3.5739    0.0113 C   0  0  0  0  0  0  0  0  0  0  0  0
   -1.9447   -2.2411   -0.2073 C   0  0  0  0  0  0  0  0  0  0  0  0
   -3.2553   -1.1045   -0.5885 S   0  0  0  0  0  0  0  0  0  0  0  0
   -2.4254    0.4642   -0.5287 C   0  0  0  0  0  0  0  0  0  0  0  0
   -3.2665    1.5918   -0.6039 C   0  0  0  0  0  0  0  0  0  0  0  0
   -2.7464    2.8814   -0.5876 C   0  0  0  0  0  0  0  0  0  0  0  0
   -1.3702    3.0656   -0.4887 C   0  0  0  0  0  0  0  0  0  0  0  0
   -0.7707    4.4501   -0.4800 C   0  0  0  0  0  0  0  0  0  0  0  0
   -0.3259    4.8273   -1.7099 F   0  0  0  0  0  0  0  0  0  0  0  0
   -1.6447    5.4161   -0.0832 F   0  0  0  0  0  0  0  0  0  0  0  0
    0.3026    4.5549    0.3530 F   0  0  0  0  0  0  0  0  0  0  0  0
   -0.5346    1.9314   -0.4263 C   0  0  0  0  0  0  0  0  0  0  0  0
   -1.0260    0.6047   -0.4457 C   0  0  0  0  0  0  0  0  0  0  0  0
    4.1675   -0.2801    2.2549 H   0  0  0  0  0  0  0  0  0  0  0  0
    3.9234    1.3125    2.0336 H   0  0  0  0  0  0  0  0  0  0  0  0
    3.6698    1.0239   -0.3332 H   0  0  0  0  0  0  0  0  0  0  0  0
    3.9555   -0.7026   -0.1070 H   0  0  0  0  0  0  0  0  0  0  0  0
    1.6511    0.8744    1.1657 H   0  0  0  0  0  0  0  0  0  0  0  0
    1.9341   -0.8374    1.3821 H   0  0  0  0  0  0  0  0  0  0  0  0
    1.4261    0.5051   -1.3495 H   0  0  0  0  0  0  0  0  0  0  0  0
    1.7183   -1.1646   -1.1496 H   0  0  0  0  0  0  0  0  0  0  0  0
    1.3916   -2.7281    0.2415 H   0  0  0  0  0  0  0  0  0  0  0  0
    0.6602   -4.9982    0.5979 H   0  0  0  0  0  0  0  0  0  0  0  0
   -1.7461   -5.5905    0.4655 H   0  0  0  0  0  0  0  0  0  0  0  0
   -3.4015   -3.8436   -0.0435 H   0  0  0  0  0  0  0  0  0  0  0  0
   -4.3457    1.4652   -0.6787 H   0  0  0  0  0  0  0  0  0  0  0  0
   -3.4206    3.7339   -0.6486 H   0  0  0  0  0  0  0  0  0  0  0  0
    0.5305    2.1302   -0.3420 H   0  0  0  0  0  0  0  0  0  0  0  0
  1  2  1  0
  2  3  1  0
  3  4  1  0
  4  5  1  0
  5  6  1  0
  6  7  2  0
  7  8  1  0
  8  9  2  0
  9 10  1  0
 10 11  2  0
 11 12  1  0
 12 13  1  0
 13 14  2  0
 14 15  1  0
 15 16  2  0
 16 17  1  0
 17 18  1  0
 17 19  1  0
 17 20  1  0
 16 21  1  0
 21 22  2  0
 22  5  1  0
 11  6  1  0
 22 13  1  0
  1 23  1  0
  1 24  1  0
  2 25  1  0
  2 26  1  0
  3 27  1  0
  3 28  1  0
  4 29  1  0
  4 30  1  0
  7 31  1  0
  8 32  1  0
  9 33  1  0
 10 34  1  0
 14 35  1  0
 15 36  1  0
 21 37  1  0
M  END
$$$$
