
     RDKit          3D

 36 39  0  0  0  0  0  0  0  0999 V2000
   -6.3521    2.2918   -2.1629 C   0  0  0  0  0  0  0  0  0  0  0  0
   -5.5893    1.4659   -1.1700 C   0  0  0  0  0  0  0  0  0  0  0  0
   -5.7365    1.5361    0.0425 O   0  0  0  0  0  0  0  0  0  0  0  0
   -4.7155    0.6328   -1.8619 O   0  0  0  0  0  0  0  0  0  0  0  0
   -3.9139   -0.2118   -1.0815 C   0  0  0  0  0  0  0  0  0  0  0  0
   -3.9782   -1.5772   -1.3499 C   0  0  0  0  0  0  0  0  0  0  0  0
   -3.1669   -2.4530   -0.6316 C   0  0  0  0  0  0  0  0  0  0  0  0
   -2.2895   -1.9587    0.3377 C   0  0  0  0  0  0  0  0  0  0  0  0
   -2.2079   -0.5818    0.5844 C   0  0  0  0  0  0  0  0  0  0  0  0
   -1.3085   -0.0488    1.6101 C   0  0  0  0  0  0  0  0  0  0  0  0
    0.0308   -0.0184    1.5451 C   0  0  0  0  0  0  0  0  0  0  0  0
    0.9979    0.6627    2.8556 S   0  0  0  0  0  0  0  0  0  0  0  0
    2.4257    0.3207    1.9740 C   0  0  0  0  0  0  0  0  0  0  0  0
    3.6999    0.4858    2.1763 N   0  0  0  0  0  0  0  0  0  0  0  0
    4.2357   -0.0410    1.0109 C   0  0  0  0  0  0  0  0  0  0  0  0
    5.7769   -0.0831    0.7474 C   0  0  0  0  0  0  0  0  0  0  0  0
    6.3907   -0.5890   -0.3830 C   0  0  0  0  0  0  0  0  0  0  0  0
    7.7851   -0.4253   -0.1984 C   0  0  0  0  0  0  0  0  0  0  0  0
    7.9382    0.1694    1.0311 C   0  0  0  0  0  0  0  0  0  0  0  0
    6.7298    0.3809    1.6119 O   0  0  0  0  0  0  0  0  0  0  0  0
    3.3327   -0.5131    0.1250 N   0  0  0  0  0  0  0  0  0  0  0  0
    2.1871   -0.2602    0.7830 N   0  0  0  0  0  0  0  0  0  0  0  0
    0.8827   -0.5100    0.4107 C   0  0  0  0  0  0  0  0  0  0  0  0
    0.5797   -1.0297   -0.6460 O   0  0  0  0  0  0  0  0  0  0  0  0
   -3.0247    0.2970   -0.1339 C   0  0  0  0  0  0  0  0  0  0  0  0
   -5.6596    2.9055   -2.7444 H   0  0  0  0  0  0  0  0  0  0  0  0
   -7.0406    2.9537   -1.6299 H   0  0  0  0  0  0  0  0  0  0  0  0
   -6.9338    1.6392   -2.8187 H   0  0  0  0  0  0  0  0  0  0  0  0
   -4.6531   -1.9582   -2.1105 H   0  0  0  0  0  0  0  0  0  0  0  0
   -3.2112   -3.5211   -0.8286 H   0  0  0  0  0  0  0  0  0  0  0  0
   -1.6659   -2.6591    0.8883 H   0  0  0  0  0  0  0  0  0  0  0  0
   -1.8262    0.3625    2.4757 H   0  0  0  0  0  0  0  0  0  0  0  0
    5.8831   -1.0224   -1.2342 H   0  0  0  0  0  0  0  0  0  0  0  0
    8.5788   -0.7056   -0.8764 H   0  0  0  0  0  0  0  0  0  0  0  0
    8.7947    0.4908    1.6075 H   0  0  0  0  0  0  0  0  0  0  0  0
   -2.9762    1.3674    0.0449 H   0  0  0  0  0  0  0  0  0  0  0  0
  1  2  1  0
  2  3  2  0
  2  4  1  0
  4  5  1  0
  5  6  2  0
  6  7  1  0
  7  8  2  0
  8  9  1  0
  9 10  1  0
 10 11  2  3
 11 12  1  0
 12 13  1  0
 13 14  2  0
 14 15  1  0
 15 16  1  0
 16 17  2  0
 17 18  1  0
 18 19  2  0
 19 20  1  0
 15 21  2  0
 21 22  1  0
 22 23  1  0
 23 24  2  0
  9 25  2  0
 25  5  1  0
 23 11  1  0
 22 13  1  0
 20 16  1  0
  1 26  1  0
  1 27  1  0
  1 28  1  0
  6 29  1  0
  7 30  1  0
  8 31  1  0
 10 32  1  0
 17 33  1  0
 18 34  1  0
 19 35  1  0
 25 36  1  0
M  END
$$$$
