
     RDKit          3D

 57 61  0  0  0  0  0  0  0  0999 V2000
   -7.0708    1.4690   -2.4500 C   0  0  0  0  0  0  0  0  0  0  0  0
   -6.3332    1.0656   -1.2077 C   0  0  0  0  0  0  0  0  0  0  0  0
   -5.2743    1.8435   -0.7272 C   0  0  0  0  0  0  0  0  0  0  0  0
   -4.5656    1.4509    0.4106 C   0  0  0  0  0  0  0  0  0  0  0  0
   -4.9008    0.2693    1.0858 C   0  0  0  0  0  0  0  0  0  0  0  0
   -4.1281   -0.1627    2.3063 C   0  0  0  0  0  0  0  0  0  0  0  0
   -3.0912   -1.1145    1.9674 N   0  0  0  0  0  0  0  0  0  0  0  0
   -3.2994   -2.4494    2.0974 N   0  0  0  0  0  0  0  0  0  0  0  0
   -2.1802   -3.0730    1.7284 N   0  0  0  0  0  0  0  0  0  0  0  0
   -1.2773   -2.1140    1.3908 C   0  0  0  0  0  0  0  0  0  0  0  0
    0.0764   -2.2150    0.9248 C   0  0  0  0  0  0  0  0  0  0  0  0
    0.7014   -3.2528    0.7373 O   0  0  0  0  0  0  0  0  0  0  0  0
    0.6484   -0.9681    0.6946 N   0  0  0  0  0  0  0  0  0  0  0  0
    0.0010    0.2423    0.8998 C   0  0  0  0  0  0  0  0  0  0  0  0
    0.7735    1.5276    0.6015 C   0  0  0  0  0  0  0  0  0  0  0  0
    1.1058    1.6983   -0.8836 C   0  0  0  0  0  0  0  0  0  0  0  0
    2.4185    1.0542   -1.3129 C   0  0  0  0  0  0  0  0  0  0  0  0
    3.5010    1.4690   -0.3966 N   0  0  0  0  0  0  0  0  0  0  0  0
    5.1008    1.2808   -0.9809 S   0  0  0  0  0  6  0  0  0  0  0  0
    6.0083    1.7976    0.0210 O   0  0  0  0  0  0  0  0  0  0  0  0
    5.1390    1.7571   -2.3469 O   0  0  0  0  0  0  0  0  0  0  0  0
    5.2931   -0.4895   -1.0211 C   0  0  0  0  0  0  0  0  0  0  0  0
    5.8048   -1.1550    0.0975 C   0  0  0  0  0  0  0  0  0  0  0  0
    5.9465   -2.5418    0.0645 C   0  0  0  0  0  0  0  0  0  0  0  0
    5.5942   -3.2529   -1.0840 C   0  0  0  0  0  0  0  0  0  0  0  0
    5.1114   -2.5810   -2.2084 C   0  0  0  0  0  0  0  0  0  0  0  0
    4.9666   -1.1943   -2.1840 C   0  0  0  0  0  0  0  0  0  0  0  0
    3.2734    1.0957    1.0146 C   0  0  0  0  0  0  0  0  0  0  0  0
    1.9836    1.7342    1.5169 C   0  0  0  0  0  0  0  0  0  0  0  0
   -1.2280    0.3405    1.3306 N   0  0  0  0  0  0  0  0  0  0  0  0
   -1.8159   -0.8611    1.5495 C   0  0  0  0  0  0  0  0  0  0  0  0
   -5.9466   -0.5204    0.5887 C   0  0  0  0  0  0  0  0  0  0  0  0
   -6.6539   -0.1265   -0.5493 C   0  0  0  0  0  0  0  0  0  0  0  0
   -6.5817    1.0419   -3.3309 H   0  0  0  0  0  0  0  0  0  0  0  0
   -7.0964    2.5591   -2.5525 H   0  0  0  0  0  0  0  0  0  0  0  0
   -8.1091    1.1219   -2.4177 H   0  0  0  0  0  0  0  0  0  0  0  0
   -4.9921    2.7612   -1.2388 H   0  0  0  0  0  0  0  0  0  0  0  0
   -3.7422    2.0710    0.7603 H   0  0  0  0  0  0  0  0  0  0  0  0
   -3.6538    0.6935    2.7996 H   0  0  0  0  0  0  0  0  0  0  0  0
   -4.7940   -0.6265    3.0435 H   0  0  0  0  0  0  0  0  0  0  0  0
    1.5961   -1.0256    0.3633 H   0  0  0  0  0  0  0  0  0  0  0  0
    0.0639    2.3323    0.8491 H   0  0  0  0  0  0  0  0  0  0  0  0
    1.1766    2.7749   -1.0900 H   0  0  0  0  0  0  0  0  0  0  0  0
    0.2902    1.3151   -1.5084 H   0  0  0  0  0  0  0  0  0  0  0  0
    2.3299   -0.0351   -1.3301 H   0  0  0  0  0  0  0  0  0  0  0  0
    2.6341    1.3820   -2.3353 H   0  0  0  0  0  0  0  0  0  0  0  0
    6.0975   -0.6049    0.9893 H   0  0  0  0  0  0  0  0  0  0  0  0
    6.3398   -3.0711    0.9297 H   0  0  0  0  0  0  0  0  0  0  0  0
    5.7088   -4.3347   -1.1075 H   0  0  0  0  0  0  0  0  0  0  0  0
    4.8571   -3.1406   -3.1059 H   0  0  0  0  0  0  0  0  0  0  0  0
    4.6064   -0.6749   -3.0695 H   0  0  0  0  0  0  0  0  0  0  0  0
    4.0932    1.4573    1.6441 H   0  0  0  0  0  0  0  0  0  0  0  0
    3.2355    0.0085    1.1201 H   0  0  0  0  0  0  0  0  0  0  0  0
    1.7682    1.3724    2.5295 H   0  0  0  0  0  0  0  0  0  0  0  0
    2.1570    2.8156    1.6036 H   0  0  0  0  0  0  0  0  0  0  0  0
   -6.2113   -1.4561    1.0787 H   0  0  0  0  0  0  0  0  0  0  0  0
   -7.4559   -0.7606   -0.9211 H   0  0  0  0  0  0  0  0  0  0  0  0
  1  2  1  0
  2  3  2  0
  3  4  1  0
  4  5  2  0
  5  6  1  0
  6  7  1  0
  7  8  1  0
  8  9  2  0
  9 10  1  0
 10 11  1  0
 11 12  2  0
 11 13  1  0
 13 14  1  0
 14 15  1  0
 15 16  1  0
 16 17  1  0
 17 18  1  0
 18 19  1  0
 19 20  2  0
 19 21  2  0
 19 22  1  0
 22 23  2  0
 23 24  1  0
 24 25  2  0
 25 26  1  0
 26 27  2  0
 18 28  1  0
 28 29  1  0
 14 30  2  0
 30 31  1  0
  5 32  1  0
 32 33  2  0
 33  2  1  0
 31  7  1  0
 31 10  2  0
 29 15  1  0
 27 22  1  0
  1 34  1  0
  1 35  1  0
  1 36  1  0
  3 37  1  0
  4 38  1  0
  6 39  1  0
  6 40  1  0
 13 41  1  0
 15 42  1  0
 16 43  1  0
 16 44  1  0
 17 45  1  0
 17 46  1  0
 23 47  1  0
 24 48  1  0
 25 49  1  0
 26 50  1  0
 27 51  1  0
 28 52  1  0
 28 53  1  0
 29 54  1  0
 29 55  1  0
 32 56  1  0
 33 57  1  0
M  END
$$$$
