
     RDKit          3D

 34 36  0  0  0  0  0  0  0  0999 V2000
    3.4898    0.3211   -1.4745 C   0  0  0  0  0  0  0  0  0  0  0  0
    3.9820   -0.0361   -0.1622 N   0  0  0  0  0  0  0  0  0  0  0  0
    5.2189   -0.5664   -0.0615 N   0  0  0  0  0  0  0  0  0  0  0  0
    5.4097   -0.6658    1.2560 C   0  0  0  0  0  0  0  0  0  0  0  0
    4.2916   -0.2361    1.9898 C   0  0  0  0  0  0  0  0  0  0  0  0
    4.1687   -0.2423    3.6798 Cl  0  0  0  0  0  0  0  0  0  0  0  0
    3.3519    0.1336    1.0484 C   0  0  0  0  0  0  0  0  0  0  0  0
    2.0199    0.6507    1.2577 C   0  0  0  0  0  0  0  0  0  0  0  0
    1.8125    1.5682    2.0399 O   0  0  0  0  0  0  0  0  0  0  0  0
    1.0715   -0.0193    0.5096 N   0  0  0  0  0  0  0  0  0  0  0  0
   -0.2868    0.2489    0.4098 C   0  0  0  0  0  0  0  0  0  0  0  0
   -0.9952    1.5908    1.2013 S   0  0  0  0  0  0  0  0  0  0  0  0
   -2.4904    1.2073    0.5769 C   0  0  0  0  0  0  0  0  0  0  0  0
   -2.4986    0.0954   -0.2196 C   0  0  0  0  0  0  0  0  0  0  0  0
   -1.2075   -0.5009   -0.3326 C   0  0  0  0  0  0  0  0  0  0  0  0
   -0.8012   -1.6816   -1.0909 C   0  0  0  0  0  0  0  0  0  0  0  0
   -1.7962   -2.4916   -1.5527 N   0  0  0  0  0  0  0  0  0  0  0  0
    0.3771   -1.9719   -1.2878 O   0  0  0  0  0  0  0  0  0  0  0  0
   -3.8665   -0.1461   -0.7528 C   0  0  0  0  0  0  0  0  0  0  0  0
   -4.5995    1.1938   -0.4342 C   0  0  0  0  0  0  0  0  0  0  0  0
   -3.8053    1.8735    0.7193 C   0  0  0  0  0  0  0  0  0  0  0  0
    2.9498   -0.5374   -1.8800 H   0  0  0  0  0  0  0  0  0  0  0  0
    2.8342    1.1909   -1.3925 H   0  0  0  0  0  0  0  0  0  0  0  0
    4.3385    0.5714   -2.1170 H   0  0  0  0  0  0  0  0  0  0  0  0
    6.3517   -1.0503    1.6246 H   0  0  0  0  0  0  0  0  0  0  0  0
    1.3693   -0.8448   -0.0082 H   0  0  0  0  0  0  0  0  0  0  0  0
   -1.5035   -3.3723   -1.9547 H   0  0  0  0  0  0  0  0  0  0  0  0
   -2.7328   -2.4363   -1.1842 H   0  0  0  0  0  0  0  0  0  0  0  0
   -4.3438   -0.9751   -0.2196 H   0  0  0  0  0  0  0  0  0  0  0  0
   -3.8746   -0.3492   -1.8272 H   0  0  0  0  0  0  0  0  0  0  0  0
   -5.6536    1.0420   -0.1821 H   0  0  0  0  0  0  0  0  0  0  0  0
   -4.5627    1.8393   -1.3219 H   0  0  0  0  0  0  0  0  0  0  0  0
   -3.7612    2.9577    0.5857 H   0  0  0  0  0  0  0  0  0  0  0  0
   -4.2574    1.6390    1.6884 H   0  0  0  0  0  0  0  0  0  0  0  0
  1  2  1  0
  2  3  1  0
  3  4  2  0
  4  5  1  0
  5  6  1  0
  5  7  2  0
  7  8  1  0
  8  9  2  0
  8 10  1  0
 10 11  1  0
 11 12  1  0
 12 13  1  0
 13 14  2  0
 14 15  1  0
 15 16  1  0
 16 17  1  0
 16 18  2  0
 14 19  1  0
 19 20  1  0
 20 21  1  0
  7  2  1  0
 15 11  2  0
 21 13  1  0
  1 22  1  0
  1 23  1  0
  1 24  1  0
  4 25  1  0
 10 26  1  0
 17 27  1  0
 17 28  1  0
 19 29  1  0
 19 30  1  0
 20 31  1  0
 20 32  1  0
 21 33  1  0
 21 34  1  0
M  END
$$$$
