
     RDKit          3D

 33 34  0  0  0  0  0  0  0  0999 V2000
   -1.7614    4.1953    0.4452 C   0  0  0  0  0  0  0  0  0  0  0  0
   -0.9896    3.0217    0.1903 O   0  0  0  0  0  0  0  0  0  0  0  0
   -0.5174    2.4335    1.3150 C   0  0  0  0  0  0  0  0  0  0  0  0
   -0.5773    2.8472    2.4591 O   0  0  0  0  0  0  0  0  0  0  0  0
    0.2456    1.2437    0.9208 C   0  0  0  0  0  0  0  0  0  0  0  0
    1.6079    1.2597    1.2134 C   0  0  0  0  0  0  0  0  0  0  0  0
    2.3592    0.1868    0.7946 C   0  0  0  0  0  0  0  0  0  0  0  0
    3.7059    0.2286    1.0830 O   0  0  0  0  0  0  0  0  0  0  0  0
    4.4154   -0.9236    0.6382 C   0  0  0  0  0  0  0  0  0  0  0  0
    1.8439   -0.8598    0.1189 N   0  0  0  0  0  0  0  0  0  0  0  0
    0.5111   -0.8692   -0.1423 C   0  0  0  0  0  0  0  0  0  0  0  0
   -0.3268    0.1536    0.2601 C   0  0  0  0  0  0  0  0  0  0  0  0
   -1.7670    0.0103    0.0175 C   0  0  0  0  0  0  0  0  0  0  0  0
   -2.5628    0.7401    0.5999 O   0  0  0  0  0  0  0  0  0  0  0  0
   -2.1551   -1.0081   -0.8398 N   0  0  0  0  0  0  0  0  0  0  0  0
   -3.5685   -1.1164   -1.1554 C   0  0  0  0  0  0  0  0  0  0  0  0
   -1.3373   -2.0651   -1.2156 C   0  0  0  0  0  0  0  0  0  0  0  0
   -1.7797   -3.0381   -1.8292 O   0  0  0  0  0  0  0  0  0  0  0  0
   -0.0090   -1.9732   -0.8477 N   0  0  0  0  0  0  0  0  0  0  0  0
    0.9196   -3.0328   -1.2150 C   0  0  0  0  0  0  0  0  0  0  0  0
   -2.1572    4.5544   -0.5087 H   0  0  0  0  0  0  0  0  0  0  0  0
   -1.1308    4.9788    0.8768 H   0  0  0  0  0  0  0  0  0  0  0  0
   -2.6044    3.9682    1.1057 H   0  0  0  0  0  0  0  0  0  0  0  0
    2.0677    2.0891    1.7410 H   0  0  0  0  0  0  0  0  0  0  0  0
    4.0427   -1.8315    1.1252 H   0  0  0  0  0  0  0  0  0  0  0  0
    4.3743   -1.0173   -0.4526 H   0  0  0  0  0  0  0  0  0  0  0  0
    5.4647   -0.7995    0.9227 H   0  0  0  0  0  0  0  0  0  0  0  0
   -4.0533   -0.1358   -1.1339 H   0  0  0  0  0  0  0  0  0  0  0  0
   -3.7090   -1.5554   -2.1479 H   0  0  0  0  0  0  0  0  0  0  0  0
   -4.0408   -1.7651   -0.4106 H   0  0  0  0  0  0  0  0  0  0  0  0
    1.3840   -3.4407   -0.3111 H   0  0  0  0  0  0  0  0  0  0  0  0
    1.6880   -2.6268   -1.8813 H   0  0  0  0  0  0  0  0  0  0  0  0
    0.4177   -3.8525   -1.7365 H   0  0  0  0  0  0  0  0  0  0  0  0
  1  2  1  0
  2  3  1  0
  3  4  2  0
  3  5  1  0
  5  6  2  0
  6  7  1  0
  7  8  1  0
  8  9  1  0
  7 10  2  0
 10 11  1  0
 11 12  2  0
 12 13  1  0
 13 14  2  0
 13 15  1  0
 15 16  1  0
 15 17  1  0
 17 18  2  0
 17 19  1  0
 19 20  1  0
 12  5  1  0
 19 11  1  0
  1 21  1  0
  1 22  1  0
  1 23  1  0
  6 24  1  0
  9 25  1  0
  9 26  1  0
  9 27  1  0
 16 28  1  0
 16 29  1  0
 16 30  1  0
 20 31  1  0
 20 32  1  0
 20 33  1  0
M  END
$$$$
