
     RDKit          3D

 34 36  0  0  0  0  0  0  0  0999 V2000
    5.2206    0.4929   -1.8624 C   0  0  0  0  0  0  0  0  0  0  0  0
    4.6265    0.6352   -0.5546 N   0  0  0  0  0  0  0  0  0  0  0  0
    5.2647    0.9579    0.6024 C   0  0  0  0  0  0  0  0  0  0  0  0
    4.2868    0.9781    1.5636 C   0  0  0  0  0  0  0  0  0  0  0  0
    4.5464    1.3666    3.3756 Br  0  0  0  0  0  0  0  0  0  0  0  0
    3.0736    0.6547    0.9097 C   0  0  0  0  0  0  0  0  0  0  0  0
    1.7077    0.5373    1.4630 C   0  0  0  0  0  0  0  0  0  0  0  0
    1.4775    0.7020    2.6548 O   0  0  0  0  0  0  0  0  0  0  0  0
    0.7921    0.2236    0.4738 N   0  0  0  0  0  0  0  0  0  0  0  0
   -0.5766    0.0483    0.5864 C   0  0  0  0  0  0  0  0  0  0  0  0
   -1.3661    0.2516    2.0934 S   0  0  0  0  0  0  0  0  0  0  0  0
   -2.8450   -0.0612    1.3976 C   0  0  0  0  0  0  0  0  0  0  0  0
   -2.7892   -0.3458    0.0612 C   0  0  0  0  0  0  0  0  0  0  0  0
   -1.4546   -0.2920   -0.4506 C   0  0  0  0  0  0  0  0  0  0  0  0
   -0.9924   -0.5073   -1.8201 C   0  0  0  0  0  0  0  0  0  0  0  0
   -1.8469   -1.1593   -2.6620 N   0  0  0  0  0  0  0  0  0  0  0  0
    0.1187   -0.1733   -2.2219 O   0  0  0  0  0  0  0  0  0  0  0  0
   -4.1604   -0.5713   -0.4728 C   0  0  0  0  0  0  0  0  0  0  0  0
   -5.0184   -0.7112    0.8235 C   0  0  0  0  0  0  0  0  0  0  0  0
   -4.2078   -0.0517    1.9749 C   0  0  0  0  0  0  0  0  0  0  0  0
    3.3038    0.4393   -0.4080 N   0  0  0  0  0  0  0  0  0  0  0  0
    6.2949    0.6821   -1.7965 H   0  0  0  0  0  0  0  0  0  0  0  0
    4.7538    1.2185   -2.5331 H   0  0  0  0  0  0  0  0  0  0  0  0
    5.0416   -0.5267   -2.2127 H   0  0  0  0  0  0  0  0  0  0  0  0
    6.3284    1.1434    0.6466 H   0  0  0  0  0  0  0  0  0  0  0  0
    1.1929    0.1325   -0.4643 H   0  0  0  0  0  0  0  0  0  0  0  0
   -1.4450   -1.4346   -3.5481 H   0  0  0  0  0  0  0  0  0  0  0  0
   -2.5786   -1.7429   -2.2895 H   0  0  0  0  0  0  0  0  0  0  0  0
   -4.4888    0.2939   -1.0582 H   0  0  0  0  0  0  0  0  0  0  0  0
   -4.2503   -1.4757   -1.0784 H   0  0  0  0  0  0  0  0  0  0  0  0
   -5.1534   -1.7777    1.0476 H   0  0  0  0  0  0  0  0  0  0  0  0
   -6.0148   -0.2725    0.7108 H   0  0  0  0  0  0  0  0  0  0  0  0
   -4.5507    0.9736    2.1480 H   0  0  0  0  0  0  0  0  0  0  0  0
   -4.2912   -0.6282    2.9002 H   0  0  0  0  0  0  0  0  0  0  0  0
  1  2  1  0
  2  3  1  0
  3  4  2  0
  4  5  1  0
  4  6  1  0
  6  7  1  0
  7  8  2  0
  7  9  1  0
  9 10  1  0
 10 11  1  0
 11 12  1  0
 12 13  2  0
 13 14  1  0
 14 15  1  0
 15 16  1  0
 15 17  2  0
 13 18  1  0
 18 19  1  0
 19 20  1  0
  6 21  2  0
 21  2  1  0
 14 10  2  0
 20 12  1  0
  1 22  1  0
  1 23  1  0
  1 24  1  0
  3 25  1  0
  9 26  1  0
 16 27  1  0
 16 28  1  0
 18 29  1  0
 18 30  1  0
 19 31  1  0
 19 32  1  0
 20 33  1  0
 20 34  1  0
M  END
$$$$
