
     RDKit          3D

 53 58  0  0  0  0  0  0  0  0999 V2000
    0.9384   -1.8361   -1.0140 O   0  0  0  0  0  0  0  0  0  0  0  0
    1.4698   -1.1091   -0.1694 C   0  0  0  0  0  0  0  0  0  0  0  0
    0.7104   -0.8676    1.1537 C   0  0  0  0  0  0  0  0  0  0  0  0
   -0.7330   -0.6966    0.8976 N   0  0  0  0  0  4  0  0  0  0  0  0
   -1.4401    0.5048    0.8768 C   0  0  0  0  0  0  0  0  0  0  0  0
   -2.7625    0.2453    0.5349 C   0  0  0  0  0  0  0  0  0  0  0  0
   -3.9088    1.3093    0.3678 C   0  0  0  0  0  0  0  0  0  0  0  0
   -5.1850    0.9231   -0.0536 C   0  0  0  0  0  0  0  0  0  0  0  0
   -6.1951    1.8792   -0.1989 C   0  0  0  0  0  0  0  0  0  0  0  0
   -5.9262    3.2139    0.0743 C   0  0  0  0  0  0  0  0  0  0  0  0
   -6.8954    4.1257   -0.0660 F   0  0  0  0  0  0  0  0  0  0  0  0
   -4.6629    3.6134    0.4888 C   0  0  0  0  0  0  0  0  0  0  0  0
   -3.6494    2.6620    0.6353 C   0  0  0  0  0  0  0  0  0  0  0  0
   -2.7873   -1.1296    0.3852 N   0  0  0  0  0  0  0  0  0  0  0  0
   -1.5795   -1.6633    0.5543 C   0  0  0  0  0  0  0  0  0  0  0  0
   -1.5597   -3.1328    0.3614 C   0  0  0  0  0  0  0  0  0  0  0  0
   -3.0618   -3.4771    0.3867 C   0  0  0  0  0  0  0  0  0  0  0  0
   -3.7820   -2.1413    0.0563 C   0  0  0  0  0  0  0  0  0  0  0  0
    2.6502   -0.3649   -0.3410 N   0  0  0  0  0  0  0  0  0  0  0  0
    3.5050   -0.0317    0.7698 C   0  0  0  0  0  0  0  0  0  0  0  0
    3.6634   -0.9564    1.8223 C   0  0  0  0  0  0  0  0  0  0  0  0
    4.4717   -0.6696    2.9251 C   0  0  0  0  0  0  0  0  0  0  0  0
    5.1496    0.5408    2.9908 C   0  0  0  0  0  0  0  0  0  0  0  0
    5.0372    1.4519    1.9433 C   0  0  0  0  0  0  0  0  0  0  0  0
    4.2354    1.1648    0.8290 C   0  0  0  0  0  0  0  0  0  0  0  0
    4.1449    2.3719   -0.4625 S   0  0  0  0  0  0  0  0  0  0  0  0
    3.7978    1.2773   -1.8213 C   0  0  0  0  0  0  0  0  0  0  0  0
    4.1976    1.7019   -3.0988 C   0  0  0  0  0  0  0  0  0  0  0  0
    3.9034    0.9375   -4.2227 C   0  0  0  0  0  0  0  0  0  0  0  0
    3.2032   -0.2511   -4.0747 C   0  0  0  0  0  0  0  0  0  0  0  0
    2.7968   -0.6749   -2.8041 C   0  0  0  0  0  0  0  0  0  0  0  0
    3.0848    0.0733   -1.6485 C   0  0  0  0  0  0  0  0  0  0  0  0
    0.8364   -1.7356    1.8077 H   0  0  0  0  0  0  0  0  0  0  0  0
    1.0540    0.0329    1.6698 H   0  0  0  0  0  0  0  0  0  0  0  0
   -0.9001    1.4102    1.0969 H   0  0  0  0  0  0  0  0  0  0  0  0
   -5.4288   -0.1043   -0.2904 H   0  0  0  0  0  0  0  0  0  0  0  0
   -7.1908    1.5939   -0.5275 H   0  0  0  0  0  0  0  0  0  0  0  0
   -4.4774    4.6642    0.6943 H   0  0  0  0  0  0  0  0  0  0  0  0
   -2.6744    3.0109    0.9625 H   0  0  0  0  0  0  0  0  0  0  0  0
   -0.9922   -3.5931    1.1706 H   0  0  0  0  0  0  0  0  0  0  0  0
   -1.1147   -3.3236   -0.6163 H   0  0  0  0  0  0  0  0  0  0  0  0
   -3.3403   -3.7896    1.4002 H   0  0  0  0  0  0  0  0  0  0  0  0
   -3.3276   -4.2847   -0.3004 H   0  0  0  0  0  0  0  0  0  0  0  0
   -4.0168   -2.0714   -1.0098 H   0  0  0  0  0  0  0  0  0  0  0  0
   -4.6811   -2.0208    0.6646 H   0  0  0  0  0  0  0  0  0  0  0  0
    3.2163   -1.9468    1.7780 H   0  0  0  0  0  0  0  0  0  0  0  0
    4.5950   -1.4009    3.7217 H   0  0  0  0  0  0  0  0  0  0  0  0
    5.7879    0.7674    3.8426 H   0  0  0  0  0  0  0  0  0  0  0  0
    5.5935    2.3869    1.9970 H   0  0  0  0  0  0  0  0  0  0  0  0
    4.7396    2.6374   -3.2271 H   0  0  0  0  0  0  0  0  0  0  0  0
    4.2211    1.2687   -5.2087 H   0  0  0  0  0  0  0  0  0  0  0  0
    2.9781   -0.8608   -4.9474 H   0  0  0  0  0  0  0  0  0  0  0  0
    2.2915   -1.6348   -2.7560 H   0  0  0  0  0  0  0  0  0  0  0  0
  1  2  2  0
  2  3  1  0
  3  4  1  0
  4  5  1  0
  5  6  2  0
  6  7  1  0
  7  8  2  0
  8  9  1  0
  9 10  2  0
 10 11  1  0
 10 12  1  0
 12 13  2  0
  6 14  1  0
 14 15  1  0
 15 16  1  0
 16 17  1  0
 17 18  1  0
  2 19  1  0
 19 20  1  0
 20 21  2  0
 21 22  1  0
 22 23  2  0
 23 24  1  0
 24 25  2  0
 25 26  1  0
 26 27  1  0
 27 28  2  0
 28 29  1  0
 29 30  2  0
 30 31  1  0
 31 32  2  0
 15  4  2  0
 32 19  1  0
 13  7  1  0
 18 14  1  0
 25 20  1  0
 32 27  1  0
  3 33  1  0
  3 34  1  0
  5 35  1  0
  8 36  1  0
  9 37  1  0
 12 38  1  0
 13 39  1  0
 16 40  1  0
 16 41  1  0
 17 42  1  0
 17 43  1  0
 18 44  1  0
 18 45  1  0
 21 46  1  0
 22 47  1  0
 23 48  1  0
 24 49  1  0
 28 50  1  0
 29 51  1  0
 30 52  1  0
 31 53  1  0
M  CHG  1   4   1
M  END
$$$$
