
     RDKit          3D

 39 40  0  0  0  0  0  0  0  0999 V2000
    5.3278   -0.7496    0.9700 C   0  0  0  0  0  0  0  0  0  0  0  0
    5.4588    0.5530    0.1917 C   0  0  0  0  0  0  0  0  0  0  0  0
    4.8418    0.4674   -1.2126 C   0  0  0  0  0  0  0  0  0  0  0  0
    5.1366    1.7329   -2.0185 C   0  0  0  0  0  0  0  0  0  0  0  0
    3.3352    0.1900   -1.1802 C   0  0  0  0  0  0  0  0  0  0  0  0
    2.8971   -0.8411   -1.6819 O   0  0  0  0  0  0  0  0  0  0  0  0
    2.6013    1.1728   -0.5592 N   0  0  0  0  0  0  0  0  0  0  0  0
    1.2417    1.1982   -0.3755 C   0  0  0  0  0  0  0  0  0  0  0  0
    0.6439    2.1930    0.2426 N   0  0  0  0  0  0  0  0  0  0  0  0
   -0.7231    2.0167    0.3165 N   0  0  0  0  0  0  0  0  0  0  0  0
   -1.1037    0.8910   -0.2513 C   0  0  0  0  0  0  0  0  0  0  0  0
   -2.5155    0.4136   -0.3306 C   0  0  0  0  0  0  0  0  0  0  0  0
   -2.9289   -0.2907    0.9624 C   0  0  0  0  0  0  0  0  0  0  0  0
   -4.3555   -0.7766    0.8965 C   0  0  0  0  0  0  0  0  0  0  0  0
   -4.6474   -2.0618    0.4206 C   0  0  0  0  0  0  0  0  0  0  0  0
   -5.9696   -2.5012    0.3395 C   0  0  0  0  0  0  0  0  0  0  0  0
   -7.0104   -1.6600    0.7286 C   0  0  0  0  0  0  0  0  0  0  0  0
   -6.7306   -0.3783    1.1986 C   0  0  0  0  0  0  0  0  0  0  0  0
   -5.4093    0.0634    1.2808 C   0  0  0  0  0  0  0  0  0  0  0  0
    0.1883   -0.0269   -0.9117 S   0  0  0  0  0  0  0  0  0  0  0  0
    5.8326   -0.6617    1.9374 H   0  0  0  0  0  0  0  0  0  0  0  0
    5.7854   -1.5807    0.4241 H   0  0  0  0  0  0  0  0  0  0  0  0
    4.2794   -0.9978    1.1619 H   0  0  0  0  0  0  0  0  0  0  0  0
    6.5252    0.7943    0.1020 H   0  0  0  0  0  0  0  0  0  0  0  0
    5.0026    1.3619    0.7738 H   0  0  0  0  0  0  0  0  0  0  0  0
    5.3058   -0.3747   -1.7440 H   0  0  0  0  0  0  0  0  0  0  0  0
    4.7862    2.6352   -1.5063 H   0  0  0  0  0  0  0  0  0  0  0  0
    6.2136    1.8411   -2.1851 H   0  0  0  0  0  0  0  0  0  0  0  0
    4.6454    1.6947   -2.9969 H   0  0  0  0  0  0  0  0  0  0  0  0
    3.0645    1.9846   -0.1764 H   0  0  0  0  0  0  0  0  0  0  0  0
   -2.6495   -0.2549   -1.1904 H   0  0  0  0  0  0  0  0  0  0  0  0
   -3.1676    1.2777   -0.5121 H   0  0  0  0  0  0  0  0  0  0  0  0
   -2.8138    0.3839    1.8213 H   0  0  0  0  0  0  0  0  0  0  0  0
   -2.2648   -1.1410    1.1668 H   0  0  0  0  0  0  0  0  0  0  0  0
   -3.8470   -2.7303    0.1110 H   0  0  0  0  0  0  0  0  0  0  0  0
   -6.1879   -3.5006   -0.0277 H   0  0  0  0  0  0  0  0  0  0  0  0
   -8.0396   -2.0033    0.6654 H   0  0  0  0  0  0  0  0  0  0  0  0
   -7.5421    0.2784    1.5011 H   0  0  0  0  0  0  0  0  0  0  0  0
   -5.2073    1.0675    1.6478 H   0  0  0  0  0  0  0  0  0  0  0  0
  1  2  1  0
  2  3  1  0
  3  4  1  0
  3  5  1  0
  5  6  2  0
  5  7  1  0
  7  8  1  0
  8  9  2  0
  9 10  1  0
 10 11  2  0
 11 12  1  0
 12 13  1  0
 13 14  1  0
 14 15  2  0
 15 16  1  0
 16 17  2  0
 17 18  1  0
 18 19  2  0
 11 20  1  0
 20  8  1  0
 19 14  1  0
  1 21  1  0
  1 22  1  0
  1 23  1  0
  2 24  1  0
  2 25  1  0
  3 26  1  0
  4 27  1  0
  4 28  1  0
  4 29  1  0
  7 30  1  0
 12 31  1  0
 12 32  1  0
 13 33  1  0
 13 34  1  0
 15 35  1  0
 16 36  1  0
 17 37  1  0
 18 38  1  0
 19 39  1  0
M  END
$$$$
