
     RDKit          3D

 38 39  0  0  0  0  0  0  0  0999 V2000
    0.2034   -0.3546   -1.9071 C   0  0  0  0  0  0  0  0  0  0  0  0
   -0.2757   -0.3505   -0.5306 N   0  0  0  0  0  0  0  0  0  0  0  0
   -1.6961   -0.6462   -0.3282 C   0  0  0  0  0  0  0  0  0  0  0  0
   -2.5726    0.6040   -0.4069 C   0  0  0  0  0  0  0  0  0  0  0  0
   -4.0110    0.2634   -0.1257 C   0  0  0  0  0  0  0  0  0  0  0  0
   -4.5197    0.3634    1.1672 C   0  0  0  0  0  0  0  0  0  0  0  0
   -5.8495    0.0207    1.3932 C   0  0  0  0  0  0  0  0  0  0  0  0
   -6.6308   -0.4135    0.3299 C   0  0  0  0  0  0  0  0  0  0  0  0
   -6.0453   -0.4897   -0.9221 C   0  0  0  0  0  0  0  0  0  0  0  0
   -4.7572   -0.1660   -1.1725 N   0  0  0  0  0  0  0  0  0  0  0  0
    0.4539    0.1065    0.5655 C   0  0  0  0  0  0  0  0  0  0  0  0
   -0.0638    0.3943    1.6429 O   0  0  0  0  0  0  0  0  0  0  0  0
    1.9244    0.2416    0.4533 C   0  0  0  0  0  0  0  0  0  0  0  0
    2.5280    1.4263    0.8766 C   0  0  0  0  0  0  0  0  0  0  0  0
    3.9169    1.5564    0.8097 C   0  0  0  0  0  0  0  0  0  0  0  0
    4.7137    0.5059    0.3382 C   0  0  0  0  0  0  0  0  0  0  0  0
    6.0521    0.7761    0.3304 O   0  0  0  0  0  0  0  0  0  0  0  0
    6.9280   -0.2281   -0.1500 C   0  0  0  0  0  0  0  0  0  0  0  0
    6.6570   -0.5345   -1.4370 F   0  0  0  0  0  0  0  0  0  0  0  0
    6.8508   -1.3448    0.6044 F   0  0  0  0  0  0  0  0  0  0  0  0
    8.1955    0.2357   -0.0870 F   0  0  0  0  0  0  0  0  0  0  0  0
    4.1048   -0.6869   -0.0598 C   0  0  0  0  0  0  0  0  0  0  0  0
    2.7131   -0.8229    0.0055 C   0  0  0  0  0  0  0  0  0  0  0  0
    1.1593    0.1602   -2.0158 H   0  0  0  0  0  0  0  0  0  0  0  0
   -0.5253    0.1557   -2.5435 H   0  0  0  0  0  0  0  0  0  0  0  0
    0.3029   -1.3929   -2.2349 H   0  0  0  0  0  0  0  0  0  0  0  0
   -2.0028   -1.3943   -1.0696 H   0  0  0  0  0  0  0  0  0  0  0  0
   -1.8095   -1.1177    0.6565 H   0  0  0  0  0  0  0  0  0  0  0  0
   -2.2271    1.3738    0.2934 H   0  0  0  0  0  0  0  0  0  0  0  0
   -2.5005    1.0532   -1.4050 H   0  0  0  0  0  0  0  0  0  0  0  0
   -3.8922    0.7003    1.9873 H   0  0  0  0  0  0  0  0  0  0  0  0
   -6.2715    0.0942    2.3916 H   0  0  0  0  0  0  0  0  0  0  0  0
   -7.6699   -0.6865    0.4727 H   0  0  0  0  0  0  0  0  0  0  0  0
   -6.6136   -0.8245   -1.7851 H   0  0  0  0  0  0  0  0  0  0  0  0
    1.9216    2.2423    1.2626 H   0  0  0  0  0  0  0  0  0  0  0  0
    4.3807    2.4844    1.1380 H   0  0  0  0  0  0  0  0  0  0  0  0
    4.6765   -1.5393   -0.4163 H   0  0  0  0  0  0  0  0  0  0  0  0
    2.2511   -1.7653   -0.2789 H   0  0  0  0  0  0  0  0  0  0  0  0
  1  2  1  0
  2  3  1  0
  3  4  1  0
  4  5  1  0
  5  6  2  0
  6  7  1  0
  7  8  2  0
  8  9  1  0
  9 10  2  0
  2 11  1  0
 11 12  2  0
 11 13  1  0
 13 14  2  0
 14 15  1  0
 15 16  2  0
 16 17  1  0
 17 18  1  0
 18 19  1  0
 18 20  1  0
 18 21  1  0
 16 22  1  0
 22 23  2  0
 10  5  1  0
 23 13  1  0
  1 24  1  0
  1 25  1  0
  1 26  1  0
  3 27  1  0
  3 28  1  0
  4 29  1  0
  4 30  1  0
  6 31  1  0
  7 32  1  0
  8 33  1  0
  9 34  1  0
 14 35  1  0
 15 36  1  0
 22 37  1  0
 23 38  1  0
M  END
$$$$
