
     RDKit          3D

 54 57  0  0  0  0  0  0  0  0999 V2000
    1.4213    1.3713   -2.4279 O   0  0  0  0  0  0  0  0  0  0  0  0
    0.4246    1.4979   -1.7220 C   0  0  0  0  0  0  0  0  0  0  0  0
   -0.9213    1.9115   -2.3167 C   0  0  0  0  0  0  0  0  0  0  0  0
   -2.0062    1.4168   -1.5231 O   0  0  0  0  0  0  0  0  0  0  0  0
   -3.2216    1.8395   -1.9527 C   0  0  0  0  0  0  0  0  0  0  0  0
   -3.4178    2.6167   -2.8729 O   0  0  0  0  0  0  0  0  0  0  0  0
   -4.3112    1.2366   -1.1383 C   0  0  0  0  0  0  0  0  0  0  0  0
   -5.6207    1.6988   -1.3419 C   0  0  0  0  0  0  0  0  0  0  0  0
   -6.6815    1.1632   -0.6057 C   0  0  0  0  0  0  0  0  0  0  0  0
   -6.4373    0.1661    0.3353 C   0  0  0  0  0  0  0  0  0  0  0  0
   -5.1384   -0.3184    0.5213 C   0  0  0  0  0  0  0  0  0  0  0  0
   -4.0744    0.2217   -0.2009 C   0  0  0  0  0  0  0  0  0  0  0  0
   -4.8323   -1.3238    1.4034 O   0  0  0  0  0  0  0  0  0  0  0  0
   -6.0086   -2.0364    1.8091 C   0  0  0  0  0  0  0  0  0  0  0  0
   -7.1217   -1.0675    2.1752 C   0  0  0  0  0  0  0  0  0  0  0  0
   -7.5213   -0.3002    1.0332 O   0  0  0  0  0  0  0  0  0  0  0  0
    0.3678    1.3107   -0.3498 N   0  0  0  0  0  0  0  0  0  0  0  0
    1.4372    1.0165    0.5152 C   0  0  0  0  0  0  0  0  0  0  0  0
    1.1213    0.6106    1.8180 C   0  0  0  0  0  0  0  0  0  0  0  0
    2.1295    0.2847    2.7302 C   0  0  0  0  0  0  0  0  0  0  0  0
    3.4657    0.3613    2.3463 C   0  0  0  0  0  0  0  0  0  0  0  0
    3.7823    0.7668    1.0481 C   0  0  0  0  0  0  0  0  0  0  0  0
    5.4864    0.9101    0.5569 S   0  0  0  0  0  6  0  0  0  0  0  0
    5.5809    2.0245   -0.3624 O   0  0  0  0  0  0  0  0  0  0  0  0
    6.2805    0.8765    1.7678 O   0  0  0  0  0  0  0  0  0  0  0  0
    5.7794   -0.5142   -0.2919 N   0  0  0  0  0  0  0  0  0  0  0  0
    5.8960   -1.8008    0.4362 C   0  0  0  0  0  0  0  0  0  0  0  0
    4.6429   -2.6606    0.2574 C   0  0  0  0  0  0  0  0  0  0  0  0
    4.3488   -2.8658   -1.1296 O   0  0  0  0  0  0  0  0  0  0  0  0
    4.0908   -1.6112   -1.7775 C   0  0  0  0  0  0  0  0  0  0  0  0
    5.2953   -0.6689   -1.6880 C   0  0  0  0  0  0  0  0  0  0  0  0
    2.7765    1.1234    0.1431 C   0  0  0  0  0  0  0  0  0  0  0  0
   -0.9911    1.4817   -3.3215 H   0  0  0  0  0  0  0  0  0  0  0  0
   -0.9414    3.0059   -2.3605 H   0  0  0  0  0  0  0  0  0  0  0  0
   -5.8212    2.4795   -2.0748 H   0  0  0  0  0  0  0  0  0  0  0  0
   -7.6939    1.5287   -0.7618 H   0  0  0  0  0  0  0  0  0  0  0  0
   -3.0770   -0.1754   -0.0380 H   0  0  0  0  0  0  0  0  0  0  0  0
   -6.3094   -2.7063    0.9930 H   0  0  0  0  0  0  0  0  0  0  0  0
   -5.7421   -2.6510    2.6754 H   0  0  0  0  0  0  0  0  0  0  0  0
   -6.8077   -0.3748    2.9671 H   0  0  0  0  0  0  0  0  0  0  0  0
   -7.9998   -1.6165    2.5293 H   0  0  0  0  0  0  0  0  0  0  0  0
   -0.5688    1.2824    0.0422 H   0  0  0  0  0  0  0  0  0  0  0  0
    0.0854    0.5345    2.1405 H   0  0  0  0  0  0  0  0  0  0  0  0
    1.8697   -0.0268    3.7391 H   0  0  0  0  0  0  0  0  0  0  0  0
    4.2486    0.1158    3.0614 H   0  0  0  0  0  0  0  0  0  0  0  0
    6.0976   -1.6470    1.4996 H   0  0  0  0  0  0  0  0  0  0  0  0
    6.7636   -2.3277    0.0207 H   0  0  0  0  0  0  0  0  0  0  0  0
    4.8032   -3.6451    0.7092 H   0  0  0  0  0  0  0  0  0  0  0  0
    3.7702   -2.2136    0.7455 H   0  0  0  0  0  0  0  0  0  0  0  0
    3.1922   -1.1681   -1.3382 H   0  0  0  0  0  0  0  0  0  0  0  0
    3.8672   -1.8235   -2.8277 H   0  0  0  0  0  0  0  0  0  0  0  0
    5.0541    0.2958   -2.1441 H   0  0  0  0  0  0  0  0  0  0  0  0
    6.1266   -1.0915   -2.2647 H   0  0  0  0  0  0  0  0  0  0  0  0
    3.0608    1.4857   -0.8407 H   0  0  0  0  0  0  0  0  0  0  0  0
  1  2  2  0
  2  3  1  0
  3  4  1  0
  4  5  1  0
  5  6  2  0
  5  7  1  0
  7  8  2  0
  8  9  1  0
  9 10  2  0
 10 11  1  0
 11 12  2  0
 11 13  1  0
 13 14  1  0
 14 15  1  0
 15 16  1  0
  2 17  1  0
 17 18  1  0
 18 19  2  0
 19 20  1  0
 20 21  2  0
 21 22  1  0
 22 23  1  0
 23 24  2  0
 23 25  2  0
 23 26  1  0
 26 27  1  0
 27 28  1  0
 28 29  1  0
 29 30  1  0
 30 31  1  0
 22 32  2  0
 12  7  1  0
 32 18  1  0
 16 10  1  0
 31 26  1  0
  3 33  1  0
  3 34  1  0
  8 35  1  0
  9 36  1  0
 12 37  1  0
 14 38  1  0
 14 39  1  0
 15 40  1  0
 15 41  1  0
 17 42  1  0
 19 43  1  0
 20 44  1  0
 21 45  1  0
 27 46  1  0
 27 47  1  0
 28 48  1  0
 28 49  1  0
 30 50  1  0
 30 51  1  0
 31 52  1  0
 31 53  1  0
 32 54  1  0
M  END
$$$$
