
     RDKit          3D

 42 44  0  0  0  0  0  0  0  0999 V2000
   -0.4904   -2.8830   -1.2265 C   0  0  0  0  0  0  0  0  0  0  0  0
   -0.7476   -1.7033   -0.3459 C   0  0  0  0  0  0  0  0  0  0  0  0
    0.1408   -0.9094    0.2759 C   0  0  0  0  0  0  0  0  0  0  0  0
    1.5035   -0.8946    0.4165 N   0  0  0  0  0  0  0  0  0  0  0  0
    2.4152   -1.8944    0.1543 C   0  0  0  0  0  0  0  0  0  0  0  0
    2.1367   -3.0385   -0.1969 O   0  0  0  0  0  0  0  0  0  0  0  0
    3.8540   -1.5132    0.4219 C   0  0  0  0  0  0  0  0  0  0  0  0
    4.2440   -0.3306   -0.3220 N   0  0  0  0  0  0  0  0  0  0  0  0
    4.8242   -0.2906   -1.5585 C   0  0  0  0  0  0  0  0  0  0  0  0
    5.0204    1.0405   -1.8473 C   0  0  0  0  0  0  0  0  0  0  0  0
    4.5278    1.7289   -0.7161 C   0  0  0  0  0  0  0  0  0  0  0  0
    4.4991    3.1619   -0.4788 N   0  0  0  0  0  4  0  0  0  0  0  0
    4.0691    3.5754    0.6067 O   0  0  0  0  0  0  0  0  0  0  0  0
    4.9279    3.8741   -1.4007 O   0  0  0  0  0  1  0  0  0  0  0  0
    4.0428    0.8891    0.2184 N   0  0  0  0  0  0  0  0  0  0  0  0
   -0.6684    0.1878    0.8997 C   0  0  0  0  0  0  0  0  0  0  0  0
   -0.1451    1.1133    1.5037 O   0  0  0  0  0  0  0  0  0  0  0  0
   -2.0039   -0.0702    0.5878 N   0  0  0  0  0  0  0  0  0  0  0  0
   -3.0486    0.8894    0.5516 C   0  0  0  0  0  0  0  0  0  0  0  0
   -3.0065    2.0292    1.3659 C   0  0  0  0  0  0  0  0  0  0  0  0
   -4.0385    2.9733    1.3388 C   0  0  0  0  0  0  0  0  0  0  0  0
   -5.1264    2.7966    0.4897 C   0  0  0  0  0  0  0  0  0  0  0  0
   -5.1820    1.6775   -0.3344 C   0  0  0  0  0  0  0  0  0  0  0  0
   -4.1504    0.7336   -0.3036 C   0  0  0  0  0  0  0  0  0  0  0  0
   -2.0807   -1.2881   -0.1473 N   0  0  0  0  0  0  0  0  0  0  0  0
   -3.0055   -2.2708    0.4514 C   0  0  0  0  0  0  0  0  0  0  0  0
    0.4012   -2.7398   -1.8439 H   0  0  0  0  0  0  0  0  0  0  0  0
   -1.3186   -3.0272   -1.9295 H   0  0  0  0  0  0  0  0  0  0  0  0
   -0.3917   -3.7966   -0.6337 H   0  0  0  0  0  0  0  0  0  0  0  0
    1.8573   -0.0405    0.8573 H   0  0  0  0  0  0  0  0  0  0  0  0
    4.5167   -2.3310    0.1194 H   0  0  0  0  0  0  0  0  0  0  0  0
    4.0000   -1.3220    1.4892 H   0  0  0  0  0  0  0  0  0  0  0  0
    5.0425   -1.1909   -2.1180 H   0  0  0  0  0  0  0  0  0  0  0  0
    5.4589    1.4628   -2.7408 H   0  0  0  0  0  0  0  0  0  0  0  0
   -2.1809    2.1998    2.0520 H   0  0  0  0  0  0  0  0  0  0  0  0
   -3.9886    3.8445    1.9873 H   0  0  0  0  0  0  0  0  0  0  0  0
   -5.9259    3.5323    0.4670 H   0  0  0  0  0  0  0  0  0  0  0  0
   -6.0217    1.5417   -1.0106 H   0  0  0  0  0  0  0  0  0  0  0  0
   -4.2083   -0.1101   -0.9853 H   0  0  0  0  0  0  0  0  0  0  0  0
   -2.6295   -2.6178    1.4204 H   0  0  0  0  0  0  0  0  0  0  0  0
   -4.0041   -1.8526    0.6058 H   0  0  0  0  0  0  0  0  0  0  0  0
   -3.1186   -3.1365   -0.2086 H   0  0  0  0  0  0  0  0  0  0  0  0
  1  2  1  0
  2  3  2  0
  3  4  1  0
  4  5  1  0
  5  6  2  0
  5  7  1  0
  7  8  1  0
  8  9  1  0
  9 10  2  0
 10 11  1  0
 11 12  1  0
 12 13  2  0
 12 14  1  0
 11 15  2  0
  3 16  1  0
 16 17  2  0
 16 18  1  0
 18 19  1  0
 19 20  2  0
 20 21  1  0
 21 22  2  0
 22 23  1  0
 23 24  2  0
 18 25  1  0
 25 26  1  0
 25  2  1  0
 15  8  1  0
 24 19  1  0
  1 27  1  0
  1 28  1  0
  1 29  1  0
  4 30  1  0
  7 31  1  0
  7 32  1  0
  9 33  1  0
 10 34  1  0
 20 35  1  0
 21 36  1  0
 22 37  1  0
 23 38  1  0
 24 39  1  0
 26 40  1  0
 26 41  1  0
 26 42  1  0
M  CHG  2  12   1  14  -1
M  END
$$$$
