
     RDKit          3D

 53 55  0  0  0  0  0  0  0  0999 V2000
    8.3939    1.2657    0.0202 C   0  0  0  0  0  0  0  0  0  0  0  0
    7.9350    0.0738    0.6450 O   0  0  0  0  0  0  0  0  0  0  0  0
    6.6484   -0.3063    0.3784 C   0  0  0  0  0  0  0  0  0  0  0  0
    5.7531    0.3564   -0.4605 C   0  0  0  0  0  0  0  0  0  0  0  0
    4.4600   -0.1455   -0.6456 C   0  0  0  0  0  0  0  0  0  0  0  0
    4.0463   -1.3190   -0.0002 C   0  0  0  0  0  0  0  0  0  0  0  0
    2.6460   -1.8394   -0.1906 C   0  0  0  0  0  0  0  0  0  0  0  0
    1.7254   -1.1679    0.6862 N   0  0  0  0  0  0  0  0  0  0  0  0
    0.9243   -0.1325    0.2727 C   0  0  0  0  0  0  0  0  0  0  0  0
    0.8303    0.3081   -0.8660 O   0  0  0  0  0  0  0  0  0  0  0  0
    0.0934    0.4986    1.4163 C   0  0  0  0  0  0  0  0  0  0  0  0
    0.1958    0.0928    2.5655 O   0  0  0  0  0  0  0  0  0  0  0  0
   -0.7442    1.5054    0.9917 N   0  0  0  0  0  0  0  0  0  0  0  0
   -1.7985    2.0135    1.8430 C   0  0  0  0  0  0  0  0  0  0  0  0
   -3.0234    1.0824    1.9681 C   0  0  0  0  0  0  0  0  0  0  0  0
   -4.0464    1.7915    2.6955 O   0  0  0  0  0  0  0  0  0  0  0  0
   -5.2873    1.4242    2.0929 C   0  0  0  0  0  0  0  0  0  0  0  0
   -4.9527    1.3406    0.6229 C   0  0  0  0  0  0  0  0  0  0  0  0
   -3.5842    0.7808    0.6175 N   0  0  0  0  0  0  0  0  0  0  0  0
   -3.4490   -0.8543    0.1833 S   0  0  0  0  0  6  0  0  0  0  0  0
   -2.0638   -1.2512    0.3034 O   0  0  0  0  0  0  0  0  0  0  0  0
   -4.4986   -1.5741    0.8738 O   0  0  0  0  0  0  0  0  0  0  0  0
   -3.8345   -0.8137   -1.5493 C   0  0  0  0  0  0  0  0  0  0  0  0
   -5.0433   -1.3395   -2.0139 C   0  0  0  0  0  0  0  0  0  0  0  0
   -5.3228   -1.3071   -3.3802 C   0  0  0  0  0  0  0  0  0  0  0  0
   -4.3957   -0.7620   -4.2712 C   0  0  0  0  0  0  0  0  0  0  0  0
   -3.1834   -0.2522   -3.8025 C   0  0  0  0  0  0  0  0  0  0  0  0
   -2.8958   -0.2802   -2.4383 C   0  0  0  0  0  0  0  0  0  0  0  0
    4.9459   -1.9736    0.8490 C   0  0  0  0  0  0  0  0  0  0  0  0
    6.2367   -1.4707    1.0307 C   0  0  0  0  0  0  0  0  0  0  0  0
    9.4268    1.4342    0.3400 H   0  0  0  0  0  0  0  0  0  0  0  0
    7.8023    2.1312    0.3370 H   0  0  0  0  0  0  0  0  0  0  0  0
    8.3953    1.1644   -1.0702 H   0  0  0  0  0  0  0  0  0  0  0  0
    6.0244    1.2666   -0.9843 H   0  0  0  0  0  0  0  0  0  0  0  0
    3.7694    0.3886   -1.2970 H   0  0  0  0  0  0  0  0  0  0  0  0
    2.3376   -1.7197   -1.2356 H   0  0  0  0  0  0  0  0  0  0  0  0
    2.5995   -2.9093    0.0405 H   0  0  0  0  0  0  0  0  0  0  0  0
    1.7370   -1.3638    1.6825 H   0  0  0  0  0  0  0  0  0  0  0  0
   -0.8316    1.5990   -0.0161 H   0  0  0  0  0  0  0  0  0  0  0  0
   -1.3897    2.2116    2.8408 H   0  0  0  0  0  0  0  0  0  0  0  0
   -2.1026    2.9817    1.4281 H   0  0  0  0  0  0  0  0  0  0  0  0
   -2.7747    0.1752    2.5296 H   0  0  0  0  0  0  0  0  0  0  0  0
   -6.0506    2.1751    2.3124 H   0  0  0  0  0  0  0  0  0  0  0  0
   -5.6048    0.4589    2.5017 H   0  0  0  0  0  0  0  0  0  0  0  0
   -5.6882    0.7606    0.0620 H   0  0  0  0  0  0  0  0  0  0  0  0
   -4.9002    2.3402    0.1766 H   0  0  0  0  0  0  0  0  0  0  0  0
   -5.7646   -1.7761   -1.3267 H   0  0  0  0  0  0  0  0  0  0  0  0
   -6.2597   -1.7136   -3.7541 H   0  0  0  0  0  0  0  0  0  0  0  0
   -4.6143   -0.7434   -5.3365 H   0  0  0  0  0  0  0  0  0  0  0  0
   -2.4589    0.1589   -4.5016 H   0  0  0  0  0  0  0  0  0  0  0  0
   -1.9430    0.1029   -2.0783 H   0  0  0  0  0  0  0  0  0  0  0  0
    4.6514   -2.8783    1.3756 H   0  0  0  0  0  0  0  0  0  0  0  0
    6.9283   -1.9897    1.6901 H   0  0  0  0  0  0  0  0  0  0  0  0
  1  2  1  0
  2  3  1  0
  3  4  2  0
  4  5  1  0
  5  6  2  0
  6  7  1  0
  7  8  1  0
  8  9  1  0
  9 10  2  0
  9 11  1  0
 11 12  2  0
 11 13  1  0
 13 14  1  0
 14 15  1  0
 15 16  1  0
 16 17  1  0
 17 18  1  0
 18 19  1  0
 19 20  1  0
 20 21  2  0
 20 22  2  0
 20 23  1  0
 23 24  2  0
 24 25  1  0
 25 26  2  0
 26 27  1  0
 27 28  2  0
  6 29  1  0
 29 30  2  0
 30  3  1  0
 19 15  1  0
 28 23  1  0
  1 31  1  0
  1 32  1  0
  1 33  1  0
  4 34  1  0
  5 35  1  0
  7 36  1  0
  7 37  1  0
  8 38  1  0
 13 39  1  0
 14 40  1  0
 14 41  1  0
 15 42  1  0
 17 43  1  0
 17 44  1  0
 18 45  1  0
 18 46  1  0
 24 47  1  0
 25 48  1  0
 26 49  1  0
 27 50  1  0
 28 51  1  0
 29 52  1  0
 30 53  1  0
M  END
$$$$
