
     RDKit          3D

 57 61  0  0  0  0  0  0  0  0999 V2000
   -6.8744    3.8775   -0.7389 C   0  0  0  0  0  0  0  0  0  0  0  0
   -6.3083    2.5196   -0.4463 C   0  0  0  0  0  0  0  0  0  0  0  0
   -5.2676    2.0019   -1.2250 C   0  0  0  0  0  0  0  0  0  0  0  0
   -4.7594    0.7258   -0.9710 C   0  0  0  0  0  0  0  0  0  0  0  0
   -5.2950   -0.0623    0.0567 C   0  0  0  0  0  0  0  0  0  0  0  0
   -4.7390   -1.4348    0.3407 C   0  0  0  0  0  0  0  0  0  0  0  0
   -3.7780   -1.4039    1.4228 N   0  0  0  0  0  0  0  0  0  0  0  0
   -4.1459   -1.7151    2.6914 N   0  0  0  0  0  0  0  0  0  0  0  0
   -3.0639   -1.6147    3.4640 N   0  0  0  0  0  0  0  0  0  0  0  0
   -2.0258   -1.2606    2.6598 C   0  0  0  0  0  0  0  0  0  0  0  0
   -0.6427   -1.0163    2.9571 C   0  0  0  0  0  0  0  0  0  0  0  0
   -0.1191   -1.0917    4.0626 O   0  0  0  0  0  0  0  0  0  0  0  0
    0.0874   -0.6742    1.8228 N   0  0  0  0  0  0  0  0  0  0  0  0
   -0.4456   -0.5897    0.5442 C   0  0  0  0  0  0  0  0  0  0  0  0
    0.4927   -0.2104   -0.6015 C   0  0  0  0  0  0  0  0  0  0  0  0
    1.5675   -1.2658   -0.8740 C   0  0  0  0  0  0  0  0  0  0  0  0
    2.8468   -1.0820   -0.0673 C   0  0  0  0  0  0  0  0  0  0  0  0
    3.3341    0.3136   -0.2133 N   0  0  0  0  0  0  0  0  0  0  0  0
    4.9215    0.5766    0.4034 S   0  0  0  0  0  6  0  0  0  0  0  0
    4.9380    0.0157    1.7385 O   0  0  0  0  0  0  0  0  0  0  0  0
    5.2772    1.9574    0.1604 O   0  0  0  0  0  0  0  0  0  0  0  0
    5.9305   -0.4251   -0.6553 C   0  0  0  0  0  0  0  0  0  0  0  0
    6.6666   -1.4877   -0.1246 C   0  0  0  0  0  0  0  0  0  0  0  0
    7.4498   -2.2674   -0.9755 C   0  0  0  0  0  0  0  0  0  0  0  0
    7.4966   -1.9815   -2.3418 C   0  0  0  0  0  0  0  0  0  0  0  0
    6.7641   -0.9136   -2.8642 C   0  0  0  0  0  0  0  0  0  0  0  0
    5.9786   -0.1289   -2.0210 C   0  0  0  0  0  0  0  0  0  0  0  0
    2.3575    1.3057    0.3061 C   0  0  0  0  0  0  0  0  0  0  0  0
    1.0544    1.2080   -0.4776 C   0  0  0  0  0  0  0  0  0  0  0  0
   -1.7011   -0.8195    0.2664 N   0  0  0  0  0  0  0  0  0  0  0  0
   -2.4399   -1.1389    1.3567 C   0  0  0  0  0  0  0  0  0  0  0  0
   -6.3414    0.4562    0.8317 C   0  0  0  0  0  0  0  0  0  0  0  0
   -6.8479    1.7326    0.5769 C   0  0  0  0  0  0  0  0  0  0  0  0
   -7.6882    3.7946   -1.4659 H   0  0  0  0  0  0  0  0  0  0  0  0
   -7.2604    4.3448    0.1732 H   0  0  0  0  0  0  0  0  0  0  0  0
   -6.1044    4.5429   -1.1434 H   0  0  0  0  0  0  0  0  0  0  0  0
   -4.8415    2.5926   -2.0329 H   0  0  0  0  0  0  0  0  0  0  0  0
   -3.9375    0.3536   -1.5798 H   0  0  0  0  0  0  0  0  0  0  0  0
   -4.2411   -1.8522   -0.5421 H   0  0  0  0  0  0  0  0  0  0  0  0
   -5.5421   -2.1301    0.6121 H   0  0  0  0  0  0  0  0  0  0  0  0
    1.0582   -0.4938    2.0191 H   0  0  0  0  0  0  0  0  0  0  0  0
   -0.1577   -0.2028   -1.4901 H   0  0  0  0  0  0  0  0  0  0  0  0
    1.8312   -1.2104   -1.9391 H   0  0  0  0  0  0  0  0  0  0  0  0
    1.1710   -2.2739   -0.7040 H   0  0  0  0  0  0  0  0  0  0  0  0
    3.5885   -1.7879   -0.4534 H   0  0  0  0  0  0  0  0  0  0  0  0
    2.6839   -1.3226    0.9872 H   0  0  0  0  0  0  0  0  0  0  0  0
    6.6403   -1.7106    0.9396 H   0  0  0  0  0  0  0  0  0  0  0  0
    8.0298   -3.0955   -0.5745 H   0  0  0  0  0  0  0  0  0  0  0  0
    8.1125   -2.5892   -3.0010 H   0  0  0  0  0  0  0  0  0  0  0  0
    6.8117   -0.6909   -3.9275 H   0  0  0  0  0  0  0  0  0  0  0  0
    5.4128    0.7078   -2.4249 H   0  0  0  0  0  0  0  0  0  0  0  0
    2.1906    1.1506    1.3761 H   0  0  0  0  0  0  0  0  0  0  0  0
    2.7479    2.3212    0.1774 H   0  0  0  0  0  0  0  0  0  0  0  0
    0.3109    1.8812   -0.0343 H   0  0  0  0  0  0  0  0  0  0  0  0
    1.2458    1.5821   -1.4928 H   0  0  0  0  0  0  0  0  0  0  0  0
   -6.7666   -0.1290    1.6458 H   0  0  0  0  0  0  0  0  0  0  0  0
   -7.6641    2.1111    1.1887 H   0  0  0  0  0  0  0  0  0  0  0  0
  1  2  1  0
  2  3  2  0
  3  4  1  0
  4  5  2  0
  5  6  1  0
  6  7  1  0
  7  8  1  0
  8  9  2  0
  9 10  1  0
 10 11  1  0
 11 12  2  0
 11 13  1  0
 13 14  1  0
 14 15  1  0
 15 16  1  0
 16 17  1  0
 17 18  1  0
 18 19  1  0
 19 20  2  0
 19 21  2  0
 19 22  1  0
 22 23  2  0
 23 24  1  0
 24 25  2  0
 25 26  1  0
 26 27  2  0
 18 28  1  0
 28 29  1  0
 14 30  2  0
 30 31  1  0
  5 32  1  0
 32 33  2  0
 33  2  1  0
 31  7  1  0
 31 10  2  0
 29 15  1  0
 27 22  1  0
  1 34  1  0
  1 35  1  0
  1 36  1  0
  3 37  1  0
  4 38  1  0
  6 39  1  0
  6 40  1  0
 13 41  1  0
 15 42  1  0
 16 43  1  0
 16 44  1  0
 17 45  1  0
 17 46  1  0
 23 47  1  0
 24 48  1  0
 25 49  1  0
 26 50  1  0
 27 51  1  0
 28 52  1  0
 28 53  1  0
 29 54  1  0
 29 55  1  0
 32 56  1  0
 33 57  1  0
M  END
$$$$
