
     RDKit          3D

 61 65  0  0  0  0  0  0  0  0999 V2000
   -8.5582    3.6035    0.3497 C   0  0  0  0  0  0  0  0  0  0  0  0
   -8.0334    2.3371    0.7393 O   0  0  0  0  0  0  0  0  0  0  0  0
   -6.7538    2.0343    0.3609 C   0  0  0  0  0  0  0  0  0  0  0  0
   -5.8987    2.8924   -0.3326 C   0  0  0  0  0  0  0  0  0  0  0  0
   -4.6043    2.4789   -0.6668 C   0  0  0  0  0  0  0  0  0  0  0  0
   -4.1391    1.1997   -0.3236 C   0  0  0  0  0  0  0  0  0  0  0  0
   -2.7925    0.7984   -0.7145 C   0  0  0  0  0  0  0  0  0  0  0  0
   -1.9188    1.4389   -1.4689 N   0  0  0  0  0  0  0  0  0  0  0  0
   -0.8056    0.6219   -1.4774 C   0  0  0  0  0  0  0  0  0  0  0  0
    0.4175    1.0284   -2.2188 C   0  0  0  0  0  0  0  0  0  0  0  0
    1.4960    1.3864   -1.3116 N   0  0  0  0  0  0  0  0  0  0  0  0
    2.7109    0.7613   -1.1539 C   0  0  0  0  0  0  0  0  0  0  0  0
    3.1702   -0.6622   -2.0277 S   0  0  0  0  0  0  0  0  0  0  0  0
    4.9804   -0.6333   -1.8557 C   0  0  0  0  0  0  0  0  0  0  0  0
    5.4880   -1.7341   -0.9536 C   0  0  0  0  0  0  0  0  0  0  0  0
    5.9999   -2.9249   -1.4870 C   0  0  0  0  0  0  0  0  0  0  0  0
    6.4829   -3.9320   -0.6402 C   0  0  0  0  0  0  0  0  0  0  0  0
    6.4561   -3.7687    0.7567 C   0  0  0  0  0  0  0  0  0  0  0  0
    6.9873   -4.8508    1.6584 C   0  0  0  0  0  0  0  0  0  0  0  0
    5.9327   -2.5866    1.2920 C   0  0  0  0  0  0  0  0  0  0  0  0
    5.4539   -1.5785    0.4449 C   0  0  0  0  0  0  0  0  0  0  0  0
    3.4676    1.3758   -0.2747 N   0  0  0  0  0  0  0  0  0  0  0  0
    2.7420    2.4677    0.1325 C   0  0  0  0  0  0  0  0  0  0  0  0
    3.0891    3.4766    1.0317 C   0  0  0  0  0  0  0  0  0  0  0  0
    2.1378    4.4659    1.2222 C   0  0  0  0  0  0  0  0  0  0  0  0
    0.9307    4.5050    0.6118 N   0  0  0  0  0  0  0  0  0  0  0  0
    0.5939    3.5249   -0.2600 C   0  0  0  0  0  0  0  0  0  0  0  0
    1.5057    2.5054   -0.5008 C   0  0  0  0  0  0  0  0  0  0  0  0
   -1.0635   -0.5088   -0.7281 C   0  0  0  0  0  0  0  0  0  0  0  0
   -0.2968   -1.7104   -0.3522 C   0  0  0  0  0  0  0  0  0  0  0  0
   -2.3362   -0.3998   -0.2356 O   0  0  0  0  0  0  0  0  0  0  0  0
   -4.9972    0.3413    0.3746 C   0  0  0  0  0  0  0  0  0  0  0  0
   -6.2872    0.7608    0.7271 C   0  0  0  0  0  0  0  0  0  0  0  0
   -7.1613   -0.0808    1.3735 O   0  0  0  0  0  0  0  0  0  0  0  0
   -6.6122   -0.6505    2.5597 C   0  0  0  0  0  0  0  0  0  0  0  0
   -8.5469    3.7194   -0.7403 H   0  0  0  0  0  0  0  0  0  0  0  0
   -8.0227    4.4211    0.8376 H   0  0  0  0  0  0  0  0  0  0  0  0
   -9.6011    3.6502    0.6770 H   0  0  0  0  0  0  0  0  0  0  0  0
   -6.2044    3.8880   -0.6292 H   0  0  0  0  0  0  0  0  0  0  0  0
   -3.9565    3.1647   -1.2103 H   0  0  0  0  0  0  0  0  0  0  0  0
    0.7406    0.2317   -2.8872 H   0  0  0  0  0  0  0  0  0  0  0  0
    0.2162    1.9110   -2.8390 H   0  0  0  0  0  0  0  0  0  0  0  0
    5.3527    0.3369   -1.5049 H   0  0  0  0  0  0  0  0  0  0  0  0
    5.4091   -0.7552   -2.8558 H   0  0  0  0  0  0  0  0  0  0  0  0
    6.0353   -3.0706   -2.5692 H   0  0  0  0  0  0  0  0  0  0  0  0
    6.8861   -4.8443   -1.0712 H   0  0  0  0  0  0  0  0  0  0  0  0
    6.3794   -5.7584    1.5599 H   0  0  0  0  0  0  0  0  0  0  0  0
    6.9671   -4.5456    2.7134 H   0  0  0  0  0  0  0  0  0  0  0  0
    8.0303   -5.0833    1.3995 H   0  0  0  0  0  0  0  0  0  0  0  0
    5.9021   -2.4334    2.3719 H   0  0  0  0  0  0  0  0  0  0  0  0
    5.0571   -0.6609    0.8766 H   0  0  0  0  0  0  0  0  0  0  0  0
    4.0494    3.4930    1.5396 H   0  0  0  0  0  0  0  0  0  0  0  0
    2.3311    5.2946    1.9022 H   0  0  0  0  0  0  0  0  0  0  0  0
   -0.3751    3.5954   -0.7277 H   0  0  0  0  0  0  0  0  0  0  0  0
   -0.8870   -2.3823    0.2831 H   0  0  0  0  0  0  0  0  0  0  0  0
    0.6000   -1.4297    0.2013 H   0  0  0  0  0  0  0  0  0  0  0  0
    0.0043   -2.2689   -1.2380 H   0  0  0  0  0  0  0  0  0  0  0  0
   -4.6713   -0.6692    0.6171 H   0  0  0  0  0  0  0  0  0  0  0  0
   -5.9941   -1.5190    2.3195 H   0  0  0  0  0  0  0  0  0  0  0  0
   -7.4457   -0.9962    3.1791 H   0  0  0  0  0  0  0  0  0  0  0  0
   -6.0398    0.0818    3.1435 H   0  0  0  0  0  0  0  0  0  0  0  0
  1  2  1  0
  2  3  1  0
  3  4  2  0
  4  5  1  0
  5  6  2  0
  6  7  1  0
  7  8  2  0
  8  9  1  0
  9 10  1  0
 10 11  1  0
 11 12  1  0
 12 13  1  0
 13 14  1  0
 14 15  1  0
 15 16  2  0
 16 17  1  0
 17 18  2  0
 18 19  1  0
 18 20  1  0
 20 21  2  0
 12 22  2  0
 22 23  1  0
 23 24  2  0
 24 25  1  0
 25 26  2  0
 26 27  1  0
 27 28  2  0
  9 29  2  0
 29 30  1  0
 29 31  1  0
  6 32  1  0
 32 33  2  0
 33 34  1  0
 34 35  1  0
 33  3  1  0
 31  7  1  0
 28 11  1  0
 21 15  1  0
 28 23  1  0
  1 36  1  0
  1 37  1  0
  1 38  1  0
  4 39  1  0
  5 40  1  0
 10 41  1  0
 10 42  1  0
 14 43  1  0
 14 44  1  0
 16 45  1  0
 17 46  1  0
 19 47  1  0
 19 48  1  0
 19 49  1  0
 20 50  1  0
 21 51  1  0
 24 52  1  0
 25 53  1  0
 27 54  1  0
 30 55  1  0
 30 56  1  0
 30 57  1  0
 32 58  1  0
 35 59  1  0
 35 60  1  0
 35 61  1  0
M  END
$$$$
