
     RDKit          3D

 30 31  0  0  0  0  0  0  0  0999 V2000
    5.0609   -2.3972   -1.5518 C   0  0  0  0  0  0  0  0  0  0  0  0
    3.8651   -2.2894   -2.3137 O   0  0  0  0  0  0  0  0  0  0  0  0
    2.7675   -1.7829   -1.6756 C   0  0  0  0  0  0  0  0  0  0  0  0
    2.7105   -1.3609   -0.3481 C   0  0  0  0  0  0  0  0  0  0  0  0
    1.5144   -0.8592    0.1810 C   0  0  0  0  0  0  0  0  0  0  0  0
    0.3588   -0.7701   -0.6100 C   0  0  0  0  0  0  0  0  0  0  0  0
   -0.9072   -0.2483   -0.0505 C   0  0  0  0  0  0  0  0  0  0  0  0
   -2.0799   -1.0620   -0.1327 C   0  0  0  0  0  0  0  0  0  0  0  0
   -3.0306   -1.7263   -0.1815 N   0  0  0  0  0  0  0  0  0  0  0  0
   -0.9183    0.9946    0.4719 C   0  0  0  0  0  0  0  0  0  0  0  0
   -2.0562    1.7189    1.0482 C   0  0  0  0  0  0  0  0  0  0  0  0
   -2.9211    1.1654    1.9871 C   0  0  0  0  0  0  0  0  0  0  0  0
   -3.9480    1.9551    2.5002 C   0  0  0  0  0  0  0  0  0  0  0  0
   -4.0720    3.2718    2.0765 C   0  0  0  0  0  0  0  0  0  0  0  0
   -3.1534    3.7490    1.1585 C   0  0  0  0  0  0  0  0  0  0  0  0
   -2.1463    3.0070    0.6465 N   0  0  0  0  0  0  0  0  0  0  0  0
    0.4237   -1.2002   -1.9413 C   0  0  0  0  0  0  0  0  0  0  0  0
    1.6195   -1.6999   -2.4658 C   0  0  0  0  0  0  0  0  0  0  0  0
    5.8352   -2.8156   -2.2021 H   0  0  0  0  0  0  0  0  0  0  0  0
    5.4045   -1.4134   -1.2152 H   0  0  0  0  0  0  0  0  0  0  0  0
    4.9302   -3.0813   -0.7068 H   0  0  0  0  0  0  0  0  0  0  0  0
    3.5758   -1.4096    0.3047 H   0  0  0  0  0  0  0  0  0  0  0  0
    1.4963   -0.5453    1.2230 H   0  0  0  0  0  0  0  0  0  0  0  0
   -0.0170    1.6049    0.4378 H   0  0  0  0  0  0  0  0  0  0  0  0
   -2.8117    0.1423    2.3309 H   0  0  0  0  0  0  0  0  0  0  0  0
   -4.6438    1.5433    3.2260 H   0  0  0  0  0  0  0  0  0  0  0  0
   -4.8617    3.9111    2.4549 H   0  0  0  0  0  0  0  0  0  0  0  0
   -3.2021    4.7730    0.7988 H   0  0  0  0  0  0  0  0  0  0  0  0
   -0.4487   -1.1468   -2.5900 H   0  0  0  0  0  0  0  0  0  0  0  0
    1.6558   -2.0278   -3.5024 H   0  0  0  0  0  0  0  0  0  0  0  0
  1  2  1  0
  2  3  1  0
  3  4  2  0
  4  5  1  0
  5  6  2  0
  6  7  1  0
  7  8  1  0
  8  9  3  0
  7 10  2  3
 10 11  1  0
 11 12  2  0
 12 13  1  0
 13 14  2  0
 14 15  1  0
 15 16  2  0
  6 17  1  0
 17 18  2  0
 18  3  1  0
 16 11  1  0
  1 19  1  0
  1 20  1  0
  1 21  1  0
  4 22  1  0
  5 23  1  0
 10 24  1  0
 12 25  1  0
 13 26  1  0
 14 27  1  0
 15 28  1  0
 17 29  1  0
 18 30  1  0
M  END
$$$$
