
     RDKit          3D

 42 45  0  0  0  0  0  0  0  0999 V2000
    2.5743   -1.8685   -0.5255 C   0  0  0  0  0  0  0  0  0  0  0  0
    3.3094   -0.8517    0.2685 C   0  0  0  0  0  0  0  0  0  0  0  0
    2.8955   -0.0131    1.2971 C   0  0  0  0  0  0  0  0  0  0  0  0
    1.5625    0.1842    1.8629 C   0  0  0  0  0  0  0  0  0  0  0  0
    1.3828    0.3657    3.0637 O   0  0  0  0  0  0  0  0  0  0  0  0
    0.5418    0.1843    0.9165 N   0  0  0  0  0  0  0  0  0  0  0  0
   -0.7504    0.3646    1.3119 N   0  0  0  0  0  0  0  0  0  0  0  0
   -1.6368    0.4211    0.3653 C   0  0  0  0  0  0  0  0  0  0  0  0
   -3.0786    0.6162    0.6685 C   0  0  0  0  0  0  0  0  0  0  0  0
   -3.4839    0.7652    2.0078 C   0  0  0  0  0  0  0  0  0  0  0  0
   -2.6296    0.7438    3.0784 O   0  0  0  0  0  0  0  0  0  0  0  0
   -4.8215    0.9500    2.3279 C   0  0  0  0  0  0  0  0  0  0  0  0
   -5.7754    0.9892    1.3172 C   0  0  0  0  0  0  0  0  0  0  0  0
   -5.4083    0.8441   -0.0278 C   0  0  0  0  0  0  0  0  0  0  0  0
   -6.4051    0.8898   -1.0161 C   0  0  0  0  0  0  0  0  0  0  0  0
   -6.0900    0.7501   -2.3646 C   0  0  0  0  0  0  0  0  0  0  0  0
   -4.7700    0.5620   -2.7426 C   0  0  0  0  0  0  0  0  0  0  0  0
   -3.7650    0.5140   -1.7713 C   0  0  0  0  0  0  0  0  0  0  0  0
   -4.0456    0.6532   -0.3848 C   0  0  0  0  0  0  0  0  0  0  0  0
    3.9836    0.6510    1.7933 N   0  0  0  0  0  0  0  0  0  0  0  0
    5.0459    0.3031    1.0897 N   0  0  0  0  0  0  0  0  0  0  0  0
    4.6769   -0.5946    0.1369 N   0  0  0  0  0  0  0  0  0  0  0  0
    5.6059   -1.0992   -0.8074 C   0  0  0  0  0  0  0  0  0  0  0  0
    5.2119   -1.8924   -1.8055 N   0  0  0  0  0  0  0  0  0  0  0  0
    6.3848   -2.1464   -2.5169 O   0  0  0  0  0  0  0  0  0  0  0  0
    7.4726   -1.4940   -1.9476 N   0  0  0  0  0  0  0  0  0  0  0  0
    6.9892   -0.8516   -0.8852 C   0  0  0  0  0  0  0  0  0  0  0  0
    7.7283   -0.1027   -0.0469 N   0  0  0  0  0  0  0  0  0  0  0  0
    1.5872   -2.0720   -0.0999 H   0  0  0  0  0  0  0  0  0  0  0  0
    2.4299   -1.5265   -1.5549 H   0  0  0  0  0  0  0  0  0  0  0  0
    3.1050   -2.8257   -0.5334 H   0  0  0  0  0  0  0  0  0  0  0  0
    0.7642    0.1584   -0.0710 H   0  0  0  0  0  0  0  0  0  0  0  0
   -1.3260    0.3243   -0.6851 H   0  0  0  0  0  0  0  0  0  0  0  0
   -1.7104    0.6129    2.7523 H   0  0  0  0  0  0  0  0  0  0  0  0
   -5.1194    1.0641    3.3671 H   0  0  0  0  0  0  0  0  0  0  0  0
   -6.8177    1.1357    1.5950 H   0  0  0  0  0  0  0  0  0  0  0  0
   -7.4481    1.0366   -0.7398 H   0  0  0  0  0  0  0  0  0  0  0  0
   -6.8755    0.7884   -3.1148 H   0  0  0  0  0  0  0  0  0  0  0  0
   -4.5169    0.4519   -3.7944 H   0  0  0  0  0  0  0  0  0  0  0  0
   -2.7537    0.3637   -2.1353 H   0  0  0  0  0  0  0  0  0  0  0  0
    7.2981    0.5031    0.6511 H   0  0  0  0  0  0  0  0  0  0  0  0
    8.6781    0.1477   -0.3004 H   0  0  0  0  0  0  0  0  0  0  0  0
  1  2  1  0
  2  3  2  0
  3  4  1  0
  4  5  2  0
  4  6  1  0
  6  7  1  0
  7  8  2  3
  8  9  1  0
  9 10  2  0
 10 11  1  0
 10 12  1  0
 12 13  2  0
 13 14  1  0
 14 15  2  0
 15 16  1  0
 16 17  2  0
 17 18  1  0
 18 19  2  0
  3 20  1  0
 20 21  2  0
 21 22  1  0
 22 23  1  0
 23 24  2  0
 24 25  1  0
 25 26  1  0
 26 27  2  0
 27 28  1  0
 22  2  1  0
 27 23  1  0
 19  9  1  0
 19 14  1  0
  1 29  1  0
  1 30  1  0
  1 31  1  0
  6 32  1  0
  8 33  1  0
 11 34  1  0
 12 35  1  0
 13 36  1  0
 15 37  1  0
 16 38  1  0
 17 39  1  0
 18 40  1  0
 28 41  1  0
 28 42  1  0
M  END
$$$$
