
     RDKit          3D

 63 66  0  0  0  0  0  0  0  0999 V2000
    5.6057    0.0570    2.5308 C   0  0  0  0  0  0  0  0  0  0  0  0
    4.3414    0.4213    1.8074 C   0  0  0  0  0  0  0  0  0  0  0  0
    3.2066    0.0141    2.3037 N   0  0  0  0  0  0  0  0  0  0  0  0
    1.9928    0.3381    1.6916 N   0  0  0  0  0  0  0  0  0  0  0  0
    0.7970   -0.2002    2.3352 C   0  0  0  0  0  0  0  0  0  0  0  0
    0.3491   -1.4983    1.6764 C   0  0  0  0  0  0  0  0  0  0  0  0
   -0.8430   -2.0901    2.3921 C   0  0  0  0  0  0  0  0  0  0  0  0
   -1.2884   -1.6500    3.4446 O   0  0  0  0  0  0  0  0  0  0  0  0
   -1.3532   -3.1988    1.7520 N   0  0  0  0  0  0  0  0  0  0  0  0
   -2.5623   -3.8491    2.2062 C   0  0  0  0  0  0  0  0  0  0  0  0
   -3.7484   -3.3907    1.3983 C   0  0  0  0  0  0  0  0  0  0  0  0
   -4.3856   -2.1803    1.7023 C   0  0  0  0  0  0  0  0  0  0  0  0
   -5.4699   -1.7287    0.9407 C   0  0  0  0  0  0  0  0  0  0  0  0
   -5.9271   -2.4776   -0.1419 C   0  0  0  0  0  0  0  0  0  0  0  0
   -6.9699   -2.1648   -0.9675 O   0  0  0  0  0  0  0  0  0  0  0  0
   -7.5905   -0.8798   -0.8493 C   0  0  0  0  0  0  0  0  0  0  0  0
   -8.1325   -0.5254   -2.2329 C   0  0  0  0  0  0  0  0  0  0  0  0
   -8.7352   -0.9481    0.1582 C   0  0  0  0  0  0  0  0  0  0  0  0
   -5.2937   -3.6846   -0.4468 C   0  0  0  0  0  0  0  0  0  0  0  0
   -4.2108   -4.1390    0.3106 C   0  0  0  0  0  0  0  0  0  0  0  0
    1.8577    1.0693    0.4933 C   0  0  0  0  0  0  0  0  0  0  0  0
    0.7754    1.2967   -0.0434 O   0  0  0  0  0  0  0  0  0  0  0  0
    3.1397    1.5064   -0.0455 C   0  0  0  0  0  0  0  0  0  0  0  0
    3.3331    2.1870   -1.1773 N   0  0  0  0  0  0  0  0  0  0  0  0
    4.6716    2.4284   -1.2217 N   0  0  0  0  0  0  0  0  0  0  0  0
    5.1729    3.3220   -2.2189 C   0  0  0  0  0  0  0  0  0  0  0  0
    4.3658    3.6175   -3.3328 C   0  0  0  0  0  0  0  0  0  0  0  0
    4.8194    4.4832   -4.3316 C   0  0  0  0  0  0  0  0  0  0  0  0
    6.0737    5.0760   -4.2222 C   0  0  0  0  0  0  0  0  0  0  0  0
    6.8699    4.8146   -3.1077 C   0  0  0  0  0  0  0  0  0  0  0  0
    6.4209    3.9465   -2.1059 C   0  0  0  0  0  0  0  0  0  0  0  0
    5.3423    1.7093   -0.2241 C   0  0  0  0  0  0  0  0  0  0  0  0
    6.8154    1.5245   -0.1635 C   0  0  0  0  0  0  0  0  0  0  0  0
    4.3464    1.1926    0.5887 C   0  0  0  0  0  0  0  0  0  0  0  0
    5.3728   -0.3540    3.5179 H   0  0  0  0  0  0  0  0  0  0  0  0
    6.1477   -0.7013    1.9596 H   0  0  0  0  0  0  0  0  0  0  0  0
    6.2353    0.9416    2.6612 H   0  0  0  0  0  0  0  0  0  0  0  0
    1.0173   -0.3542    3.3997 H   0  0  0  0  0  0  0  0  0  0  0  0
   -0.0026    0.5494    2.2762 H   0  0  0  0  0  0  0  0  0  0  0  0
    0.0817   -1.3214    0.6280 H   0  0  0  0  0  0  0  0  0  0  0  0
    1.1628   -2.2330    1.6965 H   0  0  0  0  0  0  0  0  0  0  0  0
   -1.0667   -3.3774    0.7999 H   0  0  0  0  0  0  0  0  0  0  0  0
   -2.7312   -3.6607    3.2727 H   0  0  0  0  0  0  0  0  0  0  0  0
   -2.4141   -4.9283    2.0872 H   0  0  0  0  0  0  0  0  0  0  0  0
   -4.0342   -1.5773    2.5390 H   0  0  0  0  0  0  0  0  0  0  0  0
   -5.9312   -0.7915    1.2300 H   0  0  0  0  0  0  0  0  0  0  0  0
   -6.8696   -0.1009   -0.5758 H   0  0  0  0  0  0  0  0  0  0  0  0
   -8.8386   -1.2854   -2.5867 H   0  0  0  0  0  0  0  0  0  0  0  0
   -7.3163   -0.4913   -2.9644 H   0  0  0  0  0  0  0  0  0  0  0  0
   -8.6353    0.4474   -2.2263 H   0  0  0  0  0  0  0  0  0  0  0  0
   -8.3727   -1.2257    1.1525 H   0  0  0  0  0  0  0  0  0  0  0  0
   -9.4649   -1.7132   -0.1306 H   0  0  0  0  0  0  0  0  0  0  0  0
   -9.2498    0.0145    0.2365 H   0  0  0  0  0  0  0  0  0  0  0  0
   -5.6468   -4.2757   -1.2883 H   0  0  0  0  0  0  0  0  0  0  0  0
   -3.7364   -5.0796    0.0426 H   0  0  0  0  0  0  0  0  0  0  0  0
    3.3800    3.1676   -3.4447 H   0  0  0  0  0  0  0  0  0  0  0  0
    4.1891    4.6924   -5.1935 H   0  0  0  0  0  0  0  0  0  0  0  0
    6.4242    5.7534   -4.9969 H   0  0  0  0  0  0  0  0  0  0  0  0
    7.8391    5.2990   -3.0114 H   0  0  0  0  0  0  0  0  0  0  0  0
    7.0529    3.8264   -1.2337 H   0  0  0  0  0  0  0  0  0  0  0  0
    7.0712    0.5535    0.2685 H   0  0  0  0  0  0  0  0  0  0  0  0
    7.2793    2.2985    0.4541 H   0  0  0  0  0  0  0  0  0  0  0  0
    7.2710    1.5281   -1.1580 H   0  0  0  0  0  0  0  0  0  0  0  0
  1  2  1  0
  2  3  2  0
  3  4  1  0
  4  5  1  0
  5  6  1  0
  6  7  1  0
  7  8  2  0
  7  9  1  0
  9 10  1  0
 10 11  1  0
 11 12  2  0
 12 13  1  0
 13 14  2  0
 14 15  1  0
 15 16  1  0
 16 17  1  0
 16 18  1  0
 14 19  1  0
 19 20  2  0
  4 21  1  0
 21 22  2  0
 21 23  1  0
 23 24  2  0
 24 25  1  0
 25 26  1  0
 26 27  2  0
 27 28  1  0
 28 29  2  0
 29 30  1  0
 30 31  2  0
 25 32  1  0
 32 33  1  0
 32 34  2  0
 34  2  1  0
 20 11  1  0
 34 23  1  0
 31 26  1  0
  1 35  1  0
  1 36  1  0
  1 37  1  0
  5 38  1  0
  5 39  1  0
  6 40  1  0
  6 41  1  0
  9 42  1  0
 10 43  1  0
 10 44  1  0
 12 45  1  0
 13 46  1  0
 16 47  1  0
 17 48  1  0
 17 49  1  0
 17 50  1  0
 18 51  1  0
 18 52  1  0
 18 53  1  0
 19 54  1  0
 20 55  1  0
 27 56  1  0
 28 57  1  0
 29 58  1  0
 30 59  1  0
 31 60  1  0
 33 61  1  0
 33 62  1  0
 33 63  1  0
M  END
$$$$
