
     RDKit          3D

 32 34  0  0  0  0  0  0  0  0999 V2000
   -0.9289    1.5767    0.0338 O   0  0  0  0  0  0  0  0  0  0  0  0
   -0.8726    0.6825    0.8703 C   0  0  0  0  0  0  0  0  0  0  0  0
   -2.1289    0.0795    1.5205 C   0  0  0  0  0  0  0  0  0  0  0  0
   -3.3447    0.7177    1.1505 O   0  0  0  0  0  0  0  0  0  0  0  0
   -3.9025    0.1893    0.0189 C   0  0  0  0  0  0  0  0  0  0  0  0
   -4.0385    1.0306   -1.0835 C   0  0  0  0  0  0  0  0  0  0  0  0
   -4.6476    0.5576   -2.2486 C   0  0  0  0  0  0  0  0  0  0  0  0
   -5.1298   -0.7516   -2.2970 C   0  0  0  0  0  0  0  0  0  0  0  0
   -5.9520   -1.3877   -3.8754 Br  0  0  0  0  0  0  0  0  0  0  0  0
   -5.0140   -1.5922   -1.1923 C   0  0  0  0  0  0  0  0  0  0  0  0
   -4.4073   -1.1115   -0.0369 C   0  0  0  0  0  0  0  0  0  0  0  0
   -4.3168   -1.9180    1.0308 F   0  0  0  0  0  0  0  0  0  0  0  0
    0.2808    0.0915    1.3525 N   0  0  0  0  0  0  0  0  0  0  0  0
    1.5230    0.4596    0.9125 C   0  0  0  0  0  0  0  0  0  0  0  0
    1.8844    1.3370    0.0098 N   0  0  0  0  0  0  0  0  0  0  0  0
    3.2617    1.3940   -0.1257 N   0  0  0  0  0  0  0  0  0  0  0  0
    3.8621    0.5503    0.6824 C   0  0  0  0  0  0  0  0  0  0  0  0
    5.4146    0.4260    0.7482 C   0  0  0  0  0  0  0  0  0  0  0  0
    6.1992    0.3382   -0.5367 C   0  0  0  0  0  0  0  0  0  0  0  0
    6.0770   -0.8680    0.3478 C   0  0  0  0  0  0  0  0  0  0  0  0
    2.8113   -0.3682    1.6724 S   0  0  0  0  0  0  0  0  0  0  0  0
   -2.1370   -1.0002    1.3279 H   0  0  0  0  0  0  0  0  0  0  0  0
   -2.0271    0.2112    2.6037 H   0  0  0  0  0  0  0  0  0  0  0  0
   -3.6537    2.0475   -1.0404 H   0  0  0  0  0  0  0  0  0  0  0  0
   -4.7431    1.2200   -3.1048 H   0  0  0  0  0  0  0  0  0  0  0  0
   -5.3949   -2.6084   -1.2112 H   0  0  0  0  0  0  0  0  0  0  0  0
    0.2424   -0.6234    2.0638 H   0  0  0  0  0  0  0  0  0  0  0  0
    5.8644    0.9898    1.5577 H   0  0  0  0  0  0  0  0  0  0  0  0
    7.1520    0.8524   -0.5805 H   0  0  0  0  0  0  0  0  0  0  0  0
    5.6531    0.3454   -1.4739 H   0  0  0  0  0  0  0  0  0  0  0  0
    6.9493   -1.1792    0.9098 H   0  0  0  0  0  0  0  0  0  0  0  0
    5.4638   -1.6884   -0.0072 H   0  0  0  0  0  0  0  0  0  0  0  0
  1  2  2  0
  2  3  1  0
  3  4  1  0
  4  5  1  0
  5  6  2  0
  6  7  1  0
  7  8  2  0
  8  9  1  0
  8 10  1  0
 10 11  2  0
 11 12  1  0
  2 13  1  0
 13 14  1  0
 14 15  2  0
 15 16  1  0
 16 17  2  0
 17 18  1  0
 18 19  1  0
 19 20  1  0
 17 21  1  0
 11  5  1  0
 21 14  1  0
 20 18  1  0
  3 22  1  0
  3 23  1  0
  6 24  1  0
  7 25  1  0
 10 26  1  0
 13 27  1  0
 18 28  1  0
 19 29  1  0
 19 30  1  0
 20 31  1  0
 20 32  1  0
M  END
$$$$
