
     RDKit          3D

 36 37  0  0  0  0  0  0  0  0999 V2000
   -7.2963   -0.0208    0.2669 C   0  0  0  0  0  0  0  0  0  0  0  0
   -6.2653   -0.4772    1.1339 O   0  0  0  0  0  0  0  0  0  0  0  0
   -4.9810   -0.1608    0.7887 C   0  0  0  0  0  0  0  0  0  0  0  0
   -4.0068   -0.6315    1.6734 C   0  0  0  0  0  0  0  0  0  0  0  0
   -2.6501   -0.3816    1.4448 C   0  0  0  0  0  0  0  0  0  0  0  0
   -2.2537    0.3477    0.3184 C   0  0  0  0  0  0  0  0  0  0  0  0
   -0.8271    0.6466    0.0181 C   0  0  0  0  0  0  0  0  0  0  0  0
   -0.4637    1.2857   -0.9567 O   0  0  0  0  0  0  0  0  0  0  0  0
   -0.0159    0.1078    0.9623 O   0  0  0  0  0  0  0  0  0  0  0  0
    1.3900    0.3482    0.7793 C   0  0  0  0  0  0  0  0  0  0  0  0
    1.9850   -0.6708   -0.1910 C   0  0  0  0  0  0  0  0  0  0  0  0
    3.4663   -0.4714   -0.3789 C   0  0  0  0  0  0  0  0  0  0  0  0
    4.3868   -1.1814    0.4036 C   0  0  0  0  0  0  0  0  0  0  0  0
    5.7574   -0.9767    0.2384 C   0  0  0  0  0  0  0  0  0  0  0  0
    6.2091   -0.0615   -0.7044 C   0  0  0  0  0  0  0  0  0  0  0  0
    7.5562    0.1071   -0.8320 O   0  0  0  0  0  0  0  0  0  0  0  0
    5.3117    0.6568   -1.4875 C   0  0  0  0  0  0  0  0  0  0  0  0
    3.9402    0.4522   -1.3222 C   0  0  0  0  0  0  0  0  0  0  0  0
   -3.2306    0.8198   -0.5683 C   0  0  0  0  0  0  0  0  0  0  0  0
   -4.5879    0.5668   -0.3346 C   0  0  0  0  0  0  0  0  0  0  0  0
   -7.3164    1.0730    0.2192 H   0  0  0  0  0  0  0  0  0  0  0  0
   -8.2530   -0.3534    0.6812 H   0  0  0  0  0  0  0  0  0  0  0  0
   -7.1952   -0.4590   -0.7314 H   0  0  0  0  0  0  0  0  0  0  0  0
   -4.3083   -1.1991    2.5512 H   0  0  0  0  0  0  0  0  0  0  0  0
   -1.9202   -0.7624    2.1544 H   0  0  0  0  0  0  0  0  0  0  0  0
    1.8575    0.2486    1.7657 H   0  0  0  0  0  0  0  0  0  0  0  0
    1.5669    1.3814    0.4546 H   0  0  0  0  0  0  0  0  0  0  0  0
    1.7825   -1.6871    0.1711 H   0  0  0  0  0  0  0  0  0  0  0  0
    1.4807   -0.6179   -1.1639 H   0  0  0  0  0  0  0  0  0  0  0  0
    4.0444   -1.8990    1.1456 H   0  0  0  0  0  0  0  0  0  0  0  0
    6.4704   -1.5293    0.8434 H   0  0  0  0  0  0  0  0  0  0  0  0
    7.7191    0.7648   -1.5275 H   0  0  0  0  0  0  0  0  0  0  0  0
    5.6554    1.3750   -2.2249 H   0  0  0  0  0  0  0  0  0  0  0  0
    3.2392    1.0176   -1.9340 H   0  0  0  0  0  0  0  0  0  0  0  0
   -2.9396    1.3894   -1.4495 H   0  0  0  0  0  0  0  0  0  0  0  0
   -5.3079    0.9524   -1.0490 H   0  0  0  0  0  0  0  0  0  0  0  0
  1  2  1  0
  2  3  1  0
  3  4  2  0
  4  5  1  0
  5  6  2  0
  6  7  1  0
  7  8  2  0
  7  9  1  0
  9 10  1  0
 10 11  1  0
 11 12  1  0
 12 13  2  0
 13 14  1  0
 14 15  2  0
 15 16  1  0
 15 17  1  0
 17 18  2  0
  6 19  1  0
 19 20  2  0
 20  3  1  0
 18 12  1  0
  1 21  1  0
  1 22  1  0
  1 23  1  0
  4 24  1  0
  5 25  1  0
 10 26  1  0
 10 27  1  0
 11 28  1  0
 11 29  1  0
 13 30  1  0
 14 31  1  0
 16 32  1  0
 17 33  1  0
 18 34  1  0
 19 35  1  0
 20 36  1  0
M  END
$$$$
