
     RDKit          3D

 49 50  0  0  0  0  0  0  0  0999 V2000
    6.2790    1.3654    1.2495 C   0  0  0  0  0  0  0  0  0  0  0  0
    5.8237    0.6364    0.0014 C   0  0  0  0  0  0  0  0  0  0  0  0
    4.4381    0.3047    0.1453 O   0  0  0  0  0  0  0  0  0  0  0  0
    3.9241   -0.4169   -0.8946 C   0  0  0  0  0  0  0  0  0  0  0  0
    4.5856   -0.7469   -1.8742 O   0  0  0  0  0  0  0  0  0  0  0  0
    2.4915   -0.7186   -0.7493 C   0  0  0  0  0  0  0  0  0  0  0  0
    1.6240   -1.1595   -1.8113 C   0  0  0  0  0  0  0  0  0  0  0  0
    2.0336   -1.3786   -3.2297 C   0  0  0  0  0  0  0  0  0  0  0  0
    0.3536   -1.3157   -1.2799 C   0  0  0  0  0  0  0  0  0  0  0  0
   -0.9045   -1.7559   -1.9547 C   0  0  0  0  0  0  0  0  0  0  0  0
    0.4005   -0.9364    0.0473 N   0  0  0  0  0  0  0  0  0  0  0  0
   -0.7691   -0.8748    0.9370 C   0  0  0  0  0  0  0  0  0  0  0  0
   -1.7146    0.2616    0.6042 C   0  0  0  0  0  0  0  0  0  0  0  0
   -1.2201    1.5492    0.3127 C   0  0  0  0  0  0  0  0  0  0  0  0
   -2.0867    2.6083    0.0397 C   0  0  0  0  0  0  0  0  0  0  0  0
   -3.4622    2.3998    0.0466 C   0  0  0  0  0  0  0  0  0  0  0  0
   -3.9720    1.1286    0.3257 C   0  0  0  0  0  0  0  0  0  0  0  0
   -5.3299    0.9294    0.3193 O   0  0  0  0  0  0  0  0  0  0  0  0
   -5.8597    1.0478   -1.0031 C   0  0  0  0  0  0  0  0  0  0  0  0
   -3.1081    0.0717    0.6575 C   0  0  0  0  0  0  0  0  0  0  0  0
   -3.5506   -1.1900    0.9772 O   0  0  0  0  0  0  0  0  0  0  0  0
   -4.5341   -1.2065    2.0127 C   0  0  0  0  0  0  0  0  0  0  0  0
    1.7086   -0.6499    0.4063 C   0  0  0  0  0  0  0  0  0  0  0  0
    2.0928   -0.3367    1.8159 C   0  0  0  0  0  0  0  0  0  0  0  0
    6.1455    0.7405    2.1383 H   0  0  0  0  0  0  0  0  0  0  0  0
    7.3319    1.6528    1.1707 H   0  0  0  0  0  0  0  0  0  0  0  0
    5.6782    2.2676    1.4106 H   0  0  0  0  0  0  0  0  0  0  0  0
    6.4161   -0.2763   -0.1348 H   0  0  0  0  0  0  0  0  0  0  0  0
    5.9513    1.2860   -0.8730 H   0  0  0  0  0  0  0  0  0  0  0  0
    2.5325   -0.4862   -3.6270 H   0  0  0  0  0  0  0  0  0  0  0  0
    2.7239   -2.2242   -3.2988 H   0  0  0  0  0  0  0  0  0  0  0  0
    1.1803   -1.5899   -3.8804 H   0  0  0  0  0  0  0  0  0  0  0  0
   -0.6828   -2.3477   -2.8498 H   0  0  0  0  0  0  0  0  0  0  0  0
   -1.5133   -2.3932   -1.3066 H   0  0  0  0  0  0  0  0  0  0  0  0
   -1.4991   -0.8872   -2.2598 H   0  0  0  0  0  0  0  0  0  0  0  0
   -1.2418   -1.8580    0.8662 H   0  0  0  0  0  0  0  0  0  0  0  0
   -0.4381   -0.7606    1.9717 H   0  0  0  0  0  0  0  0  0  0  0  0
   -0.1494    1.7366    0.2908 H   0  0  0  0  0  0  0  0  0  0  0  0
   -1.6856    3.5946   -0.1832 H   0  0  0  0  0  0  0  0  0  0  0  0
   -4.1323    3.2289   -0.1624 H   0  0  0  0  0  0  0  0  0  0  0  0
   -5.2385    0.5286   -1.7432 H   0  0  0  0  0  0  0  0  0  0  0  0
   -5.9854    2.1008   -1.2750 H   0  0  0  0  0  0  0  0  0  0  0  0
   -6.8480    0.5797   -1.0100 H   0  0  0  0  0  0  0  0  0  0  0  0
   -4.4090   -2.1406    2.5732 H   0  0  0  0  0  0  0  0  0  0  0  0
   -4.4208   -0.3759    2.7218 H   0  0  0  0  0  0  0  0  0  0  0  0
   -5.5385   -1.2146    1.5784 H   0  0  0  0  0  0  0  0  0  0  0  0
    1.6184   -1.0267    2.5211 H   0  0  0  0  0  0  0  0  0  0  0  0
    1.7952    0.6857    2.0697 H   0  0  0  0  0  0  0  0  0  0  0  0
    3.1657   -0.4372    1.9867 H   0  0  0  0  0  0  0  0  0  0  0  0
  1  2  1  0
  2  3  1  0
  3  4  1  0
  4  5  2  0
  4  6  1  0
  6  7  1  0
  7  8  1  0
  7  9  2  0
  9 10  1  0
  9 11  1  0
 11 12  1  0
 12 13  1  0
 13 14  2  0
 14 15  1  0
 15 16  2  0
 16 17  1  0
 17 18  1  0
 18 19  1  0
 17 20  2  0
 20 21  1  0
 21 22  1  0
 11 23  1  0
 23 24  1  0
 23  6  2  0
 20 13  1  0
  1 25  1  0
  1 26  1  0
  1 27  1  0
  2 28  1  0
  2 29  1  0
  8 30  1  0
  8 31  1  0
  8 32  1  0
 10 33  1  0
 10 34  1  0
 10 35  1  0
 12 36  1  0
 12 37  1  0
 14 38  1  0
 15 39  1  0
 16 40  1  0
 19 41  1  0
 19 42  1  0
 19 43  1  0
 22 44  1  0
 22 45  1  0
 22 46  1  0
 24 47  1  0
 24 48  1  0
 24 49  1  0
M  END
$$$$
