
     RDKit          3D

 32 33  0  0  0  0  0  0  0  0999 V2000
   -5.8676   -0.4471   -0.0654 C   0  0  0  0  0  0  0  0  0  0  0  0
   -4.3951   -0.1957   -0.2088 C   0  0  0  0  0  0  0  0  0  0  0  0
   -3.8185   -0.0616   -1.4781 C   0  0  0  0  0  0  0  0  0  0  0  0
   -2.4420    0.1443   -1.6143 C   0  0  0  0  0  0  0  0  0  0  0  0
   -1.8052    0.3549   -3.2068 Cl  0  0  0  0  0  0  0  0  0  0  0  0
   -1.6183    0.1865   -0.4827 C   0  0  0  0  0  0  0  0  0  0  0  0
   -0.2711    0.4191   -0.6115 O   0  0  0  0  0  0  0  0  0  0  0  0
    0.4456   -0.8117   -0.7738 C   0  0  0  0  0  0  0  0  0  0  0  0
    1.9353   -0.4974   -0.8565 C   0  0  0  0  0  0  0  0  0  0  0  0
    2.4390    0.1948    0.4085 C   0  0  0  0  0  0  0  0  0  0  0  0
    3.8699    0.4222    0.3658 N   0  0  0  0  0  0  0  0  0  0  0  0
    4.5005    1.5096   -0.1690 C   0  0  0  0  0  0  0  0  0  0  0  0
    5.8406    1.2737    0.0322 C   0  0  0  0  0  0  0  0  0  0  0  0
    6.0335    0.0784    0.6765 N   0  0  0  0  0  0  0  0  0  0  0  0
    4.8284   -0.4090    0.8693 C   0  0  0  0  0  0  0  0  0  0  0  0
   -2.1948    0.0722    0.7877 C   0  0  0  0  0  0  0  0  0  0  0  0
   -1.1548    0.2026    2.3715 Br  0  0  0  0  0  0  0  0  0  0  0  0
   -3.5720   -0.1337    0.9227 C   0  0  0  0  0  0  0  0  0  0  0  0
   -6.2467   -0.0242    0.8709 H   0  0  0  0  0  0  0  0  0  0  0  0
   -6.4256    0.0221   -0.8826 H   0  0  0  0  0  0  0  0  0  0  0  0
   -6.0653   -1.5233   -0.0737 H   0  0  0  0  0  0  0  0  0  0  0  0
   -4.4462   -0.1070   -2.3661 H   0  0  0  0  0  0  0  0  0  0  0  0
    0.1369   -1.3156   -1.6970 H   0  0  0  0  0  0  0  0  0  0  0  0
    0.2560   -1.4865    0.0701 H   0  0  0  0  0  0  0  0  0  0  0  0
    2.4919   -1.4265   -1.0278 H   0  0  0  0  0  0  0  0  0  0  0  0
    2.1217    0.1548   -1.7191 H   0  0  0  0  0  0  0  0  0  0  0  0
    1.9600    1.1702    0.5506 H   0  0  0  0  0  0  0  0  0  0  0  0
    2.2295   -0.4123    1.2968 H   0  0  0  0  0  0  0  0  0  0  0  0
    3.9686    2.3286   -0.6323 H   0  0  0  0  0  0  0  0  0  0  0  0
    6.6760    1.9005   -0.2514 H   0  0  0  0  0  0  0  0  0  0  0  0
    4.6004   -1.3467    1.3590 H   0  0  0  0  0  0  0  0  0  0  0  0
   -4.0108   -0.2362    1.9137 H   0  0  0  0  0  0  0  0  0  0  0  0
  1  2  1  0
  2  3  2  0
  3  4  1  0
  4  5  1  0
  4  6  2  0
  6  7  1  0
  7  8  1  0
  8  9  1  0
  9 10  1  0
 10 11  1  0
 11 12  1  0
 12 13  2  0
 13 14  1  0
 14 15  2  0
  6 16  1  0
 16 17  1  0
 16 18  2  0
 18  2  1  0
 15 11  1  0
  1 19  1  0
  1 20  1  0
  1 21  1  0
  3 22  1  0
  8 23  1  0
  8 24  1  0
  9 25  1  0
  9 26  1  0
 10 27  1  0
 10 28  1  0
 12 29  1  0
 13 30  1  0
 15 31  1  0
 18 32  1  0
M  END
$$$$
