
     RDKit          3D

 40 42  0  0  0  0  0  0  0  0999 V2000
   -5.6407    2.5417    1.1855 C   0  0  0  0  0  0  0  0  0  0  0  0
   -4.3769    2.4561    0.7484 C   0  0  0  0  0  0  0  0  0  0  0  0
   -3.9465    1.6755   -0.4594 C   0  0  0  0  0  0  0  0  0  0  0  0
   -2.8921    0.7166   -0.1391 N   0  0  0  0  0  0  0  0  0  0  0  0
   -1.5498    0.9550   -0.3195 C   0  0  0  0  0  0  0  0  0  0  0  0
   -0.8584   -0.1745    0.0614 C   0  0  0  0  0  0  0  0  0  0  0  0
    0.5622   -0.3458    0.0400 C   0  0  0  0  0  0  0  0  0  0  0  0
    1.4581    0.5347   -0.4389 C   0  0  0  0  0  0  0  0  0  0  0  0
    2.9060    0.3014   -0.4352 C   0  0  0  0  0  0  0  0  0  0  0  0
    3.6540    0.6428   -1.5601 C   0  0  0  0  0  0  0  0  0  0  0  0
    5.0304    0.4466   -1.5585 C   0  0  0  0  0  0  0  0  0  0  0  0
    5.6530   -0.0555   -0.4689 N   0  0  0  0  0  4  0  0  0  0  0  0
    7.1107   -0.2649   -0.4939 C   0  0  0  0  0  0  0  0  0  0  0  0
    4.9496   -0.3852    0.6372 C   0  0  0  0  0  0  0  0  0  0  0  0
    3.5713   -0.2084    0.6788 C   0  0  0  0  0  0  0  0  0  0  0  0
   -1.8222   -1.1417    0.4904 C   0  0  0  0  0  0  0  0  0  0  0  0
   -1.7425   -2.4642    0.9825 C   0  0  0  0  0  0  0  0  0  0  0  0
   -2.9111   -3.1530    1.3248 C   0  0  0  0  0  0  0  0  0  0  0  0
   -4.1540   -2.5463    1.1862 C   0  0  0  0  0  0  0  0  0  0  0  0
   -4.2648   -1.2408    0.7012 C   0  0  0  0  0  0  0  0  0  0  0  0
   -3.0869   -0.5572    0.3563 C   0  0  0  0  0  0  0  0  0  0  0  0
   -6.4599    2.0369    0.6822 H   0  0  0  0  0  0  0  0  0  0  0  0
   -5.8836    3.1232    2.0705 H   0  0  0  0  0  0  0  0  0  0  0  0
   -3.5968    2.9828    1.2943 H   0  0  0  0  0  0  0  0  0  0  0  0
   -4.7721    1.1210   -0.9187 H   0  0  0  0  0  0  0  0  0  0  0  0
   -3.5490    2.3593   -1.2181 H   0  0  0  0  0  0  0  0  0  0  0  0
   -1.2145    1.9110   -0.6983 H   0  0  0  0  0  0  0  0  0  0  0  0
    0.9212   -1.2902    0.4429 H   0  0  0  0  0  0  0  0  0  0  0  0
    1.1277    1.4722   -0.8802 H   0  0  0  0  0  0  0  0  0  0  0  0
    3.1702    1.0499   -2.4465 H   0  0  0  0  0  0  0  0  0  0  0  0
    5.6412    0.6878   -2.4241 H   0  0  0  0  0  0  0  0  0  0  0  0
    7.5077   -0.1413    0.5170 H   0  0  0  0  0  0  0  0  0  0  0  0
    7.2891   -1.2783   -0.8618 H   0  0  0  0  0  0  0  0  0  0  0  0
    7.5684    0.4758   -1.1547 H   0  0  0  0  0  0  0  0  0  0  0  0
    5.4981   -0.7868    1.4847 H   0  0  0  0  0  0  0  0  0  0  0  0
    3.0269   -0.4622    1.5867 H   0  0  0  0  0  0  0  0  0  0  0  0
   -0.7816   -2.9549    1.0984 H   0  0  0  0  0  0  0  0  0  0  0  0
   -2.8469   -4.1701    1.7036 H   0  0  0  0  0  0  0  0  0  0  0  0
   -5.0540   -3.0928    1.4599 H   0  0  0  0  0  0  0  0  0  0  0  0
   -5.2411   -0.7763    0.6036 H   0  0  0  0  0  0  0  0  0  0  0  0
  1  2  2  0
  2  3  1  0
  3  4  1  0
  4  5  1  0
  5  6  2  0
  6  7  1  0
  7  8  2  3
  8  9  1  0
  9 10  2  0
 10 11  1  0
 11 12  2  0
 12 13  1  0
 12 14  1  0
 14 15  2  0
  6 16  1  0
 16 17  2  0
 17 18  1  0
 18 19  2  0
 19 20  1  0
 20 21  2  0
 21  4  1  0
 15  9  1  0
 21 16  1  0
  1 22  1  0
  1 23  1  0
  2 24  1  0
  3 25  1  0
  3 26  1  0
  5 27  1  0
  7 28  1  0
  8 29  1  0
 10 30  1  0
 11 31  1  0
 13 32  1  0
 13 33  1  0
 13 34  1  0
 14 35  1  0
 15 36  1  0
 17 37  1  0
 18 38  1  0
 19 39  1  0
 20 40  1  0
M  CHG  1  12   1
M  END
$$$$
