
     RDKit          3D

 69 74  0  0  0  0  0  0  0  0999 V2000
    1.2354   -2.6435   -2.3237 O   0  0  0  0  0  0  0  0  0  0  0  0
    1.9637   -1.6755   -1.5546 C   0  0  0  0  0  0  0  0  0  0  0  0
    3.3479   -1.4695   -2.1764 C   0  0  0  0  0  0  0  0  0  0  0  0
    4.1427   -0.5750   -1.3975 O   0  0  0  0  0  0  0  0  0  0  0  0
    4.9864   -1.0660   -0.4426 C   0  0  0  0  0  0  0  0  0  0  0  0
    4.9468   -2.3969   -0.0010 C   0  0  0  0  0  0  0  0  0  0  0  0
    5.8126   -2.8558    0.9938 C   0  0  0  0  0  0  0  0  0  0  0  0
    6.7309   -1.9864    1.5707 C   0  0  0  0  0  0  0  0  0  0  0  0
    6.7965   -0.6523    1.1651 C   0  0  0  0  0  0  0  0  0  0  0  0
    7.7539    0.1615    1.8134 N   0  0  0  0  0  0  0  0  0  0  0  0
    7.8442    1.4053    1.4664 C   0  0  0  0  0  0  0  0  0  0  0  0
    7.0064    1.9649    0.4527 C   0  0  0  0  0  0  0  0  0  0  0  0
    6.9445    3.2461   -0.0518 C   0  0  0  0  0  0  0  0  0  0  0  0
    5.9421    3.2497   -1.0446 C   0  0  0  0  0  0  0  0  0  0  0  0
    5.4269    1.9718   -1.1129 C   0  0  0  0  0  0  0  0  0  0  0  0
    6.0712    1.1789   -0.1887 N   0  0  0  0  0  0  0  0  0  0  0  0
    5.9190   -0.1920    0.1519 C   0  0  0  0  0  0  0  0  0  0  0  0
    1.1559   -0.3576   -1.5108 C   0  0  0  0  0  0  0  0  0  0  0  0
   -0.2365   -0.6058   -1.0803 N   0  0  0  0  0  0  0  0  0  0  0  0
   -0.3250   -0.9721    0.3518 C   0  0  0  0  0  0  0  0  0  0  0  0
   -1.6357   -0.5547    1.0760 C   0  0  0  0  0  0  0  0  0  0  0  0
   -2.7946   -0.5271    0.1884 N   0  0  0  0  0  0  0  0  0  0  0  0
   -4.1066   -0.4209    0.8524 C   0  0  0  0  0  0  0  0  0  0  0  0
   -5.2766   -0.6089   -0.1235 C   0  0  0  0  0  0  0  0  0  0  0  0
   -5.5566   -1.8968   -0.6160 C   0  0  0  0  0  0  0  0  0  0  0  0
   -6.6063   -2.1110   -1.5112 C   0  0  0  0  0  0  0  0  0  0  0  0
   -7.3891   -1.0408   -1.9371 C   0  0  0  0  0  0  0  0  0  0  0  0
   -7.1178    0.2436   -1.4733 C   0  0  0  0  0  0  0  0  0  0  0  0
   -6.0681    0.4596   -0.5766 C   0  0  0  0  0  0  0  0  0  0  0  0
   -4.3047    0.7239    1.8590 C   0  0  0  0  0  0  0  0  0  0  0  0
   -5.1196    0.4901    2.9850 C   0  0  0  0  0  0  0  0  0  0  0  0
   -5.3635    1.4941    3.9244 C   0  0  0  0  0  0  0  0  0  0  0  0
   -4.8033    2.7560    3.7555 C   0  0  0  0  0  0  0  0  0  0  0  0
   -4.0035    3.0142    2.6455 C   0  0  0  0  0  0  0  0  0  0  0  0
   -3.7594    2.0087    1.7050 C   0  0  0  0  0  0  0  0  0  0  0  0
   -2.5890    0.2513   -1.0354 C   0  0  0  0  0  0  0  0  0  0  0  0
   -1.1026    0.5486   -1.3636 C   0  0  0  0  0  0  0  0  0  0  0  0
    0.2929   -2.4379   -2.1402 H   0  0  0  0  0  0  0  0  0  0  0  0
    2.0655   -2.0740   -0.5388 H   0  0  0  0  0  0  0  0  0  0  0  0
    3.2274   -1.0060   -3.1645 H   0  0  0  0  0  0  0  0  0  0  0  0
    3.8586   -2.4164   -2.3885 H   0  0  0  0  0  0  0  0  0  0  0  0
    4.2403   -3.1168   -0.4030 H   0  0  0  0  0  0  0  0  0  0  0  0
    5.7661   -3.8914    1.3222 H   0  0  0  0  0  0  0  0  0  0  0  0
    7.4027   -2.3425    2.3482 H   0  0  0  0  0  0  0  0  0  0  0  0
    8.5859    2.0509    1.9644 H   0  0  0  0  0  0  0  0  0  0  0  0
    7.5562    4.0843    0.2566 H   0  0  0  0  0  0  0  0  0  0  0  0
    5.6283    4.0888   -1.6532 H   0  0  0  0  0  0  0  0  0  0  0  0
    4.6532    1.5894   -1.7591 H   0  0  0  0  0  0  0  0  0  0  0  0
    1.6451    0.3921   -0.8776 H   0  0  0  0  0  0  0  0  0  0  0  0
    1.1274    0.0441   -2.5315 H   0  0  0  0  0  0  0  0  0  0  0  0
    0.5085   -0.5398    0.9215 H   0  0  0  0  0  0  0  0  0  0  0  0
   -0.2277   -2.0622    0.4206 H   0  0  0  0  0  0  0  0  0  0  0  0
   -1.4724    0.4355    1.5188 H   0  0  0  0  0  0  0  0  0  0  0  0
   -1.8003   -1.2545    1.9048 H   0  0  0  0  0  0  0  0  0  0  0  0
   -4.1468   -1.3227    1.4847 H   0  0  0  0  0  0  0  0  0  0  0  0
   -4.9446   -2.7412   -0.3050 H   0  0  0  0  0  0  0  0  0  0  0  0
   -6.8098   -3.1131   -1.8772 H   0  0  0  0  0  0  0  0  0  0  0  0
   -8.2070   -1.2070   -2.6331 H   0  0  0  0  0  0  0  0  0  0  0  0
   -7.7247    1.0807   -1.8078 H   0  0  0  0  0  0  0  0  0  0  0  0
   -5.8796    1.4742   -0.2359 H   0  0  0  0  0  0  0  0  0  0  0  0
   -5.5828   -0.4843    3.1299 H   0  0  0  0  0  0  0  0  0  0  0  0
   -5.9953    1.2903    4.7845 H   0  0  0  0  0  0  0  0  0  0  0  0
   -4.9926    3.5389    4.4854 H   0  0  0  0  0  0  0  0  0  0  0  0
   -3.5698    4.0025    2.5082 H   0  0  0  0  0  0  0  0  0  0  0  0
   -3.1341    2.2517    0.8522 H   0  0  0  0  0  0  0  0  0  0  0  0
   -3.1190    1.2075   -1.0182 H   0  0  0  0  0  0  0  0  0  0  0  0
   -3.0083   -0.3221   -1.8717 H   0  0  0  0  0  0  0  0  0  0  0  0
   -0.7697    1.4228   -0.7867 H   0  0  0  0  0  0  0  0  0  0  0  0
   -1.0425    0.8181   -2.4257 H   0  0  0  0  0  0  0  0  0  0  0  0
  1  2  1  0
  2  3  1  0
  3  4  1  0
  4  5  1  0
  5  6  2  0
  6  7  1  0
  7  8  2  0
  8  9  1  0
  9 10  1  0
 10 11  2  0
 11 12  1  0
 12 13  2  0
 13 14  1  0
 14 15  2  0
 15 16  1  0
 16 17  1  0
  2 18  1  0
 18 19  1  0
 19 20  1  0
 20 21  1  0
 21 22  1  0
 22 23  1  0
 23 24  1  0
 24 25  2  0
 25 26  1  0
 26 27  2  0
 27 28  1  0
 28 29  2  0
 23 30  1  0
 30 31  2  0
 31 32  1  0
 32 33  2  0
 33 34  1  0
 34 35  2  0
 22 36  1  0
 36 37  1  0
 17  5  1  0
 37 19  1  0
 17  9  2  0
 29 24  1  0
 35 30  1  0
 16 12  1  0
  1 38  1  0
  2 39  1  0
  3 40  1  0
  3 41  1  0
  6 42  1  0
  7 43  1  0
  8 44  1  0
 11 45  1  0
 13 46  1  0
 14 47  1  0
 15 48  1  0
 18 49  1  0
 18 50  1  0
 20 51  1  0
 20 52  1  0
 21 53  1  0
 21 54  1  0
 23 55  1  0
 25 56  1  0
 26 57  1  0
 27 58  1  0
 28 59  1  0
 29 60  1  0
 31 61  1  0
 32 62  1  0
 33 63  1  0
 34 64  1  0
 35 65  1  0
 36 66  1  0
 36 67  1  0
 37 68  1  0
 37 69  1  0
M  END
$$$$
