
     RDKit          3D

 47 51  0  0  0  0  0  0  0  0999 V2000
   -1.4383   -1.5062   -3.2006 C   0  0  0  0  0  0  0  0  0  0  0  0
   -2.0793   -0.5383   -2.2545 C   0  0  0  0  0  0  0  0  0  0  0  0
   -3.3544   -0.2692   -2.3865 N   0  0  0  0  0  0  0  0  0  0  0  0
   -3.9037    0.6256   -1.5106 C   0  0  0  0  0  0  0  0  0  0  0  0
   -5.5517    1.0785   -1.5768 S   0  0  0  0  0  0  0  0  0  0  0  0
   -5.3800    2.1349   -0.2439 C   0  0  0  0  0  0  0  0  0  0  0  0
   -4.0947    2.1569    0.2684 C   0  0  0  0  0  0  0  0  0  0  0  0
   -3.2713    1.2915   -0.4820 C   0  0  0  0  0  0  0  0  0  0  0  0
   -1.7843    0.9480   -0.3694 C   0  0  0  0  0  0  0  0  0  0  0  0
   -0.8804    1.3903    0.4667 N   0  0  0  0  0  0  0  0  0  0  0  0
    0.2950    0.7628    0.1376 N   0  0  0  0  0  0  0  0  0  0  0  0
    0.0660   -0.0435   -0.8807 C   0  0  0  0  0  0  0  0  0  0  0  0
    1.2808   -1.0523   -1.5834 S   0  0  0  0  0  0  0  0  0  0  0  0
    2.7743   -0.3371   -0.8317 C   0  0  0  0  0  0  0  0  0  0  0  0
    4.0043   -1.0683   -1.3399 C   0  0  0  0  0  0  0  0  0  0  0  0
    4.3106   -1.1191   -2.5292 O   0  0  0  0  0  0  0  0  0  0  0  0
    4.7509   -1.6774   -0.3550 N   0  0  0  0  0  0  0  0  0  0  0  0
    6.0065   -2.3152   -0.6781 C   0  0  0  0  0  0  0  0  0  0  0  0
    6.4385   -3.1042    0.4986 C   0  0  0  0  0  0  0  0  0  0  0  0
    6.3699   -4.4455    0.8208 C   0  0  0  0  0  0  0  0  0  0  0  0
    6.9291   -4.5734    2.1145 C   0  0  0  0  0  0  0  0  0  0  0  0
    7.3020   -3.3046    2.4981 C   0  0  0  0  0  0  0  0  0  0  0  0
    7.0056   -2.4035    1.5263 O   0  0  0  0  0  0  0  0  0  0  0  0
   -1.2565    0.0389   -1.2630 N   0  0  0  0  0  0  0  0  0  0  0  0
   -3.7059    3.0182    1.4295 C   0  0  0  0  0  0  0  0  0  0  0  0
   -4.9387    3.5310    2.1917 C   0  0  0  0  0  0  0  0  0  0  0  0
   -6.0350    4.0304    1.2381 C   0  0  0  0  0  0  0  0  0  0  0  0
   -6.5354    2.9141    0.3038 C   0  0  0  0  0  0  0  0  0  0  0  0
   -2.1776   -1.8524   -3.9335 H   0  0  0  0  0  0  0  0  0  0  0  0
   -1.0740   -2.3844   -2.6595 H   0  0  0  0  0  0  0  0  0  0  0  0
   -0.6310   -1.0206   -3.7564 H   0  0  0  0  0  0  0  0  0  0  0  0
    2.7078   -0.4159    0.2585 H   0  0  0  0  0  0  0  0  0  0  0  0
    2.8731    0.7202   -1.1001 H   0  0  0  0  0  0  0  0  0  0  0  0
    4.6192   -1.3993    0.6093 H   0  0  0  0  0  0  0  0  0  0  0  0
    6.7352   -1.5313   -0.9107 H   0  0  0  0  0  0  0  0  0  0  0  0
    5.8860   -2.9419   -1.5667 H   0  0  0  0  0  0  0  0  0  0  0  0
    5.9556   -5.2322    0.2007 H   0  0  0  0  0  0  0  0  0  0  0  0
    7.0407   -5.4759    2.6988 H   0  0  0  0  0  0  0  0  0  0  0  0
    7.7560   -2.8950    3.3908 H   0  0  0  0  0  0  0  0  0  0  0  0
   -3.0635    2.4614    2.1209 H   0  0  0  0  0  0  0  0  0  0  0  0
   -3.1268    3.8707    1.0547 H   0  0  0  0  0  0  0  0  0  0  0  0
   -4.6391    4.3355    2.8739 H   0  0  0  0  0  0  0  0  0  0  0  0
   -5.3476    2.7200    2.8124 H   0  0  0  0  0  0  0  0  0  0  0  0
   -6.8811    4.4229    1.8149 H   0  0  0  0  0  0  0  0  0  0  0  0
   -5.6389    4.8615    0.6399 H   0  0  0  0  0  0  0  0  0  0  0  0
   -7.1860    2.2349    0.8696 H   0  0  0  0  0  0  0  0  0  0  0  0
   -7.1321    3.3587   -0.5018 H   0  0  0  0  0  0  0  0  0  0  0  0
  1  2  1  0
  2  3  2  0
  3  4  1  0
  4  5  1  0
  5  6  1  0
  6  7  2  0
  7  8  1  0
  8  9  1  0
  9 10  2  0
 10 11  1  0
 11 12  2  0
 12 13  1  0
 13 14  1  0
 14 15  1  0
 15 16  2  0
 15 17  1  0
 17 18  1  0
 18 19  1  0
 19 20  2  0
 20 21  1  0
 21 22  2  0
 22 23  1  0
 12 24  1  0
  7 25  1  0
 25 26  1  0
 26 27  1  0
 27 28  1  0
 24  2  1  0
  8  4  2  0
 24  9  1  0
 28  6  1  0
 23 19  1  0
  1 29  1  0
  1 30  1  0
  1 31  1  0
 14 32  1  0
 14 33  1  0
 17 34  1  0
 18 35  1  0
 18 36  1  0
 20 37  1  0
 21 38  1  0
 22 39  1  0
 25 40  1  0
 25 41  1  0
 26 42  1  0
 26 43  1  0
 27 44  1  0
 27 45  1  0
 28 46  1  0
 28 47  1  0
M  END
$$$$
