
     RDKit          3D

 32 32  0  0  0  0  0  0  0  0999 V2000
   -3.6025    1.6563   -4.1620 C   0  0  0  0  0  0  0  0  0  0  0  0
   -2.6425    1.8843   -3.4766 C   0  0  0  0  0  0  0  0  0  0  0  0
   -1.4687    2.1674   -2.6330 C   0  0  0  0  0  0  0  0  0  0  0  0
   -0.6991    0.9451   -2.3445 N   0  0  0  0  0  0  0  0  0  0  0  0
    0.0156    0.4909   -3.5441 C   0  0  0  0  0  0  0  0  0  0  0  0
    0.2614    1.1592   -1.2475 C   0  0  0  0  0  0  0  0  0  0  0  0
   -0.3936    1.1008    0.1414 C   0  0  0  0  0  0  0  0  0  0  0  0
   -0.9732   -0.2762    0.4722 C   0  0  0  0  0  0  0  0  0  0  0  0
    0.0443   -1.2782    0.5046 O   0  0  0  0  0  0  0  0  0  0  0  0
    0.7435   -1.5136    1.6574 C   0  0  0  0  0  0  0  0  0  0  0  0
    0.5961   -0.7910    2.8454 C   0  0  0  0  0  0  0  0  0  0  0  0
    1.3674   -1.1149    3.9655 C   0  0  0  0  0  0  0  0  0  0  0  0
    1.1749   -0.2133    5.4196 Cl  0  0  0  0  0  0  0  0  0  0  0  0
    2.2921   -2.1549    3.9205 C   0  0  0  0  0  0  0  0  0  0  0  0
    2.4514   -2.8795    2.7410 C   0  0  0  0  0  0  0  0  0  0  0  0
    1.6834   -2.5598    1.6166 C   0  0  0  0  0  0  0  0  0  0  0  0
    1.9341   -3.4914    0.1804 Cl  0  0  0  0  0  0  0  0  0  0  0  0
   -4.4526    1.4443   -4.7680 H   0  0  0  0  0  0  0  0  0  0  0  0
   -1.8469    2.6096   -1.7045 H   0  0  0  0  0  0  0  0  0  0  0  0
   -0.8361    2.9300   -3.1048 H   0  0  0  0  0  0  0  0  0  0  0  0
    0.5487   -0.4448   -3.3399 H   0  0  0  0  0  0  0  0  0  0  0  0
   -0.6756    0.2699   -4.3643 H   0  0  0  0  0  0  0  0  0  0  0  0
    0.7436    1.2318   -3.8943 H   0  0  0  0  0  0  0  0  0  0  0  0
    0.7799    2.1190   -1.3712 H   0  0  0  0  0  0  0  0  0  0  0  0
    1.0425    0.3880   -1.2728 H   0  0  0  0  0  0  0  0  0  0  0  0
    0.3754    1.3625    0.8773 H   0  0  0  0  0  0  0  0  0  0  0  0
   -1.1821    1.8549    0.2329 H   0  0  0  0  0  0  0  0  0  0  0  0
   -1.6841   -0.5757   -0.3061 H   0  0  0  0  0  0  0  0  0  0  0  0
   -1.5559   -0.2583    1.3999 H   0  0  0  0  0  0  0  0  0  0  0  0
   -0.1043    0.0323    2.9295 H   0  0  0  0  0  0  0  0  0  0  0  0
    2.8894   -2.4035    4.7938 H   0  0  0  0  0  0  0  0  0  0  0  0
    3.1738   -3.6909    2.7004 H   0  0  0  0  0  0  0  0  0  0  0  0
  1  2  3  0
  2  3  1  0
  3  4  1  0
  4  5  1  0
  4  6  1  0
  6  7  1  0
  7  8  1  0
  8  9  1  0
  9 10  1  0
 10 11  2  0
 11 12  1  0
 12 13  1  0
 12 14  2  0
 14 15  1  0
 15 16  2  0
 16 17  1  0
 16 10  1  0
  1 18  1  0
  3 19  1  0
  3 20  1  0
  5 21  1  0
  5 22  1  0
  5 23  1  0
  6 24  1  0
  6 25  1  0
  7 26  1  0
  7 27  1  0
  8 28  1  0
  8 29  1  0
 11 30  1  0
 14 31  1  0
 15 32  1  0
M  END
$$$$
