
     RDKit          3D

 34 35  0  0  0  0  0  0  0  0999 V2000
   -4.6733   -0.7016   -0.9850 O   0  0  0  0  0  0  0  0  0  0  0  0
   -3.9717   -0.4016   -0.0125 C   0  0  0  0  0  0  0  0  0  0  0  0
   -4.5574    0.2692    1.2376 C   0  0  0  0  0  0  0  0  0  0  0  0
   -4.7554   -0.9562    2.5130 Cl  0  0  0  0  0  0  0  0  0  0  0  0
   -6.1276    1.0312    0.8848 Cl  0  0  0  0  0  0  0  0  0  0  0  0
   -2.5988   -0.6676   -0.0386 N   0  0  0  0  0  0  0  0  0  0  0  0
   -2.0713   -1.3513   -1.2234 C   0  0  0  0  0  0  0  0  0  0  0  0
   -0.5894   -1.7513   -1.1052 C   0  0  0  0  0  0  0  0  0  0  0  0
    0.2217   -0.6233   -0.6345 N   0  0  0  0  0  0  0  0  0  0  0  0
    1.6554   -0.9428   -0.6393 C   0  0  0  0  0  0  0  0  0  0  0  0
    2.5392    0.2643   -0.4023 C   0  0  0  0  0  0  0  0  0  0  0  0
    3.4656    0.2765    0.6504 C   0  0  0  0  0  0  0  0  0  0  0  0
    4.2874    1.3861    0.8578 C   0  0  0  0  0  0  0  0  0  0  0  0
    4.1948    2.4921    0.0146 C   0  0  0  0  0  0  0  0  0  0  0  0
    3.2817    2.4903   -1.0379 C   0  0  0  0  0  0  0  0  0  0  0  0
    2.4601    1.3819   -1.2471 C   0  0  0  0  0  0  0  0  0  0  0  0
   -0.2466   -0.1173    0.6702 C   0  0  0  0  0  0  0  0  0  0  0  0
   -1.6731   -0.5458    1.0898 C   0  0  0  0  0  0  0  0  0  0  0  0
   -3.9042    1.0671    1.5956 H   0  0  0  0  0  0  0  0  0  0  0  0
   -2.2119   -0.6750   -2.0758 H   0  0  0  0  0  0  0  0  0  0  0  0
   -2.6769   -2.2462   -1.4102 H   0  0  0  0  0  0  0  0  0  0  0  0
   -0.2480   -2.0845   -2.0926 H   0  0  0  0  0  0  0  0  0  0  0  0
   -0.4887   -2.6050   -0.4220 H   0  0  0  0  0  0  0  0  0  0  0  0
    1.9428   -1.3516   -1.6173 H   0  0  0  0  0  0  0  0  0  0  0  0
    1.8729   -1.7274    0.0975 H   0  0  0  0  0  0  0  0  0  0  0  0
    3.5543   -0.5783    1.3165 H   0  0  0  0  0  0  0  0  0  0  0  0
    5.0023    1.3873    1.6765 H   0  0  0  0  0  0  0  0  0  0  0  0
    4.8354    3.3550    0.1764 H   0  0  0  0  0  0  0  0  0  0  0  0
    3.2082    3.3513   -1.6969 H   0  0  0  0  0  0  0  0  0  0  0  0
    1.7470    1.3905   -2.0693 H   0  0  0  0  0  0  0  0  0  0  0  0
    0.4268   -0.4085    1.4866 H   0  0  0  0  0  0  0  0  0  0  0  0
   -0.2230    0.9782    0.6177 H   0  0  0  0  0  0  0  0  0  0  0  0
   -1.6332   -1.5365    1.5599 H   0  0  0  0  0  0  0  0  0  0  0  0
   -2.0451    0.1509    1.8428 H   0  0  0  0  0  0  0  0  0  0  0  0
  1  2  2  0
  2  3  1  0
  3  4  1  0
  3  5  1  0
  2  6  1  0
  6  7  1  0
  7  8  1  0
  8  9  1  0
  9 10  1  0
 10 11  1  0
 11 12  2  0
 12 13  1  0
 13 14  2  0
 14 15  1  0
 15 16  2  0
  9 17  1  0
 17 18  1  0
 18  6  1  0
 16 11  1  0
  3 19  1  0
  7 20  1  0
  7 21  1  0
  8 22  1  0
  8 23  1  0
 10 24  1  0
 10 25  1  0
 12 26  1  0
 13 27  1  0
 14 28  1  0
 15 29  1  0
 16 30  1  0
 17 31  1  0
 17 32  1  0
 18 33  1  0
 18 34  1  0
M  END
$$$$
