
     RDKit          3D

 67 72  0  0  0  0  0  0  0  0999 V2000
   -4.0962    5.0474   -0.5022 C   0  0  0  0  0  0  0  0  0  0  0  0
   -3.3123    3.8555   -0.9538 C   0  0  0  0  0  0  0  0  0  0  0  0
   -3.2315    3.5119   -2.3115 C   0  0  0  0  0  0  0  0  0  0  0  0
   -2.5142    2.3780   -2.7351 C   0  0  0  0  0  0  0  0  0  0  0  0
   -1.8574    1.5607   -1.8125 C   0  0  0  0  0  0  0  0  0  0  0  0
   -1.9238    1.8986   -0.4674 C   0  0  0  0  0  0  0  0  0  0  0  0
   -2.6517    3.0250   -0.0607 C   0  0  0  0  0  0  0  0  0  0  0  0
   -2.6158    3.1458    1.3245 N   0  0  0  0  0  0  0  0  0  0  0  0
   -1.8943    2.1064    1.9145 C   0  0  0  0  0  0  0  0  0  0  0  0
   -1.7404    1.9738    3.1206 O   0  0  0  0  0  0  0  0  0  0  0  0
   -1.3438    1.2291    0.7544 C   0  0  1  0  0  0  0  0  0  0  0  0
   -1.8281   -0.1666    0.7658 C   0  0  0  0  0  0  0  0  0  0  0  0
   -0.7696   -1.0733    0.8040 C   0  0  0  0  0  0  0  0  0  0  0  0
   -1.2760   -2.3462    0.8485 C   0  0  0  0  0  0  0  0  0  0  0  0
   -0.6445   -3.5165    0.8863 O   0  0  0  0  0  0  0  0  0  0  0  0
   -2.6796   -2.2357    0.7753 N   0  0  0  0  0  0  0  0  0  0  0  0
   -3.6159   -3.3122    0.6524 C   0  0  0  0  0  0  0  0  0  0  0  0
   -4.8125   -3.1242   -0.0596 C   0  0  0  0  0  0  0  0  0  0  0  0
   -5.7341   -4.1672   -0.1806 C   0  0  0  0  0  0  0  0  0  0  0  0
   -5.4694   -5.4042    0.4041 C   0  0  0  0  0  0  0  0  0  0  0  0
   -4.2757   -5.6049    1.0933 C   0  0  0  0  0  0  0  0  0  0  0  0
   -3.3481   -4.5660    1.2139 C   0  0  0  0  0  0  0  0  0  0  0  0
   -3.0040   -0.8643    0.8242 C   0  0  0  0  0  0  0  0  0  0  0  0
   -4.2377   -0.3808    0.9614 O   0  0  0  0  0  0  0  0  0  0  0  0
    0.5341   -0.3795    0.8320 C   0  0  1  0  0  0  0  0  0  0  0  0
    1.4660   -0.7194   -0.3420 C   0  0  0  0  0  0  0  0  0  0  0  0
    2.6575    0.1313   -0.3284 N   0  0  0  0  0  0  0  0  0  0  0  0
    3.9053   -0.4277   -0.5102 C   0  0  0  0  0  0  0  0  0  0  0  0
    4.0856   -1.6173   -0.7349 O   0  0  0  0  0  0  0  0  0  0  0  0
    4.8931    0.4965   -0.4019 O   0  0  0  0  0  0  0  0  0  0  0  0
    6.2885    0.1183   -0.5255 C   0  0  0  0  0  0  0  0  0  0  0  0
    6.5911   -0.5119   -1.8912 C   0  0  0  0  0  0  0  0  0  0  0  0
    7.0616    1.4422   -0.4189 C   0  0  0  0  0  0  0  0  0  0  0  0
    6.7100   -0.7920    0.6331 C   0  0  0  0  0  0  0  0  0  0  0  0
    2.4684    1.5239    0.0920 C   0  0  0  0  0  0  0  0  0  0  0  0
    0.9871    1.9543    0.0708 C   0  0  0  0  0  0  0  0  0  0  0  0
    0.1422    1.0700    0.8712 N   0  0  0  0  0  0  0  0  0  0  0  0
   -4.9467    4.7316    0.1110 H   0  0  0  0  0  0  0  0  0  0  0  0
   -4.4879    5.6158   -1.3529 H   0  0  0  0  0  0  0  0  0  0  0  0
   -3.4618    5.7222    0.0820 H   0  0  0  0  0  0  0  0  0  0  0  0
   -3.7367    4.1198   -3.0602 H   0  0  0  0  0  0  0  0  0  0  0  0
   -2.4788    2.1310   -3.7942 H   0  0  0  0  0  0  0  0  0  0  0  0
   -1.3176    0.6789   -2.1432 H   0  0  0  0  0  0  0  0  0  0  0  0
   -3.0913    3.8467    1.8705 H   0  0  0  0  0  0  0  0  0  0  0  0
    0.3112   -3.3489    0.9574 H   0  0  0  0  0  0  0  0  0  0  0  0
   -5.0277   -2.1893   -0.5739 H   0  0  0  0  0  0  0  0  0  0  0  0
   -6.6532   -4.0176   -0.7431 H   0  0  0  0  0  0  0  0  0  0  0  0
   -6.1863   -6.2154    0.3097 H   0  0  0  0  0  0  0  0  0  0  0  0
   -4.0647   -6.5718    1.5447 H   0  0  0  0  0  0  0  0  0  0  0  0
   -2.4412   -4.7540    1.7819 H   0  0  0  0  0  0  0  0  0  0  0  0
   -4.7870   -1.0617    1.3894 H   0  0  0  0  0  0  0  0  0  0  0  0
    1.0478   -0.6032    1.7759 H   0  0  0  0  0  0  0  0  0  0  0  0
    1.7415   -1.7787   -0.3168 H   0  0  0  0  0  0  0  0  0  0  0  0
    0.9637   -0.5479   -1.3025 H   0  0  0  0  0  0  0  0  0  0  0  0
    6.1659   -1.5169   -1.9799 H   0  0  0  0  0  0  0  0  0  0  0  0
    7.6703   -0.6041   -2.0586 H   0  0  0  0  0  0  0  0  0  0  0  0
    6.1612    0.0875   -2.7020 H   0  0  0  0  0  0  0  0  0  0  0  0
    6.8370    1.9522    0.5264 H   0  0  0  0  0  0  0  0  0  0  0  0
    6.7645    2.1309   -1.2191 H   0  0  0  0  0  0  0  0  0  0  0  0
    8.1437    1.2873   -0.4808 H   0  0  0  0  0  0  0  0  0  0  0  0
    7.7906   -0.9696    0.6283 H   0  0  0  0  0  0  0  0  0  0  0  0
    6.2143   -1.7671    0.5858 H   0  0  0  0  0  0  0  0  0  0  0  0
    6.4354   -0.3477    1.5970 H   0  0  0  0  0  0  0  0  0  0  0  0
    2.8758    1.6161    1.1058 H   0  0  0  0  0  0  0  0  0  0  0  0
    3.0575    2.1742   -0.5638 H   0  0  0  0  0  0  0  0  0  0  0  0
    0.6795    1.9615   -0.9788 H   0  0  0  0  0  0  0  0  0  0  0  0
    0.9068    2.9796    0.4458 H   0  0  0  0  0  0  0  0  0  0  0  0
  1  2  1  0
  2  3  2  0
  3  4  1  0
  4  5  2  0
  5  6  1  0
  6  7  2  0
  7  8  1  0
  8  9  1  0
  9 10  2  0
  9 11  1  0
 11 12  1  0
 12 13  1  0
 13 14  2  0
 14 15  1  0
 14 16  1  0
 16 17  1  0
 17 18  2  0
 18 19  1  0
 19 20  2  0
 20 21  1  0
 21 22  2  0
 16 23  1  0
 23 24  1  0
 13 25  1  0
 25 26  1  0
 26 27  1  0
 27 28  1  0
 28 29  2  0
 28 30  1  0
 30 31  1  0
 31 32  1  0
 31 33  1  0
 31 34  1  0
 27 35  1  0
 35 36  1  0
 36 37  1  0
  7  2  1  0
 11 37  1  6
 11  6  1  0
 23 12  2  0
 37 25  1  0
 22 17  1  0
  1 38  1  0
  1 39  1  0
  1 40  1  0
  3 41  1  0
  4 42  1  0
  5 43  1  0
  8 44  1  0
 15 45  1  0
 18 46  1  0
 19 47  1  0
 20 48  1  0
 21 49  1  0
 22 50  1  0
 24 51  1  0
 25 52  1  1
 26 53  1  0
 26 54  1  0
 32 55  1  0
 32 56  1  0
 32 57  1  0
 33 58  1  0
 33 59  1  0
 33 60  1  0
 34 61  1  0
 34 62  1  0
 34 63  1  0
 35 64  1  0
 35 65  1  0
 36 66  1  0
 36 67  1  0
M  END
$$$$
