
     RDKit          3D

 47 49  0  0  0  0  0  0  0  0999 V2000
   -3.0600    1.1486   -1.6861 O   0  0  0  0  0  0  0  0  0  0  0  0
   -3.3010   -0.0420   -1.8634 C   0  0  0  0  0  0  0  0  0  0  0  0
   -4.7013   -0.5315   -2.2774 C   0  0  0  0  0  0  0  0  0  0  0  0
   -5.7886    0.2042   -1.7408 O   0  0  0  0  0  0  0  0  0  0  0  0
   -6.0218    0.1155   -0.3975 C   0  0  0  0  0  0  0  0  0  0  0  0
   -5.4646   -0.8226    0.4747 C   0  0  0  0  0  0  0  0  0  0  0  0
   -5.7875   -0.7944    1.8363 C   0  0  0  0  0  0  0  0  0  0  0  0
   -6.6718    0.1662    2.3226 C   0  0  0  0  0  0  0  0  0  0  0  0
   -7.0993    0.2032    4.1593 Br  0  0  0  0  0  0  0  0  0  0  0  0
   -7.2415    1.1001    1.4611 C   0  0  0  0  0  0  0  0  0  0  0  0
   -6.9179    1.0661    0.1025 C   0  0  0  0  0  0  0  0  0  0  0  0
   -2.3928   -1.0866   -1.7311 N   0  0  0  0  0  0  0  0  0  0  0  0
   -1.0650   -1.0078   -1.2604 C   0  0  0  0  0  0  0  0  0  0  0  0
   -0.4469    0.1774   -0.8538 C   0  0  0  0  0  0  0  0  0  0  0  0
    0.8671    0.1683   -0.3672 C   0  0  0  0  0  0  0  0  0  0  0  0
    1.5803   -1.0328   -0.2898 C   0  0  0  0  0  0  0  0  0  0  0  0
    2.9693   -1.0928    0.2474 C   0  0  0  0  0  0  0  0  0  0  0  0
    3.3072   -2.0982    0.8608 O   0  0  0  0  0  0  0  0  0  0  0  0
    3.7563    0.0029   -0.0452 N   0  0  0  0  0  0  0  0  0  0  0  0
    5.0778    0.2806    0.3797 C   0  0  0  0  0  0  0  0  0  0  0  0
    5.7434   -0.5403    1.3024 C   0  0  0  0  0  0  0  0  0  0  0  0
    7.0470   -0.2515    1.7187 C   0  0  0  0  0  0  0  0  0  0  0  0
    7.7129    0.8597    1.2173 C   0  0  0  0  0  0  0  0  0  0  0  0
    7.0669    1.6956    0.3105 C   0  0  0  0  0  0  0  0  0  0  0  0
    5.7544    1.4184   -0.1176 C   0  0  0  0  0  0  0  0  0  0  0  0
    5.1911    2.3821   -1.1091 C   0  0  0  0  0  0  0  0  0  0  0  0
    5.7845    3.3284   -1.5950 O   0  0  0  0  0  0  0  0  0  0  0  0
    3.9130    2.1394   -1.4640 O   0  0  0  0  0  0  0  0  0  0  0  0
    0.9631   -2.2239   -0.6864 C   0  0  0  0  0  0  0  0  0  0  0  0
   -0.3474   -2.2088   -1.1746 C   0  0  0  0  0  0  0  0  0  0  0  0
   -4.7472   -0.4136   -3.3659 H   0  0  0  0  0  0  0  0  0  0  0  0
   -4.8358   -1.6031   -2.0861 H   0  0  0  0  0  0  0  0  0  0  0  0
   -4.7776   -1.5898    0.1377 H   0  0  0  0  0  0  0  0  0  0  0  0
   -5.3444   -1.5257    2.5072 H   0  0  0  0  0  0  0  0  0  0  0  0
   -7.9298    1.8540    1.8328 H   0  0  0  0  0  0  0  0  0  0  0  0
   -7.3588    1.7976   -0.5724 H   0  0  0  0  0  0  0  0  0  0  0  0
   -2.7226   -2.0168   -1.9518 H   0  0  0  0  0  0  0  0  0  0  0  0
   -0.9642    1.1319   -0.8823 H   0  0  0  0  0  0  0  0  0  0  0  0
    1.2986    1.1047   -0.0230 H   0  0  0  0  0  0  0  0  0  0  0  0
    3.3731    0.6958   -0.6872 H   0  0  0  0  0  0  0  0  0  0  0  0
    5.2691   -1.4203    1.7274 H   0  0  0  0  0  0  0  0  0  0  0  0
    7.5396   -0.9056    2.4349 H   0  0  0  0  0  0  0  0  0  0  0  0
    8.7288    1.0796    1.5382 H   0  0  0  0  0  0  0  0  0  0  0  0
    7.5961    2.5684   -0.0695 H   0  0  0  0  0  0  0  0  0  0  0  0
    3.7420    2.8413   -2.1332 H   0  0  0  0  0  0  0  0  0  0  0  0
    1.5016   -3.1676   -0.6130 H   0  0  0  0  0  0  0  0  0  0  0  0
   -0.7954   -3.1544   -1.4742 H   0  0  0  0  0  0  0  0  0  0  0  0
  1  2  2  0
  2  3  1  0
  3  4  1  0
  4  5  1  0
  5  6  2  0
  6  7  1  0
  7  8  2  0
  8  9  1  0
  8 10  1  0
 10 11  2  0
  2 12  1  0
 12 13  1  0
 13 14  2  0
 14 15  1  0
 15 16  2  0
 16 17  1  0
 17 18  2  0
 17 19  1  0
 19 20  1  0
 20 21  2  0
 21 22  1  0
 22 23  2  0
 23 24  1  0
 24 25  2  0
 25 26  1  0
 26 27  2  0
 26 28  1  0
 16 29  1  0
 29 30  2  0
 11  5  1  0
 30 13  1  0
 25 20  1  0
  3 31  1  0
  3 32  1  0
  6 33  1  0
  7 34  1  0
 10 35  1  0
 11 36  1  0
 12 37  1  0
 14 38  1  0
 15 39  1  0
 19 40  1  0
 21 41  1  0
 22 42  1  0
 23 43  1  0
 24 44  1  0
 28 45  1  0
 29 46  1  0
 30 47  1  0
M  END
$$$$
