
     RDKit          3D

 36 37  0  0  0  0  0  0  0  0999 V2000
   -1.2579    0.5180    3.4654 O   0  0  0  0  0  0  0  0  0  0  0  0
   -0.7857    0.1076    2.4074 C   0  0  0  0  0  0  0  0  0  0  0  0
    0.5191   -0.6889    2.3531 C   0  0  0  0  0  0  0  0  0  0  0  0
    1.5642   -0.0349    1.6321 O   0  0  0  0  0  0  0  0  0  0  0  0
    1.6603   -0.3422    0.3206 C   0  0  0  0  0  0  0  0  0  0  0  0
    0.9376   -1.0837   -0.3246 O   0  0  0  0  0  0  0  0  0  0  0  0
    2.8179    0.3761   -0.2302 C   0  0  0  0  0  0  0  0  0  0  0  0
    4.0986   -0.0527    0.1523 C   0  0  0  0  0  0  0  0  0  0  0  0
    5.2256    0.5772   -0.3737 C   0  0  0  0  0  0  0  0  0  0  0  0
    5.0738    1.6314   -1.2761 C   0  0  0  0  0  0  0  0  0  0  0  0
    3.7965    2.0637   -1.6512 C   0  0  0  0  0  0  0  0  0  0  0  0
    2.6624    1.4362   -1.1287 C   0  0  0  0  0  0  0  0  0  0  0  0
    0.9613    2.1009   -1.6448 Br  0  0  0  0  0  0  0  0  0  0  0  0
   -1.4081    0.2799    1.1930 N   0  0  0  0  0  0  0  0  0  0  0  0
   -2.7463    0.8376    1.0928 C   0  0  0  0  0  0  0  0  0  0  0  0
   -3.3289    0.7703   -0.3255 C   0  0  0  0  0  0  0  0  0  0  0  0
   -3.4651   -0.5960   -0.8066 N   0  0  0  0  0  0  0  0  0  0  0  0
   -2.4465   -1.2883   -1.4144 C   0  0  0  0  0  0  0  0  0  0  0  0
   -1.2871   -0.6297   -1.6743 O   0  0  0  0  0  0  0  0  0  0  0  0
   -2.7054   -2.5797   -1.6461 C   0  0  0  0  0  0  0  0  0  0  0  0
   -4.3040   -3.0021   -1.1090 S   0  0  0  0  0  0  0  0  0  0  0  0
   -4.5854   -1.3546   -0.5063 C   0  0  0  0  0  0  0  0  0  0  0  0
   -5.5988   -1.0107    0.0774 O   0  0  0  0  0  0  0  0  0  0  0  0
    0.8749   -0.8210    3.3814 H   0  0  0  0  0  0  0  0  0  0  0  0
    0.3137   -1.6935    1.9624 H   0  0  0  0  0  0  0  0  0  0  0  0
    4.2220   -0.8748    0.8535 H   0  0  0  0  0  0  0  0  0  0  0  0
    6.2223    0.2507   -0.0786 H   0  0  0  0  0  0  0  0  0  0  0  0
    5.9532    2.1250   -1.6848 H   0  0  0  0  0  0  0  0  0  0  0  0
    3.6990    2.8955   -2.3468 H   0  0  0  0  0  0  0  0  0  0  0  0
   -0.9802   -0.0979    0.3498 H   0  0  0  0  0  0  0  0  0  0  0  0
   -2.6974    1.8782    1.4303 H   0  0  0  0  0  0  0  0  0  0  0  0
   -3.3875    0.2933    1.7961 H   0  0  0  0  0  0  0  0  0  0  0  0
   -2.7103    1.3387   -1.0305 H   0  0  0  0  0  0  0  0  0  0  0  0
   -4.3234    1.2341   -0.3184 H   0  0  0  0  0  0  0  0  0  0  0  0
   -0.5497   -1.2696   -1.7283 H   0  0  0  0  0  0  0  0  0  0  0  0
   -2.0347   -3.2943   -2.1009 H   0  0  0  0  0  0  0  0  0  0  0  0
  1  2  2  0
  2  3  1  0
  3  4  1  0
  4  5  1  0
  5  6  2  0
  5  7  1  0
  7  8  2  0
  8  9  1  0
  9 10  2  0
 10 11  1  0
 11 12  2  0
 12 13  1  0
  2 14  1  0
 14 15  1  0
 15 16  1  0
 16 17  1  0
 17 18  1  0
 18 19  1  0
 18 20  2  0
 20 21  1  0
 21 22  1  0
 22 23  2  0
 12  7  1  0
 22 17  1  0
  3 24  1  0
  3 25  1  0
  8 26  1  0
  9 27  1  0
 10 28  1  0
 11 29  1  0
 14 30  1  0
 15 31  1  0
 15 32  1  0
 16 33  1  0
 16 34  1  0
 19 35  1  0
 20 36  1  0
M  END
$$$$
