
     RDKit          3D

 36 37  0  0  0  0  0  0  0  0999 V2000
   -7.2274    0.0910    1.1346 C   0  0  0  0  0  0  0  0  0  0  0  0
   -6.3294   -0.7174    0.3843 O   0  0  0  0  0  0  0  0  0  0  0  0
   -5.0264   -0.3074    0.3288 C   0  0  0  0  0  0  0  0  0  0  0  0
   -4.4959    0.8281    0.9408 C   0  0  0  0  0  0  0  0  0  0  0  0
   -3.1359    1.1312    0.8012 C   0  0  0  0  0  0  0  0  0  0  0  0
   -2.2937    0.3019    0.0487 C   0  0  0  0  0  0  0  0  0  0  0  0
   -0.8571    0.6739   -0.0637 C   0  0  0  0  0  0  0  0  0  0  0  0
   -0.3761    1.6669    0.4586 O   0  0  0  0  0  0  0  0  0  0  0  0
   -0.1828   -0.2386   -0.8070 O   0  0  0  0  0  0  0  0  0  0  0  0
    1.2175    0.0297   -0.9943 C   0  0  0  0  0  0  0  0  0  0  0  0
    2.0235   -0.4750    0.2015 C   0  0  0  0  0  0  0  0  0  0  0  0
    3.5045   -0.2782    0.0072 C   0  0  0  0  0  0  0  0  0  0  0  0
    4.3016   -1.3118   -0.5048 C   0  0  0  0  0  0  0  0  0  0  0  0
    5.6712   -1.1193   -0.7014 C   0  0  0  0  0  0  0  0  0  0  0  0
    6.2414    0.1104   -0.3890 C   0  0  0  0  0  0  0  0  0  0  0  0
    7.5736    0.3412   -0.5659 O   0  0  0  0  0  0  0  0  0  0  0  0
    5.4659    1.1472    0.1144 C   0  0  0  0  0  0  0  0  0  0  0  0
    4.0980    0.9550    0.3115 C   0  0  0  0  0  0  0  0  0  0  0  0
   -2.8278   -0.8365   -0.5648 C   0  0  0  0  0  0  0  0  0  0  0  0
   -4.1866   -1.1346   -0.4221 C   0  0  0  0  0  0  0  0  0  0  0  0
   -7.3031    1.0968    0.7083 H   0  0  0  0  0  0  0  0  0  0  0  0
   -6.9369    0.1287    2.1897 H   0  0  0  0  0  0  0  0  0  0  0  0
   -8.2184   -0.3697    1.0784 H   0  0  0  0  0  0  0  0  0  0  0  0
   -5.1087    1.4998    1.5331 H   0  0  0  0  0  0  0  0  0  0  0  0
   -2.7368    2.0214    1.2849 H   0  0  0  0  0  0  0  0  0  0  0  0
    1.5195   -0.5008   -1.9047 H   0  0  0  0  0  0  0  0  0  0  0  0
    1.3857    1.0970   -1.1861 H   0  0  0  0  0  0  0  0  0  0  0  0
    1.8020   -1.5362    0.3741 H   0  0  0  0  0  0  0  0  0  0  0  0
    1.7037    0.0284    1.1224 H   0  0  0  0  0  0  0  0  0  0  0  0
    3.8600   -2.2746   -0.7525 H   0  0  0  0  0  0  0  0  0  0  0  0
    6.2702   -1.9335   -1.0962 H   0  0  0  0  0  0  0  0  0  0  0  0
    7.9838   -0.4685   -0.9106 H   0  0  0  0  0  0  0  0  0  0  0  0
    5.9237    2.1029    0.3530 H   0  0  0  0  0  0  0  0  0  0  0  0
    3.4974    1.7732    0.7046 H   0  0  0  0  0  0  0  0  0  0  0  0
   -2.2046   -1.5017   -1.1568 H   0  0  0  0  0  0  0  0  0  0  0  0
   -4.5957   -2.0211   -0.9018 H   0  0  0  0  0  0  0  0  0  0  0  0
  1  2  1  0
  2  3  1  0
  3  4  2  0
  4  5  1  0
  5  6  2  0
  6  7  1  0
  7  8  2  0
  7  9  1  0
  9 10  1  0
 10 11  1  0
 11 12  1  0
 12 13  2  0
 13 14  1  0
 14 15  2  0
 15 16  1  0
 15 17  1  0
 17 18  2  0
  6 19  1  0
 19 20  2  0
 20  3  1  0
 18 12  1  0
  1 21  1  0
  1 22  1  0
  1 23  1  0
  4 24  1  0
  5 25  1  0
 10 26  1  0
 10 27  1  0
 11 28  1  0
 11 29  1  0
 13 30  1  0
 14 31  1  0
 16 32  1  0
 17 33  1  0
 18 34  1  0
 19 35  1  0
 20 36  1  0
M  END
$$$$
