
     RDKit          3D

 37 38  0  0  0  0  0  0  0  0999 V2000
    4.5832    1.7115   -1.1769 C   0  0  0  0  0  0  0  0  0  0  0  0
    4.7880    0.2825   -0.7072 C   0  0  0  0  0  0  0  0  0  0  0  0
    3.6258   -0.2367   -0.0132 N   0  0  0  0  0  0  0  0  0  0  0  0
    2.6326   -1.0059   -0.5435 C   0  0  0  0  0  0  0  0  0  0  0  0
    1.7510   -1.2680    0.4867 C   0  0  0  0  0  0  0  0  0  0  0  0
    0.4985   -2.0607    0.4381 C   0  0  0  0  0  0  0  0  0  0  0  0
   -0.5955   -1.1546    0.1781 N   0  0  0  0  0  0  0  0  0  0  0  0
   -1.8949   -1.5965    0.2768 C   0  0  0  0  0  0  0  0  0  0  0  0
   -2.1944   -2.7269    0.6431 O   0  0  0  0  0  0  0  0  0  0  0  0
   -2.9604   -0.6340   -0.1206 C   0  0  0  0  0  0  0  0  0  0  0  0
   -4.1976   -1.1500   -0.5353 C   0  0  0  0  0  0  0  0  0  0  0  0
   -5.2358   -0.2949   -0.9123 C   0  0  0  0  0  0  0  0  0  0  0  0
   -5.0495    1.0864   -0.8712 C   0  0  0  0  0  0  0  0  0  0  0  0
   -3.8191    1.6036   -0.4432 C   0  0  0  0  0  0  0  0  0  0  0  0
   -3.6236    3.0578   -0.3926 N   0  0  0  0  0  4  0  0  0  0  0  0
   -2.4819    3.4739   -0.1508 O   0  0  0  0  0  0  0  0  0  0  0  0
   -4.6079    3.7802   -0.6013 O   0  0  0  0  0  1  0  0  0  0  0  0
   -2.7713    0.7519   -0.0617 C   0  0  0  0  0  0  0  0  0  0  0  0
    2.3142   -0.5966    1.6076 C   0  0  0  0  0  0  0  0  0  0  0  0
    1.7835   -0.5308    2.9924 C   0  0  0  0  0  0  0  0  0  0  0  0
    3.4539    0.0296    1.2917 N   0  0  0  0  0  0  0  0  0  0  0  0
    4.3911    2.3819   -0.3325 H   0  0  0  0  0  0  0  0  0  0  0  0
    5.4736    2.0704   -1.7021 H   0  0  0  0  0  0  0  0  0  0  0  0
    3.7303    1.7832   -1.8603 H   0  0  0  0  0  0  0  0  0  0  0  0
    5.6409    0.2152   -0.0230 H   0  0  0  0  0  0  0  0  0  0  0  0
    4.9889   -0.3755   -1.5597 H   0  0  0  0  0  0  0  0  0  0  0  0
    2.6343   -1.3013   -1.5834 H   0  0  0  0  0  0  0  0  0  0  0  0
    0.5277   -2.8014   -0.3688 H   0  0  0  0  0  0  0  0  0  0  0  0
    0.3187   -2.5921    1.3788 H   0  0  0  0  0  0  0  0  0  0  0  0
   -0.3838   -0.3247   -0.3583 H   0  0  0  0  0  0  0  0  0  0  0  0
   -4.3553   -2.2280   -0.5651 H   0  0  0  0  0  0  0  0  0  0  0  0
   -6.1894   -0.7089   -1.2339 H   0  0  0  0  0  0  0  0  0  0  0  0
   -5.8675    1.7410   -1.1672 H   0  0  0  0  0  0  0  0  0  0  0  0
   -1.8344    1.1658    0.3026 H   0  0  0  0  0  0  0  0  0  0  0  0
    2.3952    0.1175    3.6283 H   0  0  0  0  0  0  0  0  0  0  0  0
    0.7625   -0.1359    2.9916 H   0  0  0  0  0  0  0  0  0  0  0  0
    1.7683   -1.5290    3.4411 H   0  0  0  0  0  0  0  0  0  0  0  0
  1  2  1  0
  2  3  1  0
  3  4  1  0
  4  5  2  0
  5  6  1  0
  6  7  1  0
  7  8  1  0
  8  9  2  0
  8 10  1  0
 10 11  2  0
 11 12  1  0
 12 13  2  0
 13 14  1  0
 14 15  1  0
 15 16  2  0
 15 17  1  0
 14 18  2  0
  5 19  1  0
 19 20  1  0
 19 21  2  0
 21  3  1  0
 18 10  1  0
  1 22  1  0
  1 23  1  0
  1 24  1  0
  2 25  1  0
  2 26  1  0
  4 27  1  0
  6 28  1  0
  6 29  1  0
  7 30  1  0
 11 31  1  0
 12 32  1  0
 13 33  1  0
 18 34  1  0
 20 35  1  0
 20 36  1  0
 20 37  1  0
M  CHG  2  15   1  17  -1
M  END
$$$$
