
     RDKit          3D

 43 46  0  0  0  0  0  0  0  0999 V2000
    2.4772    2.9386    3.4000 O   0  0  0  0  0  0  0  0  0  0  0  0
    2.6024    1.9455    2.6828 C   0  0  0  0  0  0  0  0  0  0  0  0
    3.0713    2.0496    1.2436 C   0  0  0  0  0  0  0  0  0  0  0  0
    2.4997    0.7280    0.1362 S   0  0  0  0  0  0  0  0  0  0  0  0
    0.7861    0.9414    0.1879 C   0  0  0  0  0  0  0  0  0  0  0  0
    0.1475    1.8231    0.9171 N   0  0  0  0  0  0  0  0  0  0  0  0
   -1.1959    1.6412    0.7139 N   0  0  0  0  0  0  0  0  0  0  0  0
   -1.3576    0.6422   -0.1314 C   0  0  0  0  0  0  0  0  0  0  0  0
   -2.6327    0.1436   -0.6136 C   0  0  0  0  0  0  0  0  0  0  0  0
   -3.1602   -1.0723   -0.1739 C   0  0  0  0  0  0  0  0  0  0  0  0
   -4.3800   -1.5163   -0.6803 C   0  0  0  0  0  0  0  0  0  0  0  0
   -5.0314   -0.7261   -1.6139 C   0  0  0  0  0  0  0  0  0  0  0  0
   -4.5535    0.4563   -2.0587 N   0  0  0  0  0  0  0  0  0  0  0  0
   -3.3773    0.8753   -1.5320 C   0  0  0  0  0  0  0  0  0  0  0  0
   -0.1120    0.1746   -0.5031 N   0  0  0  0  0  0  0  0  0  0  0  0
    0.1605   -0.9074   -1.4293 C   0  0  0  0  0  0  0  0  0  0  0  0
    0.1457   -0.4197   -2.8295 C   0  0  0  0  0  0  0  0  0  0  0  0
   -0.8092   -0.4128   -3.8264 C   0  0  0  0  0  0  0  0  0  0  0  0
   -0.2078    0.2045   -4.9496 C   0  0  0  0  0  0  0  0  0  0  0  0
    1.0739    0.5262   -4.5710 C   0  0  0  0  0  0  0  0  0  0  0  0
    1.2992    0.1456   -3.2879 O   0  0  0  0  0  0  0  0  0  0  0  0
    2.3660    0.6252    3.3092 C   0  0  0  0  0  0  0  0  0  0  0  0
    3.3496   -0.3671    3.2871 C   0  0  0  0  0  0  0  0  0  0  0  0
    3.0899   -1.6037    3.8810 C   0  0  0  0  0  0  0  0  0  0  0  0
    1.8558   -1.8450    4.4968 C   0  0  0  0  0  0  0  0  0  0  0  0
    1.6013   -3.4061    5.1925 Cl  0  0  0  0  0  0  0  0  0  0  0  0
    0.8797   -0.8399    4.5284 C   0  0  0  0  0  0  0  0  0  0  0  0
   -0.6663   -1.0780    5.2612 Cl  0  0  0  0  0  0  0  0  0  0  0  0
    1.1389    0.4003    3.9418 C   0  0  0  0  0  0  0  0  0  0  0  0
    4.1658    2.0548    1.2452 H   0  0  0  0  0  0  0  0  0  0  0  0
    2.7298    3.0081    0.8386 H   0  0  0  0  0  0  0  0  0  0  0  0
   -2.6404   -1.6671    0.5731 H   0  0  0  0  0  0  0  0  0  0  0  0
   -4.8179   -2.4513   -0.3474 H   0  0  0  0  0  0  0  0  0  0  0  0
   -5.9859   -1.0284   -2.0363 H   0  0  0  0  0  0  0  0  0  0  0  0
   -3.0344    1.8427   -1.8916 H   0  0  0  0  0  0  0  0  0  0  0  0
    1.1241   -1.3618   -1.1809 H   0  0  0  0  0  0  0  0  0  0  0  0
   -0.5926   -1.6874   -1.2794 H   0  0  0  0  0  0  0  0  0  0  0  0
   -1.8190   -0.7961   -3.7551 H   0  0  0  0  0  0  0  0  0  0  0  0
   -0.6539    0.3934   -5.9163 H   0  0  0  0  0  0  0  0  0  0  0  0
    1.9057    1.0032   -5.0709 H   0  0  0  0  0  0  0  0  0  0  0  0
    4.3161   -0.1877    2.8225 H   0  0  0  0  0  0  0  0  0  0  0  0
    3.8546   -2.3775    3.8638 H   0  0  0  0  0  0  0  0  0  0  0  0
    0.3872    1.1886    3.9564 H   0  0  0  0  0  0  0  0  0  0  0  0
  1  2  2  0
  2  3  1  0
  3  4  1  0
  4  5  1  0
  5  6  2  0
  6  7  1  0
  7  8  2  0
  8  9  1  0
  9 10  2  0
 10 11  1  0
 11 12  2  0
 12 13  1  0
 13 14  2  0
  8 15  1  0
 15 16  1  0
 16 17  1  0
 17 18  2  0
 18 19  1  0
 19 20  2  0
 20 21  1  0
  2 22  1  0
 22 23  2  0
 23 24  1  0
 24 25  2  0
 25 26  1  0
 25 27  1  0
 27 28  1  0
 27 29  2  0
 15  5  1  0
 21 17  1  0
 29 22  1  0
 14  9  1  0
  3 30  1  0
  3 31  1  0
 10 32  1  0
 11 33  1  0
 12 34  1  0
 14 35  1  0
 16 36  1  0
 16 37  1  0
 18 38  1  0
 19 39  1  0
 20 40  1  0
 23 41  1  0
 24 42  1  0
 29 43  1  0
M  END
$$$$
