
     RDKit          3D

 56 61  0  0  0  0  0  0  0  0999 V2000
    0.1383    2.8377    3.0314 O   0  0  0  0  0  0  0  0  0  0  0  0
    0.2443    3.1864    1.8646 C   0  0  0  0  0  0  0  0  0  0  0  0
   -0.0026    4.4738    1.3877 N   0  0  0  0  0  0  0  0  0  0  0  0
    0.2955    4.5731    0.0349 C   0  0  0  0  0  0  0  0  0  0  0  0
    0.2052    5.7054   -0.7480 C   0  0  0  0  0  0  0  0  0  0  0  0
    0.5649    5.5862   -2.0919 C   0  0  0  0  0  0  0  0  0  0  0  0
    1.0033    4.3553   -2.6123 C   0  0  0  0  0  0  0  0  0  0  0  0
    1.0885    3.2211   -1.7981 C   0  0  0  0  0  0  0  0  0  0  0  0
    0.7262    3.3386   -0.4653 C   0  0  0  0  0  0  0  0  0  0  0  0
    0.7021    2.3301    0.6481 C   0  0  0  0  0  0  0  0  0  0  0  0
    2.0051    1.6370    0.9269 N   0  0  0  0  0  0  0  0  0  0  0  0
    1.8828    0.1667    0.5593 C   0  0  2  0  0  0  0  0  0  0  0  0
    2.8246   -0.1359   -0.6194 C   0  0  0  0  0  0  0  0  0  0  0  0
    3.2329   -1.5896   -0.7116 C   0  0  0  0  0  0  0  0  0  0  0  0
    2.5607   -2.4690   -1.5690 C   0  0  0  0  0  0  0  0  0  0  0  0
    2.9386   -3.8105   -1.6455 C   0  0  0  0  0  0  0  0  0  0  0  0
    3.9936   -4.2855   -0.8671 C   0  0  0  0  0  0  0  0  0  0  0  0
    4.6701   -3.4193   -0.0107 C   0  0  0  0  0  0  0  0  0  0  0  0
    4.2916   -2.0782    0.0680 C   0  0  0  0  0  0  0  0  0  0  0  0
    0.4409    0.0242    0.2551 C   0  0  0  0  0  0  0  0  0  0  0  0
   -0.2270    1.2509    0.2928 C   0  0  0  0  0  0  0  0  0  0  0  0
   -1.5480    1.0392   -0.0051 C   0  0  0  0  0  0  0  0  0  0  0  0
   -2.5770    1.8676   -0.1279 O   0  0  0  0  0  0  0  0  0  0  0  0
   -1.6947   -0.3279   -0.1903 N   0  0  0  0  0  0  0  0  0  0  0  0
   -2.9302   -0.9688   -0.6366 C   0  0  0  0  0  0  0  0  0  0  0  0
   -3.5362   -1.8627    0.4195 C   0  0  0  0  0  0  0  0  0  0  0  0
   -3.8444   -1.3661    1.6952 C   0  0  0  0  0  0  0  0  0  0  0  0
   -4.4073   -2.1980    2.6647 C   0  0  0  0  0  0  0  0  0  0  0  0
   -4.6781   -3.5314    2.3670 C   0  0  0  0  0  0  0  0  0  0  0  0
   -4.3884   -4.0356    1.0997 C   0  0  0  0  0  0  0  0  0  0  0  0
   -3.8256   -3.2059    0.1279 C   0  0  0  0  0  0  0  0  0  0  0  0
   -0.4734   -0.9626    0.0031 C   0  0  0  0  0  0  0  0  0  0  0  0
   -0.3052   -2.2760   -0.0664 O   0  0  0  0  0  0  0  0  0  0  0  0
   -0.2833    5.2340    1.9894 H   0  0  0  0  0  0  0  0  0  0  0  0
   -0.1269    6.6552   -0.3450 H   0  0  0  0  0  0  0  0  0  0  0  0
    0.5111    6.4543   -2.7457 H   0  0  0  0  0  0  0  0  0  0  0  0
    1.2828    4.2850   -3.6618 H   0  0  0  0  0  0  0  0  0  0  0  0
    1.4270    2.2741   -2.2051 H   0  0  0  0  0  0  0  0  0  0  0  0
    2.0901    1.6425    1.9473 H   0  0  0  0  0  0  0  0  0  0  0  0
    2.1490   -0.4256    1.4433 H   0  0  0  0  0  0  0  0  0  0  0  0
    2.3847    0.1811   -1.5739 H   0  0  0  0  0  0  0  0  0  0  0  0
    3.7500    0.4485   -0.5170 H   0  0  0  0  0  0  0  0  0  0  0  0
    1.7236   -2.1184   -2.1691 H   0  0  0  0  0  0  0  0  0  0  0  0
    2.4024   -4.4859   -2.3061 H   0  0  0  0  0  0  0  0  0  0  0  0
    4.2842   -5.3304   -0.9253 H   0  0  0  0  0  0  0  0  0  0  0  0
    5.4916   -3.7870    0.5974 H   0  0  0  0  0  0  0  0  0  0  0  0
    4.8296   -1.4145    0.7412 H   0  0  0  0  0  0  0  0  0  0  0  0
   -2.2395    2.7768   -0.0327 H   0  0  0  0  0  0  0  0  0  0  0  0
   -3.6543   -0.2023   -0.9306 H   0  0  0  0  0  0  0  0  0  0  0  0
   -2.6710   -1.5344   -1.5394 H   0  0  0  0  0  0  0  0  0  0  0  0
   -3.6377   -0.3267    1.9464 H   0  0  0  0  0  0  0  0  0  0  0  0
   -4.6324   -1.8040    3.6531 H   0  0  0  0  0  0  0  0  0  0  0  0
   -5.1153   -4.1789    3.1234 H   0  0  0  0  0  0  0  0  0  0  0  0
   -4.6017   -5.0773    0.8697 H   0  0  0  0  0  0  0  0  0  0  0  0
   -3.6103   -3.6192   -0.8567 H   0  0  0  0  0  0  0  0  0  0  0  0
   -1.1249   -2.7174    0.2167 H   0  0  0  0  0  0  0  0  0  0  0  0
  1  2  2  0
  2  3  1  0
  3  4  1  0
  4  5  2  0
  5  6  1  0
  6  7  2  0
  7  8  1  0
  8  9  2  0
  9 10  1  0
 10 11  1  0
 11 12  1  0
 12 13  1  0
 13 14  1  0
 14 15  2  0
 15 16  1  0
 16 17  2  0
 17 18  1  0
 18 19  2  0
 12 20  1  0
 20 21  1  0
 21 22  2  0
 22 23  1  0
 22 24  1  0
 24 25  1  0
 25 26  1  0
 26 27  2  0
 27 28  1  0
 28 29  2  0
 29 30  1  0
 30 31  2  0
 24 32  1  0
 32 33  1  0
 10  2  1  0
 19 14  1  0
 32 20  2  0
  9  4  1  0
 21 10  1  0
 31 26  1  0
  3 34  1  0
  5 35  1  0
  6 36  1  0
  7 37  1  0
  8 38  1  0
 11 39  1  0
 12 40  1  1
 13 41  1  0
 13 42  1  0
 15 43  1  0
 16 44  1  0
 17 45  1  0
 18 46  1  0
 19 47  1  0
 23 48  1  0
 25 49  1  0
 25 50  1  0
 27 51  1  0
 28 52  1  0
 29 53  1  0
 30 54  1  0
 31 55  1  0
 33 56  1  0
M  END
$$$$
