
     RDKit          3D

 44 47  0  0  0  0  0  0  0  0999 V2000
   -1.1138    4.5030   -0.5441 C   0  0  0  0  0  0  0  0  0  0  0  0
   -1.5821    3.1679   -0.2011 N   0  0  0  0  0  0  0  0  0  0  0  0
   -2.9308    2.9378   -0.0107 C   0  0  0  0  0  0  0  0  0  0  0  0
   -3.7782    3.8224   -0.1258 O   0  0  0  0  0  0  0  0  0  0  0  0
   -3.3566    1.5506    0.3476 C   0  0  0  0  0  0  0  0  0  0  0  0
   -4.7591    1.3540    0.5400 C   0  0  0  0  0  0  0  0  0  0  0  0
   -5.8900    1.1475    0.7030 N   0  0  0  0  0  0  0  0  0  0  0  0
   -2.4549    0.5500    0.4770 C   0  0  0  0  0  0  0  0  0  0  0  0
   -2.9438   -0.8060    0.8327 C   0  0  0  0  0  0  0  0  0  0  0  0
   -3.0029   -1.2024    2.1774 C   0  0  0  0  0  0  0  0  0  0  0  0
   -3.4550   -2.4806    2.5094 C   0  0  0  0  0  0  0  0  0  0  0  0
   -3.8450   -3.3548    1.5013 C   0  0  0  0  0  0  0  0  0  0  0  0
   -4.2757   -4.5814    1.8222 F   0  0  0  0  0  0  0  0  0  0  0  0
   -3.7916   -2.9766    0.1644 C   0  0  0  0  0  0  0  0  0  0  0  0
   -3.3395   -1.7001   -0.1739 C   0  0  0  0  0  0  0  0  0  0  0  0
   -1.0221    0.8595    0.2594 C   0  0  0  0  0  0  0  0  0  0  0  0
   -0.0280   -0.1255    0.3753 C   0  0  0  0  0  0  0  0  0  0  0  0
    1.3117    0.1985    0.1559 C   0  0  0  0  0  0  0  0  0  0  0  0
    2.3492   -0.8391    0.3096 C   0  0  0  0  0  0  0  0  0  0  0  0
    2.2213   -1.6731    1.2044 O   0  0  0  0  0  0  0  0  0  0  0  0
    3.5540   -0.9096   -0.5553 C   0  0  0  0  0  0  0  0  0  0  0  0
    3.5129   -0.4678   -1.8841 C   0  0  0  0  0  0  0  0  0  0  0  0
    4.6616   -0.5405   -2.6730 C   0  0  0  0  0  0  0  0  0  0  0  0
    4.6053    0.0152   -4.3001 Cl  0  0  0  0  0  0  0  0  0  0  0  0
    5.8487   -1.0566   -2.1613 C   0  0  0  0  0  0  0  0  0  0  0  0
    5.8860   -1.5225   -0.8472 C   0  0  0  0  0  0  0  0  0  0  0  0
    7.3707   -2.1734   -0.2537 Cl  0  0  0  0  0  0  0  0  0  0  0  0
    4.7400   -1.4649   -0.0444 C   0  0  0  0  0  0  0  0  0  0  0  0
    4.8083   -1.9541    1.2363 O   0  0  0  0  0  0  0  0  0  0  0  0
    1.6213    1.5133   -0.1381 C   0  0  0  0  0  0  0  0  0  0  0  0
    0.6889    2.4833   -0.2698 N   0  0  0  0  0  0  0  0  0  0  0  0
   -0.6126    2.1530   -0.0703 C   0  0  0  0  0  0  0  0  0  0  0  0
   -0.4326    4.8607    0.2349 H   0  0  0  0  0  0  0  0  0  0  0  0
   -1.9402    5.2146   -0.6250 H   0  0  0  0  0  0  0  0  0  0  0  0
   -0.5976    4.4710   -1.5092 H   0  0  0  0  0  0  0  0  0  0  0  0
   -2.7011   -0.5247    2.9733 H   0  0  0  0  0  0  0  0  0  0  0  0
   -3.5086   -2.7997    3.5458 H   0  0  0  0  0  0  0  0  0  0  0  0
   -4.1064   -3.6771   -0.6030 H   0  0  0  0  0  0  0  0  0  0  0  0
   -3.3046   -1.4121   -1.2223 H   0  0  0  0  0  0  0  0  0  0  0  0
   -0.2809   -1.1512    0.6397 H   0  0  0  0  0  0  0  0  0  0  0  0
    2.5965   -0.0837   -2.3253 H   0  0  0  0  0  0  0  0  0  0  0  0
    6.7385   -1.1068   -2.7842 H   0  0  0  0  0  0  0  0  0  0  0  0
    3.8949   -2.0732    1.5812 H   0  0  0  0  0  0  0  0  0  0  0  0
    2.6444    1.8553   -0.2687 H   0  0  0  0  0  0  0  0  0  0  0  0
  1  2  1  0
  2  3  1  0
  3  4  2  0
  3  5  1  0
  5  6  1  0
  6  7  3  0
  5  8  2  0
  8  9  1  0
  9 10  2  0
 10 11  1  0
 11 12  2  0
 12 13  1  0
 12 14  1  0
 14 15  2  0
  8 16  1  0
 16 17  2  0
 17 18  1  0
 18 19  1  0
 19 20  2  0
 19 21  1  0
 21 22  2  0
 22 23  1  0
 23 24  1  0
 23 25  2  0
 25 26  1  0
 26 27  1  0
 26 28  2  0
 28 29  1  0
 18 30  2  0
 30 31  1  0
 31 32  2  0
 32  2  1  0
 15  9  1  0
 32 16  1  0
 28 21  1  0
  1 33  1  0
  1 34  1  0
  1 35  1  0
 10 36  1  0
 11 37  1  0
 14 38  1  0
 15 39  1  0
 17 40  1  0
 22 41  1  0
 25 42  1  0
 29 43  1  0
 30 44  1  0
M  END
$$$$
