
     RDKit          3D

 39 41  0  0  0  0  0  0  0  0999 V2000
    3.6742    1.5624   -1.1940 C   0  0  0  0  0  0  0  0  0  0  0  0
    3.9182    0.3684   -0.3894 N   0  0  0  0  0  0  0  0  0  0  0  0
    4.5529   -0.6781   -1.1855 C   0  0  0  0  0  0  0  0  0  0  0  0
    2.7131   -0.1012    0.3123 C   0  0  0  0  0  0  0  0  0  0  0  0
    1.5441   -0.5965   -0.5595 C   0  0  0  0  0  0  0  0  0  0  0  0
    0.3631   -1.0110    0.2847 C   0  0  0  0  0  0  0  0  0  0  0  0
   -0.8605   -0.4413    0.3814 C   0  0  0  0  0  0  0  0  0  0  0  0
   -1.2471    0.7762   -0.3795 C   0  0  0  0  0  0  0  0  0  0  0  0
   -0.4729    1.9462   -0.3597 C   0  0  0  0  0  0  0  0  0  0  0  0
   -0.8711    3.0769   -1.0760 C   0  0  0  0  0  0  0  0  0  0  0  0
   -2.0588    3.0593   -1.8021 C   0  0  0  0  0  0  0  0  0  0  0  0
   -2.8621    1.9188   -1.7951 C   0  0  0  0  0  0  0  0  0  0  0  0
   -2.4735    0.7831   -1.0722 C   0  0  0  0  0  0  0  0  0  0  0  0
   -3.5897   -0.6206   -1.0362 S   0  0  0  0  0  0  0  0  0  0  0  0
   -3.1877   -1.3238    0.5641 C   0  0  0  0  0  0  0  0  0  0  0  0
   -4.1871   -2.0282    1.2485 C   0  0  0  0  0  0  0  0  0  0  0  0
   -3.9270   -2.5773    2.5054 C   0  0  0  0  0  0  0  0  0  0  0  0
   -2.6691   -2.4193    3.0816 C   0  0  0  0  0  0  0  0  0  0  0  0
   -2.3555   -3.0826    4.6382 Cl  0  0  0  0  0  0  0  0  0  0  0  0
   -1.6622   -1.7275    2.4097 C   0  0  0  0  0  0  0  0  0  0  0  0
   -1.9059   -1.1891    1.1361 C   0  0  0  0  0  0  0  0  0  0  0  0
    4.6213    1.9673   -1.5681 H   0  0  0  0  0  0  0  0  0  0  0  0
    3.0282    1.3674   -2.0565 H   0  0  0  0  0  0  0  0  0  0  0  0
    3.2153    2.3519   -0.5886 H   0  0  0  0  0  0  0  0  0  0  0  0
    4.7538   -1.5639   -0.5729 H   0  0  0  0  0  0  0  0  0  0  0  0
    3.9456   -0.9810   -2.0452 H   0  0  0  0  0  0  0  0  0  0  0  0
    5.5223   -0.3330   -1.5625 H   0  0  0  0  0  0  0  0  0  0  0  0
    2.3624    0.7070    0.9677 H   0  0  0  0  0  0  0  0  0  0  0  0
    3.0105   -0.9060    0.9985 H   0  0  0  0  0  0  0  0  0  0  0  0
    1.8569   -1.4781   -1.1324 H   0  0  0  0  0  0  0  0  0  0  0  0
    1.2616    0.1530   -1.3024 H   0  0  0  0  0  0  0  0  0  0  0  0
    0.5492   -1.9460    0.8149 H   0  0  0  0  0  0  0  0  0  0  0  0
    0.4432    1.9922    0.2226 H   0  0  0  0  0  0  0  0  0  0  0  0
   -0.2565    3.9736   -1.0598 H   0  0  0  0  0  0  0  0  0  0  0  0
   -2.3702    3.9393   -2.3593 H   0  0  0  0  0  0  0  0  0  0  0  0
   -3.8006    1.9278   -2.3445 H   0  0  0  0  0  0  0  0  0  0  0  0
   -5.1759   -2.1473    0.8111 H   0  0  0  0  0  0  0  0  0  0  0  0
   -4.7105   -3.1182    3.0299 H   0  0  0  0  0  0  0  0  0  0  0  0
   -0.6921   -1.6008    2.8834 H   0  0  0  0  0  0  0  0  0  0  0  0
  1  2  1  0
  2  3  1  0
  2  4  1  0
  4  5  1  0
  5  6  1  0
  6  7  2  3
  7  8  1  0
  8  9  2  0
  9 10  1  0
 10 11  2  0
 11 12  1  0
 12 13  2  0
 13 14  1  0
 14 15  1  0
 15 16  2  0
 16 17  1  0
 17 18  2  0
 18 19  1  0
 18 20  1  0
 20 21  2  0
 21  7  1  0
 13  8  1  0
 21 15  1  0
  1 22  1  0
  1 23  1  0
  1 24  1  0
  3 25  1  0
  3 26  1  0
  3 27  1  0
  4 28  1  0
  4 29  1  0
  5 30  1  0
  5 31  1  0
  6 32  1  0
  9 33  1  0
 10 34  1  0
 11 35  1  0
 12 36  1  0
 16 37  1  0
 17 38  1  0
 20 39  1  0
M  END
$$$$
