
     RDKit          3D

 36 38  0  0  0  0  0  0  0  0999 V2000
   -0.1971    3.0292    1.1696 C   0  0  0  0  0  0  0  0  0  0  0  0
   -0.3053    1.7348    0.5771 O   0  0  0  0  0  0  0  0  0  0  0  0
   -1.5612    1.4213    0.1376 C   0  0  0  0  0  0  0  0  0  0  0  0
   -2.5234    2.1747    0.2397 O   0  0  0  0  0  0  0  0  0  0  0  0
   -1.6479    0.0938   -0.4699 C   0  0  0  0  0  0  0  0  0  0  0  0
   -0.5964   -0.8135   -0.6387 C   0  0  0  0  0  0  0  0  0  0  0  0
    0.7224   -0.6349   -0.2629 N   0  0  0  0  0  0  0  0  0  0  0  0
    1.7917   -1.4949   -0.4146 C   0  0  0  0  0  0  0  0  0  0  0  0
    1.7968   -2.6119   -0.9167 O   0  0  0  0  0  0  0  0  0  0  0  0
    3.0311   -0.8990    0.1252 C   0  0  0  0  0  0  0  0  0  0  0  0
    4.3252   -1.4806    0.1381 C   0  0  0  0  0  0  0  0  0  0  0  0
    5.1389   -0.5498    0.7370 C   0  0  0  0  0  0  0  0  0  0  0  0
    4.3355    0.5051    1.0468 N   0  0  0  0  0  0  0  0  0  0  0  0
    4.7313    1.7339    1.6920 C   0  0  0  0  0  0  0  0  0  0  0  0
    3.0485    0.3294    0.6893 N   0  0  0  0  0  0  0  0  0  0  0  0
   -1.0919   -2.2716   -1.4028 S   0  0  0  0  0  0  0  0  0  0  0  0
   -2.6598   -1.7247   -1.5103 C   0  0  0  0  0  0  0  0  0  0  0  0
   -2.8456   -0.4763   -0.9917 C   0  0  0  0  0  0  0  0  0  0  0  0
   -4.2639   -0.0514   -1.1247 C   0  0  0  0  0  0  0  0  0  0  0  0
   -4.9784   -1.3891   -1.4963 C   0  0  0  0  0  0  0  0  0  0  0  0
   -3.8842   -2.3422   -2.0674 C   0  0  0  0  0  0  0  0  0  0  0  0
   -0.8257    3.0954    2.0629 H   0  0  0  0  0  0  0  0  0  0  0  0
   -0.4643    3.8063    0.4468 H   0  0  0  0  0  0  0  0  0  0  0  0
    0.8446    3.1783    1.4672 H   0  0  0  0  0  0  0  0  0  0  0  0
    0.9630    0.2486    0.1882 H   0  0  0  0  0  0  0  0  0  0  0  0
    4.6063   -2.4522   -0.2454 H   0  0  0  0  0  0  0  0  0  0  0  0
    6.1965   -0.5557    0.9607 H   0  0  0  0  0  0  0  0  0  0  0  0
    5.8056    1.7115    1.8909 H   0  0  0  0  0  0  0  0  0  0  0  0
    4.4927    2.5656    1.0242 H   0  0  0  0  0  0  0  0  0  0  0  0
    4.1785    1.8230    2.6305 H   0  0  0  0  0  0  0  0  0  0  0  0
   -4.3701    0.6775   -1.9351 H   0  0  0  0  0  0  0  0  0  0  0  0
   -4.6721    0.3676   -0.2008 H   0  0  0  0  0  0  0  0  0  0  0  0
   -5.8052   -1.2378   -2.1973 H   0  0  0  0  0  0  0  0  0  0  0  0
   -5.3976   -1.8337   -0.5838 H   0  0  0  0  0  0  0  0  0  0  0  0
   -3.8764   -2.3051   -3.1614 H   0  0  0  0  0  0  0  0  0  0  0  0
   -4.0421   -3.3716   -1.7346 H   0  0  0  0  0  0  0  0  0  0  0  0
  1  2  1  0
  2  3  1  0
  3  4  2  0
  3  5  1  0
  5  6  2  0
  6  7  1  0
  7  8  1  0
  8  9  2  0
  8 10  1  0
 10 11  1  0
 11 12  2  0
 12 13  1  0
 13 14  1  0
 13 15  1  0
  6 16  1  0
 16 17  1  0
 17 18  2  0
 18 19  1  0
 19 20  1  0
 20 21  1  0
 18  5  1  0
 15 10  2  0
 21 17  1  0
  1 22  1  0
  1 23  1  0
  1 24  1  0
  7 25  1  0
 11 26  1  0
 12 27  1  0
 14 28  1  0
 14 29  1  0
 14 30  1  0
 19 31  1  0
 19 32  1  0
 20 33  1  0
 20 34  1  0
 21 35  1  0
 21 36  1  0
M  END
$$$$
