
     RDKit          3D

 33 34  0  0  0  0  0  0  0  0999 V2000
   -3.5569   -0.9919   -0.5111 C   0  0  0  0  0  0  0  0  0  0  0  0
   -2.0633   -1.0523   -0.2211 C   0  0  0  0  0  0  0  0  0  0  0  0
   -1.4772    0.3045   -0.2532 N   0  0  0  0  0  0  0  0  0  0  0  0
   -1.7462    1.1283    0.9448 C   0  0  0  0  0  0  0  0  0  0  0  0
   -2.6624    2.2820    0.5580 C   0  0  0  0  0  0  0  0  0  0  0  0
   -0.0701    0.2322   -0.5272 C   0  0  0  0  0  0  0  0  0  0  0  0
    0.3218    0.7901   -1.7587 C   0  0  0  0  0  0  0  0  0  0  0  0
    1.6505    0.7810   -2.1459 C   0  0  0  0  0  0  0  0  0  0  0  0
    2.5886    0.2091   -1.2847 C   0  0  0  0  0  0  0  0  0  0  0  0
    3.9705    0.2334   -1.7275 N   0  0  0  0  0  4  0  0  0  0  0  0
    4.2353   -0.3715   -2.7748 O   0  0  0  0  0  0  0  0  0  0  0  0
    4.7781    0.8702   -1.0382 O   0  0  0  0  0  1  0  0  0  0  0  0
    2.2430   -0.3747   -0.0374 C   0  0  0  0  0  0  0  0  0  0  0  0
    3.1637   -0.9862    0.8514 C   0  0  0  0  0  0  0  0  0  0  0  0
    2.7403   -1.5332    2.0543 C   0  0  0  0  0  0  0  0  0  0  0  0
    1.4000   -1.4627    2.3478 C   0  0  0  0  0  0  0  0  0  0  0  0
    0.4886   -0.8980    1.5303 N   0  0  0  0  0  0  0  0  0  0  0  0
    0.8823   -0.3598    0.3494 C   0  0  0  0  0  0  0  0  0  0  0  0
   -4.0968   -0.4655    0.2819 H   0  0  0  0  0  0  0  0  0  0  0  0
   -3.7536   -0.4750   -1.4562 H   0  0  0  0  0  0  0  0  0  0  0  0
   -3.9695   -2.0034   -0.5809 H   0  0  0  0  0  0  0  0  0  0  0  0
   -1.9005   -1.5441    0.7450 H   0  0  0  0  0  0  0  0  0  0  0  0
   -1.6056   -1.6838   -0.9943 H   0  0  0  0  0  0  0  0  0  0  0  0
   -2.2207    0.5360    1.7364 H   0  0  0  0  0  0  0  0  0  0  0  0
   -0.8336    1.5598    1.3761 H   0  0  0  0  0  0  0  0  0  0  0  0
   -2.1949    2.9123   -0.2060 H   0  0  0  0  0  0  0  0  0  0  0  0
   -3.6141    1.9214    0.1559 H   0  0  0  0  0  0  0  0  0  0  0  0
   -2.8764    2.9059    1.4313 H   0  0  0  0  0  0  0  0  0  0  0  0
   -0.4330    1.2304   -2.4073 H   0  0  0  0  0  0  0  0  0  0  0  0
    1.9427    1.2138   -3.0996 H   0  0  0  0  0  0  0  0  0  0  0  0
    4.2257   -1.0408    0.6187 H   0  0  0  0  0  0  0  0  0  0  0  0
    3.4399   -1.9977    2.7399 H   0  0  0  0  0  0  0  0  0  0  0  0
    1.0036   -1.8696    3.2736 H   0  0  0  0  0  0  0  0  0  0  0  0
  1  2  1  0
  2  3  1  0
  3  4  1  0
  4  5  1  0
  3  6  1  0
  6  7  2  0
  7  8  1  0
  8  9  2  0
  9 10  1  0
 10 11  2  0
 10 12  1  0
  9 13  1  0
 13 14  2  0
 14 15  1  0
 15 16  2  0
 16 17  1  0
 17 18  2  0
 18  6  1  0
 18 13  1  0
  1 19  1  0
  1 20  1  0
  1 21  1  0
  2 22  1  0
  2 23  1  0
  4 24  1  0
  4 25  1  0
  5 26  1  0
  5 27  1  0
  5 28  1  0
  7 29  1  0
  8 30  1  0
 14 31  1  0
 15 32  1  0
 16 33  1  0
M  CHG  2  10   1  12  -1
M  END
$$$$
