
     RDKit          3D

 52 55  0  0  0  0  0  0  0  0999 V2000
   -4.4720    0.5110   -3.0781 C   0  0  0  0  0  0  0  0  0  0  0  0
   -4.3976    1.3007   -1.7853 C   0  0  0  0  0  0  0  0  0  0  0  0
   -4.1081    0.4219   -0.6902 O   0  0  0  0  0  0  0  0  0  0  0  0
   -2.7937    0.1736   -0.4397 C   0  0  0  0  0  0  0  0  0  0  0  0
   -1.8711    0.6651   -1.0828 O   0  0  0  0  0  0  0  0  0  0  0  0
   -2.5714   -0.7400    0.6854 C   0  0  0  0  0  0  0  0  0  0  0  0
   -3.5678   -1.4541    1.4569 C   0  0  0  0  0  0  0  0  0  0  0  0
   -5.0129   -1.4625    1.2931 C   0  0  0  0  0  0  0  0  0  0  0  0
   -5.6054   -2.3102    0.3502 C   0  0  0  0  0  0  0  0  0  0  0  0
   -6.9920   -2.3155    0.1908 C   0  0  0  0  0  0  0  0  0  0  0  0
   -7.7876   -1.4771    0.9718 C   0  0  0  0  0  0  0  0  0  0  0  0
   -7.2000   -0.6322    1.9137 C   0  0  0  0  0  0  0  0  0  0  0  0
   -5.8136   -0.6239    2.0763 C   0  0  0  0  0  0  0  0  0  0  0  0
   -3.0012   -2.2224    2.4534 C   0  0  0  0  0  0  0  0  0  0  0  0
   -1.3054   -2.1023    2.4696 S   0  0  0  0  0  0  0  0  0  0  0  0
   -1.2926   -1.0321    1.1519 C   0  0  0  0  0  0  0  0  0  0  0  0
   -0.1002   -0.5369    0.6451 N   0  0  0  0  0  0  0  0  0  0  0  0
    1.1887   -0.7984    1.0756 C   0  0  0  0  0  0  0  0  0  0  0  0
    1.5274   -1.5261    2.0019 O   0  0  0  0  0  0  0  0  0  0  0  0
    2.2005   -0.0876    0.2822 C   0  0  0  0  0  0  0  0  0  0  0  0
    3.6071   -0.1307    0.4478 C   0  0  0  0  0  0  0  0  0  0  0  0
    4.1140    0.6963   -0.5270 C   0  0  0  0  0  0  0  0  0  0  0  0
    5.4496    1.1280   -0.9476 C   0  0  0  0  0  0  0  0  0  0  0  0
    5.6303    1.6272   -2.2531 C   0  0  0  0  0  0  0  0  0  0  0  0
    6.8835    2.0410   -2.7053 C   0  0  0  0  0  0  0  0  0  0  0  0
    7.9816    1.9623   -1.8593 C   0  0  0  0  0  0  0  0  0  0  0  0
    7.8291    1.4732   -0.5607 C   0  0  0  0  0  0  0  0  0  0  0  0
    6.5735    1.0563   -0.0927 C   0  0  0  0  0  0  0  0  0  0  0  0
    6.3602    0.5819    1.1779 O   0  0  0  0  0  0  0  0  0  0  0  0
    7.4650    0.5417    2.0719 C   0  0  0  0  0  0  0  0  0  0  0  0
    3.0640    1.2052   -1.2382 O   0  0  0  0  0  0  0  0  0  0  0  0
    1.8697    0.7193   -0.7404 N   0  0  0  0  0  0  0  0  0  0  0  0
   -3.5094    0.0432   -3.3082 H   0  0  0  0  0  0  0  0  0  0  0  0
   -5.2061   -0.2971   -2.9931 H   0  0  0  0  0  0  0  0  0  0  0  0
   -4.7541    1.1586   -3.9130 H   0  0  0  0  0  0  0  0  0  0  0  0
   -3.6653    2.1132   -1.8515 H   0  0  0  0  0  0  0  0  0  0  0  0
   -5.3696    1.7600   -1.5782 H   0  0  0  0  0  0  0  0  0  0  0  0
   -4.9935   -2.9670   -0.2635 H   0  0  0  0  0  0  0  0  0  0  0  0
   -7.4516   -2.9735   -0.5422 H   0  0  0  0  0  0  0  0  0  0  0  0
   -8.8676   -1.4823    0.8466 H   0  0  0  0  0  0  0  0  0  0  0  0
   -7.8215    0.0207    2.5210 H   0  0  0  0  0  0  0  0  0  0  0  0
   -5.3645    0.0404    2.8108 H   0  0  0  0  0  0  0  0  0  0  0  0
   -3.5036   -2.8560    3.1729 H   0  0  0  0  0  0  0  0  0  0  0  0
   -0.1774    0.0976   -0.1541 H   0  0  0  0  0  0  0  0  0  0  0  0
    4.1583   -0.6975    1.1832 H   0  0  0  0  0  0  0  0  0  0  0  0
    4.7882    1.6922   -2.9404 H   0  0  0  0  0  0  0  0  0  0  0  0
    6.9979    2.4212   -3.7173 H   0  0  0  0  0  0  0  0  0  0  0  0
    8.9604    2.2828   -2.2079 H   0  0  0  0  0  0  0  0  0  0  0  0
    8.7152    1.4320    0.0641 H   0  0  0  0  0  0  0  0  0  0  0  0
    7.8696    1.5440    2.2465 H   0  0  0  0  0  0  0  0  0  0  0  0
    8.2391   -0.1435    1.7112 H   0  0  0  0  0  0  0  0  0  0  0  0
    7.1036    0.1584    3.0310 H   0  0  0  0  0  0  0  0  0  0  0  0
  1  2  1  0
  2  3  1  0
  3  4  1  0
  4  5  2  0
  4  6  1  0
  6  7  1  0
  7  8  1  0
  8  9  2  0
  9 10  1  0
 10 11  2  0
 11 12  1  0
 12 13  2  0
  7 14  2  0
 14 15  1  0
 15 16  1  0
 16 17  1  0
 17 18  1  0
 18 19  2  0
 18 20  1  0
 20 21  1  0
 21 22  2  0
 22 23  1  0
 23 24  2  0
 24 25  1  0
 25 26  2  0
 26 27  1  0
 27 28  2  0
 28 29  1  0
 29 30  1  0
 22 31  1  0
 31 32  1  0
 16  6  2  0
 32 20  2  0
 13  8  1  0
 28 23  1  0
  1 33  1  0
  1 34  1  0
  1 35  1  0
  2 36  1  0
  2 37  1  0
  9 38  1  0
 10 39  1  0
 11 40  1  0
 12 41  1  0
 13 42  1  0
 14 43  1  0
 17 44  1  0
 21 45  1  0
 24 46  1  0
 25 47  1  0
 26 48  1  0
 27 49  1  0
 30 50  1  0
 30 51  1  0
 30 52  1  0
M  END
$$$$
