
     RDKit          3D

 39 40  0  0  0  0  0  0  0  0999 V2000
   -2.5753   -0.2582    1.5118 O   0  0  0  0  0  0  0  0  0  0  0  0
   -1.9003   -0.8618    0.6789 C   0  0  0  0  0  0  0  0  0  0  0  0
   -2.5460   -1.6939   -0.3771 C   0  0  0  0  0  0  0  0  0  0  0  0
   -3.6253   -1.3217   -1.0811 C   0  0  0  0  0  0  0  0  0  0  0  0
   -4.3091   -0.0315   -0.9797 C   0  0  0  0  0  0  0  0  0  0  0  0
   -3.7194    1.1253   -1.5040 C   0  0  0  0  0  0  0  0  0  0  0  0
   -4.3832    2.3504   -1.4202 C   0  0  0  0  0  0  0  0  0  0  0  0
   -5.6313    2.4161   -0.8122 C   0  0  0  0  0  0  0  0  0  0  0  0
   -6.2440    3.6329   -0.7480 O   0  0  0  0  0  0  0  0  0  0  0  0
   -6.2312    1.2751   -0.2873 C   0  0  0  0  0  0  0  0  0  0  0  0
   -5.5681    0.0481   -0.3744 C   0  0  0  0  0  0  0  0  0  0  0  0
   -0.3963   -0.8914    0.7772 C   0  0  0  0  0  0  0  0  0  0  0  0
    0.3428   -0.4913   -0.4754 C   0  0  0  0  0  0  0  0  0  0  0  0
   -0.2196   -0.2513   -1.5427 O   0  0  0  0  0  0  0  0  0  0  0  0
    1.8310   -0.3933   -0.4464 C   0  0  0  0  0  0  0  0  0  0  0  0
    2.5933   -0.6491    0.6271 C   0  0  0  0  0  0  0  0  0  0  0  0
    4.0604   -0.5495    0.6142 C   0  0  0  0  0  0  0  0  0  0  0  0
    4.7348    0.4832   -0.0540 C   0  0  0  0  0  0  0  0  0  0  0  0
    6.1306    0.5627   -0.0197 C   0  0  0  0  0  0  0  0  0  0  0  0
    6.8524   -0.3873    0.6937 C   0  0  0  0  0  0  0  0  0  0  0  0
    8.2132   -0.3488    0.7551 O   0  0  0  0  0  0  0  0  0  0  0  0
    6.2025   -1.4083    1.3748 C   0  0  0  0  0  0  0  0  0  0  0  0
    4.8083   -1.4862    1.3405 C   0  0  0  0  0  0  0  0  0  0  0  0
   -2.0667   -2.6433   -0.5870 H   0  0  0  0  0  0  0  0  0  0  0  0
   -4.0324   -1.9938   -1.8323 H   0  0  0  0  0  0  0  0  0  0  0  0
   -2.7413    1.0800   -1.9784 H   0  0  0  0  0  0  0  0  0  0  0  0
   -3.9252    3.2484   -1.8236 H   0  0  0  0  0  0  0  0  0  0  0  0
   -7.0722    3.5320   -0.2514 H   0  0  0  0  0  0  0  0  0  0  0  0
   -7.2031    1.3188    0.1928 H   0  0  0  0  0  0  0  0  0  0  0  0
   -6.0322   -0.8410    0.0446 H   0  0  0  0  0  0  0  0  0  0  0  0
   -0.0985   -1.9037    1.0710 H   0  0  0  0  0  0  0  0  0  0  0  0
   -0.1134   -0.1938    1.5744 H   0  0  0  0  0  0  0  0  0  0  0  0
    2.2644   -0.1010   -1.3990 H   0  0  0  0  0  0  0  0  0  0  0  0
    2.1657   -0.9670    1.5738 H   0  0  0  0  0  0  0  0  0  0  0  0
    4.1835    1.2456   -0.5996 H   0  0  0  0  0  0  0  0  0  0  0  0
    6.6291    1.3701   -0.5468 H   0  0  0  0  0  0  0  0  0  0  0  0
    8.5271    0.4117    0.2388 H   0  0  0  0  0  0  0  0  0  0  0  0
    6.7785   -2.1412    1.9328 H   0  0  0  0  0  0  0  0  0  0  0  0
    4.3165   -2.2919    1.8808 H   0  0  0  0  0  0  0  0  0  0  0  0
  1  2  2  0
  2  3  1  0
  3  4  2  3
  4  5  1  0
  5  6  2  0
  6  7  1  0
  7  8  2  0
  8  9  1  0
  8 10  1  0
 10 11  2  0
  2 12  1  0
 12 13  1  0
 13 14  2  0
 13 15  1  0
 15 16  2  3
 16 17  1  0
 17 18  2  0
 18 19  1  0
 19 20  2  0
 20 21  1  0
 20 22  1  0
 22 23  2  0
 11  5  1  0
 23 17  1  0
  3 24  1  0
  4 25  1  0
  6 26  1  0
  7 27  1  0
  9 28  1  0
 10 29  1  0
 11 30  1  0
 12 31  1  0
 12 32  1  0
 15 33  1  0
 16 34  1  0
 18 35  1  0
 19 36  1  0
 21 37  1  0
 22 38  1  0
 23 39  1  0
M  END
$$$$
