
     RDKit          3D

 40 41  0  0  0  0  0  0  0  0999 V2000
   -4.2233    2.1266   -1.5773 C   0  0  0  0  0  0  0  0  0  0  0  0
   -3.5982    1.0867   -0.6943 C   0  0  0  0  0  0  0  0  0  0  0  0
   -3.8559    1.0685    0.6715 C   0  0  0  0  0  0  0  0  0  0  0  0
   -3.2774    0.0831    1.4613 C   0  0  0  0  0  0  0  0  0  0  0  0
   -2.4527   -0.8903    0.8846 C   0  0  0  0  0  0  0  0  0  0  0  0
   -1.8329   -1.8808    1.7746 C   0  0  0  0  0  0  0  0  0  0  0  0
   -0.5215   -2.0352    2.0234 C   0  0  0  0  0  0  0  0  0  0  0  0
    0.5812   -1.2622    1.4431 C   0  0  0  0  0  0  0  0  0  0  0  0
    0.6123    0.1300    1.4616 C   0  0  0  0  0  0  0  0  0  0  0  0
    1.6778    0.8261    0.8701 C   0  0  0  0  0  0  0  0  0  0  0  0
    2.7556    0.1700    0.2533 C   0  0  0  0  0  0  0  0  0  0  0  0
    3.7993    0.8645   -0.3423 N   0  0  0  0  0  0  0  0  0  0  0  0
    3.8289    2.3234   -0.3654 C   0  0  0  0  0  0  0  0  0  0  0  0
    4.9406    0.1640   -0.9261 C   0  0  0  0  0  0  0  0  0  0  0  0
    2.7120   -1.2332    0.2809 C   0  0  0  0  0  0  0  0  0  0  0  0
    1.6536   -1.9413    0.8691 C   0  0  0  0  0  0  0  0  0  0  0  0
   -2.2537   -0.8886   -0.4620 N   0  0  0  0  0  4  0  0  0  0  0  0
   -1.4592   -1.9312   -1.1399 C   0  0  0  0  0  0  0  0  0  0  0  0
   -2.7961    0.0843   -1.2358 C   0  0  0  0  0  0  0  0  0  0  0  0
   -4.3092    3.0821   -1.0506 H   0  0  0  0  0  0  0  0  0  0  0  0
   -3.6132    2.3014   -2.4694 H   0  0  0  0  0  0  0  0  0  0  0  0
   -5.2198    1.8010   -1.8906 H   0  0  0  0  0  0  0  0  0  0  0  0
   -4.4953    1.8209    1.1296 H   0  0  0  0  0  0  0  0  0  0  0  0
   -3.4603    0.0857    2.5352 H   0  0  0  0  0  0  0  0  0  0  0  0
   -2.5396   -2.5119    2.3131 H   0  0  0  0  0  0  0  0  0  0  0  0
   -0.2091   -2.8124    2.7220 H   0  0  0  0  0  0  0  0  0  0  0  0
   -0.1689    0.7057    1.9500 H   0  0  0  0  0  0  0  0  0  0  0  0
    1.6485    1.9112    0.9202 H   0  0  0  0  0  0  0  0  0  0  0  0
    3.8350    2.7348    0.6497 H   0  0  0  0  0  0  0  0  0  0  0  0
    2.9649    2.7183   -0.9117 H   0  0  0  0  0  0  0  0  0  0  0  0
    4.7221    2.7087   -0.8701 H   0  0  0  0  0  0  0  0  0  0  0  0
    5.4382   -0.4717   -0.1836 H   0  0  0  0  0  0  0  0  0  0  0  0
    5.6979    0.8595   -1.3042 H   0  0  0  0  0  0  0  0  0  0  0  0
    4.6193   -0.4501   -1.7753 H   0  0  0  0  0  0  0  0  0  0  0  0
    3.5170   -1.8205   -0.1541 H   0  0  0  0  0  0  0  0  0  0  0  0
    1.6902   -3.0295    0.8650 H   0  0  0  0  0  0  0  0  0  0  0  0
   -1.4970   -2.8685   -0.5821 H   0  0  0  0  0  0  0  0  0  0  0  0
   -0.4391   -1.5600   -1.2463 H   0  0  0  0  0  0  0  0  0  0  0  0
   -1.8912   -2.1147   -2.1285 H   0  0  0  0  0  0  0  0  0  0  0  0
   -2.5808    0.0457   -2.3006 H   0  0  0  0  0  0  0  0  0  0  0  0
  1  2  1  0
  2  3  2  0
  3  4  1  0
  4  5  2  0
  5  6  1  0
  6  7  2  3
  7  8  1  0
  8  9  2  0
  9 10  1  0
 10 11  2  0
 11 12  1  0
 12 13  1  0
 12 14  1  0
 11 15  1  0
 15 16  2  0
  5 17  1  0
 17 18  1  0
 17 19  2  0
 19  2  1  0
 16  8  1  0
  1 20  1  0
  1 21  1  0
  1 22  1  0
  3 23  1  0
  4 24  1  0
  6 25  1  0
  7 26  1  0
  9 27  1  0
 10 28  1  0
 13 29  1  0
 13 30  1  0
 13 31  1  0
 14 32  1  0
 14 33  1  0
 14 34  1  0
 15 35  1  0
 16 36  1  0
 18 37  1  0
 18 38  1  0
 18 39  1  0
 19 40  1  0
M  CHG  1  17   1
M  END
$$$$
