
     RDKit          3D

 48 50  0  0  0  0  0  0  0  0999 V2000
    8.2044   -1.0157   -0.3740 C   0  0  0  0  0  0  0  0  0  0  0  0
    7.1562   -0.0199   -0.7119 C   0  0  0  0  0  0  0  0  0  0  0  0
    7.2314    0.9765   -1.6681 C   0  0  0  0  0  0  0  0  0  0  0  0
    5.7699    1.8754   -1.6920 S   0  0  0  0  0  0  0  0  0  0  0  0
    5.1625    0.8782   -0.4467 C   0  0  0  0  0  0  0  0  0  0  0  0
    3.8954    1.1989   -0.0480 N   0  0  0  0  0  0  0  0  0  0  0  0
    3.2239    0.4899    0.9253 C   0  0  0  0  0  0  0  0  0  0  0  0
    3.6288   -0.4914    1.5384 O   0  0  0  0  0  0  0  0  0  0  0  0
    1.8414    1.0677    1.1735 C   0  0  0  0  0  0  0  0  0  0  0  0
    1.0783    0.3145    2.2580 C   0  0  0  0  0  0  0  0  0  0  0  0
    0.7056   -1.0214    1.7700 N   0  0  0  0  0  0  0  0  0  0  0  0
   -0.5944   -1.8050    2.4887 S   0  0  0  0  0  6  0  0  0  0  0  0
   -0.5075   -3.2013    2.1315 O   0  0  0  0  0  0  0  0  0  0  0  0
   -0.6843   -1.3590    3.8610 O   0  0  0  0  0  0  0  0  0  0  0  0
   -1.9714   -1.1333    1.5930 C   0  0  0  0  0  0  0  0  0  0  0  0
   -3.0634   -0.6094    2.2830 C   0  0  0  0  0  0  0  0  0  0  0  0
   -4.1367   -0.0664    1.5677 C   0  0  0  0  0  0  0  0  0  0  0  0
   -4.1278   -0.0334    0.1618 C   0  0  0  0  0  0  0  0  0  0  0  0
   -3.0193   -0.5577   -0.5045 C   0  0  0  0  0  0  0  0  0  0  0  0
   -1.9413   -1.1142    0.1992 C   0  0  0  0  0  0  0  0  0  0  0  0
   -2.9747   -0.5106   -1.9732 C   0  0  0  0  0  0  0  0  0  0  0  0
   -1.9473   -0.8592   -2.5507 O   0  0  0  0  0  0  0  0  0  0  0  0
   -4.1095   -0.0437   -2.6162 N   0  0  0  0  0  0  0  0  0  0  0  0
   -4.0961   -0.0157   -4.0672 C   0  0  0  0  0  0  0  0  0  0  0  0
   -5.2007    0.5381   -1.9815 C   0  0  0  0  0  0  0  0  0  0  0  0
   -6.1183    1.0525   -2.6253 O   0  0  0  0  0  0  0  0  0  0  0  0
   -5.1975    0.5229   -0.5890 N   0  0  0  0  0  0  0  0  0  0  0  0
   -6.3408    1.1026    0.1062 C   0  0  0  0  0  0  0  0  0  0  0  0
    5.9604   -0.0611   -0.0143 N   0  0  0  0  0  0  0  0  0  0  0  0
    8.5127   -0.9004    0.6698 H   0  0  0  0  0  0  0  0  0  0  0  0
    9.0892   -0.8958   -1.0073 H   0  0  0  0  0  0  0  0  0  0  0  0
    7.8203   -2.0313   -0.5123 H   0  0  0  0  0  0  0  0  0  0  0  0
    8.0494    1.2110   -2.3339 H   0  0  0  0  0  0  0  0  0  0  0  0
    3.4583    1.9709   -0.5273 H   0  0  0  0  0  0  0  0  0  0  0  0
    1.9656    2.1118    1.4847 H   0  0  0  0  0  0  0  0  0  0  0  0
    1.2803    1.0514    0.2312 H   0  0  0  0  0  0  0  0  0  0  0  0
    0.1763    0.8866    2.5010 H   0  0  0  0  0  0  0  0  0  0  0  0
    1.6823    0.2136    3.1660 H   0  0  0  0  0  0  0  0  0  0  0  0
    1.4898   -1.6617    1.5950 H   0  0  0  0  0  0  0  0  0  0  0  0
   -3.0921   -0.6233    3.3721 H   0  0  0  0  0  0  0  0  0  0  0  0
   -4.9709    0.3259    2.1437 H   0  0  0  0  0  0  0  0  0  0  0  0
   -1.0881   -1.5281   -0.3362 H   0  0  0  0  0  0  0  0  0  0  0  0
   -3.3927   -0.7456   -4.4781 H   0  0  0  0  0  0  0  0  0  0  0  0
   -3.7985    0.9871   -4.3896 H   0  0  0  0  0  0  0  0  0  0  0  0
   -5.0936   -0.2307   -4.4631 H   0  0  0  0  0  0  0  0  0  0  0  0
   -6.8309    0.3289    0.7050 H   0  0  0  0  0  0  0  0  0  0  0  0
   -5.9998    1.9224    0.7465 H   0  0  0  0  0  0  0  0  0  0  0  0
   -7.0849    1.5086   -0.5845 H   0  0  0  0  0  0  0  0  0  0  0  0
  1  2  1  0
  2  3  2  0
  3  4  1  0
  4  5  1  0
  5  6  1  0
  6  7  1  0
  7  8  2  0
  7  9  1  0
  9 10  1  0
 10 11  1  0
 11 12  1  0
 12 13  2  0
 12 14  2  0
 12 15  1  0
 15 16  2  0
 16 17  1  0
 17 18  2  0
 18 19  1  0
 19 20  2  0
 19 21  1  0
 21 22  2  0
 21 23  1  0
 23 24  1  0
 23 25  1  0
 25 26  2  0
 25 27  1  0
 27 28  1  0
  5 29  2  0
 29  2  1  0
 20 15  1  0
 27 18  1  0
  1 30  1  0
  1 31  1  0
  1 32  1  0
  3 33  1  0
  6 34  1  0
  9 35  1  0
  9 36  1  0
 10 37  1  0
 10 38  1  0
 11 39  1  0
 16 40  1  0
 17 41  1  0
 20 42  1  0
 24 43  1  0
 24 44  1  0
 24 45  1  0
 28 46  1  0
 28 47  1  0
 28 48  1  0
M  END
$$$$
