
     RDKit          3D

 36 35  0  0  0  0  0  0  0  0999 V2000
    2.6906   -2.9174   -2.4422 C   0  0  0  0  0  0  0  0  0  0  0  0
    1.6303   -2.2607   -1.5682 C   0  0  0  0  0  0  0  0  0  0  0  0
    1.9375   -0.8498   -1.2670 N   0  0  0  0  0  0  0  0  0  0  0  0
    2.8400   -0.6525   -0.1164 C   0  0  0  0  0  0  0  0  0  0  0  0
    2.0960   -0.6396    1.2087 C   0  0  0  0  0  0  0  0  0  0  0  0
    1.4631    0.2009   -2.0849 C   0  0  0  0  0  0  0  0  0  0  0  0
    0.6895   -0.0186   -3.5743 S   0  0  0  0  0  0  0  0  0  0  0  0
    1.7802    1.8563   -1.5173 S   0  0  0  0  0  0  0  0  0  0  0  0
   -0.1105    2.6631   -1.2853 S   0  0  0  0  0  0  0  0  0  0  0  0
   -0.4853    2.2684    0.4045 C   0  0  0  0  0  0  0  0  0  0  0  0
    0.2008    3.2329    1.6118 S   0  0  0  0  0  0  0  0  0  0  0  0
   -1.3629    1.1840    0.6313 N   0  0  0  0  0  0  0  0  0  0  0  0
   -1.6423    0.6963    1.9955 C   0  0  0  0  0  0  0  0  0  0  0  0
   -2.8715    1.3303    2.6273 C   0  0  0  0  0  0  0  0  0  0  0  0
   -2.1511    0.5431   -0.4383 C   0  0  0  0  0  0  0  0  0  0  0  0
   -3.3644    1.3576   -0.8667 C   0  0  0  0  0  0  0  0  0  0  0  0
    2.8067   -2.3980   -3.3978 H   0  0  0  0  0  0  0  0  0  0  0  0
    3.6671   -2.9194   -1.9479 H   0  0  0  0  0  0  0  0  0  0  0  0
    2.4164   -3.9563   -2.6504 H   0  0  0  0  0  0  0  0  0  0  0  0
    0.6513   -2.3404   -2.0502 H   0  0  0  0  0  0  0  0  0  0  0  0
    1.5438   -2.8074   -0.6225 H   0  0  0  0  0  0  0  0  0  0  0  0
    3.4211    0.2663   -0.2265 H   0  0  0  0  0  0  0  0  0  0  0  0
    3.5750   -1.4654   -0.1121 H   0  0  0  0  0  0  0  0  0  0  0  0
    1.5667   -1.5820    1.3798 H   0  0  0  0  0  0  0  0  0  0  0  0
    2.7971   -0.4905    2.0356 H   0  0  0  0  0  0  0  0  0  0  0  0
    1.3582    0.1624    1.2397 H   0  0  0  0  0  0  0  0  0  0  0  0
   -0.7755    0.8703    2.6399 H   0  0  0  0  0  0  0  0  0  0  0  0
   -1.7604   -0.3930    1.9567 H   0  0  0  0  0  0  0  0  0  0  0  0
   -2.8286    2.4228    2.5925 H   0  0  0  0  0  0  0  0  0  0  0  0
   -3.7854    1.0119    2.1188 H   0  0  0  0  0  0  0  0  0  0  0  0
   -2.9560    1.0233    3.6747 H   0  0  0  0  0  0  0  0  0  0  0  0
   -2.4784   -0.4454   -0.0962 H   0  0  0  0  0  0  0  0  0  0  0  0
   -1.5116    0.3577   -1.3025 H   0  0  0  0  0  0  0  0  0  0  0  0
   -3.0873    2.3566   -1.2142 H   0  0  0  0  0  0  0  0  0  0  0  0
   -4.0739    1.4832   -0.0452 H   0  0  0  0  0  0  0  0  0  0  0  0
   -3.8867    0.8490   -1.6832 H   0  0  0  0  0  0  0  0  0  0  0  0
  1  2  1  0
  2  3  1  0
  3  4  1  0
  4  5  1  0
  3  6  1  0
  6  7  2  0
  6  8  1  0
  8  9  1  0
  9 10  1  0
 10 11  2  0
 10 12  1  0
 12 13  1  0
 13 14  1  0
 12 15  1  0
 15 16  1  0
  1 17  1  0
  1 18  1  0
  1 19  1  0
  2 20  1  0
  2 21  1  0
  4 22  1  0
  4 23  1  0
  5 24  1  0
  5 25  1  0
  5 26  1  0
 13 27  1  0
 13 28  1  0
 14 29  1  0
 14 30  1  0
 14 31  1  0
 15 32  1  0
 15 33  1  0
 16 34  1  0
 16 35  1  0
 16 36  1  0
M  END
$$$$
