
     RDKit          3D

 23 23  0  0  0  0  0  0  0  0999 V2000
   -2.0833    2.5794   -1.7175 O   0  0  0  0  0  0  0  0  0  0  0  0
   -1.3260    1.8923   -1.0555 C   0  0  0  0  0  0  0  0  0  0  0  0
   -0.2585    2.4372   -0.4421 O   0  0  0  0  0  0  0  0  0  0  0  0
   -1.5327    0.4674   -0.7294 C   0  0  0  0  0  0  0  0  0  0  0  0
   -2.8582    0.0673   -0.4901 C   0  0  0  0  0  0  0  0  0  0  0  0
   -3.1497   -1.2623   -0.1868 C   0  0  0  0  0  0  0  0  0  0  0  0
   -2.1231   -2.2007   -0.1368 C   0  0  0  0  0  0  0  0  0  0  0  0
   -0.8067   -1.8095   -0.3929 C   0  0  0  0  0  0  0  0  0  0  0  0
   -0.4901   -0.4742   -0.6845 C   0  0  0  0  0  0  0  0  0  0  0  0
    0.8498   -0.1718   -0.9914 N   0  0  0  0  0  0  0  0  0  0  0  0
    1.5838    0.2056    0.0076 C   0  0  0  0  0  0  0  0  0  0  0  0
    3.0131    0.5827   -0.1982 C   0  0  0  0  0  0  0  0  0  0  0  0
    3.7970   -0.2646    0.7378 N   0  0  0  0  0  4  0  0  0  0  0  0
    4.3494   -1.2692    0.2735 O   0  0  0  0  0  0  0  0  0  0  0  0
    3.8395    0.0979    1.9213 O   0  0  0  0  0  1  0  0  0  0  0  0
   -0.3037    3.3756   -0.7240 H   0  0  0  0  0  0  0  0  0  0  0  0
   -3.6666    0.7945   -0.5432 H   0  0  0  0  0  0  0  0  0  0  0  0
   -4.1772   -1.5664   -0.0013 H   0  0  0  0  0  0  0  0  0  0  0  0
   -2.3457   -3.2417    0.0856 H   0  0  0  0  0  0  0  0  0  0  0  0
   -0.0164   -2.5571   -0.3810 H   0  0  0  0  0  0  0  0  0  0  0  0
    1.1761    0.2987    1.0329 H   0  0  0  0  0  0  0  0  0  0  0  0
    3.3520    0.3920   -1.2190 H   0  0  0  0  0  0  0  0  0  0  0  0
    3.1775    1.6267    0.0789 H   0  0  0  0  0  0  0  0  0  0  0  0
  1  2  2  0
  2  3  1  0
  2  4  1  0
  4  5  2  0
  5  6  1  0
  6  7  2  0
  7  8  1  0
  8  9  2  0
  9 10  1  0
 10 11  2  3
 11 12  1  0
 12 13  1  0
 13 14  2  0
 13 15  1  0
  9  4  1  0
  3 16  1  0
  5 17  1  0
  6 18  1  0
  7 19  1  0
  8 20  1  0
 11 21  1  0
 12 22  1  0
 12 23  1  0
M  CHG  2  13   1  15  -1
M  END
$$$$
