
     RDKit          3D

 31 33  0  0  0  0  0  0  0  0999 V2000
    4.9291    1.1956   -2.2256 C   0  0  0  0  0  0  0  0  0  0  0  0
    4.1872    1.5558   -1.0409 N   0  0  0  0  0  0  0  0  0  0  0  0
    4.5957    2.3853   -0.0406 C   0  0  0  0  0  0  0  0  0  0  0  0
    3.5627    2.4239    0.8647 C   0  0  0  0  0  0  0  0  0  0  0  0
    2.5589    1.5795    0.3263 C   0  0  0  0  0  0  0  0  0  0  0  0
    1.2379    1.2706    0.9078 C   0  0  0  0  0  0  0  0  0  0  0  0
    0.8854    1.7555    1.9754 O   0  0  0  0  0  0  0  0  0  0  0  0
    0.5335    0.4051    0.0911 N   0  0  0  0  0  0  0  0  0  0  0  0
   -0.7325   -0.1165    0.2859 C   0  0  0  0  0  0  0  0  0  0  0  0
   -1.6539    0.2854    1.6824 S   0  0  0  0  0  0  0  0  0  0  0  0
   -2.9174   -0.6759    1.1707 C   0  0  0  0  0  0  0  0  0  0  0  0
   -2.6912   -1.3031   -0.0215 C   0  0  0  0  0  0  0  0  0  0  0  0
   -1.4203   -0.9876   -0.5534 C   0  0  0  0  0  0  0  0  0  0  0  0
   -0.9035   -1.4914   -1.7885 C   0  0  0  0  0  0  0  0  0  0  0  0
   -0.4780   -1.8965   -2.7895 N   0  0  0  0  0  0  0  0  0  0  0  0
   -3.8555   -2.1356   -0.4159 C   0  0  0  0  0  0  0  0  0  0  0  0
   -4.6881   -2.1874    0.9046 C   0  0  0  0  0  0  0  0  0  0  0  0
   -4.2382   -0.9707    1.7717 C   0  0  0  0  0  0  0  0  0  0  0  0
    2.9539    1.0476   -0.8514 N   0  0  0  0  0  0  0  0  0  0  0  0
    5.9002    1.6964   -2.2133 H   0  0  0  0  0  0  0  0  0  0  0  0
    4.3558    1.5131   -3.1002 H   0  0  0  0  0  0  0  0  0  0  0  0
    5.0676    0.1115   -2.2283 H   0  0  0  0  0  0  0  0  0  0  0  0
    5.5624    2.8694   -0.0514 H   0  0  0  0  0  0  0  0  0  0  0  0
    3.5201    2.9791    1.7920 H   0  0  0  0  0  0  0  0  0  0  0  0
    1.0469    0.1425   -0.7499 H   0  0  0  0  0  0  0  0  0  0  0  0
   -3.5697   -3.1394   -0.7421 H   0  0  0  0  0  0  0  0  0  0  0  0
   -4.4271   -1.6432   -1.2095 H   0  0  0  0  0  0  0  0  0  0  0  0
   -5.7662   -2.1881    0.7162 H   0  0  0  0  0  0  0  0  0  0  0  0
   -4.4471   -3.1151    1.4405 H   0  0  0  0  0  0  0  0  0  0  0  0
   -4.9245   -0.1285    1.6368 H   0  0  0  0  0  0  0  0  0  0  0  0
   -4.1844   -1.2371    2.8306 H   0  0  0  0  0  0  0  0  0  0  0  0
  1  2  1  0
  2  3  1  0
  3  4  2  0
  4  5  1  0
  5  6  1  0
  6  7  2  0
  6  8  1  0
  8  9  1  0
  9 10  1  0
 10 11  1  0
 11 12  2  0
 12 13  1  0
 13 14  1  0
 14 15  3  0
 12 16  1  0
 16 17  1  0
 17 18  1  0
  5 19  2  0
 19  2  1  0
 13  9  2  0
 18 11  1  0
  1 20  1  0
  1 21  1  0
  1 22  1  0
  3 23  1  0
  4 24  1  0
  8 25  1  0
 16 26  1  0
 16 27  1  0
 17 28  1  0
 17 29  1  0
 18 30  1  0
 18 31  1  0
M  END
$$$$
