
     RDKit          3D

 50 53  0  0  0  0  0  0  0  0999 V2000
    7.4062    1.7333   -0.7170 C   0  0  0  0  0  0  0  0  0  0  0  0
    6.0918    1.1426   -0.2991 C   0  0  0  0  0  0  0  0  0  0  0  0
    4.9873    1.1979   -1.1469 C   0  0  0  0  0  0  0  0  0  0  0  0
    3.7705    0.6199   -0.7700 C   0  0  0  0  0  0  0  0  0  0  0  0
    3.6317   -0.0370    0.4575 C   0  0  0  0  0  0  0  0  0  0  0  0
    2.4118   -0.6307    0.8726 N   0  0  0  0  0  0  0  0  0  0  0  0
    1.2171   -0.6910    0.1708 C   0  0  0  0  0  0  0  0  0  0  0  0
    1.0080   -0.2625   -0.9618 O   0  0  0  0  0  0  0  0  0  0  0  0
    0.0995   -1.4073    0.9445 C   0  0  0  0  0  0  0  0  0  0  0  0
   -1.2333   -1.0276    0.4549 N   0  0  0  0  0  4  0  0  0  0  0  0
   -2.1730   -0.2297    1.1062 C   0  0  0  0  0  0  0  0  0  0  0  0
   -3.2785   -0.0636    0.2795 C   0  0  0  0  0  0  0  0  0  0  0  0
   -4.5641    0.7810    0.6006 C   0  0  0  0  0  0  0  0  0  0  0  0
   -5.5756    0.9302   -0.3502 C   0  0  0  0  0  0  0  0  0  0  0  0
   -6.7140    1.6846   -0.0523 C   0  0  0  0  0  0  0  0  0  0  0  0
   -6.8454    2.2937    1.1931 C   0  0  0  0  0  0  0  0  0  0  0  0
   -5.8381    2.1525    2.1436 C   0  0  0  0  0  0  0  0  0  0  0  0
   -4.6981    1.3997    1.8504 C   0  0  0  0  0  0  0  0  0  0  0  0
   -2.9487   -0.8024   -0.8418 N   0  0  0  0  0  0  0  0  0  0  0  0
   -1.7265   -1.3202   -0.7462 C   0  0  0  0  0  0  0  0  0  0  0  0
   -1.3238   -2.0864   -1.9500 C   0  0  0  0  0  0  0  0  0  0  0  0
   -2.6679   -2.2525   -2.6858 C   0  0  0  0  0  0  0  0  0  0  0  0
   -3.5749   -1.1283   -2.1153 C   0  0  0  0  0  0  0  0  0  0  0  0
    4.7500   -0.1106    1.3179 C   0  0  0  0  0  0  0  0  0  0  0  0
    4.7057   -0.8009    2.6559 C   0  0  0  0  0  0  0  0  0  0  0  0
    5.9678    0.4766    0.9233 C   0  0  0  0  0  0  0  0  0  0  0  0
    8.0068    0.9798   -1.2356 H   0  0  0  0  0  0  0  0  0  0  0  0
    7.9648    2.0957    0.1524 H   0  0  0  0  0  0  0  0  0  0  0  0
    7.2564    2.5877   -1.3853 H   0  0  0  0  0  0  0  0  0  0  0  0
    5.0611    1.6951   -2.1123 H   0  0  0  0  0  0  0  0  0  0  0  0
    2.9510    0.7100   -1.4747 H   0  0  0  0  0  0  0  0  0  0  0  0
    2.4415   -1.0624    1.7872 H   0  0  0  0  0  0  0  0  0  0  0  0
    0.2186   -2.4881    0.8179 H   0  0  0  0  0  0  0  0  0  0  0  0
    0.1648   -1.1638    2.0101 H   0  0  0  0  0  0  0  0  0  0  0  0
   -1.9279    0.1387    2.0877 H   0  0  0  0  0  0  0  0  0  0  0  0
   -5.5106    0.4889   -1.3359 H   0  0  0  0  0  0  0  0  0  0  0  0
   -7.5010    1.8027   -0.7947 H   0  0  0  0  0  0  0  0  0  0  0  0
   -7.7323    2.8813    1.4215 H   0  0  0  0  0  0  0  0  0  0  0  0
   -5.9433    2.6314    3.1151 H   0  0  0  0  0  0  0  0  0  0  0  0
   -3.9390    1.3152    2.6219 H   0  0  0  0  0  0  0  0  0  0  0  0
   -0.8755   -3.0308   -1.6402 H   0  0  0  0  0  0  0  0  0  0  0  0
   -0.6272   -1.4630   -2.5123 H   0  0  0  0  0  0  0  0  0  0  0  0
   -2.5690   -2.2082   -3.7736 H   0  0  0  0  0  0  0  0  0  0  0  0
   -3.1010   -3.2254   -2.4246 H   0  0  0  0  0  0  0  0  0  0  0  0
   -4.5967   -1.4859   -1.9710 H   0  0  0  0  0  0  0  0  0  0  0  0
   -3.5557   -0.2413   -2.7551 H   0  0  0  0  0  0  0  0  0  0  0  0
    5.6713   -0.7534    3.1706 H   0  0  0  0  0  0  0  0  0  0  0  0
    3.9660   -0.3221    3.3056 H   0  0  0  0  0  0  0  0  0  0  0  0
    4.4552   -1.8591    2.5287 H   0  0  0  0  0  0  0  0  0  0  0  0
    6.8361    0.4159    1.5789 H   0  0  0  0  0  0  0  0  0  0  0  0
  1  2  1  0
  2  3  2  0
  3  4  1  0
  4  5  2  0
  5  6  1  0
  6  7  1  0
  7  8  2  0
  7  9  1  0
  9 10  1  0
 10 11  1  0
 11 12  2  0
 12 13  1  0
 13 14  2  0
 14 15  1  0
 15 16  2  0
 16 17  1  0
 17 18  2  0
 12 19  1  0
 19 20  1  0
 20 21  1  0
 21 22  1  0
 22 23  1  0
  5 24  1  0
 24 25  1  0
 24 26  2  0
 26  2  1  0
 20 10  2  0
 18 13  1  0
 23 19  1  0
  1 27  1  0
  1 28  1  0
  1 29  1  0
  3 30  1  0
  4 31  1  0
  6 32  1  0
  9 33  1  0
  9 34  1  0
 11 35  1  0
 14 36  1  0
 15 37  1  0
 16 38  1  0
 17 39  1  0
 18 40  1  0
 21 41  1  0
 21 42  1  0
 22 43  1  0
 22 44  1  0
 23 45  1  0
 23 46  1  0
 25 47  1  0
 25 48  1  0
 25 49  1  0
 26 50  1  0
M  CHG  1  10   1
M  END
$$$$
