
     RDKit          3D

 57 61  0  0  0  0  0  0  0  0999 V2000
   -6.4447   -2.3816   -3.0486 C   0  0  0  0  0  0  0  0  0  0  0  0
   -5.9898   -1.7759   -1.7539 C   0  0  0  0  0  0  0  0  0  0  0  0
   -4.8436   -2.2553   -1.1106 C   0  0  0  0  0  0  0  0  0  0  0  0
   -4.4357   -1.7113    0.1096 C   0  0  0  0  0  0  0  0  0  0  0  0
   -5.1770   -0.6885    0.7165 C   0  0  0  0  0  0  0  0  0  0  0  0
   -4.7328   -0.0937    2.0288 C   0  0  0  0  0  0  0  0  0  0  0  0
   -4.0121    1.1465    1.8337 N   0  0  0  0  0  0  0  0  0  0  0  0
   -4.6380    2.3434    1.9633 N   0  0  0  0  0  0  0  0  0  0  0  0
   -3.7331    3.2996    1.7521 N   0  0  0  0  0  0  0  0  0  0  0  0
   -2.5435    2.6839    1.5130 C   0  0  0  0  0  0  0  0  0  0  0  0
   -1.2432    3.2243    1.2271 C   0  0  0  0  0  0  0  0  0  0  0  0
   -0.9645    4.4143    1.1358 O   0  0  0  0  0  0  0  0  0  0  0  0
   -0.2875    2.2281    1.0578 N   0  0  0  0  0  0  0  0  0  0  0  0
   -0.5535    0.8662    1.1436 C   0  0  0  0  0  0  0  0  0  0  0  0
    0.6196   -0.0866    0.9427 C   0  0  0  0  0  0  0  0  0  0  0  0
    1.2830    0.0989   -0.4245 C   0  0  0  0  0  0  0  0  0  0  0  0
    2.6973   -0.4592   -0.4168 C   0  0  0  0  0  0  0  0  0  0  0  0
    3.5609    0.2568    0.5635 N   0  0  0  0  0  0  0  0  0  0  0  0
    4.6968    1.3595   -0.1115 S   0  0  0  0  0  6  0  0  0  0  0  0
    3.9308    2.2226   -0.9838 O   0  0  0  0  0  0  0  0  0  0  0  0
    5.4765    1.9001    0.9821 O   0  0  0  0  0  0  0  0  0  0  0  0
    5.7612    0.3055   -1.0344 C   0  0  0  0  0  0  0  0  0  0  0  0
    6.4234   -0.7343   -0.3678 C   0  0  0  0  0  0  0  0  0  0  0  0
    7.2726   -1.5826   -1.0800 C   0  0  0  0  0  0  0  0  0  0  0  0
    7.4628   -1.3891   -2.4490 C   0  0  0  0  0  0  0  0  0  0  0  0
    6.8058   -0.3461   -3.1044 C   0  0  0  0  0  0  0  0  0  0  0  0
    5.9574    0.5009   -2.3936 C   0  0  0  0  0  0  0  0  0  0  0  0
    5.3492    1.4873   -3.0628 F   0  0  0  0  0  0  0  0  0  0  0  0
    2.8558    0.8183    1.7481 C   0  0  0  0  0  0  0  0  0  0  0  0
    1.6214    0.0005    2.1030 C   0  0  0  0  0  0  0  0  0  0  0  0
   -1.7305    0.3675    1.4094 N   0  0  0  0  0  0  0  0  0  0  0  0
   -2.6823    1.3188    1.5748 C   0  0  0  0  0  0  0  0  0  0  0  0
   -6.3281   -0.2140    0.0729 C   0  0  0  0  0  0  0  0  0  0  0  0
   -6.7340   -0.7584   -1.1475 C   0  0  0  0  0  0  0  0  0  0  0  0
   -7.1065   -3.2305   -2.8522 H   0  0  0  0  0  0  0  0  0  0  0  0
   -5.5900   -2.7279   -3.6391 H   0  0  0  0  0  0  0  0  0  0  0  0
   -6.9824   -1.6468   -3.6567 H   0  0  0  0  0  0  0  0  0  0  0  0
   -4.2574   -3.0541   -1.5590 H   0  0  0  0  0  0  0  0  0  0  0  0
   -3.5305   -2.0895    0.5808 H   0  0  0  0  0  0  0  0  0  0  0  0
   -4.0781   -0.7817    2.5763 H   0  0  0  0  0  0  0  0  0  0  0  0
   -5.5960    0.1063    2.6747 H   0  0  0  0  0  0  0  0  0  0  0  0
    0.6273    2.5795    0.8147 H   0  0  0  0  0  0  0  0  0  0  0  0
    0.1956   -1.1012    0.9703 H   0  0  0  0  0  0  0  0  0  0  0  0
    0.6853   -0.4154   -1.1871 H   0  0  0  0  0  0  0  0  0  0  0  0
    1.3094    1.1523   -0.7249 H   0  0  0  0  0  0  0  0  0  0  0  0
    2.6912   -1.5222   -0.1467 H   0  0  0  0  0  0  0  0  0  0  0  0
    3.1130   -0.4064   -1.4279 H   0  0  0  0  0  0  0  0  0  0  0  0
    6.2839   -0.8798    0.7017 H   0  0  0  0  0  0  0  0  0  0  0  0
    7.7912   -2.3903   -0.5673 H   0  0  0  0  0  0  0  0  0  0  0  0
    8.1281   -2.0464   -3.0044 H   0  0  0  0  0  0  0  0  0  0  0  0
    6.9532   -0.1839   -4.1686 H   0  0  0  0  0  0  0  0  0  0  0  0
    3.5457    0.8027    2.5994 H   0  0  0  0  0  0  0  0  0  0  0  0
    2.5728    1.8602    1.5642 H   0  0  0  0  0  0  0  0  0  0  0  0
    1.1496    0.4132    3.0027 H   0  0  0  0  0  0  0  0  0  0  0  0
    1.9435   -1.0170    2.3624 H   0  0  0  0  0  0  0  0  0  0  0  0
   -6.9150    0.5895    0.5154 H   0  0  0  0  0  0  0  0  0  0  0  0
   -7.6343   -0.3769   -1.6248 H   0  0  0  0  0  0  0  0  0  0  0  0
  1  2  1  0
  2  3  2  0
  3  4  1  0
  4  5  2  0
  5  6  1  0
  6  7  1  0
  7  8  1  0
  8  9  2  0
  9 10  1  0
 10 11  1  0
 11 12  2  0
 11 13  1  0
 13 14  1  0
 14 15  1  0
 15 16  1  0
 16 17  1  0
 17 18  1  0
 18 19  1  0
 19 20  2  0
 19 21  2  0
 19 22  1  0
 22 23  2  0
 23 24  1  0
 24 25  2  0
 25 26  1  0
 26 27  2  0
 27 28  1  0
 18 29  1  0
 29 30  1  0
 14 31  2  0
 31 32  1  0
  5 33  1  0
 33 34  2  0
 34  2  1  0
 32  7  1  0
 32 10  2  0
 30 15  1  0
 27 22  1  0
  1 35  1  0
  1 36  1  0
  1 37  1  0
  3 38  1  0
  4 39  1  0
  6 40  1  0
  6 41  1  0
 13 42  1  0
 15 43  1  0
 16 44  1  0
 16 45  1  0
 17 46  1  0
 17 47  1  0
 23 48  1  0
 24 49  1  0
 25 50  1  0
 26 51  1  0
 29 52  1  0
 29 53  1  0
 30 54  1  0
 30 55  1  0
 33 56  1  0
 34 57  1  0
M  END
$$$$
