
     RDKit          3D

 51 55  0  0  0  0  0  0  0  0999 V2000
    7.4412    1.8107   -1.6196 C   0  0  0  0  0  0  0  0  0  0  0  0
    6.4277    2.5851   -1.0580 C   0  0  0  0  0  0  0  0  0  0  0  0
    5.3732    1.9718   -0.3799 C   0  0  0  0  0  0  0  0  0  0  0  0
    5.3263    0.5768   -0.2545 C   0  0  0  0  0  0  0  0  0  0  0  0
    4.1744   -0.0898    0.4599 C   0  0  0  0  0  0  0  0  0  0  0  0
    3.0060   -0.3761   -0.4997 C   0  0  0  0  0  0  0  0  0  0  0  0
    1.8906   -1.0959    0.1409 N   0  0  0  0  0  0  0  0  0  0  0  0
    0.8769   -1.5218   -0.8491 C   0  0  0  0  0  0  0  0  0  0  0  0
   -0.3138   -0.5552   -1.0349 C   0  0  0  0  0  0  0  0  0  0  0  0
   -1.0072   -0.2825    0.2333 N   0  0  0  0  0  0  0  0  0  0  0  0
   -2.3968   -0.2394    0.3108 C   0  0  0  0  0  0  0  0  0  0  0  0
   -2.9683   -0.7516    1.3741 N   0  0  0  0  0  0  0  0  0  0  0  0
   -4.3693   -0.7799    1.5018 C   0  0  0  0  0  0  0  0  0  0  0  0
   -4.9190   -1.3552    2.6492 C   0  0  0  0  0  0  0  0  0  0  0  0
   -6.3041   -1.4208    2.8218 C   0  0  0  0  0  0  0  0  0  0  0  0
   -7.1560   -0.9092    1.8425 C   0  0  0  0  0  0  0  0  0  0  0  0
   -6.6284   -0.3296    0.6880 C   0  0  0  0  0  0  0  0  0  0  0  0
   -5.2402   -0.2720    0.5297 C   0  0  0  0  0  0  0  0  0  0  0  0
   -4.6244    0.3058   -0.5920 N   0  0  0  0  0  0  0  0  0  0  0  0
   -5.1991    0.9067   -1.6871 C   0  0  0  0  0  0  0  0  0  0  0  0
   -4.1914    1.3944   -2.4888 C   0  0  0  0  0  0  0  0  0  0  0  0
   -2.9656    1.0635   -1.8661 C   0  0  0  0  0  0  0  0  0  0  0  0
   -3.2509    0.3524   -0.7124 C   0  0  0  0  0  0  0  0  0  0  0  0
   -0.2304   -0.6025    1.4451 C   0  0  0  0  0  0  0  0  0  0  0  0
    1.2659   -0.2991    1.2236 C   0  0  0  0  0  0  0  0  0  0  0  0
    6.3477   -0.1931   -0.8270 C   0  0  0  0  0  0  0  0  0  0  0  0
    7.4011    0.4224   -1.5047 C   0  0  0  0  0  0  0  0  0  0  0  0
    8.2624    2.2891   -2.1466 H   0  0  0  0  0  0  0  0  0  0  0  0
    6.4587    3.6678   -1.1479 H   0  0  0  0  0  0  0  0  0  0  0  0
    4.5889    2.5896    0.0518 H   0  0  0  0  0  0  0  0  0  0  0  0
    4.5224   -1.0240    0.9192 H   0  0  0  0  0  0  0  0  0  0  0  0
    3.8555    0.5547    1.2882 H   0  0  0  0  0  0  0  0  0  0  0  0
    3.3956   -0.9927   -1.3209 H   0  0  0  0  0  0  0  0  0  0  0  0
    2.6510    0.5584   -0.9545 H   0  0  0  0  0  0  0  0  0  0  0  0
    1.3362   -1.7302   -1.8233 H   0  0  0  0  0  0  0  0  0  0  0  0
    0.4809   -2.4872   -0.5061 H   0  0  0  0  0  0  0  0  0  0  0  0
    0.0467    0.3909   -1.4541 H   0  0  0  0  0  0  0  0  0  0  0  0
   -0.9978   -1.0101   -1.7604 H   0  0  0  0  0  0  0  0  0  0  0  0
   -4.2573   -1.7567    3.4122 H   0  0  0  0  0  0  0  0  0  0  0  0
   -6.7156   -1.8722    3.7209 H   0  0  0  0  0  0  0  0  0  0  0  0
   -8.2332   -0.9618    1.9808 H   0  0  0  0  0  0  0  0  0  0  0  0
   -7.3107    0.0638   -0.0578 H   0  0  0  0  0  0  0  0  0  0  0  0
   -6.2708    0.9633   -1.8095 H   0  0  0  0  0  0  0  0  0  0  0  0
   -4.3266    1.9399   -3.4140 H   0  0  0  0  0  0  0  0  0  0  0  0
   -1.9815    1.3247   -2.2279 H   0  0  0  0  0  0  0  0  0  0  0  0
   -0.5839    0.0095    2.2837 H   0  0  0  0  0  0  0  0  0  0  0  0
   -0.3680   -1.6568    1.7160 H   0  0  0  0  0  0  0  0  0  0  0  0
    1.8080   -0.4906    2.1565 H   0  0  0  0  0  0  0  0  0  0  0  0
    1.3540    0.7745    1.0074 H   0  0  0  0  0  0  0  0  0  0  0  0
    6.3283   -1.2779   -0.7473 H   0  0  0  0  0  0  0  0  0  0  0  0
    8.1909   -0.1820   -1.9430 H   0  0  0  0  0  0  0  0  0  0  0  0
  1  2  2  0
  2  3  1  0
  3  4  2  0
  4  5  1  0
  5  6  1  0
  6  7  1  0
  7  8  1  0
  8  9  1  0
  9 10  1  0
 10 11  1  0
 11 12  2  0
 12 13  1  0
 13 14  2  0
 14 15  1  0
 15 16  2  0
 16 17  1  0
 17 18  2  0
 18 19  1  0
 19 20  1  0
 20 21  2  0
 21 22  1  0
 22 23  2  0
 10 24  1  0
 24 25  1  0
  4 26  1  0
 26 27  2  0
 27  1  1  0
 25  7  1  0
 23 11  1  0
 18 13  1  0
 23 19  1  0
  1 28  1  0
  2 29  1  0
  3 30  1  0
  5 31  1  0
  5 32  1  0
  6 33  1  0
  6 34  1  0
  8 35  1  0
  8 36  1  0
  9 37  1  0
  9 38  1  0
 14 39  1  0
 15 40  1  0
 16 41  1  0
 17 42  1  0
 20 43  1  0
 21 44  1  0
 22 45  1  0
 24 46  1  0
 24 47  1  0
 25 48  1  0
 25 49  1  0
 26 50  1  0
 27 51  1  0
M  END
$$$$
