
     RDKit          3D

 65 68  0  0  0  0  0  0  0  0999 V2000
    6.8399    2.8080    5.5803 C   0  0  0  0  0  0  0  0  0  0  0  0
    6.5317    1.8467    4.5061 C   0  0  0  0  0  0  0  0  0  0  0  0
    5.3870    1.4847    3.8397 C   0  0  0  0  0  0  0  0  0  0  0  0
    5.8087    0.4980    2.9191 C   0  0  0  0  0  0  0  0  0  0  0  0
    5.0720   -0.2217    2.0035 N   0  0  0  0  0  0  0  0  0  0  0  0
    3.7214   -0.0805    1.7811 C   0  0  0  0  0  0  0  0  0  0  0  0
    2.9785    0.7177    2.3455 O   0  0  0  0  0  0  0  0  0  0  0  0
    3.2213   -1.0479    0.7269 C   0  0  0  0  0  0  0  0  0  0  0  0
    1.7263   -0.8786    0.4771 C   0  0  0  0  0  0  0  0  0  0  0  0
    1.2033   -1.9101   -0.5068 C   0  0  0  0  0  0  0  0  0  0  0  0
    1.9615   -2.7725   -0.9546 O   0  0  0  0  0  0  0  0  0  0  0  0
   -0.1497   -1.8480   -0.8412 N   0  0  0  0  0  0  0  0  0  0  0  0
   -0.6362   -2.8235   -1.8218 C   0  0  0  0  0  0  0  0  0  0  0  0
   -1.3742   -3.9524   -1.1499 C   0  0  0  0  0  0  0  0  0  0  0  0
   -2.6699   -4.3798   -1.3866 C   0  0  0  0  0  0  0  0  0  0  0  0
   -3.0483   -5.4758   -0.5595 C   0  0  0  0  0  0  0  0  0  0  0  0
   -2.0256   -5.8634    0.2755 C   0  0  0  0  0  0  0  0  0  0  0  0
   -0.6149   -4.9262    0.0465 S   0  0  0  0  0  0  0  0  0  0  0  0
   -1.0036   -0.6847   -0.5101 C   0  0  0  0  0  0  0  0  0  0  0  0
   -0.8427    0.4412   -1.5760 C   0  0  0  0  0  0  0  0  0  0  0  0
   -0.3627    0.2556   -2.6931 O   0  0  0  0  0  0  0  0  0  0  0  0
   -1.2925    1.6839   -1.1526 N   0  0  0  0  0  0  0  0  0  0  0  0
   -1.3176    2.8186   -2.0488 C   0  0  0  0  0  0  0  0  0  0  0  0
   -2.5197    2.8039   -2.9901 C   0  0  0  0  0  0  0  0  0  0  0  0
   -2.7135    4.2623   -3.4037 C   0  0  0  0  0  0  0  0  0  0  0  0
   -1.9175    5.1040   -2.4050 C   0  0  0  0  0  0  0  0  0  0  0  0
   -1.4900    4.1390   -1.3095 C   0  0  0  0  0  0  0  0  0  0  0  0
   -2.4614   -1.0275   -0.2164 C   0  0  0  0  0  0  0  0  0  0  0  0
   -3.4847   -0.8570   -1.1644 C   0  0  0  0  0  0  0  0  0  0  0  0
   -4.8093   -1.1704   -0.8479 C   0  0  0  0  0  0  0  0  0  0  0  0
   -5.1277   -1.6734    0.4126 C   0  0  0  0  0  0  0  0  0  0  0  0
   -4.1236   -1.8628    1.3587 C   0  0  0  0  0  0  0  0  0  0  0  0
   -2.8001   -1.5431    1.0479 C   0  0  0  0  0  0  0  0  0  0  0  0
    7.1255    0.2822    3.0182 N   0  0  0  0  0  0  0  0  0  0  0  0
    7.5789    1.1348    4.0083 O   0  0  0  0  0  0  0  0  0  0  0  0
    5.9238    3.1693    6.0609 H   0  0  0  0  0  0  0  0  0  0  0  0
    7.4648    2.3424    6.3503 H   0  0  0  0  0  0  0  0  0  0  0  0
    7.3793    3.6710    5.1766 H   0  0  0  0  0  0  0  0  0  0  0  0
    4.3920    1.8726    4.0036 H   0  0  0  0  0  0  0  0  0  0  0  0
    5.6186   -0.8842    1.4643 H   0  0  0  0  0  0  0  0  0  0  0  0
    3.4395   -2.0677    1.0678 H   0  0  0  0  0  0  0  0  0  0  0  0
    3.7772   -0.8721   -0.2016 H   0  0  0  0  0  0  0  0  0  0  0  0
    1.5444    0.1259    0.0813 H   0  0  0  0  0  0  0  0  0  0  0  0
    1.1807   -0.9975    1.4195 H   0  0  0  0  0  0  0  0  0  0  0  0
   -1.2803   -2.3141   -2.5467 H   0  0  0  0  0  0  0  0  0  0  0  0
    0.1941   -3.2416   -2.4025 H   0  0  0  0  0  0  0  0  0  0  0  0
   -3.3293   -3.9095   -2.1070 H   0  0  0  0  0  0  0  0  0  0  0  0
   -4.0251   -5.9502   -0.5721 H   0  0  0  0  0  0  0  0  0  0  0  0
   -2.0334   -6.6579    1.0072 H   0  0  0  0  0  0  0  0  0  0  0  0
   -0.6225   -0.2341    0.4136 H   0  0  0  0  0  0  0  0  0  0  0  0
   -1.9001    1.7123   -0.3398 H   0  0  0  0  0  0  0  0  0  0  0  0
   -0.3893    2.8319   -2.6304 H   0  0  0  0  0  0  0  0  0  0  0  0
   -3.4162    2.4458   -2.4670 H   0  0  0  0  0  0  0  0  0  0  0  0
   -2.3673    2.1459   -3.8511 H   0  0  0  0  0  0  0  0  0  0  0  0
   -2.3435    4.4350   -4.4215 H   0  0  0  0  0  0  0  0  0  0  0  0
   -3.7755    4.5298   -3.3933 H   0  0  0  0  0  0  0  0  0  0  0  0
   -1.0351    5.5267   -2.9003 H   0  0  0  0  0  0  0  0  0  0  0  0
   -2.5028    5.9376   -2.0062 H   0  0  0  0  0  0  0  0  0  0  0  0
   -0.5737    4.4592   -0.8048 H   0  0  0  0  0  0  0  0  0  0  0  0
   -2.2792    4.0666   -0.5505 H   0  0  0  0  0  0  0  0  0  0  0  0
   -3.2667   -0.4866   -2.1654 H   0  0  0  0  0  0  0  0  0  0  0  0
   -5.5918   -1.0295   -1.5906 H   0  0  0  0  0  0  0  0  0  0  0  0
   -6.1569   -1.9240    0.6579 H   0  0  0  0  0  0  0  0  0  0  0  0
   -4.3675   -2.2683    2.3384 H   0  0  0  0  0  0  0  0  0  0  0  0
   -2.0288   -1.7162    1.7981 H   0  0  0  0  0  0  0  0  0  0  0  0
  1  2  1  0
  2  3  2  0
  3  4  1  0
  4  5  1  0
  5  6  1  0
  6  7  2  0
  6  8  1  0
  8  9  1  0
  9 10  1  0
 10 11  2  0
 10 12  1  0
 12 13  1  0
 13 14  1  0
 14 15  2  0
 15 16  1  0
 16 17  2  0
 17 18  1  0
 12 19  1  0
 19 20  1  0
 20 21  2  0
 20 22  1  0
 22 23  1  0
 23 24  1  0
 24 25  1  0
 25 26  1  0
 26 27  1  0
 19 28  1  0
 28 29  2  0
 29 30  1  0
 30 31  2  0
 31 32  1  0
 32 33  2  0
  4 34  2  0
 34 35  1  0
 35  2  1  0
 18 14  1  0
 27 23  1  0
 33 28  1  0
  1 36  1  0
  1 37  1  0
  1 38  1  0
  3 39  1  0
  5 40  1  0
  8 41  1  0
  8 42  1  0
  9 43  1  0
  9 44  1  0
 13 45  1  0
 13 46  1  0
 15 47  1  0
 16 48  1  0
 17 49  1  0
 19 50  1  0
 22 51  1  0
 23 52  1  0
 24 53  1  0
 24 54  1  0
 25 55  1  0
 25 56  1  0
 26 57  1  0
 26 58  1  0
 27 59  1  0
 27 60  1  0
 29 61  1  0
 30 62  1  0
 31 63  1  0
 32 64  1  0
 33 65  1  0
M  END
$$$$
