
     RDKit          3D

 41 43  0  0  0  0  0  0  0  0999 V2000
    7.8112    0.3691    2.5910 C   0  0  0  0  0  0  0  0  0  0  0  0
    6.5607    0.3090    2.1082 C   0  0  0  0  0  0  0  0  0  0  0  0
    5.5005    1.1048    2.7145 C   0  0  0  0  0  0  0  0  0  0  0  0
    4.2455    1.0471    2.2331 C   0  0  0  0  0  0  0  0  0  0  0  0
    3.9033    0.1815    1.0823 C   0  0  0  0  0  0  0  0  0  0  0  0
    2.6373    0.1245    0.5976 C   0  0  0  0  0  0  0  0  0  0  0  0
    1.5760    0.8311    1.0963 N   0  0  0  0  0  0  0  0  0  0  0  0
    0.3482    0.6746    0.5077 C   0  0  0  0  0  0  0  0  0  0  0  0
   -0.6567    1.2568    0.8779 O   0  0  0  0  0  0  0  0  0  0  0  0
    0.4716   -0.2934   -0.6157 C   0  0  0  0  0  0  0  0  0  0  0  0
   -0.4939   -0.7331   -1.4365 C   0  0  0  0  0  0  0  0  0  0  0  0
   -1.9070   -0.3423   -1.4239 C   0  0  0  0  0  0  0  0  0  0  0  0
   -2.3008    0.9671   -1.7052 C   0  0  0  0  0  0  0  0  0  0  0  0
   -3.6557    1.3091   -1.7284 C   0  0  0  0  0  0  0  0  0  0  0  0
   -4.6345    0.3422   -1.4788 C   0  0  0  0  0  0  0  0  0  0  0  0
   -5.9858    0.5865   -1.4864 O   0  0  0  0  0  0  0  0  0  0  0  0
   -6.4076    1.9336   -1.6415 C   0  0  0  0  0  0  0  0  0  0  0  0
   -4.2451   -0.9844   -1.2051 C   0  0  0  0  0  0  0  0  0  0  0  0
   -5.2646   -1.8780   -0.9822 O   0  0  0  0  0  0  0  0  0  0  0  0
   -4.9118   -3.1896   -0.5682 C   0  0  0  0  0  0  0  0  0  0  0  0
   -2.8843   -1.3171   -1.1853 C   0  0  0  0  0  0  0  0  0  0  0  0
    2.1131   -0.8568   -0.7509 S   0  0  0  0  0  0  0  0  0  0  0  0
    5.0002   -0.6146    0.4879 C   0  0  0  0  0  0  0  0  0  0  0  0
    6.2529   -0.5526    0.9737 C   0  0  0  0  0  0  0  0  0  0  0  0
    8.0697    1.0016    3.4345 H   0  0  0  0  0  0  0  0  0  0  0  0
    8.6197   -0.2124    2.1590 H   0  0  0  0  0  0  0  0  0  0  0  0
    5.7358    1.7444    3.5595 H   0  0  0  0  0  0  0  0  0  0  0  0
    3.4871    1.6535    2.7118 H   0  0  0  0  0  0  0  0  0  0  0  0
    1.6393    1.4617    1.8791 H   0  0  0  0  0  0  0  0  0  0  0  0
   -0.2532   -1.4707   -2.2002 H   0  0  0  0  0  0  0  0  0  0  0  0
   -1.5589    1.7380   -1.9005 H   0  0  0  0  0  0  0  0  0  0  0  0
   -3.9114    2.3405   -1.9449 H   0  0  0  0  0  0  0  0  0  0  0  0
   -6.1360    2.3196   -2.6294 H   0  0  0  0  0  0  0  0  0  0  0  0
   -7.4992    1.9527   -1.5672 H   0  0  0  0  0  0  0  0  0  0  0  0
   -6.0095    2.5693   -0.8437 H   0  0  0  0  0  0  0  0  0  0  0  0
   -5.8377   -3.7384   -0.3708 H   0  0  0  0  0  0  0  0  0  0  0  0
   -4.3744   -3.7205   -1.3606 H   0  0  0  0  0  0  0  0  0  0  0  0
   -4.3323   -3.1713    0.3608 H   0  0  0  0  0  0  0  0  0  0  0  0
   -2.5613   -2.3332   -0.9847 H   0  0  0  0  0  0  0  0  0  0  0  0
    4.8051   -1.2659   -0.3573 H   0  0  0  0  0  0  0  0  0  0  0  0
    7.0445   -1.1439    0.5246 H   0  0  0  0  0  0  0  0  0  0  0  0
  1  2  2  0
  2  3  1  0
  3  4  2  0
  4  5  1  0
  5  6  2  3
  6  7  1  0
  7  8  1  0
  8  9  2  0
  8 10  1  0
 10 11  2  3
 11 12  1  0
 12 13  2  0
 13 14  1  0
 14 15  2  0
 15 16  1  0
 16 17  1  0
 15 18  1  0
 18 19  1  0
 19 20  1  0
 18 21  2  0
 10 22  1  0
  5 23  1  0
 23 24  2  0
 24  2  1  0
 22  6  1  0
 21 12  1  0
  1 25  1  0
  1 26  1  0
  3 27  1  0
  4 28  1  0
  7 29  1  0
 11 30  1  0
 13 31  1  0
 14 32  1  0
 17 33  1  0
 17 34  1  0
 17 35  1  0
 20 36  1  0
 20 37  1  0
 20 38  1  0
 21 39  1  0
 23 40  1  0
 24 41  1  0
M  END
$$$$
