
     RDKit          3D

 52 56  0  0  0  0  0  0  0  0999 V2000
    3.1167    1.3720   -0.8895 C   0  0  0  0  0  0  0  0  0  0  0  0
    2.7449   -0.0723   -0.6120 C   0  0  0  0  0  0  0  0  0  0  0  0
    1.5983   -0.6121   -0.9197 N   0  0  0  0  0  0  0  0  0  0  0  0
    0.5937    0.1913   -1.3955 N   0  0  0  0  0  0  0  0  0  0  0  0
   -0.0414    1.1098   -0.5567 C   0  0  0  0  0  0  0  0  0  0  0  0
    0.4248    1.5452    0.4931 O   0  0  0  0  0  0  0  0  0  0  0  0
   -1.3513    1.5200   -1.0588 C   0  0  0  0  0  0  0  0  0  0  0  0
   -1.7595    1.2431   -2.3349 N   0  0  0  0  0  0  0  0  0  0  0  0
   -2.9718    1.7389   -2.4987 N   0  0  0  0  0  0  0  0  0  0  0  0
   -3.3625    2.3655   -1.3488 N   0  0  0  0  0  0  0  0  0  0  0  0
   -4.5889    3.0746   -1.2837 C   0  0  0  0  0  0  0  0  0  0  0  0
   -4.9094    3.8088   -0.2183 N   0  0  0  0  0  0  0  0  0  0  0  0
   -6.1488    4.3576   -0.5429 O   0  0  0  0  0  0  0  0  0  0  0  0
   -6.5558    3.9681   -1.8144 N   0  0  0  0  0  0  0  0  0  0  0  0
   -5.5915    3.1687   -2.2681 C   0  0  0  0  0  0  0  0  0  0  0  0
   -5.6089    2.5675   -3.4733 N   0  0  0  0  0  0  0  0  0  0  0  0
   -2.3701    2.1830   -0.3870 C   0  0  0  0  0  0  0  0  0  0  0  0
   -2.4703    2.5867    1.0421 C   0  0  0  0  0  0  0  0  0  0  0  0
   -3.6038    1.4973    1.9849 S   0  0  0  0  0  0  0  0  0  0  0  0
   -2.8323   -0.0921    1.7408 C   0  0  0  0  0  0  0  0  0  0  0  0
   -1.5403   -0.3565    2.2020 C   0  0  0  0  0  0  0  0  0  0  0  0
   -0.9444   -1.5953    1.9564 C   0  0  0  0  0  0  0  0  0  0  0  0
   -1.6451   -2.5832    1.2674 C   0  0  0  0  0  0  0  0  0  0  0  0
   -2.9445   -2.3360    0.8288 C   0  0  0  0  0  0  0  0  0  0  0  0
   -3.5380   -1.0947    1.0678 C   0  0  0  0  0  0  0  0  0  0  0  0
    3.7818   -0.9420    0.0312 C   0  0  0  0  0  0  0  0  0  0  0  0
    4.8140   -0.3856    0.8189 C   0  0  0  0  0  0  0  0  0  0  0  0
    5.7728   -1.2069    1.4238 C   0  0  0  0  0  0  0  0  0  0  0  0
    5.6685   -2.5666    1.2288 C   0  0  0  0  0  0  0  0  0  0  0  0
    4.6603   -3.1139    0.4714 C   0  0  0  0  0  0  0  0  0  0  0  0
    3.7009   -2.3331   -0.1373 C   0  0  0  0  0  0  0  0  0  0  0  0
    4.7369   -4.4704    0.4100 O   0  0  0  0  0  0  0  0  0  0  0  0
    5.9066   -4.7144    1.2187 C   0  0  0  0  0  0  0  0  0  0  0  0
    6.5050   -3.5088    1.7390 O   0  0  0  0  0  0  0  0  0  0  0  0
    2.9319    1.9809   -0.0010 H   0  0  0  0  0  0  0  0  0  0  0  0
    4.1737    1.4497   -1.1615 H   0  0  0  0  0  0  0  0  0  0  0  0
    2.5461    1.7736   -1.7309 H   0  0  0  0  0  0  0  0  0  0  0  0
   -0.0448   -0.2908   -2.0260 H   0  0  0  0  0  0  0  0  0  0  0  0
   -6.2785    2.8823   -4.1678 H   0  0  0  0  0  0  0  0  0  0  0  0
   -4.7665    2.1456   -3.8613 H   0  0  0  0  0  0  0  0  0  0  0  0
   -2.8142    3.6205    1.1378 H   0  0  0  0  0  0  0  0  0  0  0  0
   -1.4965    2.5684    1.5371 H   0  0  0  0  0  0  0  0  0  0  0  0
   -0.9739    0.4011    2.7387 H   0  0  0  0  0  0  0  0  0  0  0  0
    0.0715   -1.7836    2.2956 H   0  0  0  0  0  0  0  0  0  0  0  0
   -1.1777   -3.5457    1.0758 H   0  0  0  0  0  0  0  0  0  0  0  0
   -3.4958   -3.1085    0.2991 H   0  0  0  0  0  0  0  0  0  0  0  0
   -4.5517   -0.9159    0.7170 H   0  0  0  0  0  0  0  0  0  0  0  0
    4.8737    0.6866    0.9871 H   0  0  0  0  0  0  0  0  0  0  0  0
    6.5677   -0.7902    2.0326 H   0  0  0  0  0  0  0  0  0  0  0  0
    2.9144   -2.7912   -0.7274 H   0  0  0  0  0  0  0  0  0  0  0  0
    5.6234   -5.3569    2.0604 H   0  0  0  0  0  0  0  0  0  0  0  0
    6.6507   -5.2403    0.6093 H   0  0  0  0  0  0  0  0  0  0  0  0
  1  2  1  0
  2  3  2  3
  3  4  1  0
  4  5  1  0
  5  6  2  0
  5  7  1  0
  7  8  1  0
  8  9  2  0
  9 10  1  0
 10 11  1  0
 11 12  2  0
 12 13  1  0
 13 14  1  0
 14 15  2  0
 15 16  1  0
 10 17  1  0
 17 18  1  0
 18 19  1  0
 19 20  1  0
 20 21  2  0
 21 22  1  0
 22 23  2  0
 23 24  1  0
 24 25  2  0
  2 26  1  0
 26 27  2  0
 27 28  1  0
 28 29  2  0
 29 30  1  0
 30 31  2  0
 30 32  1  0
 32 33  1  0
 33 34  1  0
 17  7  2  0
 25 20  1  0
 31 26  1  0
 15 11  1  0
 34 29  1  0
  1 35  1  0
  1 36  1  0
  1 37  1  0
  4 38  1  0
 16 39  1  0
 16 40  1  0
 18 41  1  0
 18 42  1  0
 21 43  1  0
 22 44  1  0
 23 45  1  0
 24 46  1  0
 25 47  1  0
 27 48  1  0
 28 49  1  0
 31 50  1  0
 33 51  1  0
 33 52  1  0
M  END
$$$$
