
     RDKit          3D

 37 37  0  0  0  0  0  0  0  0999 V2000
   -3.3013   -0.9777   -2.9762 C   0  0  0  0  0  0  0  0  0  0  0  0
   -2.8350   -1.2908   -1.6633 O   0  0  0  0  0  0  0  0  0  0  0  0
   -1.8508   -0.4634   -1.2136 C   0  0  0  0  0  0  0  0  0  0  0  0
   -1.4210    0.5159   -1.8141 O   0  0  0  0  0  0  0  0  0  0  0  0
   -1.4023   -0.8725    0.1932 C   0  0  0  0  0  0  0  0  0  0  0  0
   -2.3791   -0.3489    1.2551 C   0  0  0  0  0  0  0  0  0  0  0  0
   -2.5337    1.1730    1.2594 C   0  0  0  0  0  0  0  0  0  0  0  0
   -3.6241    1.7410    2.6081 S   0  0  0  0  0  0  0  0  0  0  0  0
   -5.2293    1.2442    1.9343 C   0  0  0  0  0  0  0  0  0  0  0  0
   -0.0355   -0.3985    0.4267 N   0  0  0  0  0  0  0  0  0  0  0  0
    1.0173   -1.1695    0.0005 C   0  0  0  0  0  0  0  0  0  0  0  0
    0.9054   -2.2897   -0.4748 O   0  0  0  0  0  0  0  0  0  0  0  0
    2.2050   -0.5137    0.1730 N   0  0  0  0  0  0  0  0  0  0  0  0
    3.4387   -1.2079   -0.1140 C   0  0  0  0  0  0  0  0  0  0  0  0
    4.5607   -0.2270   -0.0139 C   0  0  0  0  0  0  0  0  0  0  0  0
    5.0241    0.6428   -0.9824 C   0  0  0  0  0  0  0  0  0  0  0  0
    6.1153    1.4353   -0.5232 C   0  0  0  0  0  0  0  0  0  0  0  0
    6.4485    1.1460    0.7808 C   0  0  0  0  0  0  0  0  0  0  0  0
    5.4487   -0.0719    1.4442 S   0  0  0  0  0  0  0  0  0  0  0  0
   -3.7683    0.0121   -2.9888 H   0  0  0  0  0  0  0  0  0  0  0  0
   -2.4810   -1.0297   -3.6990 H   0  0  0  0  0  0  0  0  0  0  0  0
   -4.0548   -1.7199   -3.2541 H   0  0  0  0  0  0  0  0  0  0  0  0
   -1.3904   -1.9686    0.2354 H   0  0  0  0  0  0  0  0  0  0  0  0
   -3.3556   -0.8172    1.0832 H   0  0  0  0  0  0  0  0  0  0  0  0
   -2.0310   -0.6841    2.2410 H   0  0  0  0  0  0  0  0  0  0  0  0
   -2.9296    1.5450    0.3096 H   0  0  0  0  0  0  0  0  0  0  0  0
   -1.5627    1.6518    1.4192 H   0  0  0  0  0  0  0  0  0  0  0  0
   -6.0209    1.6190    2.5887 H   0  0  0  0  0  0  0  0  0  0  0  0
   -5.3752    1.6693    0.9379 H   0  0  0  0  0  0  0  0  0  0  0  0
   -5.3113    0.1558    1.8888 H   0  0  0  0  0  0  0  0  0  0  0  0
    0.1187    0.5806    0.2169 H   0  0  0  0  0  0  0  0  0  0  0  0
    2.2251    0.1123    0.9651 H   0  0  0  0  0  0  0  0  0  0  0  0
    3.5456   -2.0369    0.5947 H   0  0  0  0  0  0  0  0  0  0  0  0
    3.3836   -1.6353   -1.1219 H   0  0  0  0  0  0  0  0  0  0  0  0
    4.5954    0.7077   -1.9758 H   0  0  0  0  0  0  0  0  0  0  0  0
    6.6290    2.1796   -1.1192 H   0  0  0  0  0  0  0  0  0  0  0  0
    7.2318    1.5916    1.3786 H   0  0  0  0  0  0  0  0  0  0  0  0
  1  2  1  0
  2  3  1  0
  3  4  2  0
  3  5  1  0
  5  6  1  0
  6  7  1  0
  7  8  1  0
  8  9  1  0
  5 10  1  0
 10 11  1  0
 11 12  2  0
 11 13  1  0
 13 14  1  0
 14 15  1  0
 15 16  2  0
 16 17  1  0
 17 18  2  0
 18 19  1  0
 19 15  1  0
  1 20  1  0
  1 21  1  0
  1 22  1  0
  5 23  1  0
  6 24  1  0
  6 25  1  0
  7 26  1  0
  7 27  1  0
  9 28  1  0
  9 29  1  0
  9 30  1  0
 10 31  1  0
 13 32  1  0
 14 33  1  0
 14 34  1  0
 16 35  1  0
 17 36  1  0
 18 37  1  0
M  END
$$$$
