
     RDKit          3D

 55 58  0  0  0  0  0  0  0  0999 V2000
    4.9488    3.3394    0.9319 C   0  0  0  0  0  0  0  0  0  0  0  0
    5.4522    2.4495   -0.1888 C   0  0  0  0  0  0  0  0  0  0  0  0
    5.4017    1.0715    0.2137 O   0  0  0  0  0  0  0  0  0  0  0  0
    4.2222    0.4351    0.0083 C   0  0  0  0  0  0  0  0  0  0  0  0
    3.2182    0.9390   -0.4764 O   0  0  0  0  0  0  0  0  0  0  0  0
    4.2849   -0.9893    0.4591 C   0  0  0  0  0  0  0  0  0  0  0  0
    5.4912   -1.5137    0.9613 C   0  0  0  0  0  0  0  0  0  0  0  0
    5.5685   -2.8403    1.3811 C   0  0  0  0  0  0  0  0  0  0  0  0
    4.4452   -3.6540    1.3028 C   0  0  0  0  0  0  0  0  0  0  0  0
    3.2406   -3.1473    0.8062 C   0  0  0  0  0  0  0  0  0  0  0  0
    3.1366   -1.8167    0.3800 C   0  0  0  0  0  0  0  0  0  0  0  0
    1.9232   -1.2865   -0.1293 N   0  0  0  0  0  0  0  0  0  0  0  0
    0.7008   -1.9082   -0.2616 C   0  0  0  0  0  0  0  0  0  0  0  0
    0.4035   -3.0448    0.0839 O   0  0  0  0  0  0  0  0  0  0  0  0
   -0.3381   -1.0083   -0.8467 C   0  0  0  0  0  0  0  0  0  0  0  0
   -1.4357   -0.8435   -0.0932 C   0  0  0  0  0  0  0  0  0  0  0  0
   -2.5020   -0.0101   -0.4329 N   0  0  0  0  0  0  0  0  0  0  0  0
   -3.6492    0.1135    0.4459 C   0  0  0  0  0  0  0  0  0  0  0  0
   -4.9277    0.4190   -0.0451 C   0  0  0  0  0  0  0  0  0  0  0  0
   -6.0414    0.5187    0.8040 C   0  0  0  0  0  0  0  0  0  0  0  0
   -5.9022    0.3122    2.1720 C   0  0  0  0  0  0  0  0  0  0  0  0
   -6.8983    0.3771    3.1052 O   0  0  0  0  0  0  0  0  0  0  0  0
   -8.1964    0.7173    2.6338 C   0  0  0  0  0  0  0  0  0  0  0  0
   -4.6417    0.0057    2.6788 C   0  0  0  0  0  0  0  0  0  0  0  0
   -3.5310   -0.0939    1.8302 C   0  0  0  0  0  0  0  0  0  0  0  0
   -2.4491    0.7481   -1.6307 C   0  0  0  0  0  0  0  0  0  0  0  0
   -3.2755    1.5854   -1.9921 O   0  0  0  0  0  0  0  0  0  0  0  0
   -1.2685    0.5413   -2.5197 C   0  0  0  0  0  0  0  0  0  0  0  0
   -1.2099    1.2168   -3.7499 C   0  0  0  0  0  0  0  0  0  0  0  0
   -0.1331    1.0179   -4.6114 C   0  0  0  0  0  0  0  0  0  0  0  0
    0.8829    0.1382   -4.2525 C   0  0  0  0  0  0  0  0  0  0  0  0
    0.8290   -0.5347   -3.0287 C   0  0  0  0  0  0  0  0  0  0  0  0
   -0.2380   -0.3268   -2.1392 C   0  0  0  0  0  0  0  0  0  0  0  0
    5.5205    3.1630    1.8492 H   0  0  0  0  0  0  0  0  0  0  0  0
    3.9007    3.1245    1.1642 H   0  0  0  0  0  0  0  0  0  0  0  0
    5.0363    4.3945    0.6586 H   0  0  0  0  0  0  0  0  0  0  0  0
    4.8900    2.6138   -1.1155 H   0  0  0  0  0  0  0  0  0  0  0  0
    6.5005    2.6823   -0.4024 H   0  0  0  0  0  0  0  0  0  0  0  0
    6.3858   -0.8990    1.0311 H   0  0  0  0  0  0  0  0  0  0  0  0
    6.5039   -3.2380    1.7676 H   0  0  0  0  0  0  0  0  0  0  0  0
    4.4987   -4.6909    1.6278 H   0  0  0  0  0  0  0  0  0  0  0  0
    2.3960   -3.8289    0.7648 H   0  0  0  0  0  0  0  0  0  0  0  0
    1.9688   -0.3032   -0.4109 H   0  0  0  0  0  0  0  0  0  0  0  0
   -1.5271   -1.4050    0.8327 H   0  0  0  0  0  0  0  0  0  0  0  0
   -5.1035    0.5551   -1.1091 H   0  0  0  0  0  0  0  0  0  0  0  0
   -7.0001    0.7528    0.3528 H   0  0  0  0  0  0  0  0  0  0  0  0
   -8.8701    0.7375    3.4957 H   0  0  0  0  0  0  0  0  0  0  0  0
   -8.2032    1.7147    2.1823 H   0  0  0  0  0  0  0  0  0  0  0  0
   -8.5729   -0.0369    1.9349 H   0  0  0  0  0  0  0  0  0  0  0  0
   -4.5159   -0.1500    3.7477 H   0  0  0  0  0  0  0  0  0  0  0  0
   -2.5713   -0.2945    2.2965 H   0  0  0  0  0  0  0  0  0  0  0  0
   -2.0085    1.8966   -4.0415 H   0  0  0  0  0  0  0  0  0  0  0  0
   -0.0934    1.5421   -5.5630 H   0  0  0  0  0  0  0  0  0  0  0  0
    1.7193   -0.0296   -4.9273 H   0  0  0  0  0  0  0  0  0  0  0  0
    1.6338   -1.2284   -2.7947 H   0  0  0  0  0  0  0  0  0  0  0  0
  1  2  1  0
  2  3  1  0
  3  4  1  0
  4  5  2  0
  4  6  1  0
  6  7  2  0
  7  8  1  0
  8  9  2  0
  9 10  1  0
 10 11  2  0
 11 12  1  0
 12 13  1  0
 13 14  2  0
 13 15  1  0
 15 16  2  0
 16 17  1  0
 17 18  1  0
 18 19  2  0
 19 20  1  0
 20 21  2  0
 21 22  1  0
 22 23  1  0
 21 24  1  0
 24 25  2  0
 17 26  1  0
 26 27  2  0
 26 28  1  0
 28 29  2  0
 29 30  1  0
 30 31  2  0
 31 32  1  0
 32 33  2  0
 11  6  1  0
 33 15  1  0
 25 18  1  0
 33 28  1  0
  1 34  1  0
  1 35  1  0
  1 36  1  0
  2 37  1  0
  2 38  1  0
  7 39  1  0
  8 40  1  0
  9 41  1  0
 10 42  1  0
 12 43  1  0
 16 44  1  0
 19 45  1  0
 20 46  1  0
 23 47  1  0
 23 48  1  0
 23 49  1  0
 24 50  1  0
 25 51  1  0
 29 52  1  0
 30 53  1  0
 31 54  1  0
 32 55  1  0
M  END
$$$$
