
     RDKit          3D

 53 58  0  0  0  0  0  0  0  0999 V2000
   -0.8837    1.6603    0.1570 O   0  0  0  0  0  0  0  0  0  0  0  0
   -1.4010    0.6027    0.5354 C   0  0  0  0  0  0  0  0  0  0  0  0
   -0.4818   -0.4476    1.1979 C   0  0  0  0  0  0  0  0  0  0  0  0
    0.8976   -0.3268    0.6807 N   0  0  0  0  0  4  0  0  0  0  0  0
    2.0452    0.0065    1.4005 C   0  0  0  0  0  0  0  0  0  0  0  0
    3.1152    0.1138    0.5177 C   0  0  0  0  0  0  0  0  0  0  0  0
    4.5918    0.5119    0.8868 C   0  0  0  0  0  0  0  0  0  0  0  0
    5.5647    0.6439   -0.1079 C   0  0  0  0  0  0  0  0  0  0  0  0
    6.8731    1.0098    0.2311 C   0  0  0  0  0  0  0  0  0  0  0  0
    7.2091    1.2470    1.5621 C   0  0  0  0  0  0  0  0  0  0  0  0
    8.8145    1.7058    1.9753 Cl  0  0  0  0  0  0  0  0  0  0  0  0
    6.2464    1.1195    2.5599 C   0  0  0  0  0  0  0  0  0  0  0  0
    4.9383    0.7527    2.2245 C   0  0  0  0  0  0  0  0  0  0  0  0
    2.5503   -0.1933   -0.7080 N   0  0  0  0  0  0  0  0  0  0  0  0
    1.2415   -0.4034   -0.6008 C   0  0  0  0  0  0  0  0  0  0  0  0
    0.5810   -0.6754   -1.9003 C   0  0  0  0  0  0  0  0  0  0  0  0
    1.7892   -0.9429   -2.8180 C   0  0  0  0  0  0  0  0  0  0  0  0
    2.9952   -0.2819   -2.0917 C   0  0  0  0  0  0  0  0  0  0  0  0
   -2.7212    0.2028    0.2587 N   0  0  0  0  0  0  0  0  0  0  0  0
   -3.3818   -0.8605    0.9658 C   0  0  0  0  0  0  0  0  0  0  0  0
   -3.2110   -0.9812    2.3584 C   0  0  0  0  0  0  0  0  0  0  0  0
   -3.8276   -2.0094    3.0768 C   0  0  0  0  0  0  0  0  0  0  0  0
   -4.6412   -2.9253    2.4183 C   0  0  0  0  0  0  0  0  0  0  0  0
   -4.8560   -2.7975    1.0476 C   0  0  0  0  0  0  0  0  0  0  0  0
   -4.2482   -1.7619    0.3240 C   0  0  0  0  0  0  0  0  0  0  0  0
   -4.5740   -1.6540   -1.4168 S   0  0  0  0  0  0  0  0  0  0  0  0
   -4.3743    0.1043   -1.6028 C   0  0  0  0  0  0  0  0  0  0  0  0
   -5.0906    0.7328   -2.6340 C   0  0  0  0  0  0  0  0  0  0  0  0
   -4.9327    2.0971   -2.8732 C   0  0  0  0  0  0  0  0  0  0  0  0
   -4.0665    2.8368   -2.0786 C   0  0  0  0  0  0  0  0  0  0  0  0
   -3.3481    2.2127   -1.0525 C   0  0  0  0  0  0  0  0  0  0  0  0
   -3.4794    0.8366   -0.7959 C   0  0  0  0  0  0  0  0  0  0  0  0
   -0.8023   -1.4689    0.9725 H   0  0  0  0  0  0  0  0  0  0  0  0
   -0.4620   -0.2811    2.2775 H   0  0  0  0  0  0  0  0  0  0  0  0
    1.9493    0.1506    2.4640 H   0  0  0  0  0  0  0  0  0  0  0  0
    5.3449    0.4843   -1.1572 H   0  0  0  0  0  0  0  0  0  0  0  0
    7.6256    1.1147   -0.5482 H   0  0  0  0  0  0  0  0  0  0  0  0
    6.5088    1.3098    3.6002 H   0  0  0  0  0  0  0  0  0  0  0  0
    4.2172    0.6675    3.0329 H   0  0  0  0  0  0  0  0  0  0  0  0
   -0.0835   -1.5339   -1.7906 H   0  0  0  0  0  0  0  0  0  0  0  0
    0.0406    0.2321   -2.1790 H   0  0  0  0  0  0  0  0  0  0  0  0
    1.9614   -2.0257   -2.8751 H   0  0  0  0  0  0  0  0  0  0  0  0
    1.6470   -0.5707   -3.8374 H   0  0  0  0  0  0  0  0  0  0  0  0
    3.8899   -0.9028   -2.1780 H   0  0  0  0  0  0  0  0  0  0  0  0
    3.1785    0.7292   -2.4704 H   0  0  0  0  0  0  0  0  0  0  0  0
   -2.6579   -0.2374    2.9268 H   0  0  0  0  0  0  0  0  0  0  0  0
   -3.7004   -2.0788    4.1552 H   0  0  0  0  0  0  0  0  0  0  0  0
   -5.1309   -3.7222    2.9746 H   0  0  0  0  0  0  0  0  0  0  0  0
   -5.5199   -3.5022    0.5492 H   0  0  0  0  0  0  0  0  0  0  0  0
   -5.7747    0.1631   -3.2619 H   0  0  0  0  0  0  0  0  0  0  0  0
   -5.4936    2.5802   -3.6713 H   0  0  0  0  0  0  0  0  0  0  0  0
   -3.9505    3.9069   -2.2493 H   0  0  0  0  0  0  0  0  0  0  0  0
   -2.7213    2.8491   -0.4325 H   0  0  0  0  0  0  0  0  0  0  0  0
  1  2  2  0
  2  3  1  0
  3  4  1  0
  4  5  1  0
  5  6  2  0
  6  7  1  0
  7  8  2  0
  8  9  1  0
  9 10  2  0
 10 11  1  0
 10 12  1  0
 12 13  2  0
  6 14  1  0
 14 15  1  0
 15 16  1  0
 16 17  1  0
 17 18  1  0
  2 19  1  0
 19 20  1  0
 20 21  2  0
 21 22  1  0
 22 23  2  0
 23 24  1  0
 24 25  2  0
 25 26  1  0
 26 27  1  0
 27 28  2  0
 28 29  1  0
 29 30  2  0
 30 31  1  0
 31 32  2  0
 15  4  2  0
 32 19  1  0
 13  7  1  0
 18 14  1  0
 25 20  1  0
 32 27  1  0
  3 33  1  0
  3 34  1  0
  5 35  1  0
  8 36  1  0
  9 37  1  0
 12 38  1  0
 13 39  1  0
 16 40  1  0
 16 41  1  0
 17 42  1  0
 17 43  1  0
 18 44  1  0
 18 45  1  0
 21 46  1  0
 22 47  1  0
 23 48  1  0
 24 49  1  0
 28 50  1  0
 29 51  1  0
 30 52  1  0
 31 53  1  0
M  CHG  1   4   1
M  END
$$$$
