
     RDKit          3D

 35 37  0  0  0  0  0  0  0  0999 V2000
    5.2080   -1.6911    1.2439 C   0  0  0  0  0  0  0  0  0  0  0  0
    4.1252   -0.8201    0.9141 O   0  0  0  0  0  0  0  0  0  0  0  0
    3.8136   -0.8054   -0.4062 C   0  0  0  0  0  0  0  0  0  0  0  0
    4.3724   -1.4519   -1.2784 O   0  0  0  0  0  0  0  0  0  0  0  0
    2.6788    0.1215   -0.6691 C   0  0  0  0  0  0  0  0  0  0  0  0
    2.2235    0.2523   -1.9878 C   0  0  0  0  0  0  0  0  0  0  0  0
    1.1578    1.1062   -2.2869 C   0  0  0  0  0  0  0  0  0  0  0  0
    0.5333    1.8350   -1.2700 C   0  0  0  0  0  0  0  0  0  0  0  0
   -0.5863    2.7254   -1.5995 C   0  0  0  0  0  0  0  0  0  0  0  0
   -1.8823    2.5509   -1.2630 C   0  0  0  0  0  0  0  0  0  0  0  0
   -2.8294    3.5453   -1.6563 C   0  0  0  0  0  0  0  0  0  0  0  0
   -3.5835    4.3679   -1.9762 N   0  0  0  0  0  0  0  0  0  0  0  0
   -2.3260    1.3837   -0.5610 C   0  0  0  0  0  0  0  0  0  0  0  0
   -1.9908    0.1354   -0.8295 N   0  0  0  0  0  0  0  0  0  0  0  0
   -2.5747   -0.7441    0.0640 C   0  0  0  0  0  0  0  0  0  0  0  0
   -2.4165   -2.1445    0.0673 C   0  0  0  0  0  0  0  0  0  0  0  0
   -3.0703   -2.9156    1.0337 C   0  0  0  0  0  0  0  0  0  0  0  0
   -3.8761   -2.3084    1.9916 C   0  0  0  0  0  0  0  0  0  0  0  0
   -4.0476   -0.9206    2.0088 C   0  0  0  0  0  0  0  0  0  0  0  0
   -3.3847   -0.1570    1.0335 C   0  0  0  0  0  0  0  0  0  0  0  0
   -3.3932    1.5447    0.7979 S   0  0  0  0  0  0  0  0  0  0  0  0
    0.9924    1.7138    0.0468 C   0  0  0  0  0  0  0  0  0  0  0  0
    2.0582    0.8593    0.3475 C   0  0  0  0  0  0  0  0  0  0  0  0
    5.3751   -1.6299    2.3228 H   0  0  0  0  0  0  0  0  0  0  0  0
    6.1232   -1.3756    0.7332 H   0  0  0  0  0  0  0  0  0  0  0  0
    4.9586   -2.7262    0.9903 H   0  0  0  0  0  0  0  0  0  0  0  0
    2.6928   -0.3158   -2.7891 H   0  0  0  0  0  0  0  0  0  0  0  0
    0.8128    1.1825   -3.3158 H   0  0  0  0  0  0  0  0  0  0  0  0
   -0.2878    3.6051   -2.1696 H   0  0  0  0  0  0  0  0  0  0  0  0
   -1.7866   -2.6133   -0.6825 H   0  0  0  0  0  0  0  0  0  0  0  0
   -2.9465   -3.9961    1.0328 H   0  0  0  0  0  0  0  0  0  0  0  0
   -4.3805   -2.9198    2.7372 H   0  0  0  0  0  0  0  0  0  0  0  0
   -4.6773   -0.4484    2.7569 H   0  0  0  0  0  0  0  0  0  0  0  0
    0.5244    2.2763    0.8516 H   0  0  0  0  0  0  0  0  0  0  0  0
    2.3899    0.7780    1.3796 H   0  0  0  0  0  0  0  0  0  0  0  0
  1  2  1  0
  2  3  1  0
  3  4  2  0
  3  5  1  0
  5  6  2  0
  6  7  1  0
  7  8  2  0
  8  9  1  0
  9 10  2  3
 10 11  1  0
 11 12  3  0
 10 13  1  0
 13 14  2  0
 14 15  1  0
 15 16  2  0
 16 17  1  0
 17 18  2  0
 18 19  1  0
 19 20  2  0
 20 21  1  0
  8 22  1  0
 22 23  2  0
 23  5  1  0
 21 13  1  0
 20 15  1  0
  1 24  1  0
  1 25  1  0
  1 26  1  0
  6 27  1  0
  7 28  1  0
  9 29  1  0
 16 30  1  0
 17 31  1  0
 18 32  1  0
 19 33  1  0
 22 34  1  0
 23 35  1  0
M  END
$$$$
