
     RDKit          3D

 58 62  0  0  0  0  0  0  0  0999 V2000
   -0.9892   -3.2813   -0.8926 O   0  0  0  0  0  0  0  0  0  0  0  0
   -1.2237   -2.6667    0.1452 C   0  0  0  0  0  0  0  0  0  0  0  0
   -2.5803   -2.7957    0.8309 C   0  0  0  0  0  0  0  0  0  0  0  0
   -3.1997   -1.2123    1.4841 S   0  0  0  0  0  0  0  0  0  0  0  0
   -3.4832   -0.3075   -0.0070 C   0  0  0  0  0  0  0  0  0  0  0  0
   -3.3318   -0.9543   -1.1139 N   0  0  0  0  0  0  0  0  0  0  0  0
   -3.4211   -0.2638   -2.3211 C   0  0  0  0  0  0  0  0  0  0  0  0
   -3.1819   -0.9572   -3.5094 C   0  0  0  0  0  0  0  0  0  0  0  0
   -3.2459   -0.2989   -4.7403 C   0  0  0  0  0  0  0  0  0  0  0  0
   -3.5502    1.0618   -4.7901 C   0  0  0  0  0  0  0  0  0  0  0  0
   -3.7838    1.7633   -3.6077 C   0  0  0  0  0  0  0  0  0  0  0  0
   -3.7122    1.0935   -2.3783 C   0  0  0  0  0  0  0  0  0  0  0  0
   -3.9554    1.7983   -1.1072 C   0  0  0  0  0  0  0  0  0  0  0  0
   -4.3330    2.9688   -1.1538 O   0  0  0  0  0  0  0  0  0  0  0  0
   -3.7972    1.0484    0.0662 N   0  0  0  0  0  0  0  0  0  0  0  0
   -4.0124    1.7432    1.2969 C   0  0  0  0  0  0  0  0  0  0  0  0
   -5.0149    1.3423    2.1929 C   0  0  0  0  0  0  0  0  0  0  0  0
   -5.2155    2.0541    3.3782 C   0  0  0  0  0  0  0  0  0  0  0  0
   -4.4267    3.1656    3.6640 C   0  0  0  0  0  0  0  0  0  0  0  0
   -4.6227    3.8350    4.8069 F   0  0  0  0  0  0  0  0  0  0  0  0
   -3.4419    3.5889    2.7853 C   0  0  0  0  0  0  0  0  0  0  0  0
   -3.2415    2.8773    1.6077 C   0  0  0  0  0  0  0  0  0  0  0  0
   -2.2511    3.2640    0.7891 F   0  0  0  0  0  0  0  0  0  0  0  0
   -0.3170   -1.8974    0.8587 N   0  0  0  0  0  0  0  0  0  0  0  0
    1.0168   -1.5985    0.5209 C   0  0  0  0  0  0  0  0  0  0  0  0
    1.6358   -2.0024   -0.6547 C   0  0  0  0  0  0  0  0  0  0  0  0
    2.9744   -1.6605   -0.9091 C   0  0  0  0  0  0  0  0  0  0  0  0
    3.7466   -0.9140   -0.0058 C   0  0  0  0  0  0  0  0  0  0  0  0
    5.0667   -0.5904   -0.2631 N   0  0  0  0  0  0  0  0  0  0  0  0
    5.8747   -1.3385   -1.2433 C   0  0  0  0  0  0  0  0  0  0  0  0
    7.3559   -1.3437   -0.8193 C   0  0  0  0  0  0  0  0  0  0  0  0
    7.9353   -0.0369   -0.6873 O   0  0  0  0  0  0  0  0  0  0  0  0
    6.9816    0.9693   -0.3132 C   0  0  0  0  0  0  0  0  0  0  0  0
    5.7928    0.4353    0.5050 C   0  0  0  0  0  0  0  0  0  0  0  0
    3.0961   -0.5129    1.1693 C   0  0  0  0  0  0  0  0  0  0  0  0
    1.7572   -0.8455    1.4322 C   0  0  0  0  0  0  0  0  0  0  0  0
   -3.3067   -3.2255    0.1326 H   0  0  0  0  0  0  0  0  0  0  0  0
   -2.4687   -3.4953    1.6666 H   0  0  0  0  0  0  0  0  0  0  0  0
   -2.9345   -2.0169   -3.4718 H   0  0  0  0  0  0  0  0  0  0  0  0
   -3.0559   -0.8503   -5.6576 H   0  0  0  0  0  0  0  0  0  0  0  0
   -3.6043    1.5755   -5.7493 H   0  0  0  0  0  0  0  0  0  0  0  0
   -4.0189    2.8260   -3.6445 H   0  0  0  0  0  0  0  0  0  0  0  0
   -5.6571    0.4950    1.9697 H   0  0  0  0  0  0  0  0  0  0  0  0
   -5.9885    1.7529    4.0799 H   0  0  0  0  0  0  0  0  0  0  0  0
   -2.8357    4.4550    3.0137 H   0  0  0  0  0  0  0  0  0  0  0  0
   -0.6633   -1.4909    1.7203 H   0  0  0  0  0  0  0  0  0  0  0  0
    1.1096   -2.5771   -1.4107 H   0  0  0  0  0  0  0  0  0  0  0  0
    3.3909   -1.9825   -1.8599 H   0  0  0  0  0  0  0  0  0  0  0  0
    5.5515   -2.3835   -1.3194 H   0  0  0  0  0  0  0  0  0  0  0  0
    5.7673   -0.8605   -2.2251 H   0  0  0  0  0  0  0  0  0  0  0  0
    7.4726   -1.8563    0.1446 H   0  0  0  0  0  0  0  0  0  0  0  0
    7.9546   -1.8945   -1.5518 H   0  0  0  0  0  0  0  0  0  0  0  0
    6.6265    1.4481   -1.2360 H   0  0  0  0  0  0  0  0  0  0  0  0
    7.5203    1.7318    0.2614 H   0  0  0  0  0  0  0  0  0  0  0  0
    5.1421    1.2854    0.7430 H   0  0  0  0  0  0  0  0  0  0  0  0
    6.1529   -0.0099    1.4408 H   0  0  0  0  0  0  0  0  0  0  0  0
    3.6263    0.0524    1.9313 H   0  0  0  0  0  0  0  0  0  0  0  0
    1.3173   -0.5096    2.3668 H   0  0  0  0  0  0  0  0  0  0  0  0
  1  2  2  0
  2  3  1  0
  3  4  1  0
  4  5  1  0
  5  6  2  0
  6  7  1  0
  7  8  2  0
  8  9  1  0
  9 10  2  0
 10 11  1  0
 11 12  2  0
 12 13  1  0
 13 14  2  0
 13 15  1  0
 15 16  1  0
 16 17  2  0
 17 18  1  0
 18 19  2  0
 19 20  1  0
 19 21  1  0
 21 22  2  0
 22 23  1  0
  2 24  1  0
 24 25  1  0
 25 26  2  0
 26 27  1  0
 27 28  2  0
 28 29  1  0
 29 30  1  0
 30 31  1  0
 31 32  1  0
 32 33  1  0
 33 34  1  0
 28 35  1  0
 35 36  2  0
 15  5  1  0
 22 16  1  0
 36 25  1  0
 12  7  1  0
 34 29  1  0
  3 37  1  0
  3 38  1  0
  8 39  1  0
  9 40  1  0
 10 41  1  0
 11 42  1  0
 17 43  1  0
 18 44  1  0
 21 45  1  0
 24 46  1  0
 26 47  1  0
 27 48  1  0
 30 49  1  0
 30 50  1  0
 31 51  1  0
 31 52  1  0
 33 53  1  0
 33 54  1  0
 34 55  1  0
 34 56  1  0
 35 57  1  0
 36 58  1  0
M  END
$$$$
