
     RDKit          3D

 43 45  0  0  0  0  0  0  0  0999 V2000
   -2.6398   -0.0142   -1.9540 C   0  0  0  0  0  0  0  0  0  0  0  0
   -2.2066   -0.7700   -0.6811 C   0  0  0  0  0  0  0  0  0  0  0  0
   -1.6852   -2.1457   -1.1478 C   0  0  0  0  0  0  0  0  0  0  0  0
   -3.3145   -0.8410    0.4077 C   0  0  0  0  0  0  0  0  0  0  0  0
   -3.5190    0.6417    0.7912 C   0  0  0  0  0  0  0  0  0  0  0  0
   -2.0908    1.2229    0.7179 C   0  0  0  0  0  0  0  0  0  0  0  0
   -1.2350    0.0189    0.2534 C   0  0  0  0  0  0  0  0  0  0  0  0
    0.1585    0.2756   -0.2881 C   0  0  0  0  0  0  0  0  0  0  0  0
    1.0199    1.6240    0.5302 S   0  0  0  0  0  6  0  0  0  0  0  0
    0.8535    1.5256    1.9617 O   0  0  0  0  0  0  0  0  0  0  0  0
    0.6660    2.8395   -0.1739 O   0  0  0  0  0  0  0  0  0  0  0  0
    2.6331    1.2974    0.1848 N   0  0  0  0  0  0  0  0  0  0  0  0
    3.3076    0.2345    0.9806 C   0  0  0  0  0  0  0  0  0  0  0  0
    4.7270    0.0120    0.4491 C   0  0  0  0  0  0  0  0  0  0  0  0
    4.7539   -0.4322   -0.9158 O   0  0  0  0  0  0  0  0  0  0  0  0
    3.6741    0.0772   -1.7087 C   0  0  0  0  0  0  0  0  0  0  0  0
    3.1154    1.4160   -1.2154 C   0  0  0  0  0  0  0  0  0  0  0  0
   -1.2414   -0.9412    1.4470 C   0  0  0  0  0  0  0  0  0  0  0  0
   -0.2714   -1.2479    2.1219 O   0  0  0  0  0  0  0  0  0  0  0  0
   -2.6268   -1.5333    1.6083 C   0  0  0  0  0  0  0  0  0  0  0  0
   -3.4745   -0.5340   -2.4383 H   0  0  0  0  0  0  0  0  0  0  0  0
   -1.8175    0.0362   -2.6765 H   0  0  0  0  0  0  0  0  0  0  0  0
   -2.9614    1.0149   -1.7798 H   0  0  0  0  0  0  0  0  0  0  0  0
   -2.4940   -2.7229   -1.6102 H   0  0  0  0  0  0  0  0  0  0  0  0
   -1.2658   -2.7611   -0.3474 H   0  0  0  0  0  0  0  0  0  0  0  0
   -0.8913   -2.0263   -1.8941 H   0  0  0  0  0  0  0  0  0  0  0  0
   -4.2404   -1.3355    0.1040 H   0  0  0  0  0  0  0  0  0  0  0  0
   -4.1825    1.1509    0.0843 H   0  0  0  0  0  0  0  0  0  0  0  0
   -3.9540    0.7605    1.7892 H   0  0  0  0  0  0  0  0  0  0  0  0
   -1.7924    1.5988    1.7026 H   0  0  0  0  0  0  0  0  0  0  0  0
   -2.0526    2.0581    0.0110 H   0  0  0  0  0  0  0  0  0  0  0  0
    0.1278    0.5433   -1.3491 H   0  0  0  0  0  0  0  0  0  0  0  0
    0.7755   -0.6216   -0.1884 H   0  0  0  0  0  0  0  0  0  0  0  0
    3.3597    0.5438    2.0291 H   0  0  0  0  0  0  0  0  0  0  0  0
    2.7412   -0.6993    0.9080 H   0  0  0  0  0  0  0  0  0  0  0  0
    5.2418   -0.7444    1.0498 H   0  0  0  0  0  0  0  0  0  0  0  0
    5.3134    0.9362    0.5125 H   0  0  0  0  0  0  0  0  0  0  0  0
    4.0401    0.1773   -2.7355 H   0  0  0  0  0  0  0  0  0  0  0  0
    2.8853   -0.6838   -1.7184 H   0  0  0  0  0  0  0  0  0  0  0  0
    2.3180    1.7484   -1.8868 H   0  0  0  0  0  0  0  0  0  0  0  0
    3.8998    2.1814   -1.2294 H   0  0  0  0  0  0  0  0  0  0  0  0
   -2.5901   -2.6185    1.4882 H   0  0  0  0  0  0  0  0  0  0  0  0
   -3.0645   -1.2621    2.5715 H   0  0  0  0  0  0  0  0  0  0  0  0
  1  2  1  0
  2  3  1  0
  2  4  1  0
  4  5  1  0
  5  6  1  0
  6  7  1  0
  7  8  1  0
  8  9  1  0
  9 10  2  0
  9 11  2  0
  9 12  1  0
 12 13  1  0
 13 14  1  0
 14 15  1  0
 15 16  1  0
 16 17  1  0
  7 18  1  0
 18 19  2  0
 18 20  1  0
  7  2  1  0
 17 12  1  0
 20  4  1  0
  1 21  1  0
  1 22  1  0
  1 23  1  0
  3 24  1  0
  3 25  1  0
  3 26  1  0
  4 27  1  0
  5 28  1  0
  5 29  1  0
  6 30  1  0
  6 31  1  0
  8 32  1  0
  8 33  1  0
 13 34  1  0
 13 35  1  0
 14 36  1  0
 14 37  1  0
 16 38  1  0
 16 39  1  0
 17 40  1  0
 17 41  1  0
 20 42  1  0
 20 43  1  0
M  END
$$$$
