
     RDKit          3D

 31 32  0  0  0  0  0  0  0  0999 V2000
   -3.3641    2.1861   -0.1656 C   0  0  0  0  0  0  0  0  0  0  0  0
   -3.2464    0.6913   -0.0269 C   0  0  0  0  0  0  0  0  0  0  0  0
   -4.2785    0.0171    0.0171 O   0  0  0  0  0  0  0  0  0  0  0  0
   -1.9128    0.0656    0.0568 C   0  0  0  0  0  0  0  0  0  0  0  0
   -1.7117   -1.2572    0.4416 C   0  0  0  0  0  0  0  0  0  0  0  0
   -2.6815   -2.3166    0.8355 C   0  0  0  0  0  0  0  0  0  0  0  0
   -0.3674   -1.5099    0.4256 N   0  0  0  0  0  0  0  0  0  0  0  0
    0.3286   -0.3921    0.0442 C   0  0  0  0  0  0  0  0  0  0  0  0
    1.7878   -0.3998   -0.0269 C   0  0  0  0  0  0  0  0  0  0  0  0
    2.4524   -1.2945   -0.8744 C   0  0  0  0  0  0  0  0  0  0  0  0
    3.8477   -1.3073   -0.9334 C   0  0  0  0  0  0  0  0  0  0  0  0
    4.5876   -0.4283   -0.1441 C   0  0  0  0  0  0  0  0  0  0  0  0
    3.9342    0.4650    0.7033 C   0  0  0  0  0  0  0  0  0  0  0  0
    2.5390    0.4794    0.7616 C   0  0  0  0  0  0  0  0  0  0  0  0
   -0.6007    0.6099   -0.2172 C   0  0  0  0  0  0  0  0  0  0  0  0
   -0.2678    1.9768   -0.7150 C   0  0  0  0  0  0  0  0  0  0  0  0
   -2.7445    2.6893    0.5800 H   0  0  0  0  0  0  0  0  0  0  0  0
   -4.4023    2.4841    0.0129 H   0  0  0  0  0  0  0  0  0  0  0  0
   -3.0910    2.4931   -1.1770 H   0  0  0  0  0  0  0  0  0  0  0  0
   -2.1704   -3.2256    1.1695 H   0  0  0  0  0  0  0  0  0  0  0  0
   -3.3202   -2.5835   -0.0122 H   0  0  0  0  0  0  0  0  0  0  0  0
   -3.3150   -1.9713    1.6586 H   0  0  0  0  0  0  0  0  0  0  0  0
    0.0633   -2.3890    0.6799 H   0  0  0  0  0  0  0  0  0  0  0  0
    1.8875   -1.9762   -1.5059 H   0  0  0  0  0  0  0  0  0  0  0  0
    4.3563   -2.0003   -1.5984 H   0  0  0  0  0  0  0  0  0  0  0  0
    5.6736   -0.4379   -0.1907 H   0  0  0  0  0  0  0  0  0  0  0  0
    4.5098    1.1505    1.3198 H   0  0  0  0  0  0  0  0  0  0  0  0
    2.0401    1.1757    1.4314 H   0  0  0  0  0  0  0  0  0  0  0  0
   -0.8762    2.2287   -1.5879 H   0  0  0  0  0  0  0  0  0  0  0  0
    0.7769    2.0551   -1.0308 H   0  0  0  0  0  0  0  0  0  0  0  0
   -0.4344    2.7217    0.0685 H   0  0  0  0  0  0  0  0  0  0  0  0
  1  2  1  0
  2  3  2  0
  2  4  1  0
  4  5  2  0
  5  6  1  0
  5  7  1  0
  7  8  1  0
  8  9  1  0
  9 10  2  0
 10 11  1  0
 11 12  2  0
 12 13  1  0
 13 14  2  0
  8 15  2  0
 15 16  1  0
 15  4  1  0
 14  9  1  0
  1 17  1  0
  1 18  1  0
  1 19  1  0
  6 20  1  0
  6 21  1  0
  6 22  1  0
  7 23  1  0
 10 24  1  0
 11 25  1  0
 12 26  1  0
 13 27  1  0
 14 28  1  0
 16 29  1  0
 16 30  1  0
 16 31  1  0
M  END
$$$$
