
     RDKit          3D

 60 65  0  0  0  0  0  0  0  0999 V2000
    3.5618   -3.3610   -2.1481 C   0  0  0  0  0  0  0  0  0  0  0  0
    4.5873   -2.4168   -1.6475 C   0  0  0  0  0  0  0  0  0  0  0  0
    5.7943   -2.8820   -1.3002 N   0  0  0  0  0  0  0  0  0  0  0  0
    6.5449   -1.7700   -0.9685 O   0  0  0  0  0  0  0  0  0  0  0  0
    5.7832   -0.6528   -1.0988 C   0  0  0  0  0  0  0  0  0  0  0  0
    6.4444    0.6337   -0.8094 C   0  0  0  0  0  0  0  0  0  0  0  0
    4.5094   -1.0077   -1.4868 C   0  0  0  0  0  0  0  0  0  0  0  0
    3.4243   -0.0841   -1.7345 C   0  0  0  0  0  0  0  0  0  0  0  0
    3.5895    0.8815   -2.4760 O   0  0  0  0  0  0  0  0  0  0  0  0
    2.2024   -0.3307   -1.1026 N   0  0  0  0  0  0  0  0  0  0  0  0
    1.0821    0.5437   -1.4338 C   0  0  0  0  0  0  0  0  0  0  0  0
   -0.2409   -0.1119   -1.0641 C   0  0  0  0  0  0  0  0  0  0  0  0
   -0.3697   -0.4030    0.4611 C   0  0  0  0  0  0  0  0  0  0  0  0
    1.0572   -0.6011    1.0674 C   0  0  0  0  0  0  0  0  0  0  0  0
    2.0349   -1.2031    0.0607 C   0  0  0  0  0  0  0  0  0  0  0  0
   -1.0932   -1.6631    0.5223 O   0  0  0  0  0  0  0  0  0  0  0  0
   -1.5591   -2.0384    1.7520 C   0  0  0  0  0  0  0  0  0  0  0  0
   -1.9365   -3.3753    1.8843 C   0  0  0  0  0  0  0  0  0  0  0  0
   -2.3975   -3.8492    3.1137 C   0  0  0  0  0  0  0  0  0  0  0  0
   -2.4811   -2.9825    4.1995 C   0  0  0  0  0  0  0  0  0  0  0  0
   -2.9230   -3.4440    5.3757 F   0  0  0  0  0  0  0  0  0  0  0  0
   -2.1227   -1.6461    4.0797 C   0  0  0  0  0  0  0  0  0  0  0  0
   -1.6710   -1.1763    2.8444 C   0  0  0  0  0  0  0  0  0  0  0  0
   -1.3265    0.2464    2.6654 C   0  0  0  0  0  0  0  0  0  0  0  0
   -1.2377    0.9786    3.6446 O   0  0  0  0  0  0  0  0  0  0  0  0
   -1.1664    0.7004    1.2184 C   0  0  0  0  0  0  0  0  0  0  0  0
   -2.5622    1.0136    0.6861 C   0  0  0  0  0  0  0  0  0  0  0  0
   -2.2931    2.3331    0.0515 C   0  0  0  0  0  0  0  0  0  0  0  0
   -3.2933    3.0146   -0.8035 C   0  0  0  0  0  0  0  0  0  0  0  0
   -2.9442    4.2219   -1.4245 C   0  0  0  0  0  0  0  0  0  0  0  0
   -3.8649    4.8902   -2.2363 C   0  0  0  0  0  0  0  0  0  0  0  0
   -5.1353    4.3530   -2.4276 C   0  0  0  0  0  0  0  0  0  0  0  0
   -6.2720    5.1737   -3.4241 Cl  0  0  0  0  0  0  0  0  0  0  0  0
   -5.4929    3.1534   -1.8132 C   0  0  0  0  0  0  0  0  0  0  0  0
   -4.5735    2.4825   -0.9994 C   0  0  0  0  0  0  0  0  0  0  0  0
   -1.1237    2.8266    0.2996 N   0  0  0  0  0  0  0  0  0  0  0  0
   -0.4589    1.9418    1.1755 O   0  0  0  0  0  0  0  0  0  0  0  0
    4.0034   -4.0799   -2.8468 H   0  0  0  0  0  0  0  0  0  0  0  0
    3.1202   -3.9199   -1.3169 H   0  0  0  0  0  0  0  0  0  0  0  0
    2.7593   -2.8378   -2.6771 H   0  0  0  0  0  0  0  0  0  0  0  0
    7.3434    0.4894   -0.2017 H   0  0  0  0  0  0  0  0  0  0  0  0
    5.7726    1.3012   -0.2608 H   0  0  0  0  0  0  0  0  0  0  0  0
    6.7366    1.1279   -1.7409 H   0  0  0  0  0  0  0  0  0  0  0  0
    1.2255    1.4936   -0.9074 H   0  0  0  0  0  0  0  0  0  0  0  0
    1.1018    0.7598   -2.5083 H   0  0  0  0  0  0  0  0  0  0  0  0
   -1.0668    0.4985   -1.4380 H   0  0  0  0  0  0  0  0  0  0  0  0
   -0.3224   -1.0563   -1.6221 H   0  0  0  0  0  0  0  0  0  0  0  0
    1.0313   -1.2580    1.9436 H   0  0  0  0  0  0  0  0  0  0  0  0
    1.4673    0.3600    1.4019 H   0  0  0  0  0  0  0  0  0  0  0  0
    2.9966   -1.3725    0.5538 H   0  0  0  0  0  0  0  0  0  0  0  0
    1.6594   -2.1673   -0.2980 H   0  0  0  0  0  0  0  0  0  0  0  0
   -1.8615   -4.0526    1.0367 H   0  0  0  0  0  0  0  0  0  0  0  0
   -2.6882   -4.8890    3.2341 H   0  0  0  0  0  0  0  0  0  0  0  0
   -2.2062   -0.9869    4.9393 H   0  0  0  0  0  0  0  0  0  0  0  0
   -3.3075    1.1511    1.4772 H   0  0  0  0  0  0  0  0  0  0  0  0
   -2.9306    0.2752   -0.0302 H   0  0  0  0  0  0  0  0  0  0  0  0
   -1.9551    4.6537   -1.2787 H   0  0  0  0  0  0  0  0  0  0  0  0
   -3.5835    5.8270   -2.7110 H   0  0  0  0  0  0  0  0  0  0  0  0
   -6.4871    2.7382   -1.9611 H   0  0  0  0  0  0  0  0  0  0  0  0
   -4.8849    1.5550   -0.5276 H   0  0  0  0  0  0  0  0  0  0  0  0
  1  2  1  0
  2  3  2  0
  3  4  1  0
  4  5  1  0
  5  6  1  0
  5  7  2  0
  7  8  1  0
  8  9  2  0
  8 10  1  0
 10 11  1  0
 11 12  1  0
 12 13  1  0
 13 14  1  0
 14 15  1  0
 13 16  1  0
 16 17  1  0
 17 18  2  0
 18 19  1  0
 19 20  2  0
 20 21  1  0
 20 22  1  0
 22 23  2  0
 23 24  1  0
 24 25  2  0
 24 26  1  0
 26 27  1  0
 27 28  1  0
 28 29  1  0
 29 30  2  0
 30 31  1  0
 31 32  2  0
 32 33  1  0
 32 34  1  0
 34 35  2  0
 28 36  2  0
 36 37  1  0
  7  2  1  0
 15 10  1  0
 23 17  1  0
 37 26  1  0
 26 13  1  0
 35 29  1  0
  1 38  1  0
  1 39  1  0
  1 40  1  0
  6 41  1  0
  6 42  1  0
  6 43  1  0
 11 44  1  0
 11 45  1  0
 12 46  1  0
 12 47  1  0
 14 48  1  0
 14 49  1  0
 15 50  1  0
 15 51  1  0
 18 52  1  0
 19 53  1  0
 22 54  1  0
 27 55  1  0
 27 56  1  0
 30 57  1  0
 31 58  1  0
 34 59  1  0
 35 60  1  0
M  END
$$$$
