
     RDKit          3D

 50 52  0  0  0  0  0  0  0  0999 V2000
   -3.2104    2.0658   -1.9599 C   0  0  0  0  0  0  0  0  0  0  0  0
   -3.7732    1.2775   -0.9167 O   0  0  0  0  0  0  0  0  0  0  0  0
   -2.9269    0.4367   -0.2438 C   0  0  0  0  0  0  0  0  0  0  0  0
   -1.6308    0.1061   -0.6411 C   0  0  0  0  0  0  0  0  0  0  0  0
   -0.8593   -0.7584    0.1496 C   0  0  0  0  0  0  0  0  0  0  0  0
    0.5070   -1.0970   -0.2978 C   0  0  0  0  0  0  0  0  0  0  0  0
    1.2887   -1.8480    0.4100 N   0  0  0  0  0  0  0  0  0  0  0  0
    2.5179   -2.0780   -0.1272 N   0  0  0  0  0  0  0  0  0  0  0  0
    3.4918   -2.7404    0.6054 C   0  0  0  0  0  0  0  0  0  0  0  0
    3.3383   -3.2427    1.7160 O   0  0  0  0  0  0  0  0  0  0  0  0
    4.8373   -2.8053   -0.1202 C   0  0  0  0  0  0  0  0  0  0  0  0
    4.9929   -1.8921   -1.2027 O   0  0  0  0  0  0  0  0  0  0  0  0
    5.3619   -0.6082   -0.9055 C   0  0  0  0  0  0  0  0  0  0  0  0
    5.3377   -0.0166    0.3573 C   0  0  0  0  0  0  0  0  0  0  0  0
    5.7197    1.3204    0.5141 C   0  0  0  0  0  0  0  0  0  0  0  0
    6.1181    2.0848   -0.5884 C   0  0  0  0  0  0  0  0  0  0  0  0
    6.5681    3.5028   -0.4088 C   0  0  0  0  0  0  0  0  0  0  0  0
    6.1460    1.4851   -1.8517 C   0  0  0  0  0  0  0  0  0  0  0  0
    5.7606    0.1515   -2.0075 C   0  0  0  0  0  0  0  0  0  0  0  0
   -1.3683   -1.2915    1.3387 C   0  0  0  0  0  0  0  0  0  0  0  0
   -2.6648   -0.9766    1.7373 C   0  0  0  0  0  0  0  0  0  0  0  0
   -3.4344   -0.1356    0.9323 C   0  0  0  0  0  0  0  0  0  0  0  0
   -4.7311    0.2021    1.3393 O   0  0  0  0  0  0  0  0  0  0  0  0
   -5.6745   -0.7679    1.0151 C   0  0  0  0  0  0  0  0  0  0  0  0
   -5.4174   -1.8861    0.5724 O   0  0  0  0  0  0  0  0  0  0  0  0
   -7.0214   -0.2974    1.3028 C   0  0  0  0  0  0  0  0  0  0  0  0
   -8.1749   -1.0640    1.3266 C   0  0  0  0  0  0  0  0  0  0  0  0
   -9.3382   -0.2996    1.6262 C   0  0  0  0  0  0  0  0  0  0  0  0
   -9.0442    1.0335    1.7923 C   0  0  0  0  0  0  0  0  0  0  0  0
   -7.3759    1.3514    1.6060 S   0  0  0  0  0  0  0  0  0  0  0  0
   -3.9627    2.7951   -2.2732 H   0  0  0  0  0  0  0  0  0  0  0  0
   -2.3338    2.6236   -1.6166 H   0  0  0  0  0  0  0  0  0  0  0  0
   -2.9690    1.4408   -2.8252 H   0  0  0  0  0  0  0  0  0  0  0  0
   -1.2068    0.5059   -1.5554 H   0  0  0  0  0  0  0  0  0  0  0  0
    0.8293   -0.6759   -1.2673 H   0  0  0  0  0  0  0  0  0  0  0  0
    2.7951   -1.6021   -0.9829 H   0  0  0  0  0  0  0  0  0  0  0  0
    4.9117   -3.8127   -0.5456 H   0  0  0  0  0  0  0  0  0  0  0  0
    5.6549   -2.7001    0.5998 H   0  0  0  0  0  0  0  0  0  0  0  0
    5.0217   -0.5545    1.2469 H   0  0  0  0  0  0  0  0  0  0  0  0
    5.6999    1.7626    1.5098 H   0  0  0  0  0  0  0  0  0  0  0  0
    6.3255    4.1060   -1.2877 H   0  0  0  0  0  0  0  0  0  0  0  0
    7.6498    3.5339   -0.2451 H   0  0  0  0  0  0  0  0  0  0  0  0
    6.0685    3.9661    0.4485 H   0  0  0  0  0  0  0  0  0  0  0  0
    6.4707    2.0507   -2.7219 H   0  0  0  0  0  0  0  0  0  0  0  0
    5.7858   -0.3004   -2.9962 H   0  0  0  0  0  0  0  0  0  0  0  0
   -0.7639   -1.9588    1.9503 H   0  0  0  0  0  0  0  0  0  0  0  0
   -3.0719   -1.3938    2.6544 H   0  0  0  0  0  0  0  0  0  0  0  0
   -8.1741   -2.1321    1.1372 H   0  0  0  0  0  0  0  0  0  0  0  0
  -10.3403   -0.7049    1.7010 H   0  0  0  0  0  0  0  0  0  0  0  0
   -9.7303    1.8382    2.0243 H   0  0  0  0  0  0  0  0  0  0  0  0
  1  2  1  0
  2  3  1  0
  3  4  2  0
  4  5  1  0
  5  6  1  0
  6  7  2  3
  7  8  1  0
  8  9  1  0
  9 10  2  0
  9 11  1  0
 11 12  1  0
 12 13  1  0
 13 14  2  0
 14 15  1  0
 15 16  2  0
 16 17  1  0
 16 18  1  0
 18 19  2  0
  5 20  2  0
 20 21  1  0
 21 22  2  0
 22 23  1  0
 23 24  1  0
 24 25  2  0
 24 26  1  0
 26 27  2  0
 27 28  1  0
 28 29  2  0
 29 30  1  0
 22  3  1  0
 30 26  1  0
 19 13  1  0
  1 31  1  0
  1 32  1  0
  1 33  1  0
  4 34  1  0
  6 35  1  0
  8 36  1  0
 11 37  1  0
 11 38  1  0
 14 39  1  0
 15 40  1  0
 17 41  1  0
 17 42  1  0
 17 43  1  0
 18 44  1  0
 19 45  1  0
 20 46  1  0
 21 47  1  0
 27 48  1  0
 28 49  1  0
 29 50  1  0
M  END
$$$$
