
     RDKit          3D

 57 60  0  0  0  0  0  0  0  0999 V2000
   -0.9999    1.8472    5.3760 C   0  0  0  0  0  0  0  0  0  0  0  0
   -1.2415    1.7818    3.9674 O   0  0  0  0  0  0  0  0  0  0  0  0
   -0.3466    0.9528    3.3525 C   0  0  0  0  0  0  0  0  0  0  0  0
    0.9578    1.4181    3.1497 C   0  0  0  0  0  0  0  0  0  0  0  0
    1.8903    0.6338    2.4662 C   0  0  0  0  0  0  0  0  0  0  0  0
    1.5162   -0.6191    1.9683 C   0  0  0  0  0  0  0  0  0  0  0  0
    2.4677   -1.4909    1.2270 C   0  0  0  0  0  0  0  0  0  0  0  0
    2.3454   -2.7087    1.2793 O   0  0  0  0  0  0  0  0  0  0  0  0
    3.4219   -0.8499    0.4720 N   0  0  0  0  0  0  0  0  0  0  0  0
    4.3675   -1.5867   -0.3366 C   0  0  0  0  0  0  0  0  0  0  0  0
    4.5866   -0.8823   -1.6509 C   0  0  0  0  0  0  0  0  0  0  0  0
    5.7442   -0.1002   -1.8670 C   0  0  0  0  0  0  0  0  0  0  0  0
    5.9385    0.5766   -3.0762 C   0  0  0  0  0  0  0  0  0  0  0  0
    4.9631    0.4586   -4.0427 C   0  0  0  0  0  0  0  0  0  0  0  0
    3.8306   -0.2935   -3.8395 C   0  0  0  0  0  0  0  0  0  0  0  0
    3.6113   -0.9721   -2.6595 C   0  0  0  0  0  0  0  0  0  0  0  0
    2.9936   -0.2718   -4.9105 O   0  0  0  0  0  0  0  0  0  0  0  0
    3.7391    0.5640   -5.8204 C   0  0  0  0  0  0  0  0  0  0  0  0
    4.9824    1.0472   -5.2685 O   0  0  0  0  0  0  0  0  0  0  0  0
    0.2112   -1.0861    2.1714 C   0  0  0  0  0  0  0  0  0  0  0  0
   -0.7298   -0.2881    2.8401 C   0  0  0  0  0  0  0  0  0  0  0  0
   -2.3732   -0.9354    3.0703 S   0  0  0  0  0  6  0  0  0  0  0  0
   -2.3193   -2.3488    2.7515 O   0  0  0  0  0  0  0  0  0  0  0  0
   -2.8600   -0.5134    4.3673 O   0  0  0  0  0  0  0  0  0  0  0  0
   -3.2860   -0.1817    1.8505 N   0  0  0  0  0  0  0  0  0  0  0  0
   -3.6019    1.2467    2.0386 C   0  0  0  0  0  0  0  0  0  0  0  0
   -2.9177   -0.5355    0.4588 C   0  0  0  0  0  0  0  0  0  0  0  0
   -4.0558   -0.3617   -0.5225 C   0  0  0  0  0  0  0  0  0  0  0  0
   -3.9589    0.5459   -1.5870 C   0  0  0  0  0  0  0  0  0  0  0  0
   -5.0146    0.6923   -2.4887 C   0  0  0  0  0  0  0  0  0  0  0  0
   -6.1731   -0.0697   -2.3364 C   0  0  0  0  0  0  0  0  0  0  0  0
   -6.2819   -0.9726   -1.2803 C   0  0  0  0  0  0  0  0  0  0  0  0
   -5.2291   -1.1178   -0.3771 C   0  0  0  0  0  0  0  0  0  0  0  0
   -0.1637    2.5210    5.5878 H   0  0  0  0  0  0  0  0  0  0  0  0
   -1.8970    2.2576    5.8503 H   0  0  0  0  0  0  0  0  0  0  0  0
   -0.8069    0.8574    5.8078 H   0  0  0  0  0  0  0  0  0  0  0  0
    1.2500    2.3982    3.5197 H   0  0  0  0  0  0  0  0  0  0  0  0
    2.9054    1.0050    2.3526 H   0  0  0  0  0  0  0  0  0  0  0  0
    3.4295    0.1574    0.3940 H   0  0  0  0  0  0  0  0  0  0  0  0
    4.0245   -2.6125   -0.5124 H   0  0  0  0  0  0  0  0  0  0  0  0
    5.3019   -1.6494    0.2318 H   0  0  0  0  0  0  0  0  0  0  0  0
    6.5022   -0.0188   -1.0894 H   0  0  0  0  0  0  0  0  0  0  0  0
    6.8265    1.1745   -3.2505 H   0  0  0  0  0  0  0  0  0  0  0  0
    2.7077   -1.5575   -2.5195 H   0  0  0  0  0  0  0  0  0  0  0  0
    3.9573   -0.0120   -6.7274 H   0  0  0  0  0  0  0  0  0  0  0  0
    3.1185    1.4256   -6.0924 H   0  0  0  0  0  0  0  0  0  0  0  0
   -0.0652   -2.0723    1.7980 H   0  0  0  0  0  0  0  0  0  0  0  0
   -3.8200    1.4749    3.0847 H   0  0  0  0  0  0  0  0  0  0  0  0
   -2.7837    1.8815    1.6888 H   0  0  0  0  0  0  0  0  0  0  0  0
   -4.5060    1.5060    1.4784 H   0  0  0  0  0  0  0  0  0  0  0  0
   -2.6040   -1.5838    0.3908 H   0  0  0  0  0  0  0  0  0  0  0  0
   -2.0590    0.0718    0.1486 H   0  0  0  0  0  0  0  0  0  0  0  0
   -3.0629    1.1463   -1.7239 H   0  0  0  0  0  0  0  0  0  0  0  0
   -4.9344    1.3978   -3.3121 H   0  0  0  0  0  0  0  0  0  0  0  0
   -6.9930    0.0429   -3.0405 H   0  0  0  0  0  0  0  0  0  0  0  0
   -7.1841   -1.5658   -1.1590 H   0  0  0  0  0  0  0  0  0  0  0  0
   -5.3215   -1.8248    0.4465 H   0  0  0  0  0  0  0  0  0  0  0  0
  1  2  1  0
  2  3  1  0
  3  4  2  0
  4  5  1  0
  5  6  2  0
  6  7  1  0
  7  8  2  0
  7  9  1  0
  9 10  1  0
 10 11  1  0
 11 12  2  0
 12 13  1  0
 13 14  2  0
 14 15  1  0
 15 16  2  0
 15 17  1  0
 17 18  1  0
 18 19  1  0
  6 20  1  0
 20 21  2  0
 21 22  1  0
 22 23  2  0
 22 24  2  0
 22 25  1  0
 25 26  1  0
 25 27  1  0
 27 28  1  0
 28 29  2  0
 29 30  1  0
 30 31  2  0
 31 32  1  0
 32 33  2  0
 21  3  1  0
 33 28  1  0
 16 11  1  0
 19 14  1  0
  1 34  1  0
  1 35  1  0
  1 36  1  0
  4 37  1  0
  5 38  1  0
  9 39  1  0
 10 40  1  0
 10 41  1  0
 12 42  1  0
 13 43  1  0
 16 44  1  0
 18 45  1  0
 18 46  1  0
 20 47  1  0
 26 48  1  0
 26 49  1  0
 26 50  1  0
 27 51  1  0
 27 52  1  0
 29 53  1  0
 30 54  1  0
 31 55  1  0
 32 56  1  0
 33 57  1  0
M  END
$$$$
