
     RDKit          3D

 40 42  0  0  0  0  0  0  0  0999 V2000
    3.1929   -1.3972   -0.7741 O   0  0  0  0  0  0  0  0  0  0  0  0
    3.0075   -0.4729    0.0074 C   0  0  0  0  0  0  0  0  0  0  0  0
    1.8197   -0.1346    0.6308 N   0  0  0  0  0  0  0  0  0  0  0  0
    0.5580   -0.7415    0.4546 C   0  0  0  0  0  0  0  0  0  0  0  0
    0.3074   -1.7742   -0.4532 C   0  0  0  0  0  0  0  0  0  0  0  0
   -0.9735   -2.3251   -0.5697 C   0  0  0  0  0  0  0  0  0  0  0  0
   -2.0140   -1.8278    0.2165 C   0  0  0  0  0  0  0  0  0  0  0  0
   -3.6362   -2.5459    0.0762 S   0  0  0  0  0  6  0  0  0  0  0  0
   -3.4577   -3.9598   -0.1798 O   0  0  0  0  0  0  0  0  0  0  0  0
   -4.4250   -2.0898    1.2025 O   0  0  0  0  0  0  0  0  0  0  0  0
   -4.2499   -1.8711   -1.3364 N   0  0  0  0  0  0  0  0  0  0  0  0
   -4.2673   -0.4671   -1.4117 C   0  0  0  0  0  0  0  0  0  0  0  0
   -5.0685    0.3274   -0.6108 C   0  0  0  0  0  0  0  0  0  0  0  0
   -4.9780    1.7066   -0.7681 C   0  0  0  0  0  0  0  0  0  0  0  0
   -4.0991    2.2272   -1.7127 C   0  0  0  0  0  0  0  0  0  0  0  0
   -3.3464    1.3410   -2.4682 C   0  0  0  0  0  0  0  0  0  0  0  0
   -3.4132   -0.0022   -2.3391 N   0  0  0  0  0  0  0  0  0  0  0  0
   -1.7794   -0.8044    1.1354 C   0  0  0  0  0  0  0  0  0  0  0  0
   -0.4959   -0.2624    1.2470 C   0  0  0  0  0  0  0  0  0  0  0  0
    4.1739    0.3769    0.3778 C   0  0  0  0  0  0  0  0  0  0  0  0
    5.4348   -0.2267    0.4756 C   0  0  0  0  0  0  0  0  0  0  0  0
    6.5528    0.5340    0.8216 C   0  0  0  0  0  0  0  0  0  0  0  0
    6.4171    1.9015    1.0605 C   0  0  0  0  0  0  0  0  0  0  0  0
    5.1647    2.5040    0.9426 C   0  0  0  0  0  0  0  0  0  0  0  0
    4.9884    4.3622    1.2475 Br  0  0  0  0  0  0  0  0  0  0  0  0
    4.0405    1.7534    0.5977 C   0  0  0  0  0  0  0  0  0  0  0  0
    1.8617    0.5822    1.3433 H   0  0  0  0  0  0  0  0  0  0  0  0
    1.0909   -2.1793   -1.0866 H   0  0  0  0  0  0  0  0  0  0  0  0
   -1.1429   -3.1378   -1.2725 H   0  0  0  0  0  0  0  0  0  0  0  0
   -3.8021   -2.2698   -2.1589 H   0  0  0  0  0  0  0  0  0  0  0  0
   -5.7507   -0.1070    0.1117 H   0  0  0  0  0  0  0  0  0  0  0  0
   -5.5901    2.3679   -0.1610 H   0  0  0  0  0  0  0  0  0  0  0  0
   -4.0060    3.2977   -1.8601 H   0  0  0  0  0  0  0  0  0  0  0  0
   -2.6490    1.7002   -3.2202 H   0  0  0  0  0  0  0  0  0  0  0  0
   -2.5812   -0.4241    1.7641 H   0  0  0  0  0  0  0  0  0  0  0  0
   -0.3332    0.5366    1.9659 H   0  0  0  0  0  0  0  0  0  0  0  0
    5.5460   -1.2927    0.2823 H   0  0  0  0  0  0  0  0  0  0  0  0
    7.5287    0.0604    0.8997 H   0  0  0  0  0  0  0  0  0  0  0  0
    7.2930    2.4881    1.3277 H   0  0  0  0  0  0  0  0  0  0  0  0
    3.0811    2.2464    0.4731 H   0  0  0  0  0  0  0  0  0  0  0  0
  1  2  2  0
  2  3  1  0
  3  4  1  0
  4  5  2  0
  5  6  1  0
  6  7  2  0
  7  8  1  0
  8  9  2  0
  8 10  2  0
  8 11  1  0
 11 12  1  0
 12 13  2  0
 13 14  1  0
 14 15  2  0
 15 16  1  0
 16 17  2  0
  7 18  1  0
 18 19  2  0
  2 20  1  0
 20 21  2  0
 21 22  1  0
 22 23  2  0
 23 24  1  0
 24 25  1  0
 24 26  2  0
 19  4  1  0
 26 20  1  0
 17 12  1  0
  3 27  1  0
  5 28  1  0
  6 29  1  0
 11 30  1  0
 13 31  1  0
 14 32  1  0
 15 33  1  0
 16 34  1  0
 18 35  1  0
 19 36  1  0
 21 37  1  0
 22 38  1  0
 23 39  1  0
 26 40  1  0
M  END
$$$$
