
     RDKit          3D

 37 40  0  0  0  0  0  0  0  0999 V2000
   -2.1454    2.5101    0.5153 C   0  0  0  0  0  0  0  0  0  0  0  0
   -2.4723    2.4702   -0.9678 C   0  0  0  0  0  0  0  0  0  0  0  0
   -2.1160    1.2151   -1.5447 O   0  0  0  0  0  0  0  0  0  0  0  0
   -2.9497    0.1380   -1.3778 C   0  0  0  0  0  0  0  0  0  0  0  0
   -4.2531    0.1998   -0.8774 C   0  0  0  0  0  0  0  0  0  0  0  0
   -5.0254   -0.9608   -0.7661 C   0  0  0  0  0  0  0  0  0  0  0  0
   -4.5057   -2.1919   -1.1563 C   0  0  0  0  0  0  0  0  0  0  0  0
   -3.2080   -2.2686   -1.6577 C   0  0  0  0  0  0  0  0  0  0  0  0
   -2.4240   -1.1118   -1.7663 C   0  0  0  0  0  0  0  0  0  0  0  0
   -1.0627   -1.2442   -2.3017 C   0  0  0  0  0  0  0  0  0  0  0  0
    0.0625   -1.0994   -1.5868 C   0  0  0  0  0  0  0  0  0  0  0  0
    1.6521   -1.1887   -2.3473 S   0  0  0  0  0  0  0  0  0  0  0  0
    2.3845   -0.8251   -0.8426 C   0  0  0  0  0  0  0  0  0  0  0  0
    3.6072   -0.6656   -0.4258 N   0  0  0  0  0  0  0  0  0  0  0  0
    3.4042   -0.4121    0.9242 C   0  0  0  0  0  0  0  0  0  0  0  0
    4.5934   -0.1418    1.9030 C   0  0  0  0  0  0  0  0  0  0  0  0
    5.9297   -0.1243    1.5511 C   0  0  0  0  0  0  0  0  0  0  0  0
    6.6591    0.1559    2.7321 C   0  0  0  0  0  0  0  0  0  0  0  0
    5.7256    0.2923    3.7316 C   0  0  0  0  0  0  0  0  0  0  0  0
    4.4728    0.1143    3.2409 O   0  0  0  0  0  0  0  0  0  0  0  0
    2.1165   -0.4185    1.3233 N   0  0  0  0  0  0  0  0  0  0  0  0
    1.4962   -0.6822    0.1602 N   0  0  0  0  0  0  0  0  0  0  0  0
    0.1522   -0.8325   -0.1107 C   0  0  0  0  0  0  0  0  0  0  0  0
   -0.7098   -0.7715    0.7452 O   0  0  0  0  0  0  0  0  0  0  0  0
   -2.7359    1.7802    1.0767 H   0  0  0  0  0  0  0  0  0  0  0  0
   -1.0917    2.2632    0.6820 H   0  0  0  0  0  0  0  0  0  0  0  0
   -2.3422    3.5043    0.9267 H   0  0  0  0  0  0  0  0  0  0  0  0
   -1.8565    3.2233   -1.4729 H   0  0  0  0  0  0  0  0  0  0  0  0
   -3.5098    2.7483   -1.1792 H   0  0  0  0  0  0  0  0  0  0  0  0
   -4.7046    1.1327   -0.5600 H   0  0  0  0  0  0  0  0  0  0  0  0
   -6.0364   -0.9009   -0.3701 H   0  0  0  0  0  0  0  0  0  0  0  0
   -5.1090   -3.0914   -1.0651 H   0  0  0  0  0  0  0  0  0  0  0  0
   -2.8114   -3.2366   -1.9542 H   0  0  0  0  0  0  0  0  0  0  0  0
   -1.0228   -1.4404   -3.3706 H   0  0  0  0  0  0  0  0  0  0  0  0
    6.3209   -0.2948    0.5574 H   0  0  0  0  0  0  0  0  0  0  0  0
    7.7305    0.2469    2.8416 H   0  0  0  0  0  0  0  0  0  0  0  0
    5.7850    0.5046    4.7901 H   0  0  0  0  0  0  0  0  0  0  0  0
  1  2  1  0
  2  3  1  0
  3  4  1  0
  4  5  2  0
  5  6  1  0
  6  7  2  0
  7  8  1  0
  8  9  2  0
  9 10  1  0
 10 11  2  3
 11 12  1  0
 12 13  1  0
 13 14  2  0
 14 15  1  0
 15 16  1  0
 16 17  2  0
 17 18  1  0
 18 19  2  0
 19 20  1  0
 15 21  2  0
 21 22  1  0
 22 23  1  0
 23 24  2  0
  9  4  1  0
 23 11  1  0
 22 13  1  0
 20 16  1  0
  1 25  1  0
  1 26  1  0
  1 27  1  0
  2 28  1  0
  2 29  1  0
  5 30  1  0
  6 31  1  0
  7 32  1  0
  8 33  1  0
 10 34  1  0
 17 35  1  0
 18 36  1  0
 19 37  1  0
M  END
$$$$
