
     RDKit          3D

 42 43  0  0  0  0  0  0  0  0999 V2000
   -4.7003   -1.5935    1.4190 C   0  0  0  0  0  0  0  0  0  0  0  0
   -4.2323   -0.9976    0.1292 C   0  0  0  0  0  0  0  0  0  0  0  0
   -3.5813    0.1714   -0.0534 C   0  0  0  0  0  0  0  0  0  0  0  0
   -3.3021    1.1380    1.0651 C   0  0  0  0  0  0  0  0  0  0  0  0
   -3.1739    0.6114   -1.4534 C   0  0  0  0  0  0  0  0  0  0  0  0
   -1.7578    0.5472   -1.8007 N   0  0  0  0  0  0  0  0  0  0  0  0
   -0.9444    1.6736   -1.3266 C   0  0  0  0  0  0  0  0  0  0  0  0
    0.5780    1.3959   -1.3468 C   0  0  0  0  0  0  0  0  0  0  0  0
    0.9070    0.2357   -0.5031 N   0  0  0  0  0  0  0  0  0  0  0  0
    2.1708    0.0543    0.0345 C   0  0  0  0  0  0  0  0  0  0  0  0
    3.2900    0.7611   -0.4314 C   0  0  0  0  0  0  0  0  0  0  0  0
    4.5684    0.5792    0.1152 C   0  0  0  0  0  0  0  0  0  0  0  0
    4.7730   -0.3295    1.1529 C   0  0  0  0  0  0  0  0  0  0  0  0
    6.1302   -0.5022    1.7639 C   0  0  0  0  0  0  0  0  0  0  0  0
    3.6737   -1.0296    1.6477 C   0  0  0  0  0  0  0  0  0  0  0  0
    2.4006   -0.8405    1.0919 C   0  0  0  0  0  0  0  0  0  0  0  0
   -0.1221   -0.8157   -0.4001 C   0  0  0  0  0  0  0  0  0  0  0  0
   -1.1161   -0.7573   -1.5838 C   0  0  0  0  0  0  0  0  0  0  0  0
   -4.3681   -2.6351    1.4796 H   0  0  0  0  0  0  0  0  0  0  0  0
   -4.3122   -1.0801    2.3015 H   0  0  0  0  0  0  0  0  0  0  0  0
   -5.7935   -1.5822    1.4600 H   0  0  0  0  0  0  0  0  0  0  0  0
   -4.4379   -1.6191   -0.7422 H   0  0  0  0  0  0  0  0  0  0  0  0
   -3.9994    1.0254    1.9001 H   0  0  0  0  0  0  0  0  0  0  0  0
   -2.2869    1.0022    1.4485 H   0  0  0  0  0  0  0  0  0  0  0  0
   -3.4125    2.1712    0.7189 H   0  0  0  0  0  0  0  0  0  0  0  0
   -3.7119    0.0006   -2.1917 H   0  0  0  0  0  0  0  0  0  0  0  0
   -3.5534    1.6268   -1.6307 H   0  0  0  0  0  0  0  0  0  0  0  0
   -1.1523    2.5482   -1.9538 H   0  0  0  0  0  0  0  0  0  0  0  0
   -1.2059    1.9486   -0.3010 H   0  0  0  0  0  0  0  0  0  0  0  0
    1.0777    2.2993   -0.9767 H   0  0  0  0  0  0  0  0  0  0  0  0
    0.9156    1.2157   -2.3748 H   0  0  0  0  0  0  0  0  0  0  0  0
    3.1962    1.4632   -1.2547 H   0  0  0  0  0  0  0  0  0  0  0  0
    5.4002    1.1538   -0.2852 H   0  0  0  0  0  0  0  0  0  0  0  0
    6.2642    0.2079    2.5857 H   0  0  0  0  0  0  0  0  0  0  0  0
    6.2583   -1.5188    2.1503 H   0  0  0  0  0  0  0  0  0  0  0  0
    6.9173   -0.3362    1.0209 H   0  0  0  0  0  0  0  0  0  0  0  0
    3.7910   -1.7269    2.4737 H   0  0  0  0  0  0  0  0  0  0  0  0
    1.5763   -1.3971    1.5288 H   0  0  0  0  0  0  0  0  0  0  0  0
    0.3376   -1.8116   -0.4143 H   0  0  0  0  0  0  0  0  0  0  0  0
   -0.6589   -0.7045    0.5487 H   0  0  0  0  0  0  0  0  0  0  0  0
   -0.5540   -0.9859   -2.4995 H   0  0  0  0  0  0  0  0  0  0  0  0
   -1.8489   -1.5675   -1.4940 H   0  0  0  0  0  0  0  0  0  0  0  0
  1  2  1  0
  2  3  2  3
  3  4  1  0
  3  5  1  0
  5  6  1  0
  6  7  1  0
  7  8  1  0
  8  9  1  0
  9 10  1  0
 10 11  2  0
 11 12  1  0
 12 13  2  0
 13 14  1  0
 13 15  1  0
 15 16  2  0
  9 17  1  0
 17 18  1  0
 18  6  1  0
 16 10  1  0
  1 19  1  0
  1 20  1  0
  1 21  1  0
  2 22  1  0
  4 23  1  0
  4 24  1  0
  4 25  1  0
  5 26  1  0
  5 27  1  0
  7 28  1  0
  7 29  1  0
  8 30  1  0
  8 31  1  0
 11 32  1  0
 12 33  1  0
 14 34  1  0
 14 35  1  0
 14 36  1  0
 15 37  1  0
 16 38  1  0
 17 39  1  0
 17 40  1  0
 18 41  1  0
 18 42  1  0
M  END
$$$$
