
     RDKit          3D

 54 57  0  0  0  0  0  0  0  0999 V2000
   -5.3626   -3.3737   -1.9225 C   0  0  0  0  0  0  0  0  0  0  0  0
   -5.2618   -3.0080   -0.5517 O   0  0  0  0  0  0  0  0  0  0  0  0
   -4.3411   -2.0483   -0.2328 C   0  0  0  0  0  0  0  0  0  0  0  0
   -3.4550   -1.4342   -1.1213 C   0  0  0  0  0  0  0  0  0  0  0  0
   -2.5581   -0.4658   -0.6599 C   0  0  0  0  0  0  0  0  0  0  0  0
   -2.5371   -0.1281    0.6955 C   0  0  0  0  0  0  0  0  0  0  0  0
   -1.5967    0.9155    1.1609 C   0  0  0  0  0  0  0  0  0  0  0  0
   -1.8275    2.1274    0.7660 N   0  0  0  0  0  0  0  0  0  0  0  0
   -0.9697    3.1472    1.1853 C   0  0  0  0  0  0  0  0  0  0  0  0
   -1.2116    4.4526    0.7499 C   0  0  0  0  0  0  0  0  0  0  0  0
   -0.3800    5.5032    1.1480 C   0  0  0  0  0  0  0  0  0  0  0  0
    0.7040    5.2547    1.9888 C   0  0  0  0  0  0  0  0  0  0  0  0
    0.9545    3.9560    2.4297 C   0  0  0  0  0  0  0  0  0  0  0  0
    0.1136    2.9115    2.0241 C   0  0  0  0  0  0  0  0  0  0  0  0
    0.3533    1.5272    2.4631 C   0  0  0  0  0  0  0  0  0  0  0  0
    1.2925    1.3010    3.2235 O   0  0  0  0  0  0  0  0  0  0  0  0
   -0.5288    0.5559    1.9817 N   0  0  0  0  0  0  0  0  0  0  0  0
   -0.1827   -0.8429    2.2925 C   0  0  0  0  0  0  0  0  0  0  0  0
    0.5659   -1.5358    1.1450 C   0  0  0  0  0  0  0  0  0  0  0  0
    1.8105   -0.8726    0.9265 O   0  0  0  0  0  0  0  0  0  0  0  0
    2.4454   -1.1276   -0.2593 C   0  0  0  0  0  0  0  0  0  0  0  0
    2.2652   -2.2897   -1.0131 C   0  0  0  0  0  0  0  0  0  0  0  0
    2.9631   -2.4697   -2.2105 C   0  0  0  0  0  0  0  0  0  0  0  0
    3.8466   -1.4899   -2.6716 C   0  0  0  0  0  0  0  0  0  0  0  0
    4.6202   -1.6969   -3.9398 C   0  0  0  0  0  0  0  0  0  0  0  0
    4.0475   -0.3396   -1.8993 C   0  0  0  0  0  0  0  0  0  0  0  0
    3.3568   -0.1508   -0.6918 C   0  0  0  0  0  0  0  0  0  0  0  0
    3.5773    1.1024    0.1103 C   0  0  0  0  0  0  0  0  0  0  0  0
   -3.4384   -0.7129    1.5855 C   0  0  0  0  0  0  0  0  0  0  0  0
   -4.3297   -1.6800    1.1176 C   0  0  0  0  0  0  0  0  0  0  0  0
   -6.1524   -4.1259   -2.0105 H   0  0  0  0  0  0  0  0  0  0  0  0
   -5.6486   -2.5163   -2.5406 H   0  0  0  0  0  0  0  0  0  0  0  0
   -4.4312   -3.8257   -2.2789 H   0  0  0  0  0  0  0  0  0  0  0  0
   -3.4410   -1.6791   -2.1782 H   0  0  0  0  0  0  0  0  0  0  0  0
   -1.8803    0.0245   -1.3554 H   0  0  0  0  0  0  0  0  0  0  0  0
   -2.0571    4.6480    0.0951 H   0  0  0  0  0  0  0  0  0  0  0  0
   -0.5810    6.5137    0.8010 H   0  0  0  0  0  0  0  0  0  0  0  0
    1.3526    6.0700    2.2997 H   0  0  0  0  0  0  0  0  0  0  0  0
    1.8000    3.7565    3.0840 H   0  0  0  0  0  0  0  0  0  0  0  0
    0.4417   -0.8725    3.1926 H   0  0  0  0  0  0  0  0  0  0  0  0
   -1.0895   -1.4054    2.5253 H   0  0  0  0  0  0  0  0  0  0  0  0
   -0.0433   -1.5192    0.2357 H   0  0  0  0  0  0  0  0  0  0  0  0
    0.7591   -2.5760    1.4318 H   0  0  0  0  0  0  0  0  0  0  0  0
    1.6016   -3.0822   -0.6843 H   0  0  0  0  0  0  0  0  0  0  0  0
    2.8153   -3.3852   -2.7787 H   0  0  0  0  0  0  0  0  0  0  0  0
    4.8177   -0.7412   -4.4366 H   0  0  0  0  0  0  0  0  0  0  0  0
    5.5739   -2.1866   -3.7206 H   0  0  0  0  0  0  0  0  0  0  0  0
    4.0573   -2.3183   -4.6444 H   0  0  0  0  0  0  0  0  0  0  0  0
    4.7510    0.4180   -2.2396 H   0  0  0  0  0  0  0  0  0  0  0  0
    4.3902    1.7068   -0.3057 H   0  0  0  0  0  0  0  0  0  0  0  0
    3.8490    0.8553    1.1417 H   0  0  0  0  0  0  0  0  0  0  0  0
    2.6693    1.7137    0.1091 H   0  0  0  0  0  0  0  0  0  0  0  0
   -3.4577   -0.4166    2.6307 H   0  0  0  0  0  0  0  0  0  0  0  0
   -5.0320   -2.1442    1.8064 H   0  0  0  0  0  0  0  0  0  0  0  0
  1  2  1  0
  2  3  1  0
  3  4  2  0
  4  5  1  0
  5  6  2  0
  6  7  1  0
  7  8  2  0
  8  9  1  0
  9 10  2  0
 10 11  1  0
 11 12  2  0
 12 13  1  0
 13 14  2  0
 14 15  1  0
 15 16  2  0
 15 17  1  0
 17 18  1  0
 18 19  1  0
 19 20  1  0
 20 21  1  0
 21 22  2  0
 22 23  1  0
 23 24  2  0
 24 25  1  0
 24 26  1  0
 26 27  2  0
 27 28  1  0
  6 29  1  0
 29 30  2  0
 30  3  1  0
 17  7  1  0
 27 21  1  0
 14  9  1  0
  1 31  1  0
  1 32  1  0
  1 33  1  0
  4 34  1  0
  5 35  1  0
 10 36  1  0
 11 37  1  0
 12 38  1  0
 13 39  1  0
 18 40  1  0
 18 41  1  0
 19 42  1  0
 19 43  1  0
 22 44  1  0
 23 45  1  0
 25 46  1  0
 25 47  1  0
 25 48  1  0
 26 49  1  0
 28 50  1  0
 28 51  1  0
 28 52  1  0
 29 53  1  0
 30 54  1  0
M  END
$$$$
