
     RDKit          3D

 59 64  0  0  0  0  0  0  0  0999 V2000
   -3.9805    2.1356   -2.2306 C   0  0  0  0  0  0  0  0  0  0  0  0
   -3.8383    1.0636   -1.3101 O   0  0  0  0  0  0  0  0  0  0  0  0
   -4.9729    0.6132   -0.6809 C   0  0  0  0  0  0  0  0  0  0  0  0
   -6.2677    1.0468   -1.0015 C   0  0  0  0  0  0  0  0  0  0  0  0
   -7.3767    0.5568   -0.3059 C   0  0  0  0  0  0  0  0  0  0  0  0
   -7.2053   -0.3699    0.7153 C   0  0  0  0  0  0  0  0  0  0  0  0
   -5.9227   -0.8113    1.0380 C   0  0  0  0  0  0  0  0  0  0  0  0
   -4.7908   -0.3411    0.3483 C   0  0  0  0  0  0  0  0  0  0  0  0
   -3.5429   -0.8460    0.7734 N   0  0  0  0  0  0  0  0  0  0  0  0
   -2.6967   -1.4495   -0.2846 C   0  0  0  0  0  0  0  0  0  0  0  0
   -1.3372   -0.7378   -0.4664 C   0  0  0  0  0  0  0  0  0  0  0  0
   -0.5726   -0.6464    0.8108 N   0  0  0  0  0  0  0  0  0  0  0  0
    0.6030    0.0517    0.7271 C   0  0  0  0  0  0  0  0  0  0  0  0
    0.8242    1.4008    0.9336 C   0  0  0  0  0  0  0  0  0  0  0  0
    2.1749    1.6746    0.6343 C   0  0  0  0  0  0  0  0  0  0  0  0
    2.7626    0.4886    0.2365 C   0  0  0  0  0  0  0  0  0  0  0  0
    4.1061    0.1763   -0.2035 C   0  0  0  0  0  0  0  0  0  0  0  0
    5.1036    1.2549   -0.4255 C   0  0  0  0  0  0  0  0  0  0  0  0
    4.8003    2.3698   -1.2170 C   0  0  0  0  0  0  0  0  0  0  0  0
    5.7632    3.3610   -1.4163 C   0  0  0  0  0  0  0  0  0  0  0  0
    7.0282    3.2330   -0.8376 C   0  0  0  0  0  0  0  0  0  0  0  0
    7.3387    2.1103   -0.0674 C   0  0  0  0  0  0  0  0  0  0  0  0
    6.3798    1.1171    0.1350 C   0  0  0  0  0  0  0  0  0  0  0  0
    4.4741   -1.0540   -0.4038 N   0  0  0  0  0  0  0  0  0  0  0  0
    3.5411   -2.0915   -0.2071 C   0  0  0  0  0  0  0  0  0  0  0  0
    3.9827   -3.4022   -0.4106 C   0  0  0  0  0  0  0  0  0  0  0  0
    3.1224   -4.4844   -0.2194 C   0  0  0  0  0  0  0  0  0  0  0  0
    1.8091   -4.2629    0.1884 C   0  0  0  0  0  0  0  0  0  0  0  0
    1.3485   -2.9608    0.3952 C   0  0  0  0  0  0  0  0  0  0  0  0
    2.2069   -1.8766    0.1835 C   0  0  0  0  0  0  0  0  0  0  0  0
    1.8242   -0.5245    0.3759 N   0  0  0  0  0  0  0  0  0  0  0  0
   -1.4268   -0.4193    2.0080 C   0  0  0  0  0  0  0  0  0  0  0  0
   -2.8317    0.1097    1.6520 C   0  0  0  0  0  0  0  0  0  0  0  0
   -4.4106    3.0170   -1.7478 H   0  0  0  0  0  0  0  0  0  0  0  0
   -4.5673    1.8320   -3.1039 H   0  0  0  0  0  0  0  0  0  0  0  0
   -2.9806    2.4059   -2.5828 H   0  0  0  0  0  0  0  0  0  0  0  0
   -6.4506    1.7671   -1.7913 H   0  0  0  0  0  0  0  0  0  0  0  0
   -8.3755    0.9010   -0.5637 H   0  0  0  0  0  0  0  0  0  0  0  0
   -8.0643   -0.7525    1.2595 H   0  0  0  0  0  0  0  0  0  0  0  0
   -5.7932   -1.5417    1.8336 H   0  0  0  0  0  0  0  0  0  0  0  0
   -3.2158   -1.5168   -1.2480 H   0  0  0  0  0  0  0  0  0  0  0  0
   -2.5005   -2.4828    0.0252 H   0  0  0  0  0  0  0  0  0  0  0  0
   -1.4912    0.2691   -0.8705 H   0  0  0  0  0  0  0  0  0  0  0  0
   -0.7464   -1.2952   -1.2027 H   0  0  0  0  0  0  0  0  0  0  0  0
    0.0753    2.1205    1.2354 H   0  0  0  0  0  0  0  0  0  0  0  0
    2.6558    2.6431    0.6905 H   0  0  0  0  0  0  0  0  0  0  0  0
    3.8275    2.4651   -1.6943 H   0  0  0  0  0  0  0  0  0  0  0  0
    5.5303    4.2291   -2.0295 H   0  0  0  0  0  0  0  0  0  0  0  0
    7.7777    4.0044   -0.9959 H   0  0  0  0  0  0  0  0  0  0  0  0
    8.3285    2.0042    0.3712 H   0  0  0  0  0  0  0  0  0  0  0  0
    6.6259    0.2383    0.7290 H   0  0  0  0  0  0  0  0  0  0  0  0
    5.0111   -3.5749   -0.7182 H   0  0  0  0  0  0  0  0  0  0  0  0
    3.4808   -5.4972   -0.3801 H   0  0  0  0  0  0  0  0  0  0  0  0
    1.1411   -5.1058    0.3532 H   0  0  0  0  0  0  0  0  0  0  0  0
    0.3286   -2.8306    0.7373 H   0  0  0  0  0  0  0  0  0  0  0  0
   -1.5278   -1.3843    2.5211 H   0  0  0  0  0  0  0  0  0  0  0  0
   -0.9512    0.2633    2.7228 H   0  0  0  0  0  0  0  0  0  0  0  0
   -2.7378    1.0942    1.1753 H   0  0  0  0  0  0  0  0  0  0  0  0
   -3.4009    0.2415    2.5806 H   0  0  0  0  0  0  0  0  0  0  0  0
  1  2  1  0
  2  3  1  0
  3  4  2  0
  4  5  1  0
  5  6  2  0
  6  7  1  0
  7  8  2  0
  8  9  1  0
  9 10  1  0
 10 11  1  0
 11 12  1  0
 12 13  1  0
 13 14  2  0
 14 15  1  0
 15 16  2  0
 16 17  1  0
 17 18  1  0
 18 19  2  0
 19 20  1  0
 20 21  2  0
 21 22  1  0
 22 23  2  0
 17 24  2  0
 24 25  1  0
 25 26  2  0
 26 27  1  0
 27 28  2  0
 28 29  1  0
 29 30  2  0
 30 31  1  0
 12 32  1  0
 32 33  1  0
  8  3  1  0
 33  9  1  0
 31 13  1  0
 31 16  1  0
 23 18  1  0
 30 25  1  0
  1 34  1  0
  1 35  1  0
  1 36  1  0
  4 37  1  0
  5 38  1  0
  6 39  1  0
  7 40  1  0
 10 41  1  0
 10 42  1  0
 11 43  1  0
 11 44  1  0
 14 45  1  0
 15 46  1  0
 19 47  1  0
 20 48  1  0
 21 49  1  0
 22 50  1  0
 23 51  1  0
 26 52  1  0
 27 53  1  0
 28 54  1  0
 29 55  1  0
 32 56  1  0
 32 57  1  0
 33 58  1  0
 33 59  1  0
M  END
$$$$
