
     RDKit          3D

 52 55  0  0  0  0  0  0  0  0999 V2000
    6.2278   -2.4978   -1.2571 C   0  0  0  0  0  0  0  0  0  0  0  0
    5.5566   -1.3633   -0.5801 C   0  0  0  0  0  0  0  0  0  0  0  0
    4.1907   -1.0075   -0.6178 C   0  0  0  0  0  0  0  0  0  0  0  0
    4.0696    0.1287    0.1666 C   0  0  0  0  0  0  0  0  0  0  0  0
    2.9197    0.9404    0.4982 C   0  0  0  0  0  0  0  0  0  0  0  0
    2.9926    1.9974    1.1182 O   0  0  0  0  0  0  0  0  0  0  0  0
    1.7105    0.4349    0.0776 N   0  0  0  0  0  0  0  0  0  0  0  0
    0.4603    1.0697    0.4403 C   0  0  0  0  0  0  0  0  0  0  0  0
    0.0490    0.6830    1.8815 C   0  0  0  0  0  0  0  0  0  0  0  0
   -1.4597    0.9154    2.1899 C   0  0  0  0  0  0  0  0  0  0  0  0
   -1.8053    2.4164    2.1032 C   0  0  0  0  0  0  0  0  0  0  0  0
   -1.7501    0.4445    3.6278 C   0  0  0  0  0  0  0  0  0  0  0  0
   -2.3502    0.0927    1.2055 C   0  0  0  0  0  0  0  0  0  0  0  0
   -1.8419    0.1850   -0.1958 C   0  0  0  0  0  0  0  0  0  0  0  0
   -0.5792    0.6389   -0.5367 C   0  0  0  0  0  0  0  0  0  0  0  0
   -0.5842    0.6843   -1.9343 C   0  0  0  0  0  0  0  0  0  0  0  0
   -1.7330    0.2552   -2.4493 N   0  0  0  0  0  0  0  0  0  0  0  0
   -2.5049   -0.1045   -1.3825 N   0  0  0  0  0  0  0  0  0  0  0  0
   -3.7864   -0.6882   -1.6294 C   0  0  0  0  0  0  0  0  0  0  0  0
   -4.5433   -1.3130   -0.6295 C   0  0  0  0  0  0  0  0  0  0  0  0
   -5.7935   -1.8720   -0.9269 C   0  0  0  0  0  0  0  0  0  0  0  0
   -6.2946   -1.8200   -2.2244 C   0  0  0  0  0  0  0  0  0  0  0  0
   -5.5397   -1.2168   -3.2197 C   0  0  0  0  0  0  0  0  0  0  0  0
   -6.0166   -1.1728   -4.4705 F   0  0  0  0  0  0  0  0  0  0  0  0
   -4.2974   -0.6579   -2.9392 C   0  0  0  0  0  0  0  0  0  0  0  0
    5.3517    0.3825    0.6003 N   0  0  0  0  0  0  0  0  0  0  0  0
    5.7966    1.4721    1.4411 C   0  0  0  0  0  0  0  0  0  0  0  0
    6.2610   -0.5140    0.1692 N   0  0  0  0  0  0  0  0  0  0  0  0
    6.7660   -2.1467   -2.1420 H   0  0  0  0  0  0  0  0  0  0  0  0
    6.9439   -2.9852   -0.5867 H   0  0  0  0  0  0  0  0  0  0  0  0
    5.4996   -3.2510   -1.5759 H   0  0  0  0  0  0  0  0  0  0  0  0
    3.4094   -1.5169   -1.1629 H   0  0  0  0  0  0  0  0  0  0  0  0
    1.6714   -0.5096   -0.2741 H   0  0  0  0  0  0  0  0  0  0  0  0
    0.5830    2.1579    0.3764 H   0  0  0  0  0  0  0  0  0  0  0  0
    0.6747    1.2332    2.5969 H   0  0  0  0  0  0  0  0  0  0  0  0
    0.2755   -0.3811    2.0465 H   0  0  0  0  0  0  0  0  0  0  0  0
   -2.8469    2.5958    2.3931 H   0  0  0  0  0  0  0  0  0  0  0  0
   -1.1693    3.0031    2.7760 H   0  0  0  0  0  0  0  0  0  0  0  0
   -1.6773    2.8168    1.0930 H   0  0  0  0  0  0  0  0  0  0  0  0
   -1.1641    1.0152    4.3570 H   0  0  0  0  0  0  0  0  0  0  0  0
   -1.5003   -0.6143    3.7575 H   0  0  0  0  0  0  0  0  0  0  0  0
   -2.8096    0.5694    3.8780 H   0  0  0  0  0  0  0  0  0  0  0  0
   -2.3309   -0.9626    1.5044 H   0  0  0  0  0  0  0  0  0  0  0  0
   -3.3830    0.4529    1.2721 H   0  0  0  0  0  0  0  0  0  0  0  0
    0.1975    1.0231   -2.6029 H   0  0  0  0  0  0  0  0  0  0  0  0
   -4.1912   -1.4225    0.3874 H   0  0  0  0  0  0  0  0  0  0  0  0
   -6.3724   -2.3560   -0.1433 H   0  0  0  0  0  0  0  0  0  0  0  0
   -7.2611   -2.2495   -2.4681 H   0  0  0  0  0  0  0  0  0  0  0  0
   -3.7486   -0.1953   -3.7561 H   0  0  0  0  0  0  0  0  0  0  0  0
    5.2449    1.4344    2.3836 H   0  0  0  0  0  0  0  0  0  0  0  0
    6.8657    1.3638    1.6414 H   0  0  0  0  0  0  0  0  0  0  0  0
    5.6171    2.4118    0.9130 H   0  0  0  0  0  0  0  0  0  0  0  0
  1  2  1  0
  2  3  1  0
  3  4  2  0
  4  5  1  0
  5  6  2  0
  5  7  1  0
  7  8  1  0
  8  9  1  0
  9 10  1  0
 10 11  1  0
 10 12  1  0
 10 13  1  0
 13 14  1  0
 14 15  2  0
 15 16  1  0
 16 17  2  0
 17 18  1  0
 18 19  1  0
 19 20  2  0
 20 21  1  0
 21 22  2  0
 22 23  1  0
 23 24  1  0
 23 25  2  0
  4 26  1  0
 26 27  1  0
 26 28  1  0
 28  2  2  0
 15  8  1  0
 25 19  1  0
 18 14  1  0
  1 29  1  0
  1 30  1  0
  1 31  1  0
  3 32  1  0
  7 33  1  0
  8 34  1  0
  9 35  1  0
  9 36  1  0
 11 37  1  0
 11 38  1  0
 11 39  1  0
 12 40  1  0
 12 41  1  0
 12 42  1  0
 13 43  1  0
 13 44  1  0
 16 45  1  0
 20 46  1  0
 21 47  1  0
 22 48  1  0
 25 49  1  0
 27 50  1  0
 27 51  1  0
 27 52  1  0
M  END
$$$$
