
     RDKit          3D

 56 60  0  0  0  0  0  0  0  0999 V2000
   -4.8084   -3.4565    1.2139 C   0  0  0  0  0  0  0  0  0  0  0  0
   -3.5756   -2.6566    0.8980 C   0  0  0  0  0  0  0  0  0  0  0  0
   -2.4580   -3.3315    0.3825 C   0  0  0  0  0  0  0  0  0  0  0  0
   -1.2710   -2.6502    0.0954 C   0  0  0  0  0  0  0  0  0  0  0  0
   -1.1568   -1.2713    0.3154 C   0  0  0  0  0  0  0  0  0  0  0  0
    0.1012   -0.5686    0.0214 C   0  0  0  0  0  0  0  0  0  0  0  0
    1.1358   -0.9630    0.7940 N   0  0  0  0  0  0  0  0  0  0  0  0
    2.3646   -0.3816    0.6501 N   0  0  0  0  0  0  0  0  0  0  0  0
    2.5742    0.5930   -0.2591 C   0  0  0  0  0  0  0  0  0  0  0  0
    3.8688    1.1621   -0.4105 N   0  0  0  0  0  0  0  0  0  0  0  0
    4.9807    1.0460    0.4569 C   0  0  0  0  0  0  0  0  0  0  0  0
    4.8383    0.8846    1.8533 C   0  0  0  0  0  0  0  0  0  0  0  0
    5.9504    0.8414    2.7044 C   0  0  0  0  0  0  0  0  0  0  0  0
    7.1952    0.9887    2.1388 C   0  0  0  0  0  0  0  0  0  0  0  0
    7.3506    1.1806    0.7885 C   0  0  0  0  0  0  0  0  0  0  0  0
    6.2711    1.2270   -0.0708 C   0  0  0  0  0  0  0  0  0  0  0  0
    8.6558    1.3213    0.4308 O   0  0  0  0  0  0  0  0  0  0  0  0
    9.3030    1.1863    1.7138 C   0  0  0  0  0  0  0  0  0  0  0  0
    8.3806    0.9811    2.8033 O   0  0  0  0  0  0  0  0  0  0  0  0
    1.5199    1.0407   -1.0903 C   0  0  0  0  0  0  0  0  0  0  0  0
    1.6720    2.0778   -2.0462 C   0  0  0  0  0  0  0  0  0  0  0  0
    0.6214    2.4808   -2.8711 C   0  0  0  0  0  0  0  0  0  0  0  0
   -0.6123    1.8590   -2.7651 C   0  0  0  0  0  0  0  0  0  0  0  0
   -0.7970    0.8482   -1.8224 C   0  0  0  0  0  0  0  0  0  0  0  0
    0.2493    0.4311   -0.9591 C   0  0  0  0  0  0  0  0  0  0  0  0
   -2.2626   -0.5956    0.8542 C   0  0  0  0  0  0  0  0  0  0  0  0
   -3.4618   -1.2743    1.1354 C   0  0  0  0  0  0  0  0  0  0  0  0
   -4.8064   -0.3153    1.8104 S   0  0  0  0  0  6  0  0  0  0  0  0
   -5.4185   -1.0710    2.8787 O   0  0  0  0  0  0  0  0  0  0  0  0
   -4.3675    1.0491    2.0037 O   0  0  0  0  0  0  0  0  0  0  0  0
   -5.9049   -0.3124    0.5360 N   0  0  0  0  0  0  0  0  0  0  0  0
   -5.7149    0.6656   -0.5511 C   0  0  0  0  0  0  0  0  0  0  0  0
   -6.0883    0.0174   -1.8841 C   0  0  0  0  0  0  0  0  0  0  0  0
   -7.4224   -0.4827   -1.8450 O   0  0  0  0  0  0  0  0  0  0  0  0
   -4.7561   -4.4564    0.7685 H   0  0  0  0  0  0  0  0  0  0  0  0
   -5.7058   -2.9849    0.8053 H   0  0  0  0  0  0  0  0  0  0  0  0
   -4.9120   -3.5840    2.2954 H   0  0  0  0  0  0  0  0  0  0  0  0
   -2.4955   -4.4060    0.2078 H   0  0  0  0  0  0  0  0  0  0  0  0
   -0.4203   -3.2099   -0.2927 H   0  0  0  0  0  0  0  0  0  0  0  0
    4.1474    1.0741   -1.3825 H   0  0  0  0  0  0  0  0  0  0  0  0
    3.8498    0.7965    2.2989 H   0  0  0  0  0  0  0  0  0  0  0  0
    5.8310    0.7053    3.7731 H   0  0  0  0  0  0  0  0  0  0  0  0
    6.4362    1.3970   -1.1283 H   0  0  0  0  0  0  0  0  0  0  0  0
    9.8819    2.0959    1.9111 H   0  0  0  0  0  0  0  0  0  0  0  0
    9.9912    0.3342    1.6711 H   0  0  0  0  0  0  0  0  0  0  0  0
    2.6218    2.6003   -2.1478 H   0  0  0  0  0  0  0  0  0  0  0  0
    0.7712    3.2801   -3.5929 H   0  0  0  0  0  0  0  0  0  0  0  0
   -1.4334    2.1622   -3.4099 H   0  0  0  0  0  0  0  0  0  0  0  0
   -1.7774    0.3793   -1.7711 H   0  0  0  0  0  0  0  0  0  0  0  0
   -2.1780    0.4702    1.0675 H   0  0  0  0  0  0  0  0  0  0  0  0
   -6.8597   -0.4530    0.8685 H   0  0  0  0  0  0  0  0  0  0  0  0
   -6.3674    1.5221   -0.3518 H   0  0  0  0  0  0  0  0  0  0  0  0
   -4.6788    1.0121   -0.6092 H   0  0  0  0  0  0  0  0  0  0  0  0
   -6.0224    0.7512   -2.6928 H   0  0  0  0  0  0  0  0  0  0  0  0
   -5.4171   -0.8155   -2.1201 H   0  0  0  0  0  0  0  0  0  0  0  0
   -7.4131   -1.2218   -1.2113 H   0  0  0  0  0  0  0  0  0  0  0  0
  1  2  1  0
  2  3  2  0
  3  4  1  0
  4  5  2  0
  5  6  1  0
  6  7  2  0
  7  8  1  0
  8  9  2  0
  9 10  1  0
 10 11  1  0
 11 12  2  0
 12 13  1  0
 13 14  2  0
 14 15  1  0
 15 16  2  0
 15 17  1  0
 17 18  1  0
 18 19  1  0
  9 20  1  0
 20 21  2  0
 21 22  1  0
 22 23  2  0
 23 24  1  0
 24 25  2  0
  5 26  1  0
 26 27  2  0
 27 28  1  0
 28 29  2  0
 28 30  2  0
 28 31  1  0
 31 32  1  0
 32 33  1  0
 33 34  1  0
 27  2  1  0
 25  6  1  0
 16 11  1  0
 25 20  1  0
 19 14  1  0
  1 35  1  0
  1 36  1  0
  1 37  1  0
  3 38  1  0
  4 39  1  0
 10 40  1  0
 12 41  1  0
 13 42  1  0
 16 43  1  0
 18 44  1  0
 18 45  1  0
 21 46  1  0
 22 47  1  0
 23 48  1  0
 24 49  1  0
 26 50  1  0
 31 51  1  0
 32 52  1  0
 32 53  1  0
 33 54  1  0
 33 55  1  0
 34 56  1  0
M  END
$$$$
