
     RDKit          3D

 42 45  0  0  0  0  0  0  0  0999 V2000
    2.5223    2.3205    0.1116 O   0  0  0  0  0  0  0  0  0  0  0  0
    2.6027    1.1024    0.2494 C   0  0  0  0  0  0  0  0  0  0  0  0
    3.9542    0.5011    0.3375 C   0  0  0  0  0  0  0  0  0  0  0  0
    4.9513    0.9431   -0.5422 C   0  0  0  0  0  0  0  0  0  0  0  0
    6.2400    0.4113   -0.4606 C   0  0  0  0  0  0  0  0  0  0  0  0
    6.5328   -0.5484    0.5083 C   0  0  0  0  0  0  0  0  0  0  0  0
    5.5401   -0.9610    1.3927 C   0  0  0  0  0  0  0  0  0  0  0  0
    5.8316   -1.8737    2.3285 F   0  0  0  0  0  0  0  0  0  0  0  0
    4.2535   -0.4420    1.3246 C   0  0  0  0  0  0  0  0  0  0  0  0
    1.4877    0.2672    0.3523 N   0  0  0  0  0  0  0  0  0  0  0  0
    0.1656    0.9204    0.3739 C   0  0  0  0  0  0  0  0  0  0  0  0
   -0.4147    0.9843   -1.0475 C   0  0  0  0  0  0  0  0  0  0  0  0
   -0.4649   -0.3726   -1.6162 N   0  0  0  0  0  0  0  0  0  0  0  0
   -1.6047   -1.1700   -1.7638 C   0  0  0  0  0  0  0  0  0  0  0  0
   -1.5270   -2.2813   -2.2919 O   0  0  0  0  0  0  0  0  0  0  0  0
   -2.9178   -0.6911   -1.2824 C   0  0  0  0  0  0  0  0  0  0  0  0
   -4.1710   -1.1067   -1.8020 C   0  0  0  0  0  0  0  0  0  0  0  0
   -5.1260   -0.4765   -1.0442 C   0  0  0  0  0  0  0  0  0  0  0  0
   -6.4923   -0.4923   -1.0995 N   0  0  0  0  0  0  0  0  0  0  0  0
   -7.1000    0.2292   -0.2026 C   0  0  0  0  0  0  0  0  0  0  0  0
   -6.4432    1.0544    0.8573 C   0  0  0  0  0  0  0  0  0  0  0  0
   -7.4822    2.0150    2.0455 Br  0  0  0  0  0  0  0  0  0  0  0  0
   -5.1045    1.0238    0.8536 C   0  0  0  0  0  0  0  0  0  0  0  0
   -4.4264    0.2630   -0.0906 N   0  0  0  0  0  0  0  0  0  0  0  0
   -3.0864    0.1239   -0.2236 N   0  0  0  0  0  0  0  0  0  0  0  0
    0.8480   -1.0246   -1.6729 C   0  0  0  0  0  0  0  0  0  0  0  0
    1.4675   -1.0795   -0.2582 C   0  0  0  0  0  0  0  0  0  0  0  0
    4.7239    1.7051   -1.2854 H   0  0  0  0  0  0  0  0  0  0  0  0
    7.0141    0.7512   -1.1444 H   0  0  0  0  0  0  0  0  0  0  0  0
    7.5306   -0.9691    0.5879 H   0  0  0  0  0  0  0  0  0  0  0  0
    3.5056   -0.7660    2.0408 H   0  0  0  0  0  0  0  0  0  0  0  0
    0.2399    1.9247    0.8033 H   0  0  0  0  0  0  0  0  0  0  0  0
   -0.4766    0.3210    1.0290 H   0  0  0  0  0  0  0  0  0  0  0  0
   -1.3812    1.4865   -1.0762 H   0  0  0  0  0  0  0  0  0  0  0  0
    0.2511    1.5701   -1.6941 H   0  0  0  0  0  0  0  0  0  0  0  0
   -4.3465   -1.7829   -2.6270 H   0  0  0  0  0  0  0  0  0  0  0  0
   -8.2031    0.2467   -0.2083 H   0  0  0  0  0  0  0  0  0  0  0  0
   -4.4872    1.5655    1.5569 H   0  0  0  0  0  0  0  0  0  0  0  0
    0.7828   -2.0354   -2.0859 H   0  0  0  0  0  0  0  0  0  0  0  0
    1.4808   -0.4287   -2.3412 H   0  0  0  0  0  0  0  0  0  0  0  0
    0.8619   -1.7180    0.3955 H   0  0  0  0  0  0  0  0  0  0  0  0
    2.4677   -1.5108   -0.3270 H   0  0  0  0  0  0  0  0  0  0  0  0
  1  2  2  0
  2  3  1  0
  3  4  2  0
  4  5  1  0
  5  6  2  0
  6  7  1  0
  7  8  1  0
  7  9  2  0
  2 10  1  0
 10 11  1  0
 11 12  1  0
 12 13  1  0
 13 14  1  0
 14 15  2  0
 14 16  1  0
 16 17  1  0
 17 18  2  0
 18 19  1  0
 19 20  2  0
 20 21  1  0
 21 22  1  0
 21 23  2  0
 23 24  1  0
 24 25  1  0
 13 26  1  0
 26 27  1  0
  9  3  1  0
 27 10  1  0
 25 16  2  0
 24 18  1  0
  4 28  1  0
  5 29  1  0
  6 30  1  0
  9 31  1  0
 11 32  1  0
 11 33  1  0
 12 34  1  0
 12 35  1  0
 17 36  1  0
 20 37  1  0
 23 38  1  0
 26 39  1  0
 26 40  1  0
 27 41  1  0
 27 42  1  0
M  END
$$$$
