
     RDKit          3D

 92 95  0  0  0  0  0  0  0  0999 V2000
    1.8464    4.9966    0.8938 C   0  0  0  0  0  0  0  0  0  0  0  0
    2.9026    4.1785    0.9788 C   0  0  0  0  0  0  0  0  0  0  0  0
    2.9847    3.0085    1.9244 C   0  0  0  0  0  0  0  0  0  0  0  0
    2.9977    1.6605    1.1835 C   0  0  0  0  0  0  0  0  0  0  0  0
    3.8991    0.6455    1.9098 C   0  0  0  0  0  0  0  0  0  0  0  0
    4.1132   -0.6154    1.0785 C   0  0  0  0  0  0  0  0  0  0  0  0
    3.5969   -0.7278   -0.0344 O   0  0  0  0  0  0  0  0  0  0  0  0
    4.9161   -1.6077    1.6335 N   0  0  0  0  0  0  0  0  0  0  0  0
    5.7564   -1.4072    2.8278 C   0  0  0  0  0  0  0  0  0  0  0  0
    7.1267   -0.8041    2.4876 C   0  0  0  0  0  0  0  0  0  0  0  0
    8.0083   -1.8099    1.9983 O   0  0  0  0  0  0  0  0  0  0  0  0
    5.1463   -2.8249    0.8500 C   0  0  0  0  0  0  0  0  0  0  0  0
    4.8034   -4.0816    1.6141 C   0  0  0  0  0  0  0  0  0  0  0  0
    5.8127   -4.9681    2.0183 C   0  0  0  0  0  0  0  0  0  0  0  0
    5.4947   -6.1190    2.7393 C   0  0  0  0  0  0  0  0  0  0  0  0
    4.1661   -6.3954    3.0650 C   0  0  0  0  0  0  0  0  0  0  0  0
    3.1540   -5.5206    2.6720 C   0  0  0  0  0  0  0  0  0  0  0  0
    3.4732   -4.3697    1.9504 C   0  0  0  0  0  0  0  0  0  0  0  0
    1.5729    1.1177    1.1181 C   0  0  0  0  0  0  0  0  0  0  0  0
    1.0980    0.4036    1.9949 O   0  0  0  0  0  0  0  0  0  0  0  0
    0.8595    1.5261    0.0172 N   0  0  0  0  0  0  0  0  0  0  0  0
   -0.4767    1.0042   -0.2730 C   0  0  0  0  0  0  0  0  0  0  0  0
   -0.4046   -0.4991   -0.6396 C   0  0  0  0  0  0  0  0  0  0  0  0
   -1.7033   -1.0262   -0.9777 O   0  0  0  0  0  0  0  0  0  0  0  0
   -1.9496   -1.2342   -2.2991 C   0  0  0  0  0  0  0  0  0  0  0  0
   -1.1376   -1.0142   -3.1900 O   0  0  0  0  0  0  0  0  0  0  0  0
   -3.3467   -1.8009   -2.5415 C   0  0  0  0  0  0  0  0  0  0  0  0
   -3.8167   -1.4338   -3.9687 C   0  0  0  0  0  0  0  0  0  0  0  0
   -4.0076    0.0411   -4.2139 C   0  0  0  0  0  0  0  0  0  0  0  0
   -5.1754    0.6040   -4.5501 C   0  0  0  0  0  0  0  0  0  0  0  0
   -4.3451   -1.3834   -1.4398 C   0  0  0  0  0  0  0  0  0  0  0  0
   -5.7256   -1.9842   -1.5841 C   0  0  0  0  0  0  0  0  0  0  0  0
   -5.9127   -3.3726   -1.5065 C   0  0  0  0  0  0  0  0  0  0  0  0
   -7.1874   -3.9208   -1.6558 C   0  0  0  0  0  0  0  0  0  0  0  0
   -8.2727   -3.0828   -1.8768 C   0  0  0  0  0  0  0  0  0  0  0  0
   -9.4937   -3.6109   -2.0249 F   0  0  0  0  0  0  0  0  0  0  0  0
   -8.1115   -1.7051   -1.9400 C   0  0  0  0  0  0  0  0  0  0  0  0
   -6.8395   -1.1553   -1.7851 C   0  0  0  0  0  0  0  0  0  0  0  0
   -1.1810    1.8155   -1.3808 C   0  0  0  0  0  0  0  0  0  0  0  0
   -1.2675    3.2930   -1.1350 C   0  0  0  0  0  0  0  0  0  0  0  0
   -0.6800    4.2732   -1.9117 C   0  0  0  0  0  0  0  0  0  0  0  0
   -0.9984    5.4926   -1.3805 N   0  0  0  0  0  0  0  0  0  0  0  0
   -1.7932    5.3375   -0.2711 C   0  0  0  0  0  0  0  0  0  0  0  0
   -2.3519    6.3010    0.5787 C   0  0  0  0  0  0  0  0  0  0  0  0
   -3.1357    5.8486    1.6450 C   0  0  0  0  0  0  0  0  0  0  0  0
   -3.3540    4.4878    1.8461 C   0  0  0  0  0  0  0  0  0  0  0  0
   -2.7907    3.5393    0.9841 C   0  0  0  0  0  0  0  0  0  0  0  0
   -1.9874    3.9659   -0.0942 C   0  0  0  0  0  0  0  0  0  0  0  0
    0.9527    4.8499    1.4975 H   0  0  0  0  0  0  0  0  0  0  0  0
    1.8459    5.8369    0.2053 H   0  0  0  0  0  0  0  0  0  0  0  0
    3.7742    4.3727    0.3538 H   0  0  0  0  0  0  0  0  0  0  0  0
    3.9090    3.1374    2.5032 H   0  0  0  0  0  0  0  0  0  0  0  0
    2.1631    3.0483    2.6529 H   0  0  0  0  0  0  0  0  0  0  0  0
    3.3754    1.7933    0.1608 H   0  0  0  0  0  0  0  0  0  0  0  0
    4.8814    1.1051    2.0785 H   0  0  0  0  0  0  0  0  0  0  0  0
    3.4655    0.3635    2.8757 H   0  0  0  0  0  0  0  0  0  0  0  0
    5.8724   -2.3650    3.3485 H   0  0  0  0  0  0  0  0  0  0  0  0
    5.2409   -0.7323    3.5155 H   0  0  0  0  0  0  0  0  0  0  0  0
    7.5827   -0.3932    3.3921 H   0  0  0  0  0  0  0  0  0  0  0  0
    7.0460   -0.0114    1.7329 H   0  0  0  0  0  0  0  0  0  0  0  0
    8.7674   -1.3512    1.5950 H   0  0  0  0  0  0  0  0  0  0  0  0
    6.1896   -2.8279    0.5235 H   0  0  0  0  0  0  0  0  0  0  0  0
    4.5544   -2.8210   -0.0700 H   0  0  0  0  0  0  0  0  0  0  0  0
    6.8527   -4.7605    1.7745 H   0  0  0  0  0  0  0  0  0  0  0  0
    6.2848   -6.8008    3.0492 H   0  0  0  0  0  0  0  0  0  0  0  0
    3.9188   -7.2916    3.6273 H   0  0  0  0  0  0  0  0  0  0  0  0
    2.1215   -5.7263    2.9361 H   0  0  0  0  0  0  0  0  0  0  0  0
    2.6806   -3.6843    1.6536 H   0  0  0  0  0  0  0  0  0  0  0  0
    1.3366    2.0552   -0.7050 H   0  0  0  0  0  0  0  0  0  0  0  0
   -1.0629    1.0927    0.6511 H   0  0  0  0  0  0  0  0  0  0  0  0
   -0.0527   -1.0810    0.2210 H   0  0  0  0  0  0  0  0  0  0  0  0
    0.3337   -0.6717   -1.4350 H   0  0  0  0  0  0  0  0  0  0  0  0
   -3.2225   -2.8910   -2.5062 H   0  0  0  0  0  0  0  0  0  0  0  0
   -4.7404   -1.9778   -4.2029 H   0  0  0  0  0  0  0  0  0  0  0  0
   -3.0764   -1.7932   -4.6958 H   0  0  0  0  0  0  0  0  0  0  0  0
   -3.1234    0.6761   -4.1443 H   0  0  0  0  0  0  0  0  0  0  0  0
   -5.2412    1.6699   -4.7347 H   0  0  0  0  0  0  0  0  0  0  0  0
   -6.0852    0.0181   -4.6536 H   0  0  0  0  0  0  0  0  0  0  0  0
   -4.4118   -0.2893   -1.3896 H   0  0  0  0  0  0  0  0  0  0  0  0
   -3.9729   -1.6920   -0.4535 H   0  0  0  0  0  0  0  0  0  0  0  0
   -5.0697   -4.0369   -1.3308 H   0  0  0  0  0  0  0  0  0  0  0  0
   -7.3390   -4.9939   -1.6035 H   0  0  0  0  0  0  0  0  0  0  0  0
   -8.9726   -1.0691   -2.1139 H   0  0  0  0  0  0  0  0  0  0  0  0
   -6.7200   -0.0755   -1.8332 H   0  0  0  0  0  0  0  0  0  0  0  0
   -0.6602    1.6493   -2.3325 H   0  0  0  0  0  0  0  0  0  0  0  0
   -2.2048    1.4474   -1.5164 H   0  0  0  0  0  0  0  0  0  0  0  0
   -0.0615    4.2045   -2.7955 H   0  0  0  0  0  0  0  0  0  0  0  0
   -0.7062    6.3834   -1.7550 H   0  0  0  0  0  0  0  0  0  0  0  0
   -2.1870    7.3620    0.4206 H   0  0  0  0  0  0  0  0  0  0  0  0
   -3.5799    6.5673    2.3301 H   0  0  0  0  0  0  0  0  0  0  0  0
   -3.9680    4.1557    2.6811 H   0  0  0  0  0  0  0  0  0  0  0  0
   -2.9736    2.4826    1.1568 H   0  0  0  0  0  0  0  0  0  0  0  0
  1  2  2  0
  2  3  1  0
  3  4  1  0
  4  5  1  0
  5  6  1  0
  6  7  2  0
  6  8  1  0
  8  9  1  0
  9 10  1  0
 10 11  1  0
  8 12  1  0
 12 13  1  0
 13 14  2  0
 14 15  1  0
 15 16  2  0
 16 17  1  0
 17 18  2  0
  4 19  1  0
 19 20  2  0
 19 21  1  0
 21 22  1  0
 22 23  1  0
 23 24  1  0
 24 25  1  0
 25 26  2  0
 25 27  1  0
 27 28  1  0
 28 29  1  0
 29 30  2  0
 27 31  1  0
 31 32  1  0
 32 33  2  0
 33 34  1  0
 34 35  2  0
 35 36  1  0
 35 37  1  0
 37 38  2  0
 22 39  1  0
 39 40  1  0
 40 41  2  0
 41 42  1  0
 42 43  1  0
 43 44  2  0
 44 45  1  0
 45 46  2  0
 46 47  1  0
 47 48  2  0
 18 13  1  0
 38 32  1  0
 48 40  1  0
 48 43  1  0
  1 49  1  0
  1 50  1  0
  2 51  1  0
  3 52  1  0
  3 53  1  0
  4 54  1  0
  5 55  1  0
  5 56  1  0
  9 57  1  0
  9 58  1  0
 10 59  1  0
 10 60  1  0
 11 61  1  0
 12 62  1  0
 12 63  1  0
 14 64  1  0
 15 65  1  0
 16 66  1  0
 17 67  1  0
 18 68  1  0
 21 69  1  0
 22 70  1  0
 23 71  1  0
 23 72  1  0
 27 73  1  0
 28 74  1  0
 28 75  1  0
 29 76  1  0
 30 77  1  0
 30 78  1  0
 31 79  1  0
 31 80  1  0
 33 81  1  0
 34 82  1  0
 37 83  1  0
 38 84  1  0
 39 85  1  0
 39 86  1  0
 41 87  1  0
 42 88  1  0
 44 89  1  0
 45 90  1  0
 46 91  1  0
 47 92  1  0
M  END
$$$$
