
     RDKit          3D

 44 46  0  0  0  0  0  0  0  0999 V2000
    6.6992   -1.7989    0.3759 C   0  0  0  0  0  0  0  0  0  0  0  0
    6.8511   -0.8718   -0.6923 O   0  0  0  0  0  0  0  0  0  0  0  0
    5.7038   -0.2885   -1.1676 C   0  0  0  0  0  0  0  0  0  0  0  0
    4.4028   -0.5580   -0.7400 C   0  0  0  0  0  0  0  0  0  0  0  0
    3.3159    0.1138   -1.3243 C   0  0  0  0  0  0  0  0  0  0  0  0
    1.9453   -0.1704   -0.8908 C   0  0  0  0  0  0  0  0  0  0  0  0
    1.3795    0.2874    0.2332 C   0  0  0  0  0  0  0  0  0  0  0  0
    2.0820    1.3068    1.4347 S   0  0  0  0  0  0  0  0  0  0  0  0
    0.6028    1.3723    2.3934 C   0  0  0  0  0  0  0  0  0  0  0  0
    0.4689    2.2153    3.8220 S   0  0  0  0  0  0  0  0  0  0  0  0
   -0.3511    0.5949    1.7731 N   0  0  0  0  0  0  0  0  0  0  0  0
   -1.7846    0.5062    2.2565 N   0  0  0  0  0  0  0  0  0  0  0  0
   -2.7940    1.7114    1.5704 S   0  0  0  0  0  6  0  0  0  0  0  0
   -3.2770    2.5502    2.6444 O   0  0  0  0  0  0  0  0  0  0  0  0
   -2.1119    2.2680    0.4199 O   0  0  0  0  0  0  0  0  0  0  0  0
   -4.1502    0.7263    0.9872 C   0  0  0  0  0  0  0  0  0  0  0  0
   -5.2949    0.5893    1.7754 C   0  0  0  0  0  0  0  0  0  0  0  0
   -6.3585   -0.1876    1.3122 C   0  0  0  0  0  0  0  0  0  0  0  0
   -6.2892   -0.8135    0.0608 C   0  0  0  0  0  0  0  0  0  0  0  0
   -7.4194   -1.6744   -0.4253 C   0  0  0  0  0  0  0  0  0  0  0  0
   -5.1327   -0.6665   -0.7179 C   0  0  0  0  0  0  0  0  0  0  0  0
   -4.0661    0.1102   -0.2627 C   0  0  0  0  0  0  0  0  0  0  0  0
   -0.0250   -0.0419    0.5896 C   0  0  0  0  0  0  0  0  0  0  0  0
   -0.7636   -0.7809   -0.0491 O   0  0  0  0  0  0  0  0  0  0  0  0
    3.5348    1.0550   -2.3380 C   0  0  0  0  0  0  0  0  0  0  0  0
    4.8314    1.3273   -2.7689 C   0  0  0  0  0  0  0  0  0  0  0  0
    5.8977    0.6545   -2.1839 C   0  0  0  0  0  0  0  0  0  0  0  0
    7.1613    0.9328   -2.6326 O   0  0  0  0  0  0  0  0  0  0  0  0
    6.2586   -1.3179    1.2551 H   0  0  0  0  0  0  0  0  0  0  0  0
    7.6956   -2.1515    0.6550 H   0  0  0  0  0  0  0  0  0  0  0  0
    6.1130   -2.6691    0.0633 H   0  0  0  0  0  0  0  0  0  0  0  0
    4.2078   -1.2873    0.0391 H   0  0  0  0  0  0  0  0  0  0  0  0
    1.3725   -0.7924   -1.5767 H   0  0  0  0  0  0  0  0  0  0  0  0
   -2.1807   -0.4279    2.1085 H   0  0  0  0  0  0  0  0  0  0  0  0
   -5.3704    1.0793    2.7441 H   0  0  0  0  0  0  0  0  0  0  0  0
   -7.2461   -0.2964    1.9315 H   0  0  0  0  0  0  0  0  0  0  0  0
   -7.2081   -2.7244   -0.2044 H   0  0  0  0  0  0  0  0  0  0  0  0
   -7.5579   -1.5584   -1.5045 H   0  0  0  0  0  0  0  0  0  0  0  0
   -8.3638   -1.3995    0.0541 H   0  0  0  0  0  0  0  0  0  0  0  0
   -5.0604   -1.1539   -1.6885 H   0  0  0  0  0  0  0  0  0  0  0  0
   -3.1815    0.2237   -0.8853 H   0  0  0  0  0  0  0  0  0  0  0  0
    2.7018    1.5823   -2.7977 H   0  0  0  0  0  0  0  0  0  0  0  0
    5.0117    2.0555   -3.5543 H   0  0  0  0  0  0  0  0  0  0  0  0
    7.7499    0.3688   -2.0947 H   0  0  0  0  0  0  0  0  0  0  0  0
  1  2  1  0
  2  3  1  0
  3  4  2  0
  4  5  1  0
  5  6  1  0
  6  7  2  3
  7  8  1  0
  8  9  1  0
  9 10  2  0
  9 11  1  0
 11 12  1  0
 12 13  1  0
 13 14  2  0
 13 15  2  0
 13 16  1  0
 16 17  2  0
 17 18  1  0
 18 19  2  0
 19 20  1  0
 19 21  1  0
 21 22  2  0
 11 23  1  0
 23 24  2  0
  5 25  2  0
 25 26  1  0
 26 27  2  0
 27 28  1  0
 27  3  1  0
 23  7  1  0
 22 16  1  0
  1 29  1  0
  1 30  1  0
  1 31  1  0
  4 32  1  0
  6 33  1  0
 12 34  1  0
 17 35  1  0
 18 36  1  0
 20 37  1  0
 20 38  1  0
 20 39  1  0
 21 40  1  0
 22 41  1  0
 25 42  1  0
 26 43  1  0
 28 44  1  0
M  END
$$$$
