
     RDKit          3D

 21 21  0  0  0  0  0  0  0  0999 V2000
    3.1035   -0.2392   -0.2111 C   0  0  0  0  0  0  0  0  0  0  0  0
    1.6210    0.0150   -0.1790 C   0  0  0  0  0  0  0  0  0  0  0  0
    1.1417    1.2648   -0.5833 C   0  0  0  0  0  0  0  0  0  0  0  0
   -0.2222    1.5035   -0.5799 C   0  0  0  0  0  0  0  0  0  0  0  0
   -0.6816    2.7283   -0.9860 O   0  0  0  0  0  0  0  0  0  0  0  0
   -1.1580    0.5285   -0.2016 C   0  0  0  0  0  0  0  0  0  0  0  0
   -2.5140    0.9440   -0.1284 N   0  0  0  0  0  0  0  0  0  0  0  0
   -0.6974   -0.7043    0.2908 C   0  0  0  0  0  0  0  0  0  0  0  0
   -1.6554   -1.7535    0.7946 C   0  0  0  0  0  0  0  0  0  0  0  0
    0.6977   -0.9630    0.2542 C   0  0  0  0  0  0  0  0  0  0  0  0
    1.2997   -2.5184    0.7530 Cl  0  0  0  0  0  0  0  0  0  0  0  0
    3.6526    0.6346   -0.5787 H   0  0  0  0  0  0  0  0  0  0  0  0
    3.4757   -0.4587    0.7947 H   0  0  0  0  0  0  0  0  0  0  0  0
    3.3344   -1.0734   -0.8813 H   0  0  0  0  0  0  0  0  0  0  0  0
    1.8175    2.0511   -0.9081 H   0  0  0  0  0  0  0  0  0  0  0  0
   -1.6550    2.6142   -0.9860 H   0  0  0  0  0  0  0  0  0  0  0  0
   -2.6887    1.3449    0.7952 H   0  0  0  0  0  0  0  0  0  0  0  0
   -3.1516    0.1615   -0.2610 H   0  0  0  0  0  0  0  0  0  0  0  0
   -1.8183   -2.5127    0.0233 H   0  0  0  0  0  0  0  0  0  0  0  0
   -1.2761   -2.2323    1.7031 H   0  0  0  0  0  0  0  0  0  0  0  0
   -2.6257   -1.3347    1.0755 H   0  0  0  0  0  0  0  0  0  0  0  0
  1  2  1  0
  2  3  2  0
  3  4  1  0
  4  5  1  0
  4  6  2  0
  6  7  1  0
  6  8  1  0
  8  9  1  0
  8 10  2  0
 10 11  1  0
 10  2  1  0
  1 12  1  0
  1 13  1  0
  1 14  1  0
  3 15  1  0
  5 16  1  0
  7 17  1  0
  7 18  1  0
  9 19  1  0
  9 20  1  0
  9 21  1  0
M  END
$$$$
