
     RDKit          3D

 61 67  0  0  0  0  0  0  0  0999 V2000
    3.6863    0.5129   -2.9626 O   0  0  0  0  0  0  0  0  0  0  0  0
    3.3463    0.3910   -1.7887 C   0  0  0  0  0  0  0  0  0  0  0  0
    4.3695    0.6491   -0.7514 C   0  0  0  0  0  0  0  0  0  0  0  0
    4.1276    1.6017    0.2627 C   0  0  0  0  0  0  0  0  0  0  0  0
    5.1043    1.8650    1.2269 C   0  0  0  0  0  0  0  0  0  0  0  0
    6.2961    1.1763    1.1339 C   0  0  0  0  0  0  0  0  0  0  0  0
    6.5357    0.2638    0.1308 C   0  0  0  0  0  0  0  0  0  0  0  0
    5.5962   -0.0192   -0.8361 C   0  0  0  0  0  0  0  0  0  0  0  0
    7.7736   -0.2915    0.2217 O   0  0  0  0  0  0  0  0  0  0  0  0
    8.2929    0.3856    1.3851 C   0  0  0  0  0  0  0  0  0  0  0  0
    7.3535    1.3066    1.9788 O   0  0  0  0  0  0  0  0  0  0  0  0
    2.0455    0.0573   -1.3851 N   0  0  0  0  0  0  0  0  0  0  0  0
    1.0786   -0.1613   -2.4567 C   0  0  0  0  0  0  0  0  0  0  0  0
   -0.3541    0.0654   -1.9786 C   0  0  0  0  0  0  0  0  0  0  0  0
   -0.6918   -0.7672   -0.7151 C   0  0  0  0  0  0  0  0  0  0  0  0
    0.3855   -0.4853    0.3603 C   0  0  0  0  0  0  0  0  0  0  0  0
    1.7988   -0.7146   -0.1682 C   0  0  0  0  0  0  0  0  0  0  0  0
   -0.5631   -2.1446   -1.1569 O   0  0  0  0  0  0  0  0  0  0  0  0
   -1.1799   -3.1138   -0.4251 C   0  0  0  0  0  0  0  0  0  0  0  0
   -0.8330   -4.4289   -0.7352 C   0  0  0  0  0  0  0  0  0  0  0  0
   -1.3961   -5.4899   -0.0214 C   0  0  0  0  0  0  0  0  0  0  0  0
   -2.3084   -5.2318    1.0016 C   0  0  0  0  0  0  0  0  0  0  0  0
   -2.9927   -6.5399    1.8835 Cl  0  0  0  0  0  0  0  0  0  0  0  0
   -2.6693   -3.9235    1.3112 C   0  0  0  0  0  0  0  0  0  0  0  0
   -2.1070   -2.8707    0.5822 C   0  0  0  0  0  0  0  0  0  0  0  0
   -2.4790   -1.4802    0.8718 C   0  0  0  0  0  0  0  0  0  0  0  0
   -3.0201   -1.2064    1.9398 O   0  0  0  0  0  0  0  0  0  0  0  0
   -2.1287   -0.4591   -0.2050 C   0  0  0  0  0  0  0  0  0  0  0  0
   -2.3620    0.9612    0.2916 C   0  0  0  0  0  0  0  0  0  0  0  0
   -3.7332    1.1745   -0.2545 C   0  0  0  0  0  0  0  0  0  0  0  0
   -4.5762    2.3212    0.1595 C   0  0  0  0  0  0  0  0  0  0  0  0
   -5.8788    2.4213   -0.3456 C   0  0  0  0  0  0  0  0  0  0  0  0
   -6.6965    3.4916    0.0217 C   0  0  0  0  0  0  0  0  0  0  0  0
   -6.2173    4.4672    0.8936 C   0  0  0  0  0  0  0  0  0  0  0  0
   -4.9210    4.3747    1.3986 C   0  0  0  0  0  0  0  0  0  0  0  0
   -4.0991    3.3048    1.0334 C   0  0  0  0  0  0  0  0  0  0  0  0
   -4.1076    0.3031   -1.1366 N   0  0  0  0  0  0  0  0  0  0  0  0
   -3.0675   -0.6396   -1.2781 O   0  0  0  0  0  0  0  0  0  0  0  0
    3.1839    2.1412    0.2883 H   0  0  0  0  0  0  0  0  0  0  0  0
    4.9397    2.5917    2.0147 H   0  0  0  0  0  0  0  0  0  0  0  0
    5.8018   -0.7264   -1.6321 H   0  0  0  0  0  0  0  0  0  0  0  0
    8.5674   -0.3658    2.1343 H   0  0  0  0  0  0  0  0  0  0  0  0
    9.1933    0.9401    1.0962 H   0  0  0  0  0  0  0  0  0  0  0  0
    1.2861    0.5204   -3.2897 H   0  0  0  0  0  0  0  0  0  0  0  0
    1.2179   -1.1816   -2.8342 H   0  0  0  0  0  0  0  0  0  0  0  0
   -1.0282   -0.1985   -2.8025 H   0  0  0  0  0  0  0  0  0  0  0  0
   -0.4793    1.1354   -1.7838 H   0  0  0  0  0  0  0  0  0  0  0  0
    0.3065    0.5520    0.7076 H   0  0  0  0  0  0  0  0  0  0  0  0
    0.2453   -1.1309    1.2347 H   0  0  0  0  0  0  0  0  0  0  0  0
    1.9623   -1.7718   -0.4114 H   0  0  0  0  0  0  0  0  0  0  0  0
    2.5169   -0.4678    0.6165 H   0  0  0  0  0  0  0  0  0  0  0  0
   -0.1196   -4.6308   -1.5312 H   0  0  0  0  0  0  0  0  0  0  0  0
   -1.1189   -6.5121   -0.2676 H   0  0  0  0  0  0  0  0  0  0  0  0
   -3.3879   -3.7219    2.1023 H   0  0  0  0  0  0  0  0  0  0  0  0
   -2.3187    1.0672    1.3779 H   0  0  0  0  0  0  0  0  0  0  0  0
   -1.7018    1.7035   -0.1627 H   0  0  0  0  0  0  0  0  0  0  0  0
   -6.2667    1.6660   -1.0264 H   0  0  0  0  0  0  0  0  0  0  0  0
   -7.7072    3.5613   -0.3730 H   0  0  0  0  0  0  0  0  0  0  0  0
   -6.8553    5.2998    1.1800 H   0  0  0  0  0  0  0  0  0  0  0  0
   -4.5505    5.1376    2.0792 H   0  0  0  0  0  0  0  0  0  0  0  0
   -3.0949    3.2648    1.4431 H   0  0  0  0  0  0  0  0  0  0  0  0
  1  2  2  0
  2  3  1  0
  3  4  2  0
  4  5  1  0
  5  6  2  0
  6  7  1  0
  7  8  2  0
  7  9  1  0
  9 10  1  0
 10 11  1  0
  2 12  1  0
 12 13  1  0
 13 14  1  0
 14 15  1  0
 15 16  1  0
 16 17  1  0
 15 18  1  0
 18 19  1  0
 19 20  2  0
 20 21  1  0
 21 22  2  0
 22 23  1  0
 22 24  1  0
 24 25  2  0
 25 26  1  0
 26 27  2  0
 26 28  1  0
 28 29  1  0
 29 30  1  0
 30 31  1  0
 31 32  2  0
 32 33  1  0
 33 34  2  0
 34 35  1  0
 35 36  2  0
 30 37  2  0
 37 38  1  0
  8  3  1  0
 17 12  1  0
 25 19  1  0
 38 28  1  0
 11  6  1  0
 28 15  1  0
 36 31  1  0
  4 39  1  0
  5 40  1  0
  8 41  1  0
 10 42  1  0
 10 43  1  0
 13 44  1  0
 13 45  1  0
 14 46  1  0
 14 47  1  0
 16 48  1  0
 16 49  1  0
 17 50  1  0
 17 51  1  0
 20 52  1  0
 21 53  1  0
 24 54  1  0
 29 55  1  0
 29 56  1  0
 32 57  1  0
 33 58  1  0
 34 59  1  0
 35 60  1  0
 36 61  1  0
M  END
$$$$
