
     RDKit          3D

 35 36  0  0  0  0  0  0  0  0999 V2000
    3.1907    3.0421    0.2256 C   0  0  0  0  0  0  0  0  0  0  0  0
    2.6192    1.7576    0.0166 O   0  0  0  0  0  0  0  0  0  0  0  0
    3.1656    0.6982    0.6907 C   0  0  0  0  0  0  0  0  0  0  0  0
    4.3275    0.7746    1.4689 C   0  0  0  0  0  0  0  0  0  0  0  0
    4.8524   -0.3685    2.0830 C   0  0  0  0  0  0  0  0  0  0  0  0
    4.2306   -1.6037    1.9213 C   0  0  0  0  0  0  0  0  0  0  0  0
    3.0738   -1.6969    1.1517 C   0  0  0  0  0  0  0  0  0  0  0  0
    2.5330   -0.5492    0.5513 C   0  0  0  0  0  0  0  0  0  0  0  0
    1.2995   -0.7339   -0.2424 C   0  0  0  0  0  0  0  0  0  0  0  0
    1.1375   -1.6590   -1.0228 O   0  0  0  0  0  0  0  0  0  0  0  0
    0.3749    0.1902    0.1164 O   0  0  0  0  0  0  0  0  0  0  0  0
   -0.8824    0.1026   -0.5723 C   0  0  0  0  0  0  0  0  0  0  0  0
   -1.7955   -0.9114    0.1141 C   0  0  0  0  0  0  0  0  0  0  0  0
   -3.1471   -0.9918   -0.5460 C   0  0  0  0  0  0  0  0  0  0  0  0
   -4.2211   -0.2292   -0.0691 C   0  0  0  0  0  0  0  0  0  0  0  0
   -5.4661   -0.2933   -0.6970 C   0  0  0  0  0  0  0  0  0  0  0  0
   -5.6470   -1.1158   -1.8076 C   0  0  0  0  0  0  0  0  0  0  0  0
   -4.5831   -1.8742   -2.2926 C   0  0  0  0  0  0  0  0  0  0  0  0
   -3.3377   -1.8118   -1.6663 C   0  0  0  0  0  0  0  0  0  0  0  0
    2.5964    3.7677   -0.3382 H   0  0  0  0  0  0  0  0  0  0  0  0
    4.2156    3.0830   -0.1572 H   0  0  0  0  0  0  0  0  0  0  0  0
    3.1496    3.3276    1.2820 H   0  0  0  0  0  0  0  0  0  0  0  0
    4.8610    1.7092    1.6097 H   0  0  0  0  0  0  0  0  0  0  0  0
    5.7578   -0.2931    2.6812 H   0  0  0  0  0  0  0  0  0  0  0  0
    4.6470   -2.4918    2.3902 H   0  0  0  0  0  0  0  0  0  0  0  0
    2.5891   -2.6623    1.0195 H   0  0  0  0  0  0  0  0  0  0  0  0
   -0.7287   -0.1317   -1.6334 H   0  0  0  0  0  0  0  0  0  0  0  0
   -1.3318    1.1017   -0.5367 H   0  0  0  0  0  0  0  0  0  0  0  0
   -1.9069   -0.6492    1.1742 H   0  0  0  0  0  0  0  0  0  0  0  0
   -1.3306   -1.9052    0.1222 H   0  0  0  0  0  0  0  0  0  0  0  0
   -4.0950    0.4193    0.7949 H   0  0  0  0  0  0  0  0  0  0  0  0
   -6.2953    0.2993   -0.3196 H   0  0  0  0  0  0  0  0  0  0  0  0
   -6.6165   -1.1651   -2.2959 H   0  0  0  0  0  0  0  0  0  0  0  0
   -4.7221   -2.5145   -3.1597 H   0  0  0  0  0  0  0  0  0  0  0  0
   -2.5140   -2.4067   -2.0569 H   0  0  0  0  0  0  0  0  0  0  0  0
  1  2  1  0
  2  3  1  0
  3  4  2  0
  4  5  1  0
  5  6  2  0
  6  7  1  0
  7  8  2  0
  8  9  1  0
  9 10  2  0
  9 11  1  0
 11 12  1  0
 12 13  1  0
 13 14  1  0
 14 15  2  0
 15 16  1  0
 16 17  2  0
 17 18  1  0
 18 19  2  0
  8  3  1  0
 19 14  1  0
  1 20  1  0
  1 21  1  0
  1 22  1  0
  4 23  1  0
  5 24  1  0
  6 25  1  0
  7 26  1  0
 12 27  1  0
 12 28  1  0
 13 29  1  0
 13 30  1  0
 15 31  1  0
 16 32  1  0
 17 33  1  0
 18 34  1  0
 19 35  1  0
M  END
$$$$
