
     RDKit          3D

 57 61  0  0  0  0  0  0  0  0999 V2000
    5.5933   -0.9814    0.3780 C   0  0  0  0  0  0  0  0  0  0  0  0
    5.1359    0.4172   -0.0354 C   0  0  0  0  0  0  0  0  0  0  0  0
    6.2975    1.4018    0.1310 C   0  0  0  0  0  0  0  0  0  0  0  0
    3.9350    0.8654    0.8061 C   0  0  0  0  0  0  0  0  0  0  0  0
    4.1037    1.5994    1.7841 O   0  0  0  0  0  0  0  0  0  0  0  0
    2.6602    0.4195    0.4464 N   0  0  0  0  0  0  0  0  0  0  0  0
    1.5672    0.7562    1.3546 C   0  0  0  0  0  0  0  0  0  0  0  0
    0.2225    0.8815    0.6384 C   0  0  0  0  0  0  0  0  0  0  0  0
   -0.1173   -0.3749   -0.1996 C   0  0  0  0  0  0  0  0  0  0  0  0
    1.0695   -0.5719   -1.1804 C   0  0  0  0  0  0  0  0  0  0  0  0
    2.4073   -0.7005   -0.4554 C   0  0  0  0  0  0  0  0  0  0  0  0
   -0.1821   -1.4707    0.7447 O   0  0  0  0  0  0  0  0  0  0  0  0
   -0.6776   -2.6501    0.2656 C   0  0  0  0  0  0  0  0  0  0  0  0
   -0.3986   -3.7860    1.0254 C   0  0  0  0  0  0  0  0  0  0  0  0
   -0.8459   -5.0359    0.5953 C   0  0  0  0  0  0  0  0  0  0  0  0
   -1.5760   -5.1381   -0.5844 C   0  0  0  0  0  0  0  0  0  0  0  0
   -1.9977   -6.3405   -0.9966 F   0  0  0  0  0  0  0  0  0  0  0  0
   -1.8798   -4.0119   -1.3386 C   0  0  0  0  0  0  0  0  0  0  0  0
   -1.4335   -2.7636   -0.9015 C   0  0  0  0  0  0  0  0  0  0  0  0
   -1.7699   -1.5420   -1.6561 C   0  0  0  0  0  0  0  0  0  0  0  0
   -2.2919   -1.6390   -2.7612 O   0  0  0  0  0  0  0  0  0  0  0  0
   -1.4737   -0.2262   -0.9449 C   0  0  0  0  0  0  0  0  0  0  0  0
   -2.6812    0.1063   -0.0760 C   0  0  0  0  0  0  0  0  0  0  0  0
   -2.8410    1.5447   -0.4260 C   0  0  0  0  0  0  0  0  0  0  0  0
   -3.7602    2.4397    0.3153 C   0  0  0  0  0  0  0  0  0  0  0  0
   -4.5394    1.9722    1.3818 C   0  0  0  0  0  0  0  0  0  0  0  0
   -5.3976    2.8481    2.0567 C   0  0  0  0  0  0  0  0  0  0  0  0
   -5.4762    4.1852    1.6692 C   0  0  0  0  0  0  0  0  0  0  0  0
   -6.5283    5.2579    2.5072 Cl  0  0  0  0  0  0  0  0  0  0  0  0
   -4.7077    4.6574    0.6072 C   0  0  0  0  0  0  0  0  0  0  0  0
   -3.8522    3.7844   -0.0706 C   0  0  0  0  0  0  0  0  0  0  0  0
   -2.1274    1.9415   -1.4285 N   0  0  0  0  0  0  0  0  0  0  0  0
   -1.4059    0.8264   -1.9108 O   0  0  0  0  0  0  0  0  0  0  0  0
    6.4992   -1.2718   -0.1646 H   0  0  0  0  0  0  0  0  0  0  0  0
    4.8328   -1.7398    0.1766 H   0  0  0  0  0  0  0  0  0  0  0  0
    5.8130   -1.0243    1.4511 H   0  0  0  0  0  0  0  0  0  0  0  0
    4.8604    0.4329   -1.0954 H   0  0  0  0  0  0  0  0  0  0  0  0
    7.1249    1.1406   -0.5385 H   0  0  0  0  0  0  0  0  0  0  0  0
    5.9801    2.4238   -0.1063 H   0  0  0  0  0  0  0  0  0  0  0  0
    6.6810    1.4016    1.1588 H   0  0  0  0  0  0  0  0  0  0  0  0
    1.5307   -0.0229    2.1262 H   0  0  0  0  0  0  0  0  0  0  0  0
    1.7736    1.7029    1.8677 H   0  0  0  0  0  0  0  0  0  0  0  0
   -0.5390    1.0556    1.4071 H   0  0  0  0  0  0  0  0  0  0  0  0
    0.2522    1.7697   -0.0059 H   0  0  0  0  0  0  0  0  0  0  0  0
    1.1234    0.2822   -1.8704 H   0  0  0  0  0  0  0  0  0  0  0  0
    0.9381   -1.4702   -1.7964 H   0  0  0  0  0  0  0  0  0  0  0  0
    2.4332   -1.6166    0.1467 H   0  0  0  0  0  0  0  0  0  0  0  0
    3.1940   -0.7869   -1.2068 H   0  0  0  0  0  0  0  0  0  0  0  0
    0.1798   -3.7032    1.9426 H   0  0  0  0  0  0  0  0  0  0  0  0
   -0.6238   -5.9339    1.1668 H   0  0  0  0  0  0  0  0  0  0  0  0
   -2.4620   -4.1157   -2.2504 H   0  0  0  0  0  0  0  0  0  0  0  0
   -2.5102   -0.0544    0.9910 H   0  0  0  0  0  0  0  0  0  0  0  0
   -3.5900   -0.4256   -0.3803 H   0  0  0  0  0  0  0  0  0  0  0  0
   -4.5024    0.9371    1.7055 H   0  0  0  0  0  0  0  0  0  0  0  0
   -5.9997    2.4825    2.8841 H   0  0  0  0  0  0  0  0  0  0  0  0
   -4.7636    5.7004    0.3040 H   0  0  0  0  0  0  0  0  0  0  0  0
   -3.2569    4.1638   -0.8999 H   0  0  0  0  0  0  0  0  0  0  0  0
  1  2  1  0
  2  3  1  0
  2  4  1  0
  4  5  2  0
  4  6  1  0
  6  7  1  0
  7  8  1  0
  8  9  1  0
  9 10  1  0
 10 11  1  0
  9 12  1  0
 12 13  1  0
 13 14  2  0
 14 15  1  0
 15 16  2  0
 16 17  1  0
 16 18  1  0
 18 19  2  0
 19 20  1  0
 20 21  2  0
 20 22  1  0
 22 23  1  0
 23 24  1  0
 24 25  1  0
 25 26  2  0
 26 27  1  0
 27 28  2  0
 28 29  1  0
 28 30  1  0
 30 31  2  0
 24 32  2  0
 32 33  1  0
 11  6  1  0
 19 13  1  0
 33 22  1  0
 22  9  1  0
 31 25  1  0
  1 34  1  0
  1 35  1  0
  1 36  1  0
  2 37  1  0
  3 38  1  0
  3 39  1  0
  3 40  1  0
  7 41  1  0
  7 42  1  0
  8 43  1  0
  8 44  1  0
 10 45  1  0
 10 46  1  0
 11 47  1  0
 11 48  1  0
 14 49  1  0
 15 50  1  0
 18 51  1  0
 23 52  1  0
 23 53  1  0
 26 54  1  0
 27 55  1  0
 30 56  1  0
 31 57  1  0
M  END
$$$$
