
     RDKit          3D

 71 77  0  0  0  0  0  0  0  0999 V2000
    6.6456    1.0969   -1.7634 C   0  0  0  0  0  0  0  0  0  0  0  0
    6.1756    1.2774   -0.4354 O   0  0  0  0  0  0  0  0  0  0  0  0
    4.7690    1.0665   -0.3093 C   0  0  0  0  0  0  0  0  0  0  0  0
    4.3107   -0.4263   -0.4295 C   0  0  0  0  0  0  0  0  0  0  0  0
    5.1336   -1.3478   -0.3847 O   0  0  0  0  0  0  0  0  0  0  0  0
    2.9528   -0.6951   -0.6531 N   0  0  0  0  0  0  0  0  0  0  0  0
    2.5619   -2.1215   -0.6362 C   0  0  0  0  0  0  0  0  0  0  0  0
    1.1727   -2.4185   -1.2548 C   0  0  0  0  0  0  0  0  0  0  0  0
    0.2015   -1.4919   -0.6990 N   0  0  0  0  0  0  0  0  0  0  0  0
    0.5755   -0.0861   -1.0365 C   0  0  2  0  0  0  0  0  0  0  0  0
    1.8773    0.2680   -0.3217 C   0  0  0  0  0  0  0  0  0  0  0  0
   -0.6712    0.6123   -0.6521 C   0  0  0  0  0  0  0  0  0  0  0  0
   -1.7424   -0.2971   -0.6527 C   0  0  0  0  0  0  0  0  0  0  0  0
   -2.8905    0.3822   -0.3341 C   0  0  0  0  0  0  0  0  0  0  0  0
   -4.1275   -0.0765   -0.1559 O   0  0  0  0  0  0  0  0  0  0  0  0
   -2.5408    1.7391   -0.1342 N   0  0  0  0  0  0  0  0  0  0  0  0
   -3.4397    2.8041    0.2237 C   0  0  0  0  0  0  0  0  0  0  0  0
   -2.9726    3.9430    0.8964 C   0  0  0  0  0  0  0  0  0  0  0  0
   -3.8485    4.9758    1.2481 C   0  0  0  0  0  0  0  0  0  0  0  0
   -5.2003    4.8867    0.9304 C   0  0  0  0  0  0  0  0  0  0  0  0
   -5.6779    3.7637    0.2617 C   0  0  0  0  0  0  0  0  0  0  0  0
   -4.8050    2.7282   -0.0889 C   0  0  0  0  0  0  0  0  0  0  0  0
   -1.1460    1.8580   -0.3443 C   0  0  0  0  0  0  0  0  0  0  0  0
   -0.5068    3.0240   -0.2956 O   0  0  0  0  0  0  0  0  0  0  0  0
   -1.2411   -1.6620   -0.9760 C   0  0  1  0  0  0  0  0  0  0  0  0
   -1.5880   -2.1158   -2.4157 C   0  0  0  0  0  0  0  0  0  0  0  0
   -1.2152   -1.6394   -3.4770 O   0  0  0  0  0  0  0  0  0  0  0  0
   -2.4237   -3.2282   -2.2892 N   0  0  0  0  0  0  0  0  0  0  0  0
   -2.6381   -3.5703   -0.9543 C   0  0  0  0  0  0  0  0  0  0  0  0
   -1.9497   -2.6724   -0.1230 C   0  0  0  0  0  0  0  0  0  0  0  0
   -1.9854   -2.8114    1.2543 C   0  0  0  0  0  0  0  0  0  0  0  0
   -2.7352   -3.8602    1.7863 C   0  0  0  0  0  0  0  0  0  0  0  0
   -3.4299   -4.7520    0.9448 C   0  0  0  0  0  0  0  0  0  0  0  0
   -4.3263   -6.0212    1.7064 Cl  0  0  0  0  0  0  0  0  0  0  0  0
   -3.3969   -4.6228   -0.4575 C   0  0  0  0  0  0  0  0  0  0  0  0
   -4.1305   -5.5785   -1.3500 C   0  0  0  0  0  0  0  0  0  0  0  0
    4.3878    1.6802    1.0309 C   0  0  0  0  0  0  0  0  0  0  0  0
    3.8540    2.9792    1.0849 C   0  0  0  0  0  0  0  0  0  0  0  0
    3.4886    3.5474    2.3063 C   0  0  0  0  0  0  0  0  0  0  0  0
    3.6687    2.8333    3.4888 C   0  0  0  0  0  0  0  0  0  0  0  0
    4.2267    1.5571    3.4538 C   0  0  0  0  0  0  0  0  0  0  0  0
    4.5922    0.9861    2.2339 C   0  0  0  0  0  0  0  0  0  0  0  0
    6.4615    0.0793   -2.1185 H   0  0  0  0  0  0  0  0  0  0  0  0
    7.7249    1.2731   -1.7705 H   0  0  0  0  0  0  0  0  0  0  0  0
    6.1744    1.8195   -2.4367 H   0  0  0  0  0  0  0  0  0  0  0  0
    4.2714    1.6212   -1.1154 H   0  0  0  0  0  0  0  0  0  0  0  0
    3.3186   -2.7149   -1.1616 H   0  0  0  0  0  0  0  0  0  0  0  0
    2.5711   -2.4358    0.4155 H   0  0  0  0  0  0  0  0  0  0  0  0
    0.9021   -3.4546   -1.0239 H   0  0  0  0  0  0  0  0  0  0  0  0
    1.2347   -2.3251   -2.3456 H   0  0  0  0  0  0  0  0  0  0  0  0
    0.7138    0.0176   -2.1226 H   0  0  0  0  0  0  0  0  0  0  0  0
    1.7508    0.2576    0.7680 H   0  0  0  0  0  0  0  0  0  0  0  0
    2.1762    1.2770   -0.6128 H   0  0  0  0  0  0  0  0  0  0  0  0
   -4.1094   -1.0469   -0.2169 H   0  0  0  0  0  0  0  0  0  0  0  0
   -1.9345    4.0418    1.1978 H   0  0  0  0  0  0  0  0  0  0  0  0
   -3.4709    5.8468    1.7773 H   0  0  0  0  0  0  0  0  0  0  0  0
   -5.8795    5.6895    1.2031 H   0  0  0  0  0  0  0  0  0  0  0  0
   -6.7315    3.6905    0.0055 H   0  0  0  0  0  0  0  0  0  0  0  0
   -5.2187    1.8893   -0.6397 H   0  0  0  0  0  0  0  0  0  0  0  0
    0.4275    2.8747   -0.5101 H   0  0  0  0  0  0  0  0  0  0  0  0
   -2.7838   -3.7159   -3.0962 H   0  0  0  0  0  0  0  0  0  0  0  0
   -1.4465   -2.1246    1.9016 H   0  0  0  0  0  0  0  0  0  0  0  0
   -2.7775   -3.9869    2.8667 H   0  0  0  0  0  0  0  0  0  0  0  0
   -4.0475   -5.3116   -2.4073 H   0  0  0  0  0  0  0  0  0  0  0  0
   -3.7259   -6.5895   -1.2364 H   0  0  0  0  0  0  0  0  0  0  0  0
   -5.1983   -5.5838   -1.1078 H   0  0  0  0  0  0  0  0  0  0  0  0
    3.7294    3.5613    0.1748 H   0  0  0  0  0  0  0  0  0  0  0  0
    3.0752    4.5523    2.3384 H   0  0  0  0  0  0  0  0  0  0  0  0
    3.3906    3.2782    4.4406 H   0  0  0  0  0  0  0  0  0  0  0  0
    4.3880    1.0084    4.3781 H   0  0  0  0  0  0  0  0  0  0  0  0
    5.0487   -0.0028    2.2283 H   0  0  0  0  0  0  0  0  0  0  0  0
  1  2  1  0
  2  3  1  0
  3  4  1  0
  4  5  2  0
  4  6  1  0
  6  7  1  0
  7  8  1  0
  8  9  1  0
  9 10  1  0
 10 11  1  0
 10 12  1  0
 12 13  1  0
 13 14  2  0
 14 15  1  0
 14 16  1  0
 16 17  1  0
 17 18  2  0
 18 19  1  0
 19 20  2  0
 20 21  1  0
 21 22  2  0
 16 23  1  0
 23 24  1  0
 13 25  1  0
 25 26  1  0
 26 27  2  0
 26 28  1  0
 28 29  1  0
 29 30  2  0
 30 31  1  0
 31 32  2  0
 32 33  1  0
 33 34  1  0
 33 35  2  0
 35 36  1  0
  3 37  1  0
 37 38  2  0
 38 39  1  0
 39 40  2  0
 40 41  1  0
 41 42  2  0
 11  6  1  0
 23 12  2  0
 30 25  1  0
 42 37  1  0
 25  9  1  6
 35 29  1  0
 22 17  1  0
  1 43  1  0
  1 44  1  0
  1 45  1  0
  3 46  1  0
  7 47  1  0
  7 48  1  0
  8 49  1  0
  8 50  1  0
 10 51  1  6
 11 52  1  0
 11 53  1  0
 15 54  1  0
 18 55  1  0
 19 56  1  0
 20 57  1  0
 21 58  1  0
 22 59  1  0
 24 60  1  0
 28 61  1  0
 31 62  1  0
 32 63  1  0
 36 64  1  0
 36 65  1  0
 36 66  1  0
 38 67  1  0
 39 68  1  0
 40 69  1  0
 41 70  1  0
 42 71  1  0
M  END
$$$$
