
     RDKit          3D

 61 67  0  0  0  0  0  0  0  0999 V2000
    3.9286   -1.8706   -2.1057 O   0  0  0  0  0  0  0  0  0  0  0  0
    3.5363   -1.0953   -1.2369 C   0  0  0  0  0  0  0  0  0  0  0  0
    4.5155   -0.1287   -0.6894 C   0  0  0  0  0  0  0  0  0  0  0  0
    5.7756   -0.6049   -0.2709 C   0  0  0  0  0  0  0  0  0  0  0  0
    6.7358    0.2821    0.2243 C   0  0  0  0  0  0  0  0  0  0  0  0
    6.4071    1.6208    0.2684 C   0  0  0  0  0  0  0  0  0  0  0  0
    5.1848    2.0855   -0.1622 C   0  0  0  0  0  0  0  0  0  0  0  0
    4.2160    1.2397   -0.6562 C   0  0  0  0  0  0  0  0  0  0  0  0
    5.0719    3.4354   -0.0421 O   0  0  0  0  0  0  0  0  0  0  0  0
    6.3655    3.7696    0.5047 C   0  0  0  0  0  0  0  0  0  0  0  0
    7.2131    2.6210    0.7142 O   0  0  0  0  0  0  0  0  0  0  0  0
    2.2143   -1.0581   -0.7721 N   0  0  0  0  0  0  0  0  0  0  0  0
    1.2889   -1.9998   -1.3908 C   0  0  0  0  0  0  0  0  0  0  0  0
   -0.1539   -1.5105   -1.2985 C   0  0  0  0  0  0  0  0  0  0  0  0
   -0.5679   -1.1756    0.1545 C   0  0  0  0  0  0  0  0  0  0  0  0
    0.4736   -0.1917    0.7503 C   0  0  0  0  0  0  0  0  0  0  0  0
    1.9018   -0.7144    0.6158 C   0  0  0  0  0  0  0  0  0  0  0  0
   -0.4270   -2.3683    0.9707 O   0  0  0  0  0  0  0  0  0  0  0  0
   -1.4510   -3.2669    0.9701 C   0  0  0  0  0  0  0  0  0  0  0  0
   -1.1729   -4.5115    1.5386 C   0  0  0  0  0  0  0  0  0  0  0  0
   -2.1549   -5.5033    1.5638 C   0  0  0  0  0  0  0  0  0  0  0  0
   -3.4096   -5.2421    1.0227 C   0  0  0  0  0  0  0  0  0  0  0  0
   -4.3472   -6.1975    1.0447 F   0  0  0  0  0  0  0  0  0  0  0  0
   -3.7044   -4.0059    0.4637 C   0  0  0  0  0  0  0  0  0  0  0  0
   -2.7179   -3.0164    0.4520 C   0  0  0  0  0  0  0  0  0  0  0  0
   -2.9984   -1.6909   -0.1145 C   0  0  0  0  0  0  0  0  0  0  0  0
   -3.9817   -1.5343   -0.8338 O   0  0  0  0  0  0  0  0  0  0  0  0
   -2.0059   -0.5886    0.2388 C   0  0  0  0  0  0  0  0  0  0  0  0
   -2.2554    0.6592   -0.5973 C   0  0  0  0  0  0  0  0  0  0  0  0
   -3.0908    1.4260    0.3705 C   0  0  0  0  0  0  0  0  0  0  0  0
   -3.8379    2.6430   -0.0270 C   0  0  0  0  0  0  0  0  0  0  0  0
   -3.7456    3.1711   -1.3198 C   0  0  0  0  0  0  0  0  0  0  0  0
   -4.4606    4.3234   -1.6578 C   0  0  0  0  0  0  0  0  0  0  0  0
   -5.2666    4.9519   -0.7095 C   0  0  0  0  0  0  0  0  0  0  0  0
   -5.3608    4.4312    0.5796 C   0  0  0  0  0  0  0  0  0  0  0  0
   -4.6484    3.2802    0.9213 C   0  0  0  0  0  0  0  0  0  0  0  0
   -3.0794    0.9668    1.5814 N   0  0  0  0  0  0  0  0  0  0  0  0
   -2.2805   -0.1957    1.5944 O   0  0  0  0  0  0  0  0  0  0  0  0
    6.0025   -1.6672   -0.3396 H   0  0  0  0  0  0  0  0  0  0  0  0
    7.7082   -0.0672    0.5535 H   0  0  0  0  0  0  0  0  0  0  0  0
    3.2671    1.6242   -1.0106 H   0  0  0  0  0  0  0  0  0  0  0  0
    6.2191    4.2772    1.4651 H   0  0  0  0  0  0  0  0  0  0  0  0
    6.8701    4.4574   -0.1837 H   0  0  0  0  0  0  0  0  0  0  0  0
    1.5485   -2.1381   -2.4468 H   0  0  0  0  0  0  0  0  0  0  0  0
    1.4134   -2.9715   -0.8978 H   0  0  0  0  0  0  0  0  0  0  0  0
   -0.2595   -0.6209   -1.9313 H   0  0  0  0  0  0  0  0  0  0  0  0
   -0.8004   -2.2866   -1.7234 H   0  0  0  0  0  0  0  0  0  0  0  0
    0.4203    0.7823    0.2530 H   0  0  0  0  0  0  0  0  0  0  0  0
    0.2768   -0.0273    1.8167 H   0  0  0  0  0  0  0  0  0  0  0  0
    2.0509   -1.6193    1.2178 H   0  0  0  0  0  0  0  0  0  0  0  0
    2.5948    0.0299    1.0131 H   0  0  0  0  0  0  0  0  0  0  0  0
   -0.1894   -4.7127    1.9567 H   0  0  0  0  0  0  0  0  0  0  0  0
   -1.9496   -6.4764    1.9997 H   0  0  0  0  0  0  0  0  0  0  0  0
   -4.6936   -3.8213    0.0550 H   0  0  0  0  0  0  0  0  0  0  0  0
   -1.3551    1.2440   -0.7997 H   0  0  0  0  0  0  0  0  0  0  0  0
   -2.7715    0.4683   -1.5411 H   0  0  0  0  0  0  0  0  0  0  0  0
   -3.1267    2.7081   -2.0820 H   0  0  0  0  0  0  0  0  0  0  0  0
   -4.3904    4.7314   -2.6634 H   0  0  0  0  0  0  0  0  0  0  0  0
   -5.8232    5.8473   -0.9754 H   0  0  0  0  0  0  0  0  0  0  0  0
   -5.9897    4.9188    1.3204 H   0  0  0  0  0  0  0  0  0  0  0  0
   -4.7330    2.8835    1.9312 H   0  0  0  0  0  0  0  0  0  0  0  0
  1  2  2  0
  2  3  1  0
  3  4  2  0
  4  5  1  0
  5  6  2  0
  6  7  1  0
  7  8  2  0
  7  9  1  0
  9 10  1  0
 10 11  1  0
  2 12  1  0
 12 13  1  0
 13 14  1  0
 14 15  1  0
 15 16  1  0
 16 17  1  0
 15 18  1  0
 18 19  1  0
 19 20  2  0
 20 21  1  0
 21 22  2  0
 22 23  1  0
 22 24  1  0
 24 25  2  0
 25 26  1  0
 26 27  2  0
 26 28  1  0
 28 29  1  0
 29 30  1  0
 30 31  1  0
 31 32  2  0
 32 33  1  0
 33 34  2  0
 34 35  1  0
 35 36  2  0
 30 37  2  0
 37 38  1  0
  8  3  1  0
 17 12  1  0
 25 19  1  0
 38 28  1  0
 11  6  1  0
 28 15  1  0
 36 31  1  0
  4 39  1  0
  5 40  1  0
  8 41  1  0
 10 42  1  0
 10 43  1  0
 13 44  1  0
 13 45  1  0
 14 46  1  0
 14 47  1  0
 16 48  1  0
 16 49  1  0
 17 50  1  0
 17 51  1  0
 20 52  1  0
 21 53  1  0
 24 54  1  0
 29 55  1  0
 29 56  1  0
 32 57  1  0
 33 58  1  0
 34 59  1  0
 35 60  1  0
 36 61  1  0
M  END
$$$$
