
     RDKit          3D

 52 53  0  0  0  0  0  0  0  0999 V2000
    7.1949   -0.7950   -0.7831 C   0  0  0  0  0  0  0  0  0  0  0  0
    5.9728    0.0669   -1.0682 C   0  0  0  0  0  0  0  0  0  0  0  0
    4.7905   -0.7153   -1.6483 C   0  0  0  0  0  0  0  0  0  0  0  0
    4.2699   -1.6929   -0.6869 N   0  0  0  0  0  0  0  0  0  0  0  0
    3.0547   -2.3634   -1.1898 C   0  0  0  0  0  0  0  0  0  0  0  0
    1.7953   -1.8580   -0.4563 C   0  0  0  0  0  0  0  0  0  0  0  0
    2.0635   -1.9079    0.9571 O   0  0  0  0  0  0  0  0  0  0  0  0
    1.3921   -0.4336   -0.8621 C   0  0  0  0  0  0  0  0  0  0  0  0
    0.0269   -0.1914   -0.4765 O   0  0  0  0  0  0  0  0  0  0  0  0
   -0.2028    0.8372    0.3953 C   0  0  0  0  0  0  0  0  0  0  0  0
    0.6354    1.1143    1.4802 C   0  0  0  0  0  0  0  0  0  0  0  0
    0.3666    2.1904    2.3313 C   0  0  0  0  0  0  0  0  0  0  0  0
   -0.7494    2.9945    2.1140 C   0  0  0  0  0  0  0  0  0  0  0  0
   -1.6131    2.7065    1.0590 C   0  0  0  0  0  0  0  0  0  0  0  0
   -1.3570    1.6145    0.2167 C   0  0  0  0  0  0  0  0  0  0  0  0
   -2.3484    1.3458   -0.8551 C   0  0  0  0  0  0  0  0  0  0  0  0
   -2.8121    2.2938   -1.4904 O   0  0  0  0  0  0  0  0  0  0  0  0
   -2.7888   -0.0848   -1.0998 C   0  0  0  0  0  0  0  0  0  0  0  0
   -4.3097   -0.1904   -1.2030 C   0  0  0  0  0  0  0  0  0  0  0  0
   -4.9879   -0.0162    0.1375 C   0  0  0  0  0  0  0  0  0  0  0  0
   -5.4929    1.2321    0.5211 C   0  0  0  0  0  0  0  0  0  0  0  0
   -6.0935    1.3983    1.7697 C   0  0  0  0  0  0  0  0  0  0  0  0
   -6.1923    0.3202    2.6469 C   0  0  0  0  0  0  0  0  0  0  0  0
   -5.6893   -0.9249    2.2765 C   0  0  0  0  0  0  0  0  0  0  0  0
   -5.0880   -1.0932    1.0283 C   0  0  0  0  0  0  0  0  0  0  0  0
    7.0060   -1.5031    0.0302 H   0  0  0  0  0  0  0  0  0  0  0  0
    8.0386   -0.1631   -0.4831 H   0  0  0  0  0  0  0  0  0  0  0  0
    7.4943   -1.3599   -1.6729 H   0  0  0  0  0  0  0  0  0  0  0  0
    6.2583    0.8460   -1.7867 H   0  0  0  0  0  0  0  0  0  0  0  0
    5.6682    0.5826   -0.1487 H   0  0  0  0  0  0  0  0  0  0  0  0
    4.0088    0.0037   -1.9175 H   0  0  0  0  0  0  0  0  0  0  0  0
    5.1056   -1.2222   -2.5685 H   0  0  0  0  0  0  0  0  0  0  0  0
    4.9896   -2.4057   -0.5431 H   0  0  0  0  0  0  0  0  0  0  0  0
    3.1641   -3.4293   -0.9506 H   0  0  0  0  0  0  0  0  0  0  0  0
    2.9457   -2.2950   -2.2781 H   0  0  0  0  0  0  0  0  0  0  0  0
    0.9611   -2.5447   -0.6426 H   0  0  0  0  0  0  0  0  0  0  0  0
    3.0058   -1.6470    1.0326 H   0  0  0  0  0  0  0  0  0  0  0  0
    2.0838    0.3181   -0.4679 H   0  0  0  0  0  0  0  0  0  0  0  0
    1.4113   -0.3471   -1.9546 H   0  0  0  0  0  0  0  0  0  0  0  0
    1.4964    0.4882    1.6973 H   0  0  0  0  0  0  0  0  0  0  0  0
    1.0285    2.3954    3.1689 H   0  0  0  0  0  0  0  0  0  0  0  0
   -0.9573    3.8332    2.7731 H   0  0  0  0  0  0  0  0  0  0  0  0
   -2.4962    3.3233    0.8999 H   0  0  0  0  0  0  0  0  0  0  0  0
   -2.4291   -0.7458   -0.3045 H   0  0  0  0  0  0  0  0  0  0  0  0
   -2.3308   -0.4087   -2.0406 H   0  0  0  0  0  0  0  0  0  0  0  0
   -4.7096    0.5387   -1.9186 H   0  0  0  0  0  0  0  0  0  0  0  0
   -4.5757   -1.1779   -1.6031 H   0  0  0  0  0  0  0  0  0  0  0  0
   -5.4134    2.0844   -0.1517 H   0  0  0  0  0  0  0  0  0  0  0  0
   -6.4794    2.3709    2.0590 H   0  0  0  0  0  0  0  0  0  0  0  0
   -6.6579    0.4516    3.6206 H   0  0  0  0  0  0  0  0  0  0  0  0
   -5.7616   -1.7651    2.9615 H   0  0  0  0  0  0  0  0  0  0  0  0
   -4.6928   -2.0689    0.7558 H   0  0  0  0  0  0  0  0  0  0  0  0
  1  2  1  0
  2  3  1  0
  3  4  1  0
  4  5  1  0
  5  6  1  0
  6  7  1  0
  6  8  1  0
  8  9  1  0
  9 10  1  0
 10 11  2  0
 11 12  1  0
 12 13  2  0
 13 14  1  0
 14 15  2  0
 15 16  1  0
 16 17  2  0
 16 18  1  0
 18 19  1  0
 19 20  1  0
 20 21  2  0
 21 22  1  0
 22 23  2  0
 23 24  1  0
 24 25  2  0
 15 10  1  0
 25 20  1  0
  1 26  1  0
  1 27  1  0
  1 28  1  0
  2 29  1  0
  2 30  1  0
  3 31  1  0
  3 32  1  0
  4 33  1  0
  5 34  1  0
  5 35  1  0
  6 36  1  0
  7 37  1  0
  8 38  1  0
  8 39  1  0
 11 40  1  0
 12 41  1  0
 13 42  1  0
 14 43  1  0
 18 44  1  0
 18 45  1  0
 19 46  1  0
 19 47  1  0
 21 48  1  0
 22 49  1  0
 23 50  1  0
 24 51  1  0
 25 52  1  0
M  END
$$$$
