
     RDKit          3D

 46 48  0  0  0  0  0  0  0  0999 V2000
   -1.8953   -2.1734    1.9669 C   0  0  0  0  0  0  0  0  0  0  0  0
   -1.9853   -0.6597    1.9127 C   0  0  0  0  0  0  0  0  0  0  0  0
   -2.5584   -0.2288    0.6015 N   0  0  0  0  0  4  0  0  0  0  0  0
   -1.7105    0.1013   -0.4195 C   0  0  0  0  0  0  0  0  0  0  0  0
   -0.2569   -0.0603   -0.2829 C   0  0  0  0  0  0  0  0  0  0  0  0
    0.5750    0.9926   -0.2272 C   0  0  0  0  0  0  0  0  0  0  0  0
    2.0391    0.8836   -0.1178 C   0  0  0  0  0  0  0  0  0  0  0  0
    2.8261    1.8767   -0.7105 C   0  0  0  0  0  0  0  0  0  0  0  0
    4.2203    1.8424   -0.6082 C   0  0  0  0  0  0  0  0  0  0  0  0
    4.8514    0.8160    0.0972 C   0  0  0  0  0  0  0  0  0  0  0  0
    6.2091    0.6985    0.2510 O   0  0  0  0  0  0  0  0  0  0  0  0
    7.0330    1.6948   -0.3383 C   0  0  0  0  0  0  0  0  0  0  0  0
    4.0706   -0.1860    0.7051 C   0  0  0  0  0  0  0  0  0  0  0  0
    4.7632   -1.1502    1.3945 O   0  0  0  0  0  0  0  0  0  0  0  0
    4.0549   -2.2993    1.8321 C   0  0  0  0  0  0  0  0  0  0  0  0
    2.6730   -0.1392    0.6030 C   0  0  0  0  0  0  0  0  0  0  0  0
   -2.2060    0.5726   -1.6357 C   0  0  0  0  0  0  0  0  0  0  0  0
   -3.5679    0.7097   -1.8239 C   0  0  0  0  0  0  0  0  0  0  0  0
   -4.4365    0.3605   -0.7978 C   0  0  0  0  0  0  0  0  0  0  0  0
   -5.8201    0.4857   -0.9921 C   0  0  0  0  0  0  0  0  0  0  0  0
   -6.7134    0.1326    0.0150 C   0  0  0  0  0  0  0  0  0  0  0  0
   -6.2336   -0.3520    1.2236 C   0  0  0  0  0  0  0  0  0  0  0  0
   -4.8560   -0.4805    1.4324 C   0  0  0  0  0  0  0  0  0  0  0  0
   -3.9225   -0.1242    0.4377 C   0  0  0  0  0  0  0  0  0  0  0  0
   -1.2591   -2.5638    1.1670 H   0  0  0  0  0  0  0  0  0  0  0  0
   -2.8788   -2.6402    1.8596 H   0  0  0  0  0  0  0  0  0  0  0  0
   -1.4714   -2.4921    2.9241 H   0  0  0  0  0  0  0  0  0  0  0  0
   -2.5985   -0.2520    2.7211 H   0  0  0  0  0  0  0  0  0  0  0  0
   -1.0014   -0.2033    2.0520 H   0  0  0  0  0  0  0  0  0  0  0  0
    0.1092   -1.0831   -0.2594 H   0  0  0  0  0  0  0  0  0  0  0  0
    0.1933    2.0119   -0.2857 H   0  0  0  0  0  0  0  0  0  0  0  0
    2.3696    2.6929   -1.2674 H   0  0  0  0  0  0  0  0  0  0  0  0
    4.7853    2.6340   -1.0902 H   0  0  0  0  0  0  0  0  0  0  0  0
    8.0741    1.4451   -0.1120 H   0  0  0  0  0  0  0  0  0  0  0  0
    6.9224    1.7043   -1.4275 H   0  0  0  0  0  0  0  0  0  0  0  0
    6.8269    2.6813    0.0898 H   0  0  0  0  0  0  0  0  0  0  0  0
    3.3507   -2.0432    2.6303 H   0  0  0  0  0  0  0  0  0  0  0  0
    4.7822   -3.0052    2.2439 H   0  0  0  0  0  0  0  0  0  0  0  0
    3.5440   -2.7948    0.9997 H   0  0  0  0  0  0  0  0  0  0  0  0
    2.0718   -0.8890    1.1023 H   0  0  0  0  0  0  0  0  0  0  0  0
   -1.5282    0.8288   -2.4494 H   0  0  0  0  0  0  0  0  0  0  0  0
   -3.9407    1.0791   -2.7792 H   0  0  0  0  0  0  0  0  0  0  0  0
   -6.2225    0.8581   -1.9345 H   0  0  0  0  0  0  0  0  0  0  0  0
   -7.7859    0.2320   -0.1474 H   0  0  0  0  0  0  0  0  0  0  0  0
   -6.9359   -0.6346    2.0073 H   0  0  0  0  0  0  0  0  0  0  0  0
   -4.5602   -0.8797    2.3975 H   0  0  0  0  0  0  0  0  0  0  0  0
  1  2  1  0
  2  3  1  0
  3  4  2  0
  4  5  1  0
  5  6  2  3
  6  7  1  0
  7  8  2  0
  8  9  1  0
  9 10  2  0
 10 11  1  0
 11 12  1  0
 10 13  1  0
 13 14  1  0
 14 15  1  0
 13 16  2  0
  4 17  1  0
 17 18  2  0
 18 19  1  0
 19 20  2  0
 20 21  1  0
 21 22  2  0
 22 23  1  0
 23 24  2  0
 24  3  1  0
 16  7  1  0
 24 19  1  0
  1 25  1  0
  1 26  1  0
  1 27  1  0
  2 28  1  0
  2 29  1  0
  5 30  1  0
  6 31  1  0
  8 32  1  0
  9 33  1  0
 12 34  1  0
 12 35  1  0
 12 36  1  0
 15 37  1  0
 15 38  1  0
 15 39  1  0
 16 40  1  0
 17 41  1  0
 18 42  1  0
 20 43  1  0
 21 44  1  0
 22 45  1  0
 23 46  1  0
M  CHG  1   3   1
M  END
$$$$
