
     RDKit          3D

 49 52  0  0  0  0  0  0  0  0999 V2000
    0.6300    2.9486    0.4089 O   0  0  0  0  0  0  0  0  0  0  0  0
   -0.4107    3.1948   -0.1713 C   0  0  0  0  0  0  0  0  0  0  0  0
   -0.4839    4.0625   -1.1956 O   0  0  0  0  0  0  0  0  0  0  0  0
   -1.7406    2.6471    0.1327 C   0  0  0  0  0  0  0  0  0  0  0  0
   -2.5429    3.6071    0.7996 C   0  0  0  0  0  0  0  0  0  0  0  0
   -3.8414    3.3178    1.1782 C   0  0  0  0  0  0  0  0  0  0  0  0
   -4.3465    2.0659    0.8858 C   0  0  0  0  0  0  0  0  0  0  0  0
   -3.5501    1.1060    0.2246 C   0  0  0  0  0  0  0  0  0  0  0  0
   -4.2004   -0.1893   -0.0538 C   0  0  0  0  0  0  0  0  0  0  0  0
   -5.3724   -0.3824    0.2599 O   0  0  0  0  0  0  0  0  0  0  0  0
   -3.4313   -1.2467   -0.7174 C   0  0  0  0  0  0  0  0  0  0  0  0
   -4.0643   -2.4815   -0.9521 C   0  0  0  0  0  0  0  0  0  0  0  0
   -3.3733   -3.5151   -1.5676 C   0  0  0  0  0  0  0  0  0  0  0  0
   -2.0548   -3.3111   -1.9437 C   0  0  0  0  0  0  0  0  0  0  0  0
   -1.4325   -2.0754   -1.7070 C   0  0  0  0  0  0  0  0  0  0  0  0
   -2.1007   -0.9984   -1.0858 C   0  0  0  0  0  0  0  0  0  0  0  0
   -1.5110    0.2822   -0.8341 N   0  0  0  0  0  0  0  0  0  0  0  0
   -0.0633    0.3849   -1.1398 C   0  0  0  0  0  0  0  0  0  0  0  0
    0.8376   -0.2131   -0.0255 C   0  0  0  0  0  0  0  0  0  0  0  0
    0.5995    0.4234    1.2390 O   0  0  0  0  0  0  0  0  0  0  0  0
    2.3288   -0.0655   -0.4282 C   0  0  0  0  0  0  0  0  0  0  0  0
    3.2417   -0.9740    0.2817 N   0  0  0  0  0  0  0  0  0  0  0  0
    4.6324   -0.7988   -0.1407 C   0  0  0  0  0  0  0  0  0  0  0  0
    5.4016   -1.5730    0.9153 C   0  0  0  0  0  0  0  0  0  0  0  0
    4.5481   -1.4703    2.1733 C   0  0  0  0  0  0  0  0  0  0  0  0
    3.2610   -0.7821    1.7345 C   0  0  0  0  0  0  0  0  0  0  0  0
   -2.2067    1.3395   -0.1720 C   0  0  0  0  0  0  0  0  0  0  0  0
    0.4219    4.4182   -1.3069 H   0  0  0  0  0  0  0  0  0  0  0  0
   -2.1419    4.5959    1.0202 H   0  0  0  0  0  0  0  0  0  0  0  0
   -4.4531    4.0567    1.6879 H   0  0  0  0  0  0  0  0  0  0  0  0
   -5.3703    1.8269    1.1709 H   0  0  0  0  0  0  0  0  0  0  0  0
   -5.0983   -2.6334   -0.6483 H   0  0  0  0  0  0  0  0  0  0  0  0
   -3.8588   -4.4703   -1.7467 H   0  0  0  0  0  0  0  0  0  0  0  0
   -1.4973   -4.1137   -2.4215 H   0  0  0  0  0  0  0  0  0  0  0  0
   -0.3984   -2.0134   -2.0279 H   0  0  0  0  0  0  0  0  0  0  0  0
    0.2296    1.4032   -1.3789 H   0  0  0  0  0  0  0  0  0  0  0  0
    0.1581   -0.1032   -2.0967 H   0  0  0  0  0  0  0  0  0  0  0  0
    0.6002   -1.2736    0.1088 H   0  0  0  0  0  0  0  0  0  0  0  0
    0.8325    1.3698    1.1410 H   0  0  0  0  0  0  0  0  0  0  0  0
    2.4213   -0.2888   -1.4984 H   0  0  0  0  0  0  0  0  0  0  0  0
    2.6434    0.9759   -0.2806 H   0  0  0  0  0  0  0  0  0  0  0  0
    4.9325    0.2568   -0.1230 H   0  0  0  0  0  0  0  0  0  0  0  0
    4.8138   -1.1984   -1.1434 H   0  0  0  0  0  0  0  0  0  0  0  0
    5.5035   -2.6251    0.6231 H   0  0  0  0  0  0  0  0  0  0  0  0
    6.4069   -1.1683    1.0680 H   0  0  0  0  0  0  0  0  0  0  0  0
    4.3458   -2.4713    2.5710 H   0  0  0  0  0  0  0  0  0  0  0  0
    5.0549   -0.8945    2.9549 H   0  0  0  0  0  0  0  0  0  0  0  0
    2.3938   -1.2338    2.2258 H   0  0  0  0  0  0  0  0  0  0  0  0
    3.3063    0.2814    2.0016 H   0  0  0  0  0  0  0  0  0  0  0  0
  1  2  2  0
  2  3  1  0
  2  4  1  0
  4  5  2  0
  5  6  1  0
  6  7  2  0
  7  8  1  0
  8  9  1  0
  9 10  2  0
  9 11  1  0
 11 12  2  0
 12 13  1  0
 13 14  2  0
 14 15  1  0
 15 16  2  0
 16 17  1  0
 17 18  1  0
 18 19  1  0
 19 20  1  0
 19 21  1  0
 21 22  1  0
 22 23  1  0
 23 24  1  0
 24 25  1  0
 25 26  1  0
 17 27  1  0
 27  4  1  0
 27  8  2  0
 16 11  1  0
 26 22  1  0
  3 28  1  0
  5 29  1  0
  6 30  1  0
  7 31  1  0
 12 32  1  0
 13 33  1  0
 14 34  1  0
 15 35  1  0
 18 36  1  0
 18 37  1  0
 19 38  1  0
 20 39  1  0
 21 40  1  0
 21 41  1  0
 23 42  1  0
 23 43  1  0
 24 44  1  0
 24 45  1  0
 25 46  1  0
 25 47  1  0
 26 48  1  0
 26 49  1  0
M  END
$$$$
