
     RDKit          3D

 37 39  0  0  0  0  0  0  0  0999 V2000
   -5.7303    1.2626    2.3836 C   0  0  0  0  0  0  0  0  0  0  0  0
   -5.4708    1.7075    1.0580 O   0  0  0  0  0  0  0  0  0  0  0  0
   -4.3466    1.2226    0.4533 C   0  0  0  0  0  0  0  0  0  0  0  0
   -3.3825    0.4087    1.0419 C   0  0  0  0  0  0  0  0  0  0  0  0
   -2.2711   -0.0125    0.2997 C   0  0  0  0  0  0  0  0  0  0  0  0
   -2.0980    0.3644   -1.0435 C   0  0  0  0  0  0  0  0  0  0  0  0
   -0.9077   -0.1110   -1.7635 C   0  0  0  0  0  0  0  0  0  0  0  0
    0.1189   -0.7327   -1.2117 N   0  0  0  0  0  0  0  0  0  0  0  0
    1.0612   -1.0232   -2.1870 C   0  0  0  0  0  0  0  0  0  0  0  0
    2.1884   -1.6539   -1.7272 N   0  0  0  0  0  0  0  0  0  0  0  0
    3.2921   -1.9688   -2.4844 C   0  0  0  0  0  0  0  0  0  0  0  0
    3.4404   -1.7497   -3.6834 O   0  0  0  0  0  0  0  0  0  0  0  0
    4.3921   -2.6536   -1.6866 C   0  0  0  0  0  0  0  0  0  0  0  0
    5.5440   -1.4303   -0.9912 S   0  0  0  0  0  0  0  0  0  0  0  0
    4.5591   -0.7388    0.2725 C   0  0  0  0  0  0  0  0  0  0  0  0
    3.5049   -1.3620    0.7551 N   0  0  0  0  0  0  0  0  0  0  0  0
    2.8367   -0.6030    1.6911 N   0  0  0  0  0  0  0  0  0  0  0  0
    3.4250    0.5587    1.8957 C   0  0  0  0  0  0  0  0  0  0  0  0
    2.9492    1.6026    2.8385 C   0  0  0  0  0  0  0  0  0  0  0  0
    4.8424    0.8049    0.9551 S   0  0  0  0  0  0  0  0  0  0  0  0
    0.8048   -0.6851   -3.4466 N   0  0  0  0  0  0  0  0  0  0  0  0
   -0.6827    0.0564   -3.4601 S   0  0  0  0  0  0  0  0  0  0  0  0
   -3.0740    1.1901   -1.6194 C   0  0  0  0  0  0  0  0  0  0  0  0
   -4.1842    1.6113   -0.8769 C   0  0  0  0  0  0  0  0  0  0  0  0
   -5.8236    0.1721    2.4262 H   0  0  0  0  0  0  0  0  0  0  0  0
   -4.9619    1.6219    3.0759 H   0  0  0  0  0  0  0  0  0  0  0  0
   -6.6891    1.6890    2.6968 H   0  0  0  0  0  0  0  0  0  0  0  0
   -3.4578    0.0830    2.0739 H   0  0  0  0  0  0  0  0  0  0  0  0
   -1.5304   -0.6482    0.7855 H   0  0  0  0  0  0  0  0  0  0  0  0
    2.1958   -1.7801   -0.7194 H   0  0  0  0  0  0  0  0  0  0  0  0
    3.9712   -3.3006   -0.9097 H   0  0  0  0  0  0  0  0  0  0  0  0
    4.9500   -3.3022   -2.3695 H   0  0  0  0  0  0  0  0  0  0  0  0
    3.7103    1.8215    3.5941 H   0  0  0  0  0  0  0  0  0  0  0  0
    2.0458    1.2648    3.3568 H   0  0  0  0  0  0  0  0  0  0  0  0
    2.7051    2.5276    2.3054 H   0  0  0  0  0  0  0  0  0  0  0  0
   -2.9971    1.5334   -2.6482 H   0  0  0  0  0  0  0  0  0  0  0  0
   -4.9298    2.2527   -1.3425 H   0  0  0  0  0  0  0  0  0  0  0  0
  1  2  1  0
  2  3  1  0
  3  4  2  0
  4  5  1  0
  5  6  2  0
  6  7  1  0
  7  8  2  0
  8  9  1  0
  9 10  1  0
 10 11  1  0
 11 12  2  0
 11 13  1  0
 13 14  1  0
 14 15  1  0
 15 16  2  0
 16 17  1  0
 17 18  2  0
 18 19  1  0
 18 20  1  0
  9 21  2  0
 21 22  1  0
  6 23  1  0
 23 24  2  0
 24  3  1  0
 22  7  1  0
 20 15  1  0
  1 25  1  0
  1 26  1  0
  1 27  1  0
  4 28  1  0
  5 29  1  0
 10 30  1  0
 13 31  1  0
 13 32  1  0
 19 33  1  0
 19 34  1  0
 19 35  1  0
 23 36  1  0
 24 37  1  0
M  END
$$$$
