
     RDKit          3D

 36 39  0  0  0  0  0  0  0  0999 V2000
   -6.6640   -0.3228    1.5758 C   0  0  0  0  0  0  0  0  0  0  0  0
   -5.3177    0.0055    1.0021 C   0  0  0  0  0  0  0  0  0  0  0  0
   -4.3107    0.1934    1.6707 O   0  0  0  0  0  0  0  0  0  0  0  0
   -5.4248    0.0566   -0.3846 O   0  0  0  0  0  0  0  0  0  0  0  0
   -4.2459    0.3503   -1.0831 C   0  0  0  0  0  0  0  0  0  0  0  0
   -4.2685    1.4490   -1.9395 C   0  0  0  0  0  0  0  0  0  0  0  0
   -3.1356    1.7516   -2.6925 C   0  0  0  0  0  0  0  0  0  0  0  0
   -1.9948    0.9504   -2.5923 C   0  0  0  0  0  0  0  0  0  0  0  0
   -1.9818   -0.1613   -1.7390 C   0  0  0  0  0  0  0  0  0  0  0  0
   -0.7945   -1.0122   -1.6269 C   0  0  0  0  0  0  0  0  0  0  0  0
    0.3465   -0.6748   -1.0094 C   0  0  0  0  0  0  0  0  0  0  0  0
    0.7050    0.8380   -0.1966 S   0  0  0  0  0  0  0  0  0  0  0  0
    2.2617    0.2430    0.2065 C   0  0  0  0  0  0  0  0  0  0  0  0
    3.2971    0.7106    0.8415 N   0  0  0  0  0  0  0  0  0  0  0  0
    4.1794   -0.3585    0.7511 C   0  0  0  0  0  0  0  0  0  0  0  0
    5.6111   -0.3049    1.3773 C   0  0  0  0  0  0  0  0  0  0  0  0
    6.1417    0.7684    2.0676 C   0  0  0  0  0  0  0  0  0  0  0  0
    7.4511    0.3958    2.4573 C   0  0  0  0  0  0  0  0  0  0  0  0
    7.6402   -0.8800    1.9820 C   0  0  0  0  0  0  0  0  0  0  0  0
    6.5333   -1.3134    1.3270 O   0  0  0  0  0  0  0  0  0  0  0  0
    3.7122   -1.4352    0.0864 N   0  0  0  0  0  0  0  0  0  0  0  0
    2.4828   -1.0082   -0.2429 N   0  0  0  0  0  0  0  0  0  0  0  0
    1.4830   -1.6442   -0.9466 C   0  0  0  0  0  0  0  0  0  0  0  0
    1.5706   -2.7694   -1.4034 O   0  0  0  0  0  0  0  0  0  0  0  0
   -3.1222   -0.4719   -0.9922 C   0  0  0  0  0  0  0  0  0  0  0  0
   -7.3816    0.4563    1.3069 H   0  0  0  0  0  0  0  0  0  0  0  0
   -6.5914   -0.3685    2.6662 H   0  0  0  0  0  0  0  0  0  0  0  0
   -6.9960   -1.2970    1.2082 H   0  0  0  0  0  0  0  0  0  0  0  0
   -5.1582    2.0665   -2.0196 H   0  0  0  0  0  0  0  0  0  0  0  0
   -3.1392    2.6104   -3.3591 H   0  0  0  0  0  0  0  0  0  0  0  0
   -1.1200    1.2009   -3.1884 H   0  0  0  0  0  0  0  0  0  0  0  0
   -0.9002   -1.9992   -2.0762 H   0  0  0  0  0  0  0  0  0  0  0  0
    5.6353    1.7040    2.2618 H   0  0  0  0  0  0  0  0  0  0  0  0
    8.1673    0.9827    3.0148 H   0  0  0  0  0  0  0  0  0  0  0  0
    8.4616   -1.5820    2.0230 H   0  0  0  0  0  0  0  0  0  0  0  0
   -3.1327   -1.3360   -0.3336 H   0  0  0  0  0  0  0  0  0  0  0  0
  1  2  1  0
  2  3  2  0
  2  4  1  0
  4  5  1  0
  5  6  2  0
  6  7  1  0
  7  8  2  0
  8  9  1  0
  9 10  1  0
 10 11  2  3
 11 12  1  0
 12 13  1  0
 13 14  2  0
 14 15  1  0
 15 16  1  0
 16 17  2  0
 17 18  1  0
 18 19  2  0
 19 20  1  0
 15 21  2  0
 21 22  1  0
 22 23  1  0
 23 24  2  0
  9 25  2  0
 25  5  1  0
 23 11  1  0
 22 13  1  0
 20 16  1  0
  1 26  1  0
  1 27  1  0
  1 28  1  0
  6 29  1  0
  7 30  1  0
  8 31  1  0
 10 32  1  0
 17 33  1  0
 18 34  1  0
 19 35  1  0
 25 36  1  0
M  END
$$$$
