
     RDKit          3D

 32 34  0  0  0  0  0  0  0  0999 V2000
   -4.0656    1.2220   -3.1508 C   0  0  0  0  0  0  0  0  0  0  0  0
   -3.7414   -0.1995   -2.7274 C   0  0  0  0  0  0  0  0  0  0  0  0
   -2.5636   -0.1615   -1.9270 O   0  0  0  0  0  0  0  0  0  0  0  0
   -2.0859   -1.3480   -1.4320 C   0  0  0  0  0  0  0  0  0  0  0  0
   -2.6758   -2.6026   -1.6576 C   0  0  0  0  0  0  0  0  0  0  0  0
   -2.1275   -3.7654   -1.1176 C   0  0  0  0  0  0  0  0  0  0  0  0
   -0.9740   -3.7188   -0.3351 C   0  0  0  0  0  0  0  0  0  0  0  0
   -0.3827   -2.4676   -0.1080 C   0  0  0  0  0  0  0  0  0  0  0  0
    1.0283   -2.0934    0.8042 S   0  0  0  0  0  0  0  0  0  0  0  0
    0.8363   -0.4474    0.4394 C   0  0  0  0  0  0  0  0  0  0  0  0
    1.6872    0.5290    0.8831 N   0  0  0  0  0  0  0  0  0  0  0  0
    2.8070    0.3865    1.6694 C   0  0  0  0  0  0  0  0  0  0  0  0
    3.2295   -0.6781    2.1094 O   0  0  0  0  0  0  0  0  0  0  0  0
    3.5013    1.6419    1.9663 C   0  0  0  0  0  0  0  0  0  0  0  0
    4.6488    1.7885    2.7306 C   0  0  0  0  0  0  0  0  0  0  0  0
    5.0772    3.1456    2.8312 C   0  0  0  0  0  0  0  0  0  0  0  0
    4.2373    3.9779    2.1386 C   0  0  0  0  0  0  0  0  0  0  0  0
    4.4779    5.8707    2.0348 Br  0  0  0  0  0  0  0  0  0  0  0  0
    2.9611    3.1648    1.3808 S   0  0  0  0  0  0  0  0  0  0  0  0
   -0.1926   -0.1382   -0.3083 N   0  0  0  0  0  0  0  0  0  0  0  0
   -0.9101   -1.2870   -0.6363 C   0  0  0  0  0  0  0  0  0  0  0  0
   -4.9662    1.2484   -3.7707 H   0  0  0  0  0  0  0  0  0  0  0  0
   -3.2339    1.6549   -3.7165 H   0  0  0  0  0  0  0  0  0  0  0  0
   -4.2208    1.8595   -2.2740 H   0  0  0  0  0  0  0  0  0  0  0  0
   -4.5820   -0.6002   -2.1493 H   0  0  0  0  0  0  0  0  0  0  0  0
   -3.5739   -0.8091   -3.6227 H   0  0  0  0  0  0  0  0  0  0  0  0
   -3.5745   -2.7043   -2.2581 H   0  0  0  0  0  0  0  0  0  0  0  0
   -2.6053   -4.7246   -1.3085 H   0  0  0  0  0  0  0  0  0  0  0  0
   -0.5472   -4.6246    0.0853 H   0  0  0  0  0  0  0  0  0  0  0  0
    1.4265    1.4551    0.5734 H   0  0  0  0  0  0  0  0  0  0  0  0
    5.1550    0.9490    3.1960 H   0  0  0  0  0  0  0  0  0  0  0  0
    5.9497    3.4763    3.3813 H   0  0  0  0  0  0  0  0  0  0  0  0
  1  2  1  0
  2  3  1  0
  3  4  1  0
  4  5  2  0
  5  6  1  0
  6  7  2  0
  7  8  1  0
  8  9  1  0
  9 10  1  0
 10 11  1  0
 11 12  1  0
 12 13  2  0
 12 14  1  0
 14 15  2  0
 15 16  1  0
 16 17  2  0
 17 18  1  0
 17 19  1  0
 10 20  2  0
 20 21  1  0
 21  4  1  0
 21  8  2  0
 19 14  1  0
  1 22  1  0
  1 23  1  0
  1 24  1  0
  2 25  1  0
  2 26  1  0
  5 27  1  0
  6 28  1  0
  7 29  1  0
 11 30  1  0
 15 31  1  0
 16 32  1  0
M  END
$$$$
