
     RDKit          3D

 57 60  0  0  0  0  0  0  0  0999 V2000
   -3.8728   -3.3241   -0.0086 C   0  0  0  0  0  0  0  0  0  0  0  0
   -4.7969   -2.2489   -0.5762 C   0  0  0  0  0  0  0  0  0  0  0  0
   -6.2445   -2.7476   -0.5427 C   0  0  0  0  0  0  0  0  0  0  0  0
   -4.6569   -0.9456    0.2187 C   0  0  0  0  0  0  0  0  0  0  0  0
   -5.5342   -0.5952    1.0115 O   0  0  0  0  0  0  0  0  0  0  0  0
   -3.5036   -0.1921    0.0546 N   0  0  0  0  0  0  0  0  0  0  0  0
   -3.3284    0.9996    0.8967 C   0  0  0  0  0  0  0  0  0  0  0  0
   -1.8514    1.3730    1.1088 C   0  0  0  0  0  0  0  0  0  0  0  0
   -1.0872    1.4860   -0.1617 N   0  0  0  0  0  0  0  0  0  0  0  0
   -0.6056    2.8015   -0.4107 C   0  0  0  0  0  0  0  0  0  0  0  0
   -1.4632    3.8989   -0.5767 C   0  0  0  0  0  0  0  0  0  0  0  0
   -0.9451    5.1687   -0.8353 C   0  0  0  0  0  0  0  0  0  0  0  0
    0.4327    5.3545   -0.9308 C   0  0  0  0  0  0  0  0  0  0  0  0
    1.3027    4.2747   -0.7651 C   0  0  0  0  0  0  0  0  0  0  0  0
    0.7936    3.0035   -0.5018 C   0  0  0  0  0  0  0  0  0  0  0  0
    1.5889    1.8550   -0.3079 N   0  0  0  0  0  0  0  0  0  0  0  0
    2.9614    1.7564   -0.2871 C   0  0  0  0  0  0  0  0  0  0  0  0
    3.7646    2.6738   -0.4064 O   0  0  0  0  0  0  0  0  0  0  0  0
    3.4854    0.3782   -0.0658 C   0  0  0  0  0  0  0  0  0  0  0  0
    2.8257   -0.7528   -0.5709 C   0  0  0  0  0  0  0  0  0  0  0  0
    3.3473   -2.0282   -0.3390 C   0  0  0  0  0  0  0  0  0  0  0  0
    4.5262   -2.1750    0.3894 C   0  0  0  0  0  0  0  0  0  0  0  0
    5.2082   -1.0464    0.8569 C   0  0  0  0  0  0  0  0  0  0  0  0
    4.6861    0.2271    0.6394 C   0  0  0  0  0  0  0  0  0  0  0  0
    6.3922   -1.1182    1.5451 O   0  0  0  0  0  0  0  0  0  0  0  0
    7.0019   -2.4059    1.4012 C   0  0  0  0  0  0  0  0  0  0  0  0
    5.9767   -3.5082    1.6090 C   0  0  0  0  0  0  0  0  0  0  0  0
    4.9649   -3.4577    0.5959 O   0  0  0  0  0  0  0  0  0  0  0  0
   -1.7617    0.9223   -1.3548 C   0  0  0  0  0  0  0  0  0  0  0  0
   -2.4956   -0.3843   -0.9989 C   0  0  0  0  0  0  0  0  0  0  0  0
   -3.9950   -4.2682   -0.5499 H   0  0  0  0  0  0  0  0  0  0  0  0
   -2.8205   -3.0381   -0.0794 H   0  0  0  0  0  0  0  0  0  0  0  0
   -4.0877   -3.5087    1.0500 H   0  0  0  0  0  0  0  0  0  0  0  0
   -4.5535   -2.0630   -1.6258 H   0  0  0  0  0  0  0  0  0  0  0  0
   -6.3605   -3.6454   -1.1591 H   0  0  0  0  0  0  0  0  0  0  0  0
   -6.9277   -1.9834   -0.9293 H   0  0  0  0  0  0  0  0  0  0  0  0
   -6.5627   -2.9936    0.4765 H   0  0  0  0  0  0  0  0  0  0  0  0
   -3.8603    1.8194    0.3992 H   0  0  0  0  0  0  0  0  0  0  0  0
   -3.8063    0.8431    1.8701 H   0  0  0  0  0  0  0  0  0  0  0  0
   -1.3732    0.5745    1.6901 H   0  0  0  0  0  0  0  0  0  0  0  0
   -1.7815    2.2811    1.7207 H   0  0  0  0  0  0  0  0  0  0  0  0
   -2.5398    3.7757   -0.5106 H   0  0  0  0  0  0  0  0  0  0  0  0
   -1.6160    6.0143   -0.9635 H   0  0  0  0  0  0  0  0  0  0  0  0
    0.8368    6.3435   -1.1327 H   0  0  0  0  0  0  0  0  0  0  0  0
    2.3702    4.4538   -0.8434 H   0  0  0  0  0  0  0  0  0  0  0  0
    1.0208    1.0427   -0.0858 H   0  0  0  0  0  0  0  0  0  0  0  0
    1.9210   -0.6560   -1.1647 H   0  0  0  0  0  0  0  0  0  0  0  0
    2.8364   -2.9066   -0.7240 H   0  0  0  0  0  0  0  0  0  0  0  0
    5.2171    1.1003    1.0117 H   0  0  0  0  0  0  0  0  0  0  0  0
    7.4612   -2.4659    0.4067 H   0  0  0  0  0  0  0  0  0  0  0  0
    7.7969   -2.4820    2.1495 H   0  0  0  0  0  0  0  0  0  0  0  0
    5.4915   -3.4256    2.5894 H   0  0  0  0  0  0  0  0  0  0  0  0
    6.4580   -4.4893    1.5478 H   0  0  0  0  0  0  0  0  0  0  0  0
   -2.4899    1.6288   -1.7744 H   0  0  0  0  0  0  0  0  0  0  0  0
   -1.0127    0.7134   -2.1280 H   0  0  0  0  0  0  0  0  0  0  0  0
   -2.9603   -0.7909   -1.8995 H   0  0  0  0  0  0  0  0  0  0  0  0
   -1.7739   -1.1168   -0.6214 H   0  0  0  0  0  0  0  0  0  0  0  0
  1  2  1  0
  2  3  1  0
  2  4  1  0
  4  5  2  0
  4  6  1  0
  6  7  1  0
  7  8  1  0
  8  9  1  0
  9 10  1  0
 10 11  2  0
 11 12  1  0
 12 13  2  0
 13 14  1  0
 14 15  2  0
 15 16  1  0
 16 17  1  0
 17 18  2  0
 17 19  1  0
 19 20  2  0
 20 21  1  0
 21 22  2  0
 22 23  1  0
 23 24  2  0
 23 25  1  0
 25 26  1  0
 26 27  1  0
 27 28  1  0
  9 29  1  0
 29 30  1  0
 30  6  1  0
 15 10  1  0
 24 19  1  0
 28 22  1  0
  1 31  1  0
  1 32  1  0
  1 33  1  0
  2 34  1  0
  3 35  1  0
  3 36  1  0
  3 37  1  0
  7 38  1  0
  7 39  1  0
  8 40  1  0
  8 41  1  0
 11 42  1  0
 12 43  1  0
 13 44  1  0
 14 45  1  0
 16 46  1  0
 20 47  1  0
 21 48  1  0
 24 49  1  0
 26 50  1  0
 26 51  1  0
 27 52  1  0
 27 53  1  0
 29 54  1  0
 29 55  1  0
 30 56  1  0
 30 57  1  0
M  END
$$$$
