
     RDKit          3D

 36 38  0  0  0  0  0  0  0  0999 V2000
    5.8654   -0.7167    1.1001 C   0  0  0  0  0  0  0  0  0  0  0  0
    5.5531    0.3573    0.0776 C   0  0  0  0  0  0  0  0  0  0  0  0
    4.0878    0.5710    0.0211 N   0  0  0  0  0  4  0  0  0  0  0  0
    3.5127    1.4930    0.8271 C   0  0  0  0  0  0  0  0  0  0  0  0
    2.1406    1.7131    0.7871 C   0  0  0  0  0  0  0  0  0  0  0  0
    1.3461    0.9687   -0.0822 C   0  0  0  0  0  0  0  0  0  0  0  0
   -0.0969    1.2263   -0.1328 C   0  0  0  0  0  0  0  0  0  0  0  0
   -1.0243    0.2551   -0.1944 C   0  0  0  0  0  0  0  0  0  0  0  0
   -2.4416    0.4472   -0.2417 C   0  0  0  0  0  0  0  0  0  0  0  0
   -3.1000    1.6560   -0.3213 C   0  0  0  0  0  0  0  0  0  0  0  0
   -4.4477    1.4037   -0.3502 N   0  0  0  0  0  0  0  0  0  0  0  0
   -4.6811    0.0496   -0.2921 C   0  0  0  0  0  0  0  0  0  0  0  0
   -5.8920   -0.6533   -0.2962 C   0  0  0  0  0  0  0  0  0  0  0  0
   -5.8335   -2.0475   -0.2265 C   0  0  0  0  0  0  0  0  0  0  0  0
   -4.6116   -2.7102   -0.1554 C   0  0  0  0  0  0  0  0  0  0  0  0
   -3.4097   -1.9922   -0.1525 C   0  0  0  0  0  0  0  0  0  0  0  0
   -3.4375   -0.5818   -0.2228 C   0  0  0  0  0  0  0  0  0  0  0  0
    1.9618    0.0352   -0.9144 C   0  0  0  0  0  0  0  0  0  0  0  0
    3.3376   -0.1503   -0.8433 C   0  0  0  0  0  0  0  0  0  0  0  0
    6.9447   -0.8876    1.1550 H   0  0  0  0  0  0  0  0  0  0  0  0
    5.5129   -0.4277    2.0954 H   0  0  0  0  0  0  0  0  0  0  0  0
    5.3814   -1.6630    0.8379 H   0  0  0  0  0  0  0  0  0  0  0  0
    5.8950    0.0713   -0.9228 H   0  0  0  0  0  0  0  0  0  0  0  0
    6.0270    1.3097    0.3379 H   0  0  0  0  0  0  0  0  0  0  0  0
    4.1589    2.0475    1.5020 H   0  0  0  0  0  0  0  0  0  0  0  0
    1.6968    2.4583    1.4452 H   0  0  0  0  0  0  0  0  0  0  0  0
   -0.3957    2.2714   -0.0941 H   0  0  0  0  0  0  0  0  0  0  0  0
   -0.6968   -0.7822   -0.1957 H   0  0  0  0  0  0  0  0  0  0  0  0
   -2.7453    2.6763   -0.3641 H   0  0  0  0  0  0  0  0  0  0  0  0
   -5.1731    2.1056   -0.4079 H   0  0  0  0  0  0  0  0  0  0  0  0
   -6.8475   -0.1410   -0.3510 H   0  0  0  0  0  0  0  0  0  0  0  0
   -6.7576   -2.6219   -0.2274 H   0  0  0  0  0  0  0  0  0  0  0  0
   -4.5907   -3.7961   -0.1007 H   0  0  0  0  0  0  0  0  0  0  0  0
   -2.4674   -2.5271   -0.0945 H   0  0  0  0  0  0  0  0  0  0  0  0
    1.3805   -0.5451   -1.6289 H   0  0  0  0  0  0  0  0  0  0  0  0
    3.8479   -0.8726   -1.4744 H   0  0  0  0  0  0  0  0  0  0  0  0
  1  2  1  0
  2  3  1  0
  3  4  2  0
  4  5  1  0
  5  6  2  0
  6  7  1  0
  7  8  2  3
  8  9  1  0
  9 10  2  0
 10 11  1  0
 11 12  1  0
 12 13  2  0
 13 14  1  0
 14 15  2  0
 15 16  1  0
 16 17  2  0
  6 18  1  0
 18 19  2  0
 19  3  1  0
 17  9  1  0
 17 12  1  0
  1 20  1  0
  1 21  1  0
  1 22  1  0
  2 23  1  0
  2 24  1  0
  4 25  1  0
  5 26  1  0
  7 27  1  0
  8 28  1  0
 10 29  1  0
 11 30  1  0
 13 31  1  0
 14 32  1  0
 15 33  1  0
 16 34  1  0
 18 35  1  0
 19 36  1  0
M  CHG  1   3   1
M  END
$$$$
