
     RDKit          3D

 54 59  0  0  0  0  0  0  0  0999 V2000
    7.0769   -2.3351    1.3575 C   0  0  0  0  0  0  0  0  0  0  0  0
    6.0148   -1.5023    0.7033 C   0  0  0  0  0  0  0  0  0  0  0  0
    4.8445   -2.0972    0.2222 C   0  0  0  0  0  0  0  0  0  0  0  0
    3.8675   -1.3287   -0.4159 C   0  0  0  0  0  0  0  0  0  0  0  0
    4.0408    0.0519   -0.5858 C   0  0  0  0  0  0  0  0  0  0  0  0
    2.9939    0.8906   -1.2890 C   0  0  0  0  0  0  0  0  0  0  0  0
    1.6705    0.8138   -0.6687 N   0  0  0  0  0  0  0  0  0  0  0  0
    1.3276    1.5553    0.4681 C   0  0  0  0  0  0  0  0  0  0  0  0
    2.3658    2.4631    1.0880 C   0  0  0  0  0  0  0  0  0  0  0  0
    0.1612    1.5227    1.0497 N   0  0  0  0  0  0  0  0  0  0  0  0
   -0.7349    0.7035    0.4633 C   0  0  0  0  0  0  0  0  0  0  0  0
   -0.5369   -0.0824   -0.6478 C   0  0  0  0  0  0  0  0  0  0  0  0
    0.7475   -0.0498   -1.2938 C   0  0  0  0  0  0  0  0  0  0  0  0
    1.0039   -0.7159   -2.2925 O   0  0  0  0  0  0  0  0  0  0  0  0
   -1.7317   -0.7836   -0.8949 C   0  0  0  0  0  0  0  0  0  0  0  0
   -2.0673   -1.6856   -1.8494 N   0  0  0  0  0  0  0  0  0  0  0  0
   -3.3216   -2.1544   -1.7608 C   0  0  0  0  0  0  0  0  0  0  0  0
   -3.7432   -3.0831   -2.7036 C   0  0  0  0  0  0  0  0  0  0  0  0
   -5.0319   -3.6179   -2.6785 C   0  0  0  0  0  0  0  0  0  0  0  0
   -5.9192   -3.2166   -1.6900 C   0  0  0  0  0  0  0  0  0  0  0  0
   -5.5097   -2.2840   -0.7358 C   0  0  0  0  0  0  0  0  0  0  0  0
   -4.2304   -1.7426   -0.7479 C   0  0  0  0  0  0  0  0  0  0  0  0
   -3.9087   -0.8482    0.2035 N   0  0  0  0  0  0  0  0  0  0  0  0
   -2.6431   -0.3963    0.0851 C   0  0  0  0  0  0  0  0  0  0  0  0
   -2.0254    0.5262    0.8949 N   0  0  0  0  0  0  0  0  0  0  0  0
   -2.6415    1.1709    2.0421 C   0  0  0  0  0  0  0  0  0  0  0  0
   -3.3727    2.3979    1.6346 C   0  0  0  0  0  0  0  0  0  0  0  0
   -4.4782    2.6276    0.8392 C   0  0  0  0  0  0  0  0  0  0  0  0
   -4.6954    4.0259    0.8478 C   0  0  0  0  0  0  0  0  0  0  0  0
   -3.7173    4.5601    1.6524 C   0  0  0  0  0  0  0  0  0  0  0  0
   -2.9139    3.5806    2.1397 O   0  0  0  0  0  0  0  0  0  0  0  0
    5.2312    0.6379   -0.1313 C   0  0  0  0  0  0  0  0  0  0  0  0
    6.2075   -0.1314    0.5073 C   0  0  0  0  0  0  0  0  0  0  0  0
    7.7727   -2.7146    0.6029 H   0  0  0  0  0  0  0  0  0  0  0  0
    6.6348   -3.1834    1.8905 H   0  0  0  0  0  0  0  0  0  0  0  0
    7.6372   -1.7470    2.0919 H   0  0  0  0  0  0  0  0  0  0  0  0
    4.6850   -3.1675    0.3359 H   0  0  0  0  0  0  0  0  0  0  0  0
    2.9748   -1.8266   -0.7902 H   0  0  0  0  0  0  0  0  0  0  0  0
    3.3055    1.9400   -1.3147 H   0  0  0  0  0  0  0  0  0  0  0  0
    2.9539    0.5738   -2.3381 H   0  0  0  0  0  0  0  0  0  0  0  0
    3.1825    1.8686    1.5016 H   0  0  0  0  0  0  0  0  0  0  0  0
    2.7508    3.1731    0.3530 H   0  0  0  0  0  0  0  0  0  0  0  0
    1.9205    3.0379    1.9066 H   0  0  0  0  0  0  0  0  0  0  0  0
   -3.0471   -3.3976   -3.4784 H   0  0  0  0  0  0  0  0  0  0  0  0
   -5.3347   -4.3435   -3.4293 H   0  0  0  0  0  0  0  0  0  0  0  0
   -6.9262   -3.6246   -1.6569 H   0  0  0  0  0  0  0  0  0  0  0  0
   -6.2066   -1.9715    0.0385 H   0  0  0  0  0  0  0  0  0  0  0  0
   -1.8567    1.3937    2.7729 H   0  0  0  0  0  0  0  0  0  0  0  0
   -3.3242    0.4525    2.5091 H   0  0  0  0  0  0  0  0  0  0  0  0
   -5.0498    1.8732    0.3149 H   0  0  0  0  0  0  0  0  0  0  0  0
   -5.4690    4.5768    0.3320 H   0  0  0  0  0  0  0  0  0  0  0  0
   -3.4692    5.5650    1.9640 H   0  0  0  0  0  0  0  0  0  0  0  0
    5.4127    1.7018   -0.2691 H   0  0  0  0  0  0  0  0  0  0  0  0
    7.1226    0.3473    0.8494 H   0  0  0  0  0  0  0  0  0  0  0  0
  1  2  1  0
  2  3  2  0
  3  4  1  0
  4  5  2  0
  5  6  1  0
  6  7  1  0
  7  8  1  0
  8  9  1  0
  8 10  2  0
 10 11  1  0
 11 12  2  0
 12 13  1  0
 13 14  2  0
 12 15  1  0
 15 16  2  0
 16 17  1  0
 17 18  2  0
 18 19  1  0
 19 20  2  0
 20 21  1  0
 21 22  2  0
 22 23  1  0
 23 24  2  0
 24 25  1  0
 25 26  1  0
 26 27  1  0
 27 28  2  0
 28 29  1  0
 29 30  2  0
 30 31  1  0
  5 32  1  0
 32 33  2  0
 33  2  1  0
 13  7  1  0
 24 15  1  0
 31 27  1  0
 25 11  1  0
 22 17  1  0
  1 34  1  0
  1 35  1  0
  1 36  1  0
  3 37  1  0
  4 38  1  0
  6 39  1  0
  6 40  1  0
  9 41  1  0
  9 42  1  0
  9 43  1  0
 18 44  1  0
 19 45  1  0
 20 46  1  0
 21 47  1  0
 26 48  1  0
 26 49  1  0
 28 50  1  0
 29 51  1  0
 30 52  1  0
 32 53  1  0
 33 54  1  0
M  END
$$$$
