
     RDKit          3D

 24 26  0  0  0  0  0  0  0  0999 V2000
   -4.4062   -1.3693   -1.3744 F   0  0  0  0  0  0  0  0  0  0  0  0
   -3.2789   -0.7773   -0.9646 C   0  0  0  0  0  0  0  0  0  0  0  0
   -3.1306   -0.4378    0.3752 C   0  0  0  0  0  0  0  0  0  0  0  0
   -1.9537    0.1783    0.8065 C   0  0  0  0  0  0  0  0  0  0  0  0
   -0.9277    0.4485   -0.1113 C   0  0  0  0  0  0  0  0  0  0  0  0
    0.3013    1.0675    0.3344 C   0  0  0  0  0  0  0  0  0  0  0  0
    0.3922    2.3800    0.7626 C   0  0  0  0  0  0  0  0  0  0  0  0
    2.0305    2.7561    1.1919 S   0  0  0  0  0  0  0  0  0  0  0  0
    2.5230    1.1870    0.8125 C   0  0  0  0  0  0  0  0  0  0  0  0
    1.5274    0.4484    0.3927 N   0  0  0  0  0  4  0  0  0  0  0  0
    1.8762   -0.9175    0.0278 C   0  0  0  0  0  0  0  0  0  0  0  0
    3.2540   -1.2316    0.6353 C   0  0  0  0  0  0  0  0  0  0  0  0
    4.0544    0.3972    0.8983 S   0  0  0  0  0  0  0  0  0  0  0  0
   -1.0918    0.1049   -1.4616 C   0  0  0  0  0  0  0  0  0  0  0  0
   -2.2721   -0.5101   -1.8855 C   0  0  0  0  0  0  0  0  0  0  0  0
   -3.9373   -0.6531    1.0716 H   0  0  0  0  0  0  0  0  0  0  0  0
   -1.8586    0.4393    1.8596 H   0  0  0  0  0  0  0  0  0  0  0  0
   -0.3832    3.1329    0.8376 H   0  0  0  0  0  0  0  0  0  0  0  0
    1.9170   -0.9795   -1.0663 H   0  0  0  0  0  0  0  0  0  0  0  0
    1.1220   -1.6218    0.3928 H   0  0  0  0  0  0  0  0  0  0  0  0
    3.1378   -1.7154    1.6103 H   0  0  0  0  0  0  0  0  0  0  0  0
    3.8531   -1.8758   -0.0134 H   0  0  0  0  0  0  0  0  0  0  0  0
   -0.3259    0.3250   -2.2032 H   0  0  0  0  0  0  0  0  0  0  0  0
   -2.4228   -0.7758   -2.9289 H   0  0  0  0  0  0  0  0  0  0  0  0
  1  2  1  0
  2  3  2  0
  3  4  1  0
  4  5  2  0
  5  6  1  0
  6  7  2  0
  7  8  1  0
  8  9  1  0
  9 10  2  0
 10 11  1  0
 11 12  1  0
 12 13  1  0
  5 14  1  0
 14 15  2  0
 15  2  1  0
 10  6  1  0
 13  9  1  0
  3 16  1  0
  4 17  1  0
  7 18  1  0
 11 19  1  0
 11 20  1  0
 12 21  1  0
 12 22  1  0
 14 23  1  0
 15 24  1  0
M  CHG  1  10   1
M  END
$$$$
