
     RDKit          3D

 61 66  0  0  0  0  0  0  0  0999 V2000
    9.4076    2.3236   -0.6526 F   0  0  0  0  0  0  0  0  0  0  0  0
    9.1250    0.9911   -0.6862 C   0  0  0  0  0  0  0  0  0  0  0  0
   10.1005    0.3865    0.0458 F   0  0  0  0  0  0  0  0  0  0  0  0
    9.3316    0.6020   -1.9746 F   0  0  0  0  0  0  0  0  0  0  0  0
    7.7419    0.6498   -0.1911 C   0  0  0  0  0  0  0  0  0  0  0  0
    6.9155    1.6253    0.3831 C   0  0  0  0  0  0  0  0  0  0  0  0
    5.6403    1.2904    0.8450 C   0  0  0  0  0  0  0  0  0  0  0  0
    5.1648   -0.0251    0.7444 C   0  0  0  0  0  0  0  0  0  0  0  0
    3.7910   -0.3895    1.2688 C   0  0  0  0  0  0  0  0  0  0  0  0
    2.7086    0.3994    0.6593 N   0  0  0  0  0  0  0  0  0  0  0  0
    1.4719    0.2572    1.4595 C   0  0  0  0  0  0  0  0  0  0  0  0
    0.1795    0.5765    0.6788 C   0  0  0  0  0  0  0  0  0  0  0  0
    0.0162   -0.3197   -0.4752 N   0  0  0  0  0  0  0  0  0  0  0  0
   -1.1887   -0.9662   -0.7342 C   0  0  0  0  0  0  0  0  0  0  0  0
   -1.1409   -2.2113   -1.1437 N   0  0  0  0  0  0  0  0  0  0  0  0
   -2.3209   -2.9389   -1.3857 C   0  0  0  0  0  0  0  0  0  0  0  0
   -2.2076   -4.2672   -1.8021 C   0  0  0  0  0  0  0  0  0  0  0  0
   -3.3470   -5.0392   -2.0444 C   0  0  0  0  0  0  0  0  0  0  0  0
   -4.6164   -4.4863   -1.8723 C   0  0  0  0  0  0  0  0  0  0  0  0
   -4.7527   -3.1611   -1.4573 C   0  0  0  0  0  0  0  0  0  0  0  0
   -3.6033   -2.4019   -1.2162 C   0  0  0  0  0  0  0  0  0  0  0  0
   -3.6482   -1.0596   -0.8059 N   0  0  0  0  0  0  0  0  0  0  0  0
   -4.7398   -0.2588   -0.5699 C   0  0  0  0  0  0  0  0  0  0  0  0
   -4.2955    1.0122   -0.2581 C   0  0  0  0  0  0  0  0  0  0  0  0
   -5.1729    2.1321    0.0529 C   0  0  0  0  0  0  0  0  0  0  0  0
   -4.7594    3.1109    0.9660 C   0  0  0  0  0  0  0  0  0  0  0  0
   -5.5934    4.1867    1.2827 C   0  0  0  0  0  0  0  0  0  0  0  0
   -6.8480    4.2977    0.6862 C   0  0  0  0  0  0  0  0  0  0  0  0
   -7.2683    3.3360   -0.2285 C   0  0  0  0  0  0  0  0  0  0  0  0
   -6.4349    2.2589   -0.5447 C   0  0  0  0  0  0  0  0  0  0  0  0
   -2.8760    0.9580   -0.2901 C   0  0  0  0  0  0  0  0  0  0  0  0
   -2.4950   -0.3396   -0.5863 C   0  0  0  0  0  0  0  0  0  0  0  0
    1.2665   -0.9069   -0.9882 C   0  0  0  0  0  0  0  0  0  0  0  0
    2.4659    0.0344   -0.7561 C   0  0  0  0  0  0  0  0  0  0  0  0
    5.9930   -1.0025    0.1774 C   0  0  0  0  0  0  0  0  0  0  0  0
    7.2672   -0.6681   -0.2878 C   0  0  0  0  0  0  0  0  0  0  0  0
    7.2595    2.6554    0.4740 H   0  0  0  0  0  0  0  0  0  0  0  0
    5.0078    2.0615    1.2791 H   0  0  0  0  0  0  0  0  0  0  0  0
    3.6029   -1.4632    1.1392 H   0  0  0  0  0  0  0  0  0  0  0  0
    3.8205   -0.2092    2.3519 H   0  0  0  0  0  0  0  0  0  0  0  0
    1.5385    0.9243    2.3267 H   0  0  0  0  0  0  0  0  0  0  0  0
    1.3827   -0.7674    1.8468 H   0  0  0  0  0  0  0  0  0  0  0  0
   -0.6583    0.4751    1.3768 H   0  0  0  0  0  0  0  0  0  0  0  0
    0.2019    1.6138    0.3275 H   0  0  0  0  0  0  0  0  0  0  0  0
   -1.2200   -4.7012   -1.9361 H   0  0  0  0  0  0  0  0  0  0  0  0
   -3.2416   -6.0716   -2.3680 H   0  0  0  0  0  0  0  0  0  0  0  0
   -5.5001   -5.0905   -2.0636 H   0  0  0  0  0  0  0  0  0  0  0  0
   -5.7500   -2.7525   -1.3345 H   0  0  0  0  0  0  0  0  0  0  0  0
   -5.7446   -0.6480   -0.6416 H   0  0  0  0  0  0  0  0  0  0  0  0
   -3.7897    3.0394    1.4532 H   0  0  0  0  0  0  0  0  0  0  0  0
   -5.2627    4.9346    1.9974 H   0  0  0  0  0  0  0  0  0  0  0  0
   -7.4973    5.1336    0.9349 H   0  0  0  0  0  0  0  0  0  0  0  0
   -8.2444    3.4230   -0.6996 H   0  0  0  0  0  0  0  0  0  0  0  0
   -6.7802    1.5288   -1.2711 H   0  0  0  0  0  0  0  0  0  0  0  0
   -2.2041    1.7867   -0.1173 H   0  0  0  0  0  0  0  0  0  0  0  0
    1.4563   -1.8701   -0.4993 H   0  0  0  0  0  0  0  0  0  0  0  0
    1.1701   -1.0890   -2.0648 H   0  0  0  0  0  0  0  0  0  0  0  0
    3.3562   -0.3965   -1.2286 H   0  0  0  0  0  0  0  0  0  0  0  0
    2.2734    0.9700   -1.2960 H   0  0  0  0  0  0  0  0  0  0  0  0
    5.6497   -2.0317    0.0912 H   0  0  0  0  0  0  0  0  0  0  0  0
    7.8952   -1.4423   -0.7268 H   0  0  0  0  0  0  0  0  0  0  0  0
  1  2  1  0
  2  3  1  0
  2  4  1  0
  2  5  1  0
  5  6  2  0
  6  7  1  0
  7  8  2  0
  8  9  1  0
  9 10  1  0
 10 11  1  0
 11 12  1  0
 12 13  1  0
 13 14  1  0
 14 15  2  0
 15 16  1  0
 16 17  2  0
 17 18  1  0
 18 19  2  0
 19 20  1  0
 20 21  2  0
 21 22  1  0
 22 23  1  0
 23 24  2  0
 24 25  1  0
 25 26  2  0
 26 27  1  0
 27 28  2  0
 28 29  1  0
 29 30  2  0
 24 31  1  0
 31 32  2  0
 13 33  1  0
 33 34  1  0
  8 35  1  0
 35 36  2  0
 36  5  1  0
 34 10  1  0
 32 14  1  0
 21 16  1  0
 32 22  1  0
 30 25  1  0
  6 37  1  0
  7 38  1  0
  9 39  1  0
  9 40  1  0
 11 41  1  0
 11 42  1  0
 12 43  1  0
 12 44  1  0
 17 45  1  0
 18 46  1  0
 19 47  1  0
 20 48  1  0
 23 49  1  0
 26 50  1  0
 27 51  1  0
 28 52  1  0
 29 53  1  0
 30 54  1  0
 31 55  1  0
 33 56  1  0
 33 57  1  0
 34 58  1  0
 34 59  1  0
 35 60  1  0
 36 61  1  0
M  END
$$$$
