
     RDKit          3D

 37 38  0  0  0  0  0  0  0  0999 V2000
   -5.3963   -0.6207   -2.6154 C   0  0  0  0  0  0  0  0  0  0  0  0
   -5.0235   -0.4619   -1.2102 N   0  0  0  0  0  0  0  0  0  0  0  0
   -6.0785    0.0434   -0.3323 C   0  0  0  0  0  0  0  0  0  0  0  0
   -3.6857   -0.2257   -0.8800 C   0  0  0  0  0  0  0  0  0  0  0  0
   -2.6390   -0.4532   -1.7899 C   0  0  0  0  0  0  0  0  0  0  0  0
   -1.2912   -0.2414   -1.4572 C   0  0  0  0  0  0  0  0  0  0  0  0
   -0.9334    0.1926   -0.1817 C   0  0  0  0  0  0  0  0  0  0  0  0
    0.4605    0.4499    0.2050 C   0  0  0  0  0  0  0  0  0  0  0  0
    1.4810   -0.3511   -0.1424 C   0  0  0  0  0  0  0  0  0  0  0  0
    2.8771   -0.1133    0.2415 C   0  0  0  0  0  0  0  0  0  0  0  0
    3.2340    0.3685    1.5002 C   0  0  0  0  0  0  0  0  0  0  0  0
    4.5762    0.5448    1.8174 C   0  0  0  0  0  0  0  0  0  0  0  0
    5.5409    0.2503    0.9180 N   0  0  0  0  0  4  0  0  0  0  0  0
    6.9561    0.4368    1.2802 C   0  0  0  0  0  0  0  0  0  0  0  0
    5.2212   -0.2400   -0.3001 C   0  0  0  0  0  0  0  0  0  0  0  0
    3.8919   -0.4340   -0.6588 C   0  0  0  0  0  0  0  0  0  0  0  0
   -1.9513    0.4318    0.7396 C   0  0  0  0  0  0  0  0  0  0  0  0
   -3.2955    0.2150    0.3961 C   0  0  0  0  0  0  0  0  0  0  0  0
   -4.9077   -1.4952   -3.0583 H   0  0  0  0  0  0  0  0  0  0  0  0
   -5.1430    0.2752   -3.1929 H   0  0  0  0  0  0  0  0  0  0  0  0
   -6.4732   -0.7912   -2.7259 H   0  0  0  0  0  0  0  0  0  0  0  0
   -6.0108   -0.4026    0.6658 H   0  0  0  0  0  0  0  0  0  0  0  0
   -6.0337    1.1352   -0.2523 H   0  0  0  0  0  0  0  0  0  0  0  0
   -7.0725   -0.2198   -0.7111 H   0  0  0  0  0  0  0  0  0  0  0  0
   -2.8438   -0.8062   -2.7963 H   0  0  0  0  0  0  0  0  0  0  0  0
   -0.5380   -0.4177   -2.2202 H   0  0  0  0  0  0  0  0  0  0  0  0
    0.6108    1.3405    0.8097 H   0  0  0  0  0  0  0  0  0  0  0  0
    1.2974   -1.2376   -0.7481 H   0  0  0  0  0  0  0  0  0  0  0  0
    2.4762    0.5971    2.2471 H   0  0  0  0  0  0  0  0  0  0  0  0
    4.8877    0.9145    2.7904 H   0  0  0  0  0  0  0  0  0  0  0  0
    7.0389    1.2679    1.9853 H   0  0  0  0  0  0  0  0  0  0  0  0
    7.5291    0.6694    0.3789 H   0  0  0  0  0  0  0  0  0  0  0  0
    7.3034   -0.4950    1.7333 H   0  0  0  0  0  0  0  0  0  0  0  0
    6.0352   -0.4772   -0.9796 H   0  0  0  0  0  0  0  0  0  0  0  0
    3.6555   -0.8285   -1.6456 H   0  0  0  0  0  0  0  0  0  0  0  0
   -1.7225    0.7767    1.7451 H   0  0  0  0  0  0  0  0  0  0  0  0
   -4.0334    0.4026    1.1704 H   0  0  0  0  0  0  0  0  0  0  0  0
  1  2  1  0
  2  3  1  0
  2  4  1  0
  4  5  2  0
  5  6  1  0
  6  7  2  0
  7  8  1  0
  8  9  2  3
  9 10  1  0
 10 11  2  0
 11 12  1  0
 12 13  2  0
 13 14  1  0
 13 15  1  0
 15 16  2  0
  7 17  1  0
 17 18  2  0
 18  4  1  0
 16 10  1  0
  1 19  1  0
  1 20  1  0
  1 21  1  0
  3 22  1  0
  3 23  1  0
  3 24  1  0
  5 25  1  0
  6 26  1  0
  8 27  1  0
  9 28  1  0
 11 29  1  0
 12 30  1  0
 14 31  1  0
 14 32  1  0
 14 33  1  0
 15 34  1  0
 16 35  1  0
 17 36  1  0
 18 37  1  0
M  CHG  1  13   1
M  END
$$$$
