
     RDKit          3D

 37 39  0  0  0  0  0  0  0  0999 V2000
    7.9313   -0.3275    0.6042 C   0  0  0  0  0  0  0  0  0  0  0  0
    6.4324   -0.5624    0.5056 C   0  0  0  0  0  0  0  0  0  0  0  0
    5.7439    0.5453   -0.2919 C   0  0  0  0  0  0  0  0  0  0  0  0
    4.2754    0.2994   -0.4082 C   0  0  0  0  0  0  0  0  0  0  0  0
    3.7106   -0.4450   -1.3363 N   0  0  0  0  0  0  0  0  0  0  0  0
    2.3382   -0.4922   -1.1931 N   0  0  0  0  0  0  0  0  0  0  0  0
    1.9203    0.2161   -0.1674 C   0  0  0  0  0  0  0  0  0  0  0  0
    0.5948    0.3110    0.1624 N   0  0  0  0  0  0  0  0  0  0  0  0
    0.0354    1.0138    1.2033 C   0  0  0  0  0  0  0  0  0  0  0  0
    0.6258    1.6934    2.0382 O   0  0  0  0  0  0  0  0  0  0  0  0
   -1.4903    0.8821    1.2558 C   0  0  0  0  0  0  0  0  0  0  0  0
   -1.9725    0.0523    0.2008 O   0  0  0  0  0  0  0  0  0  0  0  0
   -3.3260   -0.1450    0.1391 C   0  0  0  0  0  0  0  0  0  0  0  0
   -3.7443   -0.9731   -0.9228 C   0  0  0  0  0  0  0  0  0  0  0  0
   -5.0968   -1.2696   -1.1194 C   0  0  0  0  0  0  0  0  0  0  0  0
   -6.0016   -0.7231   -0.2385 C   0  0  0  0  0  0  0  0  0  0  0  0
   -5.5991    0.0849    0.7982 C   0  0  0  0  0  0  0  0  0  0  0  0
   -4.2708    0.3944    1.0163 C   0  0  0  0  0  0  0  0  0  0  0  0
   -6.6458    0.5210    1.5506 O   0  0  0  0  0  0  0  0  0  0  0  0
   -7.7520   -0.1058    0.8673 C   0  0  0  0  0  0  0  0  0  0  0  0
   -7.3489   -0.8972   -0.2696 O   0  0  0  0  0  0  0  0  0  0  0  0
    3.1624    0.9935    0.7002 S   0  0  0  0  0  0  0  0  0  0  0  0
    8.4039   -1.1308    1.1782 H   0  0  0  0  0  0  0  0  0  0  0  0
    8.3909   -0.3041   -0.3890 H   0  0  0  0  0  0  0  0  0  0  0  0
    8.1475    0.6210    1.1060 H   0  0  0  0  0  0  0  0  0  0  0  0
    6.2511   -1.5354    0.0325 H   0  0  0  0  0  0  0  0  0  0  0  0
    6.0107   -0.6188    1.5166 H   0  0  0  0  0  0  0  0  0  0  0  0
    5.9354    1.5195    0.1743 H   0  0  0  0  0  0  0  0  0  0  0  0
    6.1718    0.5932   -1.3010 H   0  0  0  0  0  0  0  0  0  0  0  0
   -0.0304   -0.2064   -0.4459 H   0  0  0  0  0  0  0  0  0  0  0  0
   -1.9027    1.8931    1.1598 H   0  0  0  0  0  0  0  0  0  0  0  0
   -1.7406    0.4412    2.2277 H   0  0  0  0  0  0  0  0  0  0  0  0
   -3.0050   -1.3907   -1.6032 H   0  0  0  0  0  0  0  0  0  0  0  0
   -5.4214   -1.9059   -1.9346 H   0  0  0  0  0  0  0  0  0  0  0  0
   -4.0135    1.0360    1.8491 H   0  0  0  0  0  0  0  0  0  0  0  0
   -8.4402    0.6755    0.5247 H   0  0  0  0  0  0  0  0  0  0  0  0
   -8.2800   -0.7537    1.5764 H   0  0  0  0  0  0  0  0  0  0  0  0
  1  2  1  0
  2  3  1  0
  3  4  1  0
  4  5  2  0
  5  6  1  0
  6  7  2  0
  7  8  1  0
  8  9  1  0
  9 10  2  0
  9 11  1  0
 11 12  1  0
 12 13  1  0
 13 14  2  0
 14 15  1  0
 15 16  2  0
 16 17  1  0
 17 18  2  0
 17 19  1  0
 19 20  1  0
 20 21  1  0
  7 22  1  0
 22  4  1  0
 18 13  1  0
 21 16  1  0
  1 23  1  0
  1 24  1  0
  1 25  1  0
  2 26  1  0
  2 27  1  0
  3 28  1  0
  3 29  1  0
  8 30  1  0
 11 31  1  0
 11 32  1  0
 14 33  1  0
 15 34  1  0
 18 35  1  0
 20 36  1  0
 20 37  1  0
M  END
$$$$
