
     RDKit          3D

 60 65  0  0  0  0  0  0  0  0999 V2000
    5.2987   -4.1235   -2.0525 C   0  0  0  0  0  0  0  0  0  0  0  0
    3.9873   -3.9183   -2.5634 O   0  0  0  0  0  0  0  0  0  0  0  0
    3.3075   -2.8294   -2.0938 C   0  0  0  0  0  0  0  0  0  0  0  0
    2.0247   -2.6701   -2.6126 C   0  0  0  0  0  0  0  0  0  0  0  0
    1.2238   -1.5915   -2.2227 C   0  0  0  0  0  0  0  0  0  0  0  0
    1.6752   -0.6541   -1.2819 C   0  0  0  0  0  0  0  0  0  0  0  0
    2.9710   -0.8253   -0.7776 C   0  0  0  0  0  0  0  0  0  0  0  0
    3.7831   -1.8931   -1.1813 C   0  0  0  0  0  0  0  0  0  0  0  0
    3.5587    0.0547    0.0931 O   0  0  0  0  0  0  0  0  0  0  0  0
    2.6020    0.7609    0.8757 C   0  0  0  0  0  0  0  0  0  0  0  0
    1.6199    1.5220   -0.0122 C   0  0  0  0  0  0  0  0  0  0  0  0
    0.8321    0.5504   -0.9004 C   0  0  0  0  0  0  0  0  0  0  0  0
   -0.3779    0.2386   -0.1239 N   0  0  0  0  0  0  0  0  0  0  0  0
   -1.4417   -0.4373   -0.6744 C   0  0  0  0  0  0  0  0  0  0  0  0
   -1.6630   -0.4246   -1.8827 O   0  0  0  0  0  0  0  0  0  0  0  0
   -2.2940   -1.2612    0.2337 C   0  0  0  0  0  0  0  0  0  0  0  0
   -3.3217   -1.9854   -0.4071 C   0  0  0  0  0  0  0  0  0  0  0  0
   -4.1153   -2.8999    0.2865 C   0  0  0  0  0  0  0  0  0  0  0  0
   -3.8966   -3.1200    1.6426 C   0  0  0  0  0  0  0  0  0  0  0  0
   -4.7011   -4.1413    2.3908 C   0  0  0  0  0  0  0  0  0  0  0  0
   -2.8732   -2.4101    2.2849 C   0  0  0  0  0  0  0  0  0  0  0  0
   -2.0817   -1.4570    1.6087 C   0  0  0  0  0  0  0  0  0  0  0  0
   -1.1621   -0.7865    2.4394 N   0  0  0  0  0  0  0  0  0  0  0  0
   -0.4540    0.3680    2.2664 C   0  0  0  0  0  0  0  0  0  0  0  0
    0.1953    0.7761    3.2351 O   0  0  0  0  0  0  0  0  0  0  0  0
   -0.6007    1.1904    0.9750 C   0  0  0  0  0  0  0  0  0  0  0  0
   -1.9928    1.8606    1.0137 C   0  0  0  0  0  0  0  0  0  0  0  0
    0.5521    2.2458    0.8295 C   0  0  0  0  0  0  0  0  0  0  0  0
    0.2134    3.6070    0.2211 C   0  0  0  0  0  0  0  0  0  0  0  0
   -0.3432    3.7628   -1.0576 C   0  0  0  0  0  0  0  0  0  0  0  0
   -0.6220    5.0333   -1.5689 C   0  0  0  0  0  0  0  0  0  0  0  0
   -0.3480    6.1692   -0.8124 C   0  0  0  0  0  0  0  0  0  0  0  0
    0.2044    6.0362    0.4573 C   0  0  0  0  0  0  0  0  0  0  0  0
    0.4833    4.7671    0.9694 C   0  0  0  0  0  0  0  0  0  0  0  0
    5.7014   -5.0277   -2.5193 H   0  0  0  0  0  0  0  0  0  0  0  0
    5.9600   -3.2907   -2.3149 H   0  0  0  0  0  0  0  0  0  0  0  0
    5.2794   -4.2879   -0.9696 H   0  0  0  0  0  0  0  0  0  0  0  0
    1.6450   -3.3829   -3.3409 H   0  0  0  0  0  0  0  0  0  0  0  0
    0.2489   -1.4881   -2.6911 H   0  0  0  0  0  0  0  0  0  0  0  0
    4.7806   -1.9593   -0.7608 H   0  0  0  0  0  0  0  0  0  0  0  0
    3.1584    1.4680    1.5013 H   0  0  0  0  0  0  0  0  0  0  0  0
    2.1169    0.0518    1.5554 H   0  0  0  0  0  0  0  0  0  0  0  0
    2.2052    2.2044   -0.6437 H   0  0  0  0  0  0  0  0  0  0  0  0
    0.5245    1.0517   -1.8253 H   0  0  0  0  0  0  0  0  0  0  0  0
   -3.4970   -1.8589   -1.4753 H   0  0  0  0  0  0  0  0  0  0  0  0
   -4.8876   -3.4485   -0.2489 H   0  0  0  0  0  0  0  0  0  0  0  0
   -4.8482   -3.8342    3.4316 H   0  0  0  0  0  0  0  0  0  0  0  0
   -4.1863   -5.1067    2.3747 H   0  0  0  0  0  0  0  0  0  0  0  0
   -5.6940   -4.2629    1.9450 H   0  0  0  0  0  0  0  0  0  0  0  0
   -2.7096   -2.5969    3.3457 H   0  0  0  0  0  0  0  0  0  0  0  0
   -1.0530   -1.1381    3.3844 H   0  0  0  0  0  0  0  0  0  0  0  0
   -2.3023    2.2283    0.0311 H   0  0  0  0  0  0  0  0  0  0  0  0
   -1.9985    2.6986    1.7207 H   0  0  0  0  0  0  0  0  0  0  0  0
   -2.7871    1.1896    1.3539 H   0  0  0  0  0  0  0  0  0  0  0  0
    0.9769    2.4655    1.8166 H   0  0  0  0  0  0  0  0  0  0  0  0
   -0.5903    2.9049   -1.6771 H   0  0  0  0  0  0  0  0  0  0  0  0
   -1.0579    5.1334   -2.5602 H   0  0  0  0  0  0  0  0  0  0  0  0
   -0.5656    7.1559   -1.2122 H   0  0  0  0  0  0  0  0  0  0  0  0
    0.4198    6.9209    1.0517 H   0  0  0  0  0  0  0  0  0  0  0  0
    0.9169    4.6955    1.9656 H   0  0  0  0  0  0  0  0  0  0  0  0
  1  2  1  0
  2  3  1  0
  3  4  2  0
  4  5  1  0
  5  6  2  0
  6  7  1  0
  7  8  2  0
  7  9  1  0
  9 10  1  0
 10 11  1  0
 11 12  1  0
 12 13  1  0
 13 14  1  0
 14 15  2  0
 14 16  1  0
 16 17  2  0
 17 18  1  0
 18 19  2  0
 19 20  1  0
 19 21  1  0
 21 22  2  0
 22 23  1  0
 23 24  1  0
 24 25  2  0
 24 26  1  0
 26 27  1  0
 26 28  1  0
 28 29  1  0
 29 30  2  0
 30 31  1  0
 31 32  2  0
 32 33  1  0
 33 34  2  0
  8  3  1  0
 28 11  1  0
 34 29  1  0
 12  6  1  0
 26 13  1  0
 22 16  1  0
  1 35  1  0
  1 36  1  0
  1 37  1  0
  4 38  1  0
  5 39  1  0
  8 40  1  0
 10 41  1  0
 10 42  1  0
 11 43  1  0
 12 44  1  0
 17 45  1  0
 18 46  1  0
 20 47  1  0
 20 48  1  0
 20 49  1  0
 21 50  1  0
 23 51  1  0
 27 52  1  0
 27 53  1  0
 27 54  1  0
 28 55  1  0
 30 56  1  0
 31 57  1  0
 32 58  1  0
 33 59  1  0
 34 60  1  0
M  END
$$$$
