
     RDKit          3D

 53 52  0  0  0  0  0  0  0  0999 V2000
   -7.8687    1.8842    0.3228 C   0  0  0  0  0  0  0  0  0  0  0  0
   -6.3761    1.6123    0.5245 C   0  0  0  0  0  0  0  0  0  0  0  0
   -6.0763    0.1504    0.1964 C   0  0  0  0  0  0  0  0  0  0  0  0
   -5.5488    2.6027   -0.3177 C   0  0  0  0  0  0  0  0  0  0  0  0
   -4.0473    2.5956   -0.0204 C   0  0  0  0  0  0  0  0  0  0  0  0
   -3.3423    1.4911   -0.6345 N   0  0  0  0  0  0  0  0  0  0  0  0
   -2.9529    1.5250   -1.9556 C   0  0  0  0  0  0  0  0  0  0  0  0
   -3.2287    2.4443   -2.7229 O   0  0  0  0  0  0  0  0  0  0  0  0
   -2.1841    0.2978   -2.4015 C   0  0  0  0  0  0  0  0  0  0  0  0
   -0.9190    0.6725   -3.1577 C   0  0  0  0  0  0  0  0  0  0  0  0
    0.3973    1.3102   -2.0648 S   0  0  0  0  0  0  0  0  0  0  0  0
    1.0137   -0.2613   -1.3754 C   0  0  0  0  0  0  0  0  0  0  0  0
    2.1686    0.0134   -0.4262 C   0  0  0  0  0  0  0  0  0  0  0  0
    2.6641   -1.2714    0.2043 C   0  0  0  0  0  0  0  0  0  0  0  0
    2.2523   -2.3821   -0.1106 O   0  0  0  0  0  0  0  0  0  0  0  0
    3.6380   -1.0584    1.1604 N   0  0  0  0  0  0  0  0  0  0  0  0
    4.1496   -2.1560    1.9535 C   0  0  0  0  0  0  0  0  0  0  0  0
    5.4526   -1.8107    2.6724 C   0  0  0  0  0  0  0  0  0  0  0  0
    6.7310   -1.7663    1.8093 C   0  0  0  0  0  0  0  0  0  0  0  0
    6.7053   -0.6681    0.7463 C   0  0  0  0  0  0  0  0  0  0  0  0
    7.0494   -3.1187    1.1709 C   0  0  0  0  0  0  0  0  0  0  0  0
   -8.1689    1.7069   -0.7143 H   0  0  0  0  0  0  0  0  0  0  0  0
   -8.1139    2.9203    0.5783 H   0  0  0  0  0  0  0  0  0  0  0  0
   -8.4669    1.2347    0.9675 H   0  0  0  0  0  0  0  0  0  0  0  0
   -6.1497    1.7799    1.5853 H   0  0  0  0  0  0  0  0  0  0  0  0
   -6.7883   -0.5150    0.7002 H   0  0  0  0  0  0  0  0  0  0  0  0
   -6.1413   -0.0388   -0.8816 H   0  0  0  0  0  0  0  0  0  0  0  0
   -5.0790   -0.1400    0.5386 H   0  0  0  0  0  0  0  0  0  0  0  0
   -5.7280    2.4301   -1.3862 H   0  0  0  0  0  0  0  0  0  0  0  0
   -5.9131    3.6143   -0.0998 H   0  0  0  0  0  0  0  0  0  0  0  0
   -3.6042    3.5248   -0.3944 H   0  0  0  0  0  0  0  0  0  0  0  0
   -3.8629    2.5514    1.0572 H   0  0  0  0  0  0  0  0  0  0  0  0
   -2.9908    0.7598   -0.0338 H   0  0  0  0  0  0  0  0  0  0  0  0
   -2.8518   -0.2532   -3.0729 H   0  0  0  0  0  0  0  0  0  0  0  0
   -1.9695   -0.3691   -1.5623 H   0  0  0  0  0  0  0  0  0  0  0  0
   -0.5307   -0.1965   -3.6962 H   0  0  0  0  0  0  0  0  0  0  0  0
   -1.1284    1.4446   -3.9029 H   0  0  0  0  0  0  0  0  0  0  0  0
    1.3395   -0.9062   -2.1964 H   0  0  0  0  0  0  0  0  0  0  0  0
    0.2036   -0.7715   -0.8464 H   0  0  0  0  0  0  0  0  0  0  0  0
    3.0073    0.4717   -0.9616 H   0  0  0  0  0  0  0  0  0  0  0  0
    1.8544    0.6883    0.3755 H   0  0  0  0  0  0  0  0  0  0  0  0
    3.7294   -0.1210    1.5341 H   0  0  0  0  0  0  0  0  0  0  0  0
    3.3769   -2.3801    2.6979 H   0  0  0  0  0  0  0  0  0  0  0  0
    4.2549   -3.0462    1.3272 H   0  0  0  0  0  0  0  0  0  0  0  0
    5.3385   -0.8490    3.1871 H   0  0  0  0  0  0  0  0  0  0  0  0
    5.6018   -2.5614    3.4580 H   0  0  0  0  0  0  0  0  0  0  0  0
    7.5571   -1.5302    2.4938 H   0  0  0  0  0  0  0  0  0  0  0  0
    5.9923   -0.8888   -0.0520 H   0  0  0  0  0  0  0  0  0  0  0  0
    7.6914   -0.5668    0.2808 H   0  0  0  0  0  0  0  0  0  0  0  0
    6.4460    0.2989    1.1867 H   0  0  0  0  0  0  0  0  0  0  0  0
    7.0589   -3.9130    1.9266 H   0  0  0  0  0  0  0  0  0  0  0  0
    6.3204   -3.3895    0.4007 H   0  0  0  0  0  0  0  0  0  0  0  0
    8.0374   -3.0960    0.6991 H   0  0  0  0  0  0  0  0  0  0  0  0
  1  2  1  0
  2  3  1  0
  2  4  1  0
  4  5  1  0
  5  6  1  0
  6  7  1  0
  7  8  2  0
  7  9  1  0
  9 10  1  0
 10 11  1  0
 11 12  1  0
 12 13  1  0
 13 14  1  0
 14 15  2  0
 14 16  1  0
 16 17  1  0
 17 18  1  0
 18 19  1  0
 19 20  1  0
 19 21  1  0
  1 22  1  0
  1 23  1  0
  1 24  1  0
  2 25  1  0
  3 26  1  0
  3 27  1  0
  3 28  1  0
  4 29  1  0
  4 30  1  0
  5 31  1  0
  5 32  1  0
  6 33  1  0
  9 34  1  0
  9 35  1  0
 10 36  1  0
 10 37  1  0
 12 38  1  0
 12 39  1  0
 13 40  1  0
 13 41  1  0
 16 42  1  0
 17 43  1  0
 17 44  1  0
 18 45  1  0
 18 46  1  0
 19 47  1  0
 20 48  1  0
 20 49  1  0
 20 50  1  0
 21 51  1  0
 21 52  1  0
 21 53  1  0
M  END
$$$$
