
     RDKit          3D

 56 60  0  0  0  0  0  0  0  0999 V2000
   -5.1949   -1.7147   -2.5193 C   0  0  0  0  0  0  0  0  0  0  0  0
   -3.8631   -1.5660   -1.8384 C   0  0  0  0  0  0  0  0  0  0  0  0
   -2.7106   -1.9591   -2.5376 C   0  0  0  0  0  0  0  0  0  0  0  0
   -1.4434   -1.8579   -1.9562 C   0  0  0  0  0  0  0  0  0  0  0  0
   -1.2872   -1.3732   -0.6508 C   0  0  0  0  0  0  0  0  0  0  0  0
    0.0426   -1.2598   -0.0406 C   0  0  0  0  0  0  0  0  0  0  0  0
    0.5126    0.0046    0.0085 N   0  0  0  0  0  0  0  0  0  0  0  0
    1.7462    0.2579    0.5399 N   0  0  0  0  0  0  0  0  0  0  0  0
    2.5157   -0.7389    1.0260 C   0  0  0  0  0  0  0  0  0  0  0  0
    3.7799   -0.4466    1.6094 N   0  0  0  0  0  0  0  0  0  0  0  0
    4.5183    0.7580    1.5317 C   0  0  0  0  0  0  0  0  0  0  0  0
    5.4639    1.0380    2.5491 C   0  0  0  0  0  0  0  0  0  0  0  0
    6.2767    2.1769    2.5023 C   0  0  0  0  0  0  0  0  0  0  0  0
    6.1455    3.0089    1.4151 C   0  0  0  0  0  0  0  0  0  0  0  0
    5.2591    2.7348    0.4027 C   0  0  0  0  0  0  0  0  0  0  0  0
    4.4468    1.6182    0.4258 C   0  0  0  0  0  0  0  0  0  0  0  0
    5.3009    3.6671   -0.5876 O   0  0  0  0  0  0  0  0  0  0  0  0
    6.2962    4.5711   -0.0678 C   0  0  0  0  0  0  0  0  0  0  0  0
    6.8514    4.1496    1.1958 O   0  0  0  0  0  0  0  0  0  0  0  0
    2.0673   -2.0810    0.9860 C   0  0  0  0  0  0  0  0  0  0  0  0
    2.8410   -3.1754    1.4508 C   0  0  0  0  0  0  0  0  0  0  0  0
    2.3621   -4.4856    1.4131 C   0  0  0  0  0  0  0  0  0  0  0  0
    1.0969   -4.7407    0.9080 C   0  0  0  0  0  0  0  0  0  0  0  0
    0.3191   -3.6872    0.4291 C   0  0  0  0  0  0  0  0  0  0  0  0
    0.7871   -2.3486    0.4471 C   0  0  0  0  0  0  0  0  0  0  0  0
   -2.4335   -0.9822    0.0553 C   0  0  0  0  0  0  0  0  0  0  0  0
   -3.7091   -1.0770   -0.5272 C   0  0  0  0  0  0  0  0  0  0  0  0
   -5.1027   -0.5787    0.4704 S   0  0  0  0  0  6  0  0  0  0  0  0
   -6.1863   -1.5062    0.2336 O   0  0  0  0  0  0  0  0  0  0  0  0
   -4.6483   -0.2917    1.8128 O   0  0  0  0  0  0  0  0  0  0  0  0
   -5.5507    0.8720   -0.2455 N   0  0  0  0  0  0  0  0  0  0  0  0
   -4.8211    2.0901    0.1288 C   0  0  0  0  0  0  0  0  0  0  0  0
   -4.8911    3.1073   -1.0100 C   0  0  0  0  0  0  0  0  0  0  0  0
   -4.2843    4.3295   -0.6106 O   0  0  0  0  0  0  0  0  0  0  0  0
   -5.0724   -1.8977   -3.5930 H   0  0  0  0  0  0  0  0  0  0  0  0
   -5.7916   -0.8030   -2.4283 H   0  0  0  0  0  0  0  0  0  0  0  0
   -5.7430   -2.5651   -2.1021 H   0  0  0  0  0  0  0  0  0  0  0  0
   -2.7885   -2.3459   -3.5528 H   0  0  0  0  0  0  0  0  0  0  0  0
   -0.5703   -2.1563   -2.5351 H   0  0  0  0  0  0  0  0  0  0  0  0
    3.7943   -0.8315    2.5485 H   0  0  0  0  0  0  0  0  0  0  0  0
    5.5703    0.3636    3.3956 H   0  0  0  0  0  0  0  0  0  0  0  0
    6.9903    2.3929    3.2891 H   0  0  0  0  0  0  0  0  0  0  0  0
    3.7796    1.4273   -0.4071 H   0  0  0  0  0  0  0  0  0  0  0  0
    5.8401    5.5596    0.0619 H   0  0  0  0  0  0  0  0  0  0  0  0
    7.1101    4.6532   -0.7974 H   0  0  0  0  0  0  0  0  0  0  0  0
    3.8461   -3.0162    1.8374 H   0  0  0  0  0  0  0  0  0  0  0  0
    2.9802   -5.3029    1.7764 H   0  0  0  0  0  0  0  0  0  0  0  0
    0.7134   -5.7578    0.8795 H   0  0  0  0  0  0  0  0  0  0  0  0
   -0.6697   -3.9237    0.0390 H   0  0  0  0  0  0  0  0  0  0  0  0
   -2.3217   -0.5953    1.0685 H   0  0  0  0  0  0  0  0  0  0  0  0
   -6.5581    0.9377   -0.3846 H   0  0  0  0  0  0  0  0  0  0  0  0
   -3.7691    1.8782    0.3473 H   0  0  0  0  0  0  0  0  0  0  0  0
   -5.2645    2.5160    1.0355 H   0  0  0  0  0  0  0  0  0  0  0  0
   -5.9313    3.3119   -1.2848 H   0  0  0  0  0  0  0  0  0  0  0  0
   -4.3694    2.7266   -1.8946 H   0  0  0  0  0  0  0  0  0  0  0  0
   -4.2778    4.9148   -1.3879 H   0  0  0  0  0  0  0  0  0  0  0  0
  1  2  1  0
  2  3  2  0
  3  4  1  0
  4  5  2  0
  5  6  1  0
  6  7  2  0
  7  8  1  0
  8  9  2  0
  9 10  1  0
 10 11  1  0
 11 12  2  0
 12 13  1  0
 13 14  2  0
 14 15  1  0
 15 16  2  0
 15 17  1  0
 17 18  1  0
 18 19  1  0
  9 20  1  0
 20 21  2  0
 21 22  1  0
 22 23  2  0
 23 24  1  0
 24 25  2  0
  5 26  1  0
 26 27  2  0
 27 28  1  0
 28 29  2  0
 28 30  2  0
 28 31  1  0
 31 32  1  0
 32 33  1  0
 33 34  1  0
 27  2  1  0
 25  6  1  0
 16 11  1  0
 25 20  1  0
 19 14  1  0
  1 35  1  0
  1 36  1  0
  1 37  1  0
  3 38  1  0
  4 39  1  0
 10 40  1  0
 12 41  1  0
 13 42  1  0
 16 43  1  0
 18 44  1  0
 18 45  1  0
 21 46  1  0
 22 47  1  0
 23 48  1  0
 24 49  1  0
 26 50  1  0
 31 51  1  0
 32 52  1  0
 32 53  1  0
 33 54  1  0
 33 55  1  0
 34 56  1  0
M  END
$$$$
