
     RDKit          3D

 48 49  0  0  0  0  0  0  0  0999 V2000
   -4.7582   -1.9742    0.6385 C   0  0  0  0  0  0  0  0  0  0  0  0
   -4.6172   -1.3568   -0.7434 C   0  0  0  0  0  0  0  0  0  0  0  0
   -5.0912    0.0299   -0.8131 N   0  0  0  0  0  0  0  0  0  0  0  0
   -6.5050    0.2575   -1.1144 C   0  0  0  0  0  0  0  0  0  0  0  0
   -7.3819    0.3600    0.1242 C   0  0  0  0  0  0  0  0  0  0  0  0
   -4.3363    1.1404   -0.4224 C   0  0  0  0  0  0  0  0  0  0  0  0
   -4.7910    2.2769   -0.3176 O   0  0  0  0  0  0  0  0  0  0  0  0
   -2.9042    0.9593   -0.1200 C   0  0  0  0  0  0  0  0  0  0  0  0
   -2.4681    1.0504    1.2016 C   0  0  0  0  0  0  0  0  0  0  0  0
   -1.1084    0.9026    1.4957 C   0  0  0  0  0  0  0  0  0  0  0  0
   -0.1822    0.6845    0.4717 C   0  0  0  0  0  0  0  0  0  0  0  0
    1.1990    0.5289    0.6844 N   0  0  0  0  0  0  0  0  0  0  0  0
    1.8867    0.5228    1.8844 C   0  0  0  0  0  0  0  0  0  0  0  0
    1.4049    0.6400    3.0077 O   0  0  0  0  0  0  0  0  0  0  0  0
    3.3983    0.3427    1.7059 C   0  0  0  0  0  0  0  0  0  0  0  0
    3.7341    0.2005    0.3285 O   0  0  0  0  0  0  0  0  0  0  0  0
    5.0466   -0.0067   -0.0001 C   0  0  0  0  0  0  0  0  0  0  0  0
    6.0999   -0.0456    0.9194 C   0  0  0  0  0  0  0  0  0  0  0  0
    7.4119   -0.2657    0.4829 C   0  0  0  0  0  0  0  0  0  0  0  0
    7.6721   -0.4478   -0.8813 C   0  0  0  0  0  0  0  0  0  0  0  0
    9.0485   -0.6823   -1.3353 N   0  0  0  0  0  4  0  0  0  0  0  0
    9.9465   -0.6546   -0.4828 O   0  0  0  0  0  0  0  0  0  0  0  0
    9.2274   -0.8957   -2.5420 O   0  0  0  0  0  1  0  0  0  0  0  0
    6.6320   -0.4091   -1.8142 C   0  0  0  0  0  0  0  0  0  0  0  0
    5.3273   -0.1883   -1.3674 C   0  0  0  0  0  0  0  0  0  0  0  0
    4.0611   -0.1475   -2.5467 Cl  0  0  0  0  0  0  0  0  0  0  0  0
   -0.6319    0.6242   -0.8561 C   0  0  0  0  0  0  0  0  0  0  0  0
   -1.9893    0.7664   -1.1560 C   0  0  0  0  0  0  0  0  0  0  0  0
   -4.3017   -2.9689    0.6535 H   0  0  0  0  0  0  0  0  0  0  0  0
   -4.2723   -1.3650    1.4058 H   0  0  0  0  0  0  0  0  0  0  0  0
   -5.8082   -2.0901    0.9179 H   0  0  0  0  0  0  0  0  0  0  0  0
   -3.5659   -1.3980   -1.0390 H   0  0  0  0  0  0  0  0  0  0  0  0
   -5.1656   -1.9528   -1.4812 H   0  0  0  0  0  0  0  0  0  0  0  0
   -6.5874    1.1944   -1.6786 H   0  0  0  0  0  0  0  0  0  0  0  0
   -6.8652   -0.5397   -1.7741 H   0  0  0  0  0  0  0  0  0  0  0  0
   -7.0226    1.1353    0.8080 H   0  0  0  0  0  0  0  0  0  0  0  0
   -7.4114   -0.5833    0.6743 H   0  0  0  0  0  0  0  0  0  0  0  0
   -8.4086    0.6095   -0.1621 H   0  0  0  0  0  0  0  0  0  0  0  0
   -3.1799    1.2394    2.0014 H   0  0  0  0  0  0  0  0  0  0  0  0
   -0.8043    0.9754    2.5353 H   0  0  0  0  0  0  0  0  0  0  0  0
    1.7805    0.3991   -0.1401 H   0  0  0  0  0  0  0  0  0  0  0  0
    3.6824   -0.5592    2.2597 H   0  0  0  0  0  0  0  0  0  0  0  0
    3.8815    1.2337    2.1221 H   0  0  0  0  0  0  0  0  0  0  0  0
    5.9396    0.0930    1.9849 H   0  0  0  0  0  0  0  0  0  0  0  0
    8.2151   -0.2929    1.2181 H   0  0  0  0  0  0  0  0  0  0  0  0
    6.8227   -0.5478   -2.8761 H   0  0  0  0  0  0  0  0  0  0  0  0
    0.0683    0.4712   -1.6739 H   0  0  0  0  0  0  0  0  0  0  0  0
   -2.3285    0.7340   -2.1880 H   0  0  0  0  0  0  0  0  0  0  0  0
  1  2  1  0
  2  3  1  0
  3  4  1  0
  4  5  1  0
  3  6  1  0
  6  7  2  0
  6  8  1  0
  8  9  2  0
  9 10  1  0
 10 11  2  0
 11 12  1  0
 12 13  1  0
 13 14  2  0
 13 15  1  0
 15 16  1  0
 16 17  1  0
 17 18  2  0
 18 19  1  0
 19 20  2  0
 20 21  1  0
 21 22  2  0
 21 23  1  0
 20 24  1  0
 24 25  2  0
 25 26  1  0
 11 27  1  0
 27 28  2  0
 28  8  1  0
 25 17  1  0
  1 29  1  0
  1 30  1  0
  1 31  1  0
  2 32  1  0
  2 33  1  0
  4 34  1  0
  4 35  1  0
  5 36  1  0
  5 37  1  0
  5 38  1  0
  9 39  1  0
 10 40  1  0
 12 41  1  0
 15 42  1  0
 15 43  1  0
 18 44  1  0
 19 45  1  0
 24 46  1  0
 27 47  1  0
 28 48  1  0
M  CHG  2  21   1  23  -1
M  END
$$$$
