
     RDKit          3D

 39 41  0  0  0  0  0  0  0  0999 V2000
   -1.9753    0.3159    0.8358 O   0  0  0  0  0  0  0  0  0  0  0  0
   -2.3194   -0.8562    0.7386 C   0  0  0  0  0  0  0  0  0  0  0  0
   -3.7492   -1.3236    1.0619 C   0  0  0  0  0  0  0  0  0  0  0  0
   -4.6780   -0.3133    1.4116 O   0  0  0  0  0  0  0  0  0  0  0  0
   -5.3383    0.3241    0.3984 C   0  0  0  0  0  0  0  0  0  0  0  0
   -4.9781    0.3201   -0.9497 C   0  0  0  0  0  0  0  0  0  0  0  0
   -5.7474    1.0217   -1.8839 C   0  0  0  0  0  0  0  0  0  0  0  0
   -6.8737    1.7336   -1.4750 C   0  0  0  0  0  0  0  0  0  0  0  0
   -7.2295    1.7521   -0.1291 C   0  0  0  0  0  0  0  0  0  0  0  0
   -6.4606    1.0527    0.8025 C   0  0  0  0  0  0  0  0  0  0  0  0
   -1.5252   -1.9118    0.3336 N   0  0  0  0  0  0  0  0  0  0  0  0
   -0.2017   -1.8581   -0.0256 C   0  0  0  0  0  0  0  0  0  0  0  0
    0.4499   -2.9297   -0.4198 N   0  0  0  0  0  0  0  0  0  0  0  0
    1.7665   -2.6553   -0.7296 N   0  0  0  0  0  0  0  0  0  0  0  0
    2.0614   -1.3832   -0.5456 C   0  0  0  0  0  0  0  0  0  0  0  0
    3.3981   -0.7668   -0.7994 C   0  0  0  0  0  0  0  0  0  0  0  0
    3.9612   -0.4400    0.4707 O   0  0  0  0  0  0  0  0  0  0  0  0
    5.1843    0.1713    0.4684 C   0  0  0  0  0  0  0  0  0  0  0  0
    5.6565    0.5303    1.7339 C   0  0  0  0  0  0  0  0  0  0  0  0
    6.8923    1.1624    1.8799 C   0  0  0  0  0  0  0  0  0  0  0  0
    7.6667    1.4385    0.7562 C   0  0  0  0  0  0  0  0  0  0  0  0
    7.2040    1.0812   -0.5091 C   0  0  0  0  0  0  0  0  0  0  0  0
    5.9653    0.4480   -0.6550 C   0  0  0  0  0  0  0  0  0  0  0  0
    0.7308   -0.4351   -0.0084 S   0  0  0  0  0  0  0  0  0  0  0  0
   -4.1335   -1.9557    0.2508 H   0  0  0  0  0  0  0  0  0  0  0  0
   -3.6643   -1.9745    1.9411 H   0  0  0  0  0  0  0  0  0  0  0  0
   -4.0952   -0.1959   -1.3086 H   0  0  0  0  0  0  0  0  0  0  0  0
   -5.4593    1.0210   -2.9322 H   0  0  0  0  0  0  0  0  0  0  0  0
   -7.4664    2.2816   -2.2028 H   0  0  0  0  0  0  0  0  0  0  0  0
   -8.1003    2.3135    0.1983 H   0  0  0  0  0  0  0  0  0  0  0  0
   -6.7383    1.0750    1.8534 H   0  0  0  0  0  0  0  0  0  0  0  0
   -1.9103   -2.8451    0.2799 H   0  0  0  0  0  0  0  0  0  0  0  0
    3.2819    0.1316   -1.4178 H   0  0  0  0  0  0  0  0  0  0  0  0
    4.0340   -1.4942   -1.3181 H   0  0  0  0  0  0  0  0  0  0  0  0
    5.0552    0.3165    2.6144 H   0  0  0  0  0  0  0  0  0  0  0  0
    7.2474    1.4374    2.8694 H   0  0  0  0  0  0  0  0  0  0  0  0
    8.6297    1.9303    0.8661 H   0  0  0  0  0  0  0  0  0  0  0  0
    7.8102    1.2950   -1.3861 H   0  0  0  0  0  0  0  0  0  0  0  0
    5.6486    0.1846   -1.6583 H   0  0  0  0  0  0  0  0  0  0  0  0
  1  2  2  0
  2  3  1  0
  3  4  1  0
  4  5  1  0
  5  6  2  0
  6  7  1  0
  7  8  2  0
  8  9  1  0
  9 10  2  0
  2 11  1  0
 11 12  1  0
 12 13  2  0
 13 14  1  0
 14 15  2  0
 15 16  1  0
 16 17  1  0
 17 18  1  0
 18 19  2  0
 19 20  1  0
 20 21  2  0
 21 22  1  0
 22 23  2  0
 15 24  1  0
 10  5  1  0
 24 12  1  0
 23 18  1  0
  3 25  1  0
  3 26  1  0
  6 27  1  0
  7 28  1  0
  8 29  1  0
  9 30  1  0
 10 31  1  0
 11 32  1  0
 16 33  1  0
 16 34  1  0
 19 35  1  0
 20 36  1  0
 21 37  1  0
 22 38  1  0
 23 39  1  0
M  END
$$$$
