
     RDKit          3D

 46 48  0  0  0  0  0  0  0  0999 V2000
   -3.4251   -0.4039   -1.4128 O   0  0  0  0  0  0  0  0  0  0  0  0
   -3.1868   -0.0380   -0.2688 C   0  0  0  0  0  0  0  0  0  0  0  0
   -4.0975    0.0791    0.7667 N   0  0  0  0  0  0  0  0  0  0  0  0
   -5.4944   -0.1218    0.6962 C   0  0  0  0  0  0  0  0  0  0  0  0
   -6.1884   -0.3916   -0.4853 C   0  0  0  0  0  0  0  0  0  0  0  0
   -7.5718   -0.5705   -0.4567 C   0  0  0  0  0  0  0  0  0  0  0  0
   -8.2246   -0.8287   -1.5977 F   0  0  0  0  0  0  0  0  0  0  0  0
   -8.2873   -0.4846    0.7274 C   0  0  0  0  0  0  0  0  0  0  0  0
   -7.5965   -0.2128    1.8964 C   0  0  0  0  0  0  0  0  0  0  0  0
   -8.2659   -0.1232    3.0530 F   0  0  0  0  0  0  0  0  0  0  0  0
   -6.2146   -0.0298    1.8936 C   0  0  0  0  0  0  0  0  0  0  0  0
   -1.7731    0.2814    0.0835 C   0  0  0  0  0  0  0  0  0  0  0  0
   -0.7505   -0.3987   -0.5809 C   0  0  0  0  0  0  0  0  0  0  0  0
    0.5952   -0.1246   -0.2969 C   0  0  0  0  0  0  0  0  0  0  0  0
    0.9745    0.8211    0.6694 C   0  0  0  0  0  0  0  0  0  0  0  0
    2.3169    1.1508    0.8833 N   0  0  0  0  0  0  0  0  0  0  0  0
    3.4200    0.2724    0.4885 C   0  0  0  0  0  0  0  0  0  0  0  0
    3.9707    0.6739   -0.8839 C   0  0  0  0  0  0  0  0  0  0  0  0
    5.1029   -0.2261   -1.3135 C   0  0  0  0  0  0  0  0  0  0  0  0
    4.8465   -1.3803   -2.0659 C   0  0  0  0  0  0  0  0  0  0  0  0
    5.8921   -2.2244   -2.4427 C   0  0  0  0  0  0  0  0  0  0  0  0
    7.2007   -1.9250   -2.0688 C   0  0  0  0  0  0  0  0  0  0  0  0
    7.4657   -0.7814   -1.3179 C   0  0  0  0  0  0  0  0  0  0  0  0
    6.4219    0.0644   -0.9399 C   0  0  0  0  0  0  0  0  0  0  0  0
   -0.0828    1.5289    1.2919 C   0  0  0  0  0  0  0  0  0  0  0  0
    0.1972    2.5760    2.2795 N   0  0  0  0  0  4  0  0  0  0  0  0
    1.1983    2.4437    3.0006 O   0  0  0  0  0  0  0  0  0  0  0  0
   -0.6112    3.5126    2.3610 O   0  0  0  0  0  1  0  0  0  0  0  0
   -1.4404    1.2658    1.0133 C   0  0  0  0  0  0  0  0  0  0  0  0
   -3.7313    0.2635    1.6916 H   0  0  0  0  0  0  0  0  0  0  0  0
   -5.6944   -0.4668   -1.4478 H   0  0  0  0  0  0  0  0  0  0  0  0
   -9.3612   -0.6251    0.7362 H   0  0  0  0  0  0  0  0  0  0  0  0
   -5.7249    0.1816    2.8391 H   0  0  0  0  0  0  0  0  0  0  0  0
   -0.9933   -1.1436   -1.3385 H   0  0  0  0  0  0  0  0  0  0  0  0
    1.3401   -0.6731   -0.8677 H   0  0  0  0  0  0  0  0  0  0  0  0
    2.4767    1.5730    1.8054 H   0  0  0  0  0  0  0  0  0  0  0  0
    4.2175    0.3841    1.2345 H   0  0  0  0  0  0  0  0  0  0  0  0
    3.1317   -0.7852    0.5256 H   0  0  0  0  0  0  0  0  0  0  0  0
    4.3197    1.7146   -0.8576 H   0  0  0  0  0  0  0  0  0  0  0  0
    3.1811    0.6536   -1.6449 H   0  0  0  0  0  0  0  0  0  0  0  0
    3.8314   -1.6282   -2.3675 H   0  0  0  0  0  0  0  0  0  0  0  0
    5.6862   -3.1155   -3.0301 H   0  0  0  0  0  0  0  0  0  0  0  0
    8.0146   -2.5820   -2.3642 H   0  0  0  0  0  0  0  0  0  0  0  0
    8.4866   -0.5472   -1.0275 H   0  0  0  0  0  0  0  0  0  0  0  0
    6.6458    0.9534   -0.3541 H   0  0  0  0  0  0  0  0  0  0  0  0
   -2.2178    1.8543    1.4950 H   0  0  0  0  0  0  0  0  0  0  0  0
  1  2  2  0
  2  3  1  0
  3  4  1  0
  4  5  2  0
  5  6  1  0
  6  7  1  0
  6  8  2  0
  8  9  1  0
  9 10  1  0
  9 11  2  0
  2 12  1  0
 12 13  2  0
 13 14  1  0
 14 15  2  0
 15 16  1  0
 16 17  1  0
 17 18  1  0
 18 19  1  0
 19 20  2  0
 20 21  1  0
 21 22  2  0
 22 23  1  0
 23 24  2  0
 15 25  1  0
 25 26  1  0
 26 27  2  0
 26 28  1  0
 25 29  2  0
 11  4  1  0
 29 12  1  0
 24 19  1  0
  3 30  1  0
  5 31  1  0
  8 32  1  0
 11 33  1  0
 13 34  1  0
 14 35  1  0
 16 36  1  0
 17 37  1  0
 17 38  1  0
 18 39  1  0
 18 40  1  0
 20 41  1  0
 21 42  1  0
 22 43  1  0
 23 44  1  0
 24 45  1  0
 29 46  1  0
M  CHG  2  26   1  28  -1
M  END
$$$$
