
     RDKit          3D

 47 50  0  0  0  0  0  0  0  0999 V2000
   -1.9127   -3.0413    0.6695 C   0  0  0  0  0  0  0  0  0  0  0  0
   -1.2079   -1.7144    0.6631 C   0  0  0  0  0  0  0  0  0  0  0  0
    0.0855   -1.7012    0.8299 N   0  0  0  0  0  0  0  0  0  0  0  0
    0.7963   -0.4948    0.8292 N   0  0  0  0  0  0  0  0  0  0  0  0
    2.2416   -0.5974    0.9363 C   0  0  0  0  0  0  0  0  0  0  0  0
    2.9033   -0.5777   -0.4438 C   0  0  0  0  0  0  0  0  0  0  0  0
    2.2924   -0.5190   -1.5078 O   0  0  0  0  0  0  0  0  0  0  0  0
    4.2834   -0.6519   -0.3857 N   0  0  0  0  0  0  0  0  0  0  0  0
    5.0668   -0.5161   -1.5922 C   0  0  0  0  0  0  0  0  0  0  0  0
    6.4422   -1.0283   -1.3130 C   0  0  0  0  0  0  0  0  0  0  0  0
    6.9204   -2.3150   -1.4720 C   0  0  0  0  0  0  0  0  0  0  0  0
    8.2899   -2.4355   -1.0999 C   0  0  0  0  0  0  0  0  0  0  0  0
    8.8127   -1.2380   -0.6672 C   0  0  0  0  0  0  0  0  0  0  0  0
    7.6563    0.0214   -0.7110 S   0  0  0  0  0  0  0  0  0  0  0  0
    0.2319    0.7860    0.6697 C   0  0  0  0  0  0  0  0  0  0  0  0
    0.8926    1.8233    0.6968 O   0  0  0  0  0  0  0  0  0  0  0  0
   -1.2138    0.7429    0.4929 C   0  0  0  0  0  0  0  0  0  0  0  0
   -2.0218    1.7885    0.3063 N   0  0  0  0  0  0  0  0  0  0  0  0
   -3.2771    1.2644    0.2639 N   0  0  0  0  0  0  0  0  0  0  0  0
   -4.3908    2.1612    0.2707 C   0  0  0  0  0  0  0  0  0  0  0  0
   -5.6798    1.7544    0.6351 C   0  0  0  0  0  0  0  0  0  0  0  0
   -6.7364    2.6717    0.6360 C   0  0  0  0  0  0  0  0  0  0  0  0
   -6.5151    4.0010    0.2841 C   0  0  0  0  0  0  0  0  0  0  0  0
   -5.2334    4.4227   -0.0557 C   0  0  0  0  0  0  0  0  0  0  0  0
   -4.1747    3.5117   -0.0546 C   0  0  0  0  0  0  0  0  0  0  0  0
   -3.2349   -0.1353    0.2314 C   0  0  0  0  0  0  0  0  0  0  0  0
   -4.3942   -1.0097   -0.0846 C   0  0  0  0  0  0  0  0  0  0  0  0
   -1.9137   -0.4687    0.4816 C   0  0  0  0  0  0  0  0  0  0  0  0
   -2.2132   -3.2988   -0.3492 H   0  0  0  0  0  0  0  0  0  0  0  0
   -2.7934   -3.0007    1.3152 H   0  0  0  0  0  0  0  0  0  0  0  0
   -1.2456   -3.8243    1.0423 H   0  0  0  0  0  0  0  0  0  0  0  0
    2.6280    0.2421    1.5252 H   0  0  0  0  0  0  0  0  0  0  0  0
    2.4992   -1.5336    1.4444 H   0  0  0  0  0  0  0  0  0  0  0  0
    4.7410   -0.4086    0.4831 H   0  0  0  0  0  0  0  0  0  0  0  0
    4.5979   -1.0837   -2.4036 H   0  0  0  0  0  0  0  0  0  0  0  0
    5.0696    0.5409   -1.8818 H   0  0  0  0  0  0  0  0  0  0  0  0
    6.3116   -3.1333   -1.8385 H   0  0  0  0  0  0  0  0  0  0  0  0
    8.8614   -3.3542   -1.1503 H   0  0  0  0  0  0  0  0  0  0  0  0
    9.8205   -1.0384   -0.3284 H   0  0  0  0  0  0  0  0  0  0  0  0
   -5.8965    0.7495    0.9765 H   0  0  0  0  0  0  0  0  0  0  0  0
   -7.7333    2.3507    0.9300 H   0  0  0  0  0  0  0  0  0  0  0  0
   -7.3376    4.7113    0.2891 H   0  0  0  0  0  0  0  0  0  0  0  0
   -5.0524    5.4612   -0.3206 H   0  0  0  0  0  0  0  0  0  0  0  0
   -3.1817    3.8702   -0.3224 H   0  0  0  0  0  0  0  0  0  0  0  0
   -5.0994   -0.5264   -0.7679 H   0  0  0  0  0  0  0  0  0  0  0  0
   -4.0697   -1.9193   -0.5976 H   0  0  0  0  0  0  0  0  0  0  0  0
   -4.9152   -1.3095    0.8296 H   0  0  0  0  0  0  0  0  0  0  0  0
  1  2  1  0
  2  3  2  0
  3  4  1  0
  4  5  1  0
  5  6  1  0
  6  7  2  0
  6  8  1  0
  8  9  1  0
  9 10  1  0
 10 11  2  0
 11 12  1  0
 12 13  2  0
 13 14  1  0
  4 15  1  0
 15 16  2  0
 15 17  1  0
 17 18  2  0
 18 19  1  0
 19 20  1  0
 20 21  2  0
 21 22  1  0
 22 23  2  0
 23 24  1  0
 24 25  2  0
 19 26  1  0
 26 27  1  0
 26 28  2  0
 28  2  1  0
 14 10  1  0
 28 17  1  0
 25 20  1  0
  1 29  1  0
  1 30  1  0
  1 31  1  0
  5 32  1  0
  5 33  1  0
  8 34  1  0
  9 35  1  0
  9 36  1  0
 11 37  1  0
 12 38  1  0
 13 39  1  0
 21 40  1  0
 22 41  1  0
 23 42  1  0
 24 43  1  0
 25 44  1  0
 27 45  1  0
 27 46  1  0
 27 47  1  0
M  END
$$$$
