
     RDKit          3D

 39 42  0  0  0  0  0  0  0  0999 V2000
   -4.4302   -3.6361    0.1807 O   0  0  0  0  0  0  0  0  0  0  0  0
   -4.6356   -2.8513   -0.7286 C   0  0  0  0  0  0  0  0  0  0  0  0
   -5.1052   -3.2801   -1.9159 O   0  0  0  0  0  0  0  0  0  0  0  0
   -4.4351   -1.3654   -0.7077 C   0  0  0  0  0  0  0  0  0  0  0  0
   -3.8619   -0.9274    0.6369 C   0  0  0  0  0  0  0  0  0  0  0  0
   -3.6530    0.5231    0.6992 N   0  0  0  0  0  0  0  0  0  0  0  0
   -2.4756    1.0396    0.1762 C   0  0  0  0  0  0  0  0  0  0  0  0
   -1.6409    0.3782   -0.4235 O   0  0  0  0  0  0  0  0  0  0  0  0
   -2.4309    2.5202    0.3625 C   0  0  0  0  0  0  0  0  0  0  0  0
   -1.4280    3.3788    0.1321 C   0  0  0  0  0  0  0  0  0  0  0  0
   -0.1157    2.9983   -0.2501 C   0  0  0  0  0  0  0  0  0  0  0  0
    0.7706    3.6677   -1.0814 C   0  0  0  0  0  0  0  0  0  0  0  0
    1.9638    2.9099   -1.1357 C   0  0  0  0  0  0  0  0  0  0  0  0
    1.7828    1.8085   -0.3202 C   0  0  0  0  0  0  0  0  0  0  0  0
    2.7080    0.7418   -0.0517 C   0  0  0  0  0  0  0  0  0  0  0  0
    3.9207    0.7191   -0.5646 N   0  0  0  0  0  0  0  0  0  0  0  0
    4.5868   -0.4190   -0.1414 C   0  0  0  0  0  0  0  0  0  0  0  0
    5.9038   -0.7827   -0.4892 C   0  0  0  0  0  0  0  0  0  0  0  0
    6.4552   -1.9661    0.0129 C   0  0  0  0  0  0  0  0  0  0  0  0
    5.7122   -2.7880    0.8543 C   0  0  0  0  0  0  0  0  0  0  0  0
    4.4040   -2.4501    1.2147 C   0  0  0  0  0  0  0  0  0  0  0  0
    3.8604   -1.2592    0.7047 C   0  0  0  0  0  0  0  0  0  0  0  0
    2.3004   -0.5796    0.9617 S   0  0  0  0  0  0  0  0  0  0  0  0
    0.5314    1.8878    0.2306 O   0  0  0  0  0  0  0  0  0  0  0  0
   -3.9671    3.0646    0.9463 S   0  0  0  0  0  0  0  0  0  0  0  0
   -4.5966    1.4339    1.1204 C   0  0  0  0  0  0  0  0  0  0  0  0
   -6.1284    1.1357    1.7089 S   0  0  0  0  0  0  0  0  0  0  0  0
   -5.1907   -4.2512   -1.8103 H   0  0  0  0  0  0  0  0  0  0  0  0
   -5.4002   -0.8810   -0.8890 H   0  0  0  0  0  0  0  0  0  0  0  0
   -3.7507   -1.0946   -1.5188 H   0  0  0  0  0  0  0  0  0  0  0  0
   -4.5193   -1.2393    1.4556 H   0  0  0  0  0  0  0  0  0  0  0  0
   -2.8977   -1.4233    0.8077 H   0  0  0  0  0  0  0  0  0  0  0  0
   -1.5954    4.4449    0.2639 H   0  0  0  0  0  0  0  0  0  0  0  0
    0.5700    4.5944   -1.6019 H   0  0  0  0  0  0  0  0  0  0  0  0
    2.8600    3.1282   -1.7008 H   0  0  0  0  0  0  0  0  0  0  0  0
    6.4799   -0.1390   -1.1464 H   0  0  0  0  0  0  0  0  0  0  0  0
    7.4714   -2.2428   -0.2586 H   0  0  0  0  0  0  0  0  0  0  0  0
    6.1526   -3.7063    1.2376 H   0  0  0  0  0  0  0  0  0  0  0  0
    3.8244   -3.0923    1.8709 H   0  0  0  0  0  0  0  0  0  0  0  0
  1  2  2  0
  2  3  1  0
  2  4  1  0
  4  5  1  0
  5  6  1  0
  6  7  1  0
  7  8  2  0
  7  9  1  0
  9 10  2  3
 10 11  1  0
 11 12  2  0
 12 13  1  0
 13 14  2  0
 14 15  1  0
 15 16  2  0
 16 17  1  0
 17 18  2  0
 18 19  1  0
 19 20  2  0
 20 21  1  0
 21 22  2  0
 22 23  1  0
 14 24  1  0
  9 25  1  0
 25 26  1  0
 26 27  2  0
 26  6  1  0
 24 11  1  0
 23 15  1  0
 22 17  1  0
  3 28  1  0
  4 29  1  0
  4 30  1  0
  5 31  1  0
  5 32  1  0
 10 33  1  0
 12 34  1  0
 13 35  1  0
 18 36  1  0
 19 37  1  0
 20 38  1  0
 21 39  1  0
M  END
$$$$
