
     RDKit          3D

 51 54  0  0  0  0  0  0  0  0999 V2000
    7.6690   -2.5490    0.6065 N   0  0  0  0  0  0  0  0  0  0  0  0
    7.0688   -1.8481   -0.8034 S   0  0  0  0  0  6  0  0  0  0  0  0
    6.5967   -2.9051   -1.6638 O   0  0  0  0  0  0  0  0  0  0  0  0
    8.0751   -0.8988   -1.2138 O   0  0  0  0  0  0  0  0  0  0  0  0
    5.6650   -0.9609   -0.1839 C   0  0  0  0  0  0  0  0  0  0  0  0
    5.7388    0.4184    0.0153 C   0  0  0  0  0  0  0  0  0  0  0  0
    4.6249    1.1022    0.5206 C   0  0  0  0  0  0  0  0  0  0  0  0
    3.4412    0.4161    0.8153 C   0  0  0  0  0  0  0  0  0  0  0  0
    2.2869    1.0227    1.3484 N   0  0  0  0  0  0  0  0  0  0  0  0
    2.0541    2.3710    1.5619 C   0  0  0  0  0  0  0  0  0  0  0  0
    2.8109    3.2926    1.2613 O   0  0  0  0  0  0  0  0  0  0  0  0
    0.7286    2.6469    2.2584 C   0  0  0  0  0  0  0  0  0  0  0  0
   -0.6387    2.7230    1.0676 S   0  0  0  0  0  0  0  0  0  0  0  0
   -1.0156    1.0403    0.8569 C   0  0  0  0  0  0  0  0  0  0  0  0
   -0.3069    0.0667    1.3830 N   0  0  0  0  0  0  0  0  0  0  0  0
   -0.7864   -1.1135    0.8956 N   0  0  0  0  0  0  0  0  0  0  0  0
   -1.8010   -0.8509    0.0914 C   0  0  0  0  0  0  0  0  0  0  0  0
   -2.6953   -1.8996   -0.4870 C   0  0  0  0  0  0  0  0  0  0  0  0
   -3.9933   -2.0210    0.2608 C   0  0  0  0  0  0  0  0  0  0  0  0
   -4.1884   -2.3941    1.5769 C   0  0  0  0  0  0  0  0  0  0  0  0
   -5.5639   -2.4178    1.9327 C   0  0  0  0  0  0  0  0  0  0  0  0
   -6.3768   -2.0500    0.8842 C   0  0  0  0  0  0  0  0  0  0  0  0
   -5.4819   -1.7060   -0.5277 S   0  0  0  0  0  0  0  0  0  0  0  0
   -1.9821    0.5283    0.0043 N   0  0  0  0  0  0  0  0  0  0  0  0
   -2.9463    1.2298   -0.7659 C   0  0  0  0  0  0  0  0  0  0  0  0
   -3.6901    2.2645   -0.1852 C   0  0  0  0  0  0  0  0  0  0  0  0
   -4.6521    2.9392   -0.9380 C   0  0  0  0  0  0  0  0  0  0  0  0
   -4.8709    2.5891   -2.2683 C   0  0  0  0  0  0  0  0  0  0  0  0
   -4.1242    1.5679   -2.8525 C   0  0  0  0  0  0  0  0  0  0  0  0
   -3.1603    0.8876   -2.1070 C   0  0  0  0  0  0  0  0  0  0  0  0
    3.3777   -0.9678    0.5915 C   0  0  0  0  0  0  0  0  0  0  0  0
    4.4840   -1.6587    0.0886 C   0  0  0  0  0  0  0  0  0  0  0  0
    8.6041   -2.1708    0.7810 H   0  0  0  0  0  0  0  0  0  0  0  0
    7.0550   -2.4186    1.4109 H   0  0  0  0  0  0  0  0  0  0  0  0
    6.6463    0.9729   -0.2231 H   0  0  0  0  0  0  0  0  0  0  0  0
    4.7145    2.1745    0.6717 H   0  0  0  0  0  0  0  0  0  0  0  0
    1.4894    0.3994    1.5023 H   0  0  0  0  0  0  0  0  0  0  0  0
    0.8058    3.6215    2.7538 H   0  0  0  0  0  0  0  0  0  0  0  0
    0.5475    1.9075    3.0449 H   0  0  0  0  0  0  0  0  0  0  0  0
   -2.1792   -2.8662   -0.4133 H   0  0  0  0  0  0  0  0  0  0  0  0
   -2.8550   -1.7490   -1.5583 H   0  0  0  0  0  0  0  0  0  0  0  0
   -3.3758   -2.6503    2.2494 H   0  0  0  0  0  0  0  0  0  0  0  0
   -5.9400   -2.6882    2.9120 H   0  0  0  0  0  0  0  0  0  0  0  0
   -7.4565   -1.9762    0.8756 H   0  0  0  0  0  0  0  0  0  0  0  0
   -3.5715    2.5391    0.8601 H   0  0  0  0  0  0  0  0  0  0  0  0
   -5.2376    3.7355   -0.4837 H   0  0  0  0  0  0  0  0  0  0  0  0
   -5.6215    3.1167   -2.8509 H   0  0  0  0  0  0  0  0  0  0  0  0
   -4.2896    1.3071   -3.8930 H   0  0  0  0  0  0  0  0  0  0  0  0
   -2.5625    0.1314   -2.6091 H   0  0  0  0  0  0  0  0  0  0  0  0
    2.4632   -1.5212    0.8006 H   0  0  0  0  0  0  0  0  0  0  0  0
    4.4161   -2.7299   -0.0901 H   0  0  0  0  0  0  0  0  0  0  0  0
  1  2  1  0
  2  3  2  0
  2  4  2  0
  2  5  1  0
  5  6  2  0
  6  7  1  0
  7  8  2  0
  8  9  1  0
  9 10  1  0
 10 11  2  0
 10 12  1  0
 12 13  1  0
 13 14  1  0
 14 15  2  0
 15 16  1  0
 16 17  2  0
 17 18  1  0
 18 19  1  0
 19 20  2  0
 20 21  1  0
 21 22  2  0
 22 23  1  0
 17 24  1  0
 24 25  1  0
 25 26  2  0
 26 27  1  0
 27 28  2  0
 28 29  1  0
 29 30  2  0
  8 31  1  0
 31 32  2  0
 32  5  1  0
 24 14  1  0
 30 25  1  0
 23 19  1  0
  1 33  1  0
  1 34  1  0
  6 35  1  0
  7 36  1  0
  9 37  1  0
 12 38  1  0
 12 39  1  0
 18 40  1  0
 18 41  1  0
 20 42  1  0
 21 43  1  0
 22 44  1  0
 26 45  1  0
 27 46  1  0
 28 47  1  0
 29 48  1  0
 30 49  1  0
 31 50  1  0
 32 51  1  0
M  END
$$$$
