
     RDKit          3D

 43 45  0  0  0  0  0  0  0  0999 V2000
   -1.2539   -2.9639    2.1597 C   0  0  0  0  0  0  0  0  0  0  0  0
   -1.2550   -1.8251    1.1854 C   0  0  0  0  0  0  0  0  0  0  0  0
   -0.0795   -1.4215    0.5918 C   0  0  0  0  0  0  0  0  0  0  0  0
   -0.1522   -0.3625   -0.2896 C   0  0  0  0  0  0  0  0  0  0  0  0
    0.9841    0.1190   -0.9603 N   0  0  0  0  0  0  0  0  0  0  0  0
    2.2063   -0.0650   -0.4032 N   0  0  0  0  0  0  0  0  0  0  0  0
    3.1705    0.5595   -0.9928 C   0  0  0  0  0  0  0  0  0  0  0  0
    4.5668    0.4767   -0.5204 C   0  0  0  0  0  0  0  0  0  0  0  0
    5.5061    1.2752   -1.1893 C   0  0  0  0  0  0  0  0  0  0  0  0
    6.8497    1.2686   -0.7973 C   0  0  0  0  0  0  0  0  0  0  0  0
    7.2721    0.4667    0.2640 C   0  0  0  0  0  0  0  0  0  0  0  0
    6.3529   -0.3360    0.9371 C   0  0  0  0  0  0  0  0  0  0  0  0
    5.0086   -0.3241    0.5363 C   0  0  0  0  0  0  0  0  0  0  0  0
    4.1091   -1.1949    1.2579 N   0  0  0  0  0  4  0  0  0  0  0  0
    3.9340   -2.3299    0.7926 O   0  0  0  0  0  0  0  0  0  0  0  0
    3.6647   -0.7723    2.3342 O   0  0  0  0  0  1  0  0  0  0  0  0
   -1.3126    0.2461   -0.5772 N   0  0  0  0  0  0  0  0  0  0  0  0
   -2.4256   -0.2030    0.0438 C   0  0  0  0  0  0  0  0  0  0  0  0
   -3.6763    0.4588   -0.2568 N   0  0  0  0  0  0  0  0  0  0  0  0
   -3.7201    1.5055   -1.1415 N   0  0  0  0  0  0  0  0  0  0  0  0
   -4.9997    1.8788   -1.1865 C   0  0  0  0  0  0  0  0  0  0  0  0
   -5.4141    3.0040   -2.0578 C   0  0  0  0  0  0  0  0  0  0  0  0
   -5.8043    1.0929   -0.3439 C   0  0  0  0  0  0  0  0  0  0  0  0
   -4.9486    0.1865    0.2469 C   0  0  0  0  0  0  0  0  0  0  0  0
   -5.2562   -0.8853    1.2273 C   0  0  0  0  0  0  0  0  0  0  0  0
   -2.4342   -1.2286    0.9243 N   0  0  0  0  0  0  0  0  0  0  0  0
   -0.6258   -2.7229    3.0229 H   0  0  0  0  0  0  0  0  0  0  0  0
   -0.8743   -3.8718    1.6802 H   0  0  0  0  0  0  0  0  0  0  0  0
   -2.2671   -3.1682    2.5210 H   0  0  0  0  0  0  0  0  0  0  0  0
    0.8632   -1.9097    0.8057 H   0  0  0  0  0  0  0  0  0  0  0  0
    0.7371    0.9700   -1.4639 H   0  0  0  0  0  0  0  0  0  0  0  0
    2.9816    1.1893   -1.8821 H   0  0  0  0  0  0  0  0  0  0  0  0
    5.2072    1.9142   -2.0182 H   0  0  0  0  0  0  0  0  0  0  0  0
    7.5703    1.8935   -1.3225 H   0  0  0  0  0  0  0  0  0  0  0  0
    8.3183    0.4674    0.5638 H   0  0  0  0  0  0  0  0  0  0  0  0
    6.6832   -0.9646    1.7618 H   0  0  0  0  0  0  0  0  0  0  0  0
   -5.1934    2.7793   -3.1063 H   0  0  0  0  0  0  0  0  0  0  0  0
   -6.4885    3.1956   -1.9715 H   0  0  0  0  0  0  0  0  0  0  0  0
   -4.8836    3.9206   -1.7802 H   0  0  0  0  0  0  0  0  0  0  0  0
   -6.8707    1.1728   -0.1839 H   0  0  0  0  0  0  0  0  0  0  0  0
   -6.3262   -0.8949    1.4625 H   0  0  0  0  0  0  0  0  0  0  0  0
   -4.7195   -0.7254    2.1676 H   0  0  0  0  0  0  0  0  0  0  0  0
   -5.0043   -1.8715    0.8255 H   0  0  0  0  0  0  0  0  0  0  0  0
  1  2  1  0
  2  3  2  0
  3  4  1  0
  4  5  1  0
  5  6  1  0
  6  7  2  3
  7  8  1  0
  8  9  2  0
  9 10  1  0
 10 11  2  0
 11 12  1  0
 12 13  2  0
 13 14  1  0
 14 15  2  0
 14 16  1  0
  4 17  2  0
 17 18  1  0
 18 19  1  0
 19 20  1  0
 20 21  2  0
 21 22  1  0
 21 23  1  0
 23 24  2  0
 24 25  1  0
 18 26  2  0
 26  2  1  0
 13  8  1  0
 24 19  1  0
  1 27  1  0
  1 28  1  0
  1 29  1  0
  3 30  1  0
  5 31  1  0
  7 32  1  0
  9 33  1  0
 10 34  1  0
 11 35  1  0
 12 36  1  0
 22 37  1  0
 22 38  1  0
 22 39  1  0
 23 40  1  0
 25 41  1  0
 25 42  1  0
 25 43  1  0
M  CHG  2  14   1  16  -1
M  END
$$$$
