
     RDKit          3D

 48 49  0  0  0  0  0  0  0  0999 V2000
   -7.2330   -0.4403    2.8091 C   0  0  0  0  0  0  0  0  0  0  0  0
   -6.8050   -0.2182    1.3883 C   0  0  0  0  0  0  0  0  0  0  0  0
   -7.7522   -0.1063    0.3715 C   0  0  0  0  0  0  0  0  0  0  0  0
   -7.3428    0.0691   -0.9490 C   0  0  0  0  0  0  0  0  0  0  0  0
   -5.9782    0.1261   -1.2817 C   0  0  0  0  0  0  0  0  0  0  0  0
   -5.6086    0.3183   -2.7286 C   0  0  0  0  0  0  0  0  0  0  0  0
   -5.0103   -0.0021   -0.2613 C   0  0  0  0  0  0  0  0  0  0  0  0
   -3.6402    0.0490   -0.6133 N   0  0  0  0  0  0  0  0  0  0  0  0
   -2.5368   -0.0520    0.2179 C   0  0  0  0  0  0  0  0  0  0  0  0
   -2.5359   -0.2070    1.4337 O   0  0  0  0  0  0  0  0  0  0  0  0
   -1.2441    0.0543   -0.5690 C   0  0  0  0  0  0  0  0  0  0  0  0
   -0.0245   -0.0555    0.3374 C   0  0  0  0  0  0  0  0  0  0  0  0
    1.2624    0.0506   -0.4490 C   0  0  0  0  0  0  0  0  0  0  0  0
    1.2925    0.2055   -1.6663 O   0  0  0  0  0  0  0  0  0  0  0  0
    2.3808   -0.0480    0.3678 N   0  0  0  0  0  0  0  0  0  0  0  0
    3.6195    0.0285   -0.1867 N   0  0  0  0  0  0  0  0  0  0  0  0
    4.6164   -0.0709    0.6324 C   0  0  0  0  0  0  0  0  0  0  0  0
    6.0056   -0.0010    0.1351 C   0  0  0  0  0  0  0  0  0  0  0  0
    7.0434   -0.1144    1.0664 C   0  0  0  0  0  0  0  0  0  0  0  0
    8.3733   -0.0515    0.6215 C   0  0  0  0  0  0  0  0  0  0  0  0
    9.4674   -0.1699    1.5942 N   0  0  0  0  0  4  0  0  0  0  0  0
    9.1592   -0.3229    2.7848 O   0  0  0  0  0  0  0  0  0  0  0  0
   10.6287   -0.1100    1.1688 O   0  0  0  0  0  1  0  0  0  0  0  0
    8.6692    0.1227   -0.7372 C   0  0  0  0  0  0  0  0  0  0  0  0
    7.6255    0.2347   -1.6574 C   0  0  0  0  0  0  0  0  0  0  0  0
    6.3015    0.1732   -1.2240 C   0  0  0  0  0  0  0  0  0  0  0  0
    5.3456    0.2920   -2.1943 O   0  0  0  0  0  0  0  0  0  0  0  0
   -5.4407   -0.1778    1.0606 C   0  0  0  0  0  0  0  0  0  0  0  0
   -6.5398    0.0440    3.5049 H   0  0  0  0  0  0  0  0  0  0  0  0
   -7.2646   -1.5123    3.0269 H   0  0  0  0  0  0  0  0  0  0  0  0
   -8.2252   -0.0141    2.9913 H   0  0  0  0  0  0  0  0  0  0  0  0
   -8.8145   -0.1537    0.5995 H   0  0  0  0  0  0  0  0  0  0  0  0
   -8.1026    0.1594   -1.7227 H   0  0  0  0  0  0  0  0  0  0  0  0
   -5.0284   -0.5372   -3.0893 H   0  0  0  0  0  0  0  0  0  0  0  0
   -5.0274    1.2376   -2.8537 H   0  0  0  0  0  0  0  0  0  0  0  0
   -6.4956    0.4040   -3.3656 H   0  0  0  0  0  0  0  0  0  0  0  0
   -3.4394    0.1767   -1.5961 H   0  0  0  0  0  0  0  0  0  0  0  0
   -1.2282   -0.7447   -1.3202 H   0  0  0  0  0  0  0  0  0  0  0  0
   -1.2363    1.0162   -1.0959 H   0  0  0  0  0  0  0  0  0  0  0  0
   -0.0303   -1.0173    0.8644 H   0  0  0  0  0  0  0  0  0  0  0  0
   -0.0385    0.7433    1.0887 H   0  0  0  0  0  0  0  0  0  0  0  0
    2.2775   -0.1757    1.3694 H   0  0  0  0  0  0  0  0  0  0  0  0
    4.4708   -0.2097    1.7189 H   0  0  0  0  0  0  0  0  0  0  0  0
    6.8188   -0.2497    2.1221 H   0  0  0  0  0  0  0  0  0  0  0  0
    9.6962    0.1730   -1.0943 H   0  0  0  0  0  0  0  0  0  0  0  0
    7.8402    0.3702   -2.7155 H   0  0  0  0  0  0  0  0  0  0  0  0
    4.4551    0.2345   -1.7756 H   0  0  0  0  0  0  0  0  0  0  0  0
   -4.7268   -0.2879    1.8711 H   0  0  0  0  0  0  0  0  0  0  0  0
  1  2  1  0
  2  3  2  0
  3  4  1  0
  4  5  2  0
  5  6  1  0
  5  7  1  0
  7  8  1  0
  8  9  1  0
  9 10  2  0
  9 11  1  0
 11 12  1  0
 12 13  1  0
 13 14  2  0
 13 15  1  0
 15 16  1  0
 16 17  2  3
 17 18  1  0
 18 19  2  0
 19 20  1  0
 20 21  1  0
 21 22  2  0
 21 23  1  0
 20 24  2  0
 24 25  1  0
 25 26  2  0
 26 27  1  0
  7 28  2  0
 28  2  1  0
 26 18  1  0
  1 29  1  0
  1 30  1  0
  1 31  1  0
  3 32  1  0
  4 33  1  0
  6 34  1  0
  6 35  1  0
  6 36  1  0
  8 37  1  0
 11 38  1  0
 11 39  1  0
 12 40  1  0
 12 41  1  0
 15 42  1  0
 17 43  1  0
 19 44  1  0
 24 45  1  0
 25 46  1  0
 27 47  1  0
 28 48  1  0
M  CHG  2  21   1  23  -1
M  END
$$$$
