
     RDKit          3D

 53 55  0  0  0  0  0  0  0  0999 V2000
   -5.1500   -5.4914    3.3087 C   0  0  0  0  0  0  0  0  0  0  0  0
   -4.4214   -5.1441    2.1377 O   0  0  0  0  0  0  0  0  0  0  0  0
   -4.4136   -3.8249    1.7792 C   0  0  0  0  0  0  0  0  0  0  0  0
   -5.0244   -2.7810    2.4769 C   0  0  0  0  0  0  0  0  0  0  0  0
   -4.9364   -1.4693    1.9983 C   0  0  0  0  0  0  0  0  0  0  0  0
   -4.2193   -1.2010    0.8283 C   0  0  0  0  0  0  0  0  0  0  0  0
   -4.1358    0.4675    0.2079 S   0  0  0  0  0  6  0  0  0  0  0  0
   -3.8840    0.3911   -1.2154 O   0  0  0  0  0  0  0  0  0  0  0  0
   -5.2836    1.1772    0.7303 O   0  0  0  0  0  0  0  0  0  0  0  0
   -2.7674    1.1058    0.9297 N   0  0  0  0  0  0  0  0  0  0  0  0
   -2.7058    1.2848    2.3815 C   0  0  0  0  0  0  0  0  0  0  0  0
   -1.5084    0.4495    2.7722 C   0  0  0  0  0  0  0  0  0  0  0  0
   -0.6238    0.5656    1.6562 O   0  0  0  0  0  0  0  0  0  0  0  0
   -1.4544    0.6208    0.4819 C   0  0  0  0  0  0  0  0  0  0  0  0
   -0.8456    1.5833   -0.5606 C   0  0  0  0  0  0  0  0  0  0  0  0
    0.4029    1.0972   -1.1234 N   0  0  0  0  0  0  0  0  0  0  0  0
    1.6275    1.4038   -0.5765 C   0  0  0  0  0  0  0  0  0  0  0  0
    1.8479    2.2002    0.3244 O   0  0  0  0  0  0  0  0  0  0  0  0
    2.7987    0.6307   -1.2248 C   0  0  0  0  0  0  0  0  0  0  0  0
    2.5786   -0.1834   -2.1111 O   0  0  0  0  0  0  0  0  0  0  0  0
    4.0271    0.9657   -0.7089 N   0  0  0  0  0  0  0  0  0  0  0  0
    5.2603    0.4851   -1.2726 C   0  0  0  0  0  0  0  0  0  0  0  0
    5.8320    1.4842   -2.2457 C   0  0  0  0  0  0  0  0  0  0  0  0
    5.4181    1.4797   -3.5881 C   0  0  0  0  0  0  0  0  0  0  0  0
    5.9272    2.4172   -4.4876 C   0  0  0  0  0  0  0  0  0  0  0  0
    6.8437    3.3630   -4.0451 C   0  0  0  0  0  0  0  0  0  0  0  0
    7.3321    4.2633   -4.9084 F   0  0  0  0  0  0  0  0  0  0  0  0
    7.2587    3.3918   -2.7190 C   0  0  0  0  0  0  0  0  0  0  0  0
    6.7508    2.4554   -1.8169 C   0  0  0  0  0  0  0  0  0  0  0  0
   -3.6342   -2.2431    0.1069 C   0  0  0  0  0  0  0  0  0  0  0  0
   -3.7245   -3.5486    0.5937 C   0  0  0  0  0  0  0  0  0  0  0  0
   -6.2120   -5.2477    3.1999 H   0  0  0  0  0  0  0  0  0  0  0  0
   -4.7225   -5.0117    4.1953 H   0  0  0  0  0  0  0  0  0  0  0  0
   -5.0689   -6.5742    3.4441 H   0  0  0  0  0  0  0  0  0  0  0  0
   -5.5850   -2.9552    3.3898 H   0  0  0  0  0  0  0  0  0  0  0  0
   -5.4393   -0.6694    2.5382 H   0  0  0  0  0  0  0  0  0  0  0  0
   -3.6084    0.9916    2.9201 H   0  0  0  0  0  0  0  0  0  0  0  0
   -2.5203    2.3461    2.5808 H   0  0  0  0  0  0  0  0  0  0  0  0
   -1.0188    0.8058    3.6822 H   0  0  0  0  0  0  0  0  0  0  0  0
   -1.7720   -0.6065    2.8973 H   0  0  0  0  0  0  0  0  0  0  0  0
   -1.4997   -0.3949    0.0794 H   0  0  0  0  0  0  0  0  0  0  0  0
   -0.6607    2.5612   -0.1009 H   0  0  0  0  0  0  0  0  0  0  0  0
   -1.5313    1.7269   -1.4013 H   0  0  0  0  0  0  0  0  0  0  0  0
    0.3966    0.3827   -1.8469 H   0  0  0  0  0  0  0  0  0  0  0  0
    4.0390    1.7365   -0.0468 H   0  0  0  0  0  0  0  0  0  0  0  0
    5.1027   -0.4800   -1.7677 H   0  0  0  0  0  0  0  0  0  0  0  0
    5.9581    0.3160   -0.4451 H   0  0  0  0  0  0  0  0  0  0  0  0
    4.6917    0.7459   -3.9346 H   0  0  0  0  0  0  0  0  0  0  0  0
    5.6120    2.4175   -5.5259 H   0  0  0  0  0  0  0  0  0  0  0  0
    7.9714    4.1441   -2.3966 H   0  0  0  0  0  0  0  0  0  0  0  0
    7.0749    2.4884   -0.7790 H   0  0  0  0  0  0  0  0  0  0  0  0
   -3.1165   -2.0576   -0.8312 H   0  0  0  0  0  0  0  0  0  0  0  0
   -3.2639   -4.3637    0.0389 H   0  0  0  0  0  0  0  0  0  0  0  0
  1  2  1  0
  2  3  1  0
  3  4  2  0
  4  5  1  0
  5  6  2  0
  6  7  1  0
  7  8  2  0
  7  9  2  0
  7 10  1  0
 10 11  1  0
 11 12  1  0
 12 13  1  0
 13 14  1  0
 14 15  1  0
 15 16  1  0
 16 17  1  0
 17 18  2  0
 17 19  1  0
 19 20  2  0
 19 21  1  0
 21 22  1  0
 22 23  1  0
 23 24  2  0
 24 25  1  0
 25 26  2  0
 26 27  1  0
 26 28  1  0
 28 29  2  0
  6 30  1  0
 30 31  2  0
 31  3  1  0
 14 10  1  0
 29 23  1  0
  1 32  1  0
  1 33  1  0
  1 34  1  0
  4 35  1  0
  5 36  1  0
 11 37  1  0
 11 38  1  0
 12 39  1  0
 12 40  1  0
 14 41  1  0
 15 42  1  0
 15 43  1  0
 16 44  1  0
 21 45  1  0
 22 46  1  0
 22 47  1  0
 24 48  1  0
 25 49  1  0
 28 50  1  0
 29 51  1  0
 30 52  1  0
 31 53  1  0
M  END
$$$$
