
     RDKit          3D

 44 44  0  0  0  0  0  0  0  0999 V2000
   -3.3238   -1.2314    1.7311 C   0  0  0  0  0  0  0  0  0  0  0  0
   -3.1662    0.2772    1.5324 C   0  0  0  0  0  0  0  0  0  0  0  0
   -2.7618    0.9123    2.8787 C   0  0  0  0  0  0  0  0  0  0  0  0
   -2.2150    0.7018    0.3665 C   0  0  0  0  0  0  0  0  0  0  0  0
   -2.2774    2.1435    0.3242 O   0  0  0  0  0  0  0  0  0  0  0  0
   -0.8076    0.3418    0.6567 C   0  0  0  0  0  0  0  0  0  0  0  0
    0.3444    0.0737    0.8726 C   0  0  0  0  0  0  0  0  0  0  0  0
    1.7576   -0.2497    1.1265 C   0  0  0  0  0  0  0  0  0  0  0  0
    2.6566    0.4627    0.2079 N   0  0  0  0  0  0  0  0  0  0  0  0
    2.4309    0.0704   -1.1950 C   0  0  0  0  0  0  0  0  0  0  0  0
    3.6238    0.4047   -2.0907 C   0  0  0  0  0  0  0  0  0  0  0  0
    4.8753   -0.3555   -1.6542 C   0  0  0  0  0  0  0  0  0  0  0  0
    4.8586   -0.6866   -0.1624 C   0  0  0  0  0  0  0  0  0  0  0  0
    4.0620    0.3492    0.6288 C   0  0  0  0  0  0  0  0  0  0  0  0
   -2.6074    0.2311   -1.0761 C   0  0  0  0  0  0  0  0  0  0  0  0
   -4.0784    0.5117   -1.4122 C   0  0  0  0  0  0  0  0  0  0  0  0
   -2.2647   -1.2212   -1.4369 C   0  0  0  0  0  0  0  0  0  0  0  0
   -2.3560   -1.7375    1.7997 H   0  0  0  0  0  0  0  0  0  0  0  0
   -3.9006   -1.6782    0.9185 H   0  0  0  0  0  0  0  0  0  0  0  0
   -3.8784   -1.4484    2.6515 H   0  0  0  0  0  0  0  0  0  0  0  0
   -4.1633    0.6858    1.3183 H   0  0  0  0  0  0  0  0  0  0  0  0
   -1.8027    0.5251    3.2377 H   0  0  0  0  0  0  0  0  0  0  0  0
   -2.6881    2.0023    2.8046 H   0  0  0  0  0  0  0  0  0  0  0  0
   -3.5127    0.6921    3.6457 H   0  0  0  0  0  0  0  0  0  0  0  0
   -1.4876    2.4459   -0.1589 H   0  0  0  0  0  0  0  0  0  0  0  0
    1.9158   -1.3342    1.0687 H   0  0  0  0  0  0  0  0  0  0  0  0
    1.9755    0.0499    2.1599 H   0  0  0  0  0  0  0  0  0  0  0  0
    2.2297   -1.0071   -1.2776 H   0  0  0  0  0  0  0  0  0  0  0  0
    1.5493    0.5956   -1.5801 H   0  0  0  0  0  0  0  0  0  0  0  0
    3.3936    0.1677   -3.1362 H   0  0  0  0  0  0  0  0  0  0  0  0
    3.8181    1.4850   -2.0531 H   0  0  0  0  0  0  0  0  0  0  0  0
    5.7602    0.2461   -1.8986 H   0  0  0  0  0  0  0  0  0  0  0  0
    4.9690   -1.2882   -2.2255 H   0  0  0  0  0  0  0  0  0  0  0  0
    5.8869   -0.7422    0.2116 H   0  0  0  0  0  0  0  0  0  0  0  0
    4.4172   -1.6802   -0.0112 H   0  0  0  0  0  0  0  0  0  0  0  0
    4.5312    1.3327    0.4862 H   0  0  0  0  0  0  0  0  0  0  0  0
    4.1499    0.1413    1.7030 H   0  0  0  0  0  0  0  0  0  0  0  0
   -2.0260    0.8511   -1.7774 H   0  0  0  0  0  0  0  0  0  0  0  0
   -4.2721    0.3180   -2.4737 H   0  0  0  0  0  0  0  0  0  0  0  0
   -4.3383    1.5586   -1.2193 H   0  0  0  0  0  0  0  0  0  0  0  0
   -4.7555   -0.1253   -0.8335 H   0  0  0  0  0  0  0  0  0  0  0  0
   -1.2016   -1.4346   -1.2947 H   0  0  0  0  0  0  0  0  0  0  0  0
   -2.4822   -1.4050   -2.4967 H   0  0  0  0  0  0  0  0  0  0  0  0
   -2.8381   -1.9523   -0.8666 H   0  0  0  0  0  0  0  0  0  0  0  0
  1  2  1  0
  2  3  1  0
  2  4  1  0
  4  5  1  0
  4  6  1  0
  6  7  3  0
  7  8  1  0
  8  9  1  0
  9 10  1  0
 10 11  1  0
 11 12  1  0
 12 13  1  0
 13 14  1  0
  4 15  1  0
 15 16  1  0
 15 17  1  0
 14  9  1  0
  1 18  1  0
  1 19  1  0
  1 20  1  0
  2 21  1  0
  3 22  1  0
  3 23  1  0
  3 24  1  0
  5 25  1  0
  8 26  1  0
  8 27  1  0
 10 28  1  0
 10 29  1  0
 11 30  1  0
 11 31  1  0
 12 32  1  0
 12 33  1  0
 13 34  1  0
 13 35  1  0
 14 36  1  0
 14 37  1  0
 15 38  1  0
 16 39  1  0
 16 40  1  0
 16 41  1  0
 17 42  1  0
 17 43  1  0
 17 44  1  0
M  END
$$$$
