
     RDKit          3D

 37 39  0  0  0  0  0  0  0  0999 V2000
    4.5490    1.3064   -2.0411 C   0  0  0  0  0  0  0  0  0  0  0  0
    5.6317    0.7758   -1.1120 C   0  0  0  0  0  0  0  0  0  0  0  0
    5.2469   -0.5355   -0.4242 C   0  0  0  0  0  0  0  0  0  0  0  0
    4.1493   -0.3611    0.5744 C   0  0  0  0  0  0  0  0  0  0  0  0
    4.2535    0.3246    1.6945 N   0  0  0  0  0  0  0  0  0  0  0  0
    3.0798    0.3071    2.4208 N   0  0  0  0  0  0  0  0  0  0  0  0
    2.1398   -0.3949    1.8281 C   0  0  0  0  0  0  0  0  0  0  0  0
    0.8911   -0.5391    2.3797 N   0  0  0  0  0  0  0  0  0  0  0  0
   -0.1671   -1.2593    1.8601 C   0  0  0  0  0  0  0  0  0  0  0  0
   -0.1657   -1.9050    0.8182 O   0  0  0  0  0  0  0  0  0  0  0  0
   -1.4072   -1.1686    2.7670 C   0  0  0  0  0  0  0  0  0  0  0  0
   -2.5984   -1.7477    2.2640 O   0  0  0  0  0  0  0  0  0  0  0  0
   -3.3333   -1.0311    1.3587 C   0  0  0  0  0  0  0  0  0  0  0  0
   -4.5549   -1.6379    0.9993 C   0  0  0  0  0  0  0  0  0  0  0  0
   -5.4247   -1.0334    0.0866 C   0  0  0  0  0  0  0  0  0  0  0  0
   -5.0413    0.1733   -0.4514 C   0  0  0  0  0  0  0  0  0  0  0  0
   -3.8498    0.7674   -0.1091 C   0  0  0  0  0  0  0  0  0  0  0  0
   -2.9725    0.1933    0.7904 C   0  0  0  0  0  0  0  0  0  0  0  0
   -3.6585    1.9517   -0.7527 O   0  0  0  0  0  0  0  0  0  0  0  0
   -4.8572    2.0219   -1.5535 C   0  0  0  0  0  0  0  0  0  0  0  0
   -5.7485    0.9057   -1.3519 O   0  0  0  0  0  0  0  0  0  0  0  0
    2.6077   -1.0816    0.3431 S   0  0  0  0  0  0  0  0  0  0  0  0
    4.2737    0.5583   -2.7911 H   0  0  0  0  0  0  0  0  0  0  0  0
    4.9088    2.1963   -2.5676 H   0  0  0  0  0  0  0  0  0  0  0  0
    3.6495    1.5903   -1.4871 H   0  0  0  0  0  0  0  0  0  0  0  0
    6.5401    0.6049   -1.7023 H   0  0  0  0  0  0  0  0  0  0  0  0
    5.8768    1.5421   -0.3671 H   0  0  0  0  0  0  0  0  0  0  0  0
    6.1255   -0.9229    0.1061 H   0  0  0  0  0  0  0  0  0  0  0  0
    4.9854   -1.2876   -1.1779 H   0  0  0  0  0  0  0  0  0  0  0  0
    0.7951   -0.0603    3.2651 H   0  0  0  0  0  0  0  0  0  0  0  0
   -1.5754   -0.1321    3.0856 H   0  0  0  0  0  0  0  0  0  0  0  0
   -1.1574   -1.7296    3.6761 H   0  0  0  0  0  0  0  0  0  0  0  0
   -4.8236   -2.5963    1.4382 H   0  0  0  0  0  0  0  0  0  0  0  0
   -6.3626   -1.4996   -0.1914 H   0  0  0  0  0  0  0  0  0  0  0  0
   -2.0442    0.7034    1.0064 H   0  0  0  0  0  0  0  0  0  0  0  0
   -5.3912    2.9462   -1.3044 H   0  0  0  0  0  0  0  0  0  0  0  0
   -4.5705    2.0550   -2.6115 H   0  0  0  0  0  0  0  0  0  0  0  0
  1  2  1  0
  2  3  1  0
  3  4  1  0
  4  5  2  0
  5  6  1  0
  6  7  2  0
  7  8  1  0
  8  9  1  0
  9 10  2  0
  9 11  1  0
 11 12  1  0
 12 13  1  0
 13 14  2  0
 14 15  1  0
 15 16  2  0
 16 17  1  0
 17 18  2  0
 17 19  1  0
 19 20  1  0
 20 21  1  0
  7 22  1  0
 22  4  1  0
 18 13  1  0
 21 16  1  0
  1 23  1  0
  1 24  1  0
  1 25  1  0
  2 26  1  0
  2 27  1  0
  3 28  1  0
  3 29  1  0
  8 30  1  0
 11 31  1  0
 11 32  1  0
 14 33  1  0
 15 34  1  0
 18 35  1  0
 20 36  1  0
 20 37  1  0
M  END
$$$$
