
     RDKit          3D

 45 49  0  0  0  0  0  0  0  0999 V2000
    1.4708    0.0813    1.6948 O   0  0  0  0  0  0  0  0  0  0  0  0
    1.6959    0.1461    0.4949 C   0  0  0  0  0  0  0  0  0  0  0  0
    0.8527   -0.1955   -0.5253 O   0  0  0  0  0  0  0  0  0  0  0  0
   -0.4480   -0.4935   -0.0850 C   0  0  0  0  0  0  0  0  0  0  0  0
   -1.3999    0.4565    0.0902 C   0  0  0  0  0  0  0  0  0  0  0  0
   -1.0813    1.8727   -0.1625 C   0  0  0  0  0  0  0  0  0  0  0  0
   -1.1211    2.3861   -1.4654 C   0  0  0  0  0  0  0  0  0  0  0  0
   -0.7807    3.7184   -1.7067 C   0  0  0  0  0  0  0  0  0  0  0  0
   -0.3968    4.5429   -0.6498 C   0  0  0  0  0  0  0  0  0  0  0  0
   -0.3551    4.0388    0.6495 C   0  0  0  0  0  0  0  0  0  0  0  0
   -0.6966    2.7077    0.8938 C   0  0  0  0  0  0  0  0  0  0  0  0
   -2.7958    0.0775    0.5461 C   0  0  0  0  0  0  0  0  0  0  0  0
   -3.6701    0.9213    0.7263 O   0  0  0  0  0  0  0  0  0  0  0  0
   -3.0108   -1.2638    0.7273 N   0  0  0  0  0  0  0  0  0  0  0  0
   -2.0342   -2.2185    0.5120 C   0  0  0  0  0  0  0  0  0  0  0  0
   -2.5114   -3.4969    0.7508 C   0  0  0  0  0  0  0  0  0  0  0  0
   -1.6651   -4.5730    0.5756 C   0  0  0  0  0  0  0  0  0  0  0  0
   -0.3483   -4.3181    0.1591 C   0  0  0  0  0  0  0  0  0  0  0  0
    0.1076   -3.0013   -0.0757 C   0  0  0  0  0  0  0  0  0  0  0  0
   -0.7516   -1.9177    0.1048 C   0  0  0  0  0  0  0  0  0  0  0  0
   -3.9461   -3.4403    1.1791 C   0  0  0  0  0  0  0  0  0  0  0  0
   -4.2457   -1.9201    1.1510 C   0  0  0  0  0  0  0  0  0  0  0  0
    3.0006    0.5948   -0.0624 C   0  0  0  0  0  0  0  0  0  0  0  0
    4.0847    0.7241    0.8168 C   0  0  0  0  0  0  0  0  0  0  0  0
    5.3286    1.1457    0.3437 C   0  0  0  0  0  0  0  0  0  0  0  0
    5.4952    1.4449   -1.0077 C   0  0  0  0  0  0  0  0  0  0  0  0
    4.4198    1.3269   -1.8877 C   0  0  0  0  0  0  0  0  0  0  0  0
    3.1734    0.9046   -1.4189 C   0  0  0  0  0  0  0  0  0  0  0  0
   -1.4216    1.7533   -2.2970 H   0  0  0  0  0  0  0  0  0  0  0  0
   -0.8198    4.1143   -2.7180 H   0  0  0  0  0  0  0  0  0  0  0  0
   -0.1352    5.5811   -0.8372 H   0  0  0  0  0  0  0  0  0  0  0  0
   -0.0590    4.6813    1.4746 H   0  0  0  0  0  0  0  0  0  0  0  0
   -0.6555    2.3229    1.9111 H   0  0  0  0  0  0  0  0  0  0  0  0
   -2.0006   -5.5897    0.7543 H   0  0  0  0  0  0  0  0  0  0  0  0
    0.3379   -5.1510    0.0167 H   0  0  0  0  0  0  0  0  0  0  0  0
    1.1354   -2.8475   -0.3935 H   0  0  0  0  0  0  0  0  0  0  0  0
   -4.0755   -3.8454    2.1873 H   0  0  0  0  0  0  0  0  0  0  0  0
   -4.5911   -3.9785    0.4779 H   0  0  0  0  0  0  0  0  0  0  0  0
   -4.5322   -1.5407    2.1380 H   0  0  0  0  0  0  0  0  0  0  0  0
   -5.0443   -1.6729    0.4430 H   0  0  0  0  0  0  0  0  0  0  0  0
    3.9636    0.4977    1.8748 H   0  0  0  0  0  0  0  0  0  0  0  0
    6.1658    1.2437    1.0306 H   0  0  0  0  0  0  0  0  0  0  0  0
    6.4638    1.7761   -1.3748 H   0  0  0  0  0  0  0  0  0  0  0  0
    4.5507    1.5691   -2.9397 H   0  0  0  0  0  0  0  0  0  0  0  0
    2.3470    0.8344   -2.1220 H   0  0  0  0  0  0  0  0  0  0  0  0
  1  2  2  0
  2  3  1  0
  3  4  1  0
  4  5  2  0
  5  6  1  0
  6  7  2  0
  7  8  1  0
  8  9  2  0
  9 10  1  0
 10 11  2  0
  5 12  1  0
 12 13  2  0
 12 14  1  0
 14 15  1  0
 15 16  2  0
 16 17  1  0
 17 18  2  0
 18 19  1  0
 19 20  2  0
 16 21  1  0
 21 22  1  0
  2 23  1  0
 23 24  2  0
 24 25  1  0
 25 26  2  0
 26 27  1  0
 27 28  2  0
 20  4  1  0
 28 23  1  0
 11  6  1  0
 22 14  1  0
 20 15  1  0
  7 29  1  0
  8 30  1  0
  9 31  1  0
 10 32  1  0
 11 33  1  0
 17 34  1  0
 18 35  1  0
 19 36  1  0
 21 37  1  0
 21 38  1  0
 22 39  1  0
 22 40  1  0
 24 41  1  0
 25 42  1  0
 26 43  1  0
 27 44  1  0
 28 45  1  0
M  END
$$$$
