
     RDKit          3D

 34 35  0  0  0  0  0  0  0  0999 V2000
    4.0022    1.1404    2.0667 C   0  0  0  0  0  0  0  0  0  0  0  0
    3.8288   -0.1933    1.6042 O   0  0  0  0  0  0  0  0  0  0  0  0
    3.0824   -0.3621    0.4711 C   0  0  0  0  0  0  0  0  0  0  0  0
    2.9927   -1.6827    0.0226 C   0  0  0  0  0  0  0  0  0  0  0  0
    2.2559   -1.9973   -1.1219 C   0  0  0  0  0  0  0  0  0  0  0  0
    1.5865   -0.9947   -1.8219 C   0  0  0  0  0  0  0  0  0  0  0  0
    0.8402   -1.3071   -2.9627 N   0  0  0  0  0  0  0  0  0  0  0  0
   -0.4474   -1.4596   -2.8629 C   0  0  0  0  0  0  0  0  0  0  0  0
   -1.2838   -1.3804   -1.6112 C   0  0  0  0  0  0  0  0  0  0  0  0
   -2.0659   -0.0920   -1.5238 C   0  0  0  0  0  0  0  0  0  0  0  0
   -2.3235    0.5806   -2.5205 O   0  0  0  0  0  0  0  0  0  0  0  0
   -2.5611    0.3668   -0.1912 C   0  0  0  0  0  0  0  0  0  0  0  0
   -3.0405    1.6807   -0.0774 C   0  0  0  0  0  0  0  0  0  0  0  0
   -3.5126    2.1599    1.1477 C   0  0  0  0  0  0  0  0  0  0  0  0
   -3.5105    1.3255    2.2624 C   0  0  0  0  0  0  0  0  0  0  0  0
   -4.0892    1.9116    3.7719 Cl  0  0  0  0  0  0  0  0  0  0  0  0
   -3.0442    0.0156    2.1606 C   0  0  0  0  0  0  0  0  0  0  0  0
   -2.5715   -0.4668    0.9348 C   0  0  0  0  0  0  0  0  0  0  0  0
    1.6942    0.3288   -1.3872 C   0  0  0  0  0  0  0  0  0  0  0  0
    2.4327    0.6460   -0.2416 C   0  0  0  0  0  0  0  0  0  0  0  0
    4.5133    1.7553    1.3184 H   0  0  0  0  0  0  0  0  0  0  0  0
    4.6362    1.1053    2.9579 H   0  0  0  0  0  0  0  0  0  0  0  0
    3.0443    1.5843    2.3569 H   0  0  0  0  0  0  0  0  0  0  0  0
    3.5081   -2.4721    0.5642 H   0  0  0  0  0  0  0  0  0  0  0  0
    2.2048   -3.0250   -1.4694 H   0  0  0  0  0  0  0  0  0  0  0  0
   -1.0007   -1.6508   -3.7992 H   0  0  0  0  0  0  0  0  0  0  0  0
   -0.6526   -1.5014   -0.7293 H   0  0  0  0  0  0  0  0  0  0  0  0
   -1.9994   -2.2090   -1.6438 H   0  0  0  0  0  0  0  0  0  0  0  0
   -3.0476    2.3403   -0.9442 H   0  0  0  0  0  0  0  0  0  0  0  0
   -3.8794    3.1806    1.2217 H   0  0  0  0  0  0  0  0  0  0  0  0
   -3.0481   -0.6361    3.0313 H   0  0  0  0  0  0  0  0  0  0  0  0
   -2.2280   -1.4962    0.8892 H   0  0  0  0  0  0  0  0  0  0  0  0
    1.2004    1.1183   -1.9487 H   0  0  0  0  0  0  0  0  0  0  0  0
    2.4830    1.6868    0.0592 H   0  0  0  0  0  0  0  0  0  0  0  0
  1  2  1  0
  2  3  1  0
  3  4  2  0
  4  5  1  0
  5  6  2  0
  6  7  1  0
  7  8  2  3
  8  9  1  0
  9 10  1  0
 10 11  2  0
 10 12  1  0
 12 13  2  0
 13 14  1  0
 14 15  2  0
 15 16  1  0
 15 17  1  0
 17 18  2  0
  6 19  1  0
 19 20  2  0
 20  3  1  0
 18 12  1  0
  1 21  1  0
  1 22  1  0
  1 23  1  0
  4 24  1  0
  5 25  1  0
  8 26  1  0
  9 27  1  0
  9 28  1  0
 13 29  1  0
 14 30  1  0
 17 31  1  0
 18 32  1  0
 19 33  1  0
 20 34  1  0
M  END
$$$$
