
     RDKit          3D

 61 66  0  0  0  0  0  0  0  0999 V2000
   10.2287   -1.2633    0.6365 F   0  0  0  0  0  0  0  0  0  0  0  0
    9.0094   -0.7428    0.8276 C   0  0  0  0  0  0  0  0  0  0  0  0
    8.3210   -0.1991   -0.2504 C   0  0  0  0  0  0  0  0  0  0  0  0
    7.0500    0.3421   -0.0536 C   0  0  0  0  0  0  0  0  0  0  0  0
    6.4707    0.3416    1.2247 C   0  0  0  0  0  0  0  0  0  0  0  0
    5.0852    0.9078    1.4361 C   0  0  0  0  0  0  0  0  0  0  0  0
    3.9996   -0.1573    1.2061 C   0  0  0  0  0  0  0  0  0  0  0  0
    2.6451    0.3598    1.4596 N   0  0  0  0  0  0  0  0  0  0  0  0
    2.1442    1.2413    0.3775 C   0  0  0  0  0  0  0  0  0  0  0  0
    1.1649    0.5795   -0.6189 C   0  0  0  0  0  0  0  0  0  0  0  0
   -0.0143   -0.0160    0.0547 N   0  0  0  0  0  0  0  0  0  0  0  0
   -1.2397    0.5453   -0.1933 C   0  0  0  0  0  0  0  0  0  0  0  0
   -1.5981    1.8795   -0.1518 C   0  0  0  0  0  0  0  0  0  0  0  0
   -2.9926    1.9645   -0.3389 C   0  0  0  0  0  0  0  0  0  0  0  0
   -3.4669    0.6826   -0.5395 C   0  0  0  0  0  0  0  0  0  0  0  0
   -4.8040    0.1692   -0.7485 C   0  0  0  0  0  0  0  0  0  0  0  0
   -5.9688    1.0872   -0.8098 C   0  0  0  0  0  0  0  0  0  0  0  0
   -7.0823    0.8185   -0.0062 C   0  0  0  0  0  0  0  0  0  0  0  0
   -8.1951    1.6588   -0.0572 C   0  0  0  0  0  0  0  0  0  0  0  0
   -8.2012    2.7562   -0.9192 C   0  0  0  0  0  0  0  0  0  0  0  0
   -7.1002    3.0117   -1.7381 C   0  0  0  0  0  0  0  0  0  0  0  0
   -5.9841    2.1747   -1.6900 C   0  0  0  0  0  0  0  0  0  0  0  0
   -5.0193   -1.1071   -0.8665 N   0  0  0  0  0  0  0  0  0  0  0  0
   -3.9240   -1.9924   -0.8594 C   0  0  0  0  0  0  0  0  0  0  0  0
   -4.1915   -3.3507   -1.0562 C   0  0  0  0  0  0  0  0  0  0  0  0
   -3.1561   -4.2848   -1.0989 C   0  0  0  0  0  0  0  0  0  0  0  0
   -1.8367   -3.8631   -0.9541 C   0  0  0  0  0  0  0  0  0  0  0  0
   -1.5496   -2.5107   -0.7545 C   0  0  0  0  0  0  0  0  0  0  0  0
   -2.5907   -1.5792   -0.6908 C   0  0  0  0  0  0  0  0  0  0  0  0
   -2.3900   -0.1909   -0.4803 N   0  0  0  0  0  0  0  0  0  0  0  0
    0.2270   -0.3740    1.4787 C   0  0  0  0  0  0  0  0  0  0  0  0
    1.7035   -0.7603    1.7022 C   0  0  0  0  0  0  0  0  0  0  0  0
    7.1800   -0.2161    2.2995 C   0  0  0  0  0  0  0  0  0  0  0  0
    8.4509   -0.7565    2.0998 C   0  0  0  0  0  0  0  0  0  0  0  0
    8.7778   -0.2007   -1.2347 H   0  0  0  0  0  0  0  0  0  0  0  0
    6.5150    0.7654   -0.9008 H   0  0  0  0  0  0  0  0  0  0  0  0
    4.9514    1.7674    0.7694 H   0  0  0  0  0  0  0  0  0  0  0  0
    5.0091    1.3059    2.4563 H   0  0  0  0  0  0  0  0  0  0  0  0
    4.0721   -0.5765    0.1937 H   0  0  0  0  0  0  0  0  0  0  0  0
    4.2022   -0.9857    1.8989 H   0  0  0  0  0  0  0  0  0  0  0  0
    1.6241    2.0768    0.8641 H   0  0  0  0  0  0  0  0  0  0  0  0
    2.9658    1.6952   -0.1877 H   0  0  0  0  0  0  0  0  0  0  0  0
    0.8681    1.3109   -1.3811 H   0  0  0  0  0  0  0  0  0  0  0  0
    1.6853   -0.2246   -1.1542 H   0  0  0  0  0  0  0  0  0  0  0  0
   -0.9279    2.7021    0.0574 H   0  0  0  0  0  0  0  0  0  0  0  0
   -3.5830    2.8708   -0.3066 H   0  0  0  0  0  0  0  0  0  0  0  0
   -7.0821   -0.0434    0.6571 H   0  0  0  0  0  0  0  0  0  0  0  0
   -9.0589    1.4538    0.5700 H   0  0  0  0  0  0  0  0  0  0  0  0
   -9.0712    3.4072   -0.9610 H   0  0  0  0  0  0  0  0  0  0  0  0
   -7.1165    3.8575   -2.4210 H   0  0  0  0  0  0  0  0  0  0  0  0
   -5.1428    2.3643   -2.3513 H   0  0  0  0  0  0  0  0  0  0  0  0
   -5.2205   -3.6761   -1.1860 H   0  0  0  0  0  0  0  0  0  0  0  0
   -3.3805   -5.3361   -1.2569 H   0  0  0  0  0  0  0  0  0  0  0  0
   -1.0267   -4.5864   -1.0035 H   0  0  0  0  0  0  0  0  0  0  0  0
   -0.5101   -2.2169   -0.6730 H   0  0  0  0  0  0  0  0  0  0  0  0
   -0.0352    0.4656    2.1367 H   0  0  0  0  0  0  0  0  0  0  0  0
   -0.4107   -1.2215    1.7555 H   0  0  0  0  0  0  0  0  0  0  0  0
    1.9372   -1.6079    1.0429 H   0  0  0  0  0  0  0  0  0  0  0  0
    1.8308   -1.1043    2.7352 H   0  0  0  0  0  0  0  0  0  0  0  0
    6.7454   -0.2313    3.2969 H   0  0  0  0  0  0  0  0  0  0  0  0
    9.0066   -1.1874    2.9263 H   0  0  0  0  0  0  0  0  0  0  0  0
  1  2  1  0
  2  3  2  0
  3  4  1  0
  4  5  2  0
  5  6  1  0
  6  7  1  0
  7  8  1  0
  8  9  1  0
  9 10  1  0
 10 11  1  0
 11 12  1  0
 12 13  2  0
 13 14  1  0
 14 15  2  0
 15 16  1  0
 16 17  1  0
 17 18  2  0
 18 19  1  0
 19 20  2  0
 20 21  1  0
 21 22  2  0
 16 23  2  0
 23 24  1  0
 24 25  2  0
 25 26  1  0
 26 27  2  0
 27 28  1  0
 28 29  2  0
 29 30  1  0
 11 31  1  0
 31 32  1  0
  5 33  1  0
 33 34  2  0
 34  2  1  0
 32  8  1  0
 30 12  1  0
 30 15  1  0
 22 17  1  0
 29 24  1  0
  3 35  1  0
  4 36  1  0
  6 37  1  0
  6 38  1  0
  7 39  1  0
  7 40  1  0
  9 41  1  0
  9 42  1  0
 10 43  1  0
 10 44  1  0
 13 45  1  0
 14 46  1  0
 18 47  1  0
 19 48  1  0
 20 49  1  0
 21 50  1  0
 22 51  1  0
 25 52  1  0
 26 53  1  0
 27 54  1  0
 28 55  1  0
 31 56  1  0
 31 57  1  0
 32 58  1  0
 32 59  1  0
 33 60  1  0
 34 61  1  0
M  END
$$$$
