
     RDKit          3D

 53 55  0  0  0  0  0  0  0  0999 V2000
   -7.0441   -3.1106    3.9560 C   0  0  0  0  0  0  0  0  0  0  0  0
   -6.8989   -2.9124    2.5540 O   0  0  0  0  0  0  0  0  0  0  0  0
   -5.8360   -2.1582    2.1404 C   0  0  0  0  0  0  0  0  0  0  0  0
   -4.8711   -1.5745    2.9631 C   0  0  0  0  0  0  0  0  0  0  0  0
   -3.8276   -0.8271    2.4048 C   0  0  0  0  0  0  0  0  0  0  0  0
   -3.7408   -0.6817    1.0182 C   0  0  0  0  0  0  0  0  0  0  0  0
   -2.4265    0.2865    0.3018 S   0  0  0  0  0  6  0  0  0  0  0  0
   -1.9329    1.1768    1.3307 O   0  0  0  0  0  0  0  0  0  0  0  0
   -2.9062    0.7943   -0.9657 O   0  0  0  0  0  0  0  0  0  0  0  0
   -1.2218   -0.8324   -0.0206 N   0  0  0  0  0  0  0  0  0  0  0  0
   -1.4465   -1.9060   -0.9951 C   0  0  0  0  0  0  0  0  0  0  0  0
   -1.2254   -3.1578   -0.1744 C   0  0  0  0  0  0  0  0  0  0  0  0
   -0.2177   -2.7812    0.7701 O   0  0  0  0  0  0  0  0  0  0  0  0
   -0.4926   -1.4116    1.1232 C   0  0  0  0  0  0  0  0  0  0  0  0
    0.8302   -0.6621    1.3728 C   0  0  0  0  0  0  0  0  0  0  0  0
    1.6034   -0.4640    0.1560 N   0  0  0  0  0  0  0  0  0  0  0  0
    2.9243   -0.0916    0.1798 C   0  0  0  0  0  0  0  0  0  0  0  0
    3.6370   -0.0205    1.1705 O   0  0  0  0  0  0  0  0  0  0  0  0
    3.4938    0.2683   -1.2122 C   0  0  0  0  0  0  0  0  0  0  0  0
    2.7899    0.1818   -2.2085 O   0  0  0  0  0  0  0  0  0  0  0  0
    4.8053    0.6766   -1.1745 N   0  0  0  0  0  0  0  0  0  0  0  0
    5.4946    1.1730   -2.3351 C   0  0  0  0  0  0  0  0  0  0  0  0
    5.3429    2.6672   -2.4632 C   0  0  0  0  0  0  0  0  0  0  0  0
    4.2576    3.2081   -3.1728 C   0  0  0  0  0  0  0  0  0  0  0  0
    4.1029    4.5905   -3.2833 C   0  0  0  0  0  0  0  0  0  0  0  0
    5.0273    5.4327   -2.6784 C   0  0  0  0  0  0  0  0  0  0  0  0
    4.8808    6.7602   -2.7852 F   0  0  0  0  0  0  0  0  0  0  0  0
    6.1007    4.9191   -1.9601 C   0  0  0  0  0  0  0  0  0  0  0  0
    6.2584    3.5361   -1.8484 C   0  0  0  0  0  0  0  0  0  0  0  0
   -4.7212   -1.2311    0.1924 C   0  0  0  0  0  0  0  0  0  0  0  0
   -5.7577   -1.9762    0.7575 C   0  0  0  0  0  0  0  0  0  0  0  0
   -7.2010   -2.1577    4.4764 H   0  0  0  0  0  0  0  0  0  0  0  0
   -7.9341   -3.7279    4.1157 H   0  0  0  0  0  0  0  0  0  0  0  0
   -6.1842   -3.6513    4.3704 H   0  0  0  0  0  0  0  0  0  0  0  0
   -4.9068   -1.6749    4.0424 H   0  0  0  0  0  0  0  0  0  0  0  0
   -3.0980   -0.3598    3.0601 H   0  0  0  0  0  0  0  0  0  0  0  0
   -2.4249   -1.8942   -1.4782 H   0  0  0  0  0  0  0  0  0  0  0  0
   -0.6829   -1.8147   -1.7754 H   0  0  0  0  0  0  0  0  0  0  0  0
   -0.8845   -4.0063   -0.7735 H   0  0  0  0  0  0  0  0  0  0  0  0
   -2.1264   -3.4478    0.3770 H   0  0  0  0  0  0  0  0  0  0  0  0
   -1.0886   -1.4339    2.0387 H   0  0  0  0  0  0  0  0  0  0  0  0
    0.6371    0.3324    1.7879 H   0  0  0  0  0  0  0  0  0  0  0  0
    1.4515   -1.2157    2.0849 H   0  0  0  0  0  0  0  0  0  0  0  0
    1.0980   -0.2987   -0.7124 H   0  0  0  0  0  0  0  0  0  0  0  0
    5.2149    0.7844   -0.2534 H   0  0  0  0  0  0  0  0  0  0  0  0
    5.1204    0.6732   -3.2365 H   0  0  0  0  0  0  0  0  0  0  0  0
    6.5520    0.9062   -2.2319 H   0  0  0  0  0  0  0  0  0  0  0  0
    3.5240    2.5502   -3.6370 H   0  0  0  0  0  0  0  0  0  0  0  0
    3.2669    5.0118   -3.8324 H   0  0  0  0  0  0  0  0  0  0  0  0
    6.8047    5.5988   -1.4906 H   0  0  0  0  0  0  0  0  0  0  0  0
    7.0976    3.1422   -1.2795 H   0  0  0  0  0  0  0  0  0  0  0  0
   -4.6967   -1.0789   -0.8830 H   0  0  0  0  0  0  0  0  0  0  0  0
   -6.5211   -2.4114    0.1165 H   0  0  0  0  0  0  0  0  0  0  0  0
  1  2  1  0
  2  3  1  0
  3  4  2  0
  4  5  1  0
  5  6  2  0
  6  7  1  0
  7  8  2  0
  7  9  2  0
  7 10  1  0
 10 11  1  0
 11 12  1  0
 12 13  1  0
 13 14  1  0
 14 15  1  0
 15 16  1  0
 16 17  1  0
 17 18  2  0
 17 19  1  0
 19 20  2  0
 19 21  1  0
 21 22  1  0
 22 23  1  0
 23 24  2  0
 24 25  1  0
 25 26  2  0
 26 27  1  0
 26 28  1  0
 28 29  2  0
  6 30  1  0
 30 31  2  0
 31  3  1  0
 14 10  1  0
 29 23  1  0
  1 32  1  0
  1 33  1  0
  1 34  1  0
  4 35  1  0
  5 36  1  0
 11 37  1  0
 11 38  1  0
 12 39  1  0
 12 40  1  0
 14 41  1  0
 15 42  1  0
 15 43  1  0
 16 44  1  0
 21 45  1  0
 22 46  1  0
 22 47  1  0
 24 48  1  0
 25 49  1  0
 28 50  1  0
 29 51  1  0
 30 52  1  0
 31 53  1  0
M  END
$$$$
