
     RDKit          3D

 59 62  0  0  0  0  0  0  0  0999 V2000
   -8.4238    1.9914   -2.3766 C   0  0  0  0  0  0  0  0  0  0  0  0
   -7.2155    1.4709   -2.9152 O   0  0  0  0  0  0  0  0  0  0  0  0
   -6.1518    1.3726   -2.0611 C   0  0  0  0  0  0  0  0  0  0  0  0
   -5.0198    0.7611   -2.6056 C   0  0  0  0  0  0  0  0  0  0  0  0
   -3.8598    0.5954   -1.8444 C   0  0  0  0  0  0  0  0  0  0  0  0
   -3.8246    1.0444   -0.5230 C   0  0  0  0  0  0  0  0  0  0  0  0
   -2.6247    0.8824    0.2802 C   0  0  0  0  0  0  0  0  0  0  0  0
   -1.5424    1.7270    0.4308 C   0  0  0  0  0  0  0  0  0  0  0  0
   -0.6338    1.2220    1.3244 N   0  0  0  0  0  0  0  0  0  0  0  0
   -1.1538    0.0853    1.7322 C   0  0  0  0  0  0  0  0  0  0  0  0
   -0.4364   -0.9338    2.9354 S   0  0  0  0  0  0  0  0  0  0  0  0
    0.8386    0.1624    3.6266 C   0  0  0  0  0  0  0  0  0  0  0  0
    2.1385    0.0795    2.8427 C   0  0  0  0  0  0  0  0  0  0  0  0
    3.1348   -0.4214    3.3603 O   0  0  0  0  0  0  0  0  0  0  0  0
    2.0540    0.6385    1.5862 N   0  0  0  0  0  0  0  0  0  0  0  0
    3.0939    0.6386    0.7040 C   0  0  0  0  0  0  0  0  0  0  0  0
    4.3389    0.2901    0.8824 N   0  0  0  0  0  0  0  0  0  0  0  0
    5.0617    0.4482   -0.2940 C   0  0  0  0  0  0  0  0  0  0  0  0
    6.5403    0.0936   -0.2760 C   0  0  0  0  0  0  0  0  0  0  0  0
    7.2050    0.6292    1.0087 C   0  0  0  0  0  0  0  0  0  0  0  0
    6.6984   -1.4371   -0.3152 C   0  0  0  0  0  0  0  0  0  0  0  0
    7.2952    0.6970   -1.4786 C   0  0  0  0  0  0  0  0  0  0  0  0
    4.2980    0.8876   -1.3633 C   0  0  0  0  0  0  0  0  0  0  0  0
    2.6788    1.1584   -0.8653 S   0  0  0  0  0  0  0  0  0  0  0  0
   -2.3285   -0.2070    1.0823 N   0  0  0  0  0  0  0  0  0  0  0  0
   -3.1266   -1.4180    1.2168 C   0  0  0  0  0  0  0  0  0  0  0  0
   -2.5327   -2.5310    0.4327 C   0  0  0  0  0  0  0  0  0  0  0  0
   -1.8962   -3.7038    0.7848 C   0  0  0  0  0  0  0  0  0  0  0  0
   -1.5296   -4.3395   -0.4243 C   0  0  0  0  0  0  0  0  0  0  0  0
   -1.9774   -3.5252   -1.4364 C   0  0  0  0  0  0  0  0  0  0  0  0
   -2.5970   -2.4304   -0.9272 O   0  0  0  0  0  0  0  0  0  0  0  0
   -4.9533    1.6653    0.0219 C   0  0  0  0  0  0  0  0  0  0  0  0
   -6.1131    1.8295   -0.7430 C   0  0  0  0  0  0  0  0  0  0  0  0
   -8.7897    1.3681   -1.5541 H   0  0  0  0  0  0  0  0  0  0  0  0
   -8.2987    3.0326   -2.0599 H   0  0  0  0  0  0  0  0  0  0  0  0
   -9.1782    1.9744   -3.1697 H   0  0  0  0  0  0  0  0  0  0  0  0
   -5.0405    0.4076   -3.6336 H   0  0  0  0  0  0  0  0  0  0  0  0
   -2.9925    0.1101   -2.2862 H   0  0  0  0  0  0  0  0  0  0  0  0
   -1.3845    2.6817   -0.0561 H   0  0  0  0  0  0  0  0  0  0  0  0
    1.0426   -0.1722    4.6503 H   0  0  0  0  0  0  0  0  0  0  0  0
    0.5003    1.2018    3.6939 H   0  0  0  0  0  0  0  0  0  0  0  0
    1.1529    0.9559    1.2383 H   0  0  0  0  0  0  0  0  0  0  0  0
    8.2742    0.3971    1.0271 H   0  0  0  0  0  0  0  0  0  0  0  0
    7.0954    1.7180    1.0835 H   0  0  0  0  0  0  0  0  0  0  0  0
    6.7602    0.1912    1.9090 H   0  0  0  0  0  0  0  0  0  0  0  0
    6.2467   -1.8581   -1.2200 H   0  0  0  0  0  0  0  0  0  0  0  0
    6.2104   -1.9113    0.5442 H   0  0  0  0  0  0  0  0  0  0  0  0
    7.7551   -1.7273   -0.3019 H   0  0  0  0  0  0  0  0  0  0  0  0
    7.1705    1.7852   -1.5226 H   0  0  0  0  0  0  0  0  0  0  0  0
    8.3702    0.4899   -1.4154 H   0  0  0  0  0  0  0  0  0  0  0  0
    6.9404    0.2813   -2.4286 H   0  0  0  0  0  0  0  0  0  0  0  0
    4.6012    1.0711   -2.3841 H   0  0  0  0  0  0  0  0  0  0  0  0
   -4.1472   -1.2143    0.8755 H   0  0  0  0  0  0  0  0  0  0  0  0
   -3.1941   -1.6637    2.2830 H   0  0  0  0  0  0  0  0  0  0  0  0
   -1.7014   -4.0481    1.7911 H   0  0  0  0  0  0  0  0  0  0  0  0
   -0.9986   -5.2724   -0.5447 H   0  0  0  0  0  0  0  0  0  0  0  0
   -1.9320   -3.5764   -2.5145 H   0  0  0  0  0  0  0  0  0  0  0  0
   -4.9356    2.0322    1.0456 H   0  0  0  0  0  0  0  0  0  0  0  0
   -6.9623    2.3225   -0.2832 H   0  0  0  0  0  0  0  0  0  0  0  0
  1  2  1  0
  2  3  1  0
  3  4  2  0
  4  5  1  0
  5  6  2  0
  6  7  1  0
  7  8  2  0
  8  9  1  0
  9 10  2  0
 10 11  1  0
 11 12  1  0
 12 13  1  0
 13 14  2  0
 13 15  1  0
 15 16  1  0
 16 17  2  0
 17 18  1  0
 18 19  1  0
 19 20  1  0
 19 21  1  0
 19 22  1  0
 18 23  2  0
 23 24  1  0
 10 25  1  0
 25 26  1  0
 26 27  1  0
 27 28  2  0
 28 29  1  0
 29 30  2  0
 30 31  1  0
  6 32  1  0
 32 33  2  0
 33  3  1  0
 25  7  1  0
 31 27  1  0
 24 16  1  0
  1 34  1  0
  1 35  1  0
  1 36  1  0
  4 37  1  0
  5 38  1  0
  8 39  1  0
 12 40  1  0
 12 41  1  0
 15 42  1  0
 20 43  1  0
 20 44  1  0
 20 45  1  0
 21 46  1  0
 21 47  1  0
 21 48  1  0
 22 49  1  0
 22 50  1  0
 22 51  1  0
 23 52  1  0
 26 53  1  0
 26 54  1  0
 28 55  1  0
 29 56  1  0
 30 57  1  0
 32 58  1  0
 33 59  1  0
M  END
$$$$
