
     RDKit          3D

 49 50  0  0  0  0  0  0  0  0999 V2000
    5.5920   -2.5879   -1.8642 C   0  0  0  0  0  0  0  0  0  0  0  0
    4.9187   -1.3457   -2.4181 C   0  0  0  0  0  0  0  0  0  0  0  0
    4.0177   -0.7968   -1.4471 O   0  0  0  0  0  0  0  0  0  0  0  0
    2.7614   -1.3311   -1.4309 C   0  0  0  0  0  0  0  0  0  0  0  0
    2.4016   -2.2267   -2.1883 O   0  0  0  0  0  0  0  0  0  0  0  0
    1.9093   -0.7537   -0.3791 C   0  0  0  0  0  0  0  0  0  0  0  0
    2.1414    0.4093    0.4307 C   0  0  0  0  0  0  0  0  0  0  0  0
    3.3157    1.3270    0.3458 C   0  0  0  0  0  0  0  0  0  0  0  0
    1.0796    0.5190    1.3189 C   0  0  0  0  0  0  0  0  0  0  0  0
    0.8779    1.5266    2.4013 C   0  0  0  0  0  0  0  0  0  0  0  0
    0.1655   -0.4819    1.0267 N   0  0  0  0  0  0  0  0  0  0  0  0
   -1.0865   -0.7077    1.7596 C   0  0  0  0  0  0  0  0  0  0  0  0
   -2.1576    0.3222    1.4775 C   0  0  0  0  0  0  0  0  0  0  0  0
   -2.5311    1.2235    2.4932 C   0  0  0  0  0  0  0  0  0  0  0  0
   -3.5186    2.1836    2.2757 C   0  0  0  0  0  0  0  0  0  0  0  0
   -4.1384    2.2700    1.0335 C   0  0  0  0  0  0  0  0  0  0  0  0
   -3.7778    1.3877    0.0129 C   0  0  0  0  0  0  0  0  0  0  0  0
   -4.4046    1.5018   -1.2013 O   0  0  0  0  0  0  0  0  0  0  0  0
   -3.8763    2.6181   -1.9278 C   0  0  0  0  0  0  0  0  0  0  0  0
   -2.8311    0.3761    0.2425 C   0  0  0  0  0  0  0  0  0  0  0  0
   -2.4729   -0.5639   -0.6882 O   0  0  0  0  0  0  0  0  0  0  0  0
   -3.5585   -1.1517   -1.4006 C   0  0  0  0  0  0  0  0  0  0  0  0
    0.6816   -1.2857    0.0229 C   0  0  0  0  0  0  0  0  0  0  0  0
    0.0102   -2.5073   -0.5215 C   0  0  0  0  0  0  0  0  0  0  0  0
    6.1188   -2.3537   -0.9328 H   0  0  0  0  0  0  0  0  0  0  0  0
    6.3081   -2.9979   -2.5824 H   0  0  0  0  0  0  0  0  0  0  0  0
    4.8543   -3.3613   -1.6265 H   0  0  0  0  0  0  0  0  0  0  0  0
    4.4074   -1.5525   -3.3654 H   0  0  0  0  0  0  0  0  0  0  0  0
    5.6734   -0.5799   -2.6237 H   0  0  0  0  0  0  0  0  0  0  0  0
    4.2030    0.8465    0.7678 H   0  0  0  0  0  0  0  0  0  0  0  0
    3.5211    1.6017   -0.6955 H   0  0  0  0  0  0  0  0  0  0  0  0
    3.1462    2.2582    0.8904 H   0  0  0  0  0  0  0  0  0  0  0  0
    0.4289    1.0836    3.2941 H   0  0  0  0  0  0  0  0  0  0  0  0
    1.8314    1.9568    2.7216 H   0  0  0  0  0  0  0  0  0  0  0  0
    0.2430    2.3433    2.0469 H   0  0  0  0  0  0  0  0  0  0  0  0
   -1.4735   -1.7061    1.5514 H   0  0  0  0  0  0  0  0  0  0  0  0
   -0.8215   -0.7241    2.8229 H   0  0  0  0  0  0  0  0  0  0  0  0
   -2.0552    1.1787    3.4711 H   0  0  0  0  0  0  0  0  0  0  0  0
   -3.8017    2.8645    3.0743 H   0  0  0  0  0  0  0  0  0  0  0  0
   -4.9068    3.0185    0.8624 H   0  0  0  0  0  0  0  0  0  0  0  0
   -2.7747    2.6243   -1.9292 H   0  0  0  0  0  0  0  0  0  0  0  0
   -4.2668    3.5626   -1.5249 H   0  0  0  0  0  0  0  0  0  0  0  0
   -4.2170    2.5258   -2.9662 H   0  0  0  0  0  0  0  0  0  0  0  0
   -4.4755   -1.2148   -0.8051 H   0  0  0  0  0  0  0  0  0  0  0  0
   -3.2673   -2.1746   -1.6615 H   0  0  0  0  0  0  0  0  0  0  0  0
   -3.7301   -0.6119   -2.3360 H   0  0  0  0  0  0  0  0  0  0  0  0
   -0.8693   -2.8286    0.0362 H   0  0  0  0  0  0  0  0  0  0  0  0
   -0.3027   -2.3317   -1.5554 H   0  0  0  0  0  0  0  0  0  0  0  0
    0.7072   -3.3520   -0.5120 H   0  0  0  0  0  0  0  0  0  0  0  0
  1  2  1  0
  2  3  1  0
  3  4  1  0
  4  5  2  0
  4  6  1  0
  6  7  1  0
  7  8  1  0
  7  9  2  0
  9 10  1  0
  9 11  1  0
 11 12  1  0
 12 13  1  0
 13 14  2  0
 14 15  1  0
 15 16  2  0
 16 17  1  0
 17 18  1  0
 18 19  1  0
 17 20  2  0
 20 21  1  0
 21 22  1  0
 11 23  1  0
 23 24  1  0
 23  6  2  0
 20 13  1  0
  1 25  1  0
  1 26  1  0
  1 27  1  0
  2 28  1  0
  2 29  1  0
  8 30  1  0
  8 31  1  0
  8 32  1  0
 10 33  1  0
 10 34  1  0
 10 35  1  0
 12 36  1  0
 12 37  1  0
 14 38  1  0
 15 39  1  0
 16 40  1  0
 19 41  1  0
 19 42  1  0
 19 43  1  0
 22 44  1  0
 22 45  1  0
 22 46  1  0
 24 47  1  0
 24 48  1  0
 24 49  1  0
M  END
$$$$
