
     RDKit          3D

 22 22  0  0  0  0  0  0  0  0999 V2000
    3.3238   -0.3640   -1.2275 N   0  0  0  0  0  0  0  0  0  0  0  0
    2.5067   -1.3264   -1.4501 C   0  0  0  0  0  0  0  0  0  0  0  0
    2.8457   -2.4756   -2.0732 N   0  0  0  0  0  0  0  0  0  0  0  0
    0.8376   -1.2217   -0.9792 S   0  0  0  0  0  0  0  0  0  0  0  0
    0.8544    0.3334   -0.0498 C   0  0  0  0  0  0  0  0  0  0  0  0
   -0.5117    0.5956    0.5146 C   0  0  0  0  0  0  0  0  0  0  0  0
   -1.3639    1.5287    0.0572 C   0  0  0  0  0  0  0  0  0  0  0  0
   -2.6752    1.6698    0.7630 C   0  0  0  0  0  0  0  0  0  0  0  0
   -2.5779    0.4796    2.0948 S   0  0  0  0  0  6  0  0  0  0  0  0
   -3.5831   -0.5446    1.8798 O   0  0  0  0  0  0  0  0  0  0  0  0
   -2.4919    1.1984    3.3529 O   0  0  0  0  0  0  0  0  0  0  0  0
   -0.9658   -0.1979    1.7101 C   0  0  0  0  0  0  0  0  0  0  0  0
    4.2525   -0.6377   -1.5559 H   0  0  0  0  0  0  0  0  0  0  0  0
    2.0481   -2.9955   -2.4239 H   0  0  0  0  0  0  0  0  0  0  0  0
    3.6035   -2.4145   -2.7395 H   0  0  0  0  0  0  0  0  0  0  0  0
    1.5840    0.2851    0.7658 H   0  0  0  0  0  0  0  0  0  0  0  0
    1.1508    1.1487   -0.7191 H   0  0  0  0  0  0  0  0  0  0  0  0
   -1.1356    2.1660   -0.7905 H   0  0  0  0  0  0  0  0  0  0  0  0
   -2.7997    2.6689    1.1853 H   0  0  0  0  0  0  0  0  0  0  0  0
   -3.5117    1.4119    0.1104 H   0  0  0  0  0  0  0  0  0  0  0  0
   -1.0816   -1.2602    1.4849 H   0  0  0  0  0  0  0  0  0  0  0  0
   -0.3091   -0.0480    2.5702 H   0  0  0  0  0  0  0  0  0  0  0  0
  1  2  2  3
  2  3  1  0
  2  4  1  0
  4  5  1  0
  5  6  1  0
  6  7  2  0
  7  8  1  0
  8  9  1  0
  9 10  2  0
  9 11  2  0
  9 12  1  0
 12  6  1  0
  1 13  1  0
  3 14  1  0
  3 15  1  0
  5 16  1  0
  5 17  1  0
  7 18  1  0
  8 19  1  0
  8 20  1  0
 12 21  1  0
 12 22  1  0
M  END
$$$$
