
     RDKit          3D

 60 62  0  0  0  0  0  0  0  0999 V2000
   -7.7895   -3.7778    0.4208 C   0  0  0  0  0  0  0  0  0  0  0  0
   -6.4922   -4.3319   -0.1480 C   0  0  0  0  0  0  0  0  0  0  0  0
   -5.3832   -3.3125   -0.1325 C   0  0  0  0  0  0  0  0  0  0  0  0
   -5.1105   -2.5407   -1.2673 C   0  0  0  0  0  0  0  0  0  0  0  0
   -4.0747   -1.6015   -1.2522 C   0  0  0  0  0  0  0  0  0  0  0  0
   -3.2976   -1.4102   -0.1035 C   0  0  0  0  0  0  0  0  0  0  0  0
   -2.2778   -0.4448   -0.1743 N   0  0  0  0  0  0  0  0  0  0  0  0
   -1.3209   -0.1368    0.7749 C   0  0  0  0  0  0  0  0  0  0  0  0
   -1.1957   -0.6551    1.8824 O   0  0  0  0  0  0  0  0  0  0  0  0
   -0.4194    1.0402    0.3576 C   0  0  0  0  0  0  0  0  0  0  0  0
   -0.3313    1.1905   -1.1216 N   0  0  0  0  0  0  0  0  0  0  0  0
    0.6672    0.1588   -2.0004 S   0  0  0  0  0  6  0  0  0  0  0  0
    0.6260    0.6443   -3.3606 O   0  0  0  0  0  0  0  0  0  0  0  0
    0.3081   -1.1968   -1.6633 O   0  0  0  0  0  0  0  0  0  0  0  0
    2.2833    0.4971   -1.3521 C   0  0  0  0  0  0  0  0  0  0  0  0
    2.9678    1.6453   -1.7814 C   0  0  0  0  0  0  0  0  0  0  0  0
    4.2559    1.9240   -1.3012 C   0  0  0  0  0  0  0  0  0  0  0  0
    4.8459    1.0454   -0.4051 C   0  0  0  0  0  0  0  0  0  0  0  0
    4.1490   -0.0988    0.0066 C   0  0  0  0  0  0  0  0  0  0  0  0
    2.8758   -0.3979   -0.4615 C   0  0  0  0  0  0  0  0  0  0  0  0
    4.9619   -0.9344    0.9446 C   0  0  0  0  0  0  0  0  0  0  0  0
    6.1847   -0.0472    1.1707 C   0  0  0  0  0  0  0  0  0  0  0  0
    6.1026    1.0795    0.2285 N   0  0  0  0  0  0  0  0  0  0  0  0
    7.1656    1.9544    0.1499 C   0  0  0  0  0  0  0  0  0  0  0  0
    7.1288    3.0850   -0.8380 C   0  0  0  0  0  0  0  0  0  0  0  0
    8.1597    1.8218    0.8739 O   0  0  0  0  0  0  0  0  0  0  0  0
   -0.8960    2.3881    0.9586 C   0  0  0  0  0  0  0  0  0  0  0  0
   -0.7076    2.4311    2.4783 C   0  0  0  0  0  0  0  0  0  0  0  0
   -2.3417    2.7483    0.6025 C   0  0  0  0  0  0  0  0  0  0  0  0
   -3.5787   -2.1676    1.0336 C   0  0  0  0  0  0  0  0  0  0  0  0
   -4.6119   -3.1132    1.0189 C   0  0  0  0  0  0  0  0  0  0  0  0
   -8.1278   -2.8979   -0.1397 H   0  0  0  0  0  0  0  0  0  0  0  0
   -7.6702   -3.4807    1.4686 H   0  0  0  0  0  0  0  0  0  0  0  0
   -8.5761   -4.5379    0.3706 H   0  0  0  0  0  0  0  0  0  0  0  0
   -6.1828   -5.2215    0.4167 H   0  0  0  0  0  0  0  0  0  0  0  0
   -6.6609   -4.6773   -1.1757 H   0  0  0  0  0  0  0  0  0  0  0  0
   -5.6920   -2.6752   -2.1759 H   0  0  0  0  0  0  0  0  0  0  0  0
   -3.8825   -1.0272   -2.1555 H   0  0  0  0  0  0  0  0  0  0  0  0
   -2.1437    0.0139   -1.0703 H   0  0  0  0  0  0  0  0  0  0  0  0
    0.5828    0.8329    0.7471 H   0  0  0  0  0  0  0  0  0  0  0  0
   -0.3501    2.1347   -1.5073 H   0  0  0  0  0  0  0  0  0  0  0  0
    2.5094    2.3236   -2.4989 H   0  0  0  0  0  0  0  0  0  0  0  0
    4.7409    2.8231   -1.6547 H   0  0  0  0  0  0  0  0  0  0  0  0
    2.3653   -1.3030   -0.1422 H   0  0  0  0  0  0  0  0  0  0  0  0
    5.2432   -1.8790    0.4677 H   0  0  0  0  0  0  0  0  0  0  0  0
    4.4335   -1.1357    1.8812 H   0  0  0  0  0  0  0  0  0  0  0  0
    6.1965    0.3601    2.1892 H   0  0  0  0  0  0  0  0  0  0  0  0
    7.1203   -0.5981    1.0180 H   0  0  0  0  0  0  0  0  0  0  0  0
    6.3771    3.8205   -0.5416 H   0  0  0  0  0  0  0  0  0  0  0  0
    6.9550    2.7070   -1.8482 H   0  0  0  0  0  0  0  0  0  0  0  0
    8.1020    3.5869   -0.8431 H   0  0  0  0  0  0  0  0  0  0  0  0
   -0.2553    3.1783    0.5423 H   0  0  0  0  0  0  0  0  0  0  0  0
   -0.9008    3.4407    2.8594 H   0  0  0  0  0  0  0  0  0  0  0  0
   -1.3916    1.7479    2.9927 H   0  0  0  0  0  0  0  0  0  0  0  0
    0.3180    2.1630    2.7549 H   0  0  0  0  0  0  0  0  0  0  0  0
   -2.5826    3.7552    0.9621 H   0  0  0  0  0  0  0  0  0  0  0  0
   -2.5018    2.7395   -0.4798 H   0  0  0  0  0  0  0  0  0  0  0  0
   -3.0559    2.0566    1.0617 H   0  0  0  0  0  0  0  0  0  0  0  0
   -3.0168   -2.0437    1.9529 H   0  0  0  0  0  0  0  0  0  0  0  0
   -4.8066   -3.6936    1.9185 H   0  0  0  0  0  0  0  0  0  0  0  0
  1  2  1  0
  2  3  1  0
  3  4  2  0
  4  5  1  0
  5  6  2  0
  6  7  1  0
  7  8  1  0
  8  9  2  0
  8 10  1  0
 10 11  1  0
 11 12  1  0
 12 13  2  0
 12 14  2  0
 12 15  1  0
 15 16  2  0
 16 17  1  0
 17 18  2  0
 18 19  1  0
 19 20  2  0
 19 21  1  0
 21 22  1  0
 22 23  1  0
 23 24  1  0
 24 25  1  0
 24 26  2  0
 10 27  1  0
 27 28  1  0
 27 29  1  0
  6 30  1  0
 30 31  2  0
 31  3  1  0
 20 15  1  0
 23 18  1  0
  1 32  1  0
  1 33  1  0
  1 34  1  0
  2 35  1  0
  2 36  1  0
  4 37  1  0
  5 38  1  0
  7 39  1  0
 10 40  1  0
 11 41  1  0
 16 42  1  0
 17 43  1  0
 20 44  1  0
 21 45  1  0
 21 46  1  0
 22 47  1  0
 22 48  1  0
 25 49  1  0
 25 50  1  0
 25 51  1  0
 27 52  1  0
 28 53  1  0
 28 54  1  0
 28 55  1  0
 29 56  1  0
 29 57  1  0
 29 58  1  0
 30 59  1  0
 31 60  1  0
M  END
$$$$
