
     RDKit          3D

 31 32  0  0  0  0  0  0  0  0999 V2000
    5.4203   -1.4241    1.1247 C   0  0  0  0  0  0  0  0  0  0  0  0
    4.3029   -0.0787    1.6013 S   0  0  0  0  0  0  0  0  0  0  0  0
    2.8208   -0.5870    0.7466 C   0  0  0  0  0  0  0  0  0  0  0  0
    2.8081   -0.7944   -0.6369 C   0  0  0  0  0  0  0  0  0  0  0  0
    1.6301   -1.1752   -1.2824 C   0  0  0  0  0  0  0  0  0  0  0  0
    0.4578   -1.3465   -0.5480 C   0  0  0  0  0  0  0  0  0  0  0  0
    0.4646   -1.1385    0.8295 C   0  0  0  0  0  0  0  0  0  0  0  0
   -0.7527   -1.2727    1.5643 N   0  0  0  0  0  0  0  0  0  0  0  0
   -1.7024    0.1329    1.6964 S   0  0  0  0  0  6  0  0  0  0  0  0
   -0.8432    1.2511    2.0307 O   0  0  0  0  0  0  0  0  0  0  0  0
   -2.8349   -0.2054    2.5343 O   0  0  0  0  0  0  0  0  0  0  0  0
   -2.4110    0.5515    0.1587 C   0  0  0  0  0  0  0  0  0  0  0  0
   -2.7520    1.8265   -0.2529 C   0  0  0  0  0  0  0  0  0  0  0  0
   -3.2829    1.6648   -1.4986 N   0  0  0  0  0  0  0  0  0  0  0  0
   -3.7948    2.7052   -2.3538 C   0  0  0  0  0  0  0  0  0  0  0  0
   -3.2532    0.3335   -1.8029 C   0  0  0  0  0  0  0  0  0  0  0  0
   -2.7301   -0.3735   -0.8262 N   0  0  0  0  0  0  0  0  0  0  0  0
    1.6374   -0.7438    1.4760 C   0  0  0  0  0  0  0  0  0  0  0  0
    4.9821   -2.3942    1.3749 H   0  0  0  0  0  0  0  0  0  0  0  0
    5.6413   -1.3884    0.0549 H   0  0  0  0  0  0  0  0  0  0  0  0
    6.3604   -1.3168    1.6726 H   0  0  0  0  0  0  0  0  0  0  0  0
    3.7079   -0.6456   -1.2285 H   0  0  0  0  0  0  0  0  0  0  0  0
    1.6234   -1.3326   -2.3579 H   0  0  0  0  0  0  0  0  0  0  0  0
   -0.4560   -1.6482   -1.0541 H   0  0  0  0  0  0  0  0  0  0  0  0
   -0.6316   -1.6504    2.5029 H   0  0  0  0  0  0  0  0  0  0  0  0
   -2.6572    2.7864    0.2366 H   0  0  0  0  0  0  0  0  0  0  0  0
   -3.3265    2.6105   -3.3369 H   0  0  0  0  0  0  0  0  0  0  0  0
   -4.8780    2.5835   -2.4322 H   0  0  0  0  0  0  0  0  0  0  0  0
   -3.5573    3.6815   -1.9237 H   0  0  0  0  0  0  0  0  0  0  0  0
   -3.6237   -0.0635   -2.7396 H   0  0  0  0  0  0  0  0  0  0  0  0
    1.6304   -0.5479    2.5451 H   0  0  0  0  0  0  0  0  0  0  0  0
  1  2  1  0
  2  3  1  0
  3  4  2  0
  4  5  1  0
  5  6  2  0
  6  7  1  0
  7  8  1  0
  8  9  1  0
  9 10  2  0
  9 11  2  0
  9 12  1  0
 12 13  2  0
 13 14  1  0
 14 15  1  0
 14 16  1  0
 16 17  2  0
  7 18  2  0
 18  3  1  0
 17 12  1  0
  1 19  1  0
  1 20  1  0
  1 21  1  0
  4 22  1  0
  5 23  1  0
  6 24  1  0
  8 25  1  0
 13 26  1  0
 15 27  1  0
 15 28  1  0
 15 29  1  0
 16 30  1  0
 18 31  1  0
M  END
$$$$
