
     RDKit          3D

 39 39  0  0  0  0  0  0  0  0999 V2000
   -5.0022    3.1551    1.0801 C   0  0  0  0  0  0  0  0  0  0  0  0
   -3.9656    2.1073    1.3458 C   0  0  0  0  0  0  0  0  0  0  0  0
   -3.9776    1.3456    2.3021 O   0  0  0  0  0  0  0  0  0  0  0  0
   -3.0135    2.1341    0.3726 O   0  0  0  0  0  0  0  0  0  0  0  0
   -1.9791    1.1505    0.5343 C   0  0  0  0  0  0  0  0  0  0  0  0
   -0.9269    1.3963   -0.5450 C   0  0  0  0  0  0  0  0  0  0  0  0
    0.3067    0.4820   -0.4731 C   0  0  0  0  0  0  0  0  0  0  0  0
    1.1477    0.8209    0.6960 N   0  0  0  0  0  0  0  0  0  0  0  0
    2.5459    1.6935    0.3985 S   0  0  0  0  0  6  0  0  0  0  0  0
    2.1726    2.8246   -0.4163 O   0  0  0  0  0  0  0  0  0  0  0  0
    3.1852    1.8655    1.6818 O   0  0  0  0  0  0  0  0  0  0  0  0
    3.4420    0.6872   -0.4990 O   0  0  0  0  0  0  0  0  0  0  0  0
    4.0035   -0.4600    0.1359 C   0  0  0  0  0  0  0  0  0  0  0  0
    4.6328   -1.4168   -0.8851 C   0  0  0  0  0  0  0  0  0  0  0  0
    5.9784   -0.6165   -1.7552 Cl  0  0  0  0  0  0  0  0  0  0  0  0
    5.2828   -2.8546   -0.0340 Cl  0  0  0  0  0  0  0  0  0  0  0  0
    3.4161   -1.9642   -2.0795 Cl  0  0  0  0  0  0  0  0  0  0  0  0
   -0.0532   -0.9953   -0.5116 C   0  0  0  0  0  0  0  0  0  0  0  0
   -0.0844   -1.7900    0.6461 C   0  0  0  0  0  0  0  0  0  0  0  0
   -0.4238   -3.1426    0.5741 C   0  0  0  0  0  0  0  0  0  0  0  0
   -0.7384   -3.7200   -0.6532 C   0  0  0  0  0  0  0  0  0  0  0  0
   -0.7167   -2.9461   -1.8103 C   0  0  0  0  0  0  0  0  0  0  0  0
   -0.3794   -1.5934   -1.7406 C   0  0  0  0  0  0  0  0  0  0  0  0
   -5.4822    2.9658    0.1166 H   0  0  0  0  0  0  0  0  0  0  0  0
   -5.7654    3.1163    1.8626 H   0  0  0  0  0  0  0  0  0  0  0  0
   -4.5399    4.1453    1.0924 H   0  0  0  0  0  0  0  0  0  0  0  0
   -2.4254    0.1563    0.4253 H   0  0  0  0  0  0  0  0  0  0  0  0
   -1.5373    1.2496    1.5316 H   0  0  0  0  0  0  0  0  0  0  0  0
   -1.4118    1.2825   -1.5241 H   0  0  0  0  0  0  0  0  0  0  0  0
   -0.6141    2.4476   -0.5014 H   0  0  0  0  0  0  0  0  0  0  0  0
    0.9003    0.6633   -1.3798 H   0  0  0  0  0  0  0  0  0  0  0  0
    0.6577    1.2101    1.4992 H   0  0  0  0  0  0  0  0  0  0  0  0
    3.2188   -0.9813    0.6981 H   0  0  0  0  0  0  0  0  0  0  0  0
    4.7611   -0.1235    0.8547 H   0  0  0  0  0  0  0  0  0  0  0  0
    0.1538   -1.3675    1.6194 H   0  0  0  0  0  0  0  0  0  0  0  0
   -0.4439   -3.7465    1.4781 H   0  0  0  0  0  0  0  0  0  0  0  0
   -1.0007   -4.7735   -0.7080 H   0  0  0  0  0  0  0  0  0  0  0  0
   -0.9596   -3.3971   -2.7693 H   0  0  0  0  0  0  0  0  0  0  0  0
   -0.3642   -1.0105   -2.6599 H   0  0  0  0  0  0  0  0  0  0  0  0
  1  2  1  0
  2  3  2  0
  2  4  1  0
  4  5  1  0
  5  6  1  0
  6  7  1  0
  7  8  1  0
  8  9  1  0
  9 10  2  0
  9 11  2  0
  9 12  1  0
 12 13  1  0
 13 14  1  0
 14 15  1  0
 14 16  1  0
 14 17  1  0
  7 18  1  0
 18 19  2  0
 19 20  1  0
 20 21  2  0
 21 22  1  0
 22 23  2  0
 23 18  1  0
  1 24  1  0
  1 25  1  0
  1 26  1  0
  5 27  1  0
  5 28  1  0
  6 29  1  0
  6 30  1  0
  7 31  1  0
  8 32  1  0
 13 33  1  0
 13 34  1  0
 19 35  1  0
 20 36  1  0
 21 37  1  0
 22 38  1  0
 23 39  1  0
M  END
$$$$
