
     RDKit          3D

 57 60  0  0  0  0  0  0  0  0999 V2000
    5.3723    2.8934   -1.2881 C   0  0  0  0  0  0  0  0  0  0  0  0
    4.3156    2.0180   -0.6997 C   0  0  0  0  0  0  0  0  0  0  0  0
    2.9506    2.2175   -0.7437 C   0  0  0  0  0  0  0  0  0  0  0  0
    2.3403    1.1952    0.0073 C   0  0  0  0  0  0  0  0  0  0  0  0
    0.9319    1.0607    0.1804 C   0  0  0  0  0  0  0  0  0  0  0  0
    0.2403   -0.0561   -0.1032 C   0  0  0  0  0  0  0  0  0  0  0  0
   -1.2153   -0.1373    0.0288 C   0  0  0  0  0  0  0  0  0  0  0  0
   -1.7673   -0.1097    1.3106 C   0  0  0  0  0  0  0  0  0  0  0  0
   -3.1354   -0.2239    1.4769 C   0  0  0  0  0  0  0  0  0  0  0  0
   -3.9531   -0.3779    0.3605 C   0  0  0  0  0  0  0  0  0  0  0  0
   -5.3487   -0.5036    0.5174 C   0  0  0  0  0  0  0  0  0  0  0  0
   -6.2296   -0.6702   -0.5653 C   0  0  0  0  0  0  0  0  0  0  0  0
   -7.6079   -0.7636   -0.3898 N   0  0  0  0  0  0  0  0  0  0  0  0
   -8.1532   -1.0903    0.9332 C   0  0  0  0  0  0  0  0  0  0  0  0
   -8.4771   -1.0882   -1.5225 C   0  0  0  0  0  0  0  0  0  0  0  0
   -5.6342   -0.6925   -1.8337 C   0  0  0  0  0  0  0  0  0  0  0  0
   -4.2470   -0.5700   -2.0185 C   0  0  0  0  0  0  0  0  0  0  0  0
   -3.3762   -0.4058   -0.9305 C   0  0  0  0  0  0  0  0  0  0  0  0
   -2.0153   -0.2741   -1.0684 N   0  0  0  0  0  4  0  0  0  0  0  0
   -1.4269   -0.2516   -2.4304 C   0  0  0  0  0  0  0  0  0  0  0  0
    3.3395    0.3900    0.5346 C   0  0  0  0  0  0  0  0  0  0  0  0
    3.2332   -0.8343    1.3880 C   0  0  0  0  0  0  0  0  0  0  0  0
    4.5682    0.8931    0.0844 N   0  0  0  0  0  0  0  0  0  0  0  0
    5.8569    0.3555    0.3726 C   0  0  0  0  0  0  0  0  0  0  0  0
    6.7758    0.1513   -0.6658 C   0  0  0  0  0  0  0  0  0  0  0  0
    8.0391   -0.3726   -0.3846 C   0  0  0  0  0  0  0  0  0  0  0  0
    8.3899   -0.6874    0.9287 C   0  0  0  0  0  0  0  0  0  0  0  0
    7.4797   -0.4785    1.9649 C   0  0  0  0  0  0  0  0  0  0  0  0
    6.2131    0.0409    1.6905 C   0  0  0  0  0  0  0  0  0  0  0  0
    5.7337    2.4802   -2.2364 H   0  0  0  0  0  0  0  0  0  0  0  0
    4.9676    3.8921   -1.4985 H   0  0  0  0  0  0  0  0  0  0  0  0
    6.2171    3.0268   -0.6036 H   0  0  0  0  0  0  0  0  0  0  0  0
    2.4620    3.0322   -1.2663 H   0  0  0  0  0  0  0  0  0  0  0  0
    0.4088    1.9627    0.5008 H   0  0  0  0  0  0  0  0  0  0  0  0
    0.7447   -0.9495   -0.4692 H   0  0  0  0  0  0  0  0  0  0  0  0
   -1.1296   -0.0083    2.1891 H   0  0  0  0  0  0  0  0  0  0  0  0
   -3.5541   -0.2021    2.4845 H   0  0  0  0  0  0  0  0  0  0  0  0
   -5.7498   -0.4564    1.5283 H   0  0  0  0  0  0  0  0  0  0  0  0
   -7.7644   -2.0522    1.2896 H   0  0  0  0  0  0  0  0  0  0  0  0
   -7.9209   -0.3053    1.6624 H   0  0  0  0  0  0  0  0  0  0  0  0
   -9.2455   -1.1666    0.9093 H   0  0  0  0  0  0  0  0  0  0  0  0
   -9.5345   -1.0510   -1.2374 H   0  0  0  0  0  0  0  0  0  0  0  0
   -8.3599   -0.3620   -2.3350 H   0  0  0  0  0  0  0  0  0  0  0  0
   -8.2677   -2.0969   -1.8970 H   0  0  0  0  0  0  0  0  0  0  0  0
   -6.2419   -0.8086   -2.7298 H   0  0  0  0  0  0  0  0  0  0  0  0
   -3.8965   -0.6101   -3.0465 H   0  0  0  0  0  0  0  0  0  0  0  0
   -1.5994   -1.2320   -2.8852 H   0  0  0  0  0  0  0  0  0  0  0  0
   -0.3562   -0.0465   -2.4222 H   0  0  0  0  0  0  0  0  0  0  0  0
   -1.9154    0.5484   -2.9963 H   0  0  0  0  0  0  0  0  0  0  0  0
    3.4755   -0.6053    2.4289 H   0  0  0  0  0  0  0  0  0  0  0  0
    3.8945   -1.6276    1.0265 H   0  0  0  0  0  0  0  0  0  0  0  0
    2.2228   -1.2506    1.3861 H   0  0  0  0  0  0  0  0  0  0  0  0
    6.5165    0.3598   -1.7016 H   0  0  0  0  0  0  0  0  0  0  0  0
    8.7507   -0.5395   -1.1909 H   0  0  0  0  0  0  0  0  0  0  0  0
    9.3763   -1.0901    1.1459 H   0  0  0  0  0  0  0  0  0  0  0  0
    7.7631   -0.7088    2.9896 H   0  0  0  0  0  0  0  0  0  0  0  0
    5.5436    0.2395    2.5228 H   0  0  0  0  0  0  0  0  0  0  0  0
  1  2  1  0
  2  3  2  0
  3  4  1  0
  4  5  1  0
  5  6  2  3
  6  7  1  0
  7  8  2  0
  8  9  1  0
  9 10  2  0
 10 11  1  0
 11 12  2  0
 12 13  1  0
 13 14  1  0
 13 15  1  0
 12 16  1  0
 16 17  2  0
 17 18  1  0
 18 19  2  0
 19 20  1  0
  4 21  2  0
 21 22  1  0
 21 23  1  0
 23 24  1  0
 24 25  2  0
 25 26  1  0
 26 27  2  0
 27 28  1  0
 28 29  2  0
 23  2  1  0
 29 24  1  0
 19  7  1  0
 18 10  1  0
  1 30  1  0
  1 31  1  0
  1 32  1  0
  3 33  1  0
  5 34  1  0
  6 35  1  0
  8 36  1  0
  9 37  1  0
 11 38  1  0
 14 39  1  0
 14 40  1  0
 14 41  1  0
 15 42  1  0
 15 43  1  0
 15 44  1  0
 16 45  1  0
 17 46  1  0
 20 47  1  0
 20 48  1  0
 20 49  1  0
 22 50  1  0
 22 51  1  0
 22 52  1  0
 25 53  1  0
 26 54  1  0
 27 55  1  0
 28 56  1  0
 29 57  1  0
M  CHG  1  19   1
M  END
$$$$
