
     RDKit          3D

 57 59  0  0  0  0  0  0  0  0999 V2000
   -5.9543   -2.1360    0.4862 C   0  0  0  0  0  0  0  0  0  0  0  0
   -4.5783   -1.7490   -0.0464 C   0  0  0  0  0  0  0  0  0  0  0  0
   -4.5552   -0.4597   -0.7578 N   0  0  0  0  0  0  0  0  0  0  0  0
   -5.4787   -0.3853   -1.9018 C   0  0  0  0  0  0  0  0  0  0  0  0
   -5.2560   -1.3962   -3.0221 C   0  0  0  0  0  0  0  0  0  0  0  0
   -3.1849   -0.0776   -1.1516 C   0  0  0  0  0  0  0  0  0  0  0  0
   -2.2779    0.3160    0.0267 C   0  0  0  0  0  0  0  0  0  0  0  0
   -1.0283    0.7949   -0.5057 O   0  0  0  0  0  0  0  0  0  0  0  0
   -0.6306    1.9687    0.0875 C   0  0  0  0  0  0  0  0  0  0  0  0
   -1.0514    3.1716   -0.3560 C   0  0  0  0  0  0  0  0  0  0  0  0
   -0.5414    4.3933    0.3505 C   0  0  2  0  0  0  0  0  0  0  0  0
   -0.6010    5.5932   -0.4043 O   0  0  0  0  0  0  0  0  0  0  0  0
    0.2113    6.4907    0.2527 C   0  0  0  0  0  0  0  0  0  0  0  0
    0.2362    7.6849    0.0034 O   0  0  0  0  0  0  0  0  0  0  0  0
    1.2803    5.7552    1.4708 S   0  0  0  0  0  0  0  0  0  0  0  0
    0.9320    4.1793    0.7162 C   0  0  1  0  0  0  0  0  0  0  0  0
    1.1120    2.9334    1.5149 C   0  0  0  0  0  0  0  0  0  0  0  0
    0.3565    1.8656    1.1680 C   0  0  0  0  0  0  0  0  0  0  0  0
    0.5091    0.6113    1.9510 C   0  0  0  0  0  0  0  0  0  0  0  0
   -0.3447    0.2688    2.7638 O   0  0  0  0  0  0  0  0  0  0  0  0
    1.7375   -0.2075    1.7695 C   0  0  0  0  0  0  0  0  0  0  0  0
    2.5958   -0.0916    0.7445 C   0  0  0  0  0  0  0  0  0  0  0  0
    3.8054   -0.9149    0.5924 C   0  0  0  0  0  0  0  0  0  0  0  0
    4.9211   -0.3613   -0.0442 C   0  0  0  0  0  0  0  0  0  0  0  0
    6.0818   -1.1190   -0.2310 C   0  0  0  0  0  0  0  0  0  0  0  0
    6.1475   -2.4432    0.2046 C   0  0  0  0  0  0  0  0  0  0  0  0
    7.3403   -3.0668   -0.0365 O   0  0  0  0  0  0  0  0  0  0  0  0
    7.4568   -4.4193    0.3878 C   0  0  0  0  0  0  0  0  0  0  0  0
    5.0346   -3.0079    0.8241 C   0  0  0  0  0  0  0  0  0  0  0  0
    3.8699   -2.2502    1.0106 C   0  0  0  0  0  0  0  0  0  0  0  0
   -5.8707   -3.0251    1.1216 H   0  0  0  0  0  0  0  0  0  0  0  0
   -6.3826   -1.3305    1.0929 H   0  0  0  0  0  0  0  0  0  0  0  0
   -6.6539   -2.3759   -0.3202 H   0  0  0  0  0  0  0  0  0  0  0  0
   -4.1884   -2.5594   -0.6754 H   0  0  0  0  0  0  0  0  0  0  0  0
   -3.9208   -1.6897    0.8288 H   0  0  0  0  0  0  0  0  0  0  0  0
   -6.5112   -0.4733   -1.5446 H   0  0  0  0  0  0  0  0  0  0  0  0
   -5.4284    0.6245   -2.3296 H   0  0  0  0  0  0  0  0  0  0  0  0
   -5.9804   -1.2211   -3.8237 H   0  0  0  0  0  0  0  0  0  0  0  0
   -4.2572   -1.3060   -3.4580 H   0  0  0  0  0  0  0  0  0  0  0  0
   -5.3938   -2.4247   -2.6754 H   0  0  0  0  0  0  0  0  0  0  0  0
   -3.2252    0.7943   -1.8188 H   0  0  0  0  0  0  0  0  0  0  0  0
   -2.7002   -0.8709   -1.7352 H   0  0  0  0  0  0  0  0  0  0  0  0
   -2.7798    1.0689    0.6519 H   0  0  0  0  0  0  0  0  0  0  0  0
   -2.0495   -0.5540    0.6516 H   0  0  0  0  0  0  0  0  0  0  0  0
   -1.7770    3.2665   -1.1562 H   0  0  0  0  0  0  0  0  0  0  0  0
   -1.1899    4.5270    1.2323 H   0  0  0  0  0  0  0  0  0  0  0  0
    1.5632    4.1184   -0.1810 H   0  0  0  0  0  0  0  0  0  0  0  0
    1.8435    2.8905    2.3149 H   0  0  0  0  0  0  0  0  0  0  0  0
    1.8777   -0.9420    2.5561 H   0  0  0  0  0  0  0  0  0  0  0  0
    2.4359    0.6400   -0.0431 H   0  0  0  0  0  0  0  0  0  0  0  0
    4.9076    0.6673   -0.3978 H   0  0  0  0  0  0  0  0  0  0  0  0
    6.9422   -0.6725   -0.7228 H   0  0  0  0  0  0  0  0  0  0  0  0
    6.7462   -5.0606   -0.1433 H   0  0  0  0  0  0  0  0  0  0  0  0
    8.4661   -4.7619    0.1397 H   0  0  0  0  0  0  0  0  0  0  0  0
    7.3339   -4.5064    1.4732 H   0  0  0  0  0  0  0  0  0  0  0  0
    5.0331   -4.0360    1.1707 H   0  0  0  0  0  0  0  0  0  0  0  0
    3.0141   -2.7291    1.4792 H   0  0  0  0  0  0  0  0  0  0  0  0
  1  2  1  0
  2  3  1  0
  3  4  1  0
  4  5  1  0
  3  6  1  0
  6  7  1  0
  7  8  1  0
  8  9  1  0
  9 10  2  0
 10 11  1  0
 11 12  1  0
 12 13  1  0
 13 14  2  0
 13 15  1  0
 15 16  1  0
 16 17  1  0
 17 18  2  0
 18 19  1  0
 19 20  2  0
 19 21  1  0
 21 22  2  0
 22 23  1  0
 23 24  2  0
 24 25  1  0
 25 26  2  0
 26 27  1  0
 27 28  1  0
 26 29  1  0
 29 30  2  0
 18  9  1  0
 30 23  1  0
 16 11  1  0
  1 31  1  0
  1 32  1  0
  1 33  1  0
  2 34  1  0
  2 35  1  0
  4 36  1  0
  4 37  1  0
  5 38  1  0
  5 39  1  0
  5 40  1  0
  6 41  1  0
  6 42  1  0
  7 43  1  0
  7 44  1  0
 10 45  1  0
 11 46  1  1
 16 47  1  6
 17 48  1  0
 21 49  1  0
 22 50  1  0
 24 51  1  0
 25 52  1  0
 28 53  1  0
 28 54  1  0
 28 55  1  0
 29 56  1  0
 30 57  1  0
M  END
$$$$
