
     RDKit          3D

 61 65  0  0  0  0  0  0  0  0999 V2000
    6.3459   -4.1846    2.4357 C   0  0  0  0  0  0  0  0  0  0  0  0
    5.1700   -3.3815    1.9619 C   0  0  0  0  0  0  0  0  0  0  0  0
    4.7458   -2.2563    2.6735 C   0  0  0  0  0  0  0  0  0  0  0  0
    3.6315   -1.5258    2.2481 C   0  0  0  0  0  0  0  0  0  0  0  0
    2.9063   -1.9078    1.1079 C   0  0  0  0  0  0  0  0  0  0  0  0
    1.7356   -1.1391    0.6612 C   0  0  0  0  0  0  0  0  0  0  0  0
    1.8046    0.2369    0.4587 C   0  0  0  0  0  0  0  0  0  0  0  0
    0.6850    0.9676    0.0354 C   0  0  0  0  0  0  0  0  0  0  0  0
    0.7726    2.4210   -0.1405 C   0  0  0  0  0  0  0  0  0  0  0  0
    1.3798    2.9669   -1.2833 C   0  0  0  0  0  0  0  0  0  0  0  0
    1.4666    4.3509   -1.4540 C   0  0  0  0  0  0  0  0  0  0  0  0
    0.9504    5.2183   -0.4868 C   0  0  0  0  0  0  0  0  0  0  0  0
    1.0752    6.7053   -0.6547 C   0  0  0  0  0  0  0  0  0  0  0  0
    0.3767    4.6828    0.6701 C   0  0  0  0  0  0  0  0  0  0  0  0
    0.2897    3.2991    0.8432 C   0  0  0  0  0  0  0  0  0  0  0  0
   -0.5069    0.3347   -0.1946 N   0  0  0  0  0  4  0  0  0  0  0  0
   -1.6570    1.0904   -0.6326 C   0  0  0  0  0  0  0  0  0  0  0  0
   -2.6589    1.3904    0.2928 C   0  0  0  0  0  0  0  0  0  0  0  0
   -3.7658    2.1186   -0.1374 C   0  0  0  0  0  0  0  0  0  0  0  0
   -3.8552    2.5336   -1.4694 C   0  0  0  0  0  0  0  0  0  0  0  0
   -2.8417    2.2247   -2.3816 C   0  0  0  0  0  0  0  0  0  0  0  0
   -1.7294    1.4958   -1.9669 C   0  0  0  0  0  0  0  0  0  0  0  0
   -0.6036   -1.0180   -0.0071 C   0  0  0  0  0  0  0  0  0  0  0  0
   -1.8759   -1.6928   -0.2843 C   0  0  0  0  0  0  0  0  0  0  0  0
   -2.7210   -2.0840    0.7671 C   0  0  0  0  0  0  0  0  0  0  0  0
   -3.9331   -2.7285    0.5073 C   0  0  0  0  0  0  0  0  0  0  0  0
   -4.3260   -2.9968   -0.8072 C   0  0  0  0  0  0  0  0  0  0  0  0
   -5.6123   -3.7204   -1.0837 C   0  0  0  0  0  0  0  0  0  0  0  0
   -3.4739   -2.6425   -1.8573 C   0  0  0  0  0  0  0  0  0  0  0  0
   -2.2608   -1.9988   -1.5997 C   0  0  0  0  0  0  0  0  0  0  0  0
    0.5098   -1.7548    0.4220 C   0  0  0  0  0  0  0  0  0  0  0  0
    3.3329   -3.0494    0.4103 C   0  0  0  0  0  0  0  0  0  0  0  0
    4.4476   -3.7800    0.8342 C   0  0  0  0  0  0  0  0  0  0  0  0
    7.0695   -3.5487    2.9565 H   0  0  0  0  0  0  0  0  0  0  0  0
    6.8684   -4.6461    1.5913 H   0  0  0  0  0  0  0  0  0  0  0  0
    6.0107   -4.9714    3.1183 H   0  0  0  0  0  0  0  0  0  0  0  0
    5.2813   -1.9410    3.5673 H   0  0  0  0  0  0  0  0  0  0  0  0
    3.3323   -0.6595    2.8346 H   0  0  0  0  0  0  0  0  0  0  0  0
    2.7460    0.7618    0.6296 H   0  0  0  0  0  0  0  0  0  0  0  0
    1.7973    2.3245   -2.0573 H   0  0  0  0  0  0  0  0  0  0  0  0
    1.9451    4.7520   -2.3465 H   0  0  0  0  0  0  0  0  0  0  0  0
    2.0158    7.0533   -0.2171 H   0  0  0  0  0  0  0  0  0  0  0  0
    1.0532    6.9817   -1.7141 H   0  0  0  0  0  0  0  0  0  0  0  0
    0.2432    7.2238   -0.1668 H   0  0  0  0  0  0  0  0  0  0  0  0
   -0.0015    5.3451    1.4477 H   0  0  0  0  0  0  0  0  0  0  0  0
   -0.1549    2.9223    1.7629 H   0  0  0  0  0  0  0  0  0  0  0  0
   -2.5926    1.0759    1.3292 H   0  0  0  0  0  0  0  0  0  0  0  0
   -4.5650    2.3677    0.5588 H   0  0  0  0  0  0  0  0  0  0  0  0
   -4.7233    3.1034   -1.7998 H   0  0  0  0  0  0  0  0  0  0  0  0
   -2.9281    2.5568   -3.4148 H   0  0  0  0  0  0  0  0  0  0  0  0
   -0.9488    1.2542   -2.6809 H   0  0  0  0  0  0  0  0  0  0  0  0
   -2.4486   -1.8963    1.8048 H   0  0  0  0  0  0  0  0  0  0  0  0
   -4.5709   -3.0262    1.3386 H   0  0  0  0  0  0  0  0  0  0  0  0
   -6.0307   -3.4166   -2.0490 H   0  0  0  0  0  0  0  0  0  0  0  0
   -6.3615   -3.4910   -0.3187 H   0  0  0  0  0  0  0  0  0  0  0  0
   -5.4383   -4.8007   -1.0967 H   0  0  0  0  0  0  0  0  0  0  0  0
   -3.7508   -2.8729   -2.8852 H   0  0  0  0  0  0  0  0  0  0  0  0
   -1.6212   -1.7488   -2.4445 H   0  0  0  0  0  0  0  0  0  0  0  0
    0.4072   -2.8310    0.5712 H   0  0  0  0  0  0  0  0  0  0  0  0
    2.8097   -3.3851   -0.4828 H   0  0  0  0  0  0  0  0  0  0  0  0
    4.7517   -4.6629    0.2746 H   0  0  0  0  0  0  0  0  0  0  0  0
  1  2  1  0
  2  3  2  0
  3  4  1  0
  4  5  2  0
  5  6  1  0
  6  7  2  0
  7  8  1  0
  8  9  1  0
  9 10  2  0
 10 11  1  0
 11 12  2  0
 12 13  1  0
 12 14  1  0
 14 15  2  0
  8 16  2  0
 16 17  1  0
 17 18  2  0
 18 19  1  0
 19 20  2  0
 20 21  1  0
 21 22  2  0
 16 23  1  0
 23 24  1  0
 24 25  2  0
 25 26  1  0
 26 27  2  0
 27 28  1  0
 27 29  1  0
 29 30  2  0
 23 31  2  0
  5 32  1  0
 32 33  2  0
 33  2  1  0
 31  6  1  0
 15  9  1  0
 22 17  1  0
 30 24  1  0
  1 34  1  0
  1 35  1  0
  1 36  1  0
  3 37  1  0
  4 38  1  0
  7 39  1  0
 10 40  1  0
 11 41  1  0
 13 42  1  0
 13 43  1  0
 13 44  1  0
 14 45  1  0
 15 46  1  0
 18 47  1  0
 19 48  1  0
 20 49  1  0
 21 50  1  0
 22 51  1  0
 25 52  1  0
 26 53  1  0
 28 54  1  0
 28 55  1  0
 28 56  1  0
 29 57  1  0
 30 58  1  0
 31 59  1  0
 32 60  1  0
 33 61  1  0
M  CHG  1  16   1
M  END
$$$$
