
     RDKit          3D

 50 54  0  0  0  0  0  0  0  0999 V2000
   -4.7548    1.0537    0.7878 C   0  0  0  0  0  0  0  0  0  0  0  0
   -4.3710   -0.3769    0.5731 C   0  0  0  0  0  0  0  0  0  0  0  0
   -5.2422   -1.3958    0.6373 C   0  0  0  0  0  0  0  0  0  0  0  0
   -4.8177   -2.7503    0.4128 C   0  0  0  0  0  0  0  0  0  0  0  0
   -3.5366   -3.0085    0.1305 C   0  0  0  0  0  0  0  0  0  0  0  0
   -2.5872   -1.9973    0.0468 N   0  0  0  0  0  0  0  0  0  0  0  0
   -1.2726   -2.3265   -0.2332 C   0  0  0  0  0  0  0  0  0  0  0  0
   -0.8628   -3.4787   -0.3929 O   0  0  0  0  0  0  0  0  0  0  0  0
   -0.3164   -1.1887   -0.3321 C   0  0  0  0  0  0  0  0  0  0  0  0
    1.0795   -1.4477   -0.6490 C   0  0  0  0  0  0  0  0  0  0  0  0
    1.9798   -0.4588   -0.7734 C   0  0  0  0  0  0  0  0  0  0  0  0
    3.6349   -0.8472   -1.0545 S   0  0  0  0  0  6  0  0  0  0  0  0
    3.7424   -2.0828   -1.8100 O   0  0  0  0  0  0  0  0  0  0  0  0
    4.3620    0.3322   -1.4927 O   0  0  0  0  0  0  0  0  0  0  0  0
    4.2121   -1.1998    0.6003 C   0  0  0  0  0  0  0  0  0  0  0  0
    4.3650   -2.5284    1.0154 C   0  0  0  0  0  0  0  0  0  0  0  0
    4.8240   -2.7920    2.3065 C   0  0  0  0  0  0  0  0  0  0  0  0
    5.1318   -1.7344    3.1580 C   0  0  0  0  0  0  0  0  0  0  0  0
    5.5718   -1.9933    4.3959 F   0  0  0  0  0  0  0  0  0  0  0  0
    4.9943   -0.4126    2.7434 C   0  0  0  0  0  0  0  0  0  0  0  0
    4.5361   -0.1376    1.4545 C   0  0  0  0  0  0  0  0  0  0  0  0
    1.4892    0.9423   -0.5791 C   0  0  0  0  0  0  0  0  0  0  0  0
    2.2678    1.9710   -0.7524 N   0  0  0  0  0  0  0  0  0  0  0  0
    0.1531    1.1404   -0.2009 N   0  0  0  0  0  0  0  0  0  0  0  0
   -0.3504    2.5239   -0.0626 C   0  0  0  0  0  0  0  0  0  0  0  0
   -0.9040    3.1244   -1.3151 C   0  0  0  0  0  0  0  0  0  0  0  0
   -0.3379    3.4734   -2.5249 C   0  0  0  0  0  0  0  0  0  0  0  0
   -1.3828    4.0010   -3.3197 C   0  0  0  0  0  0  0  0  0  0  0  0
   -2.5177    3.9455   -2.5458 C   0  0  0  0  0  0  0  0  0  0  0  0
   -2.2381    3.4193   -1.3259 O   0  0  0  0  0  0  0  0  0  0  0  0
   -0.7646    0.0659   -0.1052 C   0  0  0  0  0  0  0  0  0  0  0  0
   -2.0798    0.3036    0.2080 N   0  0  0  0  0  0  0  0  0  0  0  0
   -2.9288   -0.6722    0.2607 C   0  0  0  0  0  0  0  0  0  0  0  0
   -4.2036    1.4780    1.6334 H   0  0  0  0  0  0  0  0  0  0  0  0
   -4.5391    1.6487   -0.1057 H   0  0  0  0  0  0  0  0  0  0  0  0
   -5.8233    1.1588    1.0042 H   0  0  0  0  0  0  0  0  0  0  0  0
   -6.2924   -1.2271    0.8568 H   0  0  0  0  0  0  0  0  0  0  0  0
   -5.5520   -3.5470    0.4752 H   0  0  0  0  0  0  0  0  0  0  0  0
   -3.1950   -4.0261   -0.0437 H   0  0  0  0  0  0  0  0  0  0  0  0
    1.3697   -2.4904   -0.7693 H   0  0  0  0  0  0  0  0  0  0  0  0
    4.1367   -3.3573    0.3484 H   0  0  0  0  0  0  0  0  0  0  0  0
    4.9499   -3.8134    2.6535 H   0  0  0  0  0  0  0  0  0  0  0  0
    5.2507    0.3928    3.4252 H   0  0  0  0  0  0  0  0  0  0  0  0
    4.4410    0.8966    1.1292 H   0  0  0  0  0  0  0  0  0  0  0  0
    3.2132    1.7129   -1.0835 H   0  0  0  0  0  0  0  0  0  0  0  0
    0.4413    3.1830    0.3168 H   0  0  0  0  0  0  0  0  0  0  0  0
   -1.1141    2.5632    0.7258 H   0  0  0  0  0  0  0  0  0  0  0  0
    0.7045    3.3559   -2.7899 H   0  0  0  0  0  0  0  0  0  0  0  0
   -1.3170    4.3767   -4.3308 H   0  0  0  0  0  0  0  0  0  0  0  0
   -3.5485    4.2275   -2.7070 H   0  0  0  0  0  0  0  0  0  0  0  0
  1  2  1  0
  2  3  2  0
  3  4  1  0
  4  5  2  0
  5  6  1  0
  6  7  1  0
  7  8  2  0
  7  9  1  0
  9 10  1  0
 10 11  2  0
 11 12  1  0
 12 13  2  0
 12 14  2  0
 12 15  1  0
 15 16  2  0
 16 17  1  0
 17 18  2  0
 18 19  1  0
 18 20  1  0
 20 21  2  0
 11 22  1  0
 22 23  2  3
 22 24  1  0
 24 25  1  0
 25 26  1  0
 26 27  2  0
 27 28  1  0
 28 29  2  0
 29 30  1  0
 24 31  1  0
 31 32  1  0
 32 33  2  0
 33  2  1  0
 33  6  1  0
 31  9  2  0
 21 15  1  0
 30 26  1  0
  1 34  1  0
  1 35  1  0
  1 36  1  0
  3 37  1  0
  4 38  1  0
  5 39  1  0
 10 40  1  0
 16 41  1  0
 17 42  1  0
 20 43  1  0
 21 44  1  0
 23 45  1  0
 25 46  1  0
 25 47  1  0
 27 48  1  0
 28 49  1  0
 29 50  1  0
M  END
$$$$
