
     RDKit          3D

 48 50  0  0  0  0  0  0  0  0999 V2000
   -1.4584    3.5292   -0.9520 C   0  0  0  0  0  0  0  0  0  0  0  0
   -1.4422    2.2059   -0.4109 O   0  0  0  0  0  0  0  0  0  0  0  0
   -2.5888    1.8676    0.2609 C   0  0  0  0  0  0  0  0  0  0  0  0
   -3.5513    2.6132    0.3854 O   0  0  0  0  0  0  0  0  0  0  0  0
   -2.5057    0.4303    0.8098 C   0  0  0  0  0  0  0  0  0  0  0  0
   -3.6517   -0.4120    0.2205 C   0  0  0  0  0  0  0  0  0  0  0  0
   -4.9044   -0.3736    1.0651 C   0  0  0  0  0  0  0  0  0  0  0  0
   -4.9898   -1.1512    2.2287 C   0  0  0  0  0  0  0  0  0  0  0  0
   -6.1389   -1.1177    3.0203 C   0  0  0  0  0  0  0  0  0  0  0  0
   -7.2124   -0.3065    2.6578 C   0  0  0  0  0  0  0  0  0  0  0  0
   -7.1364    0.4727    1.5047 C   0  0  0  0  0  0  0  0  0  0  0  0
   -5.9872    0.4417    0.7119 C   0  0  0  0  0  0  0  0  0  0  0  0
   -1.1968   -0.1635    0.4946 N   0  0  0  0  0  0  0  0  0  0  0  0
   -0.7230   -1.2797    1.1572 C   0  0  0  0  0  0  0  0  0  0  0  0
   -1.4074   -1.8587    1.9978 O   0  0  0  0  0  0  0  0  0  0  0  0
    0.6307   -1.7107    0.7795 C   0  0  0  0  0  0  0  0  0  0  0  0
    1.5796   -1.0722   -0.0656 C   0  0  0  0  0  0  0  0  0  0  0  0
    2.6738   -1.9034   -0.0671 C   0  0  0  0  0  0  0  0  0  0  0  0
    4.0140   -1.8779   -0.7024 C   0  0  0  0  0  0  0  0  0  0  0  0
    4.1495   -0.6029   -1.3306 O   0  0  0  0  0  0  0  0  0  0  0  0
    5.3976   -0.2456   -1.7610 C   0  0  0  0  0  0  0  0  0  0  0  0
    5.5610    1.1067   -2.0761 C   0  0  0  0  0  0  0  0  0  0  0  0
    4.5271    1.9520   -1.9461 F   0  0  0  0  0  0  0  0  0  0  0  0
    6.7851    1.6161   -2.5139 C   0  0  0  0  0  0  0  0  0  0  0  0
    7.8771    0.7629   -2.6533 C   0  0  0  0  0  0  0  0  0  0  0  0
    7.7306   -0.5929   -2.3609 C   0  0  0  0  0  0  0  0  0  0  0  0
    6.4980   -1.0888   -1.9218 C   0  0  0  0  0  0  0  0  0  0  0  0
    6.4102   -2.4032   -1.6652 F   0  0  0  0  0  0  0  0  0  0  0  0
    2.4087   -2.9770    0.7217 O   0  0  0  0  0  0  0  0  0  0  0  0
    1.1405   -2.8626    1.2505 N   0  0  0  0  0  0  0  0  0  0  0  0
   -1.4981    4.2687   -0.1463 H   0  0  0  0  0  0  0  0  0  0  0  0
   -0.5328    3.6752   -1.5169 H   0  0  0  0  0  0  0  0  0  0  0  0
   -2.3023    3.6552   -1.6384 H   0  0  0  0  0  0  0  0  0  0  0  0
   -2.5603    0.4977    1.9032 H   0  0  0  0  0  0  0  0  0  0  0  0
   -3.3571   -1.4650    0.1200 H   0  0  0  0  0  0  0  0  0  0  0  0
   -3.8848   -0.0853   -0.8023 H   0  0  0  0  0  0  0  0  0  0  0  0
   -4.1580   -1.7887    2.5264 H   0  0  0  0  0  0  0  0  0  0  0  0
   -6.1939   -1.7242    3.9206 H   0  0  0  0  0  0  0  0  0  0  0  0
   -8.1063   -0.2803    3.2758 H   0  0  0  0  0  0  0  0  0  0  0  0
   -7.9706    1.1104    1.2241 H   0  0  0  0  0  0  0  0  0  0  0  0
   -5.9419    1.0673   -0.1774 H   0  0  0  0  0  0  0  0  0  0  0  0
   -0.6151    0.3372   -0.1655 H   0  0  0  0  0  0  0  0  0  0  0  0
    1.5015   -0.1331   -0.5934 H   0  0  0  0  0  0  0  0  0  0  0  0
    4.0733   -2.6743   -1.4526 H   0  0  0  0  0  0  0  0  0  0  0  0
    4.7769   -2.0131    0.0745 H   0  0  0  0  0  0  0  0  0  0  0  0
    6.8758    2.6763   -2.7388 H   0  0  0  0  0  0  0  0  0  0  0  0
    8.8351    1.1527   -2.9857 H   0  0  0  0  0  0  0  0  0  0  0  0
    8.5696   -1.2749   -2.4704 H   0  0  0  0  0  0  0  0  0  0  0  0
  1  2  1  0
  2  3  1  0
  3  4  2  0
  3  5  1  0
  5  6  1  0
  6  7  1  0
  7  8  2  0
  8  9  1  0
  9 10  2  0
 10 11  1  0
 11 12  2  0
  5 13  1  0
 13 14  1  0
 14 15  2  0
 14 16  1  0
 16 17  1  0
 17 18  2  0
 18 19  1  0
 19 20  1  0
 20 21  1  0
 21 22  2  0
 22 23  1  0
 22 24  1  0
 24 25  2  0
 25 26  1  0
 26 27  2  0
 27 28  1  0
 18 29  1  0
 29 30  1  0
 12  7  1  0
 30 16  2  0
 27 21  1  0
  1 31  1  0
  1 32  1  0
  1 33  1  0
  5 34  1  0
  6 35  1  0
  6 36  1  0
  8 37  1  0
  9 38  1  0
 10 39  1  0
 11 40  1  0
 12 41  1  0
 13 42  1  0
 17 43  1  0
 19 44  1  0
 19 45  1  0
 24 46  1  0
 25 47  1  0
 26 48  1  0
M  END
$$$$
