
     RDKit          3D

 33 33  0  0  0  0  0  0  0  0999 V2000
   -3.8037    3.5516   -0.6811 C   0  0  0  0  0  0  0  0  0  0  0  0
   -3.4963    2.5857    0.4359 C   0  0  0  0  0  0  0  0  0  0  0  0
   -4.0748    2.6709    1.5136 O   0  0  0  0  0  0  0  0  0  0  0  0
   -2.5077    1.6867    0.0962 N   0  0  0  0  0  0  0  0  0  0  0  0
   -1.9961    0.6215    0.8689 C   0  0  0  0  0  0  0  0  0  0  0  0
   -2.4753    0.2744    2.1325 C   0  0  0  0  0  0  0  0  0  0  0  0
   -1.9342   -0.8196    2.8153 C   0  0  0  0  0  0  0  0  0  0  0  0
   -0.9203   -1.5807    2.2361 C   0  0  0  0  0  0  0  0  0  0  0  0
   -0.4275   -1.2410    0.9774 C   0  0  0  0  0  0  0  0  0  0  0  0
   -0.9441   -0.1277    0.3093 C   0  0  0  0  0  0  0  0  0  0  0  0
   -0.4876    0.2507   -0.9333 O   0  0  0  0  0  0  0  0  0  0  0  0
    0.9170    0.4845   -0.9607 C   0  0  0  0  0  0  0  0  0  0  0  0
    1.7509   -0.6738   -1.5195 C   0  0  0  0  0  0  0  0  0  0  0  0
    1.2722   -1.6664   -2.0577 O   0  0  0  0  0  0  0  0  0  0  0  0
    3.1161   -0.5042   -1.3723 N   0  0  0  0  0  0  0  0  0  0  0  0
    4.0285   -1.6043   -1.6990 C   0  0  0  0  0  0  0  0  0  0  0  0
    4.2006   -2.6462   -0.5895 C   0  0  0  0  0  0  0  0  0  0  0  0
    3.0426   -3.2475   -0.2522 F   0  0  0  0  0  0  0  0  0  0  0  0
    5.0779   -3.6048   -0.9609 F   0  0  0  0  0  0  0  0  0  0  0  0
    4.6945   -2.0570    0.5277 F   0  0  0  0  0  0  0  0  0  0  0  0
   -3.1554    4.4268   -0.5894 H   0  0  0  0  0  0  0  0  0  0  0  0
   -4.8499    3.8625   -0.6120 H   0  0  0  0  0  0  0  0  0  0  0  0
   -3.6537    3.0872   -1.6597 H   0  0  0  0  0  0  0  0  0  0  0  0
   -2.0915    1.7573   -0.8265 H   0  0  0  0  0  0  0  0  0  0  0  0
   -3.2802    0.8257    2.6085 H   0  0  0  0  0  0  0  0  0  0  0  0
   -2.3227   -1.0868    3.7953 H   0  0  0  0  0  0  0  0  0  0  0  0
   -0.5242   -2.4474    2.7597 H   0  0  0  0  0  0  0  0  0  0  0  0
    0.3333   -1.8690    0.5236 H   0  0  0  0  0  0  0  0  0  0  0  0
    1.3045    0.7803    0.0237 H   0  0  0  0  0  0  0  0  0  0  0  0
    1.0781    1.3365   -1.6320 H   0  0  0  0  0  0  0  0  0  0  0  0
    3.4545    0.2192   -0.7479 H   0  0  0  0  0  0  0  0  0  0  0  0
    4.9983   -1.1468   -1.9194 H   0  0  0  0  0  0  0  0  0  0  0  0
    3.6763   -2.0981   -2.6109 H   0  0  0  0  0  0  0  0  0  0  0  0
  1  2  1  0
  2  3  2  0
  2  4  1  0
  4  5  1  0
  5  6  2  0
  6  7  1  0
  7  8  2  0
  8  9  1  0
  9 10  2  0
 10 11  1  0
 11 12  1  0
 12 13  1  0
 13 14  2  0
 13 15  1  0
 15 16  1  0
 16 17  1  0
 17 18  1  0
 17 19  1  0
 17 20  1  0
 10  5  1  0
  1 21  1  0
  1 22  1  0
  1 23  1  0
  4 24  1  0
  6 25  1  0
  7 26  1  0
  8 27  1  0
  9 28  1  0
 12 29  1  0
 12 30  1  0
 15 31  1  0
 16 32  1  0
 16 33  1  0
M  END
$$$$
