
     RDKit          3D

 54 57  0  0  0  0  0  0  0  0999 V2000
   -2.6753   -4.5922   -1.9203 C   0  0  0  0  0  0  0  0  0  0  0  0
   -3.1504   -3.3350   -2.3871 O   0  0  0  0  0  0  0  0  0  0  0  0
   -2.8516   -2.2388   -1.6255 C   0  0  0  0  0  0  0  0  0  0  0  0
   -2.1637   -2.2478   -0.4089 C   0  0  0  0  0  0  0  0  0  0  0  0
   -1.9209   -1.0491    0.2690 C   0  0  0  0  0  0  0  0  0  0  0  0
   -2.3572    0.1564   -0.2837 C   0  0  0  0  0  0  0  0  0  0  0  0
   -2.0879    1.4241    0.4238 C   0  0  0  0  0  0  0  0  0  0  0  0
   -2.9797    1.8385    1.2662 N   0  0  0  0  0  0  0  0  0  0  0  0
   -2.7522    3.0370    1.9497 C   0  0  0  0  0  0  0  0  0  0  0  0
   -3.7244    3.5007    2.8395 C   0  0  0  0  0  0  0  0  0  0  0  0
   -3.5332    4.6906    3.5477 C   0  0  0  0  0  0  0  0  0  0  0  0
   -2.3627    5.4282    3.3713 C   0  0  0  0  0  0  0  0  0  0  0  0
   -1.3850    4.9753    2.4863 C   0  0  0  0  0  0  0  0  0  0  0  0
   -1.5894    3.7828    1.7812 C   0  0  0  0  0  0  0  0  0  0  0  0
   -0.5789    3.2718    0.8409 C   0  0  0  0  0  0  0  0  0  0  0  0
    0.4889    3.8670    0.7149 O   0  0  0  0  0  0  0  0  0  0  0  0
   -0.9016    2.1020    0.1544 N   0  0  0  0  0  0  0  0  0  0  0  0
    0.1128    1.6022   -0.7821 C   0  0  0  0  0  0  0  0  0  0  0  0
    1.2359    0.8411   -0.0714 C   0  0  0  0  0  0  0  0  0  0  0  0
    1.9789    0.1240   -1.0587 O   0  0  0  0  0  0  0  0  0  0  0  0
    2.8705   -0.8137   -0.6055 C   0  0  0  0  0  0  0  0  0  0  0  0
    3.3580   -0.8759    0.7052 C   0  0  0  0  0  0  0  0  0  0  0  0
    4.2679   -1.8727    1.0863 C   0  0  0  0  0  0  0  0  0  0  0  0
    4.8107   -1.9123    2.4848 C   0  0  0  0  0  0  0  0  0  0  0  0
    4.7131   -2.7902    0.1309 C   0  0  0  0  0  0  0  0  0  0  0  0
    4.2428   -2.7262   -1.1810 C   0  0  0  0  0  0  0  0  0  0  0  0
    3.3206   -1.7415   -1.5607 C   0  0  0  0  0  0  0  0  0  0  0  0
    2.8274   -1.6860   -2.9801 C   0  0  0  0  0  0  0  0  0  0  0  0
   -3.0643    0.1778   -1.4855 C   0  0  0  0  0  0  0  0  0  0  0  0
   -3.3043   -1.0237   -2.1539 C   0  0  0  0  0  0  0  0  0  0  0  0
   -1.5824   -4.6022   -1.8508 H   0  0  0  0  0  0  0  0  0  0  0  0
   -2.9689   -5.3522   -2.6504 H   0  0  0  0  0  0  0  0  0  0  0  0
   -3.1352   -4.8554   -0.9618 H   0  0  0  0  0  0  0  0  0  0  0  0
   -1.8089   -3.1690    0.0412 H   0  0  0  0  0  0  0  0  0  0  0  0
   -1.3984   -1.0614    1.2218 H   0  0  0  0  0  0  0  0  0  0  0  0
   -4.6369    2.9263    2.9794 H   0  0  0  0  0  0  0  0  0  0  0  0
   -4.2990    5.0393    4.2364 H   0  0  0  0  0  0  0  0  0  0  0  0
   -2.2125    6.3537    3.9220 H   0  0  0  0  0  0  0  0  0  0  0  0
   -0.4708    5.5472    2.3456 H   0  0  0  0  0  0  0  0  0  0  0  0
   -0.3426    0.9682   -1.5486 H   0  0  0  0  0  0  0  0  0  0  0  0
    0.5458    2.4491   -1.3300 H   0  0  0  0  0  0  0  0  0  0  0  0
    0.8045    0.1444    0.6566 H   0  0  0  0  0  0  0  0  0  0  0  0
    1.8911    1.5483    0.4500 H   0  0  0  0  0  0  0  0  0  0  0  0
    3.0536   -0.1467    1.4499 H   0  0  0  0  0  0  0  0  0  0  0  0
    5.7335   -1.3273    2.5444 H   0  0  0  0  0  0  0  0  0  0  0  0
    5.0229   -2.9415    2.7905 H   0  0  0  0  0  0  0  0  0  0  0  0
    4.0871   -1.5047    3.1984 H   0  0  0  0  0  0  0  0  0  0  0  0
    5.4354   -3.5575    0.3997 H   0  0  0  0  0  0  0  0  0  0  0  0
    4.6057   -3.4489   -1.9085 H   0  0  0  0  0  0  0  0  0  0  0  0
    3.2563   -2.4910   -3.5867 H   0  0  0  0  0  0  0  0  0  0  0  0
    1.7380   -1.7952   -3.0076 H   0  0  0  0  0  0  0  0  0  0  0  0
    3.1100   -0.7342   -3.4418 H   0  0  0  0  0  0  0  0  0  0  0  0
   -3.4247    1.1147   -1.9002 H   0  0  0  0  0  0  0  0  0  0  0  0
   -3.8483   -1.0178   -3.0953 H   0  0  0  0  0  0  0  0  0  0  0  0
  1  2  1  0
  2  3  1  0
  3  4  2  0
  4  5  1  0
  5  6  2  0
  6  7  1  0
  7  8  2  0
  8  9  1  0
  9 10  2  0
 10 11  1  0
 11 12  2  0
 12 13  1  0
 13 14  2  0
 14 15  1  0
 15 16  2  0
 15 17  1  0
 17 18  1  0
 18 19  1  0
 19 20  1  0
 20 21  1  0
 21 22  2  0
 22 23  1  0
 23 24  1  0
 23 25  2  0
 25 26  1  0
 26 27  2  0
 27 28  1  0
  6 29  1  0
 29 30  2  0
 30  3  1  0
 17  7  1  0
 27 21  1  0
 14  9  1  0
  1 31  1  0
  1 32  1  0
  1 33  1  0
  4 34  1  0
  5 35  1  0
 10 36  1  0
 11 37  1  0
 12 38  1  0
 13 39  1  0
 18 40  1  0
 18 41  1  0
 19 42  1  0
 19 43  1  0
 22 44  1  0
 24 45  1  0
 24 46  1  0
 24 47  1  0
 25 48  1  0
 26 49  1  0
 28 50  1  0
 28 51  1  0
 28 52  1  0
 29 53  1  0
 30 54  1  0
M  END
$$$$
