
     RDKit          3D

 29 30  0  0  0  0  0  0  0  0999 V2000
    4.6398    1.3244   -2.0871 O   0  0  0  0  0  0  0  0  0  0  0  0
    4.6502    1.3239   -0.8626 C   0  0  0  0  0  0  0  0  0  0  0  0
    3.5479    0.7418   -0.0725 C   0  0  0  0  0  0  0  0  0  0  0  0
    3.5860    0.8247    1.3232 C   0  0  0  0  0  0  0  0  0  0  0  0
    2.5492    0.2707    2.0769 C   0  0  0  0  0  0  0  0  0  0  0  0
    1.4770   -0.3547    1.4378 C   0  0  0  0  0  0  0  0  0  0  0  0
    1.4382   -0.4131    0.0420 C   0  0  0  0  0  0  0  0  0  0  0  0
    0.4191   -1.0528   -0.6255 O   0  0  0  0  0  0  0  0  0  0  0  0
   -0.8509   -0.5690   -0.4097 C   0  0  0  0  0  0  0  0  0  0  0  0
   -1.1509    0.7853   -0.6044 C   0  0  0  0  0  0  0  0  0  0  0  0
   -2.4652    1.2449   -0.4571 C   0  0  0  0  0  0  0  0  0  0  0  0
   -3.4900    0.3424   -0.1310 C   0  0  0  0  0  0  0  0  0  0  0  0
   -4.8672    0.8309    0.0220 N   0  0  0  0  0  4  0  0  0  0  0  0
   -5.7278    0.0129    0.3729 O   0  0  0  0  0  0  0  0  0  0  0  0
   -5.0804    2.0295   -0.2036 O   0  0  0  0  0  1  0  0  0  0  0  0
   -3.2133   -1.0179    0.0486 C   0  0  0  0  0  0  0  0  0  0  0  0
   -1.8894   -1.4519   -0.0968 C   0  0  0  0  0  0  0  0  0  0  0  0
   -1.6059   -2.8580    0.1064 N   0  0  0  0  0  4  0  0  0  0  0  0
   -0.8064   -3.1506    1.0047 O   0  0  0  0  0  0  0  0  0  0  0  0
   -2.2263   -3.6601   -0.6031 O   0  0  0  0  0  1  0  0  0  0  0  0
    2.4796    0.1149   -0.7184 C   0  0  0  0  0  0  0  0  0  0  0  0
    5.4854    1.7672   -0.2949 H   0  0  0  0  0  0  0  0  0  0  0  0
    4.4165    1.3066    1.8333 H   0  0  0  0  0  0  0  0  0  0  0  0
    2.5809    0.3146    3.1634 H   0  0  0  0  0  0  0  0  0  0  0  0
    0.6902   -0.8108    2.0333 H   0  0  0  0  0  0  0  0  0  0  0  0
   -0.3710    1.4901   -0.8873 H   0  0  0  0  0  0  0  0  0  0  0  0
   -2.6730    2.3035   -0.6103 H   0  0  0  0  0  0  0  0  0  0  0  0
   -4.0002   -1.7292    0.2944 H   0  0  0  0  0  0  0  0  0  0  0  0
    2.4583    0.0398   -1.8031 H   0  0  0  0  0  0  0  0  0  0  0  0
  1  2  2  0
  2  3  1  0
  3  4  2  0
  4  5  1  0
  5  6  2  0
  6  7  1  0
  7  8  1  0
  8  9  1  0
  9 10  2  0
 10 11  1  0
 11 12  2  0
 12 13  1  0
 13 14  2  0
 13 15  1  0
 12 16  1  0
 16 17  2  0
 17 18  1  0
 18 19  2  0
 18 20  1  0
  7 21  2  0
 21  3  1  0
 17  9  1  0
  2 22  1  0
  4 23  1  0
  5 24  1  0
  6 25  1  0
 10 26  1  0
 11 27  1  0
 16 28  1  0
 21 29  1  0
M  CHG  4  13   1  15  -1  18   1  20  -1
M  END
$$$$
