
     RDKit          3D

 44 47  0  0  0  0  0  0  0  0999 V2000
   -4.5891   -1.6435    3.1028 C   0  0  0  0  0  0  0  0  0  0  0  0
   -5.0877   -1.8625    1.6847 C   0  0  0  0  0  0  0  0  0  0  0  0
   -4.7325   -0.7703    0.8403 O   0  0  0  0  0  0  0  0  0  0  0  0
   -3.4923   -0.7291    0.2659 C   0  0  0  0  0  0  0  0  0  0  0  0
   -2.5153   -1.7196    0.3881 C   0  0  0  0  0  0  0  0  0  0  0  0
   -1.2573   -1.5597   -0.2086 C   0  0  0  0  0  0  0  0  0  0  0  0
   -0.9492   -0.3972   -0.9213 C   0  0  0  0  0  0  0  0  0  0  0  0
    0.3621   -0.2074   -1.5486 C   0  0  0  0  0  0  0  0  0  0  0  0
    1.5338   -0.0944   -0.9066 C   0  0  0  0  0  0  0  0  0  0  0  0
    1.8049   -0.1332    0.8266 S   0  0  0  0  0  0  0  0  0  0  0  0
    3.4832    0.0967    0.5616 C   0  0  0  0  0  0  0  0  0  0  0  0
    4.5374    0.1905    1.3178 N   0  0  0  0  0  0  0  0  0  0  0  0
    5.5399    0.3652    0.3748 C   0  0  0  0  0  0  0  0  0  0  0  0
    7.0413    0.5357    0.7790 C   0  0  0  0  0  0  0  0  0  0  0  0
    8.0987    0.7158   -0.0931 C   0  0  0  0  0  0  0  0  0  0  0  0
    9.2673    0.8239    0.6995 C   0  0  0  0  0  0  0  0  0  0  0  0
    8.8537    0.7034    2.0050 C   0  0  0  0  0  0  0  0  0  0  0  0
    7.5089    0.5294    2.0644 O   0  0  0  0  0  0  0  0  0  0  0  0
    5.1257    0.3755   -0.9110 N   0  0  0  0  0  0  0  0  0  0  0  0
    3.8036    0.2005   -0.7429 N   0  0  0  0  0  0  0  0  0  0  0  0
    2.7973    0.1109   -1.6803 C   0  0  0  0  0  0  0  0  0  0  0  0
    2.9709    0.1873   -2.8832 O   0  0  0  0  0  0  0  0  0  0  0  0
   -1.9251    0.5905   -1.0611 C   0  0  0  0  0  0  0  0  0  0  0  0
   -3.1896    0.4154   -0.4898 C   0  0  0  0  0  0  0  0  0  0  0  0
   -4.0711    1.4560   -0.6567 O   0  0  0  0  0  0  0  0  0  0  0  0
   -5.1822    1.0778   -1.4774 C   0  0  0  0  0  0  0  0  0  0  0  0
   -5.8048    2.3475   -2.0323 C   0  0  0  0  0  0  0  0  0  0  0  0
   -3.4965   -1.6082    3.1441 H   0  0  0  0  0  0  0  0  0  0  0  0
   -4.9522   -0.6865    3.4920 H   0  0  0  0  0  0  0  0  0  0  0  0
   -4.9351   -2.4454    3.7614 H   0  0  0  0  0  0  0  0  0  0  0  0
   -4.7770   -2.8285    1.2733 H   0  0  0  0  0  0  0  0  0  0  0  0
   -6.1833   -1.8886    1.7069 H   0  0  0  0  0  0  0  0  0  0  0  0
   -2.6876   -2.6301    0.9515 H   0  0  0  0  0  0  0  0  0  0  0  0
   -0.5214   -2.3534   -0.0987 H   0  0  0  0  0  0  0  0  0  0  0  0
    0.3328   -0.1337   -2.6361 H   0  0  0  0  0  0  0  0  0  0  0  0
    8.0251    0.7613   -1.1714 H   0  0  0  0  0  0  0  0  0  0  0  0
   10.2835    0.9702    0.3619 H   0  0  0  0  0  0  0  0  0  0  0  0
    9.3642    0.7186    2.9584 H   0  0  0  0  0  0  0  0  0  0  0  0
   -1.7181    1.5049   -1.6116 H   0  0  0  0  0  0  0  0  0  0  0  0
   -4.8628    0.4384   -2.3115 H   0  0  0  0  0  0  0  0  0  0  0  0
   -5.9319    0.5476   -0.8795 H   0  0  0  0  0  0  0  0  0  0  0  0
   -6.1254    3.0079   -1.2185 H   0  0  0  0  0  0  0  0  0  0  0  0
   -6.6702    2.1141   -2.6588 H   0  0  0  0  0  0  0  0  0  0  0  0
   -5.0766    2.9061   -2.6306 H   0  0  0  0  0  0  0  0  0  0  0  0
  1  2  1  0
  2  3  1  0
  3  4  1  0
  4  5  2  0
  5  6  1  0
  6  7  2  0
  7  8  1  0
  8  9  2  3
  9 10  1  0
 10 11  1  0
 11 12  2  0
 12 13  1  0
 13 14  1  0
 14 15  2  0
 15 16  1  0
 16 17  2  0
 17 18  1  0
 13 19  2  0
 19 20  1  0
 20 21  1  0
 21 22  2  0
  7 23  1  0
 23 24  2  0
 24 25  1  0
 25 26  1  0
 26 27  1  0
 24  4  1  0
 21  9  1  0
 20 11  1  0
 18 14  1  0
  1 28  1  0
  1 29  1  0
  1 30  1  0
  2 31  1  0
  2 32  1  0
  5 33  1  0
  6 34  1  0
  8 35  1  0
 15 36  1  0
 16 37  1  0
 17 38  1  0
 23 39  1  0
 26 40  1  0
 26 41  1  0
 27 42  1  0
 27 43  1  0
 27 44  1  0
M  END
$$$$
