
     RDKit          3D

 45 47  0  0  0  0  0  0  0  0999 V2000
    8.9000    0.4147    0.1117 C   0  0  0  0  0  0  0  0  0  0  0  0
    8.2497   -0.9586    0.1762 C   0  0  0  0  0  0  0  0  0  0  0  0
    6.7235   -0.9070    0.2747 C   0  0  0  0  0  0  0  0  0  0  0  0
    6.0556   -0.3288   -0.9754 C   0  0  0  0  0  0  0  0  0  0  0  0
    4.5668   -0.4240   -0.8873 C   0  0  0  0  0  0  0  0  0  0  0  0
    3.8581   -1.4675   -1.2658 N   0  0  0  0  0  0  0  0  0  0  0  0
    2.5063   -1.2717   -1.0645 N   0  0  0  0  0  0  0  0  0  0  0  0
    2.2463   -0.0926   -0.5448 C   0  0  0  0  0  0  0  0  0  0  0  0
    0.9699    0.3144   -0.2608 N   0  0  0  0  0  0  0  0  0  0  0  0
    0.5717    1.5138    0.2803 C   0  0  0  0  0  0  0  0  0  0  0  0
    1.2914    2.4514    0.6123 O   0  0  0  0  0  0  0  0  0  0  0  0
   -0.9471    1.6120    0.4555 C   0  0  0  0  0  0  0  0  0  0  0  0
   -1.5995    0.4244    0.0128 O   0  0  0  0  0  0  0  0  0  0  0  0
   -2.9619    0.3888    0.1179 C   0  0  0  0  0  0  0  0  0  0  0  0
   -3.7751    1.4064    0.6182 C   0  0  0  0  0  0  0  0  0  0  0  0
   -5.1686    1.2423    0.6720 C   0  0  0  0  0  0  0  0  0  0  0  0
   -5.7726    0.0608    0.2276 C   0  0  0  0  0  0  0  0  0  0  0  0
   -7.2222   -0.1751    0.2561 C   0  0  0  0  0  0  0  0  0  0  0  0
   -8.1502    0.8795    0.7822 C   0  0  0  0  0  0  0  0  0  0  0  0
   -7.6837   -1.3498   -0.1979 C   0  0  0  0  0  0  0  0  0  0  0  0
   -6.8162   -2.4156   -0.7233 C   0  0  0  0  0  0  0  0  0  0  0  0
   -7.2946   -3.4699   -1.1252 O   0  0  0  0  0  0  0  0  0  0  0  0
   -5.4557   -2.1639   -0.7373 O   0  0  0  0  0  0  0  0  0  0  0  0
   -4.9386   -0.9412   -0.2679 C   0  0  0  0  0  0  0  0  0  0  0  0
   -3.5519   -0.7924   -0.3276 C   0  0  0  0  0  0  0  0  0  0  0  0
    3.6238    0.8679   -0.2618 S   0  0  0  0  0  0  0  0  0  0  0  0
    9.9899    0.3155    0.1413 H   0  0  0  0  0  0  0  0  0  0  0  0
    8.5933    1.0352    0.9596 H   0  0  0  0  0  0  0  0  0  0  0  0
    8.6409    0.9386   -0.8129 H   0  0  0  0  0  0  0  0  0  0  0  0
    8.5479   -1.5455   -0.7003 H   0  0  0  0  0  0  0  0  0  0  0  0
    8.6365   -1.4856    1.0566 H   0  0  0  0  0  0  0  0  0  0  0  0
    6.3569   -1.9281    0.4429 H   0  0  0  0  0  0  0  0  0  0  0  0
    6.4325   -0.3262    1.1592 H   0  0  0  0  0  0  0  0  0  0  0  0
    6.3892   -0.8835   -1.8610 H   0  0  0  0  0  0  0  0  0  0  0  0
    6.3565    0.7140   -1.1264 H   0  0  0  0  0  0  0  0  0  0  0  0
    0.2510   -0.3654   -0.4838 H   0  0  0  0  0  0  0  0  0  0  0  0
   -1.1361    1.7704    1.5236 H   0  0  0  0  0  0  0  0  0  0  0  0
   -1.2825    2.4704   -0.1381 H   0  0  0  0  0  0  0  0  0  0  0  0
   -3.3654    2.3455    0.9776 H   0  0  0  0  0  0  0  0  0  0  0  0
   -5.7635    2.0611    1.0694 H   0  0  0  0  0  0  0  0  0  0  0  0
   -9.1971    0.5587    0.7394 H   0  0  0  0  0  0  0  0  0  0  0  0
   -8.0692    1.7984    0.1919 H   0  0  0  0  0  0  0  0  0  0  0  0
   -7.9248    1.1089    1.8291 H   0  0  0  0  0  0  0  0  0  0  0  0
   -8.7416   -1.5877   -0.2048 H   0  0  0  0  0  0  0  0  0  0  0  0
   -2.9392   -1.5989   -0.7213 H   0  0  0  0  0  0  0  0  0  0  0  0
  1  2  1  0
  2  3  1  0
  3  4  1  0
  4  5  1  0
  5  6  2  0
  6  7  1  0
  7  8  2  0
  8  9  1  0
  9 10  1  0
 10 11  2  0
 10 12  1  0
 12 13  1  0
 13 14  1  0
 14 15  2  0
 15 16  1  0
 16 17  2  0
 17 18  1  0
 18 19  1  0
 18 20  2  0
 20 21  1  0
 21 22  2  0
 21 23  1  0
 23 24  1  0
 24 25  2  0
  8 26  1  0
 26  5  1  0
 25 14  1  0
 24 17  1  0
  1 27  1  0
  1 28  1  0
  1 29  1  0
  2 30  1  0
  2 31  1  0
  3 32  1  0
  3 33  1  0
  4 34  1  0
  4 35  1  0
  9 36  1  0
 12 37  1  0
 12 38  1  0
 15 39  1  0
 16 40  1  0
 19 41  1  0
 19 42  1  0
 19 43  1  0
 20 44  1  0
 25 45  1  0
M  END
$$$$
