
     RDKit          3D

 44 46  0  0  0  0  0  0  0  0999 V2000
   -1.2424    3.0562   -0.5190 C   0  0  0  0  0  0  0  0  0  0  0  0
   -2.5164    2.2300   -0.7083 C   0  0  0  0  0  0  0  0  0  0  0  0
   -3.6215    2.7045    0.2387 C   0  0  0  0  0  0  0  0  0  0  0  0
   -2.2351    0.7452   -0.5536 C   0  0  0  0  0  0  0  0  0  0  0  0
   -1.8365    0.1958    0.6762 C   0  0  0  0  0  0  0  0  0  0  0  0
   -1.5813   -1.1710    0.7979 C   0  0  0  0  0  0  0  0  0  0  0  0
   -1.7056   -1.9966   -0.3211 C   0  0  0  0  0  0  0  0  0  0  0  0
   -1.3771   -3.7385   -0.1762 S   0  0  0  0  0  6  0  0  0  0  0  0
   -2.1431   -4.4135   -1.2035 O   0  0  0  0  0  0  0  0  0  0  0  0
   -1.5042   -4.1080    1.2171 O   0  0  0  0  0  0  0  0  0  0  0  0
    0.2428   -3.8573   -0.6481 N   0  0  0  0  0  0  0  0  0  0  0  0
    1.2176   -3.0639    0.0185 C   0  0  0  0  0  0  0  0  0  0  0  0
    1.5167   -3.2874    1.3602 C   0  0  0  0  0  0  0  0  0  0  0  0
    2.4455   -2.4744    2.0068 C   0  0  0  0  0  0  0  0  0  0  0  0
    3.0624   -1.4338    1.3139 C   0  0  0  0  0  0  0  0  0  0  0  0
    3.9477   -0.6821    2.0359 O   0  0  0  0  0  0  0  0  0  0  0  0
    2.7777   -1.1982   -0.0388 C   0  0  0  0  0  0  0  0  0  0  0  0
    3.5975    0.0355   -1.0381 S   0  0  0  0  0  0  0  0  0  0  0  0
    3.1175    1.5288   -0.2873 C   0  0  0  0  0  0  0  0  0  0  0  0
    3.2848    1.7680    1.0534 N   0  0  0  0  0  0  0  0  0  0  0  0
    2.8506    2.9999    1.1873 C   0  0  0  0  0  0  0  0  0  0  0  0
    2.4611    3.4781   -0.0238 N   0  0  0  0  0  0  0  0  0  0  0  0
    2.6301    2.5575   -0.9852 N   0  0  0  0  0  0  0  0  0  0  0  0
    1.8486   -2.0314   -0.6807 C   0  0  0  0  0  0  0  0  0  0  0  0
   -2.1142   -1.4736   -1.5495 C   0  0  0  0  0  0  0  0  0  0  0  0
   -2.3722   -0.1062   -1.6624 C   0  0  0  0  0  0  0  0  0  0  0  0
   -1.4400    4.1182   -0.6997 H   0  0  0  0  0  0  0  0  0  0  0  0
   -0.8386    2.9596    0.4948 H   0  0  0  0  0  0  0  0  0  0  0  0
   -0.4643    2.7365   -1.2206 H   0  0  0  0  0  0  0  0  0  0  0  0
   -2.8726    2.4131   -1.7308 H   0  0  0  0  0  0  0  0  0  0  0  0
   -4.5337    2.1128    0.1033 H   0  0  0  0  0  0  0  0  0  0  0  0
   -3.3245    2.6254    1.2900 H   0  0  0  0  0  0  0  0  0  0  0  0
   -3.8703    3.7533    0.0434 H   0  0  0  0  0  0  0  0  0  0  0  0
   -1.7228    0.8284    1.5539 H   0  0  0  0  0  0  0  0  0  0  0  0
   -1.2797   -1.5788    1.7605 H   0  0  0  0  0  0  0  0  0  0  0  0
    0.3339   -3.9814   -1.6551 H   0  0  0  0  0  0  0  0  0  0  0  0
    1.0394   -4.0956    1.9094 H   0  0  0  0  0  0  0  0  0  0  0  0
    2.6858   -2.6471    3.0527 H   0  0  0  0  0  0  0  0  0  0  0  0
    3.9582    0.2187    1.6484 H   0  0  0  0  0  0  0  0  0  0  0  0
    2.8014    3.5775    2.0998 H   0  0  0  0  0  0  0  0  0  0  0  0
    2.0875    4.3896   -0.2656 H   0  0  0  0  0  0  0  0  0  0  0  0
    1.6133   -1.8682   -1.7295 H   0  0  0  0  0  0  0  0  0  0  0  0
   -2.2375   -2.1172   -2.4174 H   0  0  0  0  0  0  0  0  0  0  0  0
   -2.6866    0.2916   -2.6256 H   0  0  0  0  0  0  0  0  0  0  0  0
  1  2  1  0
  2  3  1  0
  2  4  1  0
  4  5  2  0
  5  6  1  0
  6  7  2  0
  7  8  1  0
  8  9  2  0
  8 10  2  0
  8 11  1  0
 11 12  1  0
 12 13  2  0
 13 14  1  0
 14 15  2  0
 15 16  1  0
 15 17  1  0
 17 18  1  0
 18 19  1  0
 19 20  1  0
 20 21  2  0
 21 22  1  0
 22 23  1  0
 17 24  2  0
  7 25  1  0
 25 26  2  0
 26  4  1  0
 24 12  1  0
 23 19  2  0
  1 27  1  0
  1 28  1  0
  1 29  1  0
  2 30  1  0
  3 31  1  0
  3 32  1  0
  3 33  1  0
  5 34  1  0
  6 35  1  0
 11 36  1  0
 13 37  1  0
 14 38  1  0
 16 39  1  0
 21 40  1  0
 22 41  1  0
 24 42  1  0
 25 43  1  0
 26 44  1  0
M  END
$$$$
