
     RDKit          3D

 59 61  0  0  0  0  0  0  0  0999 V2000
   -7.5562    3.8259   -1.0551 C   0  0  0  0  0  0  0  0  0  0  0  0
   -6.7578    2.7127   -1.7126 C   0  0  0  0  0  0  0  0  0  0  0  0
   -5.4099    3.1660   -1.8501 O   0  0  0  0  0  0  0  0  0  0  0  0
   -4.4466    2.1893   -1.8976 C   0  0  0  0  0  0  0  0  0  0  0  0
   -3.2589    2.5498   -1.2440 C   0  0  0  0  0  0  0  0  0  0  0  0
   -2.1834    1.6675   -1.2114 C   0  0  0  0  0  0  0  0  0  0  0  0
   -1.0131    2.0130   -0.5392 N   0  0  0  0  0  0  0  0  0  0  0  0
    0.0879    1.2046   -0.4519 C   0  0  0  0  0  0  0  0  0  0  0  0
    1.3803    1.7995    0.4416 S   0  0  0  0  0  0  0  0  0  0  0  0
    0.0194   -0.0260   -1.1058 N   0  0  0  0  0  0  0  0  0  0  0  0
    1.1435   -0.9766   -1.0790 C   0  0  0  0  0  0  0  0  0  0  0  0
    1.0461   -1.9325    0.1046 C   0  0  0  0  0  0  0  0  0  0  0  0
    2.3291   -2.7151    0.2243 C   0  0  0  0  0  0  0  0  0  0  0  0
    2.4806   -3.8134   -0.3008 O   0  0  0  0  0  0  0  0  0  0  0  0
    3.3147   -2.0734    0.9353 N   0  0  0  0  0  0  0  0  0  0  0  0
    4.6229   -2.6649    1.0818 C   0  0  0  0  0  0  0  0  0  0  0  0
    5.5004   -1.8147    1.9595 C   0  0  0  0  0  0  0  0  0  0  0  0
    5.4635   -1.9577    3.3532 C   0  0  0  0  0  0  0  0  0  0  0  0
    6.2618   -1.1532    4.1745 C   0  0  0  0  0  0  0  0  0  0  0  0
    7.1014   -0.1911    3.6124 C   0  0  0  0  0  0  0  0  0  0  0  0
    7.9324    0.6523    4.2973 O   0  0  0  0  0  0  0  0  0  0  0  0
    7.9233    0.5530    5.7161 C   0  0  0  0  0  0  0  0  0  0  0  0
    7.1294   -0.0382    2.2244 C   0  0  0  0  0  0  0  0  0  0  0  0
    6.3332   -0.8374    1.4013 C   0  0  0  0  0  0  0  0  0  0  0  0
   -1.1275   -0.4783   -1.7778 C   0  0  0  0  0  0  0  0  0  0  0  0
   -1.2248   -1.5861   -2.3040 O   0  0  0  0  0  0  0  0  0  0  0  0
   -2.2808    0.4372   -1.8378 C   0  0  0  0  0  0  0  0  0  0  0  0
   -3.4534    0.0743   -2.5139 C   0  0  0  0  0  0  0  0  0  0  0  0
   -4.5416    0.9534   -2.5673 C   0  0  0  0  0  0  0  0  0  0  0  0
   -5.7048    0.6782   -3.2315 O   0  0  0  0  0  0  0  0  0  0  0  0
   -5.7248   -0.3577   -4.2150 C   0  0  0  0  0  0  0  0  0  0  0  0
   -6.2365   -1.6547   -3.6120 C   0  0  0  0  0  0  0  0  0  0  0  0
   -8.6016    3.5308   -0.9220 H   0  0  0  0  0  0  0  0  0  0  0  0
   -7.1326    4.0802   -0.0769 H   0  0  0  0  0  0  0  0  0  0  0  0
   -7.5210    4.7354   -1.6637 H   0  0  0  0  0  0  0  0  0  0  0  0
   -6.8183    1.8143   -1.0853 H   0  0  0  0  0  0  0  0  0  0  0  0
   -7.1836    2.5157   -2.7013 H   0  0  0  0  0  0  0  0  0  0  0  0
   -3.1989    3.5209   -0.7579 H   0  0  0  0  0  0  0  0  0  0  0  0
   -0.9529    2.9117   -0.0714 H   0  0  0  0  0  0  0  0  0  0  0  0
    1.1559   -1.5540   -2.0131 H   0  0  0  0  0  0  0  0  0  0  0  0
    2.0934   -0.4303   -1.0690 H   0  0  0  0  0  0  0  0  0  0  0  0
    0.2135   -2.6341   -0.0213 H   0  0  0  0  0  0  0  0  0  0  0  0
    0.8605   -1.3975    1.0430 H   0  0  0  0  0  0  0  0  0  0  0  0
    3.1697   -1.1333    1.2836 H   0  0  0  0  0  0  0  0  0  0  0  0
    5.0640   -2.7824    0.0848 H   0  0  0  0  0  0  0  0  0  0  0  0
    4.5145   -3.6727    1.4997 H   0  0  0  0  0  0  0  0  0  0  0  0
    4.8121   -2.7020    3.8095 H   0  0  0  0  0  0  0  0  0  0  0  0
    6.2034   -1.3068    5.2471 H   0  0  0  0  0  0  0  0  0  0  0  0
    6.9338    0.7963    6.1214 H   0  0  0  0  0  0  0  0  0  0  0  0
    8.2555   -0.4388    6.0454 H   0  0  0  0  0  0  0  0  0  0  0  0
    8.6342    1.2885    6.1081 H   0  0  0  0  0  0  0  0  0  0  0  0
    7.7765    0.7162    1.7792 H   0  0  0  0  0  0  0  0  0  0  0  0
    6.3707   -0.6925    0.3233 H   0  0  0  0  0  0  0  0  0  0  0  0
   -3.4886   -0.9043   -2.9844 H   0  0  0  0  0  0  0  0  0  0  0  0
   -4.7619   -0.4830   -4.7212 H   0  0  0  0  0  0  0  0  0  0  0  0
   -6.4311   -0.0352   -4.9900 H   0  0  0  0  0  0  0  0  0  0  0  0
   -7.2256   -1.5054   -3.1660 H   0  0  0  0  0  0  0  0  0  0  0  0
   -6.3105   -2.4323   -4.3769 H   0  0  0  0  0  0  0  0  0  0  0  0
   -5.5810   -2.0110   -2.8115 H   0  0  0  0  0  0  0  0  0  0  0  0
  1  2  1  0
  2  3  1  0
  3  4  1  0
  4  5  2  0
  5  6  1  0
  6  7  1  0
  7  8  1  0
  8  9  2  0
  8 10  1  0
 10 11  1  0
 11 12  1  0
 12 13  1  0
 13 14  2  0
 13 15  1  0
 15 16  1  0
 16 17  1  0
 17 18  2  0
 18 19  1  0
 19 20  2  0
 20 21  1  0
 21 22  1  0
 20 23  1  0
 23 24  2  0
 10 25  1  0
 25 26  2  0
 25 27  1  0
 27 28  1  0
 28 29  2  0
 29 30  1  0
 30 31  1  0
 31 32  1  0
 29  4  1  0
 27  6  2  0
 24 17  1  0
  1 33  1  0
  1 34  1  0
  1 35  1  0
  2 36  1  0
  2 37  1  0
  5 38  1  0
  7 39  1  0
 11 40  1  0
 11 41  1  0
 12 42  1  0
 12 43  1  0
 15 44  1  0
 16 45  1  0
 16 46  1  0
 18 47  1  0
 19 48  1  0
 22 49  1  0
 22 50  1  0
 22 51  1  0
 23 52  1  0
 24 53  1  0
 28 54  1  0
 31 55  1  0
 31 56  1  0
 32 57  1  0
 32 58  1  0
 32 59  1  0
M  END
$$$$
