
     RDKit          3D

 53 58  0  0  0  0  0  0  0  0999 V2000
   -0.9356    0.3842    1.9925 O   0  0  0  0  0  0  0  0  0  0  0  0
   -1.4795    0.5637    0.8984 C   0  0  0  0  0  0  0  0  0  0  0  0
   -0.7479    1.4523   -0.1326 C   0  0  0  0  0  0  0  0  0  0  0  0
    0.7046    1.1986   -0.0833 N   0  0  0  0  0  4  0  0  0  0  0  0
    1.4320    0.3520   -0.9187 C   0  0  0  0  0  0  0  0  0  0  0  0
    2.7554    0.3264   -0.4938 C   0  0  0  0  0  0  0  0  0  0  0  0
    3.9347   -0.4710   -1.1618 C   0  0  0  0  0  0  0  0  0  0  0  0
    5.2419   -0.3446   -0.6851 C   0  0  0  0  0  0  0  0  0  0  0  0
    6.2837   -1.0578   -1.2890 C   0  0  0  0  0  0  0  0  0  0  0  0
    6.0206   -1.8954   -2.3696 C   0  0  0  0  0  0  0  0  0  0  0  0
    7.3021   -2.7690   -3.1085 Cl  0  0  0  0  0  0  0  0  0  0  0  0
    4.7222   -2.0243   -2.8543 C   0  0  0  0  0  0  0  0  0  0  0  0
    3.6785   -1.3121   -2.2535 C   0  0  0  0  0  0  0  0  0  0  0  0
    2.7478    1.1493    0.6184 N   0  0  0  0  0  0  0  0  0  0  0  0
    1.5375    1.6527    0.8479 C   0  0  0  0  0  0  0  0  0  0  0  0
    1.4914    2.5460    2.0288 C   0  0  0  0  0  0  0  0  0  0  0  0
    2.8277    2.2244    2.7252 C   0  0  0  0  0  0  0  0  0  0  0  0
    3.7110    1.5780    1.6233 C   0  0  0  0  0  0  0  0  0  0  0  0
   -2.6465   -0.0719    0.4389 N   0  0  0  0  0  0  0  0  0  0  0  0
   -3.0480   -1.3673    0.9395 C   0  0  0  0  0  0  0  0  0  0  0  0
   -2.7538   -1.7659    2.2558 C   0  0  0  0  0  0  0  0  0  0  0  0
   -3.1284   -3.0229    2.7442 C   0  0  0  0  0  0  0  0  0  0  0  0
   -3.8023   -3.9172    1.9248 C   0  0  0  0  0  0  0  0  0  0  0  0
   -4.1021   -3.5531    0.6164 C   0  0  0  0  0  0  0  0  0  0  0  0
   -3.7342   -2.2905    0.1241 C   0  0  0  0  0  0  0  0  0  0  0  0
   -4.0846   -1.9582   -1.5881 S   0  0  0  0  0  0  0  0  0  0  0  0
   -4.2240   -0.1963   -1.4888 C   0  0  0  0  0  0  0  0  0  0  0  0
   -5.0416    0.4533   -2.4248 C   0  0  0  0  0  0  0  0  0  0  0  0
   -5.1925    1.8377   -2.3958 C   0  0  0  0  0  0  0  0  0  0  0  0
   -4.5375    2.5806   -1.4222 C   0  0  0  0  0  0  0  0  0  0  0  0
   -3.7134    1.9397   -0.4937 C   0  0  0  0  0  0  0  0  0  0  0  0
   -3.5161    0.5443   -0.5301 C   0  0  0  0  0  0  0  0  0  0  0  0
   -1.0742    1.2537   -1.1571 H   0  0  0  0  0  0  0  0  0  0  0  0
   -0.9159    2.5057    0.1106 H   0  0  0  0  0  0  0  0  0  0  0  0
    0.9079   -0.1285   -1.7275 H   0  0  0  0  0  0  0  0  0  0  0  0
    5.4936    0.3063    0.1424 H   0  0  0  0  0  0  0  0  0  0  0  0
    7.3001   -0.9543   -0.9143 H   0  0  0  0  0  0  0  0  0  0  0  0
    4.5170   -2.6791   -3.6989 H   0  0  0  0  0  0  0  0  0  0  0  0
    2.6797   -1.4448   -2.6595 H   0  0  0  0  0  0  0  0  0  0  0  0
    1.4574    3.5670    1.6422 H   0  0  0  0  0  0  0  0  0  0  0  0
    0.6194    2.3151    2.6388 H   0  0  0  0  0  0  0  0  0  0  0  0
    2.6507    1.4861    3.5163 H   0  0  0  0  0  0  0  0  0  0  0  0
    3.2934    3.1017    3.1820 H   0  0  0  0  0  0  0  0  0  0  0  0
    4.2705    0.7273    2.0189 H   0  0  0  0  0  0  0  0  0  0  0  0
    4.3837    2.3143    1.1740 H   0  0  0  0  0  0  0  0  0  0  0  0
   -2.2683   -1.0996    2.9626 H   0  0  0  0  0  0  0  0  0  0  0  0
   -2.8995   -3.2954    3.7725 H   0  0  0  0  0  0  0  0  0  0  0  0
   -4.0954   -4.8942    2.3021 H   0  0  0  0  0  0  0  0  0  0  0  0
   -4.6232   -4.2656   -0.0207 H   0  0  0  0  0  0  0  0  0  0  0  0
   -5.5804   -0.1192   -3.1788 H   0  0  0  0  0  0  0  0  0  0  0  0
   -5.8428    2.3291   -3.1168 H   0  0  0  0  0  0  0  0  0  0  0  0
   -4.6911    3.6570   -1.3706 H   0  0  0  0  0  0  0  0  0  0  0  0
   -3.2857    2.5516    0.2971 H   0  0  0  0  0  0  0  0  0  0  0  0
  1  2  2  0
  2  3  1  0
  3  4  1  0
  4  5  1  0
  5  6  2  0
  6  7  1  0
  7  8  2  0
  8  9  1  0
  9 10  2  0
 10 11  1  0
 10 12  1  0
 12 13  2  0
  6 14  1  0
 14 15  1  0
 15 16  1  0
 16 17  1  0
 17 18  1  0
  2 19  1  0
 19 20  1  0
 20 21  2  0
 21 22  1  0
 22 23  2  0
 23 24  1  0
 24 25  2  0
 25 26  1  0
 26 27  1  0
 27 28  2  0
 28 29  1  0
 29 30  2  0
 30 31  1  0
 31 32  2  0
 15  4  2  0
 32 19  1  0
 13  7  1  0
 18 14  1  0
 25 20  1  0
 32 27  1  0
  3 33  1  0
  3 34  1  0
  5 35  1  0
  8 36  1  0
  9 37  1  0
 12 38  1  0
 13 39  1  0
 16 40  1  0
 16 41  1  0
 17 42  1  0
 17 43  1  0
 18 44  1  0
 18 45  1  0
 21 46  1  0
 22 47  1  0
 23 48  1  0
 24 49  1  0
 28 50  1  0
 29 51  1  0
 30 52  1  0
 31 53  1  0
M  CHG  1   4   1
M  END
$$$$
