
     RDKit          3D

 44 46  0  0  0  0  0  0  0  0999 V2000
   -1.1527   -0.5441   -3.0807 C   0  0  0  0  0  0  0  0  0  0  0  0
   -2.2205   -0.1989   -2.0796 C   0  0  0  0  0  0  0  0  0  0  0  0
   -3.5655   -0.2037   -2.4713 C   0  0  0  0  0  0  0  0  0  0  0  0
   -4.5727    0.1055   -1.5566 C   0  0  0  0  0  0  0  0  0  0  0  0
   -4.2590    0.4271   -0.2298 C   0  0  0  0  0  0  0  0  0  0  0  0
   -5.3747    0.7742    0.7416 C   0  0  0  0  0  0  0  0  0  0  0  0
   -5.3306   -0.0831    2.0090 C   0  0  0  0  0  0  0  0  0  0  0  0
   -5.3541    2.2629    1.0911 C   0  0  0  0  0  0  0  0  0  0  0  0
   -2.9082    0.4359    0.1594 C   0  0  0  0  0  0  0  0  0  0  0  0
   -1.8926    0.1129   -0.7493 C   0  0  0  0  0  0  0  0  0  0  0  0
   -0.5558    0.0915   -0.4464 O   0  0  0  0  0  0  0  0  0  0  0  0
   -0.2026    0.0958    0.9344 C   0  0  0  0  0  0  0  0  0  0  0  0
    1.2958   -0.1681    1.1147 C   0  0  0  0  0  0  0  0  0  0  0  0
    1.7817   -0.2333    2.2419 O   0  0  0  0  0  0  0  0  0  0  0  0
    1.9594   -0.2986   -0.0843 N   0  0  0  0  0  0  0  0  0  0  0  0
    3.2929   -0.5387   -0.2818 C   0  0  0  0  0  0  0  0  0  0  0  0
    3.8278   -0.5858   -1.4842 N   0  0  0  0  0  0  0  0  0  0  0  0
    5.1886   -0.8223   -1.4385 N   0  0  0  0  0  0  0  0  0  0  0  0
    5.6133   -0.9517   -0.2003 C   0  0  0  0  0  0  0  0  0  0  0  0
    7.1185   -1.2335    0.1069 C   0  0  0  0  0  0  0  0  0  0  0  0
    8.0741   -0.0647    0.0843 C   0  0  0  0  0  0  0  0  0  0  0  0
    7.7715   -0.7604    1.3803 C   0  0  0  0  0  0  0  0  0  0  0  0
    4.3927   -0.8208    0.9883 S   0  0  0  0  0  0  0  0  0  0  0  0
   -0.4273    0.2719   -3.1619 H   0  0  0  0  0  0  0  0  0  0  0  0
   -1.5749   -0.7101   -4.0770 H   0  0  0  0  0  0  0  0  0  0  0  0
   -0.6357   -1.4613   -2.7799 H   0  0  0  0  0  0  0  0  0  0  0  0
   -3.8403   -0.4498   -3.4955 H   0  0  0  0  0  0  0  0  0  0  0  0
   -5.6076    0.0956   -1.8932 H   0  0  0  0  0  0  0  0  0  0  0  0
   -6.3353    0.5648    0.2546 H   0  0  0  0  0  0  0  0  0  0  0  0
   -4.4499    0.1324    2.6208 H   0  0  0  0  0  0  0  0  0  0  0  0
   -5.3145   -1.1490    1.7604 H   0  0  0  0  0  0  0  0  0  0  0  0
   -6.2140    0.1035    2.6296 H   0  0  0  0  0  0  0  0  0  0  0  0
   -6.1963    2.5193    1.7436 H   0  0  0  0  0  0  0  0  0  0  0  0
   -5.4307    2.8769    0.1872 H   0  0  0  0  0  0  0  0  0  0  0  0
   -4.4322    2.5478    1.6085 H   0  0  0  0  0  0  0  0  0  0  0  0
   -2.6708    0.7114    1.1823 H   0  0  0  0  0  0  0  0  0  0  0  0
   -0.4120    1.0787    1.3705 H   0  0  0  0  0  0  0  0  0  0  0  0
   -0.7340   -0.6992    1.4705 H   0  0  0  0  0  0  0  0  0  0  0  0
    1.4194   -0.1771   -0.9350 H   0  0  0  0  0  0  0  0  0  0  0  0
    7.4754   -2.1660   -0.3187 H   0  0  0  0  0  0  0  0  0  0  0  0
    7.6709    0.9338   -0.0611 H   0  0  0  0  0  0  0  0  0  0  0  0
    9.0508   -0.2161   -0.3630 H   0  0  0  0  0  0  0  0  0  0  0  0
    7.1855   -0.2198    2.1184 H   0  0  0  0  0  0  0  0  0  0  0  0
    8.5463   -1.3859    1.8128 H   0  0  0  0  0  0  0  0  0  0  0  0
  1  2  1  0
  2  3  2  0
  3  4  1  0
  4  5  2  0
  5  6  1  0
  6  7  1  0
  6  8  1  0
  5  9  1  0
  9 10  2  0
 10 11  1  0
 11 12  1  0
 12 13  1  0
 13 14  2  0
 13 15  1  0
 15 16  1  0
 16 17  2  0
 17 18  1  0
 18 19  2  0
 19 20  1  0
 20 21  1  0
 21 22  1  0
 19 23  1  0
 10  2  1  0
 23 16  1  0
 22 20  1  0
  1 24  1  0
  1 25  1  0
  1 26  1  0
  3 27  1  0
  4 28  1  0
  6 29  1  0
  7 30  1  0
  7 31  1  0
  7 32  1  0
  8 33  1  0
  8 34  1  0
  8 35  1  0
  9 36  1  0
 12 37  1  0
 12 38  1  0
 15 39  1  0
 20 40  1  0
 21 41  1  0
 21 42  1  0
 22 43  1  0
 22 44  1  0
M  END
$$$$
