
     RDKit          3D

 60 63  0  0  0  0  0  0  0  0999 V2000
   -8.2066    1.9274   -0.7617 C   0  0  0  0  0  0  0  0  0  0  0  0
   -7.6210    1.5001    0.4611 O   0  0  0  0  0  0  0  0  0  0  0  0
   -6.2621    1.3264    0.4862 C   0  0  0  0  0  0  0  0  0  0  0  0
   -5.3960    1.6299   -0.5691 C   0  0  0  0  0  0  0  0  0  0  0  0
   -4.0192    1.4164   -0.4385 C   0  0  0  0  0  0  0  0  0  0  0  0
   -3.5089    0.8715    0.7431 C   0  0  0  0  0  0  0  0  0  0  0  0
   -1.7566    0.6272    0.9262 S   0  0  0  0  0  6  0  0  0  0  0  0
   -1.0983    1.4997   -0.0228 O   0  0  0  0  0  0  0  0  0  0  0  0
   -1.4578    0.7014    2.3409 O   0  0  0  0  0  0  0  0  0  0  0  0
   -1.4927   -0.9487    0.4346 N   0  0  0  0  0  0  0  0  0  0  0  0
   -2.0434   -2.0659    1.1998 C   0  0  0  0  0  0  0  0  0  0  0  0
   -1.8365   -3.2240    0.2479 C   0  0  0  0  0  0  0  0  0  0  0  0
   -2.0554   -2.6587   -1.0504 O   0  0  0  0  0  0  0  0  0  0  0  0
   -1.6306   -1.2807   -0.9931 C   0  0  0  0  0  0  0  0  0  0  0  0
   -0.2916   -1.1060   -1.7401 C   0  0  0  0  0  0  0  0  0  0  0  0
    0.8487   -1.6380   -1.0093 N   0  0  0  0  0  0  0  0  0  0  0  0
    2.0758   -1.7936   -1.6063 C   0  0  0  0  0  0  0  0  0  0  0  0
    2.3115   -1.7037   -2.8032 O   0  0  0  0  0  0  0  0  0  0  0  0
    3.2229   -2.0719   -0.6074 C   0  0  0  0  0  0  0  0  0  0  0  0
    2.9856   -2.1741    0.5884 O   0  0  0  0  0  0  0  0  0  0  0  0
    4.4583   -2.1538   -1.2052 N   0  0  0  0  0  0  0  0  0  0  0  0
    5.6792   -2.1717   -0.4437 C   0  0  0  0  0  0  0  0  0  0  0  0
    6.2173   -0.7749   -0.2648 C   0  0  0  0  0  0  0  0  0  0  0  0
    5.7715    0.0219    0.8169 C   0  0  0  0  0  0  0  0  0  0  0  0
    6.2300    1.3331    0.9857 C   0  0  0  0  0  0  0  0  0  0  0  0
    7.1249    1.8214    0.0593 C   0  0  0  0  0  0  0  0  0  0  0  0
    7.5591    1.0592   -1.0000 C   0  0  0  0  0  0  0  0  0  0  0  0
    7.1251   -0.2368   -1.1925 C   0  0  0  0  0  0  0  0  0  0  0  0
    8.4333    1.7310   -1.7970 O   0  0  0  0  0  0  0  0  0  0  0  0
    8.4847    3.0084   -1.1281 C   0  0  0  0  0  0  0  0  0  0  0  0
    7.6716    3.0674    0.0622 O   0  0  0  0  0  0  0  0  0  0  0  0
   -4.3547    0.5932    1.8177 C   0  0  0  0  0  0  0  0  0  0  0  0
   -5.7245    0.8294    1.6871 C   0  0  0  0  0  0  0  0  0  0  0  0
   -6.5810    0.5121    2.7138 O   0  0  0  0  0  0  0  0  0  0  0  0
   -6.3226    1.2984    3.8776 C   0  0  0  0  0  0  0  0  0  0  0  0
   -7.9977    1.2198   -1.5703 H   0  0  0  0  0  0  0  0  0  0  0  0
   -9.2918    1.9593   -0.6212 H   0  0  0  0  0  0  0  0  0  0  0  0
   -7.8754    2.9382   -1.0232 H   0  0  0  0  0  0  0  0  0  0  0  0
   -5.7604    2.0434   -1.5045 H   0  0  0  0  0  0  0  0  0  0  0  0
   -3.3592    1.6816   -1.2618 H   0  0  0  0  0  0  0  0  0  0  0  0
   -1.5258   -2.2204    2.1489 H   0  0  0  0  0  0  0  0  0  0  0  0
   -3.1132   -1.9273    1.3773 H   0  0  0  0  0  0  0  0  0  0  0  0
   -2.5361   -4.0469    0.4212 H   0  0  0  0  0  0  0  0  0  0  0  0
   -0.8133   -3.6129    0.2928 H   0  0  0  0  0  0  0  0  0  0  0  0
   -2.4117   -0.7012   -1.4908 H   0  0  0  0  0  0  0  0  0  0  0  0
   -0.3344   -1.6013   -2.7169 H   0  0  0  0  0  0  0  0  0  0  0  0
   -0.0832   -0.0435   -1.9096 H   0  0  0  0  0  0  0  0  0  0  0  0
    0.8575   -1.5341    0.0034 H   0  0  0  0  0  0  0  0  0  0  0  0
    4.4894   -1.9202   -2.1938 H   0  0  0  0  0  0  0  0  0  0  0  0
    5.5125   -2.6429    0.5313 H   0  0  0  0  0  0  0  0  0  0  0  0
    6.4000   -2.7911   -0.9879 H   0  0  0  0  0  0  0  0  0  0  0  0
    5.0526   -0.3837    1.5293 H   0  0  0  0  0  0  0  0  0  0  0  0
    5.8880    1.9471    1.8126 H   0  0  0  0  0  0  0  0  0  0  0  0
    7.4790   -0.8109   -2.0418 H   0  0  0  0  0  0  0  0  0  0  0  0
    8.1424    3.7818   -1.8249 H   0  0  0  0  0  0  0  0  0  0  0  0
    9.5242    3.2196   -0.8539 H   0  0  0  0  0  0  0  0  0  0  0  0
   -3.9570    0.1865    2.7437 H   0  0  0  0  0  0  0  0  0  0  0  0
   -6.1372    2.3508    3.6308 H   0  0  0  0  0  0  0  0  0  0  0  0
   -5.4791    0.8831    4.4403 H   0  0  0  0  0  0  0  0  0  0  0  0
   -7.2104    1.2524    4.5171 H   0  0  0  0  0  0  0  0  0  0  0  0
  1  2  1  0
  2  3  1  0
  3  4  2  0
  4  5  1  0
  5  6  2  0
  6  7  1  0
  7  8  2  0
  7  9  2  0
  7 10  1  0
 10 11  1  0
 11 12  1  0
 12 13  1  0
 13 14  1  0
 14 15  1  0
 15 16  1  0
 16 17  1  0
 17 18  2  0
 17 19  1  0
 19 20  2  0
 19 21  1  0
 21 22  1  0
 22 23  1  0
 23 24  2  0
 24 25  1  0
 25 26  2  0
 26 27  1  0
 27 28  2  0
 27 29  1  0
 29 30  1  0
 30 31  1  0
  6 32  1  0
 32 33  2  0
 33 34  1  0
 34 35  1  0
 33  3  1  0
 14 10  1  0
 28 23  1  0
 31 26  1  0
  1 36  1  0
  1 37  1  0
  1 38  1  0
  4 39  1  0
  5 40  1  0
 11 41  1  0
 11 42  1  0
 12 43  1  0
 12 44  1  0
 14 45  1  0
 15 46  1  0
 15 47  1  0
 16 48  1  0
 21 49  1  0
 22 50  1  0
 22 51  1  0
 24 52  1  0
 25 53  1  0
 28 54  1  0
 30 55  1  0
 30 56  1  0
 32 57  1  0
 35 58  1  0
 35 59  1  0
 35 60  1  0
M  END
$$$$
