
     RDKit          3D

 69 73  0  0  0  0  0  0  0  0999 V2000
    6.6094   -3.2361    2.0386 C   0  0  0  0  0  0  0  0  0  0  0  0
    6.1297   -3.5006    0.7259 O   0  0  0  0  0  0  0  0  0  0  0  0
    5.3007   -2.5642    0.1681 C   0  0  0  0  0  0  0  0  0  0  0  0
    4.8788   -2.8642   -1.1325 C   0  0  0  0  0  0  0  0  0  0  0  0
    4.0297   -1.9993   -1.8227 C   0  0  0  0  0  0  0  0  0  0  0  0
    3.5523   -2.1820   -3.0918 O   0  0  0  0  0  0  0  0  0  0  0  0
    3.9248   -3.3865   -3.7500 C   0  0  0  0  0  0  0  0  0  0  0  0
    3.6030   -0.8238   -1.2027 C   0  0  0  0  0  0  0  0  0  0  0  0
    4.0147   -0.5075    0.0980 C   0  0  0  0  0  0  0  0  0  0  0  0
    3.5407    0.7237    0.7420 C   0  0  0  0  0  0  0  0  0  0  0  0
    4.6816    1.9482    1.0970 S   0  0  0  0  0  0  0  0  0  0  0  0
    3.4887    2.9981    1.7467 C   0  0  0  0  0  0  0  0  0  0  0  0
    3.6955    4.2860    2.2770 C   0  0  0  0  0  0  0  0  0  0  0  0
    2.6024    5.0066    2.7717 C   0  0  0  0  0  0  0  0  0  0  0  0
    1.3259    4.4621    2.7450 C   0  0  0  0  0  0  0  0  0  0  0  0
    0.1842    5.0646    3.1987 O   0  0  0  0  0  0  0  0  0  0  0  0
    0.3215    6.3598    3.7695 C   0  0  0  0  0  0  0  0  0  0  0  0
    1.1343    3.1808    2.2140 C   0  0  0  0  0  0  0  0  0  0  0  0
    2.2188    2.4229    1.6989 C   0  0  0  0  0  0  0  0  0  0  0  0
    2.2589    1.1015    1.1117 C   0  0  0  0  0  0  0  0  0  0  0  0
    1.1113    0.2241    0.9069 C   0  0  0  0  0  0  0  0  0  0  0  0
    0.9554   -0.9325    1.6747 C   0  0  0  0  0  0  0  0  0  0  0  0
   -0.1466   -1.7650    1.4649 C   0  0  0  0  0  0  0  0  0  0  0  0
   -1.1011   -1.4573    0.4914 C   0  0  0  0  0  0  0  0  0  0  0  0
   -2.1236   -2.3595    0.3980 O   0  0  0  0  0  0  0  0  0  0  0  0
   -3.0752   -2.2079   -0.6610 C   0  0  0  0  0  0  0  0  0  0  0  0
   -4.2346   -1.2969   -0.2220 C   0  0  0  0  0  0  0  0  0  0  0  0
   -5.2984   -1.1536   -1.2364 N   0  0  0  0  0  0  0  0  0  0  0  0
   -4.8594   -0.3186   -2.3672 C   0  0  0  0  0  0  0  0  0  0  0  0
   -5.9536   -0.1969   -3.4298 C   0  0  0  0  0  0  0  0  0  0  0  0
   -7.2495    0.3416   -2.8369 C   0  0  0  0  0  0  0  0  0  0  0  0
   -7.6551   -0.4774   -1.6185 C   0  0  0  0  0  0  0  0  0  0  0  0
   -6.5070   -0.5848   -0.6142 C   0  0  0  0  0  0  0  0  0  0  0  0
   -0.9494   -0.2962   -0.2670 C   0  0  0  0  0  0  0  0  0  0  0  0
    0.1518    0.5425   -0.0594 C   0  0  0  0  0  0  0  0  0  0  0  0
    4.8665   -1.3882    0.7808 C   0  0  0  0  0  0  0  0  0  0  0  0
    7.2043   -2.3171    2.0645 H   0  0  0  0  0  0  0  0  0  0  0  0
    7.2636   -4.0640    2.3284 H   0  0  0  0  0  0  0  0  0  0  0  0
    5.7852   -3.1953    2.7584 H   0  0  0  0  0  0  0  0  0  0  0  0
    5.2348   -3.7867   -1.5793 H   0  0  0  0  0  0  0  0  0  0  0  0
    3.4506   -3.3885   -4.7363 H   0  0  0  0  0  0  0  0  0  0  0  0
    5.0083   -3.4339   -3.9018 H   0  0  0  0  0  0  0  0  0  0  0  0
    3.5620   -4.2639   -3.2043 H   0  0  0  0  0  0  0  0  0  0  0  0
    2.9414   -0.1516   -1.7447 H   0  0  0  0  0  0  0  0  0  0  0  0
    4.6923    4.7179    2.3030 H   0  0  0  0  0  0  0  0  0  0  0  0
    2.7932    5.9965    3.1730 H   0  0  0  0  0  0  0  0  0  0  0  0
   -0.6714    6.6916    4.0879 H   0  0  0  0  0  0  0  0  0  0  0  0
    0.9646    6.3347    4.6555 H   0  0  0  0  0  0  0  0  0  0  0  0
    0.6918    7.0789    3.0314 H   0  0  0  0  0  0  0  0  0  0  0  0
    0.1315    2.7590    2.2012 H   0  0  0  0  0  0  0  0  0  0  0  0
    1.6857   -1.1953    2.4357 H   0  0  0  0  0  0  0  0  0  0  0  0
   -0.2598   -2.6663    2.0628 H   0  0  0  0  0  0  0  0  0  0  0  0
   -2.5910   -1.8952   -1.5917 H   0  0  0  0  0  0  0  0  0  0  0  0
   -3.4747   -3.2104   -0.8576 H   0  0  0  0  0  0  0  0  0  0  0  0
   -4.6542   -1.7484    0.6876 H   0  0  0  0  0  0  0  0  0  0  0  0
   -3.8602   -0.3145    0.0924 H   0  0  0  0  0  0  0  0  0  0  0  0
   -3.9822   -0.7597   -2.8518 H   0  0  0  0  0  0  0  0  0  0  0  0
   -4.5704    0.6828   -2.0216 H   0  0  0  0  0  0  0  0  0  0  0  0
   -6.1385   -1.1806   -3.8801 H   0  0  0  0  0  0  0  0  0  0  0  0
   -5.6143    0.4641   -4.2356 H   0  0  0  0  0  0  0  0  0  0  0  0
   -8.0461    0.3183   -3.5889 H   0  0  0  0  0  0  0  0  0  0  0  0
   -7.1126    1.3902   -2.5442 H   0  0  0  0  0  0  0  0  0  0  0  0
   -8.5255   -0.0174   -1.1376 H   0  0  0  0  0  0  0  0  0  0  0  0
   -7.9598   -1.4821   -1.9374 H   0  0  0  0  0  0  0  0  0  0  0  0
   -6.8403   -1.2305    0.2073 H   0  0  0  0  0  0  0  0  0  0  0  0
   -6.2961    0.4045   -0.1865 H   0  0  0  0  0  0  0  0  0  0  0  0
   -1.6666   -0.0067   -1.0267 H   0  0  0  0  0  0  0  0  0  0  0  0
    0.2581    1.4417   -0.6623 H   0  0  0  0  0  0  0  0  0  0  0  0
    5.1696   -1.1357    1.7917 H   0  0  0  0  0  0  0  0  0  0  0  0
  1  2  1  0
  2  3  1  0
  3  4  2  0
  4  5  1  0
  5  6  1  0
  6  7  1  0
  5  8  2  0
  8  9  1  0
  9 10  1  0
 10 11  1  0
 11 12  1  0
 12 13  2  0
 13 14  1  0
 14 15  2  0
 15 16  1  0
 16 17  1  0
 15 18  1  0
 18 19  2  0
 19 20  1  0
 20 21  1  0
 21 22  2  0
 22 23  1  0
 23 24  2  0
 24 25  1  0
 25 26  1  0
 26 27  1  0
 27 28  1  0
 28 29  1  0
 29 30  1  0
 30 31  1  0
 31 32  1  0
 32 33  1  0
 24 34  1  0
 34 35  2  0
  9 36  2  0
 36  3  1  0
 20 10  2  0
 35 21  1  0
 19 12  1  0
 33 28  1  0
  1 37  1  0
  1 38  1  0
  1 39  1  0
  4 40  1  0
  7 41  1  0
  7 42  1  0
  7 43  1  0
  8 44  1  0
 13 45  1  0
 14 46  1  0
 17 47  1  0
 17 48  1  0
 17 49  1  0
 18 50  1  0
 22 51  1  0
 23 52  1  0
 26 53  1  0
 26 54  1  0
 27 55  1  0
 27 56  1  0
 29 57  1  0
 29 58  1  0
 30 59  1  0
 30 60  1  0
 31 61  1  0
 31 62  1  0
 32 63  1  0
 32 64  1  0
 33 65  1  0
 33 66  1  0
 34 67  1  0
 35 68  1  0
 36 69  1  0
M  END
$$$$
