
     RDKit          3D

 46 48  0  0  0  0  0  0  0  0999 V2000
   -1.9077   -2.0391    2.1185 C   0  0  0  0  0  0  0  0  0  0  0  0
   -1.9165   -1.7692    0.6253 C   0  0  0  0  0  0  0  0  0  0  0  0
   -2.5458   -0.4420    0.3501 N   0  0  0  0  0  4  0  0  0  0  0  0
   -1.7467    0.6606    0.2246 C   0  0  0  0  0  0  0  0  0  0  0  0
   -0.2987    0.5803    0.4574 C   0  0  0  0  0  0  0  0  0  0  0  0
    0.5909    0.7133   -0.5400 C   0  0  0  0  0  0  0  0  0  0  0  0
    2.0512    0.6632   -0.3591 C   0  0  0  0  0  0  0  0  0  0  0  0
    2.8552    1.4089   -1.2279 C   0  0  0  0  0  0  0  0  0  0  0  0
    4.2496    1.3672   -1.1286 C   0  0  0  0  0  0  0  0  0  0  0  0
    4.8649    0.5713   -0.1606 C   0  0  0  0  0  0  0  0  0  0  0  0
    6.2211    0.4664    0.0137 O   0  0  0  0  0  0  0  0  0  0  0  0
    7.0623    1.1871   -0.8758 C   0  0  0  0  0  0  0  0  0  0  0  0
    4.0674   -0.1860    0.7184 C   0  0  0  0  0  0  0  0  0  0  0  0
    4.7426   -0.9604    1.6290 O   0  0  0  0  0  0  0  0  0  0  0  0
    4.0144   -1.4640    2.7388 C   0  0  0  0  0  0  0  0  0  0  0  0
    2.6704   -0.1455    0.6051 C   0  0  0  0  0  0  0  0  0  0  0  0
   -2.2904    1.9039   -0.0994 C   0  0  0  0  0  0  0  0  0  0  0  0
   -3.6516    2.0362   -0.2962 C   0  0  0  0  0  0  0  0  0  0  0  0
   -4.4722    0.9246   -0.1540 C   0  0  0  0  0  0  0  0  0  0  0  0
   -5.8560    1.0598   -0.3398 C   0  0  0  0  0  0  0  0  0  0  0  0
   -6.7026   -0.0349   -0.1924 C   0  0  0  0  0  0  0  0  0  0  0  0
   -6.1757   -1.2735    0.1453 C   0  0  0  0  0  0  0  0  0  0  0  0
   -4.7971   -1.4239    0.3318 C   0  0  0  0  0  0  0  0  0  0  0  0
   -3.9095   -0.3388    0.1820 C   0  0  0  0  0  0  0  0  0  0  0  0
   -1.3431   -1.2731    2.6585 H   0  0  0  0  0  0  0  0  0  0  0  0
   -1.4453   -3.0094    2.3238 H   0  0  0  0  0  0  0  0  0  0  0  0
   -2.9202   -2.0516    2.5325 H   0  0  0  0  0  0  0  0  0  0  0  0
   -0.9019   -1.7872    0.2179 H   0  0  0  0  0  0  0  0  0  0  0  0
   -2.4542   -2.5412    0.0681 H   0  0  0  0  0  0  0  0  0  0  0  0
    0.0111    0.4346    1.4885 H   0  0  0  0  0  0  0  0  0  0  0  0
    0.2610    0.8916   -1.5636 H   0  0  0  0  0  0  0  0  0  0  0  0
    2.4117    2.0394   -1.9965 H   0  0  0  0  0  0  0  0  0  0  0  0
    4.8274    1.9682   -1.8237 H   0  0  0  0  0  0  0  0  0  0  0  0
    6.9158    0.8601   -1.9104 H   0  0  0  0  0  0  0  0  0  0  0  0
    6.9086    2.2664   -0.7759 H   0  0  0  0  0  0  0  0  0  0  0  0
    8.1000    0.9722   -0.6029 H   0  0  0  0  0  0  0  0  0  0  0  0
    4.7315   -1.8987    3.4417 H   0  0  0  0  0  0  0  0  0  0  0  0
    3.4765   -0.6657    3.2615 H   0  0  0  0  0  0  0  0  0  0  0  0
    3.3309   -2.2601    2.4265 H   0  0  0  0  0  0  0  0  0  0  0  0
    2.0618   -0.7645    1.2527 H   0  0  0  0  0  0  0  0  0  0  0  0
   -1.6516    2.7816   -0.1928 H   0  0  0  0  0  0  0  0  0  0  0  0
   -4.0624    3.0134   -0.5493 H   0  0  0  0  0  0  0  0  0  0  0  0
   -6.2954    2.0232   -0.5998 H   0  0  0  0  0  0  0  0  0  0  0  0
   -7.7759    0.0818   -0.3372 H   0  0  0  0  0  0  0  0  0  0  0  0
   -6.8420   -2.1270    0.2673 H   0  0  0  0  0  0  0  0  0  0  0  0
   -4.4640   -2.4195    0.6077 H   0  0  0  0  0  0  0  0  0  0  0  0
  1  2  1  0
  2  3  1  0
  3  4  2  0
  4  5  1  0
  5  6  2  3
  6  7  1  0
  7  8  2  0
  8  9  1  0
  9 10  2  0
 10 11  1  0
 11 12  1  0
 10 13  1  0
 13 14  1  0
 14 15  1  0
 13 16  2  0
  4 17  1  0
 17 18  2  0
 18 19  1  0
 19 20  2  0
 20 21  1  0
 21 22  2  0
 22 23  1  0
 23 24  2  0
 24  3  1  0
 16  7  1  0
 24 19  1  0
  1 25  1  0
  1 26  1  0
  1 27  1  0
  2 28  1  0
  2 29  1  0
  5 30  1  0
  6 31  1  0
  8 32  1  0
  9 33  1  0
 12 34  1  0
 12 35  1  0
 12 36  1  0
 15 37  1  0
 15 38  1  0
 15 39  1  0
 16 40  1  0
 17 41  1  0
 18 42  1  0
 20 43  1  0
 21 44  1  0
 22 45  1  0
 23 46  1  0
M  CHG  1   3   1
M  END
$$$$
