
     RDKit          3D

 71 77  0  0  0  0  0  0  0  0999 V2000
    6.7252   -0.5687   -1.7585 C   0  0  0  0  0  0  0  0  0  0  0  0
    6.2779    0.2976   -0.7263 O   0  0  0  0  0  0  0  0  0  0  0  0
    4.8573    0.3050   -0.5811 C   0  0  0  0  0  0  0  0  0  0  0  0
    4.2449   -1.0006    0.0306 C   0  0  0  0  0  0  0  0  0  0  0  0
    4.9674   -1.8495    0.5652 O   0  0  0  0  0  0  0  0  0  0  0  0
    2.8658   -1.2175   -0.0981 N   0  0  0  0  0  0  0  0  0  0  0  0
    2.3257   -2.4045    0.6012 C   0  0  0  0  0  0  0  0  0  0  0  0
    0.9108   -2.8389    0.1423 C   0  0  0  0  0  0  0  0  0  0  0  0
    0.0472   -1.6718    0.1159 N   0  0  0  0  0  0  0  0  0  0  0  0
    0.5665   -0.6623   -0.8531 C   0  0  2  0  0  0  0  0  0  0  0  0
    1.8985   -0.1222   -0.3405 C   0  0  0  0  0  0  0  0  0  0  0  0
   -0.5986    0.2457   -0.9381 C   0  0  0  0  0  0  0  0  0  0  0  0
   -1.7551   -0.4403   -0.5280 C   0  0  0  0  0  0  0  0  0  0  0  0
   -2.8376    0.3709   -0.7281 C   0  0  0  0  0  0  0  0  0  0  0  0
   -4.1283    0.0550   -0.6292 O   0  0  0  0  0  0  0  0  0  0  0  0
   -2.3438    1.6297   -1.1322 N   0  0  0  0  0  0  0  0  0  0  0  0
   -3.1243    2.8194   -1.2919 C   0  0  0  0  0  0  0  0  0  0  0  0
   -2.7817    3.7784   -2.2528 C   0  0  0  0  0  0  0  0  0  0  0  0
   -3.5562    4.9319   -2.4040 C   0  0  0  0  0  0  0  0  0  0  0  0
   -4.6686    5.1414   -1.5918 C   0  0  0  0  0  0  0  0  0  0  0  0
   -5.0073    4.2011   -0.6218 C   0  0  0  0  0  0  0  0  0  0  0  0
   -4.2387    3.0447   -0.4683 C   0  0  0  0  0  0  0  0  0  0  0  0
   -0.9509    1.5102   -1.3289 C   0  0  0  0  0  0  0  0  0  0  0  0
   -0.1983    2.5193   -1.7595 O   0  0  0  0  0  0  0  0  0  0  0  0
   -1.4115   -1.8211   -0.1024 C   0  0  1  0  0  0  0  0  0  0  0  0
   -1.8184   -2.9023   -1.1319 C   0  0  0  0  0  0  0  0  0  0  0  0
   -1.4155   -3.0552   -2.2761 O   0  0  0  0  0  0  0  0  0  0  0  0
   -2.7428   -3.7313   -0.4926 N   0  0  0  0  0  0  0  0  0  0  0  0
   -2.9817   -3.3262    0.8216 C   0  0  0  0  0  0  0  0  0  0  0  0
   -2.2060   -2.1930    1.1136 C   0  0  0  0  0  0  0  0  0  0  0  0
   -2.2439   -1.6118    2.3702 C   0  0  0  0  0  0  0  0  0  0  0  0
   -3.0881   -2.1757    3.3264 C   0  0  0  0  0  0  0  0  0  0  0  0
   -3.8719   -3.3064    3.0208 C   0  0  0  0  0  0  0  0  0  0  0  0
   -4.8902   -3.9240    4.2774 Cl  0  0  0  0  0  0  0  0  0  0  0  0
   -3.8310   -3.9145    1.7509 C   0  0  0  0  0  0  0  0  0  0  0  0
   -4.6659   -5.1173    1.4302 C   0  0  0  0  0  0  0  0  0  0  0  0
    4.5444    1.5364    0.2581 C   0  0  0  0  0  0  0  0  0  0  0  0
    4.1516    2.7331   -0.3654 C   0  0  0  0  0  0  0  0  0  0  0  0
    3.8503    3.8649    0.3940 C   0  0  0  0  0  0  0  0  0  0  0  0
    3.9549    3.8208    1.7825 C   0  0  0  0  0  0  0  0  0  0  0  0
    4.3736    2.6507    2.4125 C   0  0  0  0  0  0  0  0  0  0  0  0
    4.6750    1.5173    1.6557 C   0  0  0  0  0  0  0  0  0  0  0  0
    6.3249   -0.2495   -2.7256 H   0  0  0  0  0  0  0  0  0  0  0  0
    7.8164   -0.5128   -1.8027 H   0  0  0  0  0  0  0  0  0  0  0  0
    6.4425   -1.6063   -1.5613 H   0  0  0  0  0  0  0  0  0  0  0  0
    4.4180    0.4278   -1.5798 H   0  0  0  0  0  0  0  0  0  0  0  0
    3.0146   -3.2478    0.4768 H   0  0  0  0  0  0  0  0  0  0  0  0
    2.3047   -2.1541    1.6699 H   0  0  0  0  0  0  0  0  0  0  0  0
    0.9779   -3.3078   -0.8467 H   0  0  0  0  0  0  0  0  0  0  0  0
    0.5327   -3.5913    0.8433 H   0  0  0  0  0  0  0  0  0  0  0  0
    0.7158   -1.1279   -1.8383 H   0  0  0  0  0  0  0  0  0  0  0  0
    1.7729    0.4209    0.6046 H   0  0  0  0  0  0  0  0  0  0  0  0
    2.3014    0.5770   -1.0760 H   0  0  0  0  0  0  0  0  0  0  0  0
   -4.6449    0.6832   -1.1662 H   0  0  0  0  0  0  0  0  0  0  0  0
   -1.9364    3.6377   -2.9208 H   0  0  0  0  0  0  0  0  0  0  0  0
   -3.2888    5.6667   -3.1593 H   0  0  0  0  0  0  0  0  0  0  0  0
   -5.2652    6.0426   -1.7089 H   0  0  0  0  0  0  0  0  0  0  0  0
   -5.8620    4.3755    0.0274 H   0  0  0  0  0  0  0  0  0  0  0  0
   -4.4982    2.3600    0.3367 H   0  0  0  0  0  0  0  0  0  0  0  0
    0.7327    2.2458   -1.7253 H   0  0  0  0  0  0  0  0  0  0  0  0
   -3.1697   -4.5155   -0.9605 H   0  0  0  0  0  0  0  0  0  0  0  0
   -1.6405   -0.7391    2.6005 H   0  0  0  0  0  0  0  0  0  0  0  0
   -3.1393   -1.7296    4.3174 H   0  0  0  0  0  0  0  0  0  0  0  0
   -5.7302   -4.8687    1.4993 H   0  0  0  0  0  0  0  0  0  0  0  0
   -4.4374   -5.9358    2.1209 H   0  0  0  0  0  0  0  0  0  0  0  0
   -4.4868   -5.4951    0.4199 H   0  0  0  0  0  0  0  0  0  0  0  0
    4.0895    2.7942   -1.4495 H   0  0  0  0  0  0  0  0  0  0  0  0
    3.5463    4.7860   -0.0968 H   0  0  0  0  0  0  0  0  0  0  0  0
    3.7276    4.7040    2.3741 H   0  0  0  0  0  0  0  0  0  0  0  0
    4.4771    2.6224    3.4944 H   0  0  0  0  0  0  0  0  0  0  0  0
    5.0236    0.6193    2.1640 H   0  0  0  0  0  0  0  0  0  0  0  0
  1  2  1  0
  2  3  1  0
  3  4  1  0
  4  5  2  0
  4  6  1  0
  6  7  1  0
  7  8  1  0
  8  9  1  0
  9 10  1  0
 10 11  1  0
 10 12  1  0
 12 13  1  0
 13 14  2  0
 14 15  1  0
 14 16  1  0
 16 17  1  0
 17 18  2  0
 18 19  1  0
 19 20  2  0
 20 21  1  0
 21 22  2  0
 16 23  1  0
 23 24  1  0
 13 25  1  0
 25 26  1  0
 26 27  2  0
 26 28  1  0
 28 29  1  0
 29 30  2  0
 30 31  1  0
 31 32  2  0
 32 33  1  0
 33 34  1  0
 33 35  2  0
 35 36  1  0
  3 37  1  0
 37 38  2  0
 38 39  1  0
 39 40  2  0
 40 41  1  0
 41 42  2  0
 11  6  1  0
 23 12  2  0
 30 25  1  0
 42 37  1  0
 25  9  1  1
 35 29  1  0
 22 17  1  0
  1 43  1  0
  1 44  1  0
  1 45  1  0
  3 46  1  0
  7 47  1  0
  7 48  1  0
  8 49  1  0
  8 50  1  0
 10 51  1  6
 11 52  1  0
 11 53  1  0
 15 54  1  0
 18 55  1  0
 19 56  1  0
 20 57  1  0
 21 58  1  0
 22 59  1  0
 24 60  1  0
 28 61  1  0
 31 62  1  0
 32 63  1  0
 36 64  1  0
 36 65  1  0
 36 66  1  0
 38 67  1  0
 39 68  1  0
 40 69  1  0
 41 70  1  0
 42 71  1  0
M  END
$$$$
