
     RDKit          3D

 46 49  0  0  0  0  0  0  0  0999 V2000
    2.1482   -0.0507    1.2392 O   0  0  0  0  0  0  0  0  0  0  0  0
    2.1641   -1.1680    0.7364 C   0  0  0  0  0  0  0  0  0  0  0  0
    0.9491   -2.0827    0.6561 C   0  0  0  0  0  0  0  0  0  0  0  0
   -0.3044   -1.3306    0.8495 N   0  0  0  0  0  4  0  0  0  0  0  0
   -1.2148   -0.9566   -0.1377 C   0  0  0  0  0  0  0  0  0  0  0  0
   -2.2250   -0.1984    0.4439 C   0  0  0  0  0  0  0  0  0  0  0  0
   -3.4786    0.4072   -0.2883 C   0  0  0  0  0  0  0  0  0  0  0  0
   -3.6160    0.2684   -1.6744 C   0  0  0  0  0  0  0  0  0  0  0  0
   -4.7304    0.8059   -2.3287 C   0  0  0  0  0  0  0  0  0  0  0  0
   -5.7168    1.4818   -1.6070 C   0  0  0  0  0  0  0  0  0  0  0  0
   -7.0622    2.1179   -2.4786 Cl  0  0  0  0  0  0  0  0  0  0  0  0
   -5.5840    1.6161   -0.2228 C   0  0  0  0  0  0  0  0  0  0  0  0
   -6.7596    2.4291    0.7475 Cl  0  0  0  0  0  0  0  0  0  0  0  0
   -4.4675    1.0784    0.4333 C   0  0  0  0  0  0  0  0  0  0  0  0
   -1.8436   -0.1258    1.7720 N   0  0  0  0  0  0  0  0  0  0  0  0
   -0.7145   -0.7941    1.9946 C   0  0  0  0  0  0  0  0  0  0  0  0
   -0.2729   -0.7430    3.4078 C   0  0  0  0  0  0  0  0  0  0  0  0
   -1.1477    0.3911    3.9756 C   0  0  0  0  0  0  0  0  0  0  0  0
   -2.3353    0.5202    2.9831 C   0  0  0  0  0  0  0  0  0  0  0  0
    3.2455   -1.7848    0.1925 O   0  0  0  0  0  0  0  0  0  0  0  0
    4.4245   -0.9747    0.0625 C   0  0  0  0  0  0  0  0  0  0  0  0
    4.3864   -0.2748   -1.2700 C   0  0  0  0  0  0  0  0  0  0  0  0
    4.0520    1.0840   -1.3526 C   0  0  0  0  0  0  0  0  0  0  0  0
    3.9946    1.7237   -2.5917 C   0  0  0  0  0  0  0  0  0  0  0  0
    4.2648    1.0113   -3.7584 C   0  0  0  0  0  0  0  0  0  0  0  0
    4.5911   -0.3417   -3.6888 C   0  0  0  0  0  0  0  0  0  0  0  0
    4.6491   -0.9838   -2.4510 C   0  0  0  0  0  0  0  0  0  0  0  0
    1.0184   -2.8461    1.4366 H   0  0  0  0  0  0  0  0  0  0  0  0
    0.9144   -2.5609   -0.3280 H   0  0  0  0  0  0  0  0  0  0  0  0
   -1.0292   -1.2887   -1.1453 H   0  0  0  0  0  0  0  0  0  0  0  0
   -2.8740   -0.2443   -2.2810 H   0  0  0  0  0  0  0  0  0  0  0  0
   -4.8252    0.6957   -3.4082 H   0  0  0  0  0  0  0  0  0  0  0  0
   -4.4076    1.1886    1.5086 H   0  0  0  0  0  0  0  0  0  0  0  0
    0.7945   -0.5310    3.4549 H   0  0  0  0  0  0  0  0  0  0  0  0
   -0.5144   -1.7153    3.8427 H   0  0  0  0  0  0  0  0  0  0  0  0
   -0.5738    1.3254    3.9656 H   0  0  0  0  0  0  0  0  0  0  0  0
   -1.4717    0.2068    5.0034 H   0  0  0  0  0  0  0  0  0  0  0  0
   -2.5778    1.5690    2.7973 H   0  0  0  0  0  0  0  0  0  0  0  0
   -3.2116   -0.0272    3.3422 H   0  0  0  0  0  0  0  0  0  0  0  0
    5.2926   -1.6424    0.1057 H   0  0  0  0  0  0  0  0  0  0  0  0
    4.5342   -0.2723    0.8977 H   0  0  0  0  0  0  0  0  0  0  0  0
    3.8388    1.6564   -0.4515 H   0  0  0  0  0  0  0  0  0  0  0  0
    3.7478    2.7813   -2.6477 H   0  0  0  0  0  0  0  0  0  0  0  0
    4.2299    1.5131   -4.7226 H   0  0  0  0  0  0  0  0  0  0  0  0
    4.8092   -0.8939   -4.6000 H   0  0  0  0  0  0  0  0  0  0  0  0
    4.9097   -2.0397   -2.4143 H   0  0  0  0  0  0  0  0  0  0  0  0
  1  2  2  0
  2  3  1  0
  3  4  1  0
  4  5  1  0
  5  6  2  0
  6  7  1  0
  7  8  2  0
  8  9  1  0
  9 10  2  0
 10 11  1  0
 10 12  1  0
 12 13  1  0
 12 14  2  0
  6 15  1  0
 15 16  1  0
 16 17  1  0
 17 18  1  0
 18 19  1  0
  2 20  1  0
 20 21  1  0
 21 22  1  0
 22 23  2  0
 23 24  1  0
 24 25  2  0
 25 26  1  0
 26 27  2  0
 16  4  2  0
 27 22  1  0
 14  7  1  0
 19 15  1  0
  3 28  1  0
  3 29  1  0
  5 30  1  0
  8 31  1  0
  9 32  1  0
 14 33  1  0
 17 34  1  0
 17 35  1  0
 18 36  1  0
 18 37  1  0
 19 38  1  0
 19 39  1  0
 21 40  1  0
 21 41  1  0
 23 42  1  0
 24 43  1  0
 25 44  1  0
 26 45  1  0
 27 46  1  0
M  CHG  1   4   1
M  END
$$$$
