
     RDKit          3D

 69 71  0  0  0  0  0  0  0  0999 V2000
   -5.4391   -1.2922   -4.9206 C   0  0  0  0  0  0  0  0  0  0  0  0
   -4.9714   -0.8889   -3.6401 O   0  0  0  0  0  0  0  0  0  0  0  0
   -3.9536   -1.6168   -3.0756 C   0  0  0  0  0  0  0  0  0  0  0  0
   -3.4569   -2.8077   -3.6168 C   0  0  0  0  0  0  0  0  0  0  0  0
   -2.3695   -3.4538   -3.0300 C   0  0  0  0  0  0  0  0  0  0  0  0
   -1.7717   -2.9186   -1.8928 C   0  0  0  0  0  0  0  0  0  0  0  0
   -2.2650   -1.7389   -1.2988 C   0  0  0  0  0  0  0  0  0  0  0  0
   -1.5458   -1.2272   -0.0532 C   0  0  0  0  0  0  0  0  0  0  0  0
   -2.4524   -0.6357    1.0709 C   0  0  0  0  0  0  0  0  0  0  0  0
   -3.5701   -1.0849    1.3311 O   0  0  0  0  0  0  0  0  0  0  0  0
   -1.8549    0.3488    1.8461 N   0  0  0  0  0  0  0  0  0  0  0  0
   -2.4572    0.9859    3.0257 C   0  0  0  0  0  0  0  0  0  0  0  0
   -1.4556    2.0282    3.5596 C   0  0  0  0  0  0  0  0  0  0  0  0
   -2.7222   -0.0431    4.1348 C   0  0  0  0  0  0  0  0  0  0  0  0
   -3.7577    1.7171    2.6541 C   0  0  0  0  0  0  0  0  0  0  0  0
   -0.2965   -0.4565   -0.3555 N   0  0  0  0  0  0  0  0  0  0  0  0
    0.8709   -0.8737    0.2977 C   0  0  0  0  0  0  0  0  0  0  0  0
    0.9180   -1.9049    0.9734 O   0  0  0  0  0  0  0  0  0  0  0  0
    2.0973    0.0144    0.1758 C   0  0  0  0  0  0  0  0  0  0  0  0
    3.2529   -0.5213    1.0200 C   0  0  0  0  0  0  0  0  0  0  0  0
    4.5192    0.2886    0.8274 C   0  0  0  0  0  0  0  0  0  0  0  0
    4.5336    1.3494    0.2090 O   0  0  0  0  0  0  0  0  0  0  0  0
    5.6005   -0.3084    1.4353 N   0  0  0  0  0  0  0  0  0  0  0  0
    6.8997    0.1428    1.3759 C   0  0  0  0  0  0  0  0  0  0  0  0
    7.4277    1.2807    0.7268 C   0  0  0  0  0  0  0  0  0  0  0  0
    8.7778    1.2182    0.9686 C   0  0  0  0  0  0  0  0  0  0  0  0
    9.9323    2.0456    0.5841 C   0  0  0  0  0  0  0  0  0  0  0  0
    9.0450    0.1202    1.7244 O   0  0  0  0  0  0  0  0  0  0  0  0
    7.8669   -0.5553    1.9840 N   0  0  0  0  0  0  0  0  0  0  0  0
   -0.4182    0.8438   -0.9940 C   0  0  0  0  0  0  0  0  0  0  0  0
    0.4722    1.2678   -2.1456 C   0  0  0  0  0  0  0  0  0  0  0  0
   -0.9868    1.0596   -2.3775 C   0  0  0  0  0  0  0  0  0  0  0  0
   -3.3727   -1.1015   -1.8939 C   0  0  0  0  0  0  0  0  0  0  0  0
   -3.7747    0.0976   -1.3476 O   0  0  0  0  0  0  0  0  0  0  0  0
   -5.1626    0.1152   -1.0058 C   0  0  0  0  0  0  0  0  0  0  0  0
   -4.6281   -1.3121   -5.6561 H   0  0  0  0  0  0  0  0  0  0  0  0
   -6.1709   -0.5521   -5.2561 H   0  0  0  0  0  0  0  0  0  0  0  0
   -5.9490   -2.2583   -4.8658 H   0  0  0  0  0  0  0  0  0  0  0  0
   -3.8881   -3.2549   -4.5056 H   0  0  0  0  0  0  0  0  0  0  0  0
   -1.9825   -4.3723   -3.4642 H   0  0  0  0  0  0  0  0  0  0  0  0
   -0.9130   -3.4318   -1.4598 H   0  0  0  0  0  0  0  0  0  0  0  0
   -1.2278   -2.1530    0.4492 H   0  0  0  0  0  0  0  0  0  0  0  0
   -0.8593    0.4609    1.7175 H   0  0  0  0  0  0  0  0  0  0  0  0
   -1.2288    2.7836    2.7984 H   0  0  0  0  0  0  0  0  0  0  0  0
   -1.8483    2.5446    4.4431 H   0  0  0  0  0  0  0  0  0  0  0  0
   -0.5062    1.5577    3.8420 H   0  0  0  0  0  0  0  0  0  0  0  0
   -3.4761   -0.7798    3.8378 H   0  0  0  0  0  0  0  0  0  0  0  0
   -1.8078   -0.5942    4.3841 H   0  0  0  0  0  0  0  0  0  0  0  0
   -3.0843    0.4426    5.0496 H   0  0  0  0  0  0  0  0  0  0  0  0
   -4.1583    2.2701    3.5116 H   0  0  0  0  0  0  0  0  0  0  0  0
   -3.5860    2.4337    1.8434 H   0  0  0  0  0  0  0  0  0  0  0  0
   -4.5406    1.0278    2.3212 H   0  0  0  0  0  0  0  0  0  0  0  0
    1.8456    1.0319    0.4976 H   0  0  0  0  0  0  0  0  0  0  0  0
    2.4146    0.0345   -0.8715 H   0  0  0  0  0  0  0  0  0  0  0  0
    2.9884   -0.5012    2.0847 H   0  0  0  0  0  0  0  0  0  0  0  0
    3.4651   -1.5615    0.7420 H   0  0  0  0  0  0  0  0  0  0  0  0
    5.4935   -1.1780    1.9426 H   0  0  0  0  0  0  0  0  0  0  0  0
    6.9052    2.0323    0.1519 H   0  0  0  0  0  0  0  0  0  0  0  0
    9.6063    3.0056    0.1725 H   0  0  0  0  0  0  0  0  0  0  0  0
   10.5726    2.2445    1.4480 H   0  0  0  0  0  0  0  0  0  0  0  0
   10.5290    1.5338   -0.1762 H   0  0  0  0  0  0  0  0  0  0  0  0
   -0.6700    1.6245   -0.2750 H   0  0  0  0  0  0  0  0  0  0  0  0
    0.8499    2.2838   -2.1336 H   0  0  0  0  0  0  0  0  0  0  0  0
    1.1368    0.5482   -2.6140 H   0  0  0  0  0  0  0  0  0  0  0  0
   -1.2456    0.2209   -3.0143 H   0  0  0  0  0  0  0  0  0  0  0  0
   -1.6181    1.9308   -2.5289 H   0  0  0  0  0  0  0  0  0  0  0  0
   -5.5592   -0.8824   -0.7781 H   0  0  0  0  0  0  0  0  0  0  0  0
   -5.2786    0.7365   -0.1111 H   0  0  0  0  0  0  0  0  0  0  0  0
   -5.7399    0.5891   -1.8040 H   0  0  0  0  0  0  0  0  0  0  0  0
  1  2  1  0
  2  3  1  0
  3  4  2  0
  4  5  1  0
  5  6  2  0
  6  7  1  0
  7  8  1  0
  8  9  1  0
  9 10  2  0
  9 11  1  0
 11 12  1  0
 12 13  1  0
 12 14  1  0
 12 15  1  0
  8 16  1  0
 16 17  1  0
 17 18  2  0
 17 19  1  0
 19 20  1  0
 20 21  1  0
 21 22  2  0
 21 23  1  0
 23 24  1  0
 24 25  1  0
 25 26  2  0
 26 27  1  0
 26 28  1  0
 28 29  1  0
 16 30  1  0
 30 31  1  0
 31 32  1  0
  7 33  2  0
 33 34  1  0
 34 35  1  0
 33  3  1  0
 29 24  2  0
 32 30  1  0
  1 36  1  0
  1 37  1  0
  1 38  1  0
  4 39  1  0
  5 40  1  0
  6 41  1  0
  8 42  1  0
 11 43  1  0
 13 44  1  0
 13 45  1  0
 13 46  1  0
 14 47  1  0
 14 48  1  0
 14 49  1  0
 15 50  1  0
 15 51  1  0
 15 52  1  0
 19 53  1  0
 19 54  1  0
 20 55  1  0
 20 56  1  0
 23 57  1  0
 25 58  1  0
 27 59  1  0
 27 60  1  0
 27 61  1  0
 30 62  1  0
 31 63  1  0
 31 64  1  0
 32 65  1  0
 32 66  1  0
 35 67  1  0
 35 68  1  0
 35 69  1  0
M  END
$$$$
