
     RDKit          3D

 51 55  0  0  0  0  0  0  0  0999 V2000
   -8.4904   -0.3268    1.5350 F   0  0  0  0  0  0  0  0  0  0  0  0
   -7.5311    0.3579    0.8983 C   0  0  0  0  0  0  0  0  0  0  0  0
   -7.6872    1.7234    0.6934 C   0  0  0  0  0  0  0  0  0  0  0  0
   -6.6877    2.4365    0.0343 C   0  0  0  0  0  0  0  0  0  0  0  0
   -5.5404    1.7768   -0.4150 C   0  0  0  0  0  0  0  0  0  0  0  0
   -5.3846    0.3969   -0.2126 C   0  0  0  0  0  0  0  0  0  0  0  0
   -4.1350   -0.3114   -0.6806 C   0  0  0  0  0  0  0  0  0  0  0  0
   -3.0360   -0.2885    0.3958 C   0  0  0  0  0  0  0  0  0  0  0  0
   -1.8270   -1.0179   -0.0189 N   0  0  0  0  0  0  0  0  0  0  0  0
   -1.0088   -0.2855   -1.0100 C   0  0  0  0  0  0  0  0  0  0  0  0
    0.2048    0.4854   -0.4399 C   0  0  0  0  0  0  0  0  0  0  0  0
    1.0957   -0.3824    0.3429 N   0  0  0  0  0  0  0  0  0  0  0  0
    2.4803   -0.3209    0.2141 C   0  0  0  0  0  0  0  0  0  0  0  0
    3.1512   -1.4466    0.2563 N   0  0  0  0  0  0  0  0  0  0  0  0
    4.5485   -1.4646    0.0912 C   0  0  0  0  0  0  0  0  0  0  0  0
    5.2045   -2.6967    0.1272 C   0  0  0  0  0  0  0  0  0  0  0  0
    6.5894   -2.7734   -0.0436 C   0  0  0  0  0  0  0  0  0  0  0  0
    7.3337   -1.6123   -0.2537 C   0  0  0  0  0  0  0  0  0  0  0  0
    6.6987   -0.3704   -0.2930 C   0  0  0  0  0  0  0  0  0  0  0  0
    5.3123   -0.3100   -0.1210 C   0  0  0  0  0  0  0  0  0  0  0  0
    4.5950    0.8969   -0.1312 N   0  0  0  0  0  0  0  0  0  0  0  0
    5.0570    2.1827   -0.2847 C   0  0  0  0  0  0  0  0  0  0  0  0
    3.9912    3.0430   -0.1428 C   0  0  0  0  0  0  0  0  0  0  0  0
    2.8430    2.2504    0.0877 C   0  0  0  0  0  0  0  0  0  0  0  0
    3.2275    0.9205    0.0493 C   0  0  0  0  0  0  0  0  0  0  0  0
    0.4743   -1.6229    0.8410 C   0  0  0  0  0  0  0  0  0  0  0  0
   -1.0141   -1.3871    1.1640 C   0  0  0  0  0  0  0  0  0  0  0  0
   -6.3934   -0.3095    0.4553 C   0  0  0  0  0  0  0  0  0  0  0  0
   -8.5839    2.2209    1.0482 H   0  0  0  0  0  0  0  0  0  0  0  0
   -6.8008    3.5050   -0.1301 H   0  0  0  0  0  0  0  0  0  0  0  0
   -4.7680    2.3471   -0.9273 H   0  0  0  0  0  0  0  0  0  0  0  0
   -4.3831   -1.3488   -0.9410 H   0  0  0  0  0  0  0  0  0  0  0  0
   -3.7942    0.1571   -1.6111 H   0  0  0  0  0  0  0  0  0  0  0  0
   -2.7886    0.7435    0.6782 H   0  0  0  0  0  0  0  0  0  0  0  0
   -3.4503   -0.7647    1.2953 H   0  0  0  0  0  0  0  0  0  0  0  0
   -0.6296   -1.0327   -1.7200 H   0  0  0  0  0  0  0  0  0  0  0  0
   -1.6145    0.4028   -1.6093 H   0  0  0  0  0  0  0  0  0  0  0  0
    0.7398    0.9281   -1.2877 H   0  0  0  0  0  0  0  0  0  0  0  0
   -0.1502    1.3010    0.2003 H   0  0  0  0  0  0  0  0  0  0  0  0
    4.6264   -3.6027    0.2880 H   0  0  0  0  0  0  0  0  0  0  0  0
    7.0844   -3.7406   -0.0130 H   0  0  0  0  0  0  0  0  0  0  0  0
    8.4112   -1.6764   -0.3856 H   0  0  0  0  0  0  0  0  0  0  0  0
    7.2992    0.5184   -0.4546 H   0  0  0  0  0  0  0  0  0  0  0  0
    6.1011    2.3960   -0.4611 H   0  0  0  0  0  0  0  0  0  0  0  0
    4.0398    4.1235   -0.1874 H   0  0  0  0  0  0  0  0  0  0  0  0
    1.8436    2.6205    0.2664 H   0  0  0  0  0  0  0  0  0  0  0  0
    0.9801   -1.9458    1.7588 H   0  0  0  0  0  0  0  0  0  0  0  0
    0.5780   -2.4237    0.0982 H   0  0  0  0  0  0  0  0  0  0  0  0
   -1.4355   -2.2975    1.6056 H   0  0  0  0  0  0  0  0  0  0  0  0
   -1.0706   -0.5976    1.9265 H   0  0  0  0  0  0  0  0  0  0  0  0
   -6.3058   -1.3769    0.6361 H   0  0  0  0  0  0  0  0  0  0  0  0
  1  2  1  0
  2  3  2  0
  3  4  1  0
  4  5  2  0
  5  6  1  0
  6  7  1  0
  7  8  1  0
  8  9  1  0
  9 10  1  0
 10 11  1  0
 11 12  1  0
 12 13  1  0
 13 14  2  0
 14 15  1  0
 15 16  2  0
 16 17  1  0
 17 18  2  0
 18 19  1  0
 19 20  2  0
 20 21  1  0
 21 22  1  0
 22 23  2  0
 23 24  1  0
 24 25  2  0
 12 26  1  0
 26 27  1  0
  6 28  2  0
 28  2  1  0
 27  9  1  0
 25 13  1  0
 20 15  1  0
 25 21  1  0
  3 29  1  0
  4 30  1  0
  5 31  1  0
  7 32  1  0
  7 33  1  0
  8 34  1  0
  8 35  1  0
 10 36  1  0
 10 37  1  0
 11 38  1  0
 11 39  1  0
 16 40  1  0
 17 41  1  0
 18 42  1  0
 19 43  1  0
 22 44  1  0
 23 45  1  0
 24 46  1  0
 26 47  1  0
 26 48  1  0
 27 49  1  0
 27 50  1  0
 28 51  1  0
M  END
$$$$
