
     RDKit          3D

 36 37  0  0  0  0  0  0  0  0999 V2000
   -0.6886    0.2733   -0.3198 O   0  0  0  0  0  0  0  0  0  0  0  0
   -1.0570   -0.0388    0.8121 C   0  0  0  0  0  0  0  0  0  0  0  0
   -0.1376   -0.6138    1.8861 C   0  0  0  0  0  0  0  0  0  0  0  0
    1.1513   -0.8876    1.3415 O   0  0  0  0  0  0  0  0  0  0  0  0
    2.0564   -1.2810    2.2679 C   0  0  0  0  0  0  0  0  0  0  0  0
    1.8636   -1.3935    3.4646 O   0  0  0  0  0  0  0  0  0  0  0  0
    3.3362   -1.5520    1.5853 C   0  0  0  0  0  0  0  0  0  0  0  0
    3.8798   -0.5397    0.7757 C   0  0  0  0  0  0  0  0  0  0  0  0
    5.1016   -0.7354    0.1367 C   0  0  0  0  0  0  0  0  0  0  0  0
    5.7830   -1.9390    0.3056 C   0  0  0  0  0  0  0  0  0  0  0  0
    5.2430   -2.9524    1.1079 C   0  0  0  0  0  0  0  0  0  0  0  0
    6.1578   -4.4155    1.2452 Cl  0  0  0  0  0  0  0  0  0  0  0  0
    4.0113   -2.7688    1.7560 C   0  0  0  0  0  0  0  0  0  0  0  0
    3.3182   -4.0468    2.7023 Cl  0  0  0  0  0  0  0  0  0  0  0  0
   -2.3658    0.1381    1.2234 N   0  0  0  0  0  0  0  0  0  0  0  0
   -3.3825    0.5416    0.2665 C   0  0  0  0  0  0  0  0  0  0  0  0
   -3.1903    1.9754   -0.2530 C   0  0  0  0  0  0  0  0  0  0  0  0
   -3.5015    2.0839   -1.6631 N   0  0  0  0  0  0  0  0  0  0  0  0
   -2.5879    1.9981   -2.6868 C   0  0  0  0  0  0  0  0  0  0  0  0
   -1.2620    1.7795   -2.4591 O   0  0  0  0  0  0  0  0  0  0  0  0
   -3.1099    2.1474   -3.9077 C   0  0  0  0  0  0  0  0  0  0  0  0
   -4.8293    2.3768   -3.8432 S   0  0  0  0  0  0  0  0  0  0  0  0
   -4.8154    2.2589   -2.0764 C   0  0  0  0  0  0  0  0  0  0  0  0
   -5.8153    2.3125   -1.3786 O   0  0  0  0  0  0  0  0  0  0  0  0
   -0.5800   -1.5438    2.2608 H   0  0  0  0  0  0  0  0  0  0  0  0
   -0.0617    0.1273    2.6904 H   0  0  0  0  0  0  0  0  0  0  0  0
    3.3530    0.4042    0.6444 H   0  0  0  0  0  0  0  0  0  0  0  0
    5.5227    0.0476   -0.4905 H   0  0  0  0  0  0  0  0  0  0  0  0
    6.7377   -2.0866   -0.1959 H   0  0  0  0  0  0  0  0  0  0  0  0
   -2.6703   -0.2940    2.0887 H   0  0  0  0  0  0  0  0  0  0  0  0
   -4.3549    0.4484    0.7620 H   0  0  0  0  0  0  0  0  0  0  0  0
   -3.3582   -0.1855   -0.5541 H   0  0  0  0  0  0  0  0  0  0  0  0
   -2.1823    2.3655   -0.0756 H   0  0  0  0  0  0  0  0  0  0  0  0
   -3.8651    2.6385    0.3034 H   0  0  0  0  0  0  0  0  0  0  0  0
   -1.1506    1.2416   -1.6450 H   0  0  0  0  0  0  0  0  0  0  0  0
   -2.5493    2.1155   -4.8310 H   0  0  0  0  0  0  0  0  0  0  0  0
  1  2  2  0
  2  3  1  0
  3  4  1  0
  4  5  1  0
  5  6  2  0
  5  7  1  0
  7  8  2  0
  8  9  1  0
  9 10  2  0
 10 11  1  0
 11 12  1  0
 11 13  2  0
 13 14  1  0
  2 15  1  0
 15 16  1  0
 16 17  1  0
 17 18  1  0
 18 19  1  0
 19 20  1  0
 19 21  2  0
 21 22  1  0
 22 23  1  0
 23 24  2  0
 13  7  1  0
 23 18  1  0
  3 25  1  0
  3 26  1  0
  8 27  1  0
  9 28  1  0
 10 29  1  0
 15 30  1  0
 16 31  1  0
 16 32  1  0
 17 33  1  0
 17 34  1  0
 20 35  1  0
 21 36  1  0
M  END
$$$$
