
     RDKit          3D

 51 55  0  0  0  0  0  0  0  0999 V2000
    7.5591    0.1288    1.1376 C   0  0  0  0  0  0  0  0  0  0  0  0
    7.4218    0.8470   -0.0489 C   0  0  0  0  0  0  0  0  0  0  0  0
    6.2497    0.7408   -0.7989 C   0  0  0  0  0  0  0  0  0  0  0  0
    5.2054   -0.0891   -0.3696 C   0  0  0  0  0  0  0  0  0  0  0  0
    3.9280   -0.1879   -1.1697 C   0  0  0  0  0  0  0  0  0  0  0  0
    2.8807    0.8323   -0.6903 C   0  0  0  0  0  0  0  0  0  0  0  0
    1.6511    0.8392   -1.5053 N   0  0  0  0  0  0  0  0  0  0  0  0
    0.9419   -0.4594   -1.4464 C   0  0  0  0  0  0  0  0  0  0  0  0
   -0.5629   -0.3727   -1.7874 C   0  0  0  0  0  0  0  0  0  0  0  0
   -1.2751    0.5247   -0.8663 N   0  0  0  0  0  0  0  0  0  0  0  0
   -2.4899    0.1700   -0.2884 C   0  0  0  0  0  0  0  0  0  0  0  0
   -2.6934    0.5002    0.9643 N   0  0  0  0  0  0  0  0  0  0  0  0
   -3.8823    0.1377    1.6244 C   0  0  0  0  0  0  0  0  0  0  0  0
   -4.0347    0.5024    2.9636 C   0  0  0  0  0  0  0  0  0  0  0  0
   -5.1896    0.1573    3.6707 C   0  0  0  0  0  0  0  0  0  0  0  0
   -6.2073   -0.5600    3.0411 C   0  0  0  0  0  0  0  0  0  0  0  0
   -6.0763   -0.9344    1.7033 C   0  0  0  0  0  0  0  0  0  0  0  0
   -4.9146   -0.5822    1.0093 C   0  0  0  0  0  0  0  0  0  0  0  0
   -4.7067   -0.9045   -0.3413 N   0  0  0  0  0  0  0  0  0  0  0  0
   -5.5338   -1.5696   -1.2153 C   0  0  0  0  0  0  0  0  0  0  0  0
   -4.9343   -1.5757   -2.4551 C   0  0  0  0  0  0  0  0  0  0  0  0
   -3.6956   -0.9062   -2.3231 C   0  0  0  0  0  0  0  0  0  0  0  0
   -3.5513   -0.5342   -0.9971 C   0  0  0  0  0  0  0  0  0  0  0  0
   -0.4302    1.5335   -0.2037 C   0  0  0  0  0  0  0  0  0  0  0  0
    0.7499    1.9469   -1.1065 C   0  0  0  0  0  0  0  0  0  0  0  0
    5.3512   -0.8031    0.8275 C   0  0  0  0  0  0  0  0  0  0  0  0
    6.5243   -0.6953    1.5760 C   0  0  0  0  0  0  0  0  0  0  0  0
    8.4723    0.2120    1.7208 H   0  0  0  0  0  0  0  0  0  0  0  0
    8.2279    1.4911   -0.3903 H   0  0  0  0  0  0  0  0  0  0  0  0
    6.1554    1.3100   -1.7212 H   0  0  0  0  0  0  0  0  0  0  0  0
    4.1507   -0.0282   -2.2326 H   0  0  0  0  0  0  0  0  0  0  0  0
    3.5447   -1.2125   -1.0901 H   0  0  0  0  0  0  0  0  0  0  0  0
    2.6394    0.6572    0.3669 H   0  0  0  0  0  0  0  0  0  0  0  0
    3.3400    1.8286   -0.7443 H   0  0  0  0  0  0  0  0  0  0  0  0
    1.0316   -0.8980   -0.4429 H   0  0  0  0  0  0  0  0  0  0  0  0
    1.4158   -1.1535   -2.1499 H   0  0  0  0  0  0  0  0  0  0  0  0
   -0.9704   -1.3887   -1.7369 H   0  0  0  0  0  0  0  0  0  0  0  0
   -0.6899   -0.0085   -2.8135 H   0  0  0  0  0  0  0  0  0  0  0  0
   -3.2426    1.0594    3.4568 H   0  0  0  0  0  0  0  0  0  0  0  0
   -5.2924    0.4491    4.7127 H   0  0  0  0  0  0  0  0  0  0  0  0
   -7.1046   -0.8259    3.5946 H   0  0  0  0  0  0  0  0  0  0  0  0
   -6.8824   -1.4887    1.2345 H   0  0  0  0  0  0  0  0  0  0  0  0
   -6.4882   -1.9692   -0.9052 H   0  0  0  0  0  0  0  0  0  0  0  0
   -5.3509   -2.0039   -3.3578 H   0  0  0  0  0  0  0  0  0  0  0  0
   -2.9892   -0.7158   -3.1188 H   0  0  0  0  0  0  0  0  0  0  0  0
   -0.0501    1.1407    0.7476 H   0  0  0  0  0  0  0  0  0  0  0  0
   -1.0288    2.4260    0.0144 H   0  0  0  0  0  0  0  0  0  0  0  0
    1.3048    2.7655   -0.6319 H   0  0  0  0  0  0  0  0  0  0  0  0
    0.3392    2.3697   -2.0330 H   0  0  0  0  0  0  0  0  0  0  0  0
    4.5516   -1.4485    1.1841 H   0  0  0  0  0  0  0  0  0  0  0  0
    6.6306   -1.2543    2.5020 H   0  0  0  0  0  0  0  0  0  0  0  0
  1  2  2  0
  2  3  1  0
  3  4  2  0
  4  5  1  0
  5  6  1  0
  6  7  1  0
  7  8  1  0
  8  9  1  0
  9 10  1  0
 10 11  1  0
 11 12  2  0
 12 13  1  0
 13 14  2  0
 14 15  1  0
 15 16  2  0
 16 17  1  0
 17 18  2  0
 18 19  1  0
 19 20  1  0
 20 21  2  0
 21 22  1  0
 22 23  2  0
 10 24  1  0
 24 25  1  0
  4 26  1  0
 26 27  2  0
 27  1  1  0
 25  7  1  0
 23 11  1  0
 18 13  1  0
 23 19  1  0
  1 28  1  0
  2 29  1  0
  3 30  1  0
  5 31  1  0
  5 32  1  0
  6 33  1  0
  6 34  1  0
  8 35  1  0
  8 36  1  0
  9 37  1  0
  9 38  1  0
 14 39  1  0
 15 40  1  0
 16 41  1  0
 17 42  1  0
 20 43  1  0
 21 44  1  0
 22 45  1  0
 24 46  1  0
 24 47  1  0
 25 48  1  0
 25 49  1  0
 26 50  1  0
 27 51  1  0
M  END
$$$$
