
     RDKit          3D

 47 51  0  0  0  0  0  0  0  0999 V2000
   -2.0390   -2.8745   -2.7349 C   0  0  0  0  0  0  0  0  0  0  0  0
   -2.1964   -1.6797   -1.8473 C   0  0  0  0  0  0  0  0  0  0  0  0
   -3.3460   -1.0541   -1.8168 N   0  0  0  0  0  0  0  0  0  0  0  0
   -3.4490    0.0329   -0.9935 C   0  0  0  0  0  0  0  0  0  0  0  0
   -4.8857    0.9519   -0.8676 S   0  0  0  0  0  0  0  0  0  0  0  0
   -4.1780    2.0190    0.2644 C   0  0  0  0  0  0  0  0  0  0  0  0
   -2.8696    1.6907    0.5750 C   0  0  0  0  0  0  0  0  0  0  0  0
   -2.4763    0.5581   -0.1685 C   0  0  0  0  0  0  0  0  0  0  0  0
   -1.1525   -0.2070   -0.2390 C   0  0  0  0  0  0  0  0  0  0  0  0
   -0.0249   -0.0021    0.3918 N   0  0  0  0  0  0  0  0  0  0  0  0
    0.8447   -0.9758   -0.0331 N   0  0  0  0  0  0  0  0  0  0  0  0
    0.2228   -1.7249   -0.9213 C   0  0  0  0  0  0  0  0  0  0  0  0
    0.9888   -3.0714   -1.6869 S   0  0  0  0  0  0  0  0  0  0  0  0
    1.9677   -2.2387   -2.9720 C   0  0  0  0  0  0  0  0  0  0  0  0
    2.9459   -1.1973   -2.4566 C   0  0  0  0  0  0  0  0  0  0  0  0
    3.1933   -0.1861   -3.1114 O   0  0  0  0  0  0  0  0  0  0  0  0
    3.5758   -1.4903   -1.2709 N   0  0  0  0  0  0  0  0  0  0  0  0
    4.3902   -0.4827   -0.6302 C   0  0  0  0  0  0  0  0  0  0  0  0
    4.7830   -0.9691    0.7129 C   0  0  0  0  0  0  0  0  0  0  0  0
    4.1336   -0.9947    1.9315 C   0  0  0  0  0  0  0  0  0  0  0  0
    5.0301   -1.5914    2.8491 C   0  0  0  0  0  0  0  0  0  0  0  0
    6.1649   -1.8942    2.1330 C   0  0  0  0  0  0  0  0  0  0  0  0
    6.0236   -1.5238    0.8344 O   0  0  0  0  0  0  0  0  0  0  0  0
   -1.0748   -1.2933   -1.0850 N   0  0  0  0  0  0  0  0  0  0  0  0
   -2.0477    2.4905    1.5372 C   0  0  0  0  0  0  0  0  0  0  0  0
   -2.9232    3.4250    2.3900 C   0  0  0  0  0  0  0  0  0  0  0  0
   -3.9809    4.1493    1.5431 C   0  0  0  0  0  0  0  0  0  0  0  0
   -4.9413    3.1626    0.8591 C   0  0  0  0  0  0  0  0  0  0  0  0
   -1.2768   -2.6885   -3.4950 H   0  0  0  0  0  0  0  0  0  0  0  0
   -2.9817   -3.0717   -3.2562 H   0  0  0  0  0  0  0  0  0  0  0  0
   -1.7994   -3.7621   -2.1442 H   0  0  0  0  0  0  0  0  0  0  0  0
    1.2785   -1.7523   -3.6706 H   0  0  0  0  0  0  0  0  0  0  0  0
    2.5360   -2.9942   -3.5239 H   0  0  0  0  0  0  0  0  0  0  0  0
    3.0943   -2.1379   -0.6564 H   0  0  0  0  0  0  0  0  0  0  0  0
    5.2622   -0.2851   -1.2618 H   0  0  0  0  0  0  0  0  0  0  0  0
    3.8097    0.4427   -0.5462 H   0  0  0  0  0  0  0  0  0  0  0  0
    3.1341   -0.6254    2.1239 H   0  0  0  0  0  0  0  0  0  0  0  0
    4.8700   -1.7775    3.9016 H   0  0  0  0  0  0  0  0  0  0  0  0
    7.1114   -2.3506    2.3869 H   0  0  0  0  0  0  0  0  0  0  0  0
   -1.3260    3.0889    0.9669 H   0  0  0  0  0  0  0  0  0  0  0  0
   -1.4770    1.8278    2.1983 H   0  0  0  0  0  0  0  0  0  0  0  0
   -2.2864    4.1569    2.9004 H   0  0  0  0  0  0  0  0  0  0  0  0
   -3.4297    2.8417    3.1703 H   0  0  0  0  0  0  0  0  0  0  0  0
   -4.5542    4.8408    2.1708 H   0  0  0  0  0  0  0  0  0  0  0  0
   -3.4741    4.7554    0.7808 H   0  0  0  0  0  0  0  0  0  0  0  0
   -5.5200    3.6913    0.0923 H   0  0  0  0  0  0  0  0  0  0  0  0
   -5.6504    2.7709    1.5999 H   0  0  0  0  0  0  0  0  0  0  0  0
  1  2  1  0
  2  3  2  0
  3  4  1  0
  4  5  1  0
  5  6  1  0
  6  7  2  0
  7  8  1  0
  8  9  1  0
  9 10  2  0
 10 11  1  0
 11 12  2  0
 12 13  1  0
 13 14  1  0
 14 15  1  0
 15 16  2  0
 15 17  1  0
 17 18  1  0
 18 19  1  0
 19 20  2  0
 20 21  1  0
 21 22  2  0
 22 23  1  0
 12 24  1  0
  7 25  1  0
 25 26  1  0
 26 27  1  0
 27 28  1  0
 24  2  1  0
  8  4  2  0
 24  9  1  0
 28  6  1  0
 23 19  1  0
  1 29  1  0
  1 30  1  0
  1 31  1  0
 14 32  1  0
 14 33  1  0
 17 34  1  0
 18 35  1  0
 18 36  1  0
 20 37  1  0
 21 38  1  0
 22 39  1  0
 25 40  1  0
 25 41  1  0
 26 42  1  0
 26 43  1  0
 27 44  1  0
 27 45  1  0
 28 46  1  0
 28 47  1  0
M  END
$$$$
