
     RDKit          3D

 61 67  0  0  0  0  0  0  0  0999 V2000
    4.2667   -0.4515    2.1204 O   0  0  0  0  0  0  0  0  0  0  0  0
    3.6352   -0.0080    1.1664 C   0  0  0  0  0  0  0  0  0  0  0  0
    4.3920    0.6620    0.0887 C   0  0  0  0  0  0  0  0  0  0  0  0
    4.1476    2.0200   -0.2056 C   0  0  0  0  0  0  0  0  0  0  0  0
    4.8630    2.6549   -1.2235 C   0  0  0  0  0  0  0  0  0  0  0  0
    5.8012    1.9089   -1.9070 C   0  0  0  0  0  0  0  0  0  0  0  0
    6.0463    0.5892   -1.6048 C   0  0  0  0  0  0  0  0  0  0  0  0
    5.3666   -0.0651   -0.6016 C   0  0  0  0  0  0  0  0  0  0  0  0
    7.0058    0.0464   -2.4014 O   0  0  0  0  0  0  0  0  0  0  0  0
    7.3346    1.1708   -3.2416 C   0  0  0  0  0  0  0  0  0  0  0  0
    6.5795    2.3601   -2.9262 O   0  0  0  0  0  0  0  0  0  0  0  0
    2.2480   -0.0981    1.0555 N   0  0  0  0  0  0  0  0  0  0  0  0
    1.4980    0.1350   -0.1765 C   0  0  0  0  0  0  0  0  0  0  0  0
    0.4538   -0.9515   -0.4206 C   0  0  0  0  0  0  0  0  0  0  0  0
   -0.5193   -1.1791    0.7792 C   0  0  0  0  0  0  0  0  0  0  0  0
    0.0209   -0.4810    2.0537 C   0  0  0  0  0  0  0  0  0  0  0  0
    1.5272   -0.6782    2.1812 C   0  0  0  0  0  0  0  0  0  0  0  0
   -0.4493   -2.6191    0.9967 O   0  0  0  0  0  0  0  0  0  0  0  0
   -1.4567   -3.2118    1.6991 C   0  0  0  0  0  0  0  0  0  0  0  0
   -1.2245   -4.5228    2.1159 C   0  0  0  0  0  0  0  0  0  0  0  0
   -2.1879   -5.2005    2.8677 C   0  0  0  0  0  0  0  0  0  0  0  0
   -3.3858   -4.5653    3.1967 C   0  0  0  0  0  0  0  0  0  0  0  0
   -4.5646   -5.4020    4.1294 Cl  0  0  0  0  0  0  0  0  0  0  0  0
   -3.6331   -3.2619    2.7739 C   0  0  0  0  0  0  0  0  0  0  0  0
   -2.6638   -2.5966    2.0161 C   0  0  0  0  0  0  0  0  0  0  0  0
   -2.8952   -1.2252    1.5436 C   0  0  0  0  0  0  0  0  0  0  0  0
   -3.7780   -0.5414    2.0562 O   0  0  0  0  0  0  0  0  0  0  0  0
   -1.9719   -0.7435    0.4316 C   0  0  0  0  0  0  0  0  0  0  0  0
   -2.1556    0.7416    0.1601 C   0  0  0  0  0  0  0  0  0  0  0  0
   -3.1111    0.6545   -0.9822 C   0  0  0  0  0  0  0  0  0  0  0  0
   -3.8398    1.8394   -1.4958 C   0  0  0  0  0  0  0  0  0  0  0  0
   -3.7249    3.0936   -0.8885 C   0  0  0  0  0  0  0  0  0  0  0  0
   -4.4273    4.1877   -1.4024 C   0  0  0  0  0  0  0  0  0  0  0  0
   -5.2429    4.0356   -2.5219 C   0  0  0  0  0  0  0  0  0  0  0  0
   -5.3597    2.7893   -3.1320 C   0  0  0  0  0  0  0  0  0  0  0  0
   -4.6601    1.6939   -2.6214 C   0  0  0  0  0  0  0  0  0  0  0  0
   -3.2132   -0.5215   -1.5140 N   0  0  0  0  0  0  0  0  0  0  0  0
   -2.3945   -1.4017   -0.7758 O   0  0  0  0  0  0  0  0  0  0  0  0
    3.4108    2.5771    0.3676 H   0  0  0  0  0  0  0  0  0  0  0  0
    4.6942    3.6976   -1.4674 H   0  0  0  0  0  0  0  0  0  0  0  0
    5.5778   -1.0989   -0.3580 H   0  0  0  0  0  0  0  0  0  0  0  0
    7.1374    0.8992   -4.2858 H   0  0  0  0  0  0  0  0  0  0  0  0
    8.4025    1.3923   -3.1315 H   0  0  0  0  0  0  0  0  0  0  0  0
    1.0252    1.1186   -0.0852 H   0  0  0  0  0  0  0  0  0  0  0  0
    2.1677    0.1739   -1.0400 H   0  0  0  0  0  0  0  0  0  0  0  0
   -0.0907   -0.6994   -1.3376 H   0  0  0  0  0  0  0  0  0  0  0  0
    0.9882   -1.8850   -0.6471 H   0  0  0  0  0  0  0  0  0  0  0  0
   -0.4525   -0.8815    2.9565 H   0  0  0  0  0  0  0  0  0  0  0  0
   -0.1956    0.5933    2.0268 H   0  0  0  0  0  0  0  0  0  0  0  0
    1.7818   -1.7439    2.2324 H   0  0  0  0  0  0  0  0  0  0  0  0
    1.8910   -0.2135    3.1052 H   0  0  0  0  0  0  0  0  0  0  0  0
   -0.2886   -5.0168    1.8639 H   0  0  0  0  0  0  0  0  0  0  0  0
   -1.9976   -6.2201    3.1948 H   0  0  0  0  0  0  0  0  0  0  0  0
   -4.5707   -2.7696    3.0214 H   0  0  0  0  0  0  0  0  0  0  0  0
   -2.5519    1.3038    1.0085 H   0  0  0  0  0  0  0  0  0  0  0  0
   -1.2489    1.2318   -0.2033 H   0  0  0  0  0  0  0  0  0  0  0  0
   -3.1068    3.2466   -0.0112 H   0  0  0  0  0  0  0  0  0  0  0  0
   -4.3439    5.1591   -0.9240 H   0  0  0  0  0  0  0  0  0  0  0  0
   -5.7927    4.8869   -2.9170 H   0  0  0  0  0  0  0  0  0  0  0  0
   -6.0010    2.6649   -4.0018 H   0  0  0  0  0  0  0  0  0  0  0  0
   -4.7629    0.7265   -3.1086 H   0  0  0  0  0  0  0  0  0  0  0  0
  1  2  2  0
  2  3  1  0
  3  4  2  0
  4  5  1  0
  5  6  2  0
  6  7  1  0
  7  8  2  0
  7  9  1  0
  9 10  1  0
 10 11  1  0
  2 12  1  0
 12 13  1  0
 13 14  1  0
 14 15  1  0
 15 16  1  0
 16 17  1  0
 15 18  1  0
 18 19  1  0
 19 20  2  0
 20 21  1  0
 21 22  2  0
 22 23  1  0
 22 24  1  0
 24 25  2  0
 25 26  1  0
 26 27  2  0
 26 28  1  0
 28 29  1  0
 29 30  1  0
 30 31  1  0
 31 32  2  0
 32 33  1  0
 33 34  2  0
 34 35  1  0
 35 36  2  0
 30 37  2  0
 37 38  1  0
  8  3  1  0
 17 12  1  0
 25 19  1  0
 38 28  1  0
 11  6  1  0
 28 15  1  0
 36 31  1  0
  4 39  1  0
  5 40  1  0
  8 41  1  0
 10 42  1  0
 10 43  1  0
 13 44  1  0
 13 45  1  0
 14 46  1  0
 14 47  1  0
 16 48  1  0
 16 49  1  0
 17 50  1  0
 17 51  1  0
 20 52  1  0
 21 53  1  0
 24 54  1  0
 29 55  1  0
 29 56  1  0
 32 57  1  0
 33 58  1  0
 34 59  1  0
 35 60  1  0
 36 61  1  0
M  END
$$$$
