
     RDKit          3D

 59 62  0  0  0  0  0  0  0  0999 V2000
   -2.1196    1.1946   -3.0001 C   0  0  0  0  0  0  0  0  0  0  0  0
   -2.2275    0.2647   -1.9163 O   0  0  0  0  0  0  0  0  0  0  0  0
   -3.5431    0.1287   -1.5417 C   0  0  0  0  0  0  0  0  0  0  0  0
   -4.2642   -0.9624   -2.0619 C   0  0  0  0  0  0  0  0  0  0  0  0
   -3.6223   -1.9523   -2.9933 C   0  0  0  0  0  0  0  0  0  0  0  0
   -5.6198   -1.1000   -1.7284 C   0  0  0  0  0  0  0  0  0  0  0  0
   -6.2281   -0.1896   -0.8656 C   0  0  0  0  0  0  0  0  0  0  0  0
   -8.0545   -0.3994   -0.4236 Br  0  0  0  0  0  0  0  0  0  0  0  0
   -5.4999    0.8615   -0.3149 C   0  0  0  0  0  0  0  0  0  0  0  0
   -4.1429    1.0196   -0.6330 C   0  0  0  0  0  0  0  0  0  0  0  0
   -3.4179    2.1399    0.0398 C   0  0  0  0  0  0  0  0  0  0  0  0
   -4.0591    3.1339    0.3661 O   0  0  0  0  0  0  0  0  0  0  0  0
   -2.0771    1.9279    0.2583 N   0  0  0  0  0  0  0  0  0  0  0  0
   -1.1389    2.7661    0.8946 C   0  0  0  0  0  0  0  0  0  0  0  0
   -1.4482    4.0077    1.4498 C   0  0  0  0  0  0  0  0  0  0  0  0
   -0.4498    4.7654    2.0669 C   0  0  0  0  0  0  0  0  0  0  0  0
    0.8577    4.2871    2.1320 C   0  0  0  0  0  0  0  0  0  0  0  0
    1.1750    3.0451    1.5806 C   0  0  0  0  0  0  0  0  0  0  0  0
    0.1866    2.2709    0.9552 C   0  0  0  0  0  0  0  0  0  0  0  0
    0.4630    1.0036    0.3892 N   0  0  0  0  0  0  0  0  0  0  0  0
    1.3461    1.0769   -0.7961 C   0  0  0  0  0  0  0  0  0  0  0  0
    1.8254   -0.3249   -1.2003 C   0  0  0  0  0  0  0  0  0  0  0  0
    2.5766   -0.9803   -0.1248 N   0  0  0  0  0  0  0  0  0  0  0  0
    3.3798   -2.0646   -0.4573 C   0  0  0  0  0  0  0  0  0  0  0  0
    3.4296   -2.5425   -1.5883 O   0  0  0  0  0  0  0  0  0  0  0  0
    4.2232   -2.6775    0.5927 C   0  0  0  0  0  0  0  0  0  0  0  0
    4.1200   -4.0516    0.8223 C   0  0  0  0  0  0  0  0  0  0  0  0
    4.9167   -4.6501    1.7986 C   0  0  0  0  0  0  0  0  0  0  0  0
    5.8215   -3.8794    2.5305 C   0  0  0  0  0  0  0  0  0  0  0  0
    5.9420   -2.5111    2.2822 C   0  0  0  0  0  0  0  0  0  0  0  0
    5.1475   -1.9072    1.3072 C   0  0  0  0  0  0  0  0  0  0  0  0
    2.2490   -0.5591    1.2473 C   0  0  0  0  0  0  0  0  0  0  0  0
    0.8061   -0.0366    1.3875 C   0  0  0  0  0  0  0  0  0  0  0  0
   -2.3536    2.2124   -2.6738 H   0  0  0  0  0  0  0  0  0  0  0  0
   -2.7621    0.9105   -3.8408 H   0  0  0  0  0  0  0  0  0  0  0  0
   -1.0833    1.1802   -3.3484 H   0  0  0  0  0  0  0  0  0  0  0  0
   -2.6400   -2.2555   -2.6179 H   0  0  0  0  0  0  0  0  0  0  0  0
   -3.5108   -1.5156   -3.9906 H   0  0  0  0  0  0  0  0  0  0  0  0
   -4.2257   -2.8620   -3.0837 H   0  0  0  0  0  0  0  0  0  0  0  0
   -6.2001   -1.9233   -2.1411 H   0  0  0  0  0  0  0  0  0  0  0  0
   -5.9785    1.5554    0.3735 H   0  0  0  0  0  0  0  0  0  0  0  0
   -1.6565    1.0641   -0.0845 H   0  0  0  0  0  0  0  0  0  0  0  0
   -2.4565    4.4074    1.4194 H   0  0  0  0  0  0  0  0  0  0  0  0
   -0.6985    5.7318    2.4984 H   0  0  0  0  0  0  0  0  0  0  0  0
    1.6289    4.8819    2.6148 H   0  0  0  0  0  0  0  0  0  0  0  0
    2.1981    2.6878    1.6432 H   0  0  0  0  0  0  0  0  0  0  0  0
    0.7954    1.5270   -1.6294 H   0  0  0  0  0  0  0  0  0  0  0  0
    2.2253    1.7032   -0.5983 H   0  0  0  0  0  0  0  0  0  0  0  0
    2.4534   -0.2656   -2.0962 H   0  0  0  0  0  0  0  0  0  0  0  0
    0.9681   -0.9679   -1.4351 H   0  0  0  0  0  0  0  0  0  0  0  0
    3.4258   -4.6524    0.2396 H   0  0  0  0  0  0  0  0  0  0  0  0
    4.8401   -5.7185    1.9819 H   0  0  0  0  0  0  0  0  0  0  0  0
    6.4466   -4.3500    3.2858 H   0  0  0  0  0  0  0  0  0  0  0  0
    6.6628   -1.9201    2.8410 H   0  0  0  0  0  0  0  0  0  0  0  0
    5.2625   -0.8482    1.0960 H   0  0  0  0  0  0  0  0  0  0  0  0
    2.3978   -1.3887    1.9446 H   0  0  0  0  0  0  0  0  0  0  0  0
    2.9565    0.2358    1.5084 H   0  0  0  0  0  0  0  0  0  0  0  0
    0.6349    0.3034    2.4169 H   0  0  0  0  0  0  0  0  0  0  0  0
    0.1165   -0.8738    1.2210 H   0  0  0  0  0  0  0  0  0  0  0  0
  1  2  1  0
  2  3  1  0
  3  4  2  0
  4  5  1  0
  4  6  1  0
  6  7  2  0
  7  8  1  0
  7  9  1  0
  9 10  2  0
 10 11  1  0
 11 12  2  0
 11 13  1  0
 13 14  1  0
 14 15  2  0
 15 16  1  0
 16 17  2  0
 17 18  1  0
 18 19  2  0
 19 20  1  0
 20 21  1  0
 21 22  1  0
 22 23  1  0
 23 24  1  0
 24 25  2  0
 24 26  1  0
 26 27  2  0
 27 28  1  0
 28 29  2  0
 29 30  1  0
 30 31  2  0
 23 32  1  0
 32 33  1  0
 10  3  1  0
 19 14  1  0
 33 20  1  0
 31 26  1  0
  1 34  1  0
  1 35  1  0
  1 36  1  0
  5 37  1  0
  5 38  1  0
  5 39  1  0
  6 40  1  0
  9 41  1  0
 13 42  1  0
 15 43  1  0
 16 44  1  0
 17 45  1  0
 18 46  1  0
 21 47  1  0
 21 48  1  0
 22 49  1  0
 22 50  1  0
 27 51  1  0
 28 52  1  0
 29 53  1  0
 30 54  1  0
 31 55  1  0
 32 56  1  0
 32 57  1  0
 33 58  1  0
 33 59  1  0
M  END
$$$$
