
     RDKit          3D

 39 41  0  0  0  0  0  0  0  0999 V2000
   -1.1619   -1.8225    2.6757 O   0  0  0  0  0  0  0  0  0  0  0  0
   -1.7950   -2.1733    1.4270 S   0  0  0  0  0  6  0  0  0  0  0  0
   -2.6587   -3.3246    1.2880 O   0  0  0  0  0  0  0  0  0  0  0  0
   -0.6189   -2.3286    0.2179 N   0  0  0  0  0  0  0  0  0  0  0  0
    0.5860   -3.1355    0.5749 C   0  0  0  0  0  0  0  0  0  0  0  0
    1.6558   -2.3335    1.3170 C   0  0  0  0  0  0  0  0  0  0  0  0
    2.1670   -1.1729    0.5351 C   0  0  0  0  0  0  0  0  0  0  0  0
    2.0579    0.1719    0.8226 C   0  0  0  0  0  0  0  0  0  0  0  0
    2.6478    0.8248   -0.2275 N   0  0  0  0  0  0  0  0  0  0  0  0
    2.7643    2.1901   -0.4679 C   0  0  0  0  0  0  0  0  0  0  0  0
    3.3755    2.6056   -1.5896 C   0  0  0  0  0  0  0  0  0  0  0  0
    3.9107    1.6117   -2.5095 C   0  0  0  0  0  0  0  0  0  0  0  0
    3.7993    0.2918   -2.2647 C   0  0  0  0  0  0  0  0  0  0  0  0
    3.1331   -0.1539   -1.0873 C   0  0  0  0  0  0  0  0  0  0  0  0
    2.8587   -1.3625   -0.6415 N   0  0  0  0  0  0  0  0  0  0  0  0
   -2.6750   -0.7338    0.8686 C   0  0  0  0  0  0  0  0  0  0  0  0
   -4.0665   -0.7607    0.7613 C   0  0  0  0  0  0  0  0  0  0  0  0
   -4.7330    0.3792    0.3116 C   0  0  0  0  0  0  0  0  0  0  0  0
   -4.0070    1.5197   -0.0328 C   0  0  0  0  0  0  0  0  0  0  0  0
   -4.6716    2.5985   -0.4632 F   0  0  0  0  0  0  0  0  0  0  0  0
   -2.6186    1.5555    0.0670 C   0  0  0  0  0  0  0  0  0  0  0  0
   -1.8826    2.8024   -0.3210 C   0  0  0  0  0  0  0  0  0  0  0  0
   -0.5544    2.7569   -0.0001 F   0  0  0  0  0  0  0  0  0  0  0  0
   -2.3612    3.9214    0.2896 F   0  0  0  0  0  0  0  0  0  0  0  0
   -1.9254    3.0468   -1.6593 F   0  0  0  0  0  0  0  0  0  0  0  0
   -1.9481    0.4094    0.5165 C   0  0  0  0  0  0  0  0  0  0  0  0
   -1.0679   -2.7414   -0.6061 H   0  0  0  0  0  0  0  0  0  0  0  0
    0.2816   -4.0142    1.1567 H   0  0  0  0  0  0  0  0  0  0  0  0
    1.0003   -3.5224   -0.3661 H   0  0  0  0  0  0  0  0  0  0  0  0
    1.2839   -1.9877    2.2859 H   0  0  0  0  0  0  0  0  0  0  0  0
    2.5010   -3.0002    1.5379 H   0  0  0  0  0  0  0  0  0  0  0  0
    1.6052    0.6985    1.6493 H   0  0  0  0  0  0  0  0  0  0  0  0
    2.3388    2.8656    0.2642 H   0  0  0  0  0  0  0  0  0  0  0  0
    3.4815    3.6572   -1.8275 H   0  0  0  0  0  0  0  0  0  0  0  0
    4.4094    1.9678   -3.4067 H   0  0  0  0  0  0  0  0  0  0  0  0
    4.1966   -0.4499   -2.9467 H   0  0  0  0  0  0  0  0  0  0  0  0
   -4.6297   -1.6526    1.0257 H   0  0  0  0  0  0  0  0  0  0  0  0
   -5.8162    0.3926    0.2295 H   0  0  0  0  0  0  0  0  0  0  0  0
   -0.8626    0.4029    0.5957 H   0  0  0  0  0  0  0  0  0  0  0  0
  1  2  2  0
  2  3  2  0
  2  4  1  0
  4  5  1  0
  5  6  1  0
  6  7  1  0
  7  8  2  0
  8  9  1  0
  9 10  1  0
 10 11  2  0
 11 12  1  0
 12 13  2  0
 13 14  1  0
 14 15  2  0
  2 16  1  0
 16 17  2  0
 17 18  1  0
 18 19  2  0
 19 20  1  0
 19 21  1  0
 21 22  1  0
 22 23  1  0
 22 24  1  0
 22 25  1  0
 21 26  2  0
 15  7  1  0
 26 16  1  0
 14  9  1  0
  4 27  1  0
  5 28  1  0
  5 29  1  0
  6 30  1  0
  6 31  1  0
  8 32  1  0
 10 33  1  0
 11 34  1  0
 12 35  1  0
 13 36  1  0
 17 37  1  0
 18 38  1  0
 26 39  1  0
M  END
$$$$
