
     RDKit          3D

 37 39  0  0  0  0  0  0  0  0999 V2000
    3.7341    1.4781    4.6321 C   0  0  0  0  0  0  0  0  0  0  0  0
    2.8715    1.3931    3.5039 O   0  0  0  0  0  0  0  0  0  0  0  0
    2.4852    0.1385    3.1127 C   0  0  0  0  0  0  0  0  0  0  0  0
    2.8547   -1.0584    3.7228 C   0  0  0  0  0  0  0  0  0  0  0  0
    2.3983   -2.2905    3.2360 C   0  0  0  0  0  0  0  0  0  0  0  0
    1.5584   -2.2814    2.1171 C   0  0  0  0  0  0  0  0  0  0  0  0
    0.9734   -3.3267    1.4412 N   0  0  0  0  0  0  0  0  0  0  0  0
    0.2210   -2.8548    0.3957 C   0  0  0  0  0  0  0  0  0  0  0  0
    0.3175   -1.4796    0.3880 C   0  0  0  0  0  0  0  0  0  0  0  0
   -0.3153   -0.5872   -0.5339 C   0  0  0  0  0  0  0  0  0  0  0  0
   -1.0744   -0.9408   -1.5854 C   0  0  0  0  0  0  0  0  0  0  0  0
   -1.6931    0.0271   -2.4976 C   0  0  0  0  0  0  0  0  0  0  0  0
   -1.6810   -0.2238   -3.8681 C   0  0  0  0  0  0  0  0  0  0  0  0
   -2.2809    0.6783   -4.7397 C   0  0  0  0  0  0  0  0  0  0  0  0
   -2.8831    1.7934   -4.2695 N   0  0  0  0  0  4  0  0  0  0  0  0
   -3.5198    2.7301   -5.2108 C   0  0  0  0  0  0  0  0  0  0  0  0
   -2.9302    2.0448   -2.9423 C   0  0  0  0  0  0  0  0  0  0  0  0
   -2.3414    1.1715   -2.0350 C   0  0  0  0  0  0  0  0  0  0  0  0
    1.1654   -1.1051    1.4787 C   0  0  0  0  0  0  0  0  0  0  0  0
    1.6425    0.1203    1.9925 C   0  0  0  0  0  0  0  0  0  0  0  0
    4.6866    0.9734    4.4397 H   0  0  0  0  0  0  0  0  0  0  0  0
    3.2491    1.0816    5.5302 H   0  0  0  0  0  0  0  0  0  0  0  0
    3.9483    2.5365    4.8095 H   0  0  0  0  0  0  0  0  0  0  0  0
    3.5057   -1.0751    4.5916 H   0  0  0  0  0  0  0  0  0  0  0  0
    2.6921   -3.2178    3.7183 H   0  0  0  0  0  0  0  0  0  0  0  0
    1.0856   -4.3009    1.6875 H   0  0  0  0  0  0  0  0  0  0  0  0
   -0.3112   -3.5503   -0.2383 H   0  0  0  0  0  0  0  0  0  0  0  0
   -0.1375    0.4703   -0.3496 H   0  0  0  0  0  0  0  0  0  0  0  0
   -1.2428   -1.9902   -1.8158 H   0  0  0  0  0  0  0  0  0  0  0  0
   -1.1969   -1.1142   -4.2659 H   0  0  0  0  0  0  0  0  0  0  0  0
   -2.2856    0.5155   -5.8138 H   0  0  0  0  0  0  0  0  0  0  0  0
   -4.5577    2.4124   -5.3368 H   0  0  0  0  0  0  0  0  0  0  0  0
   -3.4686    3.7414   -4.7992 H   0  0  0  0  0  0  0  0  0  0  0  0
   -2.9846    2.7004   -6.1634 H   0  0  0  0  0  0  0  0  0  0  0  0
   -3.4453    2.9438   -2.6155 H   0  0  0  0  0  0  0  0  0  0  0  0
   -2.4030    1.3868   -0.9696 H   0  0  0  0  0  0  0  0  0  0  0  0
    1.3631    1.0593    1.5254 H   0  0  0  0  0  0  0  0  0  0  0  0
  1  2  1  0
  2  3  1  0
  3  4  2  0
  4  5  1  0
  5  6  2  0
  6  7  1  0
  7  8  1  0
  8  9  2  0
  9 10  1  0
 10 11  2  3
 11 12  1  0
 12 13  2  0
 13 14  1  0
 14 15  2  0
 15 16  1  0
 15 17  1  0
 17 18  2  0
  9 19  1  0
 19 20  2  0
 20  3  1  0
 19  6  1  0
 18 12  1  0
  1 21  1  0
  1 22  1  0
  1 23  1  0
  4 24  1  0
  5 25  1  0
  7 26  1  0
  8 27  1  0
 10 28  1  0
 11 29  1  0
 13 30  1  0
 14 31  1  0
 16 32  1  0
 16 33  1  0
 16 34  1  0
 17 35  1  0
 18 36  1  0
 20 37  1  0
M  CHG  1  15   1
M  END
$$$$
