
     RDKit          3D

 53 57  0  0  0  0  0  0  0  0999 V2000
    6.5145    1.3000   -1.2549 C   0  0  0  0  0  0  0  0  0  0  0  0
    6.1181    0.1510   -0.5166 O   0  0  0  0  0  0  0  0  0  0  0  0
    4.9061    0.2122    0.1140 C   0  0  0  0  0  0  0  0  0  0  0  0
    4.0186    1.2865    0.0862 C   0  0  0  0  0  0  0  0  0  0  0  0
    2.8033    1.2148    0.7771 C   0  0  0  0  0  0  0  0  0  0  0  0
    2.4526    0.0658    1.5001 C   0  0  0  0  0  0  0  0  0  0  0  0
    1.1371   -0.0110    2.2474 C   0  0  0  0  0  0  0  0  0  0  0  0
   -0.0305    0.0718    1.3589 N   0  0  0  0  0  0  0  0  0  0  0  0
   -0.5389   -1.0049    0.6654 C   0  0  0  0  0  0  0  0  0  0  0  0
    0.0819   -2.3348    0.8321 C   0  0  0  0  0  0  0  0  0  0  0  0
    0.9535   -2.8074   -0.1518 C   0  0  0  0  0  0  0  0  0  0  0  0
    1.5249   -4.0713   -0.0097 C   0  0  0  0  0  0  0  0  0  0  0  0
    1.2101   -4.8591    1.0998 C   0  0  0  0  0  0  0  0  0  0  0  0
    0.3167   -4.3913    2.0665 C   0  0  0  0  0  0  0  0  0  0  0  0
   -0.2581   -3.1279    1.9316 C   0  0  0  0  0  0  0  0  0  0  0  0
   -1.5471   -0.9279   -0.1366 N   0  0  0  0  0  0  0  0  0  0  0  0
   -2.1769    0.2753   -0.3652 C   0  0  0  0  0  0  0  0  0  0  0  0
   -1.7684    1.3945    0.2700 C   0  0  0  0  0  0  0  0  0  0  0  0
   -2.4450    2.6843   -0.0144 C   0  0  0  0  0  0  0  0  0  0  0  0
   -2.0522    3.7593    0.4279 O   0  0  0  0  0  0  0  0  0  0  0  0
   -3.6416    2.6660   -0.8761 C   0  0  0  0  0  0  0  0  0  0  0  0
   -4.3666    3.8550   -1.0641 C   0  0  0  0  0  0  0  0  0  0  0  0
   -5.4976    3.8620   -1.8722 C   0  0  0  0  0  0  0  0  0  0  0  0
   -5.9005    2.6844   -2.4891 C   0  0  0  0  0  0  0  0  0  0  0  0
   -5.1708    1.5034   -2.3000 C   0  0  0  0  0  0  0  0  0  0  0  0
   -4.0199    1.4653   -1.4905 C   0  0  0  0  0  0  0  0  0  0  0  0
   -3.2511    0.2999   -1.2779 N   0  0  0  0  0  0  0  0  0  0  0  0
   -3.6661   -0.9166   -1.9859 C   0  0  0  0  0  0  0  0  0  0  0  0
   -0.6442    1.3058    1.2342 C   0  0  0  0  0  0  0  0  0  0  0  0
   -0.2868    2.2792    1.8954 O   0  0  0  0  0  0  0  0  0  0  0  0
    3.3582   -1.0020    1.5372 C   0  0  0  0  0  0  0  0  0  0  0  0
    4.5693   -0.9286    0.8444 C   0  0  0  0  0  0  0  0  0  0  0  0
    7.4986    1.0958   -1.6878 H   0  0  0  0  0  0  0  0  0  0  0  0
    6.6128    2.1743   -0.6029 H   0  0  0  0  0  0  0  0  0  0  0  0
    5.8224    1.4969   -2.0804 H   0  0  0  0  0  0  0  0  0  0  0  0
    4.2385    2.1987   -0.4584 H   0  0  0  0  0  0  0  0  0  0  0  0
    2.1352    2.0748    0.7513 H   0  0  0  0  0  0  0  0  0  0  0  0
    1.0854   -0.9383    2.8262 H   0  0  0  0  0  0  0  0  0  0  0  0
    1.1197    0.7944    2.9915 H   0  0  0  0  0  0  0  0  0  0  0  0
    1.1924   -2.1939   -1.0170 H   0  0  0  0  0  0  0  0  0  0  0  0
    2.2127   -4.4439   -0.7649 H   0  0  0  0  0  0  0  0  0  0  0  0
    1.6543   -5.8464    1.2052 H   0  0  0  0  0  0  0  0  0  0  0  0
    0.0630   -5.0172    2.9187 H   0  0  0  0  0  0  0  0  0  0  0  0
   -0.9683   -2.7706    2.6722 H   0  0  0  0  0  0  0  0  0  0  0  0
   -4.0471    4.7749   -0.5777 H   0  0  0  0  0  0  0  0  0  0  0  0
   -6.0601    4.7806   -2.0176 H   0  0  0  0  0  0  0  0  0  0  0  0
   -6.7854    2.6784   -3.1214 H   0  0  0  0  0  0  0  0  0  0  0  0
   -5.5379    0.6144   -2.8045 H   0  0  0  0  0  0  0  0  0  0  0  0
   -2.9631   -1.7474   -1.8638 H   0  0  0  0  0  0  0  0  0  0  0  0
   -3.7264   -0.7399   -3.0662 H   0  0  0  0  0  0  0  0  0  0  0  0
   -4.6378   -1.2645   -1.6173 H   0  0  0  0  0  0  0  0  0  0  0  0
    3.1298   -1.9059    2.0981 H   0  0  0  0  0  0  0  0  0  0  0  0
    5.2587   -1.7688    0.8762 H   0  0  0  0  0  0  0  0  0  0  0  0
  1  2  1  0
  2  3  1  0
  3  4  2  0
  4  5  1  0
  5  6  2  0
  6  7  1  0
  7  8  1  0
  8  9  1  0
  9 10  1  0
 10 11  2  0
 11 12  1  0
 12 13  2  0
 13 14  1  0
 14 15  2  0
  9 16  2  0
 16 17  1  0
 17 18  2  0
 18 19  1  0
 19 20  2  0
 19 21  1  0
 21 22  2  0
 22 23  1  0
 23 24  2  0
 24 25  1  0
 25 26  2  0
 26 27  1  0
 27 28  1  0
 18 29  1  0
 29 30  2  0
  6 31  1  0
 31 32  2  0
 32  3  1  0
 29  8  1  0
 15 10  1  0
 27 17  1  0
 26 21  1  0
  1 33  1  0
  1 34  1  0
  1 35  1  0
  4 36  1  0
  5 37  1  0
  7 38  1  0
  7 39  1  0
 11 40  1  0
 12 41  1  0
 13 42  1  0
 14 43  1  0
 15 44  1  0
 22 45  1  0
 23 46  1  0
 24 47  1  0
 25 48  1  0
 28 49  1  0
 28 50  1  0
 28 51  1  0
 31 52  1  0
 32 53  1  0
M  END
$$$$
