
     RDKit          3D

 46 48  0  0  0  0  0  0  0  0999 V2000
   -2.1255   -2.0266   -1.9424 C   0  0  0  0  0  0  0  0  0  0  0  0
   -2.1226   -0.5486   -1.5989 C   0  0  0  0  0  0  0  0  0  0  0  0
   -2.6315   -0.3464   -0.2085 N   0  0  0  0  0  4  0  0  0  0  0  0
   -1.7366   -0.2594    0.8221 C   0  0  0  0  0  0  0  0  0  0  0  0
   -0.2990   -0.4645    0.6001 C   0  0  0  0  0  0  0  0  0  0  0  0
    0.5936    0.5300    0.7352 C   0  0  0  0  0  0  0  0  0  0  0  0
    2.0441    0.3608    0.5510 C   0  0  0  0  0  0  0  0  0  0  0  0
    2.5838   -0.4919   -0.4173 C   0  0  0  0  0  0  0  0  0  0  0  0
    3.9691   -0.6021   -0.5782 C   0  0  0  0  0  0  0  0  0  0  0  0
    4.8365    0.1467    0.2206 C   0  0  0  0  0  0  0  0  0  0  0  0
    6.2046    0.1037    0.1338 O   0  0  0  0  0  0  0  0  0  0  0  0
    6.7851   -0.7803   -0.8143 C   0  0  0  0  0  0  0  0  0  0  0  0
    4.3049    1.0212    1.1881 C   0  0  0  0  0  0  0  0  0  0  0  0
    5.2220    1.7261    1.9267 O   0  0  0  0  0  0  0  0  0  0  0  0
    4.7408    2.6179    2.9211 C   0  0  0  0  0  0  0  0  0  0  0  0
    2.9158    1.1248    1.3411 C   0  0  0  0  0  0  0  0  0  0  0  0
   -2.1695   -0.0054    2.1241 C   0  0  0  0  0  0  0  0  0  0  0  0
   -3.5153    0.1618    2.3883 C   0  0  0  0  0  0  0  0  0  0  0  0
   -4.4316    0.0599    1.3496 C   0  0  0  0  0  0  0  0  0  0  0  0
   -5.7996    0.2164    1.6181 C   0  0  0  0  0  0  0  0  0  0  0  0
   -6.7403    0.1089    0.5982 C   0  0  0  0  0  0  0  0  0  0  0  0
   -6.3240   -0.1596   -0.6982 C   0  0  0  0  0  0  0  0  0  0  0  0
   -4.9627   -0.3165   -0.9813 C   0  0  0  0  0  0  0  0  0  0  0  0
   -3.9821   -0.2055    0.0256 C   0  0  0  0  0  0  0  0  0  0  0  0
   -3.1315   -2.4524   -1.8858 H   0  0  0  0  0  0  0  0  0  0  0  0
   -1.7498   -2.1783   -2.9589 H   0  0  0  0  0  0  0  0  0  0  0  0
   -1.4905   -2.5961   -1.2572 H   0  0  0  0  0  0  0  0  0  0  0  0
   -1.1174   -0.1275   -1.6879 H   0  0  0  0  0  0  0  0  0  0  0  0
   -2.7329    0.0386   -2.2905 H   0  0  0  0  0  0  0  0  0  0  0  0
    0.0062   -1.4766    0.3483 H   0  0  0  0  0  0  0  0  0  0  0  0
    0.2792    1.5338    1.0203 H   0  0  0  0  0  0  0  0  0  0  0  0
    1.9462   -1.0786   -1.0724 H   0  0  0  0  0  0  0  0  0  0  0  0
    4.3420   -1.2781   -1.3409 H   0  0  0  0  0  0  0  0  0  0  0  0
    6.5038   -0.5030   -1.8354 H   0  0  0  0  0  0  0  0  0  0  0  0
    6.5193   -1.8205   -0.5990 H   0  0  0  0  0  0  0  0  0  0  0  0
    7.8727   -0.6913   -0.7332 H   0  0  0  0  0  0  0  0  0  0  0  0
    5.6069    3.0816    3.4030 H   0  0  0  0  0  0  0  0  0  0  0  0
    4.1398    3.4176    2.4762 H   0  0  0  0  0  0  0  0  0  0  0  0
    4.1781    2.0822    3.6926 H   0  0  0  0  0  0  0  0  0  0  0  0
    2.4962    1.7962    2.0835 H   0  0  0  0  0  0  0  0  0  0  0  0
   -1.4551    0.0556    2.9446 H   0  0  0  0  0  0  0  0  0  0  0  0
   -3.8386    0.3601    3.4100 H   0  0  0  0  0  0  0  0  0  0  0  0
   -6.1526    0.4223    2.6289 H   0  0  0  0  0  0  0  0  0  0  0  0
   -7.8001    0.2308    0.8183 H   0  0  0  0  0  0  0  0  0  0  0  0
   -7.0636   -0.2500   -1.4932 H   0  0  0  0  0  0  0  0  0  0  0  0
   -4.7182   -0.5380   -2.0154 H   0  0  0  0  0  0  0  0  0  0  0  0
  1  2  1  0
  2  3  1  0
  3  4  2  0
  4  5  1  0
  5  6  2  3
  6  7  1  0
  7  8  2  0
  8  9  1  0
  9 10  2  0
 10 11  1  0
 11 12  1  0
 10 13  1  0
 13 14  1  0
 14 15  1  0
 13 16  2  0
  4 17  1  0
 17 18  2  0
 18 19  1  0
 19 20  2  0
 20 21  1  0
 21 22  2  0
 22 23  1  0
 23 24  2  0
 24  3  1  0
 16  7  1  0
 24 19  1  0
  1 25  1  0
  1 26  1  0
  1 27  1  0
  2 28  1  0
  2 29  1  0
  5 30  1  0
  6 31  1  0
  8 32  1  0
  9 33  1  0
 12 34  1  0
 12 35  1  0
 12 36  1  0
 15 37  1  0
 15 38  1  0
 15 39  1  0
 16 40  1  0
 17 41  1  0
 18 42  1  0
 20 43  1  0
 21 44  1  0
 22 45  1  0
 23 46  1  0
M  CHG  1   3   1
M  END
$$$$
