
     RDKit          3D

 42 44  0  0  0  0  0  0  0  0999 V2000
    2.9056    1.5907   -1.0529 O   0  0  0  0  0  0  0  0  0  0  0  0
    2.0992    1.3330   -0.1656 C   0  0  0  0  0  0  0  0  0  0  0  0
    2.0726    0.1840    0.5960 N   0  0  0  0  0  0  0  0  0  0  0  0
    2.9156   -0.9492    0.5110 C   0  0  0  0  0  0  0  0  0  0  0  0
    3.9927   -1.0415   -0.3740 C   0  0  0  0  0  0  0  0  0  0  0  0
    4.7892   -2.1920   -0.4083 C   0  0  0  0  0  0  0  0  0  0  0  0
    4.5185   -3.2640    0.4392 C   0  0  0  0  0  0  0  0  0  0  0  0
    3.4477   -3.1899    1.3267 C   0  0  0  0  0  0  0  0  0  0  0  0
    2.6530   -2.0409    1.3616 C   0  0  0  0  0  0  0  0  0  0  0  0
    1.3224   -2.0059    2.4713 Cl  0  0  0  0  0  0  0  0  0  0  0  0
    1.0418    2.3467    0.1404 C   0  0  0  0  0  0  0  0  0  0  0  0
    1.3139    3.6835   -0.1931 C   0  0  0  0  0  0  0  0  0  0  0  0
    0.3742    4.6869    0.0557 C   0  0  0  0  0  0  0  0  0  0  0  0
   -0.8489    4.3674    0.6409 C   0  0  0  0  0  0  0  0  0  0  0  0
   -1.1407    3.0434    0.9657 C   0  0  0  0  0  0  0  0  0  0  0  0
   -0.2091    2.0324    0.6948 C   0  0  0  0  0  0  0  0  0  0  0  0
   -0.5211    0.7357    1.0410 O   0  0  0  0  0  0  0  0  0  0  0  0
   -1.5274    0.1289    0.3211 C   0  0  0  0  0  0  0  0  0  0  0  0
   -1.5402    0.1538   -1.0785 C   0  0  0  0  0  0  0  0  0  0  0  0
   -2.5257   -0.5416   -1.7901 C   0  0  0  0  0  0  0  0  0  0  0  0
   -3.5113   -1.2855   -1.1208 C   0  0  0  0  0  0  0  0  0  0  0  0
   -4.5572   -2.0575   -1.8926 C   0  0  0  0  0  0  0  0  0  0  0  0
   -4.7629   -1.5742   -3.1480 F   0  0  0  0  0  0  0  0  0  0  0  0
   -4.2244   -3.3677   -2.0399 F   0  0  0  0  0  0  0  0  0  0  0  0
   -5.7735   -2.0420   -1.2817 F   0  0  0  0  0  0  0  0  0  0  0  0
   -3.4849   -1.3338    0.2818 C   0  0  0  0  0  0  0  0  0  0  0  0
   -2.4972   -0.6277    0.9861 C   0  0  0  0  0  0  0  0  0  0  0  0
   -2.5149   -0.6901    2.4389 N   0  0  0  0  0  4  0  0  0  0  0  0
   -2.6646   -1.8078    2.9508 O   0  0  0  0  0  0  0  0  0  0  0  0
   -2.4264    0.3774    3.0602 O   0  0  0  0  0  1  0  0  0  0  0  0
    1.3504    0.1146    1.3078 H   0  0  0  0  0  0  0  0  0  0  0  0
    4.2459   -0.2318   -1.0512 H   0  0  0  0  0  0  0  0  0  0  0  0
    5.6253   -2.2449   -1.1024 H   0  0  0  0  0  0  0  0  0  0  0  0
    5.1412   -4.1546    0.4073 H   0  0  0  0  0  0  0  0  0  0  0  0
    3.2360   -4.0277    1.9859 H   0  0  0  0  0  0  0  0  0  0  0  0
    2.2684    3.9507   -0.6448 H   0  0  0  0  0  0  0  0  0  0  0  0
    0.6029    5.7189   -0.2011 H   0  0  0  0  0  0  0  0  0  0  0  0
   -1.5739    5.1512    0.8490 H   0  0  0  0  0  0  0  0  0  0  0  0
   -2.0906    2.8055    1.4389 H   0  0  0  0  0  0  0  0  0  0  0  0
   -0.7772    0.6931   -1.6367 H   0  0  0  0  0  0  0  0  0  0  0  0
   -2.5123   -0.5079   -2.8804 H   0  0  0  0  0  0  0  0  0  0  0  0
   -4.2322   -1.9193    0.8185 H   0  0  0  0  0  0  0  0  0  0  0  0
  1  2  2  0
  2  3  1  0
  3  4  1  0
  4  5  2  0
  5  6  1  0
  6  7  2  0
  7  8  1  0
  8  9  2  0
  9 10  1  0
  2 11  1  0
 11 12  2  0
 12 13  1  0
 13 14  2  0
 14 15  1  0
 15 16  2  0
 16 17  1  0
 17 18  1  0
 18 19  2  0
 19 20  1  0
 20 21  2  0
 21 22  1  0
 22 23  1  0
 22 24  1  0
 22 25  1  0
 21 26  1  0
 26 27  2  0
 27 28  1  0
 28 29  2  0
 28 30  1  0
  9  4  1  0
 16 11  1  0
 27 18  1  0
  3 31  1  0
  5 32  1  0
  6 33  1  0
  7 34  1  0
  8 35  1  0
 12 36  1  0
 13 37  1  0
 14 38  1  0
 15 39  1  0
 19 40  1  0
 20 41  1  0
 26 42  1  0
M  CHG  2  28   1  30  -1
M  END
$$$$
