
     RDKit          3D

 32 34  0  0  0  0  0  0  0  0999 V2000
    7.0249   -0.5876    0.0998 C   0  0  0  0  0  0  0  0  0  0  0  0
    5.6962   -0.3566    0.7199 C   0  0  0  0  0  0  0  0  0  0  0  0
    5.4353   -0.1147    2.0547 C   0  0  0  0  0  0  0  0  0  0  0  0
    3.7516    0.0892    2.2902 S   0  0  0  0  0  0  0  0  0  0  0  0
    3.4955   -0.1577    0.6273 C   0  0  0  0  0  0  0  0  0  0  0  0
    2.2615   -0.1317    0.0335 N   0  0  0  0  0  0  0  0  0  0  0  0
    1.0399    0.0690    0.6397 C   0  0  0  0  0  0  0  0  0  0  0  0
    0.8717    0.2517    1.8410 O   0  0  0  0  0  0  0  0  0  0  0  0
   -0.0812    0.0455   -0.2937 C   0  0  0  0  0  0  0  0  0  0  0  0
   -0.1827   -0.0484   -1.6711 C   0  0  0  0  0  0  0  0  0  0  0  0
   -1.5651   -0.0081   -1.9872 C   0  0  0  0  0  0  0  0  0  0  0  0
   -2.2454    0.0973   -0.7923 C   0  0  0  0  0  0  0  0  0  0  0  0
   -3.6492    0.1896   -0.3931 C   0  0  0  0  0  0  0  0  0  0  0  0
   -3.9789    0.9972    0.7139 C   0  0  0  0  0  0  0  0  0  0  0  0
   -5.3019    1.1437    1.1402 C   0  0  0  0  0  0  0  0  0  0  0  0
   -6.3188    0.4799    0.4651 C   0  0  0  0  0  0  0  0  0  0  0  0
   -7.9487    0.6575    0.9843 Cl  0  0  0  0  0  0  0  0  0  0  0  0
   -6.0244   -0.3313   -0.6263 C   0  0  0  0  0  0  0  0  0  0  0  0
   -4.6974   -0.4791   -1.0532 C   0  0  0  0  0  0  0  0  0  0  0  0
   -4.4388   -1.5505   -2.3892 Cl  0  0  0  0  0  0  0  0  0  0  0  0
   -1.3433    0.1402    0.2319 O   0  0  0  0  0  0  0  0  0  0  0  0
    4.5721   -0.3774   -0.0917 N   0  0  0  0  0  0  0  0  0  0  0  0
    7.2261    0.1757   -0.6582 H   0  0  0  0  0  0  0  0  0  0  0  0
    7.8263   -0.5498    0.8443 H   0  0  0  0  0  0  0  0  0  0  0  0
    7.0518   -1.5700   -0.3818 H   0  0  0  0  0  0  0  0  0  0  0  0
    6.1305   -0.0495    2.8794 H   0  0  0  0  0  0  0  0  0  0  0  0
    2.3134   -0.3011   -0.9577 H   0  0  0  0  0  0  0  0  0  0  0  0
    0.6284   -0.1254   -2.3809 H   0  0  0  0  0  0  0  0  0  0  0  0
   -2.0042   -0.0424   -2.9748 H   0  0  0  0  0  0  0  0  0  0  0  0
   -3.1952    1.5263    1.2565 H   0  0  0  0  0  0  0  0  0  0  0  0
   -5.5244    1.7745    1.9974 H   0  0  0  0  0  0  0  0  0  0  0  0
   -6.8255   -0.8556   -1.1413 H   0  0  0  0  0  0  0  0  0  0  0  0
  1  2  1  0
  2  3  2  0
  3  4  1  0
  4  5  1  0
  5  6  1  0
  6  7  1  0
  7  8  2  0
  7  9  1  0
  9 10  2  0
 10 11  1  0
 11 12  2  0
 12 13  1  0
 13 14  2  0
 14 15  1  0
 15 16  2  0
 16 17  1  0
 16 18  1  0
 18 19  2  0
 19 20  1  0
 12 21  1  0
  5 22  2  0
 22  2  1  0
 21  9  1  0
 19 13  1  0
  1 23  1  0
  1 24  1  0
  1 25  1  0
  3 26  1  0
  6 27  1  0
 10 28  1  0
 11 29  1  0
 14 30  1  0
 15 31  1  0
 18 32  1  0
M  END
$$$$
