
     RDKit          3D

 59 62  0  0  0  0  0  0  0  0999 V2000
    8.3885   -0.4702   -1.7515 C   0  0  0  0  0  0  0  0  0  0  0  0
    7.0896   -0.2979   -1.0219 C   0  0  0  0  0  0  0  0  0  0  0  0
    5.8819   -0.2663   -1.7237 C   0  0  0  0  0  0  0  0  0  0  0  0
    4.6687   -0.1395   -1.0406 C   0  0  0  0  0  0  0  0  0  0  0  0
    4.6401   -0.0357    0.3602 C   0  0  0  0  0  0  0  0  0  0  0  0
    3.3757    0.0883    1.0165 N   0  0  0  0  0  0  0  0  0  0  0  0
    2.2510   -0.2437    0.3253 N   0  0  0  0  0  0  0  0  0  0  0  0
    1.2698   -0.2279    1.2294 C   0  0  0  0  0  0  0  0  0  0  0  0
   -0.1254   -0.5730    0.9971 C   0  0  0  0  0  0  0  0  0  0  0  0
   -0.5708   -0.9545   -0.0844 O   0  0  0  0  0  0  0  0  0  0  0  0
   -0.9180   -0.4340    2.1522 N   0  0  0  0  0  0  0  0  0  0  0  0
   -2.3440   -0.6857    2.0316 C   0  0  0  0  0  0  0  0  0  0  0  0
   -3.0571    0.5131    1.4000 C   0  0  0  0  0  0  0  0  0  0  0  0
   -2.6151    1.6596    1.4087 O   0  0  0  0  0  0  0  0  0  0  0  0
   -4.2899    0.1953    0.8546 N   0  0  0  0  0  0  0  0  0  0  0  0
   -5.0533    1.1800    0.1073 C   0  0  0  0  0  0  0  0  0  0  0  0
   -4.5437    1.3822   -1.3258 C   0  0  0  0  0  0  0  0  0  0  0  0
   -4.6536    0.1289   -2.1726 C   0  0  0  0  0  0  0  0  0  0  0  0
   -3.5319   -0.7162   -2.2583 C   0  0  0  0  0  0  0  0  0  0  0  0
   -3.5776   -1.8995   -2.9926 C   0  0  0  0  0  0  0  0  0  0  0  0
   -4.7447   -2.2559   -3.6572 C   0  0  0  0  0  0  0  0  0  0  0  0
   -5.8640   -1.4260   -3.5907 C   0  0  0  0  0  0  0  0  0  0  0  0
   -5.8362   -0.2305   -2.8524 C   0  0  0  0  0  0  0  0  0  0  0  0
   -7.0622    0.6409   -2.8398 C   0  0  0  0  0  0  0  0  0  0  0  0
   -0.4555   -0.0310    3.4099 N   0  0  0  0  0  0  0  0  0  0  0  0
    0.7975    0.2812    3.5921 C   0  0  0  0  0  0  0  0  0  0  0  0
    1.2316    0.7150    4.9632 C   0  0  0  0  0  0  0  0  0  0  0  0
    1.7188    0.1970    2.4842 C   0  0  0  0  0  0  0  0  0  0  0  0
    3.0600    0.5009    2.3174 C   0  0  0  0  0  0  0  0  0  0  0  0
    4.0031    1.1818    3.2417 C   0  0  0  0  0  0  0  0  0  0  0  0
    5.8476   -0.1079    1.0627 C   0  0  0  0  0  0  0  0  0  0  0  0
    7.0610   -0.2367    0.3749 C   0  0  0  0  0  0  0  0  0  0  0  0
    9.2088    0.0091   -1.2069 H   0  0  0  0  0  0  0  0  0  0  0  0
    8.3437   -0.0077   -2.7432 H   0  0  0  0  0  0  0  0  0  0  0  0
    8.6147   -1.5346   -1.8671 H   0  0  0  0  0  0  0  0  0  0  0  0
    5.8718   -0.3416   -2.8090 H   0  0  0  0  0  0  0  0  0  0  0  0
    3.7478   -0.1129   -1.6224 H   0  0  0  0  0  0  0  0  0  0  0  0
   -2.5001   -1.5759    1.4126 H   0  0  0  0  0  0  0  0  0  0  0  0
   -2.7706   -0.8662    3.0240 H   0  0  0  0  0  0  0  0  0  0  0  0
   -4.4759   -0.7760    0.6337 H   0  0  0  0  0  0  0  0  0  0  0  0
   -5.0105    2.1340    0.6448 H   0  0  0  0  0  0  0  0  0  0  0  0
   -6.0931    0.8389    0.1139 H   0  0  0  0  0  0  0  0  0  0  0  0
   -5.1013    2.1975   -1.8009 H   0  0  0  0  0  0  0  0  0  0  0  0
   -3.4987    1.7175   -1.3092 H   0  0  0  0  0  0  0  0  0  0  0  0
   -2.6036   -0.4519   -1.7519 H   0  0  0  0  0  0  0  0  0  0  0  0
   -2.6974   -2.5351   -3.0474 H   0  0  0  0  0  0  0  0  0  0  0  0
   -4.7819   -3.1748   -4.2358 H   0  0  0  0  0  0  0  0  0  0  0  0
   -6.7632   -1.7183   -4.1290 H   0  0  0  0  0  0  0  0  0  0  0  0
   -6.8505    1.5986   -3.3256 H   0  0  0  0  0  0  0  0  0  0  0  0
   -7.8925    0.1741   -3.3806 H   0  0  0  0  0  0  0  0  0  0  0  0
   -7.4033    0.8166   -1.8160 H   0  0  0  0  0  0  0  0  0  0  0  0
    1.4189    1.7920    4.9623 H   0  0  0  0  0  0  0  0  0  0  0  0
    0.4474    0.5007    5.6955 H   0  0  0  0  0  0  0  0  0  0  0  0
    2.1386    0.1823    5.2602 H   0  0  0  0  0  0  0  0  0  0  0  0
    4.7395    1.7863    2.7041 H   0  0  0  0  0  0  0  0  0  0  0  0
    3.4741    1.8816    3.8945 H   0  0  0  0  0  0  0  0  0  0  0  0
    4.5175    0.4547    3.8769 H   0  0  0  0  0  0  0  0  0  0  0  0
    5.8904   -0.1191    2.1447 H   0  0  0  0  0  0  0  0  0  0  0  0
    7.9876   -0.3020    0.9420 H   0  0  0  0  0  0  0  0  0  0  0  0
  1  2  1  0
  2  3  2  0
  3  4  1  0
  4  5  2  0
  5  6  1  0
  6  7  1  0
  7  8  2  0
  8  9  1  0
  9 10  2  0
  9 11  1  0
 11 12  1  0
 12 13  1  0
 13 14  2  0
 13 15  1  0
 15 16  1  0
 16 17  1  0
 17 18  1  0
 18 19  2  0
 19 20  1  0
 20 21  2  0
 21 22  1  0
 22 23  2  0
 23 24  1  0
 11 25  1  0
 25 26  2  0
 26 27  1  0
 26 28  1  0
 28 29  2  0
 29 30  1  0
  5 31  1  0
 31 32  2  0
 32  2  1  0
 29  6  1  0
 28  8  1  0
 23 18  1  0
  1 33  1  0
  1 34  1  0
  1 35  1  0
  3 36  1  0
  4 37  1  0
 12 38  1  0
 12 39  1  0
 15 40  1  0
 16 41  1  0
 16 42  1  0
 17 43  1  0
 17 44  1  0
 19 45  1  0
 20 46  1  0
 21 47  1  0
 22 48  1  0
 24 49  1  0
 24 50  1  0
 24 51  1  0
 27 52  1  0
 27 53  1  0
 27 54  1  0
 30 55  1  0
 30 56  1  0
 30 57  1  0
 31 58  1  0
 32 59  1  0
M  END
$$$$
