
     RDKit          3D

 37 39  0  0  0  0  0  0  0  0999 V2000
   -1.1285    4.6073    0.9899 C   0  0  0  0  0  0  0  0  0  0  0  0
    0.4986    4.1341    0.3474 S   0  0  0  0  0  0  0  0  0  0  0  0
    0.3082    2.3592    0.2446 C   0  0  0  0  0  0  0  0  0  0  0  0
    1.3438    1.6154   -0.2791 C   0  0  0  0  0  0  0  0  0  0  0  0
    1.1743    0.2460   -0.3445 C   0  0  0  0  0  0  0  0  0  0  0  0
    2.2081   -0.5661   -0.8555 N   0  0  0  0  0  0  0  0  0  0  0  0
    2.5683   -0.2447   -2.2561 C   0  0  0  0  0  0  0  0  0  0  0  0
    3.7459   -1.1262   -2.7058 C   0  0  0  0  0  0  0  0  0  0  0  0
    3.4500   -2.5235   -2.5609 O   0  0  0  0  0  0  0  0  0  0  0  0
    3.1482   -2.8248   -1.1882 C   0  0  0  0  0  0  0  0  0  0  0  0
    1.9422   -2.0153   -0.6874 C   0  0  0  0  0  0  0  0  0  0  0  0
    0.0509   -0.3226    0.1205 N   0  0  0  0  0  0  0  0  0  0  0  0
   -0.9188    0.4773    0.5926 C   0  0  0  0  0  0  0  0  0  0  0  0
   -2.1361   -0.1521    1.1162 C   0  0  0  0  0  0  0  0  0  0  0  0
   -2.6198    0.2382    2.3847 C   0  0  0  0  0  0  0  0  0  0  0  0
   -3.7644   -0.3367    2.9435 C   0  0  0  0  0  0  0  0  0  0  0  0
   -4.4592   -1.3157    2.2432 C   0  0  0  0  0  0  0  0  0  0  0  0
   -4.0128   -1.7116    0.9838 C   0  0  0  0  0  0  0  0  0  0  0  0
   -2.8644   -1.1351    0.4209 C   0  0  0  0  0  0  0  0  0  0  0  0
   -2.4441   -1.6586   -1.1771 Cl  0  0  0  0  0  0  0  0  0  0  0  0
   -0.8318    1.8123    0.6878 N   0  0  0  0  0  0  0  0  0  0  0  0
   -1.1650    5.6952    1.0947 H   0  0  0  0  0  0  0  0  0  0  0  0
   -1.3020    4.1630    1.9740 H   0  0  0  0  0  0  0  0  0  0  0  0
   -1.9215    4.3028    0.3012 H   0  0  0  0  0  0  0  0  0  0  0  0
    2.2632    2.0858   -0.6002 H   0  0  0  0  0  0  0  0  0  0  0  0
    2.8653    0.8034   -2.3691 H   0  0  0  0  0  0  0  0  0  0  0  0
    1.7047   -0.4332   -2.9074 H   0  0  0  0  0  0  0  0  0  0  0  0
    4.6513   -0.8937   -2.1323 H   0  0  0  0  0  0  0  0  0  0  0  0
    3.9641   -0.9420   -3.7625 H   0  0  0  0  0  0  0  0  0  0  0  0
    2.9296   -3.8954   -1.1248 H   0  0  0  0  0  0  0  0  0  0  0  0
    4.0372   -2.6274   -0.5772 H   0  0  0  0  0  0  0  0  0  0  0  0
    1.0571   -2.3049   -1.2693 H   0  0  0  0  0  0  0  0  0  0  0  0
    1.7732   -2.2597    0.3682 H   0  0  0  0  0  0  0  0  0  0  0  0
   -2.0873    1.0019    2.9514 H   0  0  0  0  0  0  0  0  0  0  0  0
   -4.1084   -0.0181    3.9245 H   0  0  0  0  0  0  0  0  0  0  0  0
   -5.3506   -1.7663    2.6722 H   0  0  0  0  0  0  0  0  0  0  0  0
   -4.5694   -2.4685    0.4360 H   0  0  0  0  0  0  0  0  0  0  0  0
  1  2  1  0
  2  3  1  0
  3  4  2  0
  4  5  1  0
  5  6  1  0
  6  7  1  0
  7  8  1  0
  8  9  1  0
  9 10  1  0
 10 11  1  0
  5 12  2  0
 12 13  1  0
 13 14  1  0
 14 15  2  0
 15 16  1  0
 16 17  2  0
 17 18  1  0
 18 19  2  0
 19 20  1  0
 13 21  2  0
 21  3  1  0
 11  6  1  0
 19 14  1  0
  1 22  1  0
  1 23  1  0
  1 24  1  0
  4 25  1  0
  7 26  1  0
  7 27  1  0
  8 28  1  0
  8 29  1  0
 10 30  1  0
 10 31  1  0
 11 32  1  0
 11 33  1  0
 15 34  1  0
 16 35  1  0
 17 36  1  0
 18 37  1  0
M  END
$$$$
