
     RDKit          3D

 45 47  0  0  0  0  0  0  0  0999 V2000
   -7.7140    2.0699    2.8108 C   0  0  0  0  0  0  0  0  0  0  0  0
   -7.2232    0.7368    2.7545 O   0  0  0  0  0  0  0  0  0  0  0  0
   -5.9036    0.5772    2.4326 C   0  0  0  0  0  0  0  0  0  0  0  0
   -4.9995    1.5985    2.1414 C   0  0  0  0  0  0  0  0  0  0  0  0
   -3.6703    1.2943    1.8252 C   0  0  0  0  0  0  0  0  0  0  0  0
   -3.2285   -0.0340    1.8003 C   0  0  0  0  0  0  0  0  0  0  0  0
   -1.8026   -0.3656    1.4397 C   0  0  0  0  0  0  0  0  0  0  0  0
   -1.6553   -0.6902   -0.0483 C   0  0  0  0  0  0  0  0  0  0  0  0
   -0.2819   -0.9646   -0.4132 N   0  0  0  0  0  0  0  0  0  0  0  0
    0.3232   -2.1796   -0.1718 C   0  0  0  0  0  0  0  0  0  0  0  0
   -0.2641   -3.1158    0.3629 O   0  0  0  0  0  0  0  0  0  0  0  0
    1.7036   -2.2422   -0.6033 C   0  0  0  0  0  0  0  0  0  0  0  0
    2.6146   -3.2797   -0.5937 C   0  0  0  0  0  0  0  0  0  0  0  0
    3.8160   -2.7718   -1.1450 C   0  0  0  0  0  0  0  0  0  0  0  0
    3.5732   -1.4522   -1.4704 C   0  0  0  0  0  0  0  0  0  0  0  0
    4.3897   -0.3806   -2.0304 C   0  0  0  0  0  0  0  0  0  0  0  0
    5.7135   -0.2466   -1.5692 C   0  0  0  0  0  0  0  0  0  0  0  0
    6.5515    0.7624   -2.0539 C   0  0  0  0  0  0  0  0  0  0  0  0
    6.0687    1.6528   -3.0176 C   0  0  0  0  0  0  0  0  0  0  0  0
    6.9424    2.7151   -3.5309 N   0  0  0  0  0  4  0  0  0  0  0  0
    6.4646    3.5026   -4.3588 O   0  0  0  0  0  0  0  0  0  0  0  0
    8.1047    2.7592   -3.1046 O   0  0  0  0  0  1  0  0  0  0  0  0
    4.7608    1.5367   -3.4997 C   0  0  0  0  0  0  0  0  0  0  0  0
    3.9278    0.5225   -3.0088 C   0  0  0  0  0  0  0  0  0  0  0  0
    2.3430    0.4240   -3.7021 Cl  0  0  0  0  0  0  0  0  0  0  0  0
    2.2972   -1.1209   -1.1219 O   0  0  0  0  0  0  0  0  0  0  0  0
   -4.1401   -1.0554    2.0886 C   0  0  0  0  0  0  0  0  0  0  0  0
   -5.4658   -0.7484    2.4031 C   0  0  0  0  0  0  0  0  0  0  0  0
   -8.7724    2.0251    3.0849 H   0  0  0  0  0  0  0  0  0  0  0  0
   -7.6439    2.5580    1.8332 H   0  0  0  0  0  0  0  0  0  0  0  0
   -7.1951    2.6499    3.5813 H   0  0  0  0  0  0  0  0  0  0  0  0
   -5.2943    2.6423    2.1503 H   0  0  0  0  0  0  0  0  0  0  0  0
   -2.9822    2.1061    1.5997 H   0  0  0  0  0  0  0  0  0  0  0  0
   -1.4591   -1.2075    2.0542 H   0  0  0  0  0  0  0  0  0  0  0  0
   -1.1485    0.4751    1.7055 H   0  0  0  0  0  0  0  0  0  0  0  0
   -2.2671   -1.5599   -0.3159 H   0  0  0  0  0  0  0  0  0  0  0  0
   -1.9875    0.1530   -0.6641 H   0  0  0  0  0  0  0  0  0  0  0  0
    0.2800   -0.2450   -0.8553 H   0  0  0  0  0  0  0  0  0  0  0  0
    2.4196   -4.2806   -0.2320 H   0  0  0  0  0  0  0  0  0  0  0  0
    4.7431   -3.3079   -1.2940 H   0  0  0  0  0  0  0  0  0  0  0  0
    6.1011   -0.9249   -0.8094 H   0  0  0  0  0  0  0  0  0  0  0  0
    7.5670    0.8390   -1.6684 H   0  0  0  0  0  0  0  0  0  0  0  0
    4.3833    2.2209   -4.2576 H   0  0  0  0  0  0  0  0  0  0  0  0
   -3.8254   -2.0971    2.0708 H   0  0  0  0  0  0  0  0  0  0  0  0
   -6.1643   -1.5509    2.6272 H   0  0  0  0  0  0  0  0  0  0  0  0
  1  2  1  0
  2  3  1  0
  3  4  2  0
  4  5  1  0
  5  6  2  0
  6  7  1  0
  7  8  1  0
  8  9  1  0
  9 10  1  0
 10 11  2  0
 10 12  1  0
 12 13  2  0
 13 14  1  0
 14 15  2  0
 15 16  1  0
 16 17  2  0
 17 18  1  0
 18 19  2  0
 19 20  1  0
 20 21  2  0
 20 22  1  0
 19 23  1  0
 23 24  2  0
 24 25  1  0
 15 26  1  0
  6 27  1  0
 27 28  2  0
 28  3  1  0
 26 12  1  0
 24 16  1  0
  1 29  1  0
  1 30  1  0
  1 31  1  0
  4 32  1  0
  5 33  1  0
  7 34  1  0
  7 35  1  0
  8 36  1  0
  8 37  1  0
  9 38  1  0
 13 39  1  0
 14 40  1  0
 17 41  1  0
 18 42  1  0
 23 43  1  0
 27 44  1  0
 28 45  1  0
M  CHG  2  20   1  22  -1
M  END
$$$$
