
     RDKit          3D

 26 28  0  0  0  0  0  0  0  0999 V2000
   -4.0373    0.9289   -0.1597 C   0  0  0  0  0  0  0  0  0  0  0  0
   -2.6057    0.5701   -0.0720 C   0  0  0  0  0  0  0  0  0  0  0  0
   -1.7222    1.5826   -0.2901 O   0  0  0  0  0  0  0  0  0  0  0  0
   -0.4730    1.0623   -0.1657 C   0  0  0  0  0  0  0  0  0  0  0  0
    0.7123    1.7754   -0.3125 C   0  0  0  0  0  0  0  0  0  0  0  0
    1.8822    1.0338   -0.1386 C   0  0  0  0  0  0  0  0  0  0  0  0
    3.1001    1.7361   -0.2825 O   0  0  0  0  0  0  0  0  0  0  0  0
    4.3245    1.1010   -0.1314 C   0  0  0  0  0  0  0  0  0  0  0  0
    5.3916    1.6912   -0.2519 O   0  0  0  0  0  0  0  0  0  0  0  0
    4.2929   -0.3371    0.1856 C   0  0  0  0  0  0  0  0  0  0  0  0
    3.1510   -1.0170    0.3253 C   0  0  0  0  0  0  0  0  0  0  0  0
    1.8788   -0.3299    0.1622 C   0  0  0  0  0  0  0  0  0  0  0  0
    0.6595   -1.0106    0.3013 C   0  0  0  0  0  0  0  0  0  0  0  0
   -0.5441   -0.2939    0.1321 C   0  0  0  0  0  0  0  0  0  0  0  0
   -1.9366   -0.6141    0.1891 C   0  0  0  0  0  0  0  0  0  0  0  0
   -2.5343   -1.9411    0.4769 C   0  0  0  0  0  0  0  0  0  0  0  0
   -4.4822    0.4960   -1.0608 H   0  0  0  0  0  0  0  0  0  0  0  0
   -4.1748    2.0140   -0.1982 H   0  0  0  0  0  0  0  0  0  0  0  0
   -4.5820    0.5507    0.7109 H   0  0  0  0  0  0  0  0  0  0  0  0
    0.7184    2.8320   -0.5451 H   0  0  0  0  0  0  0  0  0  0  0  0
    5.2589   -0.8138    0.2995 H   0  0  0  0  0  0  0  0  0  0  0  0
    3.1552   -2.0760    0.5590 H   0  0  0  0  0  0  0  0  0  0  0  0
    0.6314   -2.0704    0.5349 H   0  0  0  0  0  0  0  0  0  0  0  0
   -2.0318   -2.7244   -0.0997 H   0  0  0  0  0  0  0  0  0  0  0  0
   -2.4354   -2.1781    1.5409 H   0  0  0  0  0  0  0  0  0  0  0  0
   -3.5976   -1.9675    0.2187 H   0  0  0  0  0  0  0  0  0  0  0  0
  1  2  1  0
  2  3  1  0
  3  4  1  0
  4  5  2  0
  5  6  1  0
  6  7  1  0
  7  8  1  0
  8  9  2  0
  8 10  1  0
 10 11  2  0
 11 12  1  0
 12 13  1  0
 13 14  2  0
 14 15  1  0
 15 16  1  0
 15  2  2  0
 14  4  1  0
 12  6  2  0
  1 17  1  0
  1 18  1  0
  1 19  1  0
  5 20  1  0
 10 21  1  0
 11 22  1  0
 13 23  1  0
 16 24  1  0
 16 25  1  0
 16 26  1  0
M  END
$$$$
