
     RDKit          3D

 57 59  0  0  0  0  0  0  0  0999 V2000
   -8.6115   -2.1899   -1.4329 C   0  0  0  0  0  0  0  0  0  0  0  0
   -7.4748   -1.5598   -2.0059 O   0  0  0  0  0  0  0  0  0  0  0  0
   -6.5069   -1.0886   -1.1537 C   0  0  0  0  0  0  0  0  0  0  0  0
   -6.5377   -1.2436    0.2383 C   0  0  0  0  0  0  0  0  0  0  0  0
   -5.5042   -0.7369    1.0282 C   0  0  0  0  0  0  0  0  0  0  0  0
   -4.4363   -0.0797    0.4188 C   0  0  0  0  0  0  0  0  0  0  0  0
   -3.1078    0.5627    1.4020 S   0  0  0  0  0  6  0  0  0  0  0  0
   -3.4109    0.3302    2.7972 O   0  0  0  0  0  0  0  0  0  0  0  0
   -2.8032    1.8895    0.9125 O   0  0  0  0  0  0  0  0  0  0  0  0
   -1.8274   -0.4442    0.9759 N   0  0  0  0  0  0  0  0  0  0  0  0
   -1.9299   -1.8742    1.3038 C   0  0  0  0  0  0  0  0  0  0  0  0
   -0.4795   -2.2977    1.3038 C   0  0  0  0  0  0  0  0  0  0  0  0
    0.1962   -1.1895    1.8997 O   0  0  0  0  0  0  0  0  0  0  0  0
   -0.5140   -0.0003    1.4973 C   0  0  0  0  0  0  0  0  0  0  0  0
    0.2662    0.7516    0.3931 C   0  0  0  0  0  0  0  0  0  0  0  0
    1.6022    1.1484    0.7999 N   0  0  0  0  0  0  0  0  0  0  0  0
    2.6890    0.3200    0.6311 C   0  0  0  0  0  0  0  0  0  0  0  0
    2.7162   -0.7241   -0.0057 O   0  0  0  0  0  0  0  0  0  0  0  0
    3.9664    0.8282    1.3378 C   0  0  0  0  0  0  0  0  0  0  0  0
    3.9407    1.8738    1.9722 O   0  0  0  0  0  0  0  0  0  0  0  0
    5.0533    0.0068    1.1599 N   0  0  0  0  0  0  0  0  0  0  0  0
    6.3750    0.3677    1.5989 C   0  0  0  0  0  0  0  0  0  0  0  0
    7.1617    0.9929    0.4753 C   0  0  0  0  0  0  0  0  0  0  0  0
    7.9761    0.2045   -0.3531 C   0  0  0  0  0  0  0  0  0  0  0  0
    8.6836    0.7870   -1.4061 C   0  0  0  0  0  0  0  0  0  0  0  0
    8.5717    2.1532   -1.6357 C   0  0  0  0  0  0  0  0  0  0  0  0
    9.2508    2.7093   -2.6476 F   0  0  0  0  0  0  0  0  0  0  0  0
    7.7632    2.9496   -0.8343 C   0  0  0  0  0  0  0  0  0  0  0  0
    7.0552    2.3700    0.2191 C   0  0  0  0  0  0  0  0  0  0  0  0
   -4.3929    0.0948   -0.9681 C   0  0  0  0  0  0  0  0  0  0  0  0
   -5.4269   -0.4098   -1.7607 C   0  0  0  0  0  0  0  0  0  0  0  0
   -5.4744   -0.3031   -3.1287 O   0  0  0  0  0  0  0  0  0  0  0  0
   -4.4785    0.4859   -3.7647 C   0  0  0  0  0  0  0  0  0  0  0  0
   -9.1561   -1.5032   -0.7766 H   0  0  0  0  0  0  0  0  0  0  0  0
   -8.3291   -3.1053   -0.9027 H   0  0  0  0  0  0  0  0  0  0  0  0
   -9.2838   -2.4729   -2.2486 H   0  0  0  0  0  0  0  0  0  0  0  0
   -7.3547   -1.7539    0.7382 H   0  0  0  0  0  0  0  0  0  0  0  0
   -5.5436   -0.8595    2.1086 H   0  0  0  0  0  0  0  0  0  0  0  0
   -2.5144   -2.4279    0.5656 H   0  0  0  0  0  0  0  0  0  0  0  0
   -2.3598   -2.0157    2.3009 H   0  0  0  0  0  0  0  0  0  0  0  0
   -0.0941   -2.4365    0.2876 H   0  0  0  0  0  0  0  0  0  0  0  0
   -0.2997   -3.2069    1.8831 H   0  0  0  0  0  0  0  0  0  0  0  0
   -0.6054    0.6247    2.3923 H   0  0  0  0  0  0  0  0  0  0  0  0
   -0.2622    1.6644    0.1019 H   0  0  0  0  0  0  0  0  0  0  0  0
    0.3544    0.1173   -0.4969 H   0  0  0  0  0  0  0  0  0  0  0  0
    1.7347    1.9419    1.4223 H   0  0  0  0  0  0  0  0  0  0  0  0
    4.9274   -0.7702    0.5177 H   0  0  0  0  0  0  0  0  0  0  0  0
    6.8682   -0.5462    1.9478 H   0  0  0  0  0  0  0  0  0  0  0  0
    6.3199    1.0538    2.4519 H   0  0  0  0  0  0  0  0  0  0  0  0
    8.0632   -0.8664   -0.1833 H   0  0  0  0  0  0  0  0  0  0  0  0
    9.3176    0.1855   -2.0494 H   0  0  0  0  0  0  0  0  0  0  0  0
    7.6858    4.0131   -1.0357 H   0  0  0  0  0  0  0  0  0  0  0  0
    6.4137    2.9942    0.8399 H   0  0  0  0  0  0  0  0  0  0  0  0
   -3.5464    0.6188   -1.4004 H   0  0  0  0  0  0  0  0  0  0  0  0
   -4.7067    0.5137   -4.8346 H   0  0  0  0  0  0  0  0  0  0  0  0
   -3.4874    0.0358   -3.6480 H   0  0  0  0  0  0  0  0  0  0  0  0
   -4.4920    1.5166   -3.3948 H   0  0  0  0  0  0  0  0  0  0  0  0
  1  2  1  0
  2  3  1  0
  3  4  2  0
  4  5  1  0
  5  6  2  0
  6  7  1  0
  7  8  2  0
  7  9  2  0
  7 10  1  0
 10 11  1  0
 11 12  1  0
 12 13  1  0
 13 14  1  0
 14 15  1  0
 15 16  1  0
 16 17  1  0
 17 18  2  0
 17 19  1  0
 19 20  2  0
 19 21  1  0
 21 22  1  0
 22 23  1  0
 23 24  2  0
 24 25  1  0
 25 26  2  0
 26 27  1  0
 26 28  1  0
 28 29  2  0
  6 30  1  0
 30 31  2  0
 31 32  1  0
 32 33  1  0
 31  3  1  0
 14 10  1  0
 29 23  1  0
  1 34  1  0
  1 35  1  0
  1 36  1  0
  4 37  1  0
  5 38  1  0
 11 39  1  0
 11 40  1  0
 12 41  1  0
 12 42  1  0
 14 43  1  0
 15 44  1  0
 15 45  1  0
 16 46  1  0
 21 47  1  0
 22 48  1  0
 22 49  1  0
 24 50  1  0
 25 51  1  0
 28 52  1  0
 29 53  1  0
 30 54  1  0
 33 55  1  0
 33 56  1  0
 33 57  1  0
M  END
$$$$
