
     RDKit          3D

 36 37  0  0  0  0  0  0  0  0999 V2000
   -0.9524    0.4797    2.6060 O   0  0  0  0  0  0  0  0  0  0  0  0
   -0.2415    0.9140    1.7050 C   0  0  0  0  0  0  0  0  0  0  0  0
    1.1671    1.4540    1.9630 C   0  0  0  0  0  0  0  0  0  0  0  0
    2.1945    0.4902    1.7257 O   0  0  0  0  0  0  0  0  0  0  0  0
    2.5016    0.2773    0.4247 C   0  0  0  0  0  0  0  0  0  0  0  0
    1.9674    0.8251   -0.5283 O   0  0  0  0  0  0  0  0  0  0  0  0
    3.5896   -0.7281    0.2939 C   0  0  0  0  0  0  0  0  0  0  0  0
    4.0818   -1.0054   -0.9904 C   0  0  0  0  0  0  0  0  0  0  0  0
    5.1026   -1.9412   -1.1686 C   0  0  0  0  0  0  0  0  0  0  0  0
    5.6357   -2.6054   -0.0646 C   0  0  0  0  0  0  0  0  0  0  0  0
    5.1461   -2.3320    1.2123 C   0  0  0  0  0  0  0  0  0  0  0  0
    5.8088   -3.1555    2.5709 Cl  0  0  0  0  0  0  0  0  0  0  0  0
    4.1266   -1.3991    1.4002 C   0  0  0  0  0  0  0  0  0  0  0  0
   -0.6368    0.9703    0.3850 N   0  0  0  0  0  0  0  0  0  0  0  0
   -1.8693    0.3536   -0.0741 C   0  0  0  0  0  0  0  0  0  0  0  0
   -3.1400    1.0194    0.4691 C   0  0  0  0  0  0  0  0  0  0  0  0
   -4.3284    0.5868   -0.2488 N   0  0  0  0  0  0  0  0  0  0  0  0
   -4.8208    1.2279   -1.3586 C   0  0  0  0  0  0  0  0  0  0  0  0
   -4.1907    2.3486   -1.8095 O   0  0  0  0  0  0  0  0  0  0  0  0
   -5.9005    0.6530   -1.9003 C   0  0  0  0  0  0  0  0  0  0  0  0
   -6.3568   -0.7772   -1.0265 S   0  0  0  0  0  0  0  0  0  0  0  0
   -5.0021   -0.5716    0.1037 C   0  0  0  0  0  0  0  0  0  0  0  0
   -4.7505   -1.3562    1.0016 O   0  0  0  0  0  0  0  0  0  0  0  0
    1.2264    1.7471    3.0168 H   0  0  0  0  0  0  0  0  0  0  0  0
    1.3390    2.3661    1.3777 H   0  0  0  0  0  0  0  0  0  0  0  0
    3.6720   -0.4923   -1.8594 H   0  0  0  0  0  0  0  0  0  0  0  0
    5.4806   -2.1521   -2.1663 H   0  0  0  0  0  0  0  0  0  0  0  0
    6.4304   -3.3341   -0.2052 H   0  0  0  0  0  0  0  0  0  0  0  0
    3.7586   -1.2060    2.4046 H   0  0  0  0  0  0  0  0  0  0  0  0
    0.1119    1.0807   -0.3006 H   0  0  0  0  0  0  0  0  0  0  0  0
   -1.8476   -0.7072    0.2018 H   0  0  0  0  0  0  0  0  0  0  0  0
   -1.8507    0.4105   -1.1683 H   0  0  0  0  0  0  0  0  0  0  0  0
   -3.2693    0.7641    1.5272 H   0  0  0  0  0  0  0  0  0  0  0  0
   -3.0612    2.1118    0.4184 H   0  0  0  0  0  0  0  0  0  0  0  0
   -4.6832    2.6892   -2.5754 H   0  0  0  0  0  0  0  0  0  0  0  0
   -6.4388    0.9939   -2.7719 H   0  0  0  0  0  0  0  0  0  0  0  0
  1  2  2  0
  2  3  1  0
  3  4  1  0
  4  5  1  0
  5  6  2  0
  5  7  1  0
  7  8  2  0
  8  9  1  0
  9 10  2  0
 10 11  1  0
 11 12  1  0
 11 13  2  0
  2 14  1  0
 14 15  1  0
 15 16  1  0
 16 17  1  0
 17 18  1  0
 18 19  1  0
 18 20  2  0
 20 21  1  0
 21 22  1  0
 22 23  2  0
 13  7  1  0
 22 17  1  0
  3 24  1  0
  3 25  1  0
  8 26  1  0
  9 27  1  0
 10 28  1  0
 13 29  1  0
 14 30  1  0
 15 31  1  0
 15 32  1  0
 16 33  1  0
 16 34  1  0
 19 35  1  0
 20 36  1  0
M  END
$$$$
