
     RDKit          3D

 28 28  0  0  0  0  0  0  0  0999 V2000
   -2.4922   -1.5155    0.7664 C   0  0  0  0  0  0  0  0  0  0  0  0
   -1.8132   -0.4748   -0.1428 C   0  0  0  0  0  0  0  0  0  0  0  0
   -0.8419   -1.2005   -1.0813 C   0  0  0  0  0  0  0  0  0  0  0  0
   -2.9018    0.2399   -0.9550 C   0  0  0  0  0  0  0  0  0  0  0  0
   -1.0290    0.5374    0.7260 C   0  0  0  0  0  0  0  0  0  0  0  0
   -0.8319    0.3130    1.9236 O   0  0  0  0  0  0  0  0  0  0  0  0
   -0.5534    1.8203    0.0483 C   0  0  0  0  0  0  0  0  0  0  0  0
    0.7709    2.6660    0.9556 S   0  0  0  0  0  0  0  0  0  0  0  0
    2.0433    1.4319    0.8667 C   0  0  0  0  0  0  0  0  0  0  0  0
    1.9848    0.5116   -0.1145 N   0  0  0  0  0  0  0  0  0  0  0  0
    2.9885   -0.3855   -0.1478 C   0  0  0  0  0  0  0  0  0  0  0  0
    4.0366   -0.3891    0.7404 C   0  0  0  0  0  0  0  0  0  0  0  0
    4.0090    0.6034    1.6892 C   0  0  0  0  0  0  0  0  0  0  0  0
    3.0349    1.5269    1.7683 N   0  0  0  0  0  0  0  0  0  0  0  0
   -1.7547   -2.0761    1.3525 H   0  0  0  0  0  0  0  0  0  0  0  0
   -3.1773   -1.0349    1.4745 H   0  0  0  0  0  0  0  0  0  0  0  0
   -3.0693   -2.2402    0.1810 H   0  0  0  0  0  0  0  0  0  0  0  0
   -1.3581   -1.9684   -1.6686 H   0  0  0  0  0  0  0  0  0  0  0  0
   -0.3667   -0.5120   -1.7877 H   0  0  0  0  0  0  0  0  0  0  0  0
   -0.0421   -1.6922   -0.5162 H   0  0  0  0  0  0  0  0  0  0  0  0
   -3.5547    0.8316   -0.3031 H   0  0  0  0  0  0  0  0  0  0  0  0
   -2.4740    0.9225   -1.6972 H   0  0  0  0  0  0  0  0  0  0  0  0
   -3.5276   -0.4776   -1.4977 H   0  0  0  0  0  0  0  0  0  0  0  0
   -0.2168    1.6179   -0.9712 H   0  0  0  0  0  0  0  0  0  0  0  0
   -1.4071    2.5028   -0.0064 H   0  0  0  0  0  0  0  0  0  0  0  0
    2.9220   -1.1278   -0.9379 H   0  0  0  0  0  0  0  0  0  0  0  0
    4.8301   -1.1215    0.6958 H   0  0  0  0  0  0  0  0  0  0  0  0
    4.7915    0.6911    2.4372 H   0  0  0  0  0  0  0  0  0  0  0  0
  1  2  1  0
  2  3  1  0
  2  4  1  0
  2  5  1  0
  5  6  2  0
  5  7  1  0
  7  8  1  0
  8  9  1  0
  9 10  2  0
 10 11  1  0
 11 12  2  0
 12 13  1  0
 13 14  2  0
 14  9  1  0
  1 15  1  0
  1 16  1  0
  1 17  1  0
  3 18  1  0
  3 19  1  0
  3 20  1  0
  4 21  1  0
  4 22  1  0
  4 23  1  0
  7 24  1  0
  7 25  1  0
 11 26  1  0
 12 27  1  0
 13 28  1  0
M  END
$$$$
