
     RDKit          3D

 37 38  0  0  0  0  0  0  0  0999 V2000
   -5.3998   -0.7159   -2.5810 C   0  0  0  0  0  0  0  0  0  0  0  0
   -5.0269   -0.4729   -1.1879 N   0  0  0  0  0  0  0  0  0  0  0  0
   -6.0775    0.0974   -0.3454 C   0  0  0  0  0  0  0  0  0  0  0  0
   -3.6871   -0.2302   -0.8708 C   0  0  0  0  0  0  0  0  0  0  0  0
   -3.2937    0.2857    0.3757 C   0  0  0  0  0  0  0  0  0  0  0  0
   -1.9478    0.5098    0.7073 C   0  0  0  0  0  0  0  0  0  0  0  0
   -0.9314    0.2027   -0.1954 C   0  0  0  0  0  0  0  0  0  0  0  0
    0.4647    0.4694    0.1768 C   0  0  0  0  0  0  0  0  0  0  0  0
    1.4773   -0.3622   -0.1180 C   0  0  0  0  0  0  0  0  0  0  0  0
    2.8753   -0.1152    0.2527 C   0  0  0  0  0  0  0  0  0  0  0  0
    3.2358    0.4408    1.4794 C   0  0  0  0  0  0  0  0  0  0  0  0
    4.5794    0.6229    1.7873 C   0  0  0  0  0  0  0  0  0  0  0  0
    5.5420    0.2628    0.9097 N   0  0  0  0  0  4  0  0  0  0  0  0
    6.9587    0.4571    1.2619 C   0  0  0  0  0  0  0  0  0  0  0  0
    5.2186   -0.2996   -0.2758 C   0  0  0  0  0  0  0  0  0  0  0  0
    3.8877   -0.5020   -0.6239 C   0  0  0  0  0  0  0  0  0  0  0  0
   -1.2923   -0.3068   -1.4417 C   0  0  0  0  0  0  0  0  0  0  0  0
   -2.6418   -0.5252   -1.7629 C   0  0  0  0  0  0  0  0  0  0  0  0
   -5.1366    0.1393   -3.2132 H   0  0  0  0  0  0  0  0  0  0  0  0
   -6.4783   -0.8818   -2.6825 H   0  0  0  0  0  0  0  0  0  0  0  0
   -4.9199   -1.6214   -2.9672 H   0  0  0  0  0  0  0  0  0  0  0  0
   -6.0156   -0.2857    0.6789 H   0  0  0  0  0  0  0  0  0  0  0  0
   -7.0738   -0.1788   -0.7087 H   0  0  0  0  0  0  0  0  0  0  0  0
   -6.0215    1.1915   -0.3339 H   0  0  0  0  0  0  0  0  0  0  0  0
   -4.0305    0.5292    1.1354 H   0  0  0  0  0  0  0  0  0  0  0  0
   -1.7165    0.9147    1.6895 H   0  0  0  0  0  0  0  0  0  0  0  0
    0.6236    1.3946    0.7248 H   0  0  0  0  0  0  0  0  0  0  0  0
    1.2851   -1.2830   -0.6672 H   0  0  0  0  0  0  0  0  0  0  0  0
    2.4796    0.7236    2.2091 H   0  0  0  0  0  0  0  0  0  0  0  0
    4.8936    1.0497    2.7357 H   0  0  0  0  0  0  0  0  0  0  0  0
    7.2959   -0.4482    1.7728 H   0  0  0  0  0  0  0  0  0  0  0  0
    7.0492    1.3296    1.9140 H   0  0  0  0  0  0  0  0  0  0  0  0
    7.5349    0.6272    0.3488 H   0  0  0  0  0  0  0  0  0  0  0  0
    6.0308   -0.5872   -0.9377 H   0  0  0  0  0  0  0  0  0  0  0  0
    3.6483   -0.9552   -1.5845 H   0  0  0  0  0  0  0  0  0  0  0  0
   -0.5401   -0.5384   -2.1909 H   0  0  0  0  0  0  0  0  0  0  0  0
   -2.8492   -0.9385   -2.7455 H   0  0  0  0  0  0  0  0  0  0  0  0
  1  2  1  0
  2  3  1  0
  2  4  1  0
  4  5  2  0
  5  6  1  0
  6  7  2  0
  7  8  1  0
  8  9  2  3
  9 10  1  0
 10 11  2  0
 11 12  1  0
 12 13  2  0
 13 14  1  0
 13 15  1  0
 15 16  2  0
  7 17  1  0
 17 18  2  0
 18  4  1  0
 16 10  1  0
  1 19  1  0
  1 20  1  0
  1 21  1  0
  3 22  1  0
  3 23  1  0
  3 24  1  0
  5 25  1  0
  6 26  1  0
  8 27  1  0
  9 28  1  0
 11 29  1  0
 12 30  1  0
 14 31  1  0
 14 32  1  0
 14 33  1  0
 15 34  1  0
 16 35  1  0
 17 36  1  0
 18 37  1  0
M  CHG  1  13   1
M  END
$$$$
