
     RDKit          3D

 56 58  0  0  0  0  0  0  0  0999 V2000
    6.2283   -1.7841    2.0012 C   0  0  0  0  0  0  0  0  0  0  0  0
    4.9407   -2.0929    1.4848 O   0  0  0  0  0  0  0  0  0  0  0  0
    4.5070   -1.3600    0.4139 C   0  0  0  0  0  0  0  0  0  0  0  0
    5.1827   -0.2888   -0.1678 C   0  0  0  0  0  0  0  0  0  0  0  0
    4.6353    0.3752   -1.2707 C   0  0  0  0  0  0  0  0  0  0  0  0
    3.4036   -0.0248   -1.7944 C   0  0  0  0  0  0  0  0  0  0  0  0
    2.7794    0.5565   -2.8738 O   0  0  0  0  0  0  0  0  0  0  0  0
    3.4663    1.6182   -3.5263 C   0  0  0  0  0  0  0  0  0  0  0  0
    2.7081   -1.0971   -1.1985 C   0  0  0  0  0  0  0  0  0  0  0  0
    1.4608   -1.4396   -1.7668 N   0  0  0  0  0  0  0  0  0  0  0  0
    0.5216   -2.3321   -1.2949 C   0  0  0  0  0  0  0  0  0  0  0  0
    0.6285   -3.0546   -0.3067 O   0  0  0  0  0  0  0  0  0  0  0  0
   -0.7207   -2.4262   -2.1664 C   0  0  0  0  0  0  0  0  0  0  0  0
   -1.5561   -0.8358   -2.4264 S   0  0  0  0  0  0  0  0  0  0  0  0
   -1.6670   -0.3131   -0.7572 C   0  0  0  0  0  0  0  0  0  0  0  0
   -0.6466    0.3375   -0.3116 N   0  0  0  0  0  0  0  0  0  0  0  0
   -0.6433    0.7378    1.0248 C   0  0  0  0  0  0  0  0  0  0  0  0
    0.4820    1.3908    1.5307 C   0  0  0  0  0  0  0  0  0  0  0  0
    0.5243    1.7991    2.8666 C   0  0  0  0  0  0  0  0  0  0  0  0
   -0.5619    1.5553    3.7074 C   0  0  0  0  0  0  0  0  0  0  0  0
   -1.6890    0.9012    3.2125 C   0  0  0  0  0  0  0  0  0  0  0  0
   -1.7185    0.4957    1.8732 C   0  0  0  0  0  0  0  0  0  0  0  0
   -2.8874   -0.1999    1.3103 C   0  0  0  0  0  0  0  0  0  0  0  0
   -3.8895   -0.3502    2.0103 O   0  0  0  0  0  0  0  0  0  0  0  0
   -2.7904   -0.6290   -0.0151 N   0  0  0  0  0  0  0  0  0  0  0  0
   -3.9812   -1.2877   -0.5675 C   0  0  0  0  0  0  0  0  0  0  0  0
   -4.9858   -0.3062   -1.1984 C   0  0  0  0  0  0  0  0  0  0  0  0
   -5.4425    0.7150   -0.2695 N   0  0  0  0  0  0  0  0  0  0  0  0
   -4.9120    1.9857   -0.2843 C   0  0  0  0  0  0  0  0  0  0  0  0
   -5.3527    2.8452    0.8699 C   0  0  0  0  0  0  0  0  0  0  0  0
   -4.1287    2.3876   -1.1375 O   0  0  0  0  0  0  0  0  0  0  0  0
    3.2687   -1.7564   -0.1029 C   0  0  0  0  0  0  0  0  0  0  0  0
    6.2453   -0.7796    2.4380 H   0  0  0  0  0  0  0  0  0  0  0  0
    7.0027   -1.8953    1.2354 H   0  0  0  0  0  0  0  0  0  0  0  0
    6.4461   -2.4997    2.7994 H   0  0  0  0  0  0  0  0  0  0  0  0
    6.1395    0.0575    0.2118 H   0  0  0  0  0  0  0  0  0  0  0  0
    5.1981    1.2017   -1.6942 H   0  0  0  0  0  0  0  0  0  0  0  0
    2.8462    1.9498   -4.3629 H   0  0  0  0  0  0  0  0  0  0  0  0
    4.4242    1.2777   -3.9361 H   0  0  0  0  0  0  0  0  0  0  0  0
    3.6041    2.4728   -2.8541 H   0  0  0  0  0  0  0  0  0  0  0  0
    1.1706   -0.8129   -2.5133 H   0  0  0  0  0  0  0  0  0  0  0  0
   -1.4262   -3.1196   -1.6966 H   0  0  0  0  0  0  0  0  0  0  0  0
   -0.4363   -2.8462   -3.1357 H   0  0  0  0  0  0  0  0  0  0  0  0
    1.3317    1.5737    0.8773 H   0  0  0  0  0  0  0  0  0  0  0  0
    1.4083    2.3032    3.2484 H   0  0  0  0  0  0  0  0  0  0  0  0
   -0.5280    1.8690    4.7477 H   0  0  0  0  0  0  0  0  0  0  0  0
   -2.5349    0.7053    3.8668 H   0  0  0  0  0  0  0  0  0  0  0  0
   -3.6943   -2.0406   -1.3076 H   0  0  0  0  0  0  0  0  0  0  0  0
   -4.4844   -1.8386    0.2375 H   0  0  0  0  0  0  0  0  0  0  0  0
   -4.5538    0.1702   -2.0843 H   0  0  0  0  0  0  0  0  0  0  0  0
   -5.8749   -0.8608   -1.5178 H   0  0  0  0  0  0  0  0  0  0  0  0
   -5.8322    0.3936    0.6106 H   0  0  0  0  0  0  0  0  0  0  0  0
   -6.3051    2.4989    1.2823 H   0  0  0  0  0  0  0  0  0  0  0  0
   -4.5883    2.8147    1.6519 H   0  0  0  0  0  0  0  0  0  0  0  0
   -5.4849    3.8745    0.5234 H   0  0  0  0  0  0  0  0  0  0  0  0
    2.7623   -2.5918    0.3732 H   0  0  0  0  0  0  0  0  0  0  0  0
  1  2  1  0
  2  3  1  0
  3  4  2  0
  4  5  1  0
  5  6  2  0
  6  7  1  0
  7  8  1  0
  6  9  1  0
  9 10  1  0
 10 11  1  0
 11 12  2  0
 11 13  1  0
 13 14  1  0
 14 15  1  0
 15 16  2  0
 16 17  1  0
 17 18  2  0
 18 19  1  0
 19 20  2  0
 20 21  1  0
 21 22  2  0
 22 23  1  0
 23 24  2  0
 23 25  1  0
 25 26  1  0
 26 27  1  0
 27 28  1  0
 28 29  1  0
 29 30  1  0
 29 31  2  0
  9 32  2  0
 32  3  1  0
 25 15  1  0
 22 17  1  0
  1 33  1  0
  1 34  1  0
  1 35  1  0
  4 36  1  0
  5 37  1  0
  8 38  1  0
  8 39  1  0
  8 40  1  0
 10 41  1  0
 13 42  1  0
 13 43  1  0
 18 44  1  0
 19 45  1  0
 20 46  1  0
 21 47  1  0
 26 48  1  0
 26 49  1  0
 27 50  1  0
 27 51  1  0
 28 52  1  0
 30 53  1  0
 30 54  1  0
 30 55  1  0
 32 56  1  0
M  END
$$$$
