
     RDKit          3D

 40 41  0  0  0  0  0  0  0  0999 V2000
    8.0744   -0.4214   -0.0342 C   0  0  0  0  0  0  0  0  0  0  0  0
    6.9866   -1.1830    0.4748 O   0  0  0  0  0  0  0  0  0  0  0  0
    5.7523   -0.5961    0.4409 C   0  0  0  0  0  0  0  0  0  0  0  0
    5.4586    0.6729   -0.0553 C   0  0  0  0  0  0  0  0  0  0  0  0
    4.1425    1.1520   -0.0283 C   0  0  0  0  0  0  0  0  0  0  0  0
    3.1023    0.3667    0.4825 C   0  0  0  0  0  0  0  0  0  0  0  0
    1.7431    0.9202    0.5103 C   0  0  0  0  0  0  0  0  0  0  0  0
    0.6420    0.2041    0.2341 C   0  0  0  0  0  0  0  0  0  0  0  0
   -0.6964    0.8611    0.2682 C   0  0  0  0  0  0  0  0  0  0  0  0
   -0.8136    2.0430    0.5606 O   0  0  0  0  0  0  0  0  0  0  0  0
   -1.7138   -0.0165   -0.0607 N   0  0  0  0  0  0  0  0  0  0  0  0
   -3.0777    0.2223   -0.1345 C   0  0  0  0  0  0  0  0  0  0  0  0
   -3.6055    1.4245    0.1223 C   0  0  0  0  0  0  0  0  0  0  0  0
   -5.0510    1.6571    0.0358 C   0  0  0  0  0  0  0  0  0  0  0  0
   -5.4838    2.7921    0.2193 O   0  0  0  0  0  0  0  0  0  0  0  0
   -5.8248    0.5597   -0.2542 N   0  0  0  0  0  0  0  0  0  0  0  0
   -7.2625    0.7326   -0.3413 C   0  0  0  0  0  0  0  0  0  0  0  0
   -5.3103   -0.6857   -0.5745 C   0  0  0  0  0  0  0  0  0  0  0  0
   -6.0467   -1.6144   -0.9168 O   0  0  0  0  0  0  0  0  0  0  0  0
   -3.9201   -0.8279   -0.4936 N   0  0  0  0  0  0  0  0  0  0  0  0
   -3.3853   -2.1479   -0.8157 C   0  0  0  0  0  0  0  0  0  0  0  0
    3.4061   -0.8989    0.9948 C   0  0  0  0  0  0  0  0  0  0  0  0
    4.7205   -1.3755    0.9674 C   0  0  0  0  0  0  0  0  0  0  0  0
    8.2181    0.4974    0.5440 H   0  0  0  0  0  0  0  0  0  0  0  0
    7.9391   -0.2026   -1.0986 H   0  0  0  0  0  0  0  0  0  0  0  0
    8.9817   -1.0245    0.0687 H   0  0  0  0  0  0  0  0  0  0  0  0
    6.2264    1.3184   -0.4684 H   0  0  0  0  0  0  0  0  0  0  0  0
    3.9384    2.1471   -0.4195 H   0  0  0  0  0  0  0  0  0  0  0  0
    1.6669    1.9808    0.7470 H   0  0  0  0  0  0  0  0  0  0  0  0
    0.7020   -0.8431   -0.0312 H   0  0  0  0  0  0  0  0  0  0  0  0
   -1.4228   -0.9565   -0.2745 H   0  0  0  0  0  0  0  0  0  0  0  0
   -3.0365    2.3011    0.3993 H   0  0  0  0  0  0  0  0  0  0  0  0
   -7.5444    0.7579   -1.3989 H   0  0  0  0  0  0  0  0  0  0  0  0
   -7.7694   -0.1131    0.1344 H   0  0  0  0  0  0  0  0  0  0  0  0
   -7.5946    1.6569    0.1391 H   0  0  0  0  0  0  0  0  0  0  0  0
   -2.6964   -2.0611   -1.6624 H   0  0  0  0  0  0  0  0  0  0  0  0
   -2.8627   -2.5476    0.0595 H   0  0  0  0  0  0  0  0  0  0  0  0
   -4.1612   -2.8663   -1.0934 H   0  0  0  0  0  0  0  0  0  0  0  0
    2.6346   -1.5246    1.4352 H   0  0  0  0  0  0  0  0  0  0  0  0
    4.9439   -2.3613    1.3682 H   0  0  0  0  0  0  0  0  0  0  0  0
  1  2  1  0
  2  3  1  0
  3  4  2  0
  4  5  1  0
  5  6  2  0
  6  7  1  0
  7  8  2  3
  8  9  1  0
  9 10  2  0
  9 11  1  0
 11 12  1  0
 12 13  2  0
 13 14  1  0
 14 15  2  0
 14 16  1  0
 16 17  1  0
 16 18  1  0
 18 19  2  0
 18 20  1  0
 20 21  1  0
  6 22  1  0
 22 23  2  0
 23  3  1  0
 20 12  1  0
  1 24  1  0
  1 25  1  0
  1 26  1  0
  4 27  1  0
  5 28  1  0
  7 29  1  0
  8 30  1  0
 11 31  1  0
 13 32  1  0
 17 33  1  0
 17 34  1  0
 17 35  1  0
 21 36  1  0
 21 37  1  0
 21 38  1  0
 22 39  1  0
 23 40  1  0
M  END
$$$$
