
     RDKit          3D

 32 33  0  0  0  0  0  0  0  0999 V2000
    4.2143    1.7693    0.2189 C   0  0  0  0  0  0  0  0  0  0  0  0
    4.4124    0.0394    0.5586 S   0  0  0  0  0  6  0  0  0  0  0  0
    4.2173   -0.1853    1.9767 O   0  0  0  0  0  0  0  0  0  0  0  0
    5.6285   -0.3934   -0.1052 O   0  0  0  0  0  0  0  0  0  0  0  0
    3.0494   -0.7391   -0.2780 C   0  0  0  0  0  0  0  0  0  0  0  0
    3.2952   -1.7323   -1.2283 C   0  0  0  0  0  0  0  0  0  0  0  0
    2.2193   -2.3435   -1.8691 C   0  0  0  0  0  0  0  0  0  0  0  0
    0.9123   -1.9547   -1.5599 C   0  0  0  0  0  0  0  0  0  0  0  0
   -0.3886   -2.7373   -2.3942 Cl  0  0  0  0  0  0  0  0  0  0  0  0
    0.6575   -0.9483   -0.6058 C   0  0  0  0  0  0  0  0  0  0  0  0
   -0.6894   -0.5915   -0.3507 N   0  0  0  0  0  0  0  0  0  0  0  0
   -1.1574    0.4070    0.4807 C   0  0  0  0  0  0  0  0  0  0  0  0
   -0.4776    1.1620    1.1650 O   0  0  0  0  0  0  0  0  0  0  0  0
   -2.6399    0.5432    0.5366 C   0  0  0  0  0  0  0  0  0  0  0  0
   -3.4469    0.3332   -0.5910 C   0  0  0  0  0  0  0  0  0  0  0  0
   -4.8330    0.4758   -0.4931 C   0  0  0  0  0  0  0  0  0  0  0  0
   -5.4145    0.8356    0.7232 C   0  0  0  0  0  0  0  0  0  0  0  0
   -4.6074    1.0613    1.8379 C   0  0  0  0  0  0  0  0  0  0  0  0
   -5.3994    1.5611    3.4801 Br  0  0  0  0  0  0  0  0  0  0  0  0
   -3.2238    0.9225    1.7517 C   0  0  0  0  0  0  0  0  0  0  0  0
    1.7420   -0.3517    0.0427 C   0  0  0  0  0  0  0  0  0  0  0  0
    4.2047    1.9203   -0.8623 H   0  0  0  0  0  0  0  0  0  0  0  0
    5.0639    2.2975    0.6577 H   0  0  0  0  0  0  0  0  0  0  0  0
    3.2885    2.1281    0.6710 H   0  0  0  0  0  0  0  0  0  0  0  0
    4.3113   -2.0418   -1.4659 H   0  0  0  0  0  0  0  0  0  0  0  0
    2.4047   -3.1217   -2.6058 H   0  0  0  0  0  0  0  0  0  0  0  0
   -1.3714   -1.1683   -0.8323 H   0  0  0  0  0  0  0  0  0  0  0  0
   -3.0148    0.0886   -1.5578 H   0  0  0  0  0  0  0  0  0  0  0  0
   -5.4609    0.3169   -1.3671 H   0  0  0  0  0  0  0  0  0  0  0  0
   -6.4942    0.9467    0.7901 H   0  0  0  0  0  0  0  0  0  0  0  0
   -2.5960    1.1046    2.6216 H   0  0  0  0  0  0  0  0  0  0  0  0
    1.5936    0.3957    0.8157 H   0  0  0  0  0  0  0  0  0  0  0  0
  1  2  1  0
  2  3  2  0
  2  4  2  0
  2  5  1  0
  5  6  2  0
  6  7  1  0
  7  8  2  0
  8  9  1  0
  8 10  1  0
 10 11  1  0
 11 12  1  0
 12 13  2  0
 12 14  1  0
 14 15  2  0
 15 16  1  0
 16 17  2  0
 17 18  1  0
 18 19  1  0
 18 20  2  0
 10 21  2  0
 21  5  1  0
 20 14  1  0
  1 22  1  0
  1 23  1  0
  1 24  1  0
  6 25  1  0
  7 26  1  0
 11 27  1  0
 15 28  1  0
 16 29  1  0
 17 30  1  0
 20 31  1  0
 21 32  1  0
M  END
$$$$
