
     RDKit          3D

 26 27  0  0  0  0  0  0  0  0999 V2000
    0.9151   -2.4057    0.1333 O   0  0  0  0  0  0  0  0  0  0  0  0
    1.4014   -1.2794    0.1969 C   0  0  0  0  0  0  0  0  0  0  0  0
    2.8777   -1.0838    0.4806 C   0  0  0  0  0  0  0  0  0  0  0  0
    3.2491    0.3915    0.5879 C   0  0  0  0  0  0  0  0  0  0  0  0
    2.7943    1.1587   -0.6493 C   0  0  0  0  0  0  0  0  0  0  0  0
    1.3191    0.9561   -0.9354 C   0  0  0  0  0  0  0  0  0  0  0  0
    0.7736    1.5383   -1.8691 O   0  0  0  0  0  0  0  0  0  0  0  0
    0.6053   -0.0459   -0.0859 C   0  0  0  0  0  0  0  0  0  0  0  0
   -0.5954    0.1957    0.4850 C   0  0  0  0  0  0  0  0  0  0  0  0
   -1.4415    1.7204    0.2708 S   0  0  0  0  0  0  0  0  0  0  0  0
   -3.1815    1.2140    0.4415 C   0  0  0  0  0  0  0  0  0  0  0  0
   -3.4436   -0.1766   -0.1221 C   0  0  0  0  0  0  0  0  0  0  0  0
   -2.8496   -1.3164    0.7069 C   0  0  0  0  0  0  0  0  0  0  0  0
   -1.3297   -0.9169    1.6206 S   0  0  0  0  0  0  0  0  0  0  0  0
    3.4424   -1.5544   -0.3319 H   0  0  0  0  0  0  0  0  0  0  0  0
    3.1194   -1.5923    1.4197 H   0  0  0  0  0  0  0  0  0  0  0  0
    4.3331    0.4937    0.7104 H   0  0  0  0  0  0  0  0  0  0  0  0
    2.7828    0.8248    1.4821 H   0  0  0  0  0  0  0  0  0  0  0  0
    3.3569    0.8211   -1.5269 H   0  0  0  0  0  0  0  0  0  0  0  0
    2.9744    2.2290   -0.5045 H   0  0  0  0  0  0  0  0  0  0  0  0
   -3.7852    1.9475   -0.1031 H   0  0  0  0  0  0  0  0  0  0  0  0
   -3.4780    1.2734    1.4945 H   0  0  0  0  0  0  0  0  0  0  0  0
   -4.5267   -0.3366   -0.1963 H   0  0  0  0  0  0  0  0  0  0  0  0
   -3.0693   -0.2383   -1.1529 H   0  0  0  0  0  0  0  0  0  0  0  0
   -2.6592   -2.1805    0.0612 H   0  0  0  0  0  0  0  0  0  0  0  0
   -3.5848   -1.6376    1.4530 H   0  0  0  0  0  0  0  0  0  0  0  0
  1  2  2  0
  2  3  1  0
  3  4  1  0
  4  5  1  0
  5  6  1  0
  6  7  2  0
  6  8  1  0
  8  9  2  3
  9 10  1  0
 10 11  1  0
 11 12  1  0
 12 13  1  0
 13 14  1  0
  8  2  1  0
 14  9  1  0
  3 15  1  0
  3 16  1  0
  4 17  1  0
  4 18  1  0
  5 19  1  0
  5 20  1  0
 11 21  1  0
 11 22  1  0
 12 23  1  0
 12 24  1  0
 13 25  1  0
 13 26  1  0
M  END
$$$$
