
     RDKit          3D

 46 48  0  0  0  0  0  0  0  0999 V2000
   -3.8680   -0.0109   -1.3344 O   0  0  0  0  0  0  0  0  0  0  0  0
   -3.4774   -0.1164   -0.1790 C   0  0  0  0  0  0  0  0  0  0  0  0
   -4.2485   -0.3963    0.9353 N   0  0  0  0  0  0  0  0  0  0  0  0
   -5.6527   -0.5436    0.9816 C   0  0  0  0  0  0  0  0  0  0  0  0
   -6.2168   -0.9107    2.2095 C   0  0  0  0  0  0  0  0  0  0  0  0
   -7.5966   -1.0691    2.3272 C   0  0  0  0  0  0  0  0  0  0  0  0
   -8.1162   -1.4227    3.5100 F   0  0  0  0  0  0  0  0  0  0  0  0
   -8.4376   -0.8671    1.2457 C   0  0  0  0  0  0  0  0  0  0  0  0
   -7.8760   -0.4997    0.0329 C   0  0  0  0  0  0  0  0  0  0  0  0
   -8.6752   -0.2960   -1.0228 F   0  0  0  0  0  0  0  0  0  0  0  0
   -6.4980   -0.3352   -0.1104 C   0  0  0  0  0  0  0  0  0  0  0  0
   -2.0181    0.0311    0.0811 C   0  0  0  0  0  0  0  0  0  0  0  0
   -1.1168   -0.4178   -0.8862 C   0  0  0  0  0  0  0  0  0  0  0  0
    0.2661   -0.2999   -0.6844 C   0  0  0  0  0  0  0  0  0  0  0  0
    0.7995    0.3026    0.4670 C   0  0  0  0  0  0  0  0  0  0  0  0
    2.1823    0.3259    0.7086 N   0  0  0  0  0  0  0  0  0  0  0  0
    3.1327    0.2070   -0.4015 C   0  0  0  0  0  0  0  0  0  0  0  0
    4.5657    0.3898    0.1145 C   0  0  0  0  0  0  0  0  0  0  0  0
    5.5793    0.2672   -0.9956 C   0  0  0  0  0  0  0  0  0  0  0  0
    6.1268   -0.9809   -1.3219 C   0  0  0  0  0  0  0  0  0  0  0  0
    7.0471   -1.0977   -2.3645 C   0  0  0  0  0  0  0  0  0  0  0  0
    7.4253    0.0294   -3.0917 C   0  0  0  0  0  0  0  0  0  0  0  0
    6.8835    1.2743   -2.7776 C   0  0  0  0  0  0  0  0  0  0  0  0
    5.9630    1.3938   -1.7354 C   0  0  0  0  0  0  0  0  0  0  0  0
   -0.1391    0.7381    1.4332 C   0  0  0  0  0  0  0  0  0  0  0  0
    0.3071    1.3481    2.6872 N   0  0  0  0  0  4  0  0  0  0  0  0
   -0.3915    1.1500    3.6928 O   0  0  0  0  0  0  0  0  0  0  0  0
    1.3349    2.0428    2.6637 O   0  0  0  0  0  1  0  0  0  0  0  0
   -1.5310    0.6236    1.2450 C   0  0  0  0  0  0  0  0  0  0  0  0
   -3.7613   -0.5854    1.8026 H   0  0  0  0  0  0  0  0  0  0  0  0
   -5.6050   -1.0814    3.0899 H   0  0  0  0  0  0  0  0  0  0  0  0
   -9.5091   -0.9913    1.3441 H   0  0  0  0  0  0  0  0  0  0  0  0
   -6.1280   -0.0414   -1.0865 H   0  0  0  0  0  0  0  0  0  0  0  0
   -1.4850   -0.8765   -1.8037 H   0  0  0  0  0  0  0  0  0  0  0  0
    0.9143   -0.6999   -1.4604 H   0  0  0  0  0  0  0  0  0  0  0  0
    2.4369    1.0872    1.3498 H   0  0  0  0  0  0  0  0  0  0  0  0
    2.9138    0.9650   -1.1640 H   0  0  0  0  0  0  0  0  0  0  0  0
    3.0465   -0.7828   -0.8652 H   0  0  0  0  0  0  0  0  0  0  0  0
    4.7828   -0.3503    0.8957 H   0  0  0  0  0  0  0  0  0  0  0  0
    4.6717    1.3687    0.6001 H   0  0  0  0  0  0  0  0  0  0  0  0
    5.8417   -1.8705   -0.7643 H   0  0  0  0  0  0  0  0  0  0  0  0
    7.4703   -2.0685   -2.6091 H   0  0  0  0  0  0  0  0  0  0  0  0
    8.1431   -0.0623   -3.9026 H   0  0  0  0  0  0  0  0  0  0  0  0
    7.1792    2.1534   -3.3445 H   0  0  0  0  0  0  0  0  0  0  0  0
    5.5498    2.3731   -1.5036 H   0  0  0  0  0  0  0  0  0  0  0  0
   -2.2157    1.0192    1.9917 H   0  0  0  0  0  0  0  0  0  0  0  0
  1  2  2  0
  2  3  1  0
  3  4  1  0
  4  5  2  0
  5  6  1  0
  6  7  1  0
  6  8  2  0
  8  9  1  0
  9 10  1  0
  9 11  2  0
  2 12  1  0
 12 13  2  0
 13 14  1  0
 14 15  2  0
 15 16  1  0
 16 17  1  0
 17 18  1  0
 18 19  1  0
 19 20  2  0
 20 21  1  0
 21 22  2  0
 22 23  1  0
 23 24  2  0
 15 25  1  0
 25 26  1  0
 26 27  2  0
 26 28  1  0
 25 29  2  0
 11  4  1  0
 29 12  1  0
 24 19  1  0
  3 30  1  0
  5 31  1  0
  8 32  1  0
 11 33  1  0
 13 34  1  0
 14 35  1  0
 16 36  1  0
 17 37  1  0
 17 38  1  0
 18 39  1  0
 18 40  1  0
 20 41  1  0
 21 42  1  0
 22 43  1  0
 23 44  1  0
 24 45  1  0
 29 46  1  0
M  CHG  2  26   1  28  -1
M  END
$$$$
