
     RDKit          3D

 45 47  0  0  0  0  0  0  0  0999 V2000
   -7.4878   -1.9216   -0.8095 C   0  0  0  0  0  0  0  0  0  0  0  0
   -6.2831   -1.3962   -0.0484 C   0  0  0  0  0  0  0  0  0  0  0  0
   -5.8811   -0.1645   -0.6591 O   0  0  0  0  0  0  0  0  0  0  0  0
   -4.5633    0.1205   -0.4005 C   0  0  0  0  0  0  0  0  0  0  0  0
   -3.7128    0.1352   -1.5079 C   0  0  0  0  0  0  0  0  0  0  0  0
   -2.3621    0.4363   -1.3458 C   0  0  0  0  0  0  0  0  0  0  0  0
   -1.8628    0.7352   -0.0758 C   0  0  0  0  0  0  0  0  0  0  0  0
   -0.4431    1.0470    0.1066 C   0  0  0  0  0  0  0  0  0  0  0  0
    0.5448    0.1433    0.1527 C   0  0  0  0  0  0  0  0  0  0  0  0
    0.4157   -1.5738    0.0310 S   0  0  0  0  0  0  0  0  0  0  0  0
    2.1539   -1.8187    0.1934 C   0  0  0  0  0  0  0  0  0  0  0  0
    2.8713   -3.3245    0.2235 S   0  0  0  0  0  0  0  0  0  0  0  0
    2.7581   -0.5852    0.3279 N   0  0  0  0  0  0  0  0  0  0  0  0
    4.1562   -0.4309    0.3983 N   0  0  0  0  0  0  0  0  0  0  0  0
    4.8041   -0.2247   -0.8088 C   0  0  0  0  0  0  0  0  0  0  0  0
    4.2607   -0.3550   -1.9009 O   0  0  0  0  0  0  0  0  0  0  0  0
    6.2201    0.2161   -0.7228 C   0  0  0  0  0  0  0  0  0  0  0  0
    7.0307   -0.1094    0.3658 C   0  0  0  0  0  0  0  0  0  0  0  0
    8.3381    0.3433    0.3537 C   0  0  0  0  0  0  0  0  0  0  0  0
    8.8674    1.0779   -0.6471 N   0  0  0  0  0  0  0  0  0  0  0  0
    8.0657    1.3614   -1.6964 C   0  0  0  0  0  0  0  0  0  0  0  0
    6.7486    0.9534   -1.7832 C   0  0  0  0  0  0  0  0  0  0  0  0
    1.9638    0.5473    0.3453 C   0  0  0  0  0  0  0  0  0  0  0  0
    2.3445    1.6960    0.5336 O   0  0  0  0  0  0  0  0  0  0  0  0
   -2.7264    0.7507    1.0303 C   0  0  0  0  0  0  0  0  0  0  0  0
   -4.0869    0.4593    0.8764 C   0  0  0  0  0  0  0  0  0  0  0  0
   -5.0047    0.4814    1.8941 O   0  0  0  0  0  0  0  0  0  0  0  0
   -4.6100    1.0945    3.1146 C   0  0  0  0  0  0  0  0  0  0  0  0
   -7.8459   -2.8598   -0.3750 H   0  0  0  0  0  0  0  0  0  0  0  0
   -8.3033   -1.1912   -0.7942 H   0  0  0  0  0  0  0  0  0  0  0  0
   -7.2340   -2.0944   -1.8604 H   0  0  0  0  0  0  0  0  0  0  0  0
   -5.4806   -2.1442   -0.0852 H   0  0  0  0  0  0  0  0  0  0  0  0
   -6.5691   -1.2211    0.9936 H   0  0  0  0  0  0  0  0  0  0  0  0
   -4.1061   -0.0925   -2.4944 H   0  0  0  0  0  0  0  0  0  0  0  0
   -1.7091    0.4364   -2.2155 H   0  0  0  0  0  0  0  0  0  0  0  0
   -0.2192    2.1080    0.2113 H   0  0  0  0  0  0  0  0  0  0  0  0
    4.4825    0.0760    1.2148 H   0  0  0  0  0  0  0  0  0  0  0  0
    6.6842   -0.7222    1.1890 H   0  0  0  0  0  0  0  0  0  0  0  0
    9.0200    0.1158    1.1688 H   0  0  0  0  0  0  0  0  0  0  0  0
    8.5267    1.9433   -2.4894 H   0  0  0  0  0  0  0  0  0  0  0  0
    6.1492    1.2055   -2.6523 H   0  0  0  0  0  0  0  0  0  0  0  0
   -2.3142    0.9902    2.0047 H   0  0  0  0  0  0  0  0  0  0  0  0
   -3.8567    0.4896    3.6301 H   0  0  0  0  0  0  0  0  0  0  0  0
   -4.2532    2.1172    2.9511 H   0  0  0  0  0  0  0  0  0  0  0  0
   -5.4908    1.1489    3.7610 H   0  0  0  0  0  0  0  0  0  0  0  0
  1  2  1  0
  2  3  1  0
  3  4  1  0
  4  5  2  0
  5  6  1  0
  6  7  2  0
  7  8  1  0
  8  9  2  3
  9 10  1  0
 10 11  1  0
 11 12  2  0
 11 13  1  0
 13 14  1  0
 14 15  1  0
 15 16  2  0
 15 17  1  0
 17 18  2  0
 18 19  1  0
 19 20  2  0
 20 21  1  0
 21 22  2  0
 13 23  1  0
 23 24  2  0
  7 25  1  0
 25 26  2  0
 26 27  1  0
 27 28  1  0
 26  4  1  0
 23  9  1  0
 22 17  1  0
  1 29  1  0
  1 30  1  0
  1 31  1  0
  2 32  1  0
  2 33  1  0
  5 34  1  0
  6 35  1  0
  8 36  1  0
 14 37  1  0
 18 38  1  0
 19 39  1  0
 21 40  1  0
 22 41  1  0
 25 42  1  0
 28 43  1  0
 28 44  1  0
 28 45  1  0
M  END
$$$$
