
     RDKit          3D

 40 42  0  0  0  0  0  0  0  0999 V2000
   -2.5926    4.0457    3.9257 C   0  0  0  0  0  0  0  0  0  0  0  0
   -1.8192    3.3947    2.9247 O   0  0  0  0  0  0  0  0  0  0  0  0
   -2.0241    2.0503    2.7609 C   0  0  0  0  0  0  0  0  0  0  0  0
   -2.9136    1.2642    3.4877 C   0  0  0  0  0  0  0  0  0  0  0  0
   -3.0400   -0.1079    3.2335 C   0  0  0  0  0  0  0  0  0  0  0  0
   -2.2456   -0.6743    2.2250 C   0  0  0  0  0  0  0  0  0  0  0  0
   -1.3427    0.0866    1.4772 C   0  0  0  0  0  0  0  0  0  0  0  0
   -1.2393    1.4672    1.7575 C   0  0  0  0  0  0  0  0  0  0  0  0
   -0.7075   -0.7980    0.5491 C   0  0  0  0  0  0  0  0  0  0  0  0
    0.2920   -0.4395   -0.4099 C   0  0  0  0  0  0  0  0  0  0  0  0
    0.8544   -1.2600   -1.3139 C   0  0  0  0  0  0  0  0  0  0  0  0
    1.8735   -0.8256   -2.2751 C   0  0  0  0  0  0  0  0  0  0  0  0
    1.7979   -1.2665   -3.5944 C   0  0  0  0  0  0  0  0  0  0  0  0
    2.7692   -0.8745   -4.5083 C   0  0  0  0  0  0  0  0  0  0  0  0
    3.7959   -0.0823   -4.1262 N   0  0  0  0  0  4  0  0  0  0  0  0
    4.8014    0.3193   -5.1245 C   0  0  0  0  0  0  0  0  0  0  0  0
    3.8977    0.3469   -2.8490 C   0  0  0  0  0  0  0  0  0  0  0  0
    2.9477   -0.0189   -1.9019 C   0  0  0  0  0  0  0  0  0  0  0  0
   -1.2326   -2.0561    0.7543 C   0  0  0  0  0  0  0  0  0  0  0  0
   -2.1574   -1.9703    1.7639 N   0  0  0  0  0  0  0  0  0  0  0  0
   -2.9286   -3.0837    2.2725 C   0  0  0  0  0  0  0  0  0  0  0  0
   -2.3724    3.6417    4.9194 H   0  0  0  0  0  0  0  0  0  0  0  0
   -3.6624    3.9838    3.7003 H   0  0  0  0  0  0  0  0  0  0  0  0
   -2.3136    5.1039    3.9275 H   0  0  0  0  0  0  0  0  0  0  0  0
   -3.5353    1.6863    4.2712 H   0  0  0  0  0  0  0  0  0  0  0  0
   -3.7385   -0.7077    3.8090 H   0  0  0  0  0  0  0  0  0  0  0  0
   -0.5506    2.0911    1.1968 H   0  0  0  0  0  0  0  0  0  0  0  0
    0.5966    0.6048   -0.3915 H   0  0  0  0  0  0  0  0  0  0  0  0
    0.5470   -2.3010   -1.3806 H   0  0  0  0  0  0  0  0  0  0  0  0
    0.9783   -1.9042   -3.9212 H   0  0  0  0  0  0  0  0  0  0  0  0
    2.7361   -1.1884   -5.5480 H   0  0  0  0  0  0  0  0  0  0  0  0
    5.6604    0.7755   -4.6256 H   0  0  0  0  0  0  0  0  0  0  0  0
    5.1234   -0.5757   -5.6648 H   0  0  0  0  0  0  0  0  0  0  0  0
    4.3269    1.0369   -5.7997 H   0  0  0  0  0  0  0  0  0  0  0  0
    4.7416    0.9804   -2.5905 H   0  0  0  0  0  0  0  0  0  0  0  0
    3.0578    0.3246   -0.8747 H   0  0  0  0  0  0  0  0  0  0  0  0
   -1.0315   -3.0053    0.2765 H   0  0  0  0  0  0  0  0  0  0  0  0
   -2.7017   -3.2045    3.3347 H   0  0  0  0  0  0  0  0  0  0  0  0
   -2.6589   -3.9940    1.7314 H   0  0  0  0  0  0  0  0  0  0  0  0
   -3.9893   -2.8656    2.1241 H   0  0  0  0  0  0  0  0  0  0  0  0
  1  2  1  0
  2  3  1  0
  3  4  2  0
  4  5  1  0
  5  6  2  0
  6  7  1  0
  7  8  2  0
  7  9  1  0
  9 10  1  0
 10 11  2  3
 11 12  1  0
 12 13  2  0
 13 14  1  0
 14 15  2  0
 15 16  1  0
 15 17  1  0
 17 18  2  0
  9 19  2  0
 19 20  1  0
 20 21  1  0
  8  3  1  0
 18 12  1  0
 20  6  1  0
  1 22  1  0
  1 23  1  0
  1 24  1  0
  4 25  1  0
  5 26  1  0
  8 27  1  0
 10 28  1  0
 11 29  1  0
 13 30  1  0
 14 31  1  0
 16 32  1  0
 16 33  1  0
 16 34  1  0
 17 35  1  0
 18 36  1  0
 19 37  1  0
 21 38  1  0
 21 39  1  0
 21 40  1  0
M  CHG  1  15   1
M  END
$$$$
