
     RDKit          3D

 46 48  0  0  0  0  0  0  0  0999 V2000
   -7.0555    1.3228   -0.0185 C   0  0  0  0  0  0  0  0  0  0  0  0
   -6.9212    0.0940   -0.7238 O   0  0  0  0  0  0  0  0  0  0  0  0
   -5.7501   -0.5955   -0.5387 C   0  0  0  0  0  0  0  0  0  0  0  0
   -4.6733   -0.1958    0.2543 C   0  0  0  0  0  0  0  0  0  0  0  0
   -3.5260   -1.0008    0.3472 C   0  0  0  0  0  0  0  0  0  0  0  0
   -2.4147   -0.5604    1.1949 C   0  0  0  0  0  0  0  0  0  0  0  0
   -1.1664   -0.3534    0.7533 C   0  0  0  0  0  0  0  0  0  0  0  0
   -0.5922   -0.4773   -0.6243 C   0  0  0  0  0  0  0  0  0  0  0  0
    0.6695    0.3851   -0.6102 C   0  0  0  0  0  0  0  0  0  0  0  0
    1.0727    0.4651    0.8300 C   0  0  0  0  0  0  0  0  0  0  0  0
    2.2606    0.7441    1.3842 C   0  0  0  0  0  0  0  0  0  0  0  0
    3.4696    1.0680    0.6221 C   0  0  0  0  0  0  0  0  0  0  0  0
    3.5103    2.1750   -0.2363 C   0  0  0  0  0  0  0  0  0  0  0  0
    4.6731    2.4706   -0.9458 C   0  0  0  0  0  0  0  0  0  0  0  0
    5.7901    1.6618   -0.7844 C   0  0  0  0  0  0  0  0  0  0  0  0
    6.9192    1.9724   -1.4926 O   0  0  0  0  0  0  0  0  0  0  0  0
    5.7805    0.5592    0.0775 C   0  0  0  0  0  0  0  0  0  0  0  0
    6.9593   -0.1395    0.1354 O   0  0  0  0  0  0  0  0  0  0  0  0
    6.9971   -1.2532    1.0207 C   0  0  0  0  0  0  0  0  0  0  0  0
    4.6127    0.2681    0.7843 C   0  0  0  0  0  0  0  0  0  0  0  0
   -0.1002    0.1195    1.6712 C   0  0  0  0  0  0  0  0  0  0  0  0
   -0.1737    0.2071    2.8819 O   0  0  0  0  0  0  0  0  0  0  0  0
   -3.4728   -2.2198   -0.3421 C   0  0  0  0  0  0  0  0  0  0  0  0
   -4.5443   -2.6241   -1.1366 C   0  0  0  0  0  0  0  0  0  0  0  0
   -5.6655   -1.8103   -1.2284 C   0  0  0  0  0  0  0  0  0  0  0  0
   -6.7039   -2.2291   -2.0153 O   0  0  0  0  0  0  0  0  0  0  0  0
   -7.0187    1.1627    1.0642 H   0  0  0  0  0  0  0  0  0  0  0  0
   -6.2982    2.0458   -0.3389 H   0  0  0  0  0  0  0  0  0  0  0  0
   -8.0377    1.7404   -0.2601 H   0  0  0  0  0  0  0  0  0  0  0  0
   -4.6964    0.7389    0.8054 H   0  0  0  0  0  0  0  0  0  0  0  0
   -2.6619   -0.3824    2.2407 H   0  0  0  0  0  0  0  0  0  0  0  0
   -1.2815   -0.1408   -1.4052 H   0  0  0  0  0  0  0  0  0  0  0  0
   -0.3274   -1.5231   -0.8205 H   0  0  0  0  0  0  0  0  0  0  0  0
    0.4394    1.3896   -0.9847 H   0  0  0  0  0  0  0  0  0  0  0  0
    1.4448   -0.0539   -1.2460 H   0  0  0  0  0  0  0  0  0  0  0  0
    2.3787    0.7201    2.4668 H   0  0  0  0  0  0  0  0  0  0  0  0
    2.6423    2.8196   -0.3518 H   0  0  0  0  0  0  0  0  0  0  0  0
    4.7116    3.3258   -1.6137 H   0  0  0  0  0  0  0  0  0  0  0  0
    7.5743    1.2966   -1.2304 H   0  0  0  0  0  0  0  0  0  0  0  0
    7.9975   -1.6926    0.9614 H   0  0  0  0  0  0  0  0  0  0  0  0
    6.2776   -2.0213    0.7185 H   0  0  0  0  0  0  0  0  0  0  0  0
    6.8317   -0.9398    2.0568 H   0  0  0  0  0  0  0  0  0  0  0  0
    4.5612   -0.5777    1.4625 H   0  0  0  0  0  0  0  0  0  0  0  0
   -2.6029   -2.8667   -0.2587 H   0  0  0  0  0  0  0  0  0  0  0  0
   -4.5096   -3.5666   -1.6746 H   0  0  0  0  0  0  0  0  0  0  0  0
   -7.3799   -1.5284   -1.9335 H   0  0  0  0  0  0  0  0  0  0  0  0
  1  2  1  0
  2  3  1  0
  3  4  2  0
  4  5  1  0
  5  6  1  0
  6  7  2  3
  7  8  1  0
  8  9  1  0
  9 10  1  0
 10 11  2  3
 11 12  1  0
 12 13  2  0
 13 14  1  0
 14 15  2  0
 15 16  1  0
 15 17  1  0
 17 18  1  0
 18 19  1  0
 17 20  2  0
 10 21  1  0
 21 22  2  0
  5 23  2  0
 23 24  1  0
 24 25  2  0
 25 26  1  0
 25  3  1  0
 21  7  1  0
 20 12  1  0
  1 27  1  0
  1 28  1  0
  1 29  1  0
  4 30  1  0
  6 31  1  0
  8 32  1  0
  8 33  1  0
  9 34  1  0
  9 35  1  0
 11 36  1  0
 13 37  1  0
 14 38  1  0
 16 39  1  0
 19 40  1  0
 19 41  1  0
 19 42  1  0
 20 43  1  0
 23 44  1  0
 24 45  1  0
 26 46  1  0
M  END
$$$$
