
     RDKit          3D

 34 36  0  0  0  0  0  0  0  0999 V2000
   -0.2802   -1.4259    1.8199 O   0  0  0  0  0  0  0  0  0  0  0  0
    0.2397   -0.7301    0.9581 C   0  0  0  0  0  0  0  0  0  0  0  0
    1.7131   -0.6854    0.8728 C   0  0  0  0  0  0  0  0  0  0  0  0
    2.3725   -1.0723   -0.2992 C   0  0  0  0  0  0  0  0  0  0  0  0
    3.7678   -1.0377   -0.3489 C   0  0  0  0  0  0  0  0  0  0  0  0
    4.4923   -0.6324    0.7735 C   0  0  0  0  0  0  0  0  0  0  0  0
    6.2108   -0.5890    0.7075 Cl  0  0  0  0  0  0  0  0  0  0  0  0
    3.8357   -0.2700    1.9504 C   0  0  0  0  0  0  0  0  0  0  0  0
    2.4407   -0.3037    2.0046 C   0  0  0  0  0  0  0  0  0  0  0  0
   -0.4945    0.0268    0.0821 N   0  0  0  0  0  0  0  0  0  0  0  0
   -0.0189    1.0517   -0.8585 C   0  0  0  0  0  0  0  0  0  0  0  0
   -0.3264    0.5121   -2.2334 C   0  0  0  0  0  0  0  0  0  0  0  0
   -1.6593    0.5545   -2.4024 C   0  0  0  0  0  0  0  0  0  0  0  0
   -2.2452    1.0605   -1.0933 C   0  0  0  0  0  0  0  0  0  0  0  0
   -1.1390    2.0904   -0.7871 C   0  0  0  0  0  0  0  0  0  0  0  0
   -2.0168   -0.0065    0.0458 C   0  0  0  0  0  0  0  0  0  0  0  0
   -2.6515   -1.3516   -0.3060 C   0  0  0  0  0  0  0  0  0  0  0  0
   -3.9505   -1.1891   -0.6647 F   0  0  0  0  0  0  0  0  0  0  0  0
   -2.6333   -2.2539    0.6937 F   0  0  0  0  0  0  0  0  0  0  0  0
   -2.0416   -1.9469   -1.3621 F   0  0  0  0  0  0  0  0  0  0  0  0
   -2.7327    0.4298    1.3262 C   0  0  0  0  0  0  0  0  0  0  0  0
   -4.0358    0.7127    1.0726 F   0  0  0  0  0  0  0  0  0  0  0  0
   -2.2006    1.5691    1.8359 F   0  0  0  0  0  0  0  0  0  0  0  0
   -2.7182   -0.4740    2.3219 F   0  0  0  0  0  0  0  0  0  0  0  0
    1.8096   -1.4192   -1.1618 H   0  0  0  0  0  0  0  0  0  0  0  0
    4.2843   -1.3385   -1.2570 H   0  0  0  0  0  0  0  0  0  0  0  0
    4.4026    0.0295    2.8283 H   0  0  0  0  0  0  0  0  0  0  0  0
    1.9241   -0.0399    2.9251 H   0  0  0  0  0  0  0  0  0  0  0  0
    0.9902    1.4298   -0.6976 H   0  0  0  0  0  0  0  0  0  0  0  0
    0.4006    0.1534   -2.9463 H   0  0  0  0  0  0  0  0  0  0  0  0
   -2.2150    0.2158   -3.2652 H   0  0  0  0  0  0  0  0  0  0  0  0
   -3.2487    1.4799   -1.1818 H   0  0  0  0  0  0  0  0  0  0  0  0
   -1.2223    2.5680    0.1910 H   0  0  0  0  0  0  0  0  0  0  0  0
   -1.0534    2.8822   -1.5439 H   0  0  0  0  0  0  0  0  0  0  0  0
  1  2  2  0
  2  3  1  0
  3  4  2  0
  4  5  1  0
  5  6  2  0
  6  7  1  0
  6  8  1  0
  8  9  2  0
  2 10  1  0
 10 11  1  0
 11 12  1  0
 12 13  2  0
 13 14  1  0
 14 15  1  0
 14 16  1  0
 16 17  1  0
 17 18  1  0
 17 19  1  0
 17 20  1  0
 16 21  1  0
 21 22  1  0
 21 23  1  0
 21 24  1  0
  9  3  1  0
 16 10  1  0
 15 11  1  0
  4 25  1  0
  5 26  1  0
  8 27  1  0
  9 28  1  0
 11 29  1  0
 12 30  1  0
 13 31  1  0
 14 32  1  0
 15 33  1  0
 15 34  1  0
M  END
$$$$
