
     RDKit          3D

 48 51  0  0  0  0  0  0  0  0999 V2000
    3.2589    1.5601   -2.3264 C   0  0  0  0  0  0  0  0  0  0  0  0
    3.5332    1.5721   -0.8301 C   0  0  0  0  0  0  0  0  0  0  0  0
    2.9816    0.3805   -0.1915 N   0  0  0  0  0  0  0  0  0  0  0  0
    1.7052    0.2182    0.3571 C   0  0  0  0  0  0  0  0  0  0  0  0
    0.7170    1.1344    0.3549 C   0  0  0  0  0  0  0  0  0  0  0  0
   -0.6285    0.9745    0.9327 C   0  0  0  0  0  0  0  0  0  0  0  0
   -0.7267    1.0498    2.3179 C   0  0  0  0  0  0  0  0  0  0  0  0
   -1.9512    0.9130    2.9261 C   0  0  0  0  0  0  0  0  0  0  0  0
   -3.0868    0.7811    2.1439 C   0  0  0  0  0  0  0  0  0  0  0  0
   -4.3049    0.6605    2.8198 C   0  0  0  0  0  0  0  0  0  0  0  0
   -5.4923    0.5615    2.1193 C   0  0  0  0  0  0  0  0  0  0  0  0
   -5.4698    0.6277    0.7358 C   0  0  0  0  0  0  0  0  0  0  0  0
   -4.2606    0.7674    0.0097 C   0  0  0  0  0  0  0  0  0  0  0  0
   -4.4745    0.9701   -1.4697 C   0  0  0  0  0  0  0  0  0  0  0  0
   -3.0126    0.7812    0.7052 C   0  0  0  0  0  0  0  0  0  0  0  0
   -1.7387    0.7972    0.1425 N   0  0  0  0  0  4  0  0  0  0  0  0
   -1.5057    0.4726   -1.2977 C   0  0  0  0  0  0  0  0  0  0  0  0
   -1.6518   -1.0211   -1.5290 C   0  0  0  0  0  0  0  0  0  0  0  0
    1.4301   -1.3975    1.0684 S   0  0  0  0  0  0  0  0  0  0  0  0
    3.0778   -1.8618    0.5574 C   0  0  0  0  0  0  0  0  0  0  0  0
    3.6647   -3.1046    0.7516 C   0  0  0  0  0  0  0  0  0  0  0  0
    4.9600   -3.3054    0.2802 C   0  0  0  0  0  0  0  0  0  0  0  0
    5.6407   -2.2714   -0.3734 C   0  0  0  0  0  0  0  0  0  0  0  0
    5.0375   -1.0209   -0.5631 C   0  0  0  0  0  0  0  0  0  0  0  0
    3.7462   -0.8017   -0.0951 C   0  0  0  0  0  0  0  0  0  0  0  0
    3.7227    0.6949   -2.8108 H   0  0  0  0  0  0  0  0  0  0  0  0
    3.6602    2.4655   -2.7920 H   0  0  0  0  0  0  0  0  0  0  0  0
    2.1839    1.5205   -2.5309 H   0  0  0  0  0  0  0  0  0  0  0  0
    4.6083    1.6710   -0.6423 H   0  0  0  0  0  0  0  0  0  0  0  0
    3.0905    2.4746   -0.3923 H   0  0  0  0  0  0  0  0  0  0  0  0
    0.8824    2.1080   -0.0969 H   0  0  0  0  0  0  0  0  0  0  0  0
    0.1616    1.1848    2.9343 H   0  0  0  0  0  0  0  0  0  0  0  0
   -2.0058    0.9329    4.0145 H   0  0  0  0  0  0  0  0  0  0  0  0
   -4.3485    0.6418    3.9093 H   0  0  0  0  0  0  0  0  0  0  0  0
   -6.4379    0.4632    2.6498 H   0  0  0  0  0  0  0  0  0  0  0  0
   -6.4294    0.5924    0.2161 H   0  0  0  0  0  0  0  0  0  0  0  0
   -5.5379    1.0727   -1.7183 H   0  0  0  0  0  0  0  0  0  0  0  0
   -4.1143    0.1193   -2.0505 H   0  0  0  0  0  0  0  0  0  0  0  0
   -4.0130    1.9075   -1.7944 H   0  0  0  0  0  0  0  0  0  0  0  0
   -2.1525    1.0826   -1.9186 H   0  0  0  0  0  0  0  0  0  0  0  0
   -0.5059    0.7818   -1.6090 H   0  0  0  0  0  0  0  0  0  0  0  0
   -2.6250   -1.4008   -1.2070 H   0  0  0  0  0  0  0  0  0  0  0  0
   -1.5305   -1.2510   -2.5920 H   0  0  0  0  0  0  0  0  0  0  0  0
   -0.8915   -1.5793   -0.9768 H   0  0  0  0  0  0  0  0  0  0  0  0
    3.1339   -3.9045    1.2580 H   0  0  0  0  0  0  0  0  0  0  0  0
    5.4462   -4.2688    0.4196 H   0  0  0  0  0  0  0  0  0  0  0  0
    6.6522   -2.4423   -0.7378 H   0  0  0  0  0  0  0  0  0  0  0  0
    5.6011   -0.2509   -1.0784 H   0  0  0  0  0  0  0  0  0  0  0  0
  1  2  1  0
  2  3  1  0
  3  4  1  0
  4  5  2  3
  5  6  1  0
  6  7  2  0
  7  8  1  0
  8  9  2  0
  9 10  1  0
 10 11  2  0
 11 12  1  0
 12 13  2  0
 13 14  1  0
 13 15  1  0
 15 16  2  0
 16 17  1  0
 17 18  1  0
  4 19  1  0
 19 20  1  0
 20 21  2  0
 21 22  1  0
 22 23  2  0
 23 24  1  0
 24 25  2  0
 25  3  1  0
 16  6  1  0
 25 20  1  0
 15  9  1  0
  1 26  1  0
  1 27  1  0
  1 28  1  0
  2 29  1  0
  2 30  1  0
  5 31  1  0
  7 32  1  0
  8 33  1  0
 10 34  1  0
 11 35  1  0
 12 36  1  0
 14 37  1  0
 14 38  1  0
 14 39  1  0
 17 40  1  0
 17 41  1  0
 18 42  1  0
 18 43  1  0
 18 44  1  0
 21 45  1  0
 22 46  1  0
 23 47  1  0
 24 48  1  0
M  CHG  1  16   1
M  END
$$$$
