
     RDKit          3D

 44 44  0  0  0  0  0  0  0  0999 V2000
   -3.3519    2.8493    1.6697 C   0  0  0  0  0  0  0  0  0  0  0  0
   -3.0243    2.5539    0.2118 C   0  0  0  0  0  0  0  0  0  0  0  0
   -3.2431    1.1364   -0.1049 N   0  0  0  0  0  0  0  0  0  0  0  0
   -4.5857    0.7910   -0.5933 C   0  0  0  0  0  0  0  0  0  0  0  0
   -4.6479    0.8630   -2.1140 C   0  0  0  0  0  0  0  0  0  0  0  0
   -2.2509    0.1762    0.0690 C   0  0  0  0  0  0  0  0  0  0  0  0
   -2.4033   -1.1498   -0.3691 C   0  0  0  0  0  0  0  0  0  0  0  0
   -1.4057   -2.1205   -0.1905 C   0  0  0  0  0  0  0  0  0  0  0  0
   -0.2094   -1.7963    0.4413 C   0  0  0  0  0  0  0  0  0  0  0  0
   -0.0144   -0.4994    0.8943 C   0  0  0  0  0  0  0  0  0  0  0  0
    1.1017   -0.0290    1.5276 O   0  0  0  0  0  0  0  0  0  0  0  0
    1.9965   -0.9712    2.0993 C   0  0  0  0  0  0  0  0  0  0  0  0
    3.0461   -1.5413    1.1374 C   0  0  0  0  0  0  0  0  0  0  0  0
    3.0798   -2.7540    0.9070 O   0  0  0  0  0  0  0  0  0  0  0  0
    3.9642   -0.6684    0.5563 N   0  0  0  0  0  0  0  0  0  0  0  0
    3.8618    0.7836    0.6187 C   0  0  0  0  0  0  0  0  0  0  0  0
    4.9100   -1.2258   -0.4172 C   0  0  0  0  0  0  0  0  0  0  0  0
    4.2857   -1.4406   -1.7966 C   0  0  0  0  0  0  0  0  0  0  0  0
    5.2900   -1.9620   -2.7300 C   0  0  0  0  0  0  0  0  0  0  0  0
    6.1015   -2.3731   -3.4518 N   0  0  0  0  0  0  0  0  0  0  0  0
   -1.0233    0.4624    0.6956 C   0  0  0  0  0  0  0  0  0  0  0  0
   -2.6916    2.3043    2.3513 H   0  0  0  0  0  0  0  0  0  0  0  0
   -4.3807    2.5627    1.9109 H   0  0  0  0  0  0  0  0  0  0  0  0
   -3.2379    3.9180    1.8751 H   0  0  0  0  0  0  0  0  0  0  0  0
   -3.6753    3.1741   -0.4171 H   0  0  0  0  0  0  0  0  0  0  0  0
   -2.0062    2.8747   -0.0357 H   0  0  0  0  0  0  0  0  0  0  0  0
   -5.3227    1.4966   -0.1826 H   0  0  0  0  0  0  0  0  0  0  0  0
   -4.9121   -0.1887   -0.2295 H   0  0  0  0  0  0  0  0  0  0  0  0
   -3.9248    0.1886   -2.5859 H   0  0  0  0  0  0  0  0  0  0  0  0
   -5.6504    0.5912   -2.4659 H   0  0  0  0  0  0  0  0  0  0  0  0
   -4.4307    1.8788   -2.4676 H   0  0  0  0  0  0  0  0  0  0  0  0
   -3.3065   -1.4713   -0.8785 H   0  0  0  0  0  0  0  0  0  0  0  0
   -1.5704   -3.1332   -0.5520 H   0  0  0  0  0  0  0  0  0  0  0  0
    0.5361   -2.5765    0.5545 H   0  0  0  0  0  0  0  0  0  0  0  0
    2.5408   -0.4571    2.9047 H   0  0  0  0  0  0  0  0  0  0  0  0
    1.4605   -1.7911    2.5995 H   0  0  0  0  0  0  0  0  0  0  0  0
    3.3064    1.1213    1.4918 H   0  0  0  0  0  0  0  0  0  0  0  0
    4.8662    1.2109    0.6803 H   0  0  0  0  0  0  0  0  0  0  0  0
    3.3613    1.1407   -0.2879 H   0  0  0  0  0  0  0  0  0  0  0  0
    5.7824   -0.5616   -0.4736 H   0  0  0  0  0  0  0  0  0  0  0  0
    5.2788   -2.1838   -0.0280 H   0  0  0  0  0  0  0  0  0  0  0  0
    3.4460   -2.1407   -1.7296 H   0  0  0  0  0  0  0  0  0  0  0  0
    3.8759   -0.4977   -2.1765 H   0  0  0  0  0  0  0  0  0  0  0  0
   -0.8222    1.4554    1.0815 H   0  0  0  0  0  0  0  0  0  0  0  0
  1  2  1  0
  2  3  1  0
  3  4  1  0
  4  5  1  0
  3  6  1  0
  6  7  2  0
  7  8  1  0
  8  9  2  0
  9 10  1  0
 10 11  1  0
 11 12  1  0
 12 13  1  0
 13 14  2  0
 13 15  1  0
 15 16  1  0
 15 17  1  0
 17 18  1  0
 18 19  1  0
 19 20  3  0
 10 21  2  0
 21  6  1  0
  1 22  1  0
  1 23  1  0
  1 24  1  0
  2 25  1  0
  2 26  1  0
  4 27  1  0
  4 28  1  0
  5 29  1  0
  5 30  1  0
  5 31  1  0
  7 32  1  0
  8 33  1  0
  9 34  1  0
 12 35  1  0
 12 36  1  0
 16 37  1  0
 16 38  1  0
 16 39  1  0
 17 40  1  0
 17 41  1  0
 18 42  1  0
 18 43  1  0
 21 44  1  0
M  END
$$$$
