
     RDKit          3D

 43 45  0  0  0  0  0  0  0  0999 V2000
    7.8503    0.6569    1.3524 C   0  0  0  0  0  0  0  0  0  0  0  0
    6.6905    0.1051    0.7279 O   0  0  0  0  0  0  0  0  0  0  0  0
    5.5234    0.4663    1.3177 C   0  0  0  0  0  0  0  0  0  0  0  0
    5.4118    1.1870    2.2972 O   0  0  0  0  0  0  0  0  0  0  0  0
    4.3647   -0.1410    0.6080 C   0  0  0  0  0  0  0  0  0  0  0  0
    4.5164   -0.9957   -0.4891 C   0  0  0  0  0  0  0  0  0  0  0  0
    3.3887   -1.5369   -1.1142 C   0  0  0  0  0  0  0  0  0  0  0  0
    2.1021   -1.2409   -0.6548 C   0  0  0  0  0  0  0  0  0  0  0  0
    1.0970   -1.8399   -1.3610 O   0  0  0  0  0  0  0  0  0  0  0  0
   -0.2233   -1.7757   -0.8376 C   0  0  0  0  0  0  0  0  0  0  0  0
   -1.0128   -0.4799   -1.1333 C   0  0  0  0  0  0  0  0  0  0  0  0
   -0.4813    0.4085   -1.8015 O   0  0  0  0  0  0  0  0  0  0  0  0
   -2.3238   -0.4163   -0.5970 N   0  0  0  0  0  0  0  0  0  0  0  0
   -2.9954   -1.6550   -0.1766 C   0  0  0  0  0  0  0  0  0  0  0  0
   -4.2681   -1.4562    0.6247 C   0  0  0  0  0  0  0  0  0  0  0  0
   -5.2172   -0.5827   -0.1637 C   0  0  0  0  0  0  0  0  0  0  0  0
   -4.5333    0.7136   -0.4957 C   0  0  0  0  0  0  0  0  0  0  0  0
   -5.3325    1.8647   -0.6305 C   0  0  0  0  0  0  0  0  0  0  0  0
   -4.7591    3.0959   -0.9248 C   0  0  0  0  0  0  0  0  0  0  0  0
   -3.3841    3.1853   -1.0834 C   0  0  0  0  0  0  0  0  0  0  0  0
   -2.5854    2.0413   -0.9680 C   0  0  0  0  0  0  0  0  0  0  0  0
   -3.1370    0.7782   -0.7013 C   0  0  0  0  0  0  0  0  0  0  0  0
    1.9489   -0.3810    0.4324 C   0  0  0  0  0  0  0  0  0  0  0  0
    3.0750    0.1637    1.0624 C   0  0  0  0  0  0  0  0  0  0  0  0
    7.8252    1.7503    1.3106 H   0  0  0  0  0  0  0  0  0  0  0  0
    7.9305    0.3093    2.3872 H   0  0  0  0  0  0  0  0  0  0  0  0
    8.7289    0.3097    0.8017 H   0  0  0  0  0  0  0  0  0  0  0  0
    5.5012   -1.2486   -0.8730 H   0  0  0  0  0  0  0  0  0  0  0  0
    3.5145   -2.1956   -1.9707 H   0  0  0  0  0  0  0  0  0  0  0  0
   -0.2129   -1.9804    0.2390 H   0  0  0  0  0  0  0  0  0  0  0  0
   -0.7641   -2.5965   -1.3220 H   0  0  0  0  0  0  0  0  0  0  0  0
   -3.2002   -2.2352   -1.0854 H   0  0  0  0  0  0  0  0  0  0  0  0
   -2.3151   -2.2508    0.4382 H   0  0  0  0  0  0  0  0  0  0  0  0
   -4.0313   -0.9878    1.5888 H   0  0  0  0  0  0  0  0  0  0  0  0
   -4.7338   -2.4245    0.8388 H   0  0  0  0  0  0  0  0  0  0  0  0
   -6.1170   -0.4036    0.4365 H   0  0  0  0  0  0  0  0  0  0  0  0
   -5.5255   -1.0760   -1.0932 H   0  0  0  0  0  0  0  0  0  0  0  0
   -6.4106    1.8035   -0.4978 H   0  0  0  0  0  0  0  0  0  0  0  0
   -5.3801    3.9821   -1.0215 H   0  0  0  0  0  0  0  0  0  0  0  0
   -2.9200    4.1444   -1.2991 H   0  0  0  0  0  0  0  0  0  0  0  0
   -1.5158    2.1892   -1.0781 H   0  0  0  0  0  0  0  0  0  0  0  0
    0.9728   -0.0924    0.8072 H   0  0  0  0  0  0  0  0  0  0  0  0
    2.9381    0.8375    1.9066 H   0  0  0  0  0  0  0  0  0  0  0  0
  1  2  1  0
  2  3  1  0
  3  4  2  0
  3  5  1  0
  5  6  2  0
  6  7  1  0
  7  8  2  0
  8  9  1  0
  9 10  1  0
 10 11  1  0
 11 12  2  0
 11 13  1  0
 13 14  1  0
 14 15  1  0
 15 16  1  0
 16 17  1  0
 17 18  2  0
 18 19  1  0
 19 20  2  0
 20 21  1  0
 21 22  2  0
  8 23  1  0
 23 24  2  0
 24  5  1  0
 22 13  1  0
 22 17  1  0
  1 25  1  0
  1 26  1  0
  1 27  1  0
  6 28  1  0
  7 29  1  0
 10 30  1  0
 10 31  1  0
 14 32  1  0
 14 33  1  0
 15 34  1  0
 15 35  1  0
 16 36  1  0
 16 37  1  0
 18 38  1  0
 19 39  1  0
 20 40  1  0
 21 41  1  0
 23 42  1  0
 24 43  1  0
M  END
$$$$
