
     RDKit          3D

 59 61  0  0  0  0  0  0  0  0999 V2000
   -7.0132   -2.1047    1.3715 C   0  0  0  0  0  0  0  0  0  0  0  0
   -5.7306   -1.8068    1.1101 C   0  0  0  0  0  0  0  0  0  0  0  0
   -5.0649   -1.6483   -0.2607 C   0  0  0  0  0  0  0  0  0  0  0  0
   -6.0172   -1.8808   -1.4631 C   0  0  0  0  0  0  0  0  0  0  0  0
   -4.0214   -2.7978   -0.3314 C   0  0  0  0  0  0  0  0  0  0  0  0
   -4.4321   -0.2375   -0.3780 C   0  0  0  0  0  0  0  0  0  0  0  0
   -3.0367   -0.0583   -0.5088 C   0  0  0  0  0  0  0  0  0  0  0  0
   -2.4373    1.2147   -0.6323 C   0  0  0  0  0  0  0  0  0  0  0  0
   -0.9385    1.3380   -0.8294 C   0  0  2  0  0  0  0  0  0  0  0  0
   -0.4751    0.6532   -2.1114 C   0  0  0  0  0  0  0  0  0  0  0  0
    1.0175    0.7827   -2.2088 C   0  0  0  0  0  0  0  0  0  0  0  0
    1.6179    0.7579   -3.2839 O   0  0  0  0  0  0  0  0  0  0  0  0
    1.7759    0.8530   -0.9429 C   0  0  0  0  0  0  0  0  0  0  0  0
    1.0630    0.8116    0.2555 C   0  0  0  0  0  0  0  0  0  0  0  0
    1.7463    0.7869    1.4651 C   0  0  0  0  0  0  0  0  0  0  0  0
    3.1408    0.8396    1.4781 C   0  0  0  0  0  0  0  0  0  0  0  0
    3.7079    0.8009    2.7219 O   0  0  0  0  0  0  0  0  0  0  0  0
    3.8879    0.9151    0.2889 C   0  0  0  0  0  0  0  0  0  0  0  0
    5.4028    0.9863    0.2977 C   0  0  0  0  0  0  0  0  0  0  0  0
    6.0315   -0.3148    0.7288 C   0  0  0  0  0  0  0  0  0  0  0  0
    6.9835   -0.5150    1.6612 C   0  0  0  0  0  0  0  0  0  0  0  0
    7.4725   -1.9087    1.9694 C   0  0  0  0  0  0  0  0  0  0  0  0
    7.6684    0.5610    2.4582 C   0  0  0  0  0  0  0  0  0  0  0  0
    3.1796    0.9089   -0.9272 C   0  0  0  0  0  0  0  0  0  0  0  0
    3.9039    0.9471   -2.0946 O   0  0  0  0  0  0  0  0  0  0  0  0
   -0.3035    0.7590    0.3250 O   0  0  0  0  0  0  0  0  0  0  0  0
   -3.2699    2.3315   -0.5864 C   0  0  0  0  0  0  0  0  0  0  0  0
   -2.7698    3.5993   -0.6469 O   0  0  0  0  0  0  0  0  0  0  0  0
   -4.6470    2.2023   -0.4661 C   0  0  0  0  0  0  0  0  0  0  0  0
   -5.2165    0.9317   -0.3579 C   0  0  0  0  0  0  0  0  0  0  0  0
   -6.5745    0.8391   -0.2203 O   0  0  0  0  0  0  0  0  0  0  0  0
   -7.7484   -2.2539    0.5877 H   0  0  0  0  0  0  0  0  0  0  0  0
   -7.3622   -2.1839    2.3971 H   0  0  0  0  0  0  0  0  0  0  0  0
   -5.0697   -1.6563    1.9640 H   0  0  0  0  0  0  0  0  0  0  0  0
   -6.8811   -1.2096   -1.4643 H   0  0  0  0  0  0  0  0  0  0  0  0
   -6.4105   -2.9049   -1.4693 H   0  0  0  0  0  0  0  0  0  0  0  0
   -5.4893   -1.7283   -2.4131 H   0  0  0  0  0  0  0  0  0  0  0  0
   -4.5056   -3.7792   -0.2430 H   0  0  0  0  0  0  0  0  0  0  0  0
   -3.4807   -2.7921   -1.2869 H   0  0  0  0  0  0  0  0  0  0  0  0
   -3.2793   -2.7361    0.4767 H   0  0  0  0  0  0  0  0  0  0  0  0
   -2.3747   -0.9214   -0.5171 H   0  0  0  0  0  0  0  0  0  0  0  0
   -0.6565    2.4025   -0.8618 H   0  0  0  0  0  0  0  0  0  0  0  0
   -0.9327    1.1303   -2.9850 H   0  0  0  0  0  0  0  0  0  0  0  0
   -0.7076   -0.4180   -2.1262 H   0  0  0  0  0  0  0  0  0  0  0  0
    1.1987    0.7276    2.4035 H   0  0  0  0  0  0  0  0  0  0  0  0
    4.6805    0.7735    2.6440 H   0  0  0  0  0  0  0  0  0  0  0  0
    5.6903    1.8292    0.9343 H   0  0  0  0  0  0  0  0  0  0  0  0
    5.7936    1.2337   -0.6954 H   0  0  0  0  0  0  0  0  0  0  0  0
    5.6450   -1.1854    0.1956 H   0  0  0  0  0  0  0  0  0  0  0  0
    8.5418   -1.9981    1.7449 H   0  0  0  0  0  0  0  0  0  0  0  0
    7.3202   -2.1325    3.0330 H   0  0  0  0  0  0  0  0  0  0  0  0
    6.9466   -2.6770    1.3899 H   0  0  0  0  0  0  0  0  0  0  0  0
    7.3436    1.5756    2.1984 H   0  0  0  0  0  0  0  0  0  0  0  0
    7.4805    0.4183    3.5281 H   0  0  0  0  0  0  0  0  0  0  0  0
    8.7527    0.5194    2.2908 H   0  0  0  0  0  0  0  0  0  0  0  0
    3.2806    0.8821   -2.8548 H   0  0  0  0  0  0  0  0  0  0  0  0
   -2.2107    3.7117    0.1422 H   0  0  0  0  0  0  0  0  0  0  0  0
   -5.2623    3.0962   -0.4498 H   0  0  0  0  0  0  0  0  0  0  0  0
   -6.9542    1.7295   -0.1631 H   0  0  0  0  0  0  0  0  0  0  0  0
  1  2  2  0
  2  3  1  0
  3  4  1  0
  3  5  1  0
  3  6  1  0
  6  7  2  0
  7  8  1  0
  8  9  1  0
  9 10  1  0
 10 11  1  0
 11 12  2  0
 11 13  1  0
 13 14  2  0
 14 15  1  0
 15 16  2  0
 16 17  1  0
 16 18  1  0
 18 19  1  0
 19 20  1  0
 20 21  2  3
 21 22  1  0
 21 23  1  0
 18 24  2  0
 24 25  1  0
 14 26  1  0
  8 27  2  0
 27 28  1  0
 27 29  1  0
 29 30  2  0
 30 31  1  0
 30  6  1  0
 26  9  1  0
 24 13  1  0
  1 32  1  0
  1 33  1  0
  2 34  1  0
  4 35  1  0
  4 36  1  0
  4 37  1  0
  5 38  1  0
  5 39  1  0
  5 40  1  0
  7 41  1  0
  9 42  1  6
 10 43  1  0
 10 44  1  0
 15 45  1  0
 17 46  1  0
 19 47  1  0
 19 48  1  0
 20 49  1  0
 22 50  1  0
 22 51  1  0
 22 52  1  0
 23 53  1  0
 23 54  1  0
 23 55  1  0
 25 56  1  0
 28 57  1  0
 29 58  1  0
 31 59  1  0
M  END
$$$$
