
     RDKit          3D

 46 49  0  0  0  0  0  0  0  0999 V2000
    3.0449   -1.1215   -2.4093 O   0  0  0  0  0  0  0  0  0  0  0  0
    3.1437   -0.6303   -1.2864 C   0  0  0  0  0  0  0  0  0  0  0  0
    3.6837   -1.4589   -0.1264 C   0  0  0  0  0  0  0  0  0  0  0  0
    2.3572   -2.5133    0.5417 S   0  0  0  0  0  0  0  0  0  0  0  0
    1.3550   -1.2923    1.2399 C   0  0  0  0  0  0  0  0  0  0  0  0
    1.8020   -0.2116    1.8330 N   0  0  0  0  0  0  0  0  0  0  0  0
    0.7161    0.5390    2.1962 N   0  0  0  0  0  0  0  0  0  0  0  0
   -0.3781   -0.0909    1.8071 C   0  0  0  0  0  0  0  0  0  0  0  0
   -1.7776    0.3963    2.0070 C   0  0  0  0  0  0  0  0  0  0  0  0
   -2.4201   -0.1759    3.2408 C   0  0  0  0  0  0  0  0  0  0  0  0
   -3.3796   -1.1658    3.3322 C   0  0  0  0  0  0  0  0  0  0  0  0
   -3.7391   -1.4517    4.6806 C   0  0  0  0  0  0  0  0  0  0  0  0
   -3.0559   -0.6620    5.5761 C   0  0  0  0  0  0  0  0  0  0  0  0
   -2.0003    0.4288    4.7921 S   0  0  0  0  0  0  0  0  0  0  0  0
   -0.0106   -1.2607    1.1702 N   0  0  0  0  0  0  0  0  0  0  0  0
   -0.8842   -2.2115    0.5166 C   0  0  0  0  0  0  0  0  0  0  0  0
   -1.2379   -1.7426   -0.8474 C   0  0  0  0  0  0  0  0  0  0  0  0
   -0.5467   -1.6497   -2.0397 C   0  0  0  0  0  0  0  0  0  0  0  0
   -1.4452   -1.0949   -2.9831 C   0  0  0  0  0  0  0  0  0  0  0  0
   -2.6316   -0.9052   -2.3164 C   0  0  0  0  0  0  0  0  0  0  0  0
   -2.5188   -1.3029   -1.0224 O   0  0  0  0  0  0  0  0  0  0  0  0
    2.7725    0.6494   -0.9207 N   0  0  0  0  0  0  0  0  0  0  0  0
    2.2498    1.6767   -1.7400 C   0  0  0  0  0  0  0  0  0  0  0  0
    2.0276    1.5257   -3.1149 C   0  0  0  0  0  0  0  0  0  0  0  0
    1.4959    2.5752   -3.8702 C   0  0  0  0  0  0  0  0  0  0  0  0
    1.1862    3.7891   -3.2579 C   0  0  0  0  0  0  0  0  0  0  0  0
    0.5375    5.0746   -4.1961 Cl  0  0  0  0  0  0  0  0  0  0  0  0
    1.4083    3.9677   -1.8953 C   0  0  0  0  0  0  0  0  0  0  0  0
    1.9390    2.9150   -1.1448 C   0  0  0  0  0  0  0  0  0  0  0  0
    2.2334    3.2026    0.5403 Cl  0  0  0  0  0  0  0  0  0  0  0  0
    4.4871   -2.0976   -0.5074 H   0  0  0  0  0  0  0  0  0  0  0  0
    4.1195   -0.8232    0.6522 H   0  0  0  0  0  0  0  0  0  0  0  0
   -1.7740    1.4935    2.0693 H   0  0  0  0  0  0  0  0  0  0  0  0
   -2.3931    0.1599    1.1321 H   0  0  0  0  0  0  0  0  0  0  0  0
   -3.8077   -1.6671    2.4728 H   0  0  0  0  0  0  0  0  0  0  0  0
   -4.4658   -2.1935    4.9769 H   0  0  0  0  0  0  0  0  0  0  0  0
   -3.1298   -0.6599    6.6536 H   0  0  0  0  0  0  0  0  0  0  0  0
   -0.3926   -3.1880    0.4761 H   0  0  0  0  0  0  0  0  0  0  0  0
   -1.7765   -2.3351    1.1389 H   0  0  0  0  0  0  0  0  0  0  0  0
    0.4832   -1.9359   -2.2137 H   0  0  0  0  0  0  0  0  0  0  0  0
   -1.2515   -0.8675   -4.0235 H   0  0  0  0  0  0  0  0  0  0  0  0
   -3.5989   -0.5197   -2.6056 H   0  0  0  0  0  0  0  0  0  0  0  0
    2.7988    0.8743    0.0777 H   0  0  0  0  0  0  0  0  0  0  0  0
    2.2561    0.6027   -3.6339 H   0  0  0  0  0  0  0  0  0  0  0  0
    1.3358    2.4405   -4.9387 H   0  0  0  0  0  0  0  0  0  0  0  0
    1.1821    4.9179   -1.4197 H   0  0  0  0  0  0  0  0  0  0  0  0
  1  2  2  0
  2  3  1  0
  3  4  1  0
  4  5  1  0
  5  6  2  0
  6  7  1  0
  7  8  2  0
  8  9  1  0
  9 10  1  0
 10 11  2  0
 11 12  1  0
 12 13  2  0
 13 14  1  0
  8 15  1  0
 15 16  1  0
 16 17  1  0
 17 18  2  0
 18 19  1  0
 19 20  2  0
 20 21  1  0
  2 22  1  0
 22 23  1  0
 23 24  2  0
 24 25  1  0
 25 26  2  0
 26 27  1  0
 26 28  1  0
 28 29  2  0
 29 30  1  0
 15  5  1  0
 21 17  1  0
 29 23  1  0
 14 10  1  0
  3 31  1  0
  3 32  1  0
  9 33  1  0
  9 34  1  0
 11 35  1  0
 12 36  1  0
 13 37  1  0
 16 38  1  0
 16 39  1  0
 18 40  1  0
 19 41  1  0
 20 42  1  0
 22 43  1  0
 24 44  1  0
 25 45  1  0
 28 46  1  0
M  END
$$$$
