
     RDKit          3D

 33 33  0  0  0  0  0  0  0  0999 V2000
   -4.6064    0.5736    1.0108 C   0  0  0  0  0  0  0  0  0  0  0  0
   -3.2428    0.3927    0.3394 C   0  0  0  0  0  0  0  0  0  0  0  0
   -3.3160   -0.7506   -0.6760 C   0  0  0  0  0  0  0  0  0  0  0  0
   -2.1624    0.1460    1.4107 C   0  0  0  0  0  0  0  0  0  0  0  0
   -0.7523    0.1672    0.8713 C   0  0  0  0  0  0  0  0  0  0  0  0
   -0.0199   -1.0180    0.7444 C   0  0  0  0  0  0  0  0  0  0  0  0
    1.2826   -0.9986    0.2386 C   0  0  0  0  0  0  0  0  0  0  0  0
    1.8837    0.2064   -0.1531 C   0  0  0  0  0  0  0  0  0  0  0  0
    3.3031    0.2546   -0.6973 C   0  0  0  0  0  0  0  0  0  0  0  0
    4.3204   -0.2668    0.3180 C   0  0  0  0  0  0  0  0  0  0  0  0
    3.4729   -0.4944   -2.0083 C   0  0  0  0  0  0  0  0  0  0  0  0
    2.8803   -1.4889   -2.3930 O   0  0  0  0  0  0  0  0  0  0  0  0
    4.4513    0.0362   -2.7760 O   0  0  0  0  0  0  0  0  0  0  0  0
    1.1450    1.3921   -0.0243 C   0  0  0  0  0  0  0  0  0  0  0  0
   -0.1571    1.3726    0.4827 C   0  0  0  0  0  0  0  0  0  0  0  0
   -5.3832    0.7770    0.2660 H   0  0  0  0  0  0  0  0  0  0  0  0
   -4.8976   -0.3233    1.5682 H   0  0  0  0  0  0  0  0  0  0  0  0
   -4.5871    1.4165    1.7097 H   0  0  0  0  0  0  0  0  0  0  0  0
   -3.0142    1.3174   -0.2055 H   0  0  0  0  0  0  0  0  0  0  0  0
   -2.3834   -0.8412   -1.2415 H   0  0  0  0  0  0  0  0  0  0  0  0
   -3.5100   -1.7088   -0.1822 H   0  0  0  0  0  0  0  0  0  0  0  0
   -4.1197   -0.5752   -1.3993 H   0  0  0  0  0  0  0  0  0  0  0  0
   -2.2313    0.9155    2.1915 H   0  0  0  0  0  0  0  0  0  0  0  0
   -2.3527   -0.8077    1.9205 H   0  0  0  0  0  0  0  0  0  0  0  0
   -0.4606   -1.9705    1.0301 H   0  0  0  0  0  0  0  0  0  0  0  0
    1.8179   -1.9411    0.1396 H   0  0  0  0  0  0  0  0  0  0  0  0
    3.5440    1.3062   -0.9054 H   0  0  0  0  0  0  0  0  0  0  0  0
    4.1866   -1.3360    0.5175 H   0  0  0  0  0  0  0  0  0  0  0  0
    5.3424   -0.1349   -0.0545 H   0  0  0  0  0  0  0  0  0  0  0  0
    4.2366    0.2677    1.2706 H   0  0  0  0  0  0  0  0  0  0  0  0
    4.4591   -0.5405   -3.5691 H   0  0  0  0  0  0  0  0  0  0  0  0
    1.5764    2.3473   -0.3160 H   0  0  0  0  0  0  0  0  0  0  0  0
   -0.7057    2.3075    0.5721 H   0  0  0  0  0  0  0  0  0  0  0  0
  1  2  1  0
  2  3  1  0
  2  4  1  0
  4  5  1  0
  5  6  2  0
  6  7  1  0
  7  8  2  0
  8  9  1  0
  9 10  1  0
  9 11  1  0
 11 12  2  0
 11 13  1  0
  8 14  1  0
 14 15  2  0
 15  5  1  0
  1 16  1  0
  1 17  1  0
  1 18  1  0
  2 19  1  0
  3 20  1  0
  3 21  1  0
  3 22  1  0
  4 23  1  0
  4 24  1  0
  6 25  1  0
  7 26  1  0
  9 27  1  0
 10 28  1  0
 10 29  1  0
 10 30  1  0
 13 31  1  0
 14 32  1  0
 15 33  1  0
M  END
$$$$
