
     RDKit          3D

 97 99  0  0  0  0  0  0  0  0999 V2000
   -1.0630   -2.2636   -2.2689 C   0  0  0  0  0  0  0  0  0  0  0  0
   -1.1825   -1.2240   -1.4237 C   0  0  0  0  0  0  0  0  0  0  0  0
   -2.1850   -1.1908   -0.2670 C   0  0  1  0  0  0  0  0  0  0  0  0
   -3.4958   -0.9979   -0.8418 O   0  0  0  0  0  0  0  0  0  0  0  0
   -4.2811   -0.0484   -0.2642 C   0  0  0  0  0  0  0  0  0  0  0  0
   -3.9174    0.7168    0.6163 O   0  0  0  0  0  0  0  0  0  0  0  0
   -5.6750   -0.0896   -0.8631 C   0  0  0  0  0  0  0  0  0  0  0  0
   -6.4895   -1.1707   -0.1663 C   0  0  0  0  0  0  0  0  0  0  0  0
   -6.3530    1.2700   -0.7284 C   0  0  0  0  0  0  0  0  0  0  0  0
   -2.1681   -2.4526    0.6252 C   0  0  0  0  0  0  0  0  0  0  0  0
   -2.9925   -3.4832    0.0501 O   0  0  0  0  0  0  0  0  0  0  0  0
   -2.7960   -4.7183    0.5879 C   0  0  0  0  0  0  0  0  0  0  0  0
   -3.7007   -5.7194   -0.0573 C   0  0  0  0  0  0  0  0  0  0  0  0
   -1.9776   -4.9868    1.4552 O   0  0  0  0  0  0  0  0  0  0  0  0
   -2.6527   -2.0735    2.0391 C   0  0  0  0  0  0  0  0  0  0  0  0
   -3.8266   -2.2908    2.3703 O   0  0  0  0  0  0  0  0  0  0  0  0
   -1.6575   -1.4058    3.0345 C   0  0  0  0  0  0  0  0  0  0  0  0
   -2.1537    0.0203    3.3377 C   0  0  0  0  0  0  0  0  0  0  0  0
   -1.7133   -2.2216    4.3435 C   0  0  0  0  0  0  0  0  0  0  0  0
   -0.2177   -1.4575    2.5396 C   0  0  0  0  0  0  0  0  0  0  0  0
    0.6213   -0.4380    2.2746 C   0  0  0  0  0  0  0  0  0  0  0  0
    2.0545   -0.6732    1.8435 C   0  0  2  0  0  0  0  0  0  0  0  0
    2.9211   -0.8669    3.1009 C   0  0  0  0  0  0  0  0  0  0  0  0
    2.6871    0.3977    0.8966 C   0  0  2  0  0  0  0  0  0  0  0  0
    3.0139    1.5708    1.6977 O   0  0  0  0  0  0  0  0  0  0  0  0
    4.2976    1.9933    1.7294 C   0  0  0  0  0  0  0  0  0  0  0  0
    5.2506    1.4451    1.1980 O   0  0  0  0  0  0  0  0  0  0  0  0
    4.4021    3.2517    2.5167 C   0  0  0  0  0  0  0  0  0  0  0  0
    5.6767    3.7489    2.8176 C   0  0  0  0  0  0  0  0  0  0  0  0
    5.8158    4.9280    3.5501 C   0  0  0  0  0  0  0  0  0  0  0  0
    4.6854    5.6195    3.9815 C   0  0  0  0  0  0  0  0  0  0  0  0
    3.4133    5.1356    3.6818 C   0  0  0  0  0  0  0  0  0  0  0  0
    3.2689    3.9562    2.9495 C   0  0  0  0  0  0  0  0  0  0  0  0
    1.8656    0.9018   -0.3620 C   0  0  1  0  0  0  0  0  0  0  0  0
    0.9383    1.8821    0.1073 O   0  0  0  0  0  0  0  0  0  0  0  0
    2.8275    1.5425   -1.3840 C   0  0  0  0  0  0  0  0  0  0  0  0
    3.3979    0.3437   -2.1377 C   0  0  2  0  0  0  0  0  0  0  0  0
    4.1718    0.7660   -3.3810 C   0  0  0  0  0  0  0  0  0  0  0  0
    2.1645   -0.5554   -2.3667 C   0  0  2  0  0  0  0  0  0  0  0  0
    1.6182   -0.2914   -3.6654 O   0  0  0  0  0  0  0  0  0  0  0  0
    1.8363   -1.2180   -4.6366 C   0  0  0  0  0  0  0  0  0  0  0  0
    1.2217   -0.7586   -5.9196 C   0  0  0  0  0  0  0  0  0  0  0  0
    2.4304   -2.2757   -4.4953 O   0  0  0  0  0  0  0  0  0  0  0  0
    1.1694   -0.2255   -1.2034 C   0  0  2  0  0  0  0  0  0  0  0  0
   -0.3335    0.0452   -1.5523 C   0  0  1  0  0  0  0  0  0  0  0  0
   -0.5978    0.5686   -2.8665 O   0  0  0  0  0  0  0  0  0  0  0  0
   -0.5328    1.9125   -3.0256 C   0  0  0  0  0  0  0  0  0  0  0  0
   -0.9074    2.2986   -4.4234 C   0  0  0  0  0  0  0  0  0  0  0  0
   -0.1881    2.7135   -2.1661 O   0  0  0  0  0  0  0  0  0  0  0  0
   -1.6926   -3.1443   -2.1915 H   0  0  0  0  0  0  0  0  0  0  0  0
   -0.3548   -2.2542   -3.0909 H   0  0  0  0  0  0  0  0  0  0  0  0
   -1.9143   -0.3404    0.3650 H   0  0  0  0  0  0  0  0  0  0  0  0
   -5.5866   -0.3214   -1.9331 H   0  0  0  0  0  0  0  0  0  0  0  0
   -7.4935   -1.2437   -0.5978 H   0  0  0  0  0  0  0  0  0  0  0  0
   -6.5947   -0.9650    0.9052 H   0  0  0  0  0  0  0  0  0  0  0  0
   -6.0066   -2.1488   -0.2609 H   0  0  0  0  0  0  0  0  0  0  0  0
   -6.4813    1.5478    0.3256 H   0  0  0  0  0  0  0  0  0  0  0  0
   -7.3433    1.2616   -1.1981 H   0  0  0  0  0  0  0  0  0  0  0  0
   -5.7560    2.0539   -1.2053 H   0  0  0  0  0  0  0  0  0  0  0  0
   -1.1460   -2.8396    0.6886 H   0  0  0  0  0  0  0  0  0  0  0  0
   -3.4296   -5.8332   -1.1091 H   0  0  0  0  0  0  0  0  0  0  0  0
   -4.7392   -5.4015    0.0394 H   0  0  0  0  0  0  0  0  0  0  0  0
   -3.5837   -6.6858    0.4415 H   0  0  0  0  0  0  0  0  0  0  0  0
   -2.0932    0.6705    2.4593 H   0  0  0  0  0  0  0  0  0  0  0  0
   -3.2006    0.0202    3.6599 H   0  0  0  0  0  0  0  0  0  0  0  0
   -1.5649    0.4884    4.1350 H   0  0  0  0  0  0  0  0  0  0  0  0
   -1.5226   -3.2857    4.1587 H   0  0  0  0  0  0  0  0  0  0  0  0
   -2.6996   -2.1485    4.8160 H   0  0  0  0  0  0  0  0  0  0  0  0
   -0.9741   -1.8705    5.0736 H   0  0  0  0  0  0  0  0  0  0  0  0
    0.1844   -2.4702    2.4495 H   0  0  0  0  0  0  0  0  0  0  0  0
    0.3206    0.5998    2.4145 H   0  0  0  0  0  0  0  0  0  0  0  0
    2.0885   -1.6272    1.2990 H   0  0  0  0  0  0  0  0  0  0  0  0
    3.9666   -1.0530    2.8288 H   0  0  0  0  0  0  0  0  0  0  0  0
    2.8881    0.0060    3.7617 H   0  0  0  0  0  0  0  0  0  0  0  0
    2.5790   -1.7270    3.6879 H   0  0  0  0  0  0  0  0  0  0  0  0
    3.6149   -0.0666    0.5455 H   0  0  0  0  0  0  0  0  0  0  0  0
    6.5649    3.2195    2.4828 H   0  0  0  0  0  0  0  0  0  0  0  0
    6.8081    5.3071    3.7835 H   0  0  0  0  0  0  0  0  0  0  0  0
    4.7946    6.5402    4.5493 H   0  0  0  0  0  0  0  0  0  0  0  0
    2.5314    5.6786    4.0171 H   0  0  0  0  0  0  0  0  0  0  0  0
    2.2670    3.6002    2.7181 H   0  0  0  0  0  0  0  0  0  0  0  0
    0.6655    2.4592   -0.6409 H   0  0  0  0  0  0  0  0  0  0  0  0
    2.2924    2.2144   -2.0663 H   0  0  0  0  0  0  0  0  0  0  0  0
    3.6076    2.1490   -0.9161 H   0  0  0  0  0  0  0  0  0  0  0  0
    4.0962   -0.1938   -1.4842 H   0  0  0  0  0  0  0  0  0  0  0  0
    3.5631    1.3802   -4.0555 H   0  0  0  0  0  0  0  0  0  0  0  0
    5.0504    1.3583   -3.0988 H   0  0  0  0  0  0  0  0  0  0  0  0
    4.5244   -0.1121   -3.9310 H   0  0  0  0  0  0  0  0  0  0  0  0
    2.4605   -1.6117   -2.2789 H   0  0  0  0  0  0  0  0  0  0  0  0
    0.1351   -0.7294   -5.8159 H   0  0  0  0  0  0  0  0  0  0  0  0
    1.6087    0.2286   -6.1874 H   0  0  0  0  0  0  0  0  0  0  0  0
    1.4804   -1.4629   -6.7170 H   0  0  0  0  0  0  0  0  0  0  0  0
    1.1683   -1.1145   -0.5640 H   0  0  0  0  0  0  0  0  0  0  0  0
   -0.7588    0.7564   -0.8393 H   0  0  0  0  0  0  0  0  0  0  0  0
   -1.3741    1.4574   -4.9470 H   0  0  0  0  0  0  0  0  0  0  0  0
   -0.0078    2.6053   -4.9669 H   0  0  0  0  0  0  0  0  0  0  0  0
   -1.6342    3.1172   -4.3879 H   0  0  0  0  0  0  0  0  0  0  0  0
  1  2  2  0
  2  3  1  0
  3  4  1  0
  4  5  1  0
  5  6  2  0
  5  7  1  0
  7  8  1  0
  7  9  1  0
  3 10  1  0
 10 11  1  0
 11 12  1  0
 12 13  1  0
 12 14  2  0
 10 15  1  0
 15 16  2  0
 15 17  1  0
 17 18  1  0
 17 19  1  0
 17 20  1  0
 20 21  2  0
 21 22  1  0
 22 23  1  0
 22 24  1  0
 24 25  1  0
 25 26  1  0
 26 27  2  0
 26 28  1  0
 28 29  2  0
 29 30  1  0
 30 31  2  0
 31 32  1  0
 32 33  2  0
 24 34  1  0
 34 35  1  1
 34 36  1  0
 36 37  1  0
 37 38  1  0
 37 39  1  0
 39 40  1  0
 40 41  1  0
 41 42  1  0
 41 43  2  0
 39 44  1  0
 44 45  1  0
 45 46  1  0
 46 47  1  0
 47 48  1  0
 47 49  2  0
 45  2  1  0
 33 28  1  0
 44 34  1  0
  1 50  1  0
  1 51  1  0
  3 52  1  1
  7 53  1  0
  8 54  1  0
  8 55  1  0
  8 56  1  0
  9 57  1  0
  9 58  1  0
  9 59  1  0
 10 60  1  0
 13 61  1  0
 13 62  1  0
 13 63  1  0
 18 64  1  0
 18 65  1  0
 18 66  1  0
 19 67  1  0
 19 68  1  0
 19 69  1  0
 20 70  1  0
 21 71  1  0
 22 72  1  6
 23 73  1  0
 23 74  1  0
 23 75  1  0
 24 76  1  6
 29 77  1  0
 30 78  1  0
 31 79  1  0
 32 80  1  0
 33 81  1  0
 35 82  1  0
 36 83  1  0
 36 84  1  0
 37 85  1  1
 38 86  1  0
 38 87  1  0
 38 88  1  0
 39 89  1  6
 42 90  1  0
 42 91  1  0
 42 92  1  0
 44 93  1  1
 45 94  1  1
 48 95  1  0
 48 96  1  0
 48 97  1  0
M  END
$$$$
