
     RDKit          3D

 57 60  0  0  0  0  0  0  0  0999 V2000
   -8.0612    0.7900    3.4206 C   0  0  0  0  0  0  0  0  0  0  0  0
   -8.1447    1.2268    1.9663 C   0  0  0  0  0  0  0  0  0  0  0  0
   -6.8490    0.9910    1.2340 C   0  0  0  0  0  0  0  0  0  0  0  0
   -6.6740   -0.1483    0.4434 C   0  0  0  0  0  0  0  0  0  0  0  0
   -5.4632   -0.3716   -0.2221 C   0  0  0  0  0  0  0  0  0  0  0  0
   -4.3861    0.5255   -0.1113 C   0  0  0  0  0  0  0  0  0  0  0  0
   -3.1106    0.2621   -0.8078 C   0  0  0  0  0  0  0  0  0  0  0  0
   -1.8811    0.6162   -0.2819 C   0  0  0  0  0  0  0  0  0  0  0  0
   -0.7319    0.3115   -1.0114 C   0  0  0  0  0  0  0  0  0  0  0  0
    0.5566    0.6481   -0.3633 C   0  0  0  0  0  0  0  0  0  0  0  0
    0.7445    1.8092   -0.0281 O   0  0  0  0  0  0  0  0  0  0  0  0
    1.3816   -0.4409   -0.1567 N   0  0  0  0  0  0  0  0  0  0  0  0
    2.6533   -0.4478    0.4510 C   0  0  0  0  0  0  0  0  0  0  0  0
    3.2980    0.6973    0.9251 C   0  0  0  0  0  0  0  0  0  0  0  0
    4.5594    0.6068    1.5247 C   0  0  0  0  0  0  0  0  0  0  0  0
    5.1896   -0.6332    1.6330 C   0  0  0  0  0  0  0  0  0  0  0  0
    6.7668   -0.7565    2.4357 S   0  0  0  0  0  6  0  0  0  0  0  0
    6.9087   -2.1220    2.9017 O   0  0  0  0  0  0  0  0  0  0  0  0
    6.9334    0.3543    3.3439 O   0  0  0  0  0  0  0  0  0  0  0  0
    7.8505   -0.6210    1.1850 N   0  0  0  0  0  0  0  0  0  0  0  0
    8.0724    0.5307    0.4239 C   0  0  0  0  0  0  0  0  0  0  0  0
    9.1888    0.3967   -0.5726 C   0  0  0  0  0  0  0  0  0  0  0  0
    7.4043    1.5484    0.5254 O   0  0  0  0  0  0  0  0  0  0  0  0
    4.5534   -1.7879    1.1737 C   0  0  0  0  0  0  0  0  0  0  0  0
    3.2908   -1.6901    0.5807 C   0  0  0  0  0  0  0  0  0  0  0  0
   -0.8094   -0.3011   -2.2800 C   0  0  0  0  0  0  0  0  0  0  0  0
    0.2973   -0.5765   -3.1249 C   0  0  0  0  0  0  0  0  0  0  0  0
    0.1218   -1.2018   -4.3578 C   0  0  0  0  0  0  0  0  0  0  0  0
   -1.1559   -1.5524   -4.7681 C   0  0  0  0  0  0  0  0  0  0  0  0
   -2.2492   -1.2630   -3.9488 C   0  0  0  0  0  0  0  0  0  0  0  0
   -2.1023   -0.6375   -2.7179 C   0  0  0  0  0  0  0  0  0  0  0  0
   -3.2076   -0.3799   -1.9992 N   0  0  0  0  0  0  0  0  0  0  0  0
   -4.5810    1.6697    0.6827 C   0  0  0  0  0  0  0  0  0  0  0  0
   -5.7919    1.8988    1.3480 C   0  0  0  0  0  0  0  0  0  0  0  0
   -7.8100   -0.2727    3.5015 H   0  0  0  0  0  0  0  0  0  0  0  0
   -9.0210    0.9519    3.9203 H   0  0  0  0  0  0  0  0  0  0  0  0
   -7.2978    1.3571    3.9633 H   0  0  0  0  0  0  0  0  0  0  0  0
   -8.4077    2.2897    1.9106 H   0  0  0  0  0  0  0  0  0  0  0  0
   -8.9584    0.6866    1.4680 H   0  0  0  0  0  0  0  0  0  0  0  0
   -7.4772   -0.8736    0.3357 H   0  0  0  0  0  0  0  0  0  0  0  0
   -5.3597   -1.2669   -0.8335 H   0  0  0  0  0  0  0  0  0  0  0  0
   -1.7974    1.0964    0.6879 H   0  0  0  0  0  0  0  0  0  0  0  0
    1.0199   -1.3447   -0.4391 H   0  0  0  0  0  0  0  0  0  0  0  0
    2.8460    1.6817    0.8488 H   0  0  0  0  0  0  0  0  0  0  0  0
    5.0421    1.5101    1.8947 H   0  0  0  0  0  0  0  0  0  0  0  0
    8.4032   -1.4605    1.0493 H   0  0  0  0  0  0  0  0  0  0  0  0
    8.9067   -0.3263   -1.3434 H   0  0  0  0  0  0  0  0  0  0  0  0
    9.3819    1.3650   -1.0429 H   0  0  0  0  0  0  0  0  0  0  0  0
   10.0998    0.0625   -0.0690 H   0  0  0  0  0  0  0  0  0  0  0  0
    5.0214   -2.7632    1.2820 H   0  0  0  0  0  0  0  0  0  0  0  0
    2.8103   -2.6009    0.2316 H   0  0  0  0  0  0  0  0  0  0  0  0
    1.3061   -0.2846   -2.8382 H   0  0  0  0  0  0  0  0  0  0  0  0
    0.9774   -1.4041   -4.9977 H   0  0  0  0  0  0  0  0  0  0  0  0
   -1.3117   -2.0383   -5.7282 H   0  0  0  0  0  0  0  0  0  0  0  0
   -3.2501   -1.5264   -4.2853 H   0  0  0  0  0  0  0  0  0  0  0  0
   -3.7938    2.4140    0.7839 H   0  0  0  0  0  0  0  0  0  0  0  0
   -5.9024    2.7960    1.9535 H   0  0  0  0  0  0  0  0  0  0  0  0
  1  2  1  0
  2  3  1  0
  3  4  2  0
  4  5  1  0
  5  6  2  0
  6  7  1  0
  7  8  2  0
  8  9  1  0
  9 10  1  0
 10 11  2  0
 10 12  1  0
 12 13  1  0
 13 14  2  0
 14 15  1  0
 15 16  2  0
 16 17  1  0
 17 18  2  0
 17 19  2  0
 17 20  1  0
 20 21  1  0
 21 22  1  0
 21 23  2  0
 16 24  1  0
 24 25  2  0
  9 26  2  0
 26 27  1  0
 27 28  2  0
 28 29  1  0
 29 30  2  0
 30 31  1  0
 31 32  2  0
  6 33  1  0
 33 34  2  0
 34  3  1  0
 32  7  1  0
 25 13  1  0
 31 26  1  0
  1 35  1  0
  1 36  1  0
  1 37  1  0
  2 38  1  0
  2 39  1  0
  4 40  1  0
  5 41  1  0
  8 42  1  0
 12 43  1  0
 14 44  1  0
 15 45  1  0
 20 46  1  0
 22 47  1  0
 22 48  1  0
 22 49  1  0
 24 50  1  0
 25 51  1  0
 27 52  1  0
 28 53  1  0
 29 54  1  0
 30 55  1  0
 33 56  1  0
 34 57  1  0
M  END
$$$$
