
     RDKit          3D

 59 61  0  0  0  0  0  0  0  0999 V2000
   -4.4632   -2.8571   -2.4462 C   0  0  0  0  0  0  0  0  0  0  0  0
   -3.3937   -1.7836   -2.5621 C   0  0  0  0  0  0  0  0  0  0  0  0
   -3.4179   -1.0073   -1.3668 O   0  0  0  0  0  0  0  0  0  0  0  0
   -2.3993   -0.1053   -1.1797 C   0  0  0  0  0  0  0  0  0  0  0  0
   -1.5531    0.3426   -2.2039 C   0  0  0  0  0  0  0  0  0  0  0  0
   -0.5403    1.2599   -1.9162 C   0  0  0  0  0  0  0  0  0  0  0  0
    0.3019    1.7042   -2.9325 N   0  0  0  0  0  0  0  0  0  0  0  0
    1.3379    2.5798   -2.7488 C   0  0  0  0  0  0  0  0  0  0  0  0
    2.1617    3.0113   -4.1460 S   0  0  0  0  0  0  0  0  0  0  0  0
    1.5723    3.0196   -1.4423 N   0  0  0  0  0  0  0  0  0  0  0  0
    2.6968    3.9241   -1.1240 C   0  0  0  0  0  0  0  0  0  0  0  0
    3.6429    3.4243   -0.0270 C   0  0  0  0  0  0  0  0  0  0  0  0
    4.1107    2.0096   -0.2944 C   0  0  0  0  0  0  0  0  0  0  0  0
    4.4409    1.6201   -1.4105 O   0  0  0  0  0  0  0  0  0  0  0  0
    4.1615    1.2245    0.8339 N   0  0  0  0  0  0  0  0  0  0  0  0
    4.3817   -0.2001    0.7241 C   0  0  0  0  0  0  0  0  0  0  0  0
    3.0631   -0.9347    0.6780 C   0  0  0  0  0  0  0  0  0  0  0  0
    2.4074   -1.1585   -0.5439 C   0  0  0  0  0  0  0  0  0  0  0  0
    1.1936   -1.8529   -0.5819 C   0  0  0  0  0  0  0  0  0  0  0  0
    0.5992   -2.3123    0.5958 C   0  0  0  0  0  0  0  0  0  0  0  0
   -0.5810   -2.9870    0.4161 O   0  0  0  0  0  0  0  0  0  0  0  0
   -1.2381   -3.4502    1.5982 C   0  0  0  0  0  0  0  0  0  0  0  0
    1.2345   -2.0685    1.8181 C   0  0  0  0  0  0  0  0  0  0  0  0
    2.4549   -1.3839    1.8581 C   0  0  0  0  0  0  0  0  0  0  0  0
    0.7175    2.7045   -0.3729 C   0  0  0  0  0  0  0  0  0  0  0  0
    0.8248    3.1813    0.7568 O   0  0  0  0  0  0  0  0  0  0  0  0
   -0.3733    1.7451   -0.6296 C   0  0  0  0  0  0  0  0  0  0  0  0
   -1.2282    1.3286    0.3997 C   0  0  0  0  0  0  0  0  0  0  0  0
   -2.2394    0.3955    0.1326 C   0  0  0  0  0  0  0  0  0  0  0  0
   -3.1174   -0.0866    1.0756 O   0  0  0  0  0  0  0  0  0  0  0  0
   -2.8402    0.1973    2.4386 C   0  0  0  0  0  0  0  0  0  0  0  0
   -3.8361   -0.5698    3.2842 C   0  0  0  0  0  0  0  0  0  0  0  0
   -4.2824   -3.4943   -1.5747 H   0  0  0  0  0  0  0  0  0  0  0  0
   -4.4846   -3.4826   -3.3427 H   0  0  0  0  0  0  0  0  0  0  0  0
   -5.4500   -2.3985   -2.3081 H   0  0  0  0  0  0  0  0  0  0  0  0
   -2.4138   -2.2631   -2.6882 H   0  0  0  0  0  0  0  0  0  0  0  0
   -3.6173   -1.1491   -3.4295 H   0  0  0  0  0  0  0  0  0  0  0  0
   -1.6702   -0.0088   -3.2250 H   0  0  0  0  0  0  0  0  0  0  0  0
    0.1641    1.3755   -3.8829 H   0  0  0  0  0  0  0  0  0  0  0  0
    2.2610    4.8799   -0.8058 H   0  0  0  0  0  0  0  0  0  0  0  0
    3.2965    4.1425   -2.0098 H   0  0  0  0  0  0  0  0  0  0  0  0
    3.1670    3.4923    0.9633 H   0  0  0  0  0  0  0  0  0  0  0  0
    4.5370    4.0705    0.0139 H   0  0  0  0  0  0  0  0  0  0  0  0
    3.6190    1.5274    1.6319 H   0  0  0  0  0  0  0  0  0  0  0  0
    4.9589   -0.5065    1.6040 H   0  0  0  0  0  0  0  0  0  0  0  0
    4.9846   -0.4379   -0.1612 H   0  0  0  0  0  0  0  0  0  0  0  0
    2.8518   -0.8054   -1.4749 H   0  0  0  0  0  0  0  0  0  0  0  0
    0.7018   -2.0455   -1.5379 H   0  0  0  0  0  0  0  0  0  0  0  0
   -2.1694   -3.9430    1.2923 H   0  0  0  0  0  0  0  0  0  0  0  0
   -0.6233   -4.1941    2.1254 H   0  0  0  0  0  0  0  0  0  0  0  0
   -1.5057   -2.6200    2.2690 H   0  0  0  0  0  0  0  0  0  0  0  0
    0.8087   -2.4080    2.7576 H   0  0  0  0  0  0  0  0  0  0  0  0
    2.9347   -1.2215    2.8218 H   0  0  0  0  0  0  0  0  0  0  0  0
   -1.0800    1.7411    1.3951 H   0  0  0  0  0  0  0  0  0  0  0  0
   -1.8289   -0.1212    2.7006 H   0  0  0  0  0  0  0  0  0  0  0  0
   -2.9540    1.2643    2.6329 H   0  0  0  0  0  0  0  0  0  0  0  0
   -3.8309   -1.6290    3.0308 H   0  0  0  0  0  0  0  0  0  0  0  0
   -4.8536   -0.2114    3.1098 H   0  0  0  0  0  0  0  0  0  0  0  0
   -3.6029   -0.4681    4.3440 H   0  0  0  0  0  0  0  0  0  0  0  0
  1  2  1  0
  2  3  1  0
  3  4  1  0
  4  5  2  0
  5  6  1  0
  6  7  1  0
  7  8  1  0
  8  9  2  0
  8 10  1  0
 10 11  1  0
 11 12  1  0
 12 13  1  0
 13 14  2  0
 13 15  1  0
 15 16  1  0
 16 17  1  0
 17 18  2  0
 18 19  1  0
 19 20  2  0
 20 21  1  0
 21 22  1  0
 20 23  1  0
 23 24  2  0
 10 25  1  0
 25 26  2  0
 25 27  1  0
 27 28  1  0
 28 29  2  0
 29 30  1  0
 30 31  1  0
 31 32  1  0
 29  4  1  0
 27  6  2  0
 24 17  1  0
  1 33  1  0
  1 34  1  0
  1 35  1  0
  2 36  1  0
  2 37  1  0
  5 38  1  0
  7 39  1  0
 11 40  1  0
 11 41  1  0
 12 42  1  0
 12 43  1  0
 15 44  1  0
 16 45  1  0
 16 46  1  0
 18 47  1  0
 19 48  1  0
 22 49  1  0
 22 50  1  0
 22 51  1  0
 23 52  1  0
 24 53  1  0
 28 54  1  0
 31 55  1  0
 31 56  1  0
 32 57  1  0
 32 58  1  0
 32 59  1  0
M  END
$$$$
