
     RDKit          3D

 46 49  0  0  0  0  0  0  0  0999 V2000
   -6.2528    2.6036    2.0086 C   0  0  0  0  0  0  0  0  0  0  0  0
   -5.9644    2.1030    0.7121 O   0  0  0  0  0  0  0  0  0  0  0  0
   -4.7878    1.4225    0.5595 C   0  0  0  0  0  0  0  0  0  0  0  0
   -4.4584    1.1147   -0.7622 C   0  0  0  0  0  0  0  0  0  0  0  0
   -3.2892    0.4169   -1.0683 C   0  0  0  0  0  0  0  0  0  0  0  0
   -2.4320    0.0149   -0.0385 C   0  0  0  0  0  0  0  0  0  0  0  0
   -1.2453   -0.7177   -0.3249 N   0  0  0  0  0  0  0  0  0  0  0  0
   -0.3043   -0.4999   -1.3279 C   0  0  0  0  0  0  0  0  0  0  0  0
   -0.3264    0.8664   -2.4054 S   0  0  0  0  0  0  0  0  0  0  0  0
    1.2477    0.6778   -3.2758 C   0  0  0  0  0  0  0  0  0  0  0  0
    2.3619    1.3507   -2.4947 C   0  0  0  0  0  0  0  0  0  0  0  0
    2.6236    2.5360   -2.6844 O   0  0  0  0  0  0  0  0  0  0  0  0
    3.0053    0.5000   -1.6181 N   0  0  0  0  0  0  0  0  0  0  0  0
    4.1270    0.8395   -0.8384 C   0  0  0  0  0  0  0  0  0  0  0  0
    4.6412    2.0855   -0.9119 N   0  0  0  0  0  0  0  0  0  0  0  0
    5.7304    2.3802   -0.1633 C   0  0  0  0  0  0  0  0  0  0  0  0
    6.3523    1.4720    0.6736 C   0  0  0  0  0  0  0  0  0  0  0  0
    7.7305    1.9150    1.5969 Cl  0  0  0  0  0  0  0  0  0  0  0  0
    5.8331    0.1894    0.7491 C   0  0  0  0  0  0  0  0  0  0  0  0
    4.7069   -0.1320   -0.0141 C   0  0  0  0  0  0  0  0  0  0  0  0
    4.1039   -1.7438    0.0747 Cl  0  0  0  0  0  0  0  0  0  0  0  0
    0.6754   -1.3783   -1.3081 N   0  0  0  0  0  0  0  0  0  0  0  0
    0.3449   -2.2525   -0.3072 C   0  0  0  0  0  0  0  0  0  0  0  0
    0.9996   -3.4298    0.0825 C   0  0  0  0  0  0  0  0  0  0  0  0
    0.4842   -4.1819    1.1426 C   0  0  0  0  0  0  0  0  0  0  0  0
   -0.6745   -3.7781    1.7967 C   0  0  0  0  0  0  0  0  0  0  0  0
   -1.3546   -2.6177    1.4100 C   0  0  0  0  0  0  0  0  0  0  0  0
   -0.8141   -1.8571    0.3572 C   0  0  0  0  0  0  0  0  0  0  0  0
   -2.7618    0.3141    1.2896 C   0  0  0  0  0  0  0  0  0  0  0  0
   -3.9351    1.0191    1.5857 C   0  0  0  0  0  0  0  0  0  0  0  0
   -5.4668    3.2841    2.3529 H   0  0  0  0  0  0  0  0  0  0  0  0
   -7.1840    3.1748    1.9435 H   0  0  0  0  0  0  0  0  0  0  0  0
   -6.4111    1.7858    2.7215 H   0  0  0  0  0  0  0  0  0  0  0  0
   -5.1250    1.4270   -1.5619 H   0  0  0  0  0  0  0  0  0  0  0  0
   -3.1003    0.1697   -2.1097 H   0  0  0  0  0  0  0  0  0  0  0  0
    1.4860   -0.3704   -3.4878 H   0  0  0  0  0  0  0  0  0  0  0  0
    1.1677    1.1817   -4.2455 H   0  0  0  0  0  0  0  0  0  0  0  0
    2.6104   -0.4290   -1.4801 H   0  0  0  0  0  0  0  0  0  0  0  0
    6.0934    3.3979   -0.2652 H   0  0  0  0  0  0  0  0  0  0  0  0
    6.2976   -0.5541    1.3872 H   0  0  0  0  0  0  0  0  0  0  0  0
    1.8864   -3.7583   -0.4445 H   0  0  0  0  0  0  0  0  0  0  0  0
    0.9865   -5.0945    1.4479 H   0  0  0  0  0  0  0  0  0  0  0  0
   -1.0717   -4.3847    2.6091 H   0  0  0  0  0  0  0  0  0  0  0  0
   -2.2845   -2.3471    1.8992 H   0  0  0  0  0  0  0  0  0  0  0  0
   -2.1003    0.0472    2.1111 H   0  0  0  0  0  0  0  0  0  0  0  0
   -4.1516    1.2372    2.6265 H   0  0  0  0  0  0  0  0  0  0  0  0
  1  2  1  0
  2  3  1  0
  3  4  2  0
  4  5  1  0
  5  6  2  0
  6  7  1  0
  7  8  1  0
  8  9  1  0
  9 10  1  0
 10 11  1  0
 11 12  2  0
 11 13  1  0
 13 14  1  0
 14 15  2  0
 15 16  1  0
 16 17  2  0
 17 18  1  0
 17 19  1  0
 19 20  2  0
 20 21  1  0
  8 22  2  0
 22 23  1  0
 23 24  2  0
 24 25  1  0
 25 26  2  0
 26 27  1  0
 27 28  2  0
  6 29  1  0
 29 30  2  0
 30  3  1  0
 28  7  1  0
 20 14  1  0
 28 23  1  0
  1 31  1  0
  1 32  1  0
  1 33  1  0
  4 34  1  0
  5 35  1  0
 10 36  1  0
 10 37  1  0
 13 38  1  0
 16 39  1  0
 19 40  1  0
 24 41  1  0
 25 42  1  0
 26 43  1  0
 27 44  1  0
 29 45  1  0
 30 46  1  0
M  END
$$$$
