
     RDKit          3D

 35 36  0  0  0  0  0  0  0  0999 V2000
    6.2393   -0.6915   -0.4737 C   0  0  0  0  0  0  0  0  0  0  0  0
    5.1199   -0.2527    0.4221 C   0  0  0  0  0  0  0  0  0  0  0  0
    5.3951    0.2246    1.6973 C   0  0  0  0  0  0  0  0  0  0  0  0
    4.3330    0.6223    2.4994 C   0  0  0  0  0  0  0  0  0  0  0  0
    3.0325    0.5331    2.0094 C   0  0  0  0  0  0  0  0  0  0  0  0
    2.8379    0.0464    0.7266 C   0  0  0  0  0  0  0  0  0  0  0  0
    1.5931   -0.0948    0.1147 N   0  0  0  0  0  0  0  0  0  0  0  0
    0.3455    0.2036    0.6258 C   0  0  0  0  0  0  0  0  0  0  0  0
    0.1229    0.6585    1.7433 O   0  0  0  0  0  0  0  0  0  0  0  0
   -0.7669   -0.1043   -0.3852 C   0  0  0  0  0  0  0  0  0  0  0  0
   -2.0465    0.2034    0.1434 O   0  0  0  0  0  0  0  0  0  0  0  0
   -3.1376   -0.0223   -0.6534 C   0  0  0  0  0  0  0  0  0  0  0  0
   -3.0894   -0.5350   -1.9538 C   0  0  0  0  0  0  0  0  0  0  0  0
   -4.2666   -0.7271   -2.6819 C   0  0  0  0  0  0  0  0  0  0  0  0
   -5.4982   -0.4091   -2.1176 C   0  0  0  0  0  0  0  0  0  0  0  0
   -5.5566    0.1023   -0.8227 C   0  0  0  0  0  0  0  0  0  0  0  0
   -4.3820    0.2998   -0.0812 C   0  0  0  0  0  0  0  0  0  0  0  0
   -4.4647    0.8529    1.3155 C   0  0  0  0  0  0  0  0  0  0  0  0
    3.8594   -0.3448   -0.0673 N   0  0  0  0  0  0  0  0  0  0  0  0
    6.9233    0.1422   -0.6603 H   0  0  0  0  0  0  0  0  0  0  0  0
    6.7926   -1.5151   -0.0118 H   0  0  0  0  0  0  0  0  0  0  0  0
    5.8536   -1.0384   -1.4378 H   0  0  0  0  0  0  0  0  0  0  0  0
    6.4145    0.2876    2.0637 H   0  0  0  0  0  0  0  0  0  0  0  0
    4.5114    1.0006    3.5021 H   0  0  0  0  0  0  0  0  0  0  0  0
    2.2109    0.8455    2.6422 H   0  0  0  0  0  0  0  0  0  0  0  0
    1.6798   -0.4677   -0.8207 H   0  0  0  0  0  0  0  0  0  0  0  0
   -0.5731    0.5028   -1.2779 H   0  0  0  0  0  0  0  0  0  0  0  0
   -0.7053   -1.1736   -0.6219 H   0  0  0  0  0  0  0  0  0  0  0  0
   -2.1536   -0.7969   -2.4345 H   0  0  0  0  0  0  0  0  0  0  0  0
   -4.2210   -1.1260   -3.6921 H   0  0  0  0  0  0  0  0  0  0  0  0
   -6.4133   -0.5588   -2.6845 H   0  0  0  0  0  0  0  0  0  0  0  0
   -6.5251    0.3470   -0.3926 H   0  0  0  0  0  0  0  0  0  0  0  0
   -5.5013    1.0495    1.6090 H   0  0  0  0  0  0  0  0  0  0  0  0
   -4.0473    0.1378    2.0318 H   0  0  0  0  0  0  0  0  0  0  0  0
   -3.9163    1.7981    1.3821 H   0  0  0  0  0  0  0  0  0  0  0  0
  1  2  1  0
  2  3  2  0
  3  4  1  0
  4  5  2  0
  5  6  1  0
  6  7  1  0
  7  8  1  0
  8  9  2  0
  8 10  1  0
 10 11  1  0
 11 12  1  0
 12 13  2  0
 13 14  1  0
 14 15  2  0
 15 16  1  0
 16 17  2  0
 17 18  1  0
  6 19  2  0
 19  2  1  0
 17 12  1  0
  1 20  1  0
  1 21  1  0
  1 22  1  0
  3 23  1  0
  4 24  1  0
  5 25  1  0
  7 26  1  0
 10 27  1  0
 10 28  1  0
 13 29  1  0
 14 30  1  0
 15 31  1  0
 16 32  1  0
 18 33  1  0
 18 34  1  0
 18 35  1  0
M  END
$$$$
