
     RDKit          3D

 58 61  0  0  0  0  0  0  0  0999 V2000
   -5.0294    5.7054   -0.5220 C   0  0  0  0  0  0  0  0  0  0  0  0
   -3.9340    4.8005   -0.4640 O   0  0  0  0  0  0  0  0  0  0  0  0
   -4.0930    3.6825    0.3087 C   0  0  0  0  0  0  0  0  0  0  0  0
   -5.2211    3.3549    1.0486 C   0  0  0  0  0  0  0  0  0  0  0  0
   -5.2625    2.1765    1.8030 C   0  0  0  0  0  0  0  0  0  0  0  0
   -4.1450    1.3199    1.8045 C   0  0  0  0  0  0  0  0  0  0  0  0
   -3.9845   -0.1645    2.6548 S   0  0  0  0  0  0  0  0  0  0  0  0
   -2.4051   -0.4341    2.0594 C   0  0  0  0  0  0  0  0  0  0  0  0
   -1.7047   -1.6612    2.4631 C   0  0  0  0  0  0  0  0  0  0  0  0
   -1.1163   -1.7177    3.7379 C   0  0  0  0  0  0  0  0  0  0  0  0
   -0.4225   -2.8543    4.1489 C   0  0  0  0  0  0  0  0  0  0  0  0
   -0.3107   -3.9436    3.2903 C   0  0  0  0  0  0  0  0  0  0  0  0
   -0.8906   -3.9011    2.0190 C   0  0  0  0  0  0  0  0  0  0  0  0
   -1.5873   -2.7641    1.5919 C   0  0  0  0  0  0  0  0  0  0  0  0
   -2.1949   -2.6448    0.3665 O   0  0  0  0  0  0  0  0  0  0  0  0
   -1.9447   -3.6644   -0.5899 C   0  0  0  0  0  0  0  0  0  0  0  0
   -1.9891    0.5937    1.2293 C   0  0  0  0  0  0  0  0  0  0  0  0
   -0.6744    0.5814    0.6005 C   0  0  0  0  0  0  0  0  0  0  0  0
   -0.5490    0.2396   -0.7497 C   0  0  0  0  0  0  0  0  0  0  0  0
    0.7094    0.2245   -1.3615 C   0  0  0  0  0  0  0  0  0  0  0  0
    1.8492    0.5531   -0.6265 C   0  0  0  0  0  0  0  0  0  0  0  0
    3.1321    0.5786   -1.0980 O   0  0  0  0  0  0  0  0  0  0  0  0
    3.3439    0.1380   -2.4400 C   0  0  0  0  0  0  0  0  0  0  0  0
    4.8491    0.1919   -2.7706 C   0  0  0  0  0  0  0  0  0  0  0  0
    5.7124   -0.7094   -1.9774 N   0  0  0  0  0  0  0  0  0  0  0  0
    7.1221   -0.4354   -2.2627 C   0  0  0  0  0  0  0  0  0  0  0  0
    5.4167   -2.1209   -2.2177 C   0  0  0  0  0  0  0  0  0  0  0  0
    1.7184    0.9032    0.7202 C   0  0  0  0  0  0  0  0  0  0  0  0
    0.4645    0.9190    1.3352 C   0  0  0  0  0  0  0  0  0  0  0  0
   -2.9961    1.6179    1.0708 C   0  0  0  0  0  0  0  0  0  0  0  0
   -2.9879    2.8230    0.3205 C   0  0  0  0  0  0  0  0  0  0  0  0
   -5.9144    5.2267   -0.9542 H   0  0  0  0  0  0  0  0  0  0  0  0
   -4.7450    6.5332   -1.1788 H   0  0  0  0  0  0  0  0  0  0  0  0
   -5.2484    6.1242    0.4659 H   0  0  0  0  0  0  0  0  0  0  0  0
   -6.0977    3.9944    1.0671 H   0  0  0  0  0  0  0  0  0  0  0  0
   -6.1486    1.9266    2.3802 H   0  0  0  0  0  0  0  0  0  0  0  0
   -1.1944   -0.8685    4.4131 H   0  0  0  0  0  0  0  0  0  0  0  0
    0.0305   -2.8878    5.1361 H   0  0  0  0  0  0  0  0  0  0  0  0
    0.2295   -4.8316    3.6093 H   0  0  0  0  0  0  0  0  0  0  0  0
   -0.7836   -4.7761    1.3869 H   0  0  0  0  0  0  0  0  0  0  0  0
   -0.8727   -3.7726   -0.7868 H   0  0  0  0  0  0  0  0  0  0  0  0
   -2.3888   -4.6145   -0.2758 H   0  0  0  0  0  0  0  0  0  0  0  0
   -2.4251   -3.3676   -1.5271 H   0  0  0  0  0  0  0  0  0  0  0  0
   -1.4308   -0.0270   -1.3281 H   0  0  0  0  0  0  0  0  0  0  0  0
    0.7612   -0.0474   -2.4097 H   0  0  0  0  0  0  0  0  0  0  0  0
    2.8261    0.8188   -3.1277 H   0  0  0  0  0  0  0  0  0  0  0  0
    2.9534   -0.8753   -2.5853 H   0  0  0  0  0  0  0  0  0  0  0  0
    4.9818   -0.0074   -3.8422 H   0  0  0  0  0  0  0  0  0  0  0  0
    5.1770    1.2238   -2.5870 H   0  0  0  0  0  0  0  0  0  0  0  0
    7.3702    0.6046   -2.0221 H   0  0  0  0  0  0  0  0  0  0  0  0
    7.3732   -0.6171   -3.3142 H   0  0  0  0  0  0  0  0  0  0  0  0
    7.7712   -1.0616   -1.6397 H   0  0  0  0  0  0  0  0  0  0  0  0
    4.4081   -2.3784   -1.8801 H   0  0  0  0  0  0  0  0  0  0  0  0
    5.5109   -2.3883   -3.2759 H   0  0  0  0  0  0  0  0  0  0  0  0
    6.0963   -2.7594   -1.6421 H   0  0  0  0  0  0  0  0  0  0  0  0
    2.6039    1.1615    1.2959 H   0  0  0  0  0  0  0  0  0  0  0  0
    0.3859    1.1922    2.3840 H   0  0  0  0  0  0  0  0  0  0  0  0
   -2.1049    3.0865   -0.2579 H   0  0  0  0  0  0  0  0  0  0  0  0
  1  2  1  0
  2  3  1  0
  3  4  2  0
  4  5  1  0
  5  6  2  0
  6  7  1  0
  7  8  1  0
  8  9  1  0
  9 10  2  0
 10 11  1  0
 11 12  2  0
 12 13  1  0
 13 14  2  0
 14 15  1  0
 15 16  1  0
  8 17  2  0
 17 18  1  0
 18 19  2  0
 19 20  1  0
 20 21  2  0
 21 22  1  0
 22 23  1  0
 23 24  1  0
 24 25  1  0
 25 26  1  0
 25 27  1  0
 21 28  1  0
 28 29  2  0
 17 30  1  0
 30 31  2  0
 31  3  1  0
 30  6  1  0
 14  9  1  0
 29 18  1  0
  1 32  1  0
  1 33  1  0
  1 34  1  0
  4 35  1  0
  5 36  1  0
 10 37  1  0
 11 38  1  0
 12 39  1  0
 13 40  1  0
 16 41  1  0
 16 42  1  0
 16 43  1  0
 19 44  1  0
 20 45  1  0
 23 46  1  0
 23 47  1  0
 24 48  1  0
 24 49  1  0
 26 50  1  0
 26 51  1  0
 26 52  1  0
 27 53  1  0
 27 54  1  0
 27 55  1  0
 28 56  1  0
 29 57  1  0
 31 58  1  0
M  END
$$$$
