
     RDKit          3D

 51 55  0  0  0  0  0  0  0  0999 V2000
    1.2419   -0.8010    0.5118 O   0  0  0  0  0  0  0  0  0  0  0  0
    1.4515    0.3315    0.0896 C   0  0  0  0  0  0  0  0  0  0  0  0
    0.3699    1.4099   -0.0796 C   0  0  0  0  0  0  0  0  0  0  0  0
   -0.9150    1.0827    0.5524 N   0  0  0  0  0  0  0  0  0  0  0  0
   -1.9731    0.7539   -0.2896 C   0  0  0  0  0  0  0  0  0  0  0  0
   -1.8538    0.6241   -1.5120 O   0  0  0  0  0  0  0  0  0  0  0  0
   -3.3414    0.6652    0.3400 C   0  0  0  0  0  0  0  0  0  0  0  0
   -3.6528   -0.7460    0.7986 C   0  0  0  0  0  0  0  0  0  0  0  0
   -4.9795   -0.7692    1.5001 C   0  0  0  0  0  0  0  0  0  0  0  0
   -5.3921   -0.7600    2.8227 C   0  0  0  0  0  0  0  0  0  0  0  0
   -6.8092   -0.7490    2.8056 C   0  0  0  0  0  0  0  0  0  0  0  0
   -7.1776   -0.7443    1.4783 C   0  0  0  0  0  0  0  0  0  0  0  0
   -6.0804   -0.7565    0.6777 O   0  0  0  0  0  0  0  0  0  0  0  0
   -2.3371   -1.5349    1.8050 S   0  0  0  0  0  0  0  0  0  0  0  0
   -1.6128   -0.1192    2.6350 C   0  0  0  0  0  0  0  0  0  0  0  0
   -1.5785   -0.2012    4.0382 C   0  0  0  0  0  0  0  0  0  0  0  0
   -0.9226    0.7674    4.7988 C   0  0  0  0  0  0  0  0  0  0  0  0
   -0.2760    1.8200    4.1655 C   0  0  0  0  0  0  0  0  0  0  0  0
   -0.2876    1.9057    2.7710 C   0  0  0  0  0  0  0  0  0  0  0  0
   -0.9570    0.9493    1.9822 C   0  0  0  0  0  0  0  0  0  0  0  0
    2.7072    0.7689   -0.3024 N   0  0  0  0  0  0  0  0  0  0  0  0
    3.8296   -0.1414   -0.3649 C   0  0  0  0  0  0  0  0  0  0  0  0
    4.0137   -0.6534   -1.7717 C   0  0  0  0  0  0  0  0  0  0  0  0
    3.3408   -1.8261   -2.1951 C   0  0  0  0  0  0  0  0  0  0  0  0
    3.4654   -2.2976   -3.5069 C   0  0  0  0  0  0  0  0  0  0  0  0
    4.2556   -1.5751   -4.3734 C   0  0  0  0  0  0  0  0  0  0  0  0
    4.9053   -0.4277   -3.9756 C   0  0  0  0  0  0  0  0  0  0  0  0
    4.8060    0.0593   -2.6885 C   0  0  0  0  0  0  0  0  0  0  0  0
    5.6193    0.1398   -4.9852 O   0  0  0  0  0  0  0  0  0  0  0  0
    5.3646   -0.7979   -6.0560 C   0  0  0  0  0  0  0  0  0  0  0  0
    4.4880   -1.8803   -5.6789 O   0  0  0  0  0  0  0  0  0  0  0  0
    0.2365    1.5347   -1.1583 H   0  0  0  0  0  0  0  0  0  0  0  0
    0.7384    2.3668    0.3042 H   0  0  0  0  0  0  0  0  0  0  0  0
   -4.0740    0.9841   -0.4154 H   0  0  0  0  0  0  0  0  0  0  0  0
   -3.4432    1.4065    1.1424 H   0  0  0  0  0  0  0  0  0  0  0  0
   -3.7349   -1.3962   -0.0862 H   0  0  0  0  0  0  0  0  0  0  0  0
   -4.7499   -0.7591    3.6969 H   0  0  0  0  0  0  0  0  0  0  0  0
   -7.4775   -0.7433    3.6560 H   0  0  0  0  0  0  0  0  0  0  0  0
   -8.1308   -0.7338    0.9604 H   0  0  0  0  0  0  0  0  0  0  0  0
   -2.0418   -1.0435    4.5505 H   0  0  0  0  0  0  0  0  0  0  0  0
   -0.8983    0.6800    5.8813 H   0  0  0  0  0  0  0  0  0  0  0  0
    0.2452    2.5722    4.7537 H   0  0  0  0  0  0  0  0  0  0  0  0
    0.2135    2.7592    2.3225 H   0  0  0  0  0  0  0  0  0  0  0  0
    2.7624    1.5953   -0.8812 H   0  0  0  0  0  0  0  0  0  0  0  0
    4.7182    0.4161   -0.0482 H   0  0  0  0  0  0  0  0  0  0  0  0
    3.7027   -0.9736    0.3373 H   0  0  0  0  0  0  0  0  0  0  0  0
    2.7054   -2.3689   -1.4925 H   0  0  0  0  0  0  0  0  0  0  0  0
    2.9560   -3.1992   -3.8280 H   0  0  0  0  0  0  0  0  0  0  0  0
    5.3268    0.9685   -2.4038 H   0  0  0  0  0  0  0  0  0  0  0  0
    4.9126   -0.2567   -6.8976 H   0  0  0  0  0  0  0  0  0  0  0  0
    6.3205   -1.2218   -6.3868 H   0  0  0  0  0  0  0  0  0  0  0  0
  1  2  2  0
  2  3  1  0
  3  4  1  0
  4  5  1  0
  5  6  2  0
  5  7  1  0
  7  8  1  0
  8  9  1  0
  9 10  2  0
 10 11  1  0
 11 12  2  0
 12 13  1  0
  8 14  1  0
 14 15  1  0
 15 16  2  0
 16 17  1  0
 17 18  2  0
 18 19  1  0
 19 20  2  0
  2 21  1  0
 21 22  1  0
 22 23  1  0
 23 24  2  0
 24 25  1  0
 25 26  2  0
 26 27  1  0
 27 28  2  0
 27 29  1  0
 29 30  1  0
 30 31  1  0
 20  4  1  0
 28 23  1  0
 13  9  1  0
 20 15  1  0
 31 26  1  0
  3 32  1  0
  3 33  1  0
  7 34  1  0
  7 35  1  0
  8 36  1  0
 10 37  1  0
 11 38  1  0
 12 39  1  0
 16 40  1  0
 17 41  1  0
 18 42  1  0
 19 43  1  0
 21 44  1  0
 22 45  1  0
 22 46  1  0
 24 47  1  0
 25 48  1  0
 28 49  1  0
 30 50  1  0
 30 51  1  0
M  END
$$$$
