
     RDKit          3D

 40 41  0  0  0  0  0  0  0  0999 V2000
    6.4550   -0.4719   -5.1061 C   0  0  0  0  0  0  0  0  0  0  0  0
    5.7009    0.2107   -3.9766 C   0  0  0  0  0  0  0  0  0  0  0  0
    4.2857   -0.3434   -3.8331 C   0  0  0  0  0  0  0  0  0  0  0  0
    3.5091    0.3254   -2.7075 C   0  0  0  0  0  0  0  0  0  0  0  0
    3.9971    1.2058   -2.0097 O   0  0  0  0  0  0  0  0  0  0  0  0
    2.2280   -0.1956   -2.6023 N   0  0  0  0  0  0  0  0  0  0  0  0
    1.2222    0.1744   -1.6864 C   0  0  0  0  0  0  0  0  0  0  0  0
    1.3707    1.1716   -0.7217 C   0  0  0  0  0  0  0  0  0  0  0  0
    0.3196    1.4786    0.1517 C   0  0  0  0  0  0  0  0  0  0  0  0
   -0.8921    0.7844    0.0775 C   0  0  0  0  0  0  0  0  0  0  0  0
   -1.9774    1.1480    1.0298 C   0  0  0  0  0  0  0  0  0  0  0  0
   -1.9913    2.2432    1.5862 O   0  0  0  0  0  0  0  0  0  0  0  0
   -2.9358    0.1805    1.2717 N   0  0  0  0  0  0  0  0  0  0  0  0
   -3.8184    0.4207    2.3420 N   0  0  0  0  0  0  0  0  0  0  0  0
   -4.1274   -0.6394    3.1794 C   0  0  0  0  0  0  0  0  0  0  0  0
   -3.8316   -1.7935    2.8588 O   0  0  0  0  0  0  0  0  0  0  0  0
   -4.7936   -0.3035    4.4293 C   0  0  0  0  0  0  0  0  0  0  0  0
   -5.1946   -1.1889    5.4144 C   0  0  0  0  0  0  0  0  0  0  0  0
   -5.8184   -0.5390    6.5182 C   0  0  0  0  0  0  0  0  0  0  0  0
   -5.8755    0.8249    6.3441 C   0  0  0  0  0  0  0  0  0  0  0  0
   -5.1813    1.3108    4.8597 S   0  0  0  0  0  0  0  0  0  0  0  0
   -1.0525   -0.2065   -0.8965 C   0  0  0  0  0  0  0  0  0  0  0  0
    0.0009   -0.5082   -1.7686 C   0  0  0  0  0  0  0  0  0  0  0  0
    7.4654   -0.0597   -5.1907 H   0  0  0  0  0  0  0  0  0  0  0  0
    6.5412   -1.5482   -4.9260 H   0  0  0  0  0  0  0  0  0  0  0  0
    5.9461   -0.3230   -6.0638 H   0  0  0  0  0  0  0  0  0  0  0  0
    6.2529    0.0742   -3.0390 H   0  0  0  0  0  0  0  0  0  0  0  0
    5.6624    1.2898   -4.1678 H   0  0  0  0  0  0  0  0  0  0  0  0
    4.3281   -1.4197   -3.6276 H   0  0  0  0  0  0  0  0  0  0  0  0
    3.7322   -0.1932   -4.7677 H   0  0  0  0  0  0  0  0  0  0  0  0
    1.9860   -0.9297   -3.2559 H   0  0  0  0  0  0  0  0  0  0  0  0
    2.2917    1.7377   -0.6195 H   0  0  0  0  0  0  0  0  0  0  0  0
    0.4582    2.2642    0.8930 H   0  0  0  0  0  0  0  0  0  0  0  0
   -2.7460   -0.8047    1.0905 H   0  0  0  0  0  0  0  0  0  0  0  0
   -3.8343    1.3762    2.6994 H   0  0  0  0  0  0  0  0  0  0  0  0
   -5.0424   -2.2601    5.3392 H   0  0  0  0  0  0  0  0  0  0  0  0
   -6.2041   -1.0466    7.3942 H   0  0  0  0  0  0  0  0  0  0  0  0
   -6.2916    1.5619    7.0178 H   0  0  0  0  0  0  0  0  0  0  0  0
   -1.9922   -0.7391   -1.0131 H   0  0  0  0  0  0  0  0  0  0  0  0
   -0.1531   -1.2818   -2.5173 H   0  0  0  0  0  0  0  0  0  0  0  0
  1  2  1  0
  2  3  1  0
  3  4  1  0
  4  5  2  0
  4  6  1  0
  6  7  1  0
  7  8  2  0
  8  9  1  0
  9 10  2  0
 10 11  1  0
 11 12  2  0
 11 13  1  0
 13 14  1  0
 14 15  1  0
 15 16  2  0
 15 17  1  0
 17 18  2  0
 18 19  1  0
 19 20  2  0
 20 21  1  0
 10 22  1  0
 22 23  2  0
 23  7  1  0
 21 17  1  0
  1 24  1  0
  1 25  1  0
  1 26  1  0
  2 27  1  0
  2 28  1  0
  3 29  1  0
  3 30  1  0
  6 31  1  0
  8 32  1  0
  9 33  1  0
 13 34  1  0
 14 35  1  0
 18 36  1  0
 19 37  1  0
 20 38  1  0
 22 39  1  0
 23 40  1  0
M  END
$$$$
