
     RDKit          3D

 59 64  0  0  0  0  0  0  0  0999 V2000
   -6.4494   -1.0457    2.2792 C   0  0  0  0  0  0  0  0  0  0  0  0
   -5.3882   -0.6946    1.4042 O   0  0  0  0  0  0  0  0  0  0  0  0
   -5.7013   -0.0567    0.2244 C   0  0  0  0  0  0  0  0  0  0  0  0
   -7.0267    0.1822   -0.1792 C   0  0  0  0  0  0  0  0  0  0  0  0
   -7.3038    0.7774   -1.4079 C   0  0  0  0  0  0  0  0  0  0  0  0
   -6.2606    1.1325   -2.2474 C   0  0  0  0  0  0  0  0  0  0  0  0
   -4.9397    0.9010   -1.8535 C   0  0  0  0  0  0  0  0  0  0  0  0
   -4.6128    0.3182   -0.6126 C   0  0  0  0  0  0  0  0  0  0  0  0
   -3.2773    0.1181   -0.2609 N   0  0  0  0  0  0  0  0  0  0  0  0
   -2.1998    0.1091   -1.2653 C   0  0  0  0  0  0  0  0  0  0  0  0
   -0.9094   -0.5236   -0.6956 C   0  0  0  0  0  0  0  0  0  0  0  0
   -0.4191    0.1684    0.5335 N   0  0  0  0  0  0  0  0  0  0  0  0
    0.8696    0.6405    0.5052 C   0  0  0  0  0  0  0  0  0  0  0  0
    1.3244    1.9463    0.5593 C   0  0  0  0  0  0  0  0  0  0  0  0
    2.7093    1.9418    0.2818 C   0  0  0  0  0  0  0  0  0  0  0  0
    3.0900    0.6286    0.0938 C   0  0  0  0  0  0  0  0  0  0  0  0
    4.3564    0.0237   -0.2588 C   0  0  0  0  0  0  0  0  0  0  0  0
    5.4939    0.8550   -0.7342 C   0  0  0  0  0  0  0  0  0  0  0  0
    6.7764    0.5926   -0.2366 C   0  0  0  0  0  0  0  0  0  0  0  0
    7.8642    1.3439   -0.6824 C   0  0  0  0  0  0  0  0  0  0  0  0
    7.6757    2.3479   -1.6329 C   0  0  0  0  0  0  0  0  0  0  0  0
    6.4023    2.5983   -2.1451 C   0  0  0  0  0  0  0  0  0  0  0  0
    5.3106    1.8497   -1.7021 C   0  0  0  0  0  0  0  0  0  0  0  0
    4.5252   -1.2630   -0.1694 N   0  0  0  0  0  0  0  0  0  0  0  0
    3.4593   -2.0679    0.2791 C   0  0  0  0  0  0  0  0  0  0  0  0
    3.7008   -3.4356    0.4390 C   0  0  0  0  0  0  0  0  0  0  0  0
    2.7024   -4.2868    0.9158 C   0  0  0  0  0  0  0  0  0  0  0  0
    1.4527   -3.7706    1.2527 C   0  0  0  0  0  0  0  0  0  0  0  0
    1.1920   -2.4077    1.0980 C   0  0  0  0  0  0  0  0  0  0  0  0
    2.1822   -1.5653    0.5837 C   0  0  0  0  0  0  0  0  0  0  0  0
    2.0019   -0.1718    0.4033 N   0  0  0  0  0  0  0  0  0  0  0  0
   -1.4522    0.9862    1.2132 C   0  0  0  0  0  0  0  0  0  0  0  0
   -2.8495    0.3300    1.1395 C   0  0  0  0  0  0  0  0  0  0  0  0
   -7.1129   -1.7858    1.8203 H   0  0  0  0  0  0  0  0  0  0  0  0
   -7.0040   -0.1611    2.6052 H   0  0  0  0  0  0  0  0  0  0  0  0
   -6.0075   -1.5039    3.1685 H   0  0  0  0  0  0  0  0  0  0  0  0
   -7.8710   -0.0980    0.4393 H   0  0  0  0  0  0  0  0  0  0  0  0
   -8.3324    0.9528   -1.7107 H   0  0  0  0  0  0  0  0  0  0  0  0
   -6.4663    1.5933   -3.2090 H   0  0  0  0  0  0  0  0  0  0  0  0
   -4.1579    1.2134   -2.5393 H   0  0  0  0  0  0  0  0  0  0  0  0
   -1.9882    1.1344   -1.5923 H   0  0  0  0  0  0  0  0  0  0  0  0
   -2.5020   -0.4768   -2.1412 H   0  0  0  0  0  0  0  0  0  0  0  0
   -1.1199   -1.5679   -0.4394 H   0  0  0  0  0  0  0  0  0  0  0  0
   -0.1447   -0.5289   -1.4817 H   0  0  0  0  0  0  0  0  0  0  0  0
    0.7100    2.8252    0.6988 H   0  0  0  0  0  0  0  0  0  0  0  0
    3.3469    2.8126    0.2040 H   0  0  0  0  0  0  0  0  0  0  0  0
    6.9277   -0.1975    0.4967 H   0  0  0  0  0  0  0  0  0  0  0  0
    8.8589    1.1400   -0.2946 H   0  0  0  0  0  0  0  0  0  0  0  0
    8.5251    2.9283   -1.9836 H   0  0  0  0  0  0  0  0  0  0  0  0
    6.2613    3.3696   -2.8986 H   0  0  0  0  0  0  0  0  0  0  0  0
    4.3298    2.0340   -2.1318 H   0  0  0  0  0  0  0  0  0  0  0  0
    4.6825   -3.8342    0.1957 H   0  0  0  0  0  0  0  0  0  0  0  0
    2.9065   -5.3468    1.0393 H   0  0  0  0  0  0  0  0  0  0  0  0
    0.6818   -4.4271    1.6488 H   0  0  0  0  0  0  0  0  0  0  0  0
    0.2263   -2.0286    1.4150 H   0  0  0  0  0  0  0  0  0  0  0  0
   -1.1760    1.1192    2.2659 H   0  0  0  0  0  0  0  0  0  0  0  0
   -1.5101    1.9792    0.7510 H   0  0  0  0  0  0  0  0  0  0  0  0
   -2.8206   -0.6385    1.6528 H   0  0  0  0  0  0  0  0  0  0  0  0
   -3.5431    0.9915    1.6727 H   0  0  0  0  0  0  0  0  0  0  0  0
  1  2  1  0
  2  3  1  0
  3  4  2  0
  4  5  1  0
  5  6  2  0
  6  7  1  0
  7  8  2  0
  8  9  1  0
  9 10  1  0
 10 11  1  0
 11 12  1  0
 12 13  1  0
 13 14  2  0
 14 15  1  0
 15 16  2  0
 16 17  1  0
 17 18  1  0
 18 19  2  0
 19 20  1  0
 20 21  2  0
 21 22  1  0
 22 23  2  0
 17 24  2  0
 24 25  1  0
 25 26  2  0
 26 27  1  0
 27 28  2  0
 28 29  1  0
 29 30  2  0
 30 31  1  0
 12 32  1  0
 32 33  1  0
  8  3  1  0
 33  9  1  0
 31 13  1  0
 31 16  1  0
 23 18  1  0
 30 25  1  0
  1 34  1  0
  1 35  1  0
  1 36  1  0
  4 37  1  0
  5 38  1  0
  6 39  1  0
  7 40  1  0
 10 41  1  0
 10 42  1  0
 11 43  1  0
 11 44  1  0
 14 45  1  0
 15 46  1  0
 19 47  1  0
 20 48  1  0
 21 49  1  0
 22 50  1  0
 23 51  1  0
 26 52  1  0
 27 53  1  0
 28 54  1  0
 29 55  1  0
 32 56  1  0
 32 57  1  0
 33 58  1  0
 33 59  1  0
M  END
$$$$
