
     RDKit          3D

 60 63  0  0  0  0  0  0  0  0999 V2000
   -1.5043    0.6425    4.9486 C   0  0  0  0  0  0  0  0  0  0  0  0
   -2.0937   -0.4146    4.2058 O   0  0  0  0  0  0  0  0  0  0  0  0
   -2.0725   -0.3008    2.8446 C   0  0  0  0  0  0  0  0  0  0  0  0
   -2.5738   -1.4078    2.1554 C   0  0  0  0  0  0  0  0  0  0  0  0
   -2.6224   -1.4206    0.7591 C   0  0  0  0  0  0  0  0  0  0  0  0
   -2.1679   -0.3122    0.0390 C   0  0  0  0  0  0  0  0  0  0  0  0
   -2.2180   -0.3240   -1.3794 N   0  0  0  0  0  0  0  0  0  0  0  0
   -3.2764   -0.7242   -2.1903 C   0  0  0  0  0  0  0  0  0  0  0  0
   -4.6779   -0.9865   -1.7426 C   0  0  0  0  0  0  0  0  0  0  0  0
   -5.3403    0.2299   -1.1629 C   0  0  0  0  0  0  0  0  0  0  0  0
   -5.7188    0.4767    0.1459 C   0  0  0  0  0  0  0  0  0  0  0  0
   -6.2914    1.7657    0.1999 C   0  0  0  0  0  0  0  0  0  0  0  0
   -6.2565    2.2784   -1.0738 C   0  0  0  0  0  0  0  0  0  0  0  0
   -5.6951    1.3388   -1.9008 N   0  0  0  0  0  0  0  0  0  0  0  0
   -5.5282    1.5172   -3.3303 C   0  0  0  0  0  0  0  0  0  0  0  0
   -2.8969   -0.6966   -3.4540 N   0  0  0  0  0  0  0  0  0  0  0  0
   -1.6133   -0.2329   -3.5091 N   0  0  0  0  0  0  0  0  0  0  0  0
   -1.2241    0.0166   -2.2822 C   0  0  0  0  0  0  0  0  0  0  0  0
    0.3822    0.5194   -1.8618 S   0  0  0  0  0  0  0  0  0  0  0  0
    1.3442   -0.4499   -3.0762 C   0  0  0  0  0  0  0  0  0  0  0  0
    2.8265   -0.4271   -2.7293 C   0  0  0  0  0  0  0  0  0  0  0  0
    3.6934   -0.3103   -3.5861 O   0  0  0  0  0  0  0  0  0  0  0  0
    3.1183   -0.6245   -1.3931 N   0  0  0  0  0  0  0  0  0  0  0  0
    4.4779   -0.5043   -0.9020 C   0  0  0  0  0  0  0  0  0  0  0  0
    4.5427   -0.7276    0.6061 C   0  0  0  0  0  0  0  0  0  0  0  0
    5.9362   -0.5742    1.1574 C   0  0  0  0  0  0  0  0  0  0  0  0
    6.4953    0.7004    1.3285 C   0  0  0  0  0  0  0  0  0  0  0  0
    7.7878    0.8455    1.8323 C   0  0  0  0  0  0  0  0  0  0  0  0
    8.5336   -0.2821    2.1717 C   0  0  0  0  0  0  0  0  0  0  0  0
    7.9884   -1.5543    2.0044 C   0  0  0  0  0  0  0  0  0  0  0  0
    6.6967   -1.7019    1.4987 C   0  0  0  0  0  0  0  0  0  0  0  0
   -1.6602    0.7976    0.7231 C   0  0  0  0  0  0  0  0  0  0  0  0
   -1.6144    0.8003    2.1224 C   0  0  0  0  0  0  0  0  0  0  0  0
   -2.0495    1.5811    4.7992 H   0  0  0  0  0  0  0  0  0  0  0  0
   -0.4474    0.7579    4.6999 H   0  0  0  0  0  0  0  0  0  0  0  0
   -1.5713    0.3835    6.0083 H   0  0  0  0  0  0  0  0  0  0  0  0
   -2.9234   -2.2720    2.7140 H   0  0  0  0  0  0  0  0  0  0  0  0
   -2.9788   -2.3193    0.2627 H   0  0  0  0  0  0  0  0  0  0  0  0
   -5.2654   -1.3351   -2.6022 H   0  0  0  0  0  0  0  0  0  0  0  0
   -4.7085   -1.8121   -1.0264 H   0  0  0  0  0  0  0  0  0  0  0  0
   -5.5912   -0.2003    0.9783 H   0  0  0  0  0  0  0  0  0  0  0  0
   -6.6864    2.2657    1.0739 H   0  0  0  0  0  0  0  0  0  0  0  0
   -6.5994    3.2314   -1.4566 H   0  0  0  0  0  0  0  0  0  0  0  0
   -6.1588    2.3428   -3.6677 H   0  0  0  0  0  0  0  0  0  0  0  0
   -5.8295    0.6059   -3.8430 H   0  0  0  0  0  0  0  0  0  0  0  0
   -4.4820    1.7528   -3.5224 H   0  0  0  0  0  0  0  0  0  0  0  0
    1.0093   -1.4976   -3.0828 H   0  0  0  0  0  0  0  0  0  0  0  0
    1.2109   -0.0090   -4.0741 H   0  0  0  0  0  0  0  0  0  0  0  0
    2.3540   -0.4585   -0.7432 H   0  0  0  0  0  0  0  0  0  0  0  0
    4.8422    0.4925   -1.1714 H   0  0  0  0  0  0  0  0  0  0  0  0
    5.0988   -1.2304   -1.4367 H   0  0  0  0  0  0  0  0  0  0  0  0
    3.8836   -0.0161    1.1175 H   0  0  0  0  0  0  0  0  0  0  0  0
    4.1456   -1.7196    0.8501 H   0  0  0  0  0  0  0  0  0  0  0  0
    5.9250    1.5904    1.0637 H   0  0  0  0  0  0  0  0  0  0  0  0
    8.2150    1.8371    1.9594 H   0  0  0  0  0  0  0  0  0  0  0  0
    9.5398   -0.1684    2.5639 H   0  0  0  0  0  0  0  0  0  0  0  0
    8.5715   -2.4343    2.2697 H   0  0  0  0  0  0  0  0  0  0  0  0
    6.2863   -2.7016    1.3721 H   0  0  0  0  0  0  0  0  0  0  0  0
   -1.3382    1.6920    0.1982 H   0  0  0  0  0  0  0  0  0  0  0  0
   -1.2296    1.6884    2.6162 H   0  0  0  0  0  0  0  0  0  0  0  0
  1  2  1  0
  2  3  1  0
  3  4  2  0
  4  5  1  0
  5  6  2  0
  6  7  1  0
  7  8  1  0
  8  9  1  0
  9 10  1  0
 10 11  2  0
 11 12  1  0
 12 13  2  0
 13 14  1  0
 14 15  1  0
  8 16  2  0
 16 17  1  0
 17 18  2  0
 18 19  1  0
 19 20  1  0
 20 21  1  0
 21 22  2  0
 21 23  1  0
 23 24  1  0
 24 25  1  0
 25 26  1  0
 26 27  2  0
 27 28  1  0
 28 29  2  0
 29 30  1  0
 30 31  2  0
  6 32  1  0
 32 33  2  0
 33  3  1  0
 18  7  1  0
 31 26  1  0
 14 10  1  0
  1 34  1  0
  1 35  1  0
  1 36  1  0
  4 37  1  0
  5 38  1  0
  9 39  1  0
  9 40  1  0
 11 41  1  0
 12 42  1  0
 13 43  1  0
 15 44  1  0
 15 45  1  0
 15 46  1  0
 20 47  1  0
 20 48  1  0
 23 49  1  0
 24 50  1  0
 24 51  1  0
 25 52  1  0
 25 53  1  0
 27 54  1  0
 28 55  1  0
 29 56  1  0
 30 57  1  0
 31 58  1  0
 32 59  1  0
 33 60  1  0
M  END
$$$$
