
     RDKit          3D

 43 45  0  0  0  0  0  0  0  0999 V2000
    6.4703   -2.4581   -1.2791 C   0  0  0  0  0  0  0  0  0  0  0  0
    6.2459   -1.2014   -0.6527 O   0  0  0  0  0  0  0  0  0  0  0  0
    4.9541   -0.7578   -0.6053 C   0  0  0  0  0  0  0  0  0  0  0  0
    3.8217   -1.4917   -0.9600 C   0  0  0  0  0  0  0  0  0  0  0  0
    2.5443   -0.9151   -0.8790 C   0  0  0  0  0  0  0  0  0  0  0  0
    2.3755    0.4036   -0.4436 C   0  0  0  0  0  0  0  0  0  0  0  0
    1.1179    1.0394   -0.3045 N   0  0  0  0  0  0  0  0  0  0  0  0
   -0.1216    0.5239   -0.5505 C   0  0  0  0  0  0  0  0  0  0  0  0
   -0.9824    1.2104   -1.2395 N   0  0  0  0  0  0  0  0  0  0  0  0
   -2.2028    0.5851   -1.3905 C   0  0  0  0  0  0  0  0  0  0  0  0
   -3.0529    0.9856   -2.1790 O   0  0  0  0  0  0  0  0  0  0  0  0
   -2.5404   -0.6718   -0.5883 C   0  0  0  0  0  0  0  0  0  0  0  0
   -3.9635   -1.1591   -0.6049 C   0  0  0  0  0  0  0  0  0  0  0  0
   -4.8316   -0.3964    0.3649 C   0  0  0  0  0  0  0  0  0  0  0  0
   -5.6415    0.6567   -0.0793 C   0  0  0  0  0  0  0  0  0  0  0  0
   -6.4220    1.3785    0.8251 C   0  0  0  0  0  0  0  0  0  0  0  0
   -6.3963    1.0586    2.1812 C   0  0  0  0  0  0  0  0  0  0  0  0
   -5.5894    0.0175    2.6351 C   0  0  0  0  0  0  0  0  0  0  0  0
   -4.8090   -0.7065    1.7325 C   0  0  0  0  0  0  0  0  0  0  0  0
   -1.6224   -1.2833    0.1085 N   0  0  0  0  0  0  0  0  0  0  0  0
   -0.3925   -0.6905    0.0416 N   0  0  0  0  0  0  0  0  0  0  0  0
    3.5272    1.1144   -0.0572 C   0  0  0  0  0  0  0  0  0  0  0  0
    3.3817    2.4216    0.3480 O   0  0  0  0  0  0  0  0  0  0  0  0
    3.6308    2.5414    1.7504 C   0  0  0  0  0  0  0  0  0  0  0  0
    4.8012    0.5519   -0.1532 C   0  0  0  0  0  0  0  0  0  0  0  0
    6.1061   -2.4565   -2.3117 H   0  0  0  0  0  0  0  0  0  0  0  0
    6.0160   -3.2700   -0.7029 H   0  0  0  0  0  0  0  0  0  0  0  0
    7.5504   -2.6308   -1.3071 H   0  0  0  0  0  0  0  0  0  0  0  0
    3.8944   -2.5162   -1.3128 H   0  0  0  0  0  0  0  0  0  0  0  0
    1.6975   -1.5158   -1.1991 H   0  0  0  0  0  0  0  0  0  0  0  0
    1.2062    2.0155   -0.5856 H   0  0  0  0  0  0  0  0  0  0  0  0
   -4.3660   -1.0995   -1.6222 H   0  0  0  0  0  0  0  0  0  0  0  0
   -3.9775   -2.2242   -0.3409 H   0  0  0  0  0  0  0  0  0  0  0  0
   -5.6642    0.9291   -1.1338 H   0  0  0  0  0  0  0  0  0  0  0  0
   -7.0453    2.1958    0.4701 H   0  0  0  0  0  0  0  0  0  0  0  0
   -7.0032    1.6234    2.8837 H   0  0  0  0  0  0  0  0  0  0  0  0
   -5.5688   -0.2332    3.6931 H   0  0  0  0  0  0  0  0  0  0  0  0
   -4.1791   -1.5127    2.1035 H   0  0  0  0  0  0  0  0  0  0  0  0
    0.2902   -0.9920    0.7357 H   0  0  0  0  0  0  0  0  0  0  0  0
    3.3252    3.5449    2.0596 H   0  0  0  0  0  0  0  0  0  0  0  0
    4.6966    2.4295    1.9717 H   0  0  0  0  0  0  0  0  0  0  0  0
    3.0406    1.8195    2.3249 H   0  0  0  0  0  0  0  0  0  0  0  0
    5.6787    1.1362    0.1099 H   0  0  0  0  0  0  0  0  0  0  0  0
  1  2  1  0
  2  3  1  0
  3  4  2  0
  4  5  1  0
  5  6  2  0
  6  7  1  0
  7  8  1  0
  8  9  2  0
  9 10  1  0
 10 11  2  0
 10 12  1  0
 12 13  1  0
 13 14  1  0
 14 15  2  0
 15 16  1  0
 16 17  2  0
 17 18  1  0
 18 19  2  0
 12 20  2  0
 20 21  1  0
  6 22  1  0
 22 23  1  0
 23 24  1  0
 22 25  2  0
 25  3  1  0
 21  8  1  0
 19 14  1  0
  1 26  1  0
  1 27  1  0
  1 28  1  0
  4 29  1  0
  5 30  1  0
  7 31  1  0
 13 32  1  0
 13 33  1  0
 15 34  1  0
 16 35  1  0
 17 36  1  0
 18 37  1  0
 19 38  1  0
 21 39  1  0
 24 40  1  0
 24 41  1  0
 24 42  1  0
 25 43  1  0
M  END
$$$$
