
     RDKit          3D

 51 54  0  0  0  0  0  0  0  0999 V2000
   -6.8819    1.5455    0.9896 C   0  0  0  0  0  0  0  0  0  0  0  0
   -6.5351    1.3136   -0.4731 C   0  0  0  0  0  0  0  0  0  0  0  0
   -5.6811    0.1287   -0.6430 N   0  0  0  0  0  0  0  0  0  0  0  0
   -6.3736   -1.1614   -0.7778 C   0  0  0  0  0  0  0  0  0  0  0  0
   -6.2114   -2.0237    0.4670 C   0  0  0  0  0  0  0  0  0  0  0  0
   -4.2939    0.2337   -0.6851 C   0  0  0  0  0  0  0  0  0  0  0  0
   -3.4754   -0.8200   -1.1390 C   0  0  0  0  0  0  0  0  0  0  0  0
   -2.0737   -0.7285   -1.1884 C   0  0  0  0  0  0  0  0  0  0  0  0
   -1.4386    0.4356   -0.7779 C   0  0  0  0  0  0  0  0  0  0  0  0
    0.0033    0.5963   -0.8118 C   0  0  0  0  0  0  0  0  0  0  0  0
    0.5774    1.7421   -0.4064 C   0  0  0  0  0  0  0  0  0  0  0  0
    2.0026    1.8353   -0.4663 C   0  0  0  0  0  0  0  0  0  0  0  0
    2.8464    0.8621   -0.1627 N   0  0  0  0  0  0  0  0  0  0  0  0
    4.1678    1.2488   -0.3496 C   0  0  0  0  0  0  0  0  0  0  0  0
    5.2671    0.3339   -0.0396 C   0  0  0  0  0  0  0  0  0  0  0  0
    6.6094    0.7336   -0.0522 C   0  0  0  0  0  0  0  0  0  0  0  0
    7.6277   -0.1785    0.2512 C   0  0  0  0  0  0  0  0  0  0  0  0
    7.3304   -1.5029    0.5758 C   0  0  0  0  0  0  0  0  0  0  0  0
    8.4182   -2.2837    0.8499 O   0  0  0  0  0  0  0  0  0  0  0  0
    8.1637   -3.6367    1.2063 C   0  0  0  0  0  0  0  0  0  0  0  0
    5.9992   -1.9113    0.5960 C   0  0  0  0  0  0  0  0  0  0  0  0
    4.9794   -0.9992    0.2920 C   0  0  0  0  0  0  0  0  0  0  0  0
    4.3150    2.5233   -0.8553 C   0  0  0  0  0  0  0  0  0  0  0  0
    2.7844    3.2509   -1.0914 S   0  0  0  0  0  0  0  0  0  0  0  0
   -0.2465    2.8566    0.1354 C   0  0  0  0  0  0  0  0  0  0  0  0
    0.2352    3.8867    0.5950 O   0  0  0  0  0  0  0  0  0  0  0  0
   -1.6300    2.6803    0.1121 O   0  0  0  0  0  0  0  0  0  0  0  0
   -2.2222    1.4821   -0.3275 C   0  0  0  0  0  0  0  0  0  0  0  0
   -3.6172    1.3955   -0.2785 C   0  0  0  0  0  0  0  0  0  0  0  0
   -7.4729    0.7162    1.3901 H   0  0  0  0  0  0  0  0  0  0  0  0
   -5.9858    1.6469    1.6091 H   0  0  0  0  0  0  0  0  0  0  0  0
   -7.4751    2.4592    1.0957 H   0  0  0  0  0  0  0  0  0  0  0  0
   -6.0758    2.2096   -0.9064 H   0  0  0  0  0  0  0  0  0  0  0  0
   -7.4666    1.1830   -1.0384 H   0  0  0  0  0  0  0  0  0  0  0  0
   -6.0396   -1.6985   -1.6723 H   0  0  0  0  0  0  0  0  0  0  0  0
   -7.4476   -0.9983   -0.9319 H   0  0  0  0  0  0  0  0  0  0  0  0
   -6.7715   -2.9573    0.3521 H   0  0  0  0  0  0  0  0  0  0  0  0
   -6.5897   -1.5108    1.3565 H   0  0  0  0  0  0  0  0  0  0  0  0
   -5.1654   -2.2828    0.6540 H   0  0  0  0  0  0  0  0  0  0  0  0
   -3.9117   -1.7532   -1.4833 H   0  0  0  0  0  0  0  0  0  0  0  0
   -1.5024   -1.5786   -1.5528 H   0  0  0  0  0  0  0  0  0  0  0  0
    0.5983   -0.2341   -1.1833 H   0  0  0  0  0  0  0  0  0  0  0  0
    6.8971    1.7541   -0.2868 H   0  0  0  0  0  0  0  0  0  0  0  0
    8.6645    0.1503    0.2375 H   0  0  0  0  0  0  0  0  0  0  0  0
    7.6817   -4.1773    0.3849 H   0  0  0  0  0  0  0  0  0  0  0  0
    9.1270   -4.1178    1.4011 H   0  0  0  0  0  0  0  0  0  0  0  0
    7.5690   -3.6986    2.1239 H   0  0  0  0  0  0  0  0  0  0  0  0
    5.7135   -2.9278    0.8441 H   0  0  0  0  0  0  0  0  0  0  0  0
    3.9466   -1.3434    0.3180 H   0  0  0  0  0  0  0  0  0  0  0  0
    5.2137    3.0650   -1.1084 H   0  0  0  0  0  0  0  0  0  0  0  0
   -4.1536    2.2557    0.1071 H   0  0  0  0  0  0  0  0  0  0  0  0
  1  2  1  0
  2  3  1  0
  3  4  1  0
  4  5  1  0
  3  6  1  0
  6  7  2  0
  7  8  1  0
  8  9  2  0
  9 10  1  0
 10 11  2  0
 11 12  1  0
 12 13  2  0
 13 14  1  0
 14 15  1  0
 15 16  2  0
 16 17  1  0
 17 18  2  0
 18 19  1  0
 19 20  1  0
 18 21  1  0
 21 22  2  0
 14 23  2  0
 23 24  1  0
 11 25  1  0
 25 26  2  0
 25 27  1  0
 27 28  1  0
 28 29  2  0
 29  6  1  0
 28  9  1  0
 24 12  1  0
 22 15  1  0
  1 30  1  0
  1 31  1  0
  1 32  1  0
  2 33  1  0
  2 34  1  0
  4 35  1  0
  4 36  1  0
  5 37  1  0
  5 38  1  0
  5 39  1  0
  7 40  1  0
  8 41  1  0
 10 42  1  0
 16 43  1  0
 17 44  1  0
 20 45  1  0
 20 46  1  0
 20 47  1  0
 21 48  1  0
 22 49  1  0
 23 50  1  0
 29 51  1  0
M  END
$$$$
