
     RDKit          3D

 42 44  0  0  0  0  0  0  0  0999 V2000
    5.0966   -2.6627   -0.6839 C   0  0  0  0  0  0  0  0  0  0  0  0
    4.2402   -1.5832   -1.0620 O   0  0  0  0  0  0  0  0  0  0  0  0
    4.8180   -0.3532   -0.9527 C   0  0  0  0  0  0  0  0  0  0  0  0
    5.9773   -0.1509   -0.6123 O   0  0  0  0  0  0  0  0  0  0  0  0
    3.8605    0.7359   -1.3516 C   0  0  0  0  0  0  0  0  0  0  0  0
    2.6873    0.7875   -0.4942 N   0  0  0  0  0  0  0  0  0  0  0  0
    1.4216    0.4241   -0.8844 C   0  0  0  0  0  0  0  0  0  0  0  0
    0.5701    0.6304    0.1797 C   0  0  0  0  0  0  0  0  0  0  0  0
   -0.8367    0.3688    0.2028 C   0  0  0  0  0  0  0  0  0  0  0  0
   -1.5813   -0.0504   -0.8350 C   0  0  0  0  0  0  0  0  0  0  0  0
   -3.0243   -0.2989   -0.7493 C   0  0  0  0  0  0  0  0  0  0  0  0
   -3.5935   -0.9992    0.3133 C   0  0  0  0  0  0  0  0  0  0  0  0
   -4.9646   -1.2290    0.3317 C   0  0  0  0  0  0  0  0  0  0  0  0
   -5.7498   -0.7909   -0.6775 N   0  0  0  0  0  4  0  0  0  0  0  0
   -7.2017   -1.0342   -0.6286 C   0  0  0  0  0  0  0  0  0  0  0  0
   -5.2194   -0.1155   -1.7213 C   0  0  0  0  0  0  0  0  0  0  0  0
   -3.8529    0.1342   -1.7824 C   0  0  0  0  0  0  0  0  0  0  0  0
    1.3529    1.1488    1.2600 C   0  0  0  0  0  0  0  0  0  0  0  0
    1.0655    1.5534    2.5831 C   0  0  0  0  0  0  0  0  0  0  0  0
    2.0926    2.0284    3.4056 C   0  0  0  0  0  0  0  0  0  0  0  0
    3.3972    2.1062    2.9321 C   0  0  0  0  0  0  0  0  0  0  0  0
    3.7125    1.7148    1.6286 C   0  0  0  0  0  0  0  0  0  0  0  0
    2.6746    1.2396    0.8094 C   0  0  0  0  0  0  0  0  0  0  0  0
    5.9648   -2.7123   -1.3484 H   0  0  0  0  0  0  0  0  0  0  0  0
    5.4104   -2.5567    0.3593 H   0  0  0  0  0  0  0  0  0  0  0  0
    4.5312   -3.5934   -0.7823 H   0  0  0  0  0  0  0  0  0  0  0  0
    4.3584    1.7094   -1.2909 H   0  0  0  0  0  0  0  0  0  0  0  0
    3.5459    0.5850   -2.3893 H   0  0  0  0  0  0  0  0  0  0  0  0
    1.2457    0.0427   -1.8813 H   0  0  0  0  0  0  0  0  0  0  0  0
   -1.3254    0.5463    1.1583 H   0  0  0  0  0  0  0  0  0  0  0  0
   -1.1289   -0.2039   -1.8120 H   0  0  0  0  0  0  0  0  0  0  0  0
   -2.9772   -1.3779    1.1268 H   0  0  0  0  0  0  0  0  0  0  0  0
   -5.4415   -1.7646    1.1479 H   0  0  0  0  0  0  0  0  0  0  0  0
   -7.3900   -1.9715   -0.0989 H   0  0  0  0  0  0  0  0  0  0  0  0
   -7.5871   -1.1119   -1.6485 H   0  0  0  0  0  0  0  0  0  0  0  0
   -7.6569   -0.1910   -0.1032 H   0  0  0  0  0  0  0  0  0  0  0  0
   -5.8955    0.2215   -2.5021 H   0  0  0  0  0  0  0  0  0  0  0  0
   -3.4437    0.6785   -2.6320 H   0  0  0  0  0  0  0  0  0  0  0  0
    0.0533    1.5019    2.9711 H   0  0  0  0  0  0  0  0  0  0  0  0
    1.8693    2.3391    4.4234 H   0  0  0  0  0  0  0  0  0  0  0  0
    4.1861    2.4759    3.5840 H   0  0  0  0  0  0  0  0  0  0  0  0
    4.7382    1.7790    1.2757 H   0  0  0  0  0  0  0  0  0  0  0  0
  1  2  1  0
  2  3  1  0
  3  4  2  0
  3  5  1  0
  5  6  1  0
  6  7  1  0
  7  8  2  0
  8  9  1  0
  9 10  2  3
 10 11  1  0
 11 12  2  0
 12 13  1  0
 13 14  2  0
 14 15  1  0
 14 16  1  0
 16 17  2  0
  8 18  1  0
 18 19  2  0
 19 20  1  0
 20 21  2  0
 21 22  1  0
 22 23  2  0
 23  6  1  0
 17 11  1  0
 23 18  1  0
  1 24  1  0
  1 25  1  0
  1 26  1  0
  5 27  1  0
  5 28  1  0
  7 29  1  0
  9 30  1  0
 10 31  1  0
 12 32  1  0
 13 33  1  0
 15 34  1  0
 15 35  1  0
 15 36  1  0
 16 37  1  0
 17 38  1  0
 19 39  1  0
 20 40  1  0
 21 41  1  0
 22 42  1  0
M  CHG  1  14   1
M  END
$$$$
