
     RDKit          3D

 49 50  0  0  0  0  0  0  0  0999 V2000
    6.4200    0.9018   -1.5125 C   0  0  0  0  0  0  0  0  0  0  0  0
    6.1550   -0.3879   -0.7585 C   0  0  0  0  0  0  0  0  0  0  0  0
    4.7569   -0.7021   -0.7927 O   0  0  0  0  0  0  0  0  0  0  0  0
    3.9884   -0.1310    0.1819 C   0  0  0  0  0  0  0  0  0  0  0  0
    4.4389    0.6121    1.0474 O   0  0  0  0  0  0  0  0  0  0  0  0
    2.5689   -0.5034    0.0790 C   0  0  0  0  0  0  0  0  0  0  0  0
    1.8778   -1.0828   -1.0453 C   0  0  0  0  0  0  0  0  0  0  0  0
    2.4713   -1.4207   -2.3730 C   0  0  0  0  0  0  0  0  0  0  0  0
    0.5525   -1.2642   -0.6757 C   0  0  0  0  0  0  0  0  0  0  0  0
   -0.5785   -1.8479   -1.4591 C   0  0  0  0  0  0  0  0  0  0  0  0
    0.3936   -0.7527    0.5975 N   0  0  0  0  0  0  0  0  0  0  0  0
   -0.8857   -0.6807    1.3187 C   0  0  0  0  0  0  0  0  0  0  0  0
   -1.8340    0.3484    0.7410 C   0  0  0  0  0  0  0  0  0  0  0  0
   -1.3869    1.6484    0.4546 C   0  0  0  0  0  0  0  0  0  0  0  0
   -2.2589    2.6034   -0.0625 C   0  0  0  0  0  0  0  0  0  0  0  0
   -3.5933    2.2778   -0.3064 C   0  0  0  0  0  0  0  0  0  0  0  0
   -4.0736    0.9960   -0.0221 C   0  0  0  0  0  0  0  0  0  0  0  0
   -5.3598    0.5881   -0.2644 O   0  0  0  0  0  0  0  0  0  0  0  0
   -6.2009    1.4657   -1.0011 C   0  0  0  0  0  0  0  0  0  0  0  0
   -3.1953    0.0457    0.5396 C   0  0  0  0  0  0  0  0  0  0  0  0
   -3.5878   -1.2361    0.8509 O   0  0  0  0  0  0  0  0  0  0  0  0
   -4.7027   -1.2871    1.7404 C   0  0  0  0  0  0  0  0  0  0  0  0
    1.6208   -0.3463    1.0914 C   0  0  0  0  0  0  0  0  0  0  0  0
    1.7867    0.1676    2.4856 C   0  0  0  0  0  0  0  0  0  0  0  0
    7.4915    1.1178   -1.5472 H   0  0  0  0  0  0  0  0  0  0  0  0
    5.9088    1.7459   -1.0392 H   0  0  0  0  0  0  0  0  0  0  0  0
    6.0397    0.8334   -2.5370 H   0  0  0  0  0  0  0  0  0  0  0  0
    6.6799   -1.2140   -1.2496 H   0  0  0  0  0  0  0  0  0  0  0  0
    6.5297   -0.3372    0.2702 H   0  0  0  0  0  0  0  0  0  0  0  0
    3.0662   -0.5848   -2.7550 H   0  0  0  0  0  0  0  0  0  0  0  0
    3.1115   -2.3045   -2.2896 H   0  0  0  0  0  0  0  0  0  0  0  0
    1.7031   -1.6303   -3.1230 H   0  0  0  0  0  0  0  0  0  0  0  0
   -0.2113   -2.5103   -2.2488 H   0  0  0  0  0  0  0  0  0  0  0  0
   -1.2400   -2.4506   -0.8304 H   0  0  0  0  0  0  0  0  0  0  0  0
   -1.1650   -1.0531   -1.9301 H   0  0  0  0  0  0  0  0  0  0  0  0
   -0.6991   -0.4318    2.3668 H   0  0  0  0  0  0  0  0  0  0  0  0
   -1.2904   -1.6977    1.3063 H   0  0  0  0  0  0  0  0  0  0  0  0
   -0.3471    1.9250    0.6214 H   0  0  0  0  0  0  0  0  0  0  0  0
   -1.8933    3.6023   -0.2884 H   0  0  0  0  0  0  0  0  0  0  0  0
   -4.2315    3.0501   -0.7221 H   0  0  0  0  0  0  0  0  0  0  0  0
   -7.1478    0.9472   -1.1814 H   0  0  0  0  0  0  0  0  0  0  0  0
   -6.4225    2.3704   -0.4257 H   0  0  0  0  0  0  0  0  0  0  0  0
   -5.7661    1.7110   -1.9760 H   0  0  0  0  0  0  0  0  0  0  0  0
   -4.7730   -0.4062    2.3889 H   0  0  0  0  0  0  0  0  0  0  0  0
   -5.6290   -1.4278    1.1760 H   0  0  0  0  0  0  0  0  0  0  0  0
   -4.5724   -2.1631    2.3834 H   0  0  0  0  0  0  0  0  0  0  0  0
    1.3393   -0.5219    3.2090 H   0  0  0  0  0  0  0  0  0  0  0  0
    2.8347    0.2700    2.7736 H   0  0  0  0  0  0  0  0  0  0  0  0
    1.3107    1.1478    2.5899 H   0  0  0  0  0  0  0  0  0  0  0  0
  1  2  1  0
  2  3  1  0
  3  4  1  0
  4  5  2  0
  4  6  1  0
  6  7  1  0
  7  8  1  0
  7  9  2  0
  9 10  1  0
  9 11  1  0
 11 12  1  0
 12 13  1  0
 13 14  2  0
 14 15  1  0
 15 16  2  0
 16 17  1  0
 17 18  1  0
 18 19  1  0
 17 20  2  0
 20 21  1  0
 21 22  1  0
 11 23  1  0
 23 24  1  0
 23  6  2  0
 20 13  1  0
  1 25  1  0
  1 26  1  0
  1 27  1  0
  2 28  1  0
  2 29  1  0
  8 30  1  0
  8 31  1  0
  8 32  1  0
 10 33  1  0
 10 34  1  0
 10 35  1  0
 12 36  1  0
 12 37  1  0
 14 38  1  0
 15 39  1  0
 16 40  1  0
 19 41  1  0
 19 42  1  0
 19 43  1  0
 22 44  1  0
 22 45  1  0
 22 46  1  0
 24 47  1  0
 24 48  1  0
 24 49  1  0
M  END
$$$$
