
     RDKit          3D

 41 44  0  0  0  0  0  0  0  0999 V2000
    5.5085    2.3692    0.4504 C   0  0  0  0  0  0  0  0  0  0  0  0
    4.4272    1.3401    0.3201 C   0  0  0  0  0  0  0  0  0  0  0  0
    3.0835    1.7032    0.3857 C   0  0  0  0  0  0  0  0  0  0  0  0
    2.0725    0.7338    0.2952 C   0  0  0  0  0  0  0  0  0  0  0  0
    2.3647   -0.6308    0.1465 C   0  0  0  0  0  0  0  0  0  0  0  0
    1.3619   -1.6370    0.0525 N   0  0  0  0  0  0  0  0  0  0  0  0
    1.5650   -3.0478   -0.0613 C   0  0  0  0  0  0  0  0  0  0  0  0
    2.5937   -3.7024   -0.1008 O   0  0  0  0  0  0  0  0  0  0  0  0
    0.2922   -3.6310   -0.1249 N   0  0  0  0  0  0  0  0  0  0  0  0
   -0.6594   -2.6277   -0.0553 C   0  0  0  0  0  0  0  0  0  0  0  0
   -2.0241   -2.6471   -0.0769 C   0  0  0  0  0  0  0  0  0  0  0  0
   -2.7693   -3.9317   -0.1926 C   0  0  0  0  0  0  0  0  0  0  0  0
   -4.1339   -3.8271   -0.2041 N   0  0  0  0  0  0  0  0  0  0  0  0
   -2.2035   -5.0147   -0.2734 O   0  0  0  0  0  0  0  0  0  0  0  0
   -2.7631   -1.5125    0.0032 N   0  0  0  0  0  0  0  0  0  0  0  0
   -2.0562   -0.3645    0.1048 C   0  0  0  0  0  0  0  0  0  0  0  0
   -2.8340    0.8629    0.1928 C   0  0  0  0  0  0  0  0  0  0  0  0
   -4.1889    1.1383    0.1956 C   0  0  0  0  0  0  0  0  0  0  0  0
   -4.3220    2.5439    0.3078 C   0  0  0  0  0  0  0  0  0  0  0  0
   -3.0418    3.0483    0.3685 C   0  0  0  0  0  0  0  0  0  0  0  0
   -2.4877    4.4109    0.4895 C   0  0  0  0  0  0  0  0  0  0  0  0
   -2.1347    2.0352    0.2991 O   0  0  0  0  0  0  0  0  0  0  0  0
   -0.7126   -0.2564    0.1334 N   0  0  0  0  0  0  0  0  0  0  0  0
   -0.0388   -1.4055    0.0530 C   0  0  0  0  0  0  0  0  0  0  0  0
    3.7260   -0.9746    0.0982 C   0  0  0  0  0  0  0  0  0  0  0  0
    4.7410   -0.0104    0.1875 C   0  0  0  0  0  0  0  0  0  0  0  0
    6.3984    2.0740   -0.1156 H   0  0  0  0  0  0  0  0  0  0  0  0
    5.7835    2.4932    1.5022 H   0  0  0  0  0  0  0  0  0  0  0  0
    5.1786    3.3357    0.0553 H   0  0  0  0  0  0  0  0  0  0  0  0
    2.8010    2.7469    0.5073 H   0  0  0  0  0  0  0  0  0  0  0  0
    1.0563    1.1064    0.3546 H   0  0  0  0  0  0  0  0  0  0  0  0
    0.1065   -4.6239   -0.2088 H   0  0  0  0  0  0  0  0  0  0  0  0
   -4.6948   -4.6639   -0.2856 H   0  0  0  0  0  0  0  0  0  0  0  0
   -4.5827   -2.9208   -0.1434 H   0  0  0  0  0  0  0  0  0  0  0  0
   -4.9816    0.4070    0.1255 H   0  0  0  0  0  0  0  0  0  0  0  0
   -5.2370    3.1191    0.3412 H   0  0  0  0  0  0  0  0  0  0  0  0
   -1.9090    4.5077    1.4131 H   0  0  0  0  0  0  0  0  0  0  0  0
   -1.8297    4.6336   -0.3562 H   0  0  0  0  0  0  0  0  0  0  0  0
   -3.2861    5.1590    0.5067 H   0  0  0  0  0  0  0  0  0  0  0  0
    4.0513   -2.0045   -0.0123 H   0  0  0  0  0  0  0  0  0  0  0  0
    5.7791   -0.3343    0.1509 H   0  0  0  0  0  0  0  0  0  0  0  0
  1  2  1  0
  2  3  2  0
  3  4  1  0
  4  5  2  0
  5  6  1  0
  6  7  1  0
  7  8  2  0
  7  9  1  0
  9 10  1  0
 10 11  2  0
 11 12  1  0
 12 13  1  0
 12 14  2  0
 11 15  1  0
 15 16  2  0
 16 17  1  0
 17 18  2  0
 18 19  1  0
 19 20  2  0
 20 21  1  0
 20 22  1  0
 16 23  1  0
 23 24  2  0
  5 25  1  0
 25 26  2  0
 26  2  1  0
 24  6  1  0
 24 10  1  0
 22 17  1  0
  1 27  1  0
  1 28  1  0
  1 29  1  0
  3 30  1  0
  4 31  1  0
  9 32  1  0
 13 33  1  0
 13 34  1  0
 18 35  1  0
 19 36  1  0
 21 37  1  0
 21 38  1  0
 21 39  1  0
 25 40  1  0
 26 41  1  0
M  END
$$$$
