
     RDKit          3D

 59 62  0  0  0  0  0  0  0  0999 V2000
   -5.9529    1.6116   -3.0970 C   0  0  0  0  0  0  0  0  0  0  0  0
   -5.9616    0.0965   -2.9797 C   0  0  0  0  0  0  0  0  0  0  0  0
   -5.0923   -0.3818   -1.9160 N   0  0  0  0  0  0  0  0  0  0  0  0
   -5.4927   -0.6147   -0.6130 C   0  0  0  0  0  0  0  0  0  0  0  0
   -6.7346   -0.4383    0.0227 C   0  0  0  0  0  0  0  0  0  0  0  0
   -6.8407   -0.7706    1.3763 C   0  0  0  0  0  0  0  0  0  0  0  0
   -5.7464   -1.2601    2.0778 C   0  0  0  0  0  0  0  0  0  0  0  0
   -4.5140   -1.4340    1.4394 C   0  0  0  0  0  0  0  0  0  0  0  0
   -4.3800   -1.1046    0.0731 C   0  0  0  0  0  0  0  0  0  0  0  0
   -3.2894   -1.1555   -0.8510 C   0  0  0  0  0  0  0  0  0  0  0  0
   -1.9382   -1.5560   -0.7449 C   0  0  0  0  0  0  0  0  0  0  0  0
   -1.0820   -1.4746   -1.8534 C   0  0  0  0  0  0  0  0  0  0  0  0
    0.2520   -1.8863   -1.6568 N   0  0  0  0  0  0  0  0  0  0  0  0
    1.3089   -1.8273   -2.5531 C   0  0  0  0  0  0  0  0  0  0  0  0
    1.2515   -1.4074   -3.7050 O   0  0  0  0  0  0  0  0  0  0  0  0
    2.6313   -2.3439   -1.9416 C   0  0  0  0  0  0  0  0  0  0  0  0
    3.6891   -2.5568   -3.0205 C   0  0  0  0  0  0  0  0  0  0  0  0
    3.1810   -1.3957   -1.0103 O   0  0  0  0  0  0  0  0  0  0  0  0
    2.6705   -1.4196    0.2416 C   0  0  0  0  0  0  0  0  0  0  0  0
    1.7893   -2.1711    0.6308 O   0  0  0  0  0  0  0  0  0  0  0  0
    3.3420   -0.4114    1.0998 C   0  0  0  0  0  0  0  0  0  0  0  0
    3.2222   -0.5267    2.4885 C   0  0  0  0  0  0  0  0  0  0  0  0
    3.8521    0.3986    3.3265 C   0  0  0  0  0  0  0  0  0  0  0  0
    4.6010    1.4551    2.7918 C   0  0  0  0  0  0  0  0  0  0  0  0
    5.2298    2.3282    3.7103 N   0  0  0  0  0  0  0  0  0  0  0  0
    5.9924    3.4468    3.4117 C   0  0  0  0  0  0  0  0  0  0  0  0
    6.1979    3.8947    2.2898 O   0  0  0  0  0  0  0  0  0  0  0  0
    6.6048    4.1015    4.6316 C   0  0  0  0  0  0  0  0  0  0  0  0
    6.1944    5.5051    4.7307 C   0  0  0  0  0  0  0  0  0  0  0  0
    5.8731    6.6145    4.8712 N   0  0  0  0  0  0  0  0  0  0  0  0
    4.7045    1.5732    1.4013 C   0  0  0  0  0  0  0  0  0  0  0  0
    4.0798    0.6477    0.5584 C   0  0  0  0  0  0  0  0  0  0  0  0
   -1.5777   -0.9966   -3.0626 C   0  0  0  0  0  0  0  0  0  0  0  0
   -2.9140   -0.5950   -3.1983 C   0  0  0  0  0  0  0  0  0  0  0  0
   -3.7543   -0.6881   -2.0790 C   0  0  0  0  0  0  0  0  0  0  0  0
   -6.6309    1.9347   -3.8935 H   0  0  0  0  0  0  0  0  0  0  0  0
   -6.2705    2.0854   -2.1617 H   0  0  0  0  0  0  0  0  0  0  0  0
   -4.9502    1.9810   -3.3331 H   0  0  0  0  0  0  0  0  0  0  0  0
   -5.6359   -0.3651   -3.9191 H   0  0  0  0  0  0  0  0  0  0  0  0
   -6.9729   -0.2716   -2.7841 H   0  0  0  0  0  0  0  0  0  0  0  0
   -7.5973   -0.0545   -0.5120 H   0  0  0  0  0  0  0  0  0  0  0  0
   -7.7933   -0.6440    1.8871 H   0  0  0  0  0  0  0  0  0  0  0  0
   -5.8489   -1.5099    3.1293 H   0  0  0  0  0  0  0  0  0  0  0  0
   -3.6659   -1.8236    1.9955 H   0  0  0  0  0  0  0  0  0  0  0  0
   -1.5746   -1.9190    0.2102 H   0  0  0  0  0  0  0  0  0  0  0  0
    0.4815   -2.1992   -0.7144 H   0  0  0  0  0  0  0  0  0  0  0  0
    2.4494   -3.3093   -1.4518 H   0  0  0  0  0  0  0  0  0  0  0  0
    3.3512   -3.2732   -3.7753 H   0  0  0  0  0  0  0  0  0  0  0  0
    3.9339   -1.6134   -3.5233 H   0  0  0  0  0  0  0  0  0  0  0  0
    4.6194   -2.9264   -2.5744 H   0  0  0  0  0  0  0  0  0  0  0  0
    2.6423   -1.3400    2.9243 H   0  0  0  0  0  0  0  0  0  0  0  0
    3.7450    0.2761    4.4022 H   0  0  0  0  0  0  0  0  0  0  0  0
    5.0833    2.1071    4.6903 H   0  0  0  0  0  0  0  0  0  0  0  0
    7.6944    4.0208    4.5393 H   0  0  0  0  0  0  0  0  0  0  0  0
    6.3195    3.5674    5.5440 H   0  0  0  0  0  0  0  0  0  0  0  0
    5.2682    2.3755    0.9306 H   0  0  0  0  0  0  0  0  0  0  0  0
    4.1727    0.7803   -0.5187 H   0  0  0  0  0  0  0  0  0  0  0  0
   -0.9462   -0.9182   -3.9429 H   0  0  0  0  0  0  0  0  0  0  0  0
   -3.2709   -0.2180   -4.1527 H   0  0  0  0  0  0  0  0  0  0  0  0
  1  2  1  0
  2  3  1  0
  3  4  1  0
  4  5  2  0
  5  6  1  0
  6  7  2  0
  7  8  1  0
  8  9  2  0
  9 10  1  0
 10 11  2  0
 11 12  1  0
 12 13  1  0
 13 14  1  0
 14 15  2  0
 14 16  1  0
 16 17  1  0
 16 18  1  0
 18 19  1  0
 19 20  2  0
 19 21  1  0
 21 22  2  0
 22 23  1  0
 23 24  2  0
 24 25  1  0
 25 26  1  0
 26 27  2  0
 26 28  1  0
 28 29  1  0
 29 30  3  0
 24 31  1  0
 31 32  2  0
 12 33  2  0
 33 34  1  0
 34 35  2  0
 35  3  1  0
  9  4  1  0
 35 10  1  0
 32 21  1  0
  1 36  1  0
  1 37  1  0
  1 38  1  0
  2 39  1  0
  2 40  1  0
  5 41  1  0
  6 42  1  0
  7 43  1  0
  8 44  1  0
 11 45  1  0
 13 46  1  0
 16 47  1  0
 17 48  1  0
 17 49  1  0
 17 50  1  0
 22 51  1  0
 23 52  1  0
 25 53  1  0
 28 54  1  0
 28 55  1  0
 31 56  1  0
 32 57  1  0
 33 58  1  0
 34 59  1  0
M  END
$$$$
