
     RDKit          3D

 60 63  0  0  0  0  0  0  0  0999 V2000
   -4.0646    1.2220   -3.6952 C   0  0  0  0  0  0  0  0  0  0  0  0
   -4.0275   -0.0681   -3.0831 O   0  0  0  0  0  0  0  0  0  0  0  0
   -3.6001    0.0428   -1.7829 C   0  0  0  0  0  0  0  0  0  0  0  0
   -2.2404   -0.1481   -1.5263 C   0  0  0  0  0  0  0  0  0  0  0  0
   -1.7717   -0.0842   -0.2174 C   0  0  0  0  0  0  0  0  0  0  0  0
   -2.6786    0.1493    0.8209 C   0  0  0  0  0  0  0  0  0  0  0  0
   -2.0729    0.2040    2.4863 S   0  0  0  0  0  6  0  0  0  0  0  0
   -0.9825    1.1534    2.5219 O   0  0  0  0  0  0  0  0  0  0  0  0
   -3.1974    0.3103    3.3910 O   0  0  0  0  0  0  0  0  0  0  0  0
   -1.4132   -1.3359    2.6876 N   0  0  0  0  0  0  0  0  0  0  0  0
   -2.3534   -2.4743    2.7166 C   0  0  0  0  0  0  0  0  0  0  0  0
   -2.2773   -2.9563    4.1466 C   0  0  0  0  0  0  0  0  0  0  0  0
   -0.9139   -2.7250    4.5058 O   0  0  0  0  0  0  0  0  0  0  0  0
   -0.5649   -1.4665    3.9019 C   0  0  0  0  0  0  0  0  0  0  0  0
    0.9272   -1.4897    3.5254 C   0  0  0  0  0  0  0  0  0  0  0  0
    1.4154   -0.2819    2.8876 N   0  0  0  0  0  0  0  0  0  0  0  0
    2.7131   -0.1849    2.4458 C   0  0  0  0  0  0  0  0  0  0  0  0
    3.6089   -0.9851    2.6778 O   0  0  0  0  0  0  0  0  0  0  0  0
    2.9936    1.0484    1.5575 C   0  0  0  0  0  0  0  0  0  0  0  0
    2.0787    1.7707    1.1921 O   0  0  0  0  0  0  0  0  0  0  0  0
    4.3219    1.1888    1.2267 N   0  0  0  0  0  0  0  0  0  0  0  0
    4.7636    2.1298    0.2315 C   0  0  0  0  0  0  0  0  0  0  0  0
    4.8542    1.4734   -1.1231 C   0  0  0  0  0  0  0  0  0  0  0  0
    6.0800    0.9310   -1.5753 C   0  0  0  0  0  0  0  0  0  0  0  0
    6.1708    0.2968   -2.8185 C   0  0  0  0  0  0  0  0  0  0  0  0
    5.0258    0.2114   -3.5799 C   0  0  0  0  0  0  0  0  0  0  0  0
    3.8276    0.7285   -3.1474 C   0  0  0  0  0  0  0  0  0  0  0  0
    3.7072    1.3613   -1.9288 C   0  0  0  0  0  0  0  0  0  0  0  0
    2.8249    0.5368   -4.0461 O   0  0  0  0  0  0  0  0  0  0  0  0
    3.5277   -0.1681   -5.0901 C   0  0  0  0  0  0  0  0  0  0  0  0
    4.9283   -0.3695   -4.8054 O   0  0  0  0  0  0  0  0  0  0  0  0
   -4.0448    0.3322    0.5691 C   0  0  0  0  0  0  0  0  0  0  0  0
   -4.5183    0.2708   -0.7426 C   0  0  0  0  0  0  0  0  0  0  0  0
   -5.8276    0.4191   -1.1137 O   0  0  0  0  0  0  0  0  0  0  0  0
   -6.7824    0.6195   -0.0801 C   0  0  0  0  0  0  0  0  0  0  0  0
   -4.5742    1.1190   -4.6590 H   0  0  0  0  0  0  0  0  0  0  0  0
   -3.0453    1.5836   -3.8847 H   0  0  0  0  0  0  0  0  0  0  0  0
   -4.6216    1.9547   -3.0954 H   0  0  0  0  0  0  0  0  0  0  0  0
   -1.5542   -0.3448   -2.3464 H   0  0  0  0  0  0  0  0  0  0  0  0
   -0.7109   -0.2186   -0.0128 H   0  0  0  0  0  0  0  0  0  0  0  0
   -1.9702   -3.2356    2.0273 H   0  0  0  0  0  0  0  0  0  0  0  0
   -3.3754   -2.2308    2.4174 H   0  0  0  0  0  0  0  0  0  0  0  0
   -2.9219   -2.3716    4.8123 H   0  0  0  0  0  0  0  0  0  0  0  0
   -2.5212   -4.0169    4.2506 H   0  0  0  0  0  0  0  0  0  0  0  0
   -0.7698   -0.6770    4.6345 H   0  0  0  0  0  0  0  0  0  0  0  0
    1.5359   -1.6724    4.4192 H   0  0  0  0  0  0  0  0  0  0  0  0
    1.1299   -2.3290    2.8471 H   0  0  0  0  0  0  0  0  0  0  0  0
    0.7582    0.4310    2.5529 H   0  0  0  0  0  0  0  0  0  0  0  0
    4.9284    0.4187    1.4934 H   0  0  0  0  0  0  0  0  0  0  0  0
    5.7463    2.5013    0.5428 H   0  0  0  0  0  0  0  0  0  0  0  0
    4.0868    2.9913    0.1921 H   0  0  0  0  0  0  0  0  0  0  0  0
    6.9716    1.0036   -0.9548 H   0  0  0  0  0  0  0  0  0  0  0  0
    7.1077   -0.1173   -3.1723 H   0  0  0  0  0  0  0  0  0  0  0  0
    2.7476    1.7558   -1.6038 H   0  0  0  0  0  0  0  0  0  0  0  0
    3.0547   -1.1471   -5.2320 H   0  0  0  0  0  0  0  0  0  0  0  0
    3.4391    0.4033   -6.0202 H   0  0  0  0  0  0  0  0  0  0  0  0
   -4.7130    0.5177    1.4031 H   0  0  0  0  0  0  0  0  0  0  0  0
   -7.7694    0.6893   -0.5460 H   0  0  0  0  0  0  0  0  0  0  0  0
   -6.5962    1.5586    0.4509 H   0  0  0  0  0  0  0  0  0  0  0  0
   -6.8006   -0.2297    0.6108 H   0  0  0  0  0  0  0  0  0  0  0  0
  1  2  1  0
  2  3  1  0
  3  4  2  0
  4  5  1  0
  5  6  2  0
  6  7  1  0
  7  8  2  0
  7  9  2  0
  7 10  1  0
 10 11  1  0
 11 12  1  0
 12 13  1  0
 13 14  1  0
 14 15  1  0
 15 16  1  0
 16 17  1  0
 17 18  2  0
 17 19  1  0
 19 20  2  0
 19 21  1  0
 21 22  1  0
 22 23  1  0
 23 24  2  0
 24 25  1  0
 25 26  2  0
 26 27  1  0
 27 28  2  0
 27 29  1  0
 29 30  1  0
 30 31  1  0
  6 32  1  0
 32 33  2  0
 33 34  1  0
 34 35  1  0
 33  3  1  0
 14 10  1  0
 28 23  1  0
 31 26  1  0
  1 36  1  0
  1 37  1  0
  1 38  1  0
  4 39  1  0
  5 40  1  0
 11 41  1  0
 11 42  1  0
 12 43  1  0
 12 44  1  0
 14 45  1  0
 15 46  1  0
 15 47  1  0
 16 48  1  0
 21 49  1  0
 22 50  1  0
 22 51  1  0
 24 52  1  0
 25 53  1  0
 28 54  1  0
 30 55  1  0
 30 56  1  0
 32 57  1  0
 35 58  1  0
 35 59  1  0
 35 60  1  0
M  END
$$$$
