
     RDKit          3D

 31 32  0  0  0  0  0  0  0  0999 V2000
   -2.8816   -2.2503    0.4217 C   0  0  0  0  0  0  0  0  0  0  0  0
   -2.6301   -0.8311    0.9107 C   0  0  0  0  0  0  0  0  0  0  0  0
   -1.7201   -0.1148    0.0056 N   0  0  0  0  0  0  0  0  0  0  0  0
   -2.3678    0.6609   -1.0624 C   0  0  0  0  0  0  0  0  0  0  0  0
   -2.6108    2.0979   -0.6237 C   0  0  0  0  0  0  0  0  0  0  0  0
   -0.3391   -0.1638    0.1507 C   0  0  0  0  0  0  0  0  0  0  0  0
    0.2915   -0.9992    1.0885 C   0  0  0  0  0  0  0  0  0  0  0  0
    1.6900   -1.0570    1.2436 C   0  0  0  0  0  0  0  0  0  0  0  0
    2.5340   -0.2714    0.4589 C   0  0  0  0  0  0  0  0  0  0  0  0
    3.9995   -0.2575    0.5426 C   0  0  0  0  0  0  0  0  0  0  0  0
    4.7517   -1.3039    1.7116 Cl  0  0  0  0  0  0  0  0  0  0  0  0
    4.7276    0.5393   -0.2601 C   0  0  0  0  0  0  0  0  0  0  0  0
    6.6100    0.6255   -0.2256 Br  0  0  0  0  0  0  0  0  0  0  0  0
    4.0637    1.4270   -1.2534 C   0  0  0  0  0  0  0  0  0  0  0  0
    4.6884    2.1695   -2.0043 O   0  0  0  0  0  0  0  0  0  0  0  0
    2.6777    1.3889   -1.3070 O   0  0  0  0  0  0  0  0  0  0  0  0
    1.9201    0.5548   -0.4677 C   0  0  0  0  0  0  0  0  0  0  0  0
    0.5279    0.6156   -0.6274 C   0  0  0  0  0  0  0  0  0  0  0  0
   -3.5767   -2.7635    1.0935 H   0  0  0  0  0  0  0  0  0  0  0  0
   -3.3193   -2.2485   -0.5821 H   0  0  0  0  0  0  0  0  0  0  0  0
   -1.9577   -2.8348    0.3788 H   0  0  0  0  0  0  0  0  0  0  0  0
   -2.2622   -0.8307    1.9428 H   0  0  0  0  0  0  0  0  0  0  0  0
   -3.5928   -0.3059    0.9577 H   0  0  0  0  0  0  0  0  0  0  0  0
   -3.3354    0.2074   -1.3127 H   0  0  0  0  0  0  0  0  0  0  0  0
   -1.7945    0.6269   -1.9956 H   0  0  0  0  0  0  0  0  0  0  0  0
   -1.6757    2.6135   -0.3853 H   0  0  0  0  0  0  0  0  0  0  0  0
   -3.1123    2.6562   -1.4204 H   0  0  0  0  0  0  0  0  0  0  0  0
   -3.2459    2.1349    0.2676 H   0  0  0  0  0  0  0  0  0  0  0  0
   -0.2903   -1.6522    1.7331 H   0  0  0  0  0  0  0  0  0  0  0  0
    2.0821   -1.7378    1.9957 H   0  0  0  0  0  0  0  0  0  0  0  0
    0.1484    1.3040   -1.3755 H   0  0  0  0  0  0  0  0  0  0  0  0
  1  2  1  0
  2  3  1  0
  3  4  1  0
  4  5  1  0
  3  6  1  0
  6  7  2  0
  7  8  1  0
  8  9  2  0
  9 10  1  0
 10 11  1  0
 10 12  2  0
 12 13  1  0
 12 14  1  0
 14 15  2  0
 14 16  1  0
 16 17  1  0
 17 18  2  0
 18  6  1  0
 17  9  1  0
  1 19  1  0
  1 20  1  0
  1 21  1  0
  2 22  1  0
  2 23  1  0
  4 24  1  0
  4 25  1  0
  5 26  1  0
  5 27  1  0
  5 28  1  0
  7 29  1  0
  8 30  1  0
 18 31  1  0
M  END
$$$$
