
     RDKit          3D

196196  0  0  0  0  0  0  0  0999 V2000
    8.9595   -8.1294    0.1187 C   0  0  0  0  0  0  0  0  0  0  0  0
    8.6897   -6.6926   -0.1852 C   0  0  0  0  0  0  0  0  0  0  0  0
    7.5262   -6.0305   -0.0796 C   0  0  0  0  0  0  0  0  0  0  0  0
    6.1928   -6.5864    0.3278 C   0  0  0  0  0  0  0  0  0  0  0  0
    5.6357   -6.0975    1.6854 C   0  0  0  0  0  0  0  0  0  0  0  0
    6.4859   -6.6437    2.8426 C   0  0  0  0  0  0  0  0  0  0  0  0
    5.4289   -4.5624    1.8263 C   0  0  0  0  0  0  0  0  0  0  0  0
    6.7044   -3.9177    1.9984 O   0  0  0  0  0  0  0  0  0  0  0  0
    4.6495   -3.8896    0.6713 C   0  0  0  0  0  0  0  0  0  0  0  0
    3.1424   -4.2792    0.6276 C   0  0  0  0  0  0  0  0  0  0  0  0
    2.6682   -5.2859    1.1408 O   0  0  0  0  0  0  0  0  0  0  0  0
    2.3997   -3.4225   -0.1610 N   0  0  0  0  0  0  0  0  0  0  0  0
    0.9383   -3.4602   -0.2362 C   0  0  0  0  0  0  0  0  0  0  0  0
    0.5559   -2.7927   -1.5671 C   0  0  0  0  0  0  0  0  0  0  0  0
    0.4355   -3.8159   -2.6907 C   0  0  0  0  0  0  0  0  0  0  0  0
    0.3683   -2.7353    1.0199 C   0  0  0  0  0  0  0  0  0  0  0  0
    1.1083   -2.0198    1.7078 O   0  0  0  0  0  0  0  0  0  0  0  0
   -0.9705   -2.9320    1.3786 N   0  0  0  0  0  0  0  0  0  0  0  0
   -1.4231   -2.2714    2.5983 C   0  0  0  0  0  0  0  0  0  0  0  0
   -2.0152   -3.3627    0.4385 C   0  0  0  0  0  0  0  0  0  0  0  0
   -2.5493   -2.1677   -0.3744 C   0  0  0  0  0  0  0  0  0  0  0  0
   -2.3379   -1.0029   -0.0499 O   0  0  0  0  0  0  0  0  0  0  0  0
   -3.2526   -2.4814   -1.5320 N   0  0  0  0  0  0  0  0  0  0  0  0
   -3.1968   -1.5108   -2.6237 C   0  0  0  0  0  0  0  0  0  0  0  0
   -4.4640   -3.3334   -1.4405 C   0  0  0  0  0  0  0  0  0  0  0  0
   -4.3629   -4.4934   -2.4450 C   0  0  0  0  0  0  0  0  0  0  0  0
   -5.2684   -5.6988   -2.1179 C   0  0  0  0  0  0  0  0  0  0  0  0
   -5.2440   -6.6900   -3.2834 C   0  0  0  0  0  0  0  0  0  0  0  0
   -4.8382   -6.4136   -0.8339 C   0  0  0  0  0  0  0  0  0  0  0  0
   -5.7496   -2.4722   -1.6314 C   0  0  0  0  0  0  0  0  0  0  0  0
   -6.6315   -2.7593   -2.4300 O   0  0  0  0  0  0  0  0  0  0  0  0
   -5.8317   -1.3760   -0.7839 N   0  0  0  0  0  0  0  0  0  0  0  0
   -6.9215   -0.4001   -0.8885 C   0  0  0  0  0  0  0  0  0  0  0  0
   -8.2117   -0.9520   -0.2201 C   0  0  0  0  0  0  0  0  0  0  0  0
   -9.4692   -0.1696   -0.6214 C   0  0  0  0  0  0  0  0  0  0  0  0
   -8.1197   -1.0515    1.2985 C   0  0  0  0  0  0  0  0  0  0  0  0
   -6.6410    1.1136   -0.5449 C   0  0  0  0  0  0  0  0  0  0  0  0
   -7.3209    1.9770   -1.1166 O   0  0  0  0  0  0  0  0  0  0  0  0
   -5.7294    1.5261    0.4319 N   0  0  0  0  0  0  0  0  0  0  0  0
   -4.4905    0.8132    0.6614 C   0  0  0  0  0  0  0  0  0  0  0  0
   -5.7130    2.9709    0.8078 C   0  0  0  0  0  0  0  0  0  0  0  0
   -5.4856    3.2346    2.3209 C   0  0  0  0  0  0  0  0  0  0  0  0
   -6.5054    2.6739    3.3303 C   0  0  0  0  0  0  0  0  0  0  0  0
   -7.9560    2.8440    2.8869 C   0  0  0  0  0  0  0  0  0  0  0  0
   -6.2079    1.2305    3.7259 C   0  0  0  0  0  0  0  0  0  0  0  0
   -4.6640    3.7889   -0.0111 C   0  0  0  0  0  0  0  0  0  0  0  0
   -4.0140    4.7200    0.4698 O   0  0  0  0  0  0  0  0  0  0  0  0
   -4.5903    3.4940   -1.3557 N   0  0  0  0  0  0  0  0  0  0  0  0
   -3.8850    4.3585   -2.3106 C   0  0  0  0  0  0  0  0  0  0  0  0
   -4.7319    4.5502   -3.5647 C   0  0  0  0  0  0  0  0  0  0  0  0
   -2.4697    3.8565   -2.6832 C   0  0  0  0  0  0  0  0  0  0  0  0
   -1.9215    4.1618   -3.7469 O   0  0  0  0  0  0  0  0  0  0  0  0
   -1.8180    3.1548   -1.6898 N   0  0  0  0  0  0  0  0  0  0  0  0
   -0.4344    2.7024   -1.8341 C   0  0  0  0  0  0  0  0  0  0  0  0
   -0.2471    1.3800   -1.1030 C   0  0  0  0  0  0  0  0  0  0  0  0
    0.7208    3.6631   -1.4239 C   0  0  0  0  0  0  0  0  0  0  0  0
    1.7860    3.5823   -2.0519 O   0  0  0  0  0  0  0  0  0  0  0  0
    0.6382    4.4648   -0.2844 N   0  0  0  0  0  0  0  0  0  0  0  0
   -0.6014    4.7007    0.4418 C   0  0  0  0  0  0  0  0  0  0  0  0
    1.7785    5.3760    0.0064 C   0  0  0  0  0  0  0  0  0  0  0  0
    1.9940    6.4539   -1.0890 C   0  0  0  0  0  0  0  0  0  0  0  0
    0.7825    7.3593   -1.3918 C   0  0  0  0  0  0  0  0  0  0  0  0
    1.1110    8.2725   -2.5770 C   0  0  0  0  0  0  0  0  0  0  0  0
    0.3779    8.2096   -0.1870 C   0  0  0  0  0  0  0  0  0  0  0  0
    3.1340    4.6396    0.3265 C   0  0  0  0  0  0  0  0  0  0  0  0
    4.1811    4.9828   -0.2382 O   0  0  0  0  0  0  0  0  0  0  0  0
    3.1820    3.6972    1.3667 N   0  0  0  0  0  0  0  0  0  0  0  0
    1.9828    3.2817    2.0842 C   0  0  0  0  0  0  0  0  0  0  0  0
    4.3628    2.7849    1.3753 C   0  0  0  0  0  0  0  0  0  0  0  0
    4.9013    2.4716    2.7921 C   0  0  0  0  0  0  0  0  0  0  0  0
    6.1193    3.3359    3.1837 C   0  0  0  0  0  0  0  0  0  0  0  0
    6.7375    2.8046    4.4785 C   0  0  0  0  0  0  0  0  0  0  0  0
    5.7493    4.8112    3.3463 C   0  0  0  0  0  0  0  0  0  0  0  0
    4.0376    1.4910    0.5672 C   0  0  0  0  0  0  0  0  0  0  0  0
    2.8678    1.1503    0.3595 O   0  0  0  0  0  0  0  0  0  0  0  0
    5.0846    0.6915    0.1019 N   0  0  0  0  0  0  0  0  0  0  0  0
    6.4993    0.9964    0.2916 C   0  0  0  0  0  0  0  0  0  0  0  0
    4.7490   -0.3688   -0.8712 C   0  0  0  0  0  0  0  0  0  0  0  0
    5.1220    0.0259   -2.3360 C   0  0  0  0  0  0  0  0  0  0  0  0
    4.4395   -0.9032   -3.3513 C   0  0  0  0  0  0  0  0  0  0  0  0
    4.7312    1.4687   -2.6862 C   0  0  0  0  0  0  0  0  0  0  0  0
    5.3045   -1.7735   -0.4723 C   0  0  0  0  0  0  0  0  0  0  0  0
    6.0913   -2.3885   -1.1943 O   0  0  0  0  0  0  0  0  0  0  0  0
    4.7917   -2.3889    0.6770 N   0  0  0  0  0  0  0  0  0  0  0  0
    4.2265   -1.6513    1.8064 C   0  0  0  0  0  0  0  0  0  0  0  0
    9.1943   -8.6667   -0.8056 H   0  0  0  0  0  0  0  0  0  0  0  0
    9.8262   -8.2075    0.7849 H   0  0  0  0  0  0  0  0  0  0  0  0
    8.1223   -8.6306    0.6086 H   0  0  0  0  0  0  0  0  0  0  0  0
    9.5614   -6.1271   -0.5183 H   0  0  0  0  0  0  0  0  0  0  0  0
    7.5364   -4.9721   -0.3381 H   0  0  0  0  0  0  0  0  0  0  0  0
    5.4744   -6.3467   -0.4685 H   0  0  0  0  0  0  0  0  0  0  0  0
    6.2194   -7.6836    0.3403 H   0  0  0  0  0  0  0  0  0  0  0  0
    4.6521   -6.5677    1.7856 H   0  0  0  0  0  0  0  0  0  0  0  0
    7.4988   -6.2303    2.8462 H   0  0  0  0  0  0  0  0  0  0  0  0
    6.0184   -6.4082    3.8043 H   0  0  0  0  0  0  0  0  0  0  0  0
    6.5709   -7.7353    2.7778 H   0  0  0  0  0  0  0  0  0  0  0  0
    4.8821   -4.3928    2.7596 H   0  0  0  0  0  0  0  0  0  0  0  0
    6.6379   -3.0318    1.5971 H   0  0  0  0  0  0  0  0  0  0  0  0
    5.0564   -4.2352   -0.2813 H   0  0  0  0  0  0  0  0  0  0  0  0
    2.7996   -2.4960   -0.2184 H   0  0  0  0  0  0  0  0  0  0  0  0
    0.6138   -4.5038   -0.1936 H   0  0  0  0  0  0  0  0  0  0  0  0
    1.3160   -2.0528   -1.8619 H   0  0  0  0  0  0  0  0  0  0  0  0
   -0.3671   -2.2261   -1.5031 H   0  0  0  0  0  0  0  0  0  0  0  0
   -0.4510   -4.4424   -2.5514 H   0  0  0  0  0  0  0  0  0  0  0  0
    0.3493   -3.3140   -3.6579 H   0  0  0  0  0  0  0  0  0  0  0  0
    1.3152   -4.4644   -2.7260 H   0  0  0  0  0  0  0  0  0  0  0  0
   -2.2607   -2.8313    3.0240 H   0  0  0  0  0  0  0  0  0  0  0  0
   -1.7322   -1.2476    2.3732 H   0  0  0  0  0  0  0  0  0  0  0  0
   -0.6225   -2.2339    3.3437 H   0  0  0  0  0  0  0  0  0  0  0  0
   -1.6170   -4.1165   -0.2429 H   0  0  0  0  0  0  0  0  0  0  0  0
   -2.8285   -3.8116    1.0179 H   0  0  0  0  0  0  0  0  0  0  0  0
   -2.1604   -1.1996   -2.7745 H   0  0  0  0  0  0  0  0  0  0  0  0
   -3.5624   -1.9622   -3.5484 H   0  0  0  0  0  0  0  0  0  0  0  0
   -3.7860   -0.6253   -2.3773 H   0  0  0  0  0  0  0  0  0  0  0  0
   -4.5193   -3.7262   -0.4223 H   0  0  0  0  0  0  0  0  0  0  0  0
   -3.3221   -4.8449   -2.4910 H   0  0  0  0  0  0  0  0  0  0  0  0
   -4.6027   -4.1259   -3.4516 H   0  0  0  0  0  0  0  0  0  0  0  0
   -6.3019   -5.3556   -1.9923 H   0  0  0  0  0  0  0  0  0  0  0  0
   -5.5647   -6.2108   -4.2140 H   0  0  0  0  0  0  0  0  0  0  0  0
   -4.2361   -7.0934   -3.4408 H   0  0  0  0  0  0  0  0  0  0  0  0
   -5.9185   -7.5322   -3.0937 H   0  0  0  0  0  0  0  0  0  0  0  0
   -4.9838   -5.7838    0.0470 H   0  0  0  0  0  0  0  0  0  0  0  0
   -5.4277   -7.3241   -0.6785 H   0  0  0  0  0  0  0  0  0  0  0  0
   -3.7813   -6.7001   -0.8733 H   0  0  0  0  0  0  0  0  0  0  0  0
   -5.2569   -1.3954    0.0426 H   0  0  0  0  0  0  0  0  0  0  0  0
   -7.1265   -0.3568   -1.9664 H   0  0  0  0  0  0  0  0  0  0  0  0
   -8.3633   -1.9750   -0.5900 H   0  0  0  0  0  0  0  0  0  0  0  0
   -9.4816    0.8356   -0.1848 H   0  0  0  0  0  0  0  0  0  0  0  0
   -9.5431   -0.0756   -1.7077 H   0  0  0  0  0  0  0  0  0  0  0  0
  -10.3688   -0.6880   -0.2722 H   0  0  0  0  0  0  0  0  0  0  0  0
   -8.9633   -1.6305    1.6943 H   0  0  0  0  0  0  0  0  0  0  0  0
   -7.1996   -1.5482    1.6149 H   0  0  0  0  0  0  0  0  0  0  0  0
   -8.1612   -0.0618    1.7584 H   0  0  0  0  0  0  0  0  0  0  0  0
   -4.6755   -0.0333    1.3280 H   0  0  0  0  0  0  0  0  0  0  0  0
   -3.7352    1.4497    1.1335 H   0  0  0  0  0  0  0  0  0  0  0  0
   -4.1015    0.4970   -0.3082 H   0  0  0  0  0  0  0  0  0  0  0  0
   -6.6789    3.4126    0.5457 H   0  0  0  0  0  0  0  0  0  0  0  0
   -5.4882    4.3255    2.4575 H   0  0  0  0  0  0  0  0  0  0  0  0
   -4.4764    2.9207    2.6173 H   0  0  0  0  0  0  0  0  0  0  0  0
   -6.3809    3.2663    4.2456 H   0  0  0  0  0  0  0  0  0  0  0  0
   -8.1617    3.8884    2.6236 H   0  0  0  0  0  0  0  0  0  0  0  0
   -8.6422    2.5644    3.6944 H   0  0  0  0  0  0  0  0  0  0  0  0
   -8.1960    2.2244    2.0194 H   0  0  0  0  0  0  0  0  0  0  0  0
   -5.1706    1.1226    4.0607 H   0  0  0  0  0  0  0  0  0  0  0  0
   -6.3661    0.5376    2.9012 H   0  0  0  0  0  0  0  0  0  0  0  0
   -6.8548    0.9170    4.5523 H   0  0  0  0  0  0  0  0  0  0  0  0
   -5.2502    2.8149   -1.7299 H   0  0  0  0  0  0  0  0  0  0  0  0
   -3.7388    5.3416   -1.8446 H   0  0  0  0  0  0  0  0  0  0  0  0
   -4.2691    5.2704   -4.2515 H   0  0  0  0  0  0  0  0  0  0  0  0
   -5.7316    4.9196   -3.3078 H   0  0  0  0  0  0  0  0  0  0  0  0
   -4.8537    3.6022   -4.1050 H   0  0  0  0  0  0  0  0  0  0  0  0
   -2.3073    3.0237   -0.8137 H   0  0  0  0  0  0  0  0  0  0  0  0
   -0.2855    2.5118   -2.9051 H   0  0  0  0  0  0  0  0  0  0  0  0
   -1.0042    0.6589   -1.4243 H   0  0  0  0  0  0  0  0  0  0  0  0
    0.7358    0.9499   -1.3238 H   0  0  0  0  0  0  0  0  0  0  0  0
   -0.3248    1.4910   -0.0160 H   0  0  0  0  0  0  0  0  0  0  0  0
   -0.4070    5.2227    1.3818 H   0  0  0  0  0  0  0  0  0  0  0  0
   -1.2729    5.3047   -0.1719 H   0  0  0  0  0  0  0  0  0  0  0  0
   -1.0690    3.7486    0.6955 H   0  0  0  0  0  0  0  0  0  0  0  0
    1.5542    5.9080    0.9384 H   0  0  0  0  0  0  0  0  0  0  0  0
    2.8355    7.0942   -0.7914 H   0  0  0  0  0  0  0  0  0  0  0  0
    2.3151    5.9735   -2.0219 H   0  0  0  0  0  0  0  0  0  0  0  0
   -0.0711    6.7383   -1.6860 H   0  0  0  0  0  0  0  0  0  0  0  0
    1.3631    7.6822   -3.4654 H   0  0  0  0  0  0  0  0  0  0  0  0
    1.9610    8.9260   -2.3530 H   0  0  0  0  0  0  0  0  0  0  0  0
    0.2539    8.9035   -2.8322 H   0  0  0  0  0  0  0  0  0  0  0  0
    0.0168    7.5900    0.6405 H   0  0  0  0  0  0  0  0  0  0  0  0
   -0.4318    8.8978   -0.4511 H   0  0  0  0  0  0  0  0  0  0  0  0
    1.2190    8.8053    0.1799 H   0  0  0  0  0  0  0  0  0  0  0  0
    2.2201    2.6558    2.9436 H   0  0  0  0  0  0  0  0  0  0  0  0
    1.3241    2.7122    1.4265 H   0  0  0  0  0  0  0  0  0  0  0  0
    1.4546    4.1635    2.4573 H   0  0  0  0  0  0  0  0  0  0  0  0
    5.1614    3.2720    0.8083 H   0  0  0  0  0  0  0  0  0  0  0  0
    4.1330    2.5970    3.5586 H   0  0  0  0  0  0  0  0  0  0  0  0
    5.1899    1.4150    2.8541 H   0  0  0  0  0  0  0  0  0  0  0  0
    6.8819    3.2561    2.3997 H   0  0  0  0  0  0  0  0  0  0  0  0
    7.1225    1.7897    4.3302 H   0  0  0  0  0  0  0  0  0  0  0  0
    6.0066    2.7738    5.2921 H   0  0  0  0  0  0  0  0  0  0  0  0
    7.5794    3.4296    4.7953 H   0  0  0  0  0  0  0  0  0  0  0  0
    6.6174    5.3956    3.6708 H   0  0  0  0  0  0  0  0  0  0  0  0
    4.9594    4.9357    4.0917 H   0  0  0  0  0  0  0  0  0  0  0  0
    5.4002    5.2447    2.4049 H   0  0  0  0  0  0  0  0  0  0  0  0
    7.1282    0.2803   -0.2415 H   0  0  0  0  0  0  0  0  0  0  0  0
    6.7260    2.0069   -0.0630 H   0  0  0  0  0  0  0  0  0  0  0  0
    6.7336    0.9247    1.3571 H   0  0  0  0  0  0  0  0  0  0  0  0
    3.6623   -0.5122   -0.8729 H   0  0  0  0  0  0  0  0  0  0  0  0
    6.2079   -0.0678   -2.4665 H   0  0  0  0  0  0  0  0  0  0  0  0
    4.7026   -1.9550   -3.2010 H   0  0  0  0  0  0  0  0  0  0  0  0
    3.3460   -0.8211   -3.2955 H   0  0  0  0  0  0  0  0  0  0  0  0
    4.7361   -0.6425   -4.3741 H   0  0  0  0  0  0  0  0  0  0  0  0
    4.9694    1.6950   -3.7317 H   0  0  0  0  0  0  0  0  0  0  0  0
    5.2729    2.1975   -2.0766 H   0  0  0  0  0  0  0  0  0  0  0  0
    3.6564    1.6343   -2.5467 H   0  0  0  0  0  0  0  0  0  0  0  0
    3.9105   -2.3338    2.5996 H   0  0  0  0  0  0  0  0  0  0  0  0
    3.3705   -1.0684    1.4759 H   0  0  0  0  0  0  0  0  0  0  0  0
    4.9953   -0.9862    2.2082 H   0  0  0  0  0  0  0  0  0  0  0  0
  1  2  1  0
  2  3  2  3
  3  4  1  0
  4  5  1  0
  5  6  1  0
  5  7  1  0
  7  8  1  0
  7  9  1  0
  9 10  1  0
 10 11  2  0
 10 12  1  0
 12 13  1  0
 13 14  1  0
 14 15  1  0
 13 16  1  0
 16 17  2  0
 16 18  1  0
 18 19  1  0
 18 20  1  0
 20 21  1  0
 21 22  2  0
 21 23  1  0
 23 24  1  0
 23 25  1  0
 25 26  1  0
 26 27  1  0
 27 28  1  0
 27 29  1  0
 25 30  1  0
 30 31  2  0
 30 32  1  0
 32 33  1  0
 33 34  1  0
 34 35  1  0
 34 36  1  0
 33 37  1  0
 37 38  2  0
 37 39  1  0
 39 40  1  0
 39 41  1  0
 41 42  1  0
 42 43  1  0
 43 44  1  0
 43 45  1  0
 41 46  1  0
 46 47  2  0
 46 48  1  0
 48 49  1  0
 49 50  1  0
 49 51  1  0
 51 52  2  0
 51 53  1  0
 53 54  1  0
 54 55  1  0
 54 56  1  0
 56 57  2  0
 56 58  1  0
 58 59  1  0
 58 60  1  0
 60 61  1  0
 61 62  1  0
 62 63  1  0
 62 64  1  0
 60 65  1  0
 65 66  2  0
 65 67  1  0
 67 68  1  0
 67 69  1  0
 69 70  1  0
 70 71  1  0
 71 72  1  0
 71 73  1  0
 69 74  1  0
 74 75  2  0
 74 76  1  0
 76 77  1  0
 76 78  1  0
 78 79  1  0
 79 80  1  0
 79 81  1  0
 78 82  1  0
 82 83  2  0
 82 84  1  0
 84 85  1  0
 84  9  1  0
  1 86  1  0
  1 87  1  0
  1 88  1  0
  2 89  1  0
  3 90  1  0
  4 91  1  0
  4 92  1  0
  5 93  1  0
  6 94  1  0
  6 95  1  0
  6 96  1  0
  7 97  1  0
  8 98  1  0
  9 99  1  0
 12100  1  0
 13101  1  0
 14102  1  0
 14103  1  0
 15104  1  0
 15105  1  0
 15106  1  0
 19107  1  0
 19108  1  0
 19109  1  0
 20110  1  0
 20111  1  0
 24112  1  0
 24113  1  0
 24114  1  0
 25115  1  0
 26116  1  0
 26117  1  0
 27118  1  0
 28119  1  0
 28120  1  0
 28121  1  0
 29122  1  0
 29123  1  0
 29124  1  0
 32125  1  0
 33126  1  0
 34127  1  0
 35128  1  0
 35129  1  0
 35130  1  0
 36131  1  0
 36132  1  0
 36133  1  0
 40134  1  0
 40135  1  0
 40136  1  0
 41137  1  0
 42138  1  0
 42139  1  0
 43140  1  0
 44141  1  0
 44142  1  0
 44143  1  0
 45144  1  0
 45145  1  0
 45146  1  0
 48147  1  0
 49148  1  0
 50149  1  0
 50150  1  0
 50151  1  0
 53152  1  0
 54153  1  0
 55154  1  0
 55155  1  0
 55156  1  0
 59157  1  0
 59158  1  0
 59159  1  0
 60160  1  0
 61161  1  0
 61162  1  0
 62163  1  0
 63164  1  0
 63165  1  0
 63166  1  0
 64167  1  0
 64168  1  0
 64169  1  0
 68170  1  0
 68171  1  0
 68172  1  0
 69173  1  0
 70174  1  0
 70175  1  0
 71176  1  0
 72177  1  0
 72178  1  0
 72179  1  0
 73180  1  0
 73181  1  0
 73182  1  0
 77183  1  0
 77184  1  0
 77185  1  0
 78186  1  0
 79187  1  0
 80188  1  0
 80189  1  0
 80190  1  0
 81191  1  0
 81192  1  0
 81193  1  0
 85194  1  0
 85195  1  0
 85196  1  0
M  END
$$$$
