
     RDKit          3D

 50 53  0  0  0  0  0  0  0  0999 V2000
    7.4463   -2.0137    0.6108 C   0  0  0  0  0  0  0  0  0  0  0  0
    6.1425   -1.2720    0.5709 C   0  0  0  0  0  0  0  0  0  0  0  0
    4.9632   -1.9372    0.2416 C   0  0  0  0  0  0  0  0  0  0  0  0
    3.7493   -1.2455    0.1770 C   0  0  0  0  0  0  0  0  0  0  0  0
    3.6865    0.1290    0.4290 C   0  0  0  0  0  0  0  0  0  0  0  0
    2.4723    0.8610    0.3726 N   0  0  0  0  0  0  0  0  0  0  0  0
    1.2114    0.3869    0.0399 C   0  0  0  0  0  0  0  0  0  0  0  0
    0.9188   -0.7659   -0.2670 O   0  0  0  0  0  0  0  0  0  0  0  0
    0.1412    1.4897    0.0448 C   0  0  0  0  0  0  0  0  0  0  0  0
   -1.2133    0.9552   -0.1606 N   0  0  0  0  0  4  0  0  0  0  0  0
   -2.2725    0.9809    0.7457 C   0  0  0  0  0  0  0  0  0  0  0  0
   -3.3662    0.3312    0.1849 C   0  0  0  0  0  0  0  0  0  0  0  0
   -4.7669    0.1082    0.8619 C   0  0  0  0  0  0  0  0  0  0  0  0
   -5.0270    0.6554    2.1252 C   0  0  0  0  0  0  0  0  0  0  0  0
   -6.2710    0.4625    2.7324 C   0  0  0  0  0  0  0  0  0  0  0  0
   -7.2571   -0.2780    2.0853 C   0  0  0  0  0  0  0  0  0  0  0  0
   -7.0008   -0.8286    0.8320 C   0  0  0  0  0  0  0  0  0  0  0  0
   -5.7585   -0.6373    0.2205 C   0  0  0  0  0  0  0  0  0  0  0  0
   -2.9047   -0.0451   -1.0631 N   0  0  0  0  0  0  0  0  0  0  0  0
   -1.6268    0.2851   -1.2338 C   0  0  0  0  0  0  0  0  0  0  0  0
   -1.0900   -0.1322   -2.5517 C   0  0  0  0  0  0  0  0  0  0  0  0
   -2.3776   -0.4807   -3.3243 C   0  0  0  0  0  0  0  0  0  0  0  0
   -3.4434   -0.7383   -2.2246 C   0  0  0  0  0  0  0  0  0  0  0  0
    4.8795    0.8156    0.7479 C   0  0  0  0  0  0  0  0  0  0  0  0
    4.9196    2.2931    1.0365 C   0  0  0  0  0  0  0  0  0  0  0  0
    6.0929    0.1031    0.8125 C   0  0  0  0  0  0  0  0  0  0  0  0
    7.8469   -2.1203   -0.4022 H   0  0  0  0  0  0  0  0  0  0  0  0
    8.1836   -1.4864    1.2253 H   0  0  0  0  0  0  0  0  0  0  0  0
    7.3109   -3.0088    1.0474 H   0  0  0  0  0  0  0  0  0  0  0  0
    4.9764   -3.0062    0.0349 H   0  0  0  0  0  0  0  0  0  0  0  0
    2.8705   -1.8295   -0.0732 H   0  0  0  0  0  0  0  0  0  0  0  0
    2.5591    1.8436    0.5973 H   0  0  0  0  0  0  0  0  0  0  0  0
    0.3513    2.1959   -0.7657 H   0  0  0  0  0  0  0  0  0  0  0  0
    0.1734    2.0199    1.0029 H   0  0  0  0  0  0  0  0  0  0  0  0
   -2.1097    1.4552    1.6983 H   0  0  0  0  0  0  0  0  0  0  0  0
   -4.2889    1.2408    2.6651 H   0  0  0  0  0  0  0  0  0  0  0  0
   -6.4743    0.8895    3.7127 H   0  0  0  0  0  0  0  0  0  0  0  0
   -8.2250   -0.4287    2.5592 H   0  0  0  0  0  0  0  0  0  0  0  0
   -7.7721   -1.4122    0.3319 H   0  0  0  0  0  0  0  0  0  0  0  0
   -5.5996   -1.0977   -0.7453 H   0  0  0  0  0  0  0  0  0  0  0  0
   -0.5283    0.6944   -2.9879 H   0  0  0  0  0  0  0  0  0  0  0  0
   -0.4673   -1.0122   -2.3841 H   0  0  0  0  0  0  0  0  0  0  0  0
   -2.6837    0.3873   -3.9204 H   0  0  0  0  0  0  0  0  0  0  0  0
   -2.2528   -1.3291   -4.0029 H   0  0  0  0  0  0  0  0  0  0  0  0
   -3.5232   -1.8042   -1.9928 H   0  0  0  0  0  0  0  0  0  0  0  0
   -4.4123   -0.3267   -2.5150 H   0  0  0  0  0  0  0  0  0  0  0  0
    5.9462    2.6535    1.1680 H   0  0  0  0  0  0  0  0  0  0  0  0
    4.4869    2.8576    0.2038 H   0  0  0  0  0  0  0  0  0  0  0  0
    4.3685    2.5136    1.9566 H   0  0  0  0  0  0  0  0  0  0  0  0
    7.0160    0.6281    1.0567 H   0  0  0  0  0  0  0  0  0  0  0  0
  1  2  1  0
  2  3  2  0
  3  4  1  0
  4  5  2  0
  5  6  1  0
  6  7  1  0
  7  8  2  0
  7  9  1  0
  9 10  1  0
 10 11  1  0
 11 12  2  0
 12 13  1  0
 13 14  2  0
 14 15  1  0
 15 16  2  0
 16 17  1  0
 17 18  2  0
 12 19  1  0
 19 20  1  0
 20 21  1  0
 21 22  1  0
 22 23  1  0
  5 24  1  0
 24 25  1  0
 24 26  2  0
 26  2  1  0
 20 10  2  0
 18 13  1  0
 23 19  1  0
  1 27  1  0
  1 28  1  0
  1 29  1  0
  3 30  1  0
  4 31  1  0
  6 32  1  0
  9 33  1  0
  9 34  1  0
 11 35  1  0
 14 36  1  0
 15 37  1  0
 16 38  1  0
 17 39  1  0
 18 40  1  0
 21 41  1  0
 21 42  1  0
 22 43  1  0
 22 44  1  0
 23 45  1  0
 23 46  1  0
 25 47  1  0
 25 48  1  0
 25 49  1  0
 26 50  1  0
M  CHG  1  10   1
M  END
$$$$
