
     RDKit          3D

 43 45  0  0  0  0  0  0  0  0999 V2000
    6.7566   -1.9831   -0.8940 C   0  0  0  0  0  0  0  0  0  0  0  0
    5.4379   -2.4818   -0.7125 O   0  0  0  0  0  0  0  0  0  0  0  0
    4.4415   -1.5637   -0.5242 C   0  0  0  0  0  0  0  0  0  0  0  0
    3.1771   -2.1160   -0.3218 C   0  0  0  0  0  0  0  0  0  0  0  0
    2.0624   -1.2988   -0.1163 C   0  0  0  0  0  0  0  0  0  0  0  0
    2.1937    0.0910   -0.0972 C   0  0  0  0  0  0  0  0  0  0  0  0
    1.1034    0.9786    0.0714 N   0  0  0  0  0  0  0  0  0  0  0  0
   -0.1234    0.7409    0.6358 C   0  0  0  0  0  0  0  0  0  0  0  0
   -0.5042   -0.3791    1.1664 N   0  0  0  0  0  0  0  0  0  0  0  0
   -1.7765   -0.3681    1.6914 C   0  0  0  0  0  0  0  0  0  0  0  0
   -2.2325   -1.3145    2.3250 O   0  0  0  0  0  0  0  0  0  0  0  0
   -2.6802    0.8511    1.5264 C   0  0  0  0  0  0  0  0  0  0  0  0
   -4.1060    0.7449    1.9953 C   0  0  0  0  0  0  0  0  0  0  0  0
   -5.0056    0.1501    0.9407 C   0  0  0  0  0  0  0  0  0  0  0  0
   -5.3008   -1.2197    0.9462 C   0  0  0  0  0  0  0  0  0  0  0  0
   -6.1141   -1.7712   -0.0447 C   0  0  0  0  0  0  0  0  0  0  0  0
   -6.6358   -0.9612   -1.0515 C   0  0  0  0  0  0  0  0  0  0  0  0
   -6.3421    0.4008   -1.0708 C   0  0  0  0  0  0  0  0  0  0  0  0
   -5.5283    0.9545   -0.0815 C   0  0  0  0  0  0  0  0  0  0  0  0
   -2.2302    1.9417    0.9708 N   0  0  0  0  0  0  0  0  0  0  0  0
   -0.9227    1.8691    0.5826 N   0  0  0  0  0  0  0  0  0  0  0  0
    3.4759    0.6498   -0.3213 C   0  0  0  0  0  0  0  0  0  0  0  0
    3.5075    2.0292   -0.3080 O   0  0  0  0  0  0  0  0  0  0  0  0
    4.7703    2.6505   -0.5171 C   0  0  0  0  0  0  0  0  0  0  0  0
    4.5899   -0.1759   -0.5273 C   0  0  0  0  0  0  0  0  0  0  0  0
    7.4255   -2.8411   -1.0117 H   0  0  0  0  0  0  0  0  0  0  0  0
    6.8273   -1.3785   -1.8041 H   0  0  0  0  0  0  0  0  0  0  0  0
    7.0900   -1.4188   -0.0168 H   0  0  0  0  0  0  0  0  0  0  0  0
    3.0519   -3.1965   -0.3263 H   0  0  0  0  0  0  0  0  0  0  0  0
    1.0960   -1.7756    0.0182 H   0  0  0  0  0  0  0  0  0  0  0  0
    1.4459    1.9336    0.1107 H   0  0  0  0  0  0  0  0  0  0  0  0
   -4.4668    1.7486    2.2538 H   0  0  0  0  0  0  0  0  0  0  0  0
   -4.1571    0.1644    2.9231 H   0  0  0  0  0  0  0  0  0  0  0  0
   -4.8941   -1.8694    1.7199 H   0  0  0  0  0  0  0  0  0  0  0  0
   -6.3367   -2.8351   -0.0320 H   0  0  0  0  0  0  0  0  0  0  0  0
   -7.2678   -1.3928   -1.8230 H   0  0  0  0  0  0  0  0  0  0  0  0
   -6.7445    1.0319   -1.8588 H   0  0  0  0  0  0  0  0  0  0  0  0
   -5.3009    2.0182   -0.1147 H   0  0  0  0  0  0  0  0  0  0  0  0
   -0.6160    2.6080   -0.0453 H   0  0  0  0  0  0  0  0  0  0  0  0
    4.6196    3.7335   -0.4752 H   0  0  0  0  0  0  0  0  0  0  0  0
    5.1698    2.4089   -1.5075 H   0  0  0  0  0  0  0  0  0  0  0  0
    5.4778    2.3827    0.2744 H   0  0  0  0  0  0  0  0  0  0  0  0
    5.5662    0.2588   -0.6914 H   0  0  0  0  0  0  0  0  0  0  0  0
  1  2  1  0
  2  3  1  0
  3  4  2  0
  4  5  1  0
  5  6  2  0
  6  7  1  0
  7  8  1  0
  8  9  2  0
  9 10  1  0
 10 11  2  0
 10 12  1  0
 12 13  1  0
 13 14  1  0
 14 15  2  0
 15 16  1  0
 16 17  2  0
 17 18  1  0
 18 19  2  0
 12 20  2  0
 20 21  1  0
  6 22  1  0
 22 23  1  0
 23 24  1  0
 22 25  2  0
 25  3  1  0
 21  8  1  0
 19 14  1  0
  1 26  1  0
  1 27  1  0
  1 28  1  0
  4 29  1  0
  5 30  1  0
  7 31  1  0
 13 32  1  0
 13 33  1  0
 15 34  1  0
 16 35  1  0
 17 36  1  0
 18 37  1  0
 19 38  1  0
 21 39  1  0
 24 40  1  0
 24 41  1  0
 24 42  1  0
 25 43  1  0
M  END
$$$$
