
     RDKit          3D

 51 54  0  0  0  0  0  0  0  0999 V2000
    4.5634    0.9214    4.0485 C   0  0  0  0  0  0  0  0  0  0  0  0
    3.9440    0.4083    2.7814 C   0  0  0  0  0  0  0  0  0  0  0  0
    4.4970   -0.6964    2.1251 C   0  0  0  0  0  0  0  0  0  0  0  0
    3.9326   -1.2149    0.9406 C   0  0  0  0  0  0  0  0  0  0  0  0
    4.6731   -2.3408    0.2707 C   0  0  0  0  0  0  0  0  0  0  0  0
    2.7452   -0.6446    0.4403 C   0  0  0  0  0  0  0  0  0  0  0  0
    2.1020   -1.1160   -0.7369 N   0  0  0  0  0  0  0  0  0  0  0  0
    1.7912   -2.4507   -0.9553 C   0  0  0  0  0  0  0  0  0  0  0  0
    1.9878   -3.3615   -0.1526 O   0  0  0  0  0  0  0  0  0  0  0  0
    1.1282   -2.7237   -2.2956 C   0  0  0  0  0  0  0  0  0  0  0  0
   -0.6801   -2.6231   -2.1316 S   0  0  0  0  0  0  0  0  0  0  0  0
   -0.9104   -0.9151   -2.2299 C   0  0  0  0  0  0  0  0  0  0  0  0
   -0.0289   -0.0636   -2.6927 N   0  0  0  0  0  0  0  0  0  0  0  0
   -0.5833    1.1853   -2.6207 N   0  0  0  0  0  0  0  0  0  0  0  0
   -1.7825    1.0849   -2.0724 C   0  0  0  0  0  0  0  0  0  0  0  0
   -2.6824    2.2057   -1.8311 C   0  0  0  0  0  0  0  0  0  0  0  0
   -3.1659    2.4973   -0.5551 C   0  0  0  0  0  0  0  0  0  0  0  0
   -4.0113    3.5826   -0.4037 C   0  0  0  0  0  0  0  0  0  0  0  0
   -4.3879    4.3878   -1.4201 N   0  0  0  0  0  0  0  0  0  0  0  0
   -3.8822    4.1071   -2.6396 C   0  0  0  0  0  0  0  0  0  0  0  0
   -3.0351    3.0419   -2.8923 C   0  0  0  0  0  0  0  0  0  0  0  0
   -2.0303   -0.2499   -1.8133 N   0  0  0  0  0  0  0  0  0  0  0  0
   -3.2562   -0.8255   -1.2960 C   0  0  0  0  0  0  0  0  0  0  0  0
   -3.2429   -0.9099    0.1866 C   0  0  0  0  0  0  0  0  0  0  0  0
   -2.3266   -1.3336    1.1295 C   0  0  0  0  0  0  0  0  0  0  0  0
   -2.9432   -1.1621    2.3945 C   0  0  0  0  0  0  0  0  0  0  0  0
   -4.1931   -0.6487    2.1465 C   0  0  0  0  0  0  0  0  0  0  0  0
   -4.3834   -0.4908    0.8116 O   0  0  0  0  0  0  0  0  0  0  0  0
    2.2044    0.4779    1.0979 C   0  0  0  0  0  0  0  0  0  0  0  0
    0.7419    1.2270    0.5548 Cl  0  0  0  0  0  0  0  0  0  0  0  0
    2.7920    0.9932    2.2567 C   0  0  0  0  0  0  0  0  0  0  0  0
    4.2132    1.9319    4.2818 H   0  0  0  0  0  0  0  0  0  0  0  0
    4.3047    0.2619    4.8855 H   0  0  0  0  0  0  0  0  0  0  0  0
    5.6518    0.9685    3.9506 H   0  0  0  0  0  0  0  0  0  0  0  0
    5.3994   -1.1550    2.5299 H   0  0  0  0  0  0  0  0  0  0  0  0
    4.5189   -2.3438   -0.8122 H   0  0  0  0  0  0  0  0  0  0  0  0
    5.7532   -2.2301    0.4197 H   0  0  0  0  0  0  0  0  0  0  0  0
    4.3718   -3.3031    0.6929 H   0  0  0  0  0  0  0  0  0  0  0  0
    1.4743   -0.4477   -1.1878 H   0  0  0  0  0  0  0  0  0  0  0  0
    1.5150   -2.0536   -3.0706 H   0  0  0  0  0  0  0  0  0  0  0  0
    1.3939   -3.7420   -2.5998 H   0  0  0  0  0  0  0  0  0  0  0  0
   -2.8805    1.9164    0.3139 H   0  0  0  0  0  0  0  0  0  0  0  0
   -4.4148    3.8457    0.5702 H   0  0  0  0  0  0  0  0  0  0  0  0
   -4.1840    4.7845   -3.4333 H   0  0  0  0  0  0  0  0  0  0  0  0
   -2.6525    2.8743   -3.8935 H   0  0  0  0  0  0  0  0  0  0  0  0
   -3.4004   -1.8175   -1.7349 H   0  0  0  0  0  0  0  0  0  0  0  0
   -4.0900   -0.2099   -1.6482 H   0  0  0  0  0  0  0  0  0  0  0  0
   -1.3356   -1.7238    0.9424 H   0  0  0  0  0  0  0  0  0  0  0  0
   -2.5299   -1.3933    3.3678 H   0  0  0  0  0  0  0  0  0  0  0  0
   -5.0243   -0.3600    2.7771 H   0  0  0  0  0  0  0  0  0  0  0  0
    2.3388    1.8472    2.7557 H   0  0  0  0  0  0  0  0  0  0  0  0
  1  2  1  0
  2  3  2  0
  3  4  1  0
  4  5  1  0
  4  6  2  0
  6  7  1  0
  7  8  1  0
  8  9  2  0
  8 10  1  0
 10 11  1  0
 11 12  1  0
 12 13  2  0
 13 14  1  0
 14 15  2  0
 15 16  1  0
 16 17  2  0
 17 18  1  0
 18 19  2  0
 19 20  1  0
 20 21  2  0
 15 22  1  0
 22 23  1  0
 23 24  1  0
 24 25  2  0
 25 26  1  0
 26 27  2  0
 27 28  1  0
  6 29  1  0
 29 30  1  0
 29 31  2  0
 31  2  1  0
 22 12  1  0
 28 24  1  0
 21 16  1  0
  1 32  1  0
  1 33  1  0
  1 34  1  0
  3 35  1  0
  5 36  1  0
  5 37  1  0
  5 38  1  0
  7 39  1  0
 10 40  1  0
 10 41  1  0
 17 42  1  0
 18 43  1  0
 20 44  1  0
 21 45  1  0
 23 46  1  0
 23 47  1  0
 25 48  1  0
 26 49  1  0
 27 50  1  0
 31 51  1  0
M  END
$$$$
