
     RDKit          3D

 28 29  0  0  0  0  0  0  0  0999 V2000
    5.2613   -1.3309    0.4667 C   0  0  0  0  0  0  0  0  0  0  0  0
    4.7895    0.0943    0.6866 C   0  0  0  0  0  0  0  0  0  0  0  0
    3.5177    0.2974    0.0562 O   0  0  0  0  0  0  0  0  0  0  0  0
    2.4286   -0.0316    0.8030 C   0  0  0  0  0  0  0  0  0  0  0  0
    2.4563   -0.4808    1.9408 O   0  0  0  0  0  0  0  0  0  0  0  0
    1.2205    0.2220    0.0578 C   0  0  0  0  0  0  0  0  0  0  0  0
    1.0208    0.7186   -1.2196 C   0  0  0  0  0  0  0  0  0  0  0  0
   -0.3756    0.7661   -1.4587 C   0  0  0  0  0  0  0  0  0  0  0  0
   -1.0080    0.2983   -0.3253 C   0  0  0  0  0  0  0  0  0  0  0  0
   -2.3959    0.1351   -0.0290 C   0  0  0  0  0  0  0  0  0  0  0  0
   -3.4978    0.4065   -0.8116 C   0  0  0  0  0  0  0  0  0  0  0  0
   -4.6114    0.0563   -0.0174 C   0  0  0  0  0  0  0  0  0  0  0  0
   -6.0488    0.1414   -0.3558 C   0  0  0  0  0  0  0  0  0  0  0  0
   -4.2268   -0.4017    1.1778 N   0  0  0  0  0  0  0  0  0  0  0  0
   -2.8460   -0.3521    1.1694 O   0  0  0  0  0  0  0  0  0  0  0  0
   -0.0298   -0.0264    0.5819 N   0  0  0  0  0  0  0  0  0  0  0  0
    5.2956   -1.5637   -0.6026 H   0  0  0  0  0  0  0  0  0  0  0  0
    6.2575   -1.4796    0.8926 H   0  0  0  0  0  0  0  0  0  0  0  0
    4.5739   -2.0478    0.9268 H   0  0  0  0  0  0  0  0  0  0  0  0
    5.4932    0.7905    0.2185 H   0  0  0  0  0  0  0  0  0  0  0  0
    4.7518    0.3447    1.7530 H   0  0  0  0  0  0  0  0  0  0  0  0
    1.8032    1.0156   -1.9076 H   0  0  0  0  0  0  0  0  0  0  0  0
   -0.8587    1.1071   -2.3653 H   0  0  0  0  0  0  0  0  0  0  0  0
   -3.4976    0.8021   -1.8158 H   0  0  0  0  0  0  0  0  0  0  0  0
   -6.5703    0.8041    0.3424 H   0  0  0  0  0  0  0  0  0  0  0  0
   -6.1937    0.5349   -1.3670 H   0  0  0  0  0  0  0  0  0  0  0  0
   -6.5149   -0.8480   -0.3084 H   0  0  0  0  0  0  0  0  0  0  0  0
   -0.1945   -0.3979    1.5103 H   0  0  0  0  0  0  0  0  0  0  0  0
  1  2  1  0
  2  3  1  0
  3  4  1  0
  4  5  2  0
  4  6  1  0
  6  7  2  0
  7  8  1  0
  8  9  2  0
  9 10  1  0
 10 11  2  0
 11 12  1  0
 12 13  1  0
 12 14  2  0
 14 15  1  0
  9 16  1  0
 16  6  1  0
 15 10  1  0
  1 17  1  0
  1 18  1  0
  1 19  1  0
  2 20  1  0
  2 21  1  0
  7 22  1  0
  8 23  1  0
 11 24  1  0
 13 25  1  0
 13 26  1  0
 13 27  1  0
 16 28  1  0
M  END
$$$$
