
     RDKit          3D

 51 55  0  0  0  0  0  0  0  0999 V2000
   -9.1130    1.9322   -0.3117 C   0  0  0  0  0  0  0  0  0  0  0  0
   -7.7650    1.6729   -0.9220 C   0  0  0  0  0  0  0  0  0  0  0  0
   -7.2793    2.4999   -1.9437 C   0  0  0  0  0  0  0  0  0  0  0  0
   -6.0125    2.2836   -2.4956 C   0  0  0  0  0  0  0  0  0  0  0  0
   -5.2096    1.2482   -2.0176 C   0  0  0  0  0  0  0  0  0  0  0  0
   -5.6773    0.4320   -0.9809 C   0  0  0  0  0  0  0  0  0  0  0  0
   -4.8453   -0.6716   -0.4351 C   0  0  0  0  0  0  0  0  0  0  0  0
   -5.3865   -1.7431   -0.1939 O   0  0  0  0  0  0  0  0  0  0  0  0
   -3.5361   -0.3236   -0.2029 N   0  0  0  0  0  0  0  0  0  0  0  0
   -2.5492   -1.1432    0.2894 C   0  0  0  0  0  0  0  0  0  0  0  0
   -1.3595   -0.6887    0.6250 N   0  0  0  0  0  0  0  0  0  0  0  0
   -0.5371   -1.6908    1.0969 N   0  0  0  0  0  0  0  0  0  0  0  0
   -1.1324   -2.8651    1.0671 C   0  0  0  0  0  0  0  0  0  0  0  0
   -0.3379   -4.3193    1.6142 S   0  0  0  0  0  0  0  0  0  0  0  0
    0.6686   -3.6584    2.9722 C   0  0  0  0  0  0  0  0  0  0  0  0
    2.0823   -3.3320    2.5116 C   0  0  0  0  0  0  0  0  0  0  0  0
    3.0198   -4.0639    2.8239 O   0  0  0  0  0  0  0  0  0  0  0  0
    2.1705   -2.1571    1.7846 N   0  0  0  0  0  0  0  0  0  0  0  0
    3.3275   -1.5251    1.2905 C   0  0  0  0  0  0  0  0  0  0  0  0
    4.6268   -1.9891    1.5294 C   0  0  0  0  0  0  0  0  0  0  0  0
    5.7532   -1.3047    1.0400 C   0  0  0  0  0  0  0  0  0  0  0  0
    5.5644   -0.1277    0.2958 C   0  0  0  0  0  0  0  0  0  0  0  0
    4.2628    0.3008    0.0654 C   0  0  0  0  0  0  0  0  0  0  0  0
    3.1250   -0.3587    0.5359 C   0  0  0  0  0  0  0  0  0  0  0  0
    4.2602    1.4496   -0.6673 O   0  0  0  0  0  0  0  0  0  0  0  0
    5.5627    1.7747   -0.9009 C   0  0  0  0  0  0  0  0  0  0  0  0
    6.0018    2.8953   -1.6051 C   0  0  0  0  0  0  0  0  0  0  0  0
    7.3860    3.0599   -1.7228 C   0  0  0  0  0  0  0  0  0  0  0  0
    8.2723    2.1363   -1.1631 C   0  0  0  0  0  0  0  0  0  0  0  0
    7.8012    1.0152   -0.4636 C   0  0  0  0  0  0  0  0  0  0  0  0
    6.4115    0.8330   -0.3291 C   0  0  0  0  0  0  0  0  0  0  0  0
   -2.7317   -2.8274    0.4728 S   0  0  0  0  0  0  0  0  0  0  0  0
   -6.9532    0.6383   -0.4417 C   0  0  0  0  0  0  0  0  0  0  0  0
   -9.5302    1.0197    0.1321 H   0  0  0  0  0  0  0  0  0  0  0  0
   -9.8235    2.2772   -1.0724 H   0  0  0  0  0  0  0  0  0  0  0  0
   -9.0255    2.6948    0.4681 H   0  0  0  0  0  0  0  0  0  0  0  0
   -7.8912    3.3166   -2.3229 H   0  0  0  0  0  0  0  0  0  0  0  0
   -5.6574    2.9220   -3.3036 H   0  0  0  0  0  0  0  0  0  0  0  0
   -4.2365    1.0764   -2.4746 H   0  0  0  0  0  0  0  0  0  0  0  0
   -3.2569    0.6446   -0.2840 H   0  0  0  0  0  0  0  0  0  0  0  0
    0.2107   -2.7798    3.4400 H   0  0  0  0  0  0  0  0  0  0  0  0
    0.7363   -4.4286    3.7472 H   0  0  0  0  0  0  0  0  0  0  0  0
    1.2899   -1.7067    1.5427 H   0  0  0  0  0  0  0  0  0  0  0  0
    4.8105   -2.8894    2.1094 H   0  0  0  0  0  0  0  0  0  0  0  0
    6.7511   -1.6809    1.2478 H   0  0  0  0  0  0  0  0  0  0  0  0
    2.1373    0.0365    0.3239 H   0  0  0  0  0  0  0  0  0  0  0  0
    5.3009    3.6036   -2.0289 H   0  0  0  0  0  0  0  0  0  0  0  0
    7.7788    3.9240   -2.2567 H   0  0  0  0  0  0  0  0  0  0  0  0
    9.3453    2.2916   -1.2645 H   0  0  0  0  0  0  0  0  0  0  0  0
    8.4990    0.3062   -0.0284 H   0  0  0  0  0  0  0  0  0  0  0  0
   -7.3097   -0.0102    0.3600 H   0  0  0  0  0  0  0  0  0  0  0  0
  1  2  1  0
  2  3  2  0
  3  4  1  0
  4  5  2  0
  5  6  1  0
  6  7  1  0
  7  8  2  0
  7  9  1  0
  9 10  1  0
 10 11  2  0
 11 12  1  0
 12 13  2  0
 13 14  1  0
 14 15  1  0
 15 16  1  0
 16 17  2  0
 16 18  1  0
 18 19  1  0
 19 20  2  0
 20 21  1  0
 21 22  2  0
 22 23  1  0
 23 24  2  0
 23 25  1  0
 25 26  1  0
 26 27  2  0
 27 28  1  0
 28 29  2  0
 29 30  1  0
 30 31  2  0
 13 32  1  0
  6 33  2  0
 33  2  1  0
 32 10  1  0
 24 19  1  0
 31 26  1  0
 31 22  1  0
  1 34  1  0
  1 35  1  0
  1 36  1  0
  3 37  1  0
  4 38  1  0
  5 39  1  0
  9 40  1  0
 15 41  1  0
 15 42  1  0
 18 43  1  0
 20 44  1  0
 21 45  1  0
 24 46  1  0
 27 47  1  0
 28 48  1  0
 29 49  1  0
 30 50  1  0
 33 51  1  0
M  END
$$$$
