
     RDKit          3D

 55 58  0  0  0  0  0  0  0  0999 V2000
    6.3400   -1.9435    1.5412 C   0  0  0  0  0  0  0  0  0  0  0  0
    6.5869   -1.6781    0.0620 C   0  0  0  0  0  0  0  0  0  0  0  0
    6.0611   -0.3698   -0.3519 N   0  0  0  0  0  0  0  0  0  0  0  0
    7.0535    0.6649   -0.6714 C   0  0  0  0  0  0  0  0  0  0  0  0
    7.4931    1.4162    0.5762 C   0  0  0  0  0  0  0  0  0  0  0  0
    4.6962   -0.1257   -0.4708 C   0  0  0  0  0  0  0  0  0  0  0  0
    3.7486   -1.1623   -0.5088 C   0  0  0  0  0  0  0  0  0  0  0  0
    2.3696   -0.9227   -0.6300 C   0  0  0  0  0  0  0  0  0  0  0  0
    1.8776    0.3786   -0.7068 C   0  0  0  0  0  0  0  0  0  0  0  0
    0.4495    0.6791   -0.8645 C   0  0  0  0  0  0  0  0  0  0  0  0
   -0.5328    0.0097   -0.2381 C   0  0  0  0  0  0  0  0  0  0  0  0
   -1.9625    0.3215   -0.3897 C   0  0  0  0  0  0  0  0  0  0  0  0
   -2.9090   -0.4111    0.3074 C   0  0  0  0  0  0  0  0  0  0  0  0
   -4.2665   -0.1038    0.1516 C   0  0  0  0  0  0  0  0  0  0  0  0
   -5.2542   -0.8944    0.9000 C   0  0  0  0  0  0  0  0  0  0  0  0
   -5.8171   -2.0516    0.3405 C   0  0  0  0  0  0  0  0  0  0  0  0
   -6.7530   -2.8042    1.0531 C   0  0  0  0  0  0  0  0  0  0  0  0
   -7.1354   -2.4100    2.3338 C   0  0  0  0  0  0  0  0  0  0  0  0
   -6.5836   -1.2642    2.9033 C   0  0  0  0  0  0  0  0  0  0  0  0
   -5.6479   -0.5110    2.1912 C   0  0  0  0  0  0  0  0  0  0  0  0
   -4.6341    0.9532   -0.7188 C   0  0  0  0  0  0  0  0  0  0  0  0
   -5.9724    1.3548   -0.9552 C   0  0  0  0  0  0  0  0  0  0  0  0
   -6.2703    2.4032   -1.8243 C   0  0  0  0  0  0  0  0  0  0  0  0
   -5.2386    3.0675   -2.4708 C   0  0  0  0  0  0  0  0  0  0  0  0
   -3.9169    2.6783   -2.2431 C   0  0  0  0  0  0  0  0  0  0  0  0
   -3.5933    1.6376   -1.3825 C   0  0  0  0  0  0  0  0  0  0  0  0
   -2.2968    1.3305   -1.2223 N   0  0  0  0  0  0  0  0  0  0  0  0
    2.7954    1.4265   -0.6863 C   0  0  0  0  0  0  0  0  0  0  0  0
    4.1715    1.1742   -0.5649 C   0  0  0  0  0  0  0  0  0  0  0  0
    6.7901   -2.8984    1.8316 H   0  0  0  0  0  0  0  0  0  0  0  0
    6.7812   -1.1586    2.1637 H   0  0  0  0  0  0  0  0  0  0  0  0
    5.2729   -1.9925    1.7766 H   0  0  0  0  0  0  0  0  0  0  0  0
    7.6705   -1.7183   -0.1060 H   0  0  0  0  0  0  0  0  0  0  0  0
    6.1759   -2.4849   -0.5549 H   0  0  0  0  0  0  0  0  0  0  0  0
    7.9353    0.2018   -1.1323 H   0  0  0  0  0  0  0  0  0  0  0  0
    6.6833    1.3637   -1.4306 H   0  0  0  0  0  0  0  0  0  0  0  0
    8.1944    2.2132    0.3092 H   0  0  0  0  0  0  0  0  0  0  0  0
    6.6446    1.8685    1.0982 H   0  0  0  0  0  0  0  0  0  0  0  0
    7.9996    0.7475    1.2794 H   0  0  0  0  0  0  0  0  0  0  0  0
    4.0579   -2.2014   -0.4647 H   0  0  0  0  0  0  0  0  0  0  0  0
    1.6964   -1.7744   -0.6793 H   0  0  0  0  0  0  0  0  0  0  0  0
    0.2124    1.5154   -1.5194 H   0  0  0  0  0  0  0  0  0  0  0  0
   -0.2947   -0.8056    0.4378 H   0  0  0  0  0  0  0  0  0  0  0  0
   -2.6069   -1.2170    0.9699 H   0  0  0  0  0  0  0  0  0  0  0  0
   -5.5282   -2.3702   -0.6593 H   0  0  0  0  0  0  0  0  0  0  0  0
   -7.1829   -3.6976    0.6076 H   0  0  0  0  0  0  0  0  0  0  0  0
   -7.8637   -2.9961    2.8884 H   0  0  0  0  0  0  0  0  0  0  0  0
   -6.8812   -0.9555    3.9023 H   0  0  0  0  0  0  0  0  0  0  0  0
   -5.2262    0.3827    2.6471 H   0  0  0  0  0  0  0  0  0  0  0  0
   -6.7972    0.8476   -0.4582 H   0  0  0  0  0  0  0  0  0  0  0  0
   -7.3031    2.6966   -1.9928 H   0  0  0  0  0  0  0  0  0  0  0  0
   -5.4536    3.8869   -3.1515 H   0  0  0  0  0  0  0  0  0  0  0  0
   -3.1124    3.2034   -2.7534 H   0  0  0  0  0  0  0  0  0  0  0  0
    2.4552    2.4576   -0.7513 H   0  0  0  0  0  0  0  0  0  0  0  0
    4.8220    2.0423   -0.5274 H   0  0  0  0  0  0  0  0  0  0  0  0
  1  2  1  0
  2  3  1  0
  3  4  1  0
  4  5  1  0
  3  6  1  0
  6  7  2  0
  7  8  1  0
  8  9  2  0
  9 10  1  0
 10 11  2  3
 11 12  1  0
 12 13  2  0
 13 14  1  0
 14 15  1  0
 15 16  2  0
 16 17  1  0
 17 18  2  0
 18 19  1  0
 19 20  2  0
 14 21  2  0
 21 22  1  0
 22 23  2  0
 23 24  1  0
 24 25  2  0
 25 26  1  0
 26 27  2  0
  9 28  1  0
 28 29  2  0
 29  6  1  0
 27 12  1  0
 20 15  1  0
 26 21  1  0
  1 30  1  0
  1 31  1  0
  1 32  1  0
  2 33  1  0
  2 34  1  0
  4 35  1  0
  4 36  1  0
  5 37  1  0
  5 38  1  0
  5 39  1  0
  7 40  1  0
  8 41  1  0
 10 42  1  0
 11 43  1  0
 13 44  1  0
 16 45  1  0
 17 46  1  0
 18 47  1  0
 19 48  1  0
 20 49  1  0
 22 50  1  0
 23 51  1  0
 24 52  1  0
 25 53  1  0
 28 54  1  0
 29 55  1  0
M  END
$$$$
