
     RDKit          3D

 41 42  0  0  0  0  0  0  0  0999 V2000
    3.8107    2.7104    1.9721 C   0  0  0  0  0  0  0  0  0  0  0  0
    2.3302    2.3850    1.9561 C   0  0  0  0  0  0  0  0  0  0  0  0
    1.9971    1.8966    0.6501 O   0  0  0  0  0  0  0  0  0  0  0  0
    0.6829    1.5327    0.5033 C   0  0  0  0  0  0  0  0  0  0  0  0
   -0.1498    1.6134    1.3998 O   0  0  0  0  0  0  0  0  0  0  0  0
    0.4207    0.9839   -0.9253 C   0  0  0  0  0  0  0  0  0  0  0  0
   -0.8179    0.2027   -0.9800 N   0  0  0  0  0  0  0  0  0  0  0  0
   -2.0474    0.8101   -0.9985 C   0  0  0  0  0  0  0  0  0  0  0  0
   -2.1864    2.0131   -1.1684 O   0  0  0  0  0  0  0  0  0  0  0  0
   -3.2310   -0.0644   -0.7694 C   0  0  0  0  0  0  0  0  0  0  0  0
   -3.1971   -1.4456   -1.0107 C   0  0  0  0  0  0  0  0  0  0  0  0
   -4.3346   -2.2243   -0.7834 C   0  0  0  0  0  0  0  0  0  0  0  0
   -5.5081   -1.6274   -0.3226 C   0  0  0  0  0  0  0  0  0  0  0  0
   -5.5440   -0.2522   -0.0952 C   0  0  0  0  0  0  0  0  0  0  0  0
   -6.9971    0.4791    0.4662 Cl  0  0  0  0  0  0  0  0  0  0  0  0
   -4.4151    0.5326   -0.3188 C   0  0  0  0  0  0  0  0  0  0  0  0
    1.4834   -0.0060   -1.3140 N   0  0  0  0  0  0  0  0  0  0  0  0
    1.7441   -1.0683   -0.5143 C   0  0  0  0  0  0  0  0  0  0  0  0
    0.8913   -1.6290    0.3162 N   0  0  0  0  0  0  0  0  0  0  0  0
    1.4319   -2.6973    0.9970 N   0  0  0  0  0  0  0  0  0  0  0  0
    2.6836   -2.9161    0.6570 C   0  0  0  0  0  0  0  0  0  0  0  0
    3.5409   -3.9936    1.2103 C   0  0  0  0  0  0  0  0  0  0  0  0
    3.2892   -1.8249   -0.5216 S   0  0  0  0  0  0  0  0  0  0  0  0
    0.5148    2.2565   -1.8376 C   0  0  0  0  0  0  0  0  0  0  0  0
   -0.0591    2.0647   -3.0514 F   0  0  0  0  0  0  0  0  0  0  0  0
    1.8336    2.5191   -2.1015 F   0  0  0  0  0  0  0  0  0  0  0  0
    0.0135    3.3860   -1.2984 F   0  0  0  0  0  0  0  0  0  0  0  0
    4.4032    1.8203    1.7356 H   0  0  0  0  0  0  0  0  0  0  0  0
    4.0484    3.4620    1.2119 H   0  0  0  0  0  0  0  0  0  0  0  0
    4.1167    3.0889    2.9513 H   0  0  0  0  0  0  0  0  0  0  0  0
    1.7487    3.2884    2.1709 H   0  0  0  0  0  0  0  0  0  0  0  0
    2.1129    1.6160    2.7059 H   0  0  0  0  0  0  0  0  0  0  0  0
   -0.7501   -0.6913   -0.5085 H   0  0  0  0  0  0  0  0  0  0  0  0
   -2.3031   -1.9313   -1.3936 H   0  0  0  0  0  0  0  0  0  0  0  0
   -4.3073   -3.2954   -0.9703 H   0  0  0  0  0  0  0  0  0  0  0  0
   -6.3911   -2.2368   -0.1474 H   0  0  0  0  0  0  0  0  0  0  0  0
   -4.4515    1.6051   -0.1391 H   0  0  0  0  0  0  0  0  0  0  0  0
    2.3108    0.4673   -1.6769 H   0  0  0  0  0  0  0  0  0  0  0  0
    3.8778   -4.6693    0.4178 H   0  0  0  0  0  0  0  0  0  0  0  0
    2.9855   -4.5863    1.9443 H   0  0  0  0  0  0  0  0  0  0  0  0
    4.4190   -3.5742    1.7116 H   0  0  0  0  0  0  0  0  0  0  0  0
  1  2  1  0
  2  3  1  0
  3  4  1  0
  4  5  2  0
  4  6  1  0
  6  7  1  0
  7  8  1  0
  8  9  2  0
  8 10  1  0
 10 11  2  0
 11 12  1  0
 12 13  2  0
 13 14  1  0
 14 15  1  0
 14 16  2  0
  6 17  1  0
 17 18  1  0
 18 19  2  0
 19 20  1  0
 20 21  2  0
 21 22  1  0
 21 23  1  0
  6 24  1  0
 24 25  1  0
 24 26  1  0
 24 27  1  0
 16 10  1  0
 23 18  1  0
  1 28  1  0
  1 29  1  0
  1 30  1  0
  2 31  1  0
  2 32  1  0
  7 33  1  0
 11 34  1  0
 12 35  1  0
 13 36  1  0
 16 37  1  0
 17 38  1  0
 22 39  1  0
 22 40  1  0
 22 41  1  0
M  END
$$$$
