
     RDKit          3D

 40 42  0  0  0  0  0  0  0  0999 V2000
   -6.3436   -0.1390    0.7467 C   0  0  0  0  0  0  0  0  0  0  0  0
   -5.2057   -0.4627    0.1176 C   0  0  0  0  0  0  0  0  0  0  0  0
   -4.4632    0.4468   -0.8179 C   0  0  0  0  0  0  0  0  0  0  0  0
   -3.0714    0.6243   -0.4117 N   0  0  0  0  0  0  0  0  0  0  0  0
   -2.0181   -0.0860   -0.9339 C   0  0  0  0  0  0  0  0  0  0  0  0
   -0.8628    0.3535   -0.3262 C   0  0  0  0  0  0  0  0  0  0  0  0
    0.4193   -0.1977   -0.6313 C   0  0  0  0  0  0  0  0  0  0  0  0
    1.4209   -0.3584    0.2497 C   0  0  0  0  0  0  0  0  0  0  0  0
    2.7276   -0.9365   -0.0820 C   0  0  0  0  0  0  0  0  0  0  0  0
    2.8642   -2.0415   -0.9208 C   0  0  0  0  0  0  0  0  0  0  0  0
    4.1278   -2.5637   -1.1741 C   0  0  0  0  0  0  0  0  0  0  0  0
    5.2263   -2.0123   -0.6120 N   0  0  0  0  0  4  0  0  0  0  0  0
    6.5533   -2.5884   -0.8882 C   0  0  0  0  0  0  0  0  0  0  0  0
    5.1170   -0.9554    0.2230 C   0  0  0  0  0  0  0  0  0  0  0  0
    3.8730   -0.4024    0.5059 C   0  0  0  0  0  0  0  0  0  0  0  0
   -1.2199    1.4061    0.5735 C   0  0  0  0  0  0  0  0  0  0  0  0
   -0.5017    2.2736    1.4279 C   0  0  0  0  0  0  0  0  0  0  0  0
   -1.1838    3.2179    2.2029 C   0  0  0  0  0  0  0  0  0  0  0  0
   -2.5682    3.3165    2.1371 C   0  0  0  0  0  0  0  0  0  0  0  0
   -3.3057    2.4860    1.2905 C   0  0  0  0  0  0  0  0  0  0  0  0
   -2.6128    1.5442    0.5110 C   0  0  0  0  0  0  0  0  0  0  0  0
   -6.8166    0.8302    0.6195 H   0  0  0  0  0  0  0  0  0  0  0  0
   -6.8297   -0.8460    1.4132 H   0  0  0  0  0  0  0  0  0  0  0  0
   -4.7774   -1.4491    0.2832 H   0  0  0  0  0  0  0  0  0  0  0  0
   -4.4591    0.0157   -1.8255 H   0  0  0  0  0  0  0  0  0  0  0  0
   -4.9185    1.4407   -0.8889 H   0  0  0  0  0  0  0  0  0  0  0  0
   -2.1861   -0.8529   -1.6790 H   0  0  0  0  0  0  0  0  0  0  0  0
    0.5520   -0.5231   -1.6609 H   0  0  0  0  0  0  0  0  0  0  0  0
    1.2850   -0.0528    1.2853 H   0  0  0  0  0  0  0  0  0  0  0  0
    1.9929   -2.5127   -1.3716 H   0  0  0  0  0  0  0  0  0  0  0  0
    4.2687   -3.4262   -1.8195 H   0  0  0  0  0  0  0  0  0  0  0  0
    7.3055   -1.7972   -0.8344 H   0  0  0  0  0  0  0  0  0  0  0  0
    6.5545   -3.0203   -1.8923 H   0  0  0  0  0  0  0  0  0  0  0  0
    6.7402   -3.3561   -0.1333 H   0  0  0  0  0  0  0  0  0  0  0  0
    6.0291   -0.5610    0.6622 H   0  0  0  0  0  0  0  0  0  0  0  0
    3.8061    0.4500    1.1800 H   0  0  0  0  0  0  0  0  0  0  0  0
    0.5803    2.2251    1.4838 H   0  0  0  0  0  0  0  0  0  0  0  0
   -0.6269    3.8817    2.8595 H   0  0  0  0  0  0  0  0  0  0  0  0
   -3.0862    4.0535    2.7470 H   0  0  0  0  0  0  0  0  0  0  0  0
   -4.3866    2.5760    1.2447 H   0  0  0  0  0  0  0  0  0  0  0  0
  1  2  2  0
  2  3  1  0
  3  4  1  0
  4  5  1  0
  5  6  2  0
  6  7  1  0
  7  8  2  3
  8  9  1  0
  9 10  2  0
 10 11  1  0
 11 12  2  0
 12 13  1  0
 12 14  1  0
 14 15  2  0
  6 16  1  0
 16 17  2  0
 17 18  1  0
 18 19  2  0
 19 20  1  0
 20 21  2  0
 21  4  1  0
 15  9  1  0
 21 16  1  0
  1 22  1  0
  1 23  1  0
  2 24  1  0
  3 25  1  0
  3 26  1  0
  5 27  1  0
  7 28  1  0
  8 29  1  0
 10 30  1  0
 11 31  1  0
 13 32  1  0
 13 33  1  0
 13 34  1  0
 14 35  1  0
 15 36  1  0
 17 37  1  0
 18 38  1  0
 19 39  1  0
 20 40  1  0
M  CHG  1  12   1
M  END
$$$$
