
     RDKit          3D

 40 41  0  0  0  0  0  0  0  0999 V2000
    8.0736   -0.4094   -0.0768 C   0  0  0  0  0  0  0  0  0  0  0  0
    6.9904   -1.1769    0.4333 O   0  0  0  0  0  0  0  0  0  0  0  0
    5.7549   -0.5920    0.4118 C   0  0  0  0  0  0  0  0  0  0  0  0
    5.4556    0.6799   -0.0735 C   0  0  0  0  0  0  0  0  0  0  0  0
    4.1388    1.1564   -0.0344 C   0  0  0  0  0  0  0  0  0  0  0  0
    3.1035    0.3655    0.4777 C   0  0  0  0  0  0  0  0  0  0  0  0
    1.7435    0.9163    0.5185 C   0  0  0  0  0  0  0  0  0  0  0  0
    0.6419    0.2000    0.2446 C   0  0  0  0  0  0  0  0  0  0  0  0
   -0.6976    0.8540    0.2928 C   0  0  0  0  0  0  0  0  0  0  0  0
   -0.8154    2.0326    0.5983 O   0  0  0  0  0  0  0  0  0  0  0  0
   -1.7148   -0.0212   -0.0425 N   0  0  0  0  0  0  0  0  0  0  0  0
   -3.0795    0.2159   -0.1071 C   0  0  0  0  0  0  0  0  0  0  0  0
   -3.6101    1.4082    0.1869 C   0  0  0  0  0  0  0  0  0  0  0  0
   -5.0569    1.6376    0.1163 C   0  0  0  0  0  0  0  0  0  0  0  0
   -5.5039    2.7312    0.4532 O   0  0  0  0  0  0  0  0  0  0  0  0
   -5.8164    0.5830   -0.3289 N   0  0  0  0  0  0  0  0  0  0  0  0
   -7.2530    0.7594   -0.4266 C   0  0  0  0  0  0  0  0  0  0  0  0
   -5.3081   -0.6780   -0.5937 C   0  0  0  0  0  0  0  0  0  0  0  0
   -6.0482   -1.6147   -0.9045 O   0  0  0  0  0  0  0  0  0  0  0  0
   -3.9207   -0.8287   -0.4846 N   0  0  0  0  0  0  0  0  0  0  0  0
   -3.3890   -2.1551   -0.7847 C   0  0  0  0  0  0  0  0  0  0  0  0
    3.4130   -0.9031    0.9790 C   0  0  0  0  0  0  0  0  0  0  0  0
    4.7280   -1.3770    0.9395 C   0  0  0  0  0  0  0  0  0  0  0  0
    8.9827   -1.0115    0.0160 H   0  0  0  0  0  0  0  0  0  0  0  0
    8.2190    0.5054    0.5073 H   0  0  0  0  0  0  0  0  0  0  0  0
    7.9312   -0.1829   -1.1386 H   0  0  0  0  0  0  0  0  0  0  0  0
    6.2194    1.3298   -0.4871 H   0  0  0  0  0  0  0  0  0  0  0  0
    3.9304    2.1538   -0.4171 H   0  0  0  0  0  0  0  0  0  0  0  0
    1.6669    1.9751    0.7631 H   0  0  0  0  0  0  0  0  0  0  0  0
    0.7020   -0.8454   -0.0278 H   0  0  0  0  0  0  0  0  0  0  0  0
   -1.4220   -0.9550   -0.2798 H   0  0  0  0  0  0  0  0  0  0  0  0
   -3.0438    2.2750    0.4985 H   0  0  0  0  0  0  0  0  0  0  0  0
   -7.7219    0.2588    0.4267 H   0  0  0  0  0  0  0  0  0  0  0  0
   -7.5385    1.8148   -0.4225 H   0  0  0  0  0  0  0  0  0  0  0  0
   -7.6233    0.2981   -1.3478 H   0  0  0  0  0  0  0  0  0  0  0  0
   -2.8707   -2.5439    0.0980 H   0  0  0  0  0  0  0  0  0  0  0  0
   -2.6967   -2.0824   -1.6300 H   0  0  0  0  0  0  0  0  0  0  0  0
   -4.1659   -2.8748   -1.0557 H   0  0  0  0  0  0  0  0  0  0  0  0
    2.6456   -1.5333    1.4202 H   0  0  0  0  0  0  0  0  0  0  0  0
    4.9558   -2.3653    1.3319 H   0  0  0  0  0  0  0  0  0  0  0  0
  1  2  1  0
  2  3  1  0
  3  4  2  0
  4  5  1  0
  5  6  2  0
  6  7  1  0
  7  8  2  3
  8  9  1  0
  9 10  2  0
  9 11  1  0
 11 12  1  0
 12 13  2  0
 13 14  1  0
 14 15  2  0
 14 16  1  0
 16 17  1  0
 16 18  1  0
 18 19  2  0
 18 20  1  0
 20 21  1  0
  6 22  1  0
 22 23  2  0
 23  3  1  0
 20 12  1  0
  1 24  1  0
  1 25  1  0
  1 26  1  0
  4 27  1  0
  5 28  1  0
  7 29  1  0
  8 30  1  0
 11 31  1  0
 13 32  1  0
 17 33  1  0
 17 34  1  0
 17 35  1  0
 21 36  1  0
 21 37  1  0
 21 38  1  0
 22 39  1  0
 23 40  1  0
M  END
$$$$
