
     RDKit          3D

 37 39  0  0  0  0  0  0  0  0999 V2000
    4.5304    1.8793    2.9787 O   0  0  0  0  0  0  0  0  0  0  0  0
    3.6314    1.3941    1.9945 C   0  0  0  0  0  0  0  0  0  0  0  0
    3.5846   -0.1290    2.0709 C   0  0  0  0  0  0  0  0  0  0  0  0
    2.6695   -0.6613    1.0387 N   0  0  0  0  0  4  0  0  0  0  0  0
    3.1529   -0.9908   -0.1815 C   0  0  0  0  0  0  0  0  0  0  0  0
    2.3102   -1.4903   -1.1675 C   0  0  0  0  0  0  0  0  0  0  0  0
    0.9546   -1.6471   -0.8952 C   0  0  0  0  0  0  0  0  0  0  0  0
    0.0593   -2.1692   -1.9316 C   0  0  0  0  0  0  0  0  0  0  0  0
   -1.0511   -1.5599   -2.3821 C   0  0  0  0  0  0  0  0  0  0  0  0
   -1.5465   -0.2876   -1.9768 C   0  0  0  0  0  0  0  0  0  0  0  0
   -1.0022    0.9202   -2.3512 C   0  0  0  0  0  0  0  0  0  0  0  0
   -1.7743    1.9106   -1.8007 N   0  0  0  0  0  0  0  0  0  0  0  0
   -2.7878    1.3616   -1.0464 C   0  0  0  0  0  0  0  0  0  0  0  0
   -3.7941    1.9854   -0.2996 C   0  0  0  0  0  0  0  0  0  0  0  0
   -4.7181    1.1651    0.3546 C   0  0  0  0  0  0  0  0  0  0  0  0
   -4.6404   -0.2225    0.2608 C   0  0  0  0  0  0  0  0  0  0  0  0
   -3.6295   -0.8311   -0.4917 C   0  0  0  0  0  0  0  0  0  0  0  0
   -2.6817   -0.0264   -1.1573 C   0  0  0  0  0  0  0  0  0  0  0  0
    0.4825   -1.3263    0.3764 C   0  0  0  0  0  0  0  0  0  0  0  0
    1.3591   -0.8277    1.3295 C   0  0  0  0  0  0  0  0  0  0  0  0
    4.5474    2.8545    2.9292 H   0  0  0  0  0  0  0  0  0  0  0  0
    3.9759    1.7246    1.0094 H   0  0  0  0  0  0  0  0  0  0  0  0
    2.6416    1.8242    2.1776 H   0  0  0  0  0  0  0  0  0  0  0  0
    4.5774   -0.5676    1.9180 H   0  0  0  0  0  0  0  0  0  0  0  0
    3.2390   -0.4698    3.0537 H   0  0  0  0  0  0  0  0  0  0  0  0
    4.2152   -0.8475   -0.3599 H   0  0  0  0  0  0  0  0  0  0  0  0
    2.7129   -1.7418   -2.1468 H   0  0  0  0  0  0  0  0  0  0  0  0
    0.3332   -3.1341   -2.3547 H   0  0  0  0  0  0  0  0  0  0  0  0
   -1.6471   -2.0786   -3.1324 H   0  0  0  0  0  0  0  0  0  0  0  0
   -0.1603    1.1653   -2.9848 H   0  0  0  0  0  0  0  0  0  0  0  0
   -1.6405    2.9032   -1.9394 H   0  0  0  0  0  0  0  0  0  0  0  0
   -3.8710    3.0663   -0.2358 H   0  0  0  0  0  0  0  0  0  0  0  0
   -5.5190    1.6191    0.9352 H   0  0  0  0  0  0  0  0  0  0  0  0
   -5.3794   -0.8392    0.7675 H   0  0  0  0  0  0  0  0  0  0  0  0
   -3.5861   -1.9137   -0.5669 H   0  0  0  0  0  0  0  0  0  0  0  0
   -0.5687   -1.4537    0.6290 H   0  0  0  0  0  0  0  0  0  0  0  0
    1.0212   -0.5581    2.3265 H   0  0  0  0  0  0  0  0  0  0  0  0
  1  2  1  0
  2  3  1  0
  3  4  1  0
  4  5  2  0
  5  6  1  0
  6  7  2  0
  7  8  1  0
  8  9  2  3
  9 10  1  0
 10 11  2  0
 11 12  1  0
 12 13  1  0
 13 14  2  0
 14 15  1  0
 15 16  2  0
 16 17  1  0
 17 18  2  0
  7 19  1  0
 19 20  2  0
 20  4  1  0
 18 10  1  0
 18 13  1  0
  1 21  1  0
  2 22  1  0
  2 23  1  0
  3 24  1  0
  3 25  1  0
  5 26  1  0
  6 27  1  0
  8 28  1  0
  9 29  1  0
 11 30  1  0
 12 31  1  0
 14 32  1  0
 15 33  1  0
 16 34  1  0
 17 35  1  0
 19 36  1  0
 20 37  1  0
M  CHG  1   4   1
M  END
$$$$
