
     RDKit          3D

 36 37  0  0  0  0  0  0  0  0999 V2000
   -0.4496    2.0005    1.8615 O   0  0  0  0  0  0  0  0  0  0  0  0
   -0.2770    0.7907    1.7516 C   0  0  0  0  0  0  0  0  0  0  0  0
    0.7059    0.0211    2.6366 C   0  0  0  0  0  0  0  0  0  0  0  0
    1.9862   -0.1628    2.0306 O   0  0  0  0  0  0  0  0  0  0  0  0
    2.0491   -1.1339    1.0901 C   0  0  0  0  0  0  0  0  0  0  0  0
    1.1138   -1.8331    0.7296 O   0  0  0  0  0  0  0  0  0  0  0  0
    3.4253   -1.2485    0.5390 C   0  0  0  0  0  0  0  0  0  0  0  0
    3.6893   -2.2842   -0.3694 C   0  0  0  0  0  0  0  0  0  0  0  0
    4.9651   -2.4348   -0.9162 C   0  0  0  0  0  0  0  0  0  0  0  0
    5.9823   -1.5508   -0.5592 C   0  0  0  0  0  0  0  0  0  0  0  0
    5.7203   -0.5196    0.3418 C   0  0  0  0  0  0  0  0  0  0  0  0
    6.9798    0.5680    0.7782 Cl  0  0  0  0  0  0  0  0  0  0  0  0
    4.4496   -0.3612    0.8935 C   0  0  0  0  0  0  0  0  0  0  0  0
   -0.9499    0.0065    0.8386 N   0  0  0  0  0  0  0  0  0  0  0  0
   -1.8001    0.5817   -0.1890 C   0  0  0  0  0  0  0  0  0  0  0  0
   -3.0602    1.2662    0.3558 C   0  0  0  0  0  0  0  0  0  0  0  0
   -4.0309    1.5301   -0.6945 N   0  0  0  0  0  0  0  0  0  0  0  0
   -5.0143    0.6438   -1.0591 C   0  0  0  0  0  0  0  0  0  0  0  0
   -5.1220   -0.5377   -0.3890 O   0  0  0  0  0  0  0  0  0  0  0  0
   -5.7795    1.0497   -2.0787 C   0  0  0  0  0  0  0  0  0  0  0  0
   -5.2766    2.6065   -2.6613 S   0  0  0  0  0  0  0  0  0  0  0  0
   -3.9655    2.6798   -1.4651 C   0  0  0  0  0  0  0  0  0  0  0  0
   -3.1686    3.5992   -1.3958 O   0  0  0  0  0  0  0  0  0  0  0  0
    0.2732   -0.9393    2.9422 H   0  0  0  0  0  0  0  0  0  0  0  0
    0.8548    0.5996    3.5545 H   0  0  0  0  0  0  0  0  0  0  0  0
    2.9020   -2.9792   -0.6557 H   0  0  0  0  0  0  0  0  0  0  0  0
    5.1649   -3.2394   -1.6205 H   0  0  0  0  0  0  0  0  0  0  0  0
    6.9746   -1.6686   -0.9866 H   0  0  0  0  0  0  0  0  0  0  0  0
    4.2681    0.4530    1.5903 H   0  0  0  0  0  0  0  0  0  0  0  0
   -0.5347   -0.9056    0.6424 H   0  0  0  0  0  0  0  0  0  0  0  0
   -2.0761   -0.2438   -0.8544 H   0  0  0  0  0  0  0  0  0  0  0  0
   -1.2036    1.2909   -0.7736 H   0  0  0  0  0  0  0  0  0  0  0  0
   -2.7912    2.2218    0.8199 H   0  0  0  0  0  0  0  0  0  0  0  0
   -3.5275    0.6578    1.1389 H   0  0  0  0  0  0  0  0  0  0  0  0
   -5.8751   -1.0307   -0.7571 H   0  0  0  0  0  0  0  0  0  0  0  0
   -6.6018    0.5061   -2.5189 H   0  0  0  0  0  0  0  0  0  0  0  0
  1  2  2  0
  2  3  1  0
  3  4  1  0
  4  5  1  0
  5  6  2  0
  5  7  1  0
  7  8  2  0
  8  9  1  0
  9 10  2  0
 10 11  1  0
 11 12  1  0
 11 13  2  0
  2 14  1  0
 14 15  1  0
 15 16  1  0
 16 17  1  0
 17 18  1  0
 18 19  1  0
 18 20  2  0
 20 21  1  0
 21 22  1  0
 22 23  2  0
 13  7  1  0
 22 17  1  0
  3 24  1  0
  3 25  1  0
  8 26  1  0
  9 27  1  0
 10 28  1  0
 13 29  1  0
 14 30  1  0
 15 31  1  0
 15 32  1  0
 16 33  1  0
 16 34  1  0
 19 35  1  0
 20 36  1  0
M  END
$$$$
