
     RDKit          3D

 43 46  0  0  0  0  0  0  0  0999 V2000
    6.5521    0.9553   -1.5642 C   0  0  0  0  0  0  0  0  0  0  0  0
    5.1099    0.8827   -1.1538 C   0  0  0  0  0  0  0  0  0  0  0  0
    4.1203    1.4398   -1.9689 C   0  0  0  0  0  0  0  0  0  0  0  0
    2.7724    1.3602   -1.6060 C   0  0  0  0  0  0  0  0  0  0  0  0
    2.3977    0.7125   -0.4231 C   0  0  0  0  0  0  0  0  0  0  0  0
    0.8804    0.6290   -0.0234 C   0  0  0  0  0  0  0  0  0  0  0  0
   -0.1859    1.1897   -0.7167 C   0  0  0  0  0  0  0  0  0  0  0  0
   -1.3709    0.9125   -0.0326 N   0  0  0  0  0  4  0  0  0  0  0  0
   -2.7171    1.3358   -0.4120 C   0  0  0  0  0  0  0  0  0  0  0  0
   -3.5745    0.1264   -0.6836 C   0  0  0  0  0  0  0  0  0  0  0  0
   -4.8468    0.0134   -0.0999 C   0  0  0  0  0  0  0  0  0  0  0  0
   -5.6470   -1.1047   -0.3487 C   0  0  0  0  0  0  0  0  0  0  0  0
   -5.1907   -2.1196   -1.1886 C   0  0  0  0  0  0  0  0  0  0  0  0
   -3.9386   -2.0087   -1.7855 C   0  0  0  0  0  0  0  0  0  0  0  0
   -3.3670   -3.2553   -2.8219 Cl  0  0  0  0  0  0  0  0  0  0  0  0
   -3.1356   -0.8933   -1.5446 C   0  0  0  0  0  0  0  0  0  0  0  0
   -1.0468    0.2107    1.0494 C   0  0  0  0  0  0  0  0  0  0  0  0
    0.2692    0.0182    1.0573 N   0  0  0  0  0  0  0  0  0  0  0  0
    0.6978   -0.7675    2.2058 C   0  0  0  0  0  0  0  0  0  0  0  0
   -0.6328   -1.3078    2.7962 C   0  0  0  0  0  0  0  0  0  0  0  0
   -1.7327   -0.3996    2.2121 C   0  0  0  0  0  0  0  0  0  0  0  0
    3.3824    0.1512    0.3901 C   0  0  0  0  0  0  0  0  0  0  0  0
    4.7301    0.2324    0.0236 C   0  0  0  0  0  0  0  0  0  0  0  0
    7.2163    0.6707   -0.7411 H   0  0  0  0  0  0  0  0  0  0  0  0
    6.7366    0.2790   -2.4049 H   0  0  0  0  0  0  0  0  0  0  0  0
    6.8138    1.9772   -1.8593 H   0  0  0  0  0  0  0  0  0  0  0  0
    4.3982    1.9401   -2.8955 H   0  0  0  0  0  0  0  0  0  0  0  0
    2.0457    1.8114   -2.2743 H   0  0  0  0  0  0  0  0  0  0  0  0
   -0.2528    1.7672   -1.6234 H   0  0  0  0  0  0  0  0  0  0  0  0
   -2.6729    1.9680   -1.3051 H   0  0  0  0  0  0  0  0  0  0  0  0
   -3.1172    1.9358    0.4132 H   0  0  0  0  0  0  0  0  0  0  0  0
   -5.2357    0.7939    0.5531 H   0  0  0  0  0  0  0  0  0  0  0  0
   -6.6325   -1.1850    0.1077 H   0  0  0  0  0  0  0  0  0  0  0  0
   -5.8189   -2.9869   -1.3794 H   0  0  0  0  0  0  0  0  0  0  0  0
   -2.1650   -0.8259   -2.0310 H   0  0  0  0  0  0  0  0  0  0  0  0
    1.3498   -1.5881    1.8983 H   0  0  0  0  0  0  0  0  0  0  0  0
    1.2057   -0.1078    2.9153 H   0  0  0  0  0  0  0  0  0  0  0  0
   -0.6338   -1.3292    3.8891 H   0  0  0  0  0  0  0  0  0  0  0  0
   -0.7886   -2.3330    2.4404 H   0  0  0  0  0  0  0  0  0  0  0  0
   -2.6067   -0.9545    1.8727 H   0  0  0  0  0  0  0  0  0  0  0  0
   -2.0011    0.4200    2.8818 H   0  0  0  0  0  0  0  0  0  0  0  0
    3.1473   -0.3511    1.3187 H   0  0  0  0  0  0  0  0  0  0  0  0
    5.4859   -0.2152    0.6672 H   0  0  0  0  0  0  0  0  0  0  0  0
  1  2  1  0
  2  3  2  0
  3  4  1  0
  4  5  2  0
  5  6  1  0
  6  7  2  0
  7  8  1  0
  8  9  1  0
  9 10  1  0
 10 11  2  0
 11 12  1  0
 12 13  2  0
 13 14  1  0
 14 15  1  0
 14 16  2  0
  8 17  2  0
 17 18  1  0
 18 19  1  0
 19 20  1  0
 20 21  1  0
  5 22  1  0
 22 23  2  0
 23  2  1  0
 18  6  1  0
 16 10  1  0
 21 17  1  0
  1 24  1  0
  1 25  1  0
  1 26  1  0
  3 27  1  0
  4 28  1  0
  7 29  1  0
  9 30  1  0
  9 31  1  0
 11 32  1  0
 12 33  1  0
 13 34  1  0
 16 35  1  0
 19 36  1  0
 19 37  1  0
 20 38  1  0
 20 39  1  0
 21 40  1  0
 21 41  1  0
 22 42  1  0
 23 43  1  0
M  CHG  1   8   1
M  END
$$$$
