
     RDKit          3D

 38 39  0  0  0  0  0  0  0  0999 V2000
   -0.1853    0.2163   -1.8238 C   0  0  0  0  0  0  0  0  0  0  0  0
   -0.3548   -0.5241   -0.5794 N   0  0  0  0  0  0  0  0  0  0  0  0
   -1.7298   -0.8553   -0.1833 C   0  0  0  0  0  0  0  0  0  0  0  0
   -2.3715    0.2540    0.6570 C   0  0  0  0  0  0  0  0  0  0  0  0
   -3.8533    0.0428    0.8490 C   0  0  0  0  0  0  0  0  0  0  0  0
   -4.7375    1.1181    0.7269 C   0  0  0  0  0  0  0  0  0  0  0  0
   -6.0972    0.8987    0.9339 C   0  0  0  0  0  0  0  0  0  0  0  0
   -6.5380   -0.3773    1.2710 C   0  0  0  0  0  0  0  0  0  0  0  0
   -5.5942   -1.3853    1.3924 C   0  0  0  0  0  0  0  0  0  0  0  0
   -4.2710   -1.2022    1.1889 N   0  0  0  0  0  0  0  0  0  0  0  0
    0.6668   -0.7844    0.3345 C   0  0  0  0  0  0  0  0  0  0  0  0
    0.5114   -1.3958    1.3893 O   0  0  0  0  0  0  0  0  0  0  0  0
    2.0252   -0.2922    0.0367 C   0  0  0  0  0  0  0  0  0  0  0  0
    2.3102    1.0735    0.1100 C   0  0  0  0  0  0  0  0  0  0  0  0
    3.6080    1.5158   -0.1524 C   0  0  0  0  0  0  0  0  0  0  0  0
    4.6245    0.6051   -0.4724 C   0  0  0  0  0  0  0  0  0  0  0  0
    5.8409    1.1823   -0.7041 O   0  0  0  0  0  0  0  0  0  0  0  0
    6.9138    0.3345   -1.0776 C   0  0  0  0  0  0  0  0  0  0  0  0
    8.0149    1.0948   -1.2798 F   0  0  0  0  0  0  0  0  0  0  0  0
    7.1939   -0.5605   -0.1030 F   0  0  0  0  0  0  0  0  0  0  0  0
    6.6390   -0.3196   -2.2291 F   0  0  0  0  0  0  0  0  0  0  0  0
    4.3303   -0.7618   -0.5224 C   0  0  0  0  0  0  0  0  0  0  0  0
    3.0323   -1.2124   -0.2595 C   0  0  0  0  0  0  0  0  0  0  0  0
    0.8452    0.1811   -2.1820 H   0  0  0  0  0  0  0  0  0  0  0  0
   -0.4751    1.2574   -1.6549 H   0  0  0  0  0  0  0  0  0  0  0  0
   -0.8255   -0.2213   -2.5959 H   0  0  0  0  0  0  0  0  0  0  0  0
   -1.7150   -1.7934    0.3872 H   0  0  0  0  0  0  0  0  0  0  0  0
   -2.3124   -1.0506   -1.0930 H   0  0  0  0  0  0  0  0  0  0  0  0
   -1.8932    0.3103    1.6430 H   0  0  0  0  0  0  0  0  0  0  0  0
   -2.1997    1.2222    0.1682 H   0  0  0  0  0  0  0  0  0  0  0  0
   -4.3814    2.1137    0.4737 H   0  0  0  0  0  0  0  0  0  0  0  0
   -6.8063    1.7182    0.8359 H   0  0  0  0  0  0  0  0  0  0  0  0
   -7.5887   -0.5809    1.4427 H   0  0  0  0  0  0  0  0  0  0  0  0
   -5.8832   -2.3993    1.6651 H   0  0  0  0  0  0  0  0  0  0  0  0
    1.5342    1.7859    0.3788 H   0  0  0  0  0  0  0  0  0  0  0  0
    3.8316    2.5799   -0.0984 H   0  0  0  0  0  0  0  0  0  0  0  0
    5.0824   -1.5115   -0.7535 H   0  0  0  0  0  0  0  0  0  0  0  0
    2.8085   -2.2768   -0.2767 H   0  0  0  0  0  0  0  0  0  0  0  0
  1  2  1  0
  2  3  1  0
  3  4  1  0
  4  5  1  0
  5  6  2  0
  6  7  1  0
  7  8  2  0
  8  9  1  0
  9 10  2  0
  2 11  1  0
 11 12  2  0
 11 13  1  0
 13 14  2  0
 14 15  1  0
 15 16  2  0
 16 17  1  0
 17 18  1  0
 18 19  1  0
 18 20  1  0
 18 21  1  0
 16 22  1  0
 22 23  2  0
 10  5  1  0
 23 13  1  0
  1 24  1  0
  1 25  1  0
  1 26  1  0
  3 27  1  0
  3 28  1  0
  4 29  1  0
  4 30  1  0
  6 31  1  0
  7 32  1  0
  8 33  1  0
  9 34  1  0
 14 35  1  0
 15 36  1  0
 22 37  1  0
 23 38  1  0
M  END
$$$$
