
     RDKit          3D

 58 62  0  0  0  0  0  0  0  0999 V2000
    0.8010    3.5742    1.5237 O   0  0  0  0  0  0  0  0  0  0  0  0
    0.0033    2.8504    0.9334 C   0  0  0  0  0  0  0  0  0  0  0  0
   -1.4864    3.1671    0.9636 C   0  0  0  0  0  0  0  0  0  0  0  0
   -2.4505    1.8311    1.7331 S   0  0  0  0  0  0  0  0  0  0  0  0
   -3.0177    0.9539    0.3122 C   0  0  0  0  0  0  0  0  0  0  0  0
   -2.2445    0.9878   -0.7259 N   0  0  0  0  0  0  0  0  0  0  0  0
   -2.6153    0.2668   -1.8683 C   0  0  0  0  0  0  0  0  0  0  0  0
   -1.7849    0.3066   -2.9908 C   0  0  0  0  0  0  0  0  0  0  0  0
   -2.1151   -0.4044   -4.1512 C   0  0  0  0  0  0  0  0  0  0  0  0
   -3.2834   -1.1606   -4.1960 C   0  0  0  0  0  0  0  0  0  0  0  0
   -4.1193   -1.2057   -3.0811 C   0  0  0  0  0  0  0  0  0  0  0  0
   -3.7788   -0.4910   -1.9226 C   0  0  0  0  0  0  0  0  0  0  0  0
   -4.6426   -0.5099   -0.7322 C   0  0  0  0  0  0  0  0  0  0  0  0
   -5.7103   -1.1147   -0.8001 O   0  0  0  0  0  0  0  0  0  0  0  0
   -4.1995    0.2232    0.3767 N   0  0  0  0  0  0  0  0  0  0  0  0
   -4.9972    0.1247    1.5605 C   0  0  0  0  0  0  0  0  0  0  0  0
   -5.5961    1.2523    2.1396 C   0  0  0  0  0  0  0  0  0  0  0  0
   -6.3882    1.1106    3.2842 C   0  0  0  0  0  0  0  0  0  0  0  0
   -6.5851   -0.1503    3.8410 C   0  0  0  0  0  0  0  0  0  0  0  0
   -7.3402   -0.2730    4.9390 F   0  0  0  0  0  0  0  0  0  0  0  0
   -6.0105   -1.2800    3.2790 C   0  0  0  0  0  0  0  0  0  0  0  0
   -5.2265   -1.1364    2.1420 C   0  0  0  0  0  0  0  0  0  0  0  0
   -4.6365   -2.2297    1.6311 F   0  0  0  0  0  0  0  0  0  0  0  0
    0.3217    1.7390    0.1767 N   0  0  0  0  0  0  0  0  0  0  0  0
    1.5932    1.1751   -0.0413 C   0  0  0  0  0  0  0  0  0  0  0  0
    2.7884    1.7765    0.3305 C   0  0  0  0  0  0  0  0  0  0  0  0
    4.0149    1.1342    0.0876 C   0  0  0  0  0  0  0  0  0  0  0  0
    4.0979   -0.1296   -0.5145 C   0  0  0  0  0  0  0  0  0  0  0  0
    5.3137   -0.7568   -0.7264 N   0  0  0  0  0  0  0  0  0  0  0  0
    5.4473   -1.9567   -1.5644 C   0  0  0  0  0  0  0  0  0  0  0  0
    6.9053   -2.1119   -2.0288 C   0  0  0  0  0  0  0  0  0  0  0  0
    7.8546   -2.2336   -0.9613 O   0  0  0  0  0  0  0  0  0  0  0  0
    7.4119   -1.6296    0.2605 C   0  0  0  0  0  0  0  0  0  0  0  0
    6.5072   -0.4014    0.0637 C   0  0  0  0  0  0  0  0  0  0  0  0
    2.8785   -0.7059   -0.8990 C   0  0  0  0  0  0  0  0  0  0  0  0
    1.6486   -0.0694   -0.6719 C   0  0  0  0  0  0  0  0  0  0  0  0
   -1.8367    3.4215   -0.0416 H   0  0  0  0  0  0  0  0  0  0  0  0
   -1.6246    4.0600    1.5835 H   0  0  0  0  0  0  0  0  0  0  0  0
   -0.8716    0.8955   -2.9675 H   0  0  0  0  0  0  0  0  0  0  0  0
   -1.4588   -0.3679   -5.0180 H   0  0  0  0  0  0  0  0  0  0  0  0
   -3.5423   -1.7164   -5.1002 H   0  0  0  0  0  0  0  0  0  0  0  0
   -5.0305   -1.7962   -3.1171 H   0  0  0  0  0  0  0  0  0  0  0  0
   -5.4760    2.2394    1.7032 H   0  0  0  0  0  0  0  0  0  0  0  0
   -6.8576    1.9739    3.7449 H   0  0  0  0  0  0  0  0  0  0  0  0
   -6.1642   -2.2568    3.7228 H   0  0  0  0  0  0  0  0  0  0  0  0
   -0.4703    1.2310   -0.2187 H   0  0  0  0  0  0  0  0  0  0  0  0
    2.8141    2.7591    0.7950 H   0  0  0  0  0  0  0  0  0  0  0  0
    4.9167    1.6705    0.3699 H   0  0  0  0  0  0  0  0  0  0  0  0
    4.8155   -1.8863   -2.4558 H   0  0  0  0  0  0  0  0  0  0  0  0
    5.1462   -2.8321   -0.9813 H   0  0  0  0  0  0  0  0  0  0  0  0
    7.0051   -3.0018   -2.6561 H   0  0  0  0  0  0  0  0  0  0  0  0
    7.2023   -1.2489   -2.6354 H   0  0  0  0  0  0  0  0  0  0  0  0
    6.8853   -2.3987    0.8397 H   0  0  0  0  0  0  0  0  0  0  0  0
    8.3050   -1.3491    0.8295 H   0  0  0  0  0  0  0  0  0  0  0  0
    6.2385   -0.0298    1.0581 H   0  0  0  0  0  0  0  0  0  0  0  0
    7.0571    0.3814   -0.4677 H   0  0  0  0  0  0  0  0  0  0  0  0
    2.8506   -1.6889   -1.3603 H   0  0  0  0  0  0  0  0  0  0  0  0
    0.7371   -0.5824   -0.9681 H   0  0  0  0  0  0  0  0  0  0  0  0
  1  2  2  0
  2  3  1  0
  3  4  1  0
  4  5  1  0
  5  6  2  0
  6  7  1  0
  7  8  2  0
  8  9  1  0
  9 10  2  0
 10 11  1  0
 11 12  2  0
 12 13  1  0
 13 14  2  0
 13 15  1  0
 15 16  1  0
 16 17  2  0
 17 18  1  0
 18 19  2  0
 19 20  1  0
 19 21  1  0
 21 22  2  0
 22 23  1  0
  2 24  1  0
 24 25  1  0
 25 26  2  0
 26 27  1  0
 27 28  2  0
 28 29  1  0
 29 30  1  0
 30 31  1  0
 31 32  1  0
 32 33  1  0
 33 34  1  0
 28 35  1  0
 35 36  2  0
 15  5  1  0
 22 16  1  0
 36 25  1  0
 12  7  1  0
 34 29  1  0
  3 37  1  0
  3 38  1  0
  8 39  1  0
  9 40  1  0
 10 41  1  0
 11 42  1  0
 17 43  1  0
 18 44  1  0
 21 45  1  0
 24 46  1  0
 26 47  1  0
 27 48  1  0
 30 49  1  0
 30 50  1  0
 31 51  1  0
 31 52  1  0
 33 53  1  0
 33 54  1  0
 34 55  1  0
 34 56  1  0
 35 57  1  0
 36 58  1  0
M  END
$$$$
