
     RDKit          3D

 74 75  0  0  0  0  0  0  0  0999 V2000
    0.2719    6.3008   -0.1000 C   0  0  0  0  0  0  0  0  0  0  0  0
   -0.3649    5.1057   -0.5340 O   0  0  0  0  0  0  0  0  0  0  0  0
   -0.7255    4.1946    0.4253 C   0  0  0  0  0  0  0  0  0  0  0  0
   -0.5351    4.3728    1.7966 C   0  0  0  0  0  0  0  0  0  0  0  0
   -0.8982    3.3683    2.6951 C   0  0  0  0  0  0  0  0  0  0  0  0
   -1.4508    2.1725    2.2343 C   0  0  0  0  0  0  0  0  0  0  0  0
   -1.6641    1.9605    0.8634 C   0  0  0  0  0  0  0  0  0  0  0  0
   -2.2517    0.6468    0.3275 C   0  0  0  0  0  0  0  0  0  0  0  0
   -3.1115   -0.1475    1.3586 C   0  0  0  0  0  0  0  0  0  0  0  0
   -4.2560    0.2067    1.6434 O   0  0  0  0  0  0  0  0  0  0  0  0
   -2.4785   -1.2017    1.9839 N   0  0  0  0  0  0  0  0  0  0  0  0
   -3.0462   -2.0205    3.0609 C   0  0  0  0  0  0  0  0  0  0  0  0
   -3.2996   -1.1730    4.3161 C   0  0  0  0  0  0  0  0  0  0  0  0
   -2.0197   -3.1146    3.4068 C   0  0  0  0  0  0  0  0  0  0  0  0
   -4.3447   -2.7073    2.6095 C   0  0  0  0  0  0  0  0  0  0  0  0
   -1.2609   -0.1661   -0.4507 N   0  0  0  0  0  0  0  0  0  0  0  0
   -0.0463   -0.4215    0.1916 C   0  0  0  0  0  0  0  0  0  0  0  0
    0.0387   -0.4172    1.4239 O   0  0  0  0  0  0  0  0  0  0  0  0
    1.1818   -0.7030   -0.6460 C   0  0  0  0  0  0  0  0  0  0  0  0
    2.4472   -0.6950    0.2105 C   0  0  0  0  0  0  0  0  0  0  0  0
    3.6775   -1.0418   -0.6044 C   0  0  0  0  0  0  0  0  0  0  0  0
    3.6436   -1.1669   -1.8238 O   0  0  0  0  0  0  0  0  0  0  0  0
    4.7922   -1.1858    0.1902 N   0  0  0  0  0  0  0  0  0  0  0  0
    6.0478   -1.5321   -0.2576 C   0  0  0  0  0  0  0  0  0  0  0  0
    6.4957   -1.7788   -1.5737 C   0  0  0  0  0  0  0  0  0  0  0  0
    7.8248   -2.0928   -1.4334 C   0  0  0  0  0  0  0  0  0  0  0  0
    8.8995   -2.4574   -2.3711 C   0  0  0  0  0  0  0  0  0  0  0  0
    8.1567   -2.0413   -0.1171 O   0  0  0  0  0  0  0  0  0  0  0  0
    7.0451   -1.6809    0.6219 N   0  0  0  0  0  0  0  0  0  0  0  0
   -1.7369   -0.9306   -1.6723 C   0  0  0  0  0  0  0  0  0  0  0  0
   -3.1984   -0.6080   -2.0888 C   0  0  0  0  0  0  0  0  0  0  0  0
   -0.8871   -0.6186   -2.9222 C   0  0  0  0  0  0  0  0  0  0  0  0
   -1.7126   -2.4476   -1.3839 C   0  0  0  0  0  0  0  0  0  0  0  0
   -1.3127    2.9966   -0.0293 C   0  0  0  0  0  0  0  0  0  0  0  0
   -1.5025    2.7697   -1.3754 O   0  0  0  0  0  0  0  0  0  0  0  0
   -2.5412    3.5992   -1.9002 C   0  0  0  0  0  0  0  0  0  0  0  0
   -0.3974    6.8977    0.5288 H   0  0  0  0  0  0  0  0  0  0  0  0
    1.2142    6.0862    0.4141 H   0  0  0  0  0  0  0  0  0  0  0  0
    0.5087    6.8938   -0.9889 H   0  0  0  0  0  0  0  0  0  0  0  0
   -0.1001    5.2804    2.2018 H   0  0  0  0  0  0  0  0  0  0  0  0
   -0.7392    3.5113    3.7614 H   0  0  0  0  0  0  0  0  0  0  0  0
   -1.6991    1.4056    2.9652 H   0  0  0  0  0  0  0  0  0  0  0  0
   -3.0053    1.0027   -0.3805 H   0  0  0  0  0  0  0  0  0  0  0  0
   -1.4600   -1.1386    1.9535 H   0  0  0  0  0  0  0  0  0  0  0  0
   -3.6646   -1.7920    5.1428 H   0  0  0  0  0  0  0  0  0  0  0  0
   -4.0449   -0.3890    4.1388 H   0  0  0  0  0  0  0  0  0  0  0  0
   -2.3786   -0.6790    4.6502 H   0  0  0  0  0  0  0  0  0  0  0  0
   -1.7982   -3.7384    2.5328 H   0  0  0  0  0  0  0  0  0  0  0  0
   -2.3831   -3.7692    4.2074 H   0  0  0  0  0  0  0  0  0  0  0  0
   -1.0714   -2.6756    3.7379 H   0  0  0  0  0  0  0  0  0  0  0  0
   -5.1490   -1.9883    2.4247 H   0  0  0  0  0  0  0  0  0  0  0  0
   -4.1894   -3.2699    1.6821 H   0  0  0  0  0  0  0  0  0  0  0  0
   -4.7052   -3.4093    3.3696 H   0  0  0  0  0  0  0  0  0  0  0  0
    1.0897   -1.6852   -1.1137 H   0  0  0  0  0  0  0  0  0  0  0  0
    1.2678    0.0683   -1.4180 H   0  0  0  0  0  0  0  0  0  0  0  0
    2.3562   -1.4267    1.0239 H   0  0  0  0  0  0  0  0  0  0  0  0
    2.5944    0.2960    0.6575 H   0  0  0  0  0  0  0  0  0  0  0  0
    4.7312   -1.0696    1.1932 H   0  0  0  0  0  0  0  0  0  0  0  0
    5.9355   -1.7408   -2.4957 H   0  0  0  0  0  0  0  0  0  0  0  0
    9.8175   -1.9082   -2.1430 H   0  0  0  0  0  0  0  0  0  0  0  0
    9.1138   -3.5284   -2.3088 H   0  0  0  0  0  0  0  0  0  0  0  0
    8.6160   -2.2252   -3.4022 H   0  0  0  0  0  0  0  0  0  0  0  0
   -3.3099    0.4391   -2.3900 H   0  0  0  0  0  0  0  0  0  0  0  0
   -3.5079   -1.2157   -2.9478 H   0  0  0  0  0  0  0  0  0  0  0  0
   -3.9112   -0.8231   -1.2863 H   0  0  0  0  0  0  0  0  0  0  0  0
    0.0800   -1.1244   -2.9217 H   0  0  0  0  0  0  0  0  0  0  0  0
   -1.3868   -0.9570   -3.8386 H   0  0  0  0  0  0  0  0  0  0  0  0
   -0.7130    0.4581   -3.0185 H   0  0  0  0  0  0  0  0  0  0  0  0
   -2.3480   -2.6948   -0.5253 H   0  0  0  0  0  0  0  0  0  0  0  0
   -2.0772   -3.0218   -2.2437 H   0  0  0  0  0  0  0  0  0  0  0  0
   -0.7094   -2.8171   -1.1570 H   0  0  0  0  0  0  0  0  0  0  0  0
   -2.9245    3.1153   -2.8039 H   0  0  0  0  0  0  0  0  0  0  0  0
   -2.1509    4.5800   -2.1883 H   0  0  0  0  0  0  0  0  0  0  0  0
   -3.3780    3.7086   -1.1997 H   0  0  0  0  0  0  0  0  0  0  0  0
  1  2  1  0
  2  3  1  0
  3  4  2  0
  4  5  1  0
  5  6  2  0
  6  7  1  0
  7  8  1  0
  8  9  1  0
  9 10  2  0
  9 11  1  0
 11 12  1  0
 12 13  1  0
 12 14  1  0
 12 15  1  0
  8 16  1  0
 16 17  1  0
 17 18  2  0
 17 19  1  0
 19 20  1  0
 20 21  1  0
 21 22  2  0
 21 23  1  0
 23 24  1  0
 24 25  1  0
 25 26  2  0
 26 27  1  0
 26 28  1  0
 28 29  1  0
 16 30  1  0
 30 31  1  0
 30 32  1  0
 30 33  1  0
  7 34  2  0
 34 35  1  0
 35 36  1  0
 34  3  1  0
 29 24  2  0
  1 37  1  0
  1 38  1  0
  1 39  1  0
  4 40  1  0
  5 41  1  0
  6 42  1  0
  8 43  1  0
 11 44  1  0
 13 45  1  0
 13 46  1  0
 13 47  1  0
 14 48  1  0
 14 49  1  0
 14 50  1  0
 15 51  1  0
 15 52  1  0
 15 53  1  0
 19 54  1  0
 19 55  1  0
 20 56  1  0
 20 57  1  0
 23 58  1  0
 25 59  1  0
 27 60  1  0
 27 61  1  0
 27 62  1  0
 31 63  1  0
 31 64  1  0
 31 65  1  0
 32 66  1  0
 32 67  1  0
 32 68  1  0
 33 69  1  0
 33 70  1  0
 33 71  1  0
 36 72  1  0
 36 73  1  0
 36 74  1  0
M  END
$$$$
