
     RDKit          3D

 46 47  0  0  0  0  0  0  0  0999 V2000
    7.4121   -1.6477   -0.0664 C   0  0  0  0  0  0  0  0  0  0  0  0
    6.0998   -2.1154   -0.3532 O   0  0  0  0  0  0  0  0  0  0  0  0
    5.1614   -1.1714   -0.6659 C   0  0  0  0  0  0  0  0  0  0  0  0
    3.8985   -1.6802   -0.9711 C   0  0  0  0  0  0  0  0  0  0  0  0
    2.8462   -0.8267   -1.3127 C   0  0  0  0  0  0  0  0  0  0  0  0
    3.0439    0.5558   -1.3595 C   0  0  0  0  0  0  0  0  0  0  0  0
    1.9069    1.4872   -1.7157 C   0  0  0  0  0  0  0  0  0  0  0  0
    1.1523    1.9894   -0.4851 C   0  0  0  0  0  0  0  0  0  0  0  0
    0.1458    0.9866    0.0450 C   0  0  0  0  0  0  0  0  0  0  0  0
   -0.2836    0.0313   -0.5965 O   0  0  0  0  0  0  0  0  0  0  0  0
   -0.2845    1.2876    1.3249 N   0  0  0  0  0  0  0  0  0  0  0  0
   -1.4163    0.5961    1.8030 N   0  0  0  0  0  0  0  0  0  0  0  0
   -2.4767    1.3706    2.2471 C   0  0  0  0  0  0  0  0  0  0  0  0
   -2.3647    2.5796    2.4644 O   0  0  0  0  0  0  0  0  0  0  0  0
   -3.7534    0.6133    2.5243 C   0  0  0  0  0  0  0  0  0  0  0  0
   -4.1791   -0.1441    1.3628 N   0  0  0  0  0  0  0  0  0  0  0  0
   -3.5209   -1.2849    1.0738 N   0  0  0  0  0  0  0  0  0  0  0  0
   -4.0883   -1.7206   -0.0560 C   0  0  0  0  0  0  0  0  0  0  0  0
   -3.6111   -2.9655   -0.7077 C   0  0  0  0  0  0  0  0  0  0  0  0
   -5.1227   -0.8585   -0.4765 C   0  0  0  0  0  0  0  0  0  0  0  0
   -5.1498    0.1670    0.4459 C   0  0  0  0  0  0  0  0  0  0  0  0
   -5.9881    1.3872    0.5049 C   0  0  0  0  0  0  0  0  0  0  0  0
    4.3108    1.0650   -1.0467 C   0  0  0  0  0  0  0  0  0  0  0  0
    5.3628    0.2069   -0.7024 C   0  0  0  0  0  0  0  0  0  0  0  0
    7.4188   -1.0219    0.8323 H   0  0  0  0  0  0  0  0  0  0  0  0
    7.8403   -1.1173   -0.9245 H   0  0  0  0  0  0  0  0  0  0  0  0
    8.0430   -2.5201    0.1312 H   0  0  0  0  0  0  0  0  0  0  0  0
    3.7283   -2.7533   -0.9477 H   0  0  0  0  0  0  0  0  0  0  0  0
    1.8704   -1.2514   -1.5417 H   0  0  0  0  0  0  0  0  0  0  0  0
    2.3242    2.3491   -2.2521 H   0  0  0  0  0  0  0  0  0  0  0  0
    1.2322    0.9961   -2.4307 H   0  0  0  0  0  0  0  0  0  0  0  0
    0.5801    2.8850   -0.7638 H   0  0  0  0  0  0  0  0  0  0  0  0
    1.8462    2.2693    0.3151 H   0  0  0  0  0  0  0  0  0  0  0  0
   -0.1818    2.2364    1.6863 H   0  0  0  0  0  0  0  0  0  0  0  0
   -1.6355   -0.2853    1.3146 H   0  0  0  0  0  0  0  0  0  0  0  0
   -4.5488    1.3123    2.8014 H   0  0  0  0  0  0  0  0  0  0  0  0
   -3.5992   -0.0832    3.3545 H   0  0  0  0  0  0  0  0  0  0  0  0
   -2.5183   -3.0272   -0.6800 H   0  0  0  0  0  0  0  0  0  0  0  0
   -4.0207   -3.8428   -0.1967 H   0  0  0  0  0  0  0  0  0  0  0  0
   -3.9205   -3.0046   -1.7557 H   0  0  0  0  0  0  0  0  0  0  0  0
   -5.7460   -0.9602   -1.3549 H   0  0  0  0  0  0  0  0  0  0  0  0
   -5.3658    2.2861    0.5665 H   0  0  0  0  0  0  0  0  0  0  0  0
   -6.6132    1.4779   -0.3886 H   0  0  0  0  0  0  0  0  0  0  0  0
   -6.6527    1.3591    1.3746 H   0  0  0  0  0  0  0  0  0  0  0  0
    4.4907    2.1367   -1.0683 H   0  0  0  0  0  0  0  0  0  0  0  0
    6.3269    0.6504   -0.4705 H   0  0  0  0  0  0  0  0  0  0  0  0
  1  2  1  0
  2  3  1  0
  3  4  2  0
  4  5  1  0
  5  6  2  0
  6  7  1  0
  7  8  1  0
  8  9  1  0
  9 10  2  0
  9 11  1  0
 11 12  1  0
 12 13  1  0
 13 14  2  0
 13 15  1  0
 15 16  1  0
 16 17  1  0
 17 18  2  0
 18 19  1  0
 18 20  1  0
 20 21  2  0
 21 22  1  0
  6 23  1  0
 23 24  2  0
 24  3  1  0
 21 16  1  0
  1 25  1  0
  1 26  1  0
  1 27  1  0
  4 28  1  0
  5 29  1  0
  7 30  1  0
  7 31  1  0
  8 32  1  0
  8 33  1  0
 11 34  1  0
 12 35  1  0
 15 36  1  0
 15 37  1  0
 19 38  1  0
 19 39  1  0
 19 40  1  0
 20 41  1  0
 22 42  1  0
 22 43  1  0
 22 44  1  0
 23 45  1  0
 24 46  1  0
M  END
$$$$
