
     RDKit          3D

 51 55  0  0  0  0  0  0  0  0999 V2000
   -3.4117   -2.2165   -1.7233 C   0  0  0  0  0  0  0  0  0  0  0  0
   -2.8144   -0.9261   -1.2148 C   0  0  0  0  0  0  0  0  0  0  0  0
   -1.4840   -1.0247   -0.8286 N   0  0  0  0  0  0  0  0  0  0  0  0
   -0.7837    0.0323   -0.3628 C   0  0  0  0  0  0  0  0  0  0  0  0
    0.5136    0.2023    0.0717 C   0  0  0  0  0  0  0  0  0  0  0  0
    1.5194   -0.8413    0.1397 C   0  0  0  0  0  0  0  0  0  0  0  0
    1.2637   -2.0095   -0.1424 O   0  0  0  0  0  0  0  0  0  0  0  0
    2.7713   -0.4349    0.5411 N   0  0  0  0  0  0  0  0  0  0  0  0
    3.8355   -1.3936    0.7180 C   0  0  0  0  0  0  0  0  0  0  0  0
    5.1745   -0.7028    0.7478 C   0  0  0  0  0  0  0  0  0  0  0  0
    5.7720   -0.3390    1.9795 C   0  0  0  0  0  0  0  0  0  0  0  0
    7.0091    0.3166    2.0115 C   0  0  0  0  0  0  0  0  0  0  0  0
    7.6160    0.6050    0.8054 C   0  0  0  0  0  0  0  0  0  0  0  0
    7.0361    0.2690   -0.3961 C   0  0  0  0  0  0  0  0  0  0  0  0
    5.8202   -0.3804   -0.4601 C   0  0  0  0  0  0  0  0  0  0  0  0
    7.7915    0.6463   -1.4646 O   0  0  0  0  0  0  0  0  0  0  0  0
    8.9056    1.2791   -0.7966 C   0  0  0  0  0  0  0  0  0  0  0  0
    8.8161    1.2259    0.6442 O   0  0  0  0  0  0  0  0  0  0  0  0
    0.5633    1.5800    0.3984 C   0  0  0  0  0  0  0  0  0  0  0  0
   -0.5914    2.2220    0.1934 N   0  0  0  0  0  0  0  0  0  0  0  0
   -1.4200    1.2483   -0.2784 N   0  0  0  0  0  0  0  0  0  0  0  0
   -2.7570    1.4747   -0.6436 C   0  0  0  0  0  0  0  0  0  0  0  0
   -3.2493    2.5956   -0.5729 O   0  0  0  0  0  0  0  0  0  0  0  0
   -3.4943    0.2468   -1.1298 C   0  0  0  0  0  0  0  0  0  0  0  0
   -4.9330    0.4922   -1.5155 C   0  0  0  0  0  0  0  0  0  0  0  0
   -5.8942    0.4044   -0.3526 C   0  0  0  0  0  0  0  0  0  0  0  0
   -6.1667    1.5275    0.4441 C   0  0  0  0  0  0  0  0  0  0  0  0
   -7.0487    1.4367    1.5255 C   0  0  0  0  0  0  0  0  0  0  0  0
   -7.6700    0.2234    1.8265 C   0  0  0  0  0  0  0  0  0  0  0  0
   -7.4083   -0.8981    1.0438 C   0  0  0  0  0  0  0  0  0  0  0  0
   -6.5260   -0.8017   -0.0308 C   0  0  0  0  0  0  0  0  0  0  0  0
   -6.2921   -1.8997   -0.7631 F   0  0  0  0  0  0  0  0  0  0  0  0
   -3.5633   -2.9118   -0.8887 H   0  0  0  0  0  0  0  0  0  0  0  0
   -2.7314   -2.6899   -2.4407 H   0  0  0  0  0  0  0  0  0  0  0  0
   -4.3650   -2.0884   -2.2396 H   0  0  0  0  0  0  0  0  0  0  0  0
   -1.0409   -1.9464   -0.8962 H   0  0  0  0  0  0  0  0  0  0  0  0
    2.9373    0.5134    0.8406 H   0  0  0  0  0  0  0  0  0  0  0  0
    3.8060   -2.1379   -0.0900 H   0  0  0  0  0  0  0  0  0  0  0  0
    3.6502   -1.9345    1.6558 H   0  0  0  0  0  0  0  0  0  0  0  0
    5.2747   -0.5762    2.9209 H   0  0  0  0  0  0  0  0  0  0  0  0
    7.4767    0.5900    2.9532 H   0  0  0  0  0  0  0  0  0  0  0  0
    5.3842   -0.6384   -1.4197 H   0  0  0  0  0  0  0  0  0  0  0  0
    9.8311    0.7824   -1.1093 H   0  0  0  0  0  0  0  0  0  0  0  0
    8.9497    2.3301   -1.1014 H   0  0  0  0  0  0  0  0  0  0  0  0
    1.3964    2.1560    0.7825 H   0  0  0  0  0  0  0  0  0  0  0  0
   -5.2588   -0.1948   -2.3049 H   0  0  0  0  0  0  0  0  0  0  0  0
   -5.0330    1.4782   -1.9897 H   0  0  0  0  0  0  0  0  0  0  0  0
   -5.6913    2.4849    0.2290 H   0  0  0  0  0  0  0  0  0  0  0  0
   -7.2494    2.3171    2.1323 H   0  0  0  0  0  0  0  0  0  0  0  0
   -8.3557    0.1562    2.6674 H   0  0  0  0  0  0  0  0  0  0  0  0
   -7.8806   -1.8496    1.2662 H   0  0  0  0  0  0  0  0  0  0  0  0
  1  2  1  0
  2  3  1  0
  3  4  1  0
  4  5  2  0
  5  6  1  0
  6  7  2  0
  6  8  1  0
  8  9  1  0
  9 10  1  0
 10 11  2  0
 11 12  1  0
 12 13  2  0
 13 14  1  0
 14 15  2  0
 14 16  1  0
 16 17  1  0
 17 18  1  0
  5 19  1  0
 19 20  2  0
 20 21  1  0
 21 22  1  0
 22 23  2  0
 22 24  1  0
 24 25  1  0
 25 26  1  0
 26 27  2  0
 27 28  1  0
 28 29  2  0
 29 30  1  0
 30 31  2  0
 31 32  1  0
 24  2  2  0
 31 26  1  0
 21  4  1  0
 15 10  1  0
 18 13  1  0
  1 33  1  0
  1 34  1  0
  1 35  1  0
  3 36  1  0
  8 37  1  0
  9 38  1  0
  9 39  1  0
 11 40  1  0
 12 41  1  0
 15 42  1  0
 17 43  1  0
 17 44  1  0
 19 45  1  0
 25 46  1  0
 25 47  1  0
 27 48  1  0
 28 49  1  0
 29 50  1  0
 30 51  1  0
M  END
$$$$
