
     RDKit          3D

 39 41  0  0  0  0  0  0  0  0999 V2000
   -5.5519    2.5995   -0.4001 C   0  0  0  0  0  0  0  0  0  0  0  0
   -6.0575    1.2746   -0.5190 O   0  0  0  0  0  0  0  0  0  0  0  0
   -5.1656    0.2552   -0.3036 C   0  0  0  0  0  0  0  0  0  0  0  0
   -3.8377    0.3931    0.1041 C   0  0  0  0  0  0  0  0  0  0  0  0
   -3.0297   -0.7433    0.2785 C   0  0  0  0  0  0  0  0  0  0  0  0
   -1.6353   -0.6288    0.7224 C   0  0  0  0  0  0  0  0  0  0  0  0
   -0.6386   -0.0259    0.0600 C   0  0  0  0  0  0  0  0  0  0  0  0
   -0.7043    0.7694   -1.4701 S   0  0  0  0  0  0  0  0  0  0  0  0
    1.0178    1.1446   -1.4664 C   0  0  0  0  0  0  0  0  0  0  0  0
    1.7703    2.0178   -2.6719 S   0  0  0  0  0  0  0  0  0  0  0  0
    1.5719    0.6425   -0.3070 N   0  0  0  0  0  0  0  0  0  0  0  0
    2.9473    0.7043   -0.0375 N   0  0  0  0  0  0  0  0  0  0  0  0
    3.7197   -0.3623   -0.4585 C   0  0  0  0  0  0  0  0  0  0  0  0
    3.3142   -1.2225   -1.2339 O   0  0  0  0  0  0  0  0  0  0  0  0
    5.1052   -0.4211    0.0558 C   0  0  0  0  0  0  0  0  0  0  0  0
    5.4919    0.0895    1.2974 C   0  0  0  0  0  0  0  0  0  0  0  0
    6.8251   -0.0183    1.6930 C   0  0  0  0  0  0  0  0  0  0  0  0
    7.7221   -0.6371    0.8361 C   0  0  0  0  0  0  0  0  0  0  0  0
    7.3769   -1.1513   -0.3634 N   0  0  0  0  0  0  0  0  0  0  0  0
    6.0738   -1.0415   -0.7240 C   0  0  0  0  0  0  0  0  0  0  0  0
    0.7465    0.0095    0.6054 C   0  0  0  0  0  0  0  0  0  0  0  0
    1.0731   -0.4148    1.7065 O   0  0  0  0  0  0  0  0  0  0  0  0
   -3.5679   -2.0192    0.0646 C   0  0  0  0  0  0  0  0  0  0  0  0
   -4.8950   -2.1635   -0.3364 C   0  0  0  0  0  0  0  0  0  0  0  0
   -5.6764   -1.0301   -0.5163 C   0  0  0  0  0  0  0  0  0  0  0  0
   -6.9760   -1.1983   -0.9106 O   0  0  0  0  0  0  0  0  0  0  0  0
   -4.7382    2.7783   -1.1108 H   0  0  0  0  0  0  0  0  0  0  0  0
   -5.2347    2.8081    0.6269 H   0  0  0  0  0  0  0  0  0  0  0  0
   -6.3649    3.2900   -0.6440 H   0  0  0  0  0  0  0  0  0  0  0  0
   -3.4112    1.3717    0.2967 H   0  0  0  0  0  0  0  0  0  0  0  0
   -1.4265   -1.1203    1.6726 H   0  0  0  0  0  0  0  0  0  0  0  0
    3.2330    1.3428    0.6932 H   0  0  0  0  0  0  0  0  0  0  0  0
    4.7785    0.5376    1.9811 H   0  0  0  0  0  0  0  0  0  0  0  0
    7.1570    0.3610    2.6539 H   0  0  0  0  0  0  0  0  0  0  0  0
    8.7702   -0.7453    1.1023 H   0  0  0  0  0  0  0  0  0  0  0  0
    5.8297   -1.4755   -1.6912 H   0  0  0  0  0  0  0  0  0  0  0  0
   -2.9583   -2.9097    0.2028 H   0  0  0  0  0  0  0  0  0  0  0  0
   -5.3169   -3.1492   -0.5084 H   0  0  0  0  0  0  0  0  0  0  0  0
   -7.3373   -0.2933   -0.9803 H   0  0  0  0  0  0  0  0  0  0  0  0
  1  2  1  0
  2  3  1  0
  3  4  2  0
  4  5  1  0
  5  6  1  0
  6  7  2  3
  7  8  1  0
  8  9  1  0
  9 10  2  0
  9 11  1  0
 11 12  1  0
 12 13  1  0
 13 14  2  0
 13 15  1  0
 15 16  2  0
 16 17  1  0
 17 18  2  0
 18 19  1  0
 19 20  2  0
 11 21  1  0
 21 22  2  0
  5 23  2  0
 23 24  1  0
 24 25  2  0
 25 26  1  0
 25  3  1  0
 21  7  1  0
 20 15  1  0
  1 27  1  0
  1 28  1  0
  1 29  1  0
  4 30  1  0
  6 31  1  0
 12 32  1  0
 16 33  1  0
 17 34  1  0
 18 35  1  0
 20 36  1  0
 23 37  1  0
 24 38  1  0
 26 39  1  0
M  END
$$$$
