
     RDKit          3D

 56 58  0  0  0  0  0  0  0  0999 V2000
   -5.0483   -0.5071    0.8952 C   0  0  0  0  0  0  0  0  0  0  0  0
   -5.0667   -0.7124   -0.6119 C   0  0  0  0  0  0  0  0  0  0  0  0
   -4.0935    0.1676   -1.2784 N   0  0  0  0  0  0  0  0  0  0  0  0
   -4.5686    1.5184   -1.6186 C   0  0  0  0  0  0  0  0  0  0  0  0
   -3.8505    2.5824   -0.7990 C   0  0  0  0  0  0  0  0  0  0  0  0
   -2.8428   -0.2999   -1.6647 C   0  0  0  0  0  0  0  0  0  0  0  0
   -2.0732    0.3392   -2.6503 C   0  0  0  0  0  0  0  0  0  0  0  0
   -0.8073   -0.1265   -3.0376 C   0  0  0  0  0  0  0  0  0  0  0  0
   -0.2477   -1.2482   -2.4294 C   0  0  0  0  0  0  0  0  0  0  0  0
    1.0826   -1.6955   -2.8512 C   0  0  0  0  0  0  0  0  0  0  0  0
    2.1662   -1.8694   -2.0748 C   0  0  0  0  0  0  0  0  0  0  0  0
    2.2481   -1.6948   -0.6158 C   0  0  0  0  0  0  0  0  0  0  0  0
    1.9716   -2.8152    0.1698 C   0  0  0  0  0  0  0  0  0  0  0  0
    2.0473   -2.7371    1.5456 C   0  0  0  0  0  0  0  0  0  0  0  0
    2.4310   -1.5427    2.1366 C   0  0  0  0  0  0  0  0  0  0  0  0
    2.5054   -1.4636    3.5330 C   0  0  0  0  0  0  0  0  0  0  0  0
    2.9080   -0.2854    4.1509 C   0  0  0  0  0  0  0  0  0  0  0  0
    3.2722    0.8124    3.3824 C   0  0  0  0  0  0  0  0  0  0  0  0
    3.6462    1.9287    4.0754 O   0  0  0  0  0  0  0  0  0  0  0  0
    4.7827    2.6110    3.5502 C   0  0  0  0  0  0  0  0  0  0  0  0
    3.1806    0.7566    1.9888 C   0  0  0  0  0  0  0  0  0  0  0  0
    2.7501   -0.4134    1.3293 C   0  0  0  0  0  0  0  0  0  0  0  0
    2.6304   -0.5137   -0.0416 N   0  0  0  0  0  4  0  0  0  0  0  0
    2.9203    0.6655   -0.9144 C   0  0  0  0  0  0  0  0  0  0  0  0
    1.7539    1.6375   -0.9013 C   0  0  0  0  0  0  0  0  0  0  0  0
   -0.9996   -1.9225   -1.4717 C   0  0  0  0  0  0  0  0  0  0  0  0
   -2.2654   -1.4465   -1.0950 C   0  0  0  0  0  0  0  0  0  0  0  0
   -5.3112    0.5224    1.1575 H   0  0  0  0  0  0  0  0  0  0  0  0
   -4.0613   -0.7146    1.3192 H   0  0  0  0  0  0  0  0  0  0  0  0
   -5.7737   -1.1710    1.3767 H   0  0  0  0  0  0  0  0  0  0  0  0
   -4.8991   -1.7677   -0.8564 H   0  0  0  0  0  0  0  0  0  0  0  0
   -6.0760   -0.4991   -0.9865 H   0  0  0  0  0  0  0  0  0  0  0  0
   -5.6430    1.6056   -1.4091 H   0  0  0  0  0  0  0  0  0  0  0  0
   -4.4719    1.7154   -2.6915 H   0  0  0  0  0  0  0  0  0  0  0  0
   -4.2504    3.5734   -1.0342 H   0  0  0  0  0  0  0  0  0  0  0  0
   -3.9838    2.4101    0.2731 H   0  0  0  0  0  0  0  0  0  0  0  0
   -2.7755    2.5985   -1.0016 H   0  0  0  0  0  0  0  0  0  0  0  0
   -2.4533    1.2150   -3.1698 H   0  0  0  0  0  0  0  0  0  0  0  0
   -0.2758    0.4088   -3.8219 H   0  0  0  0  0  0  0  0  0  0  0  0
    1.1730   -1.8698   -3.9239 H   0  0  0  0  0  0  0  0  0  0  0  0
    3.0927   -2.2034   -2.5407 H   0  0  0  0  0  0  0  0  0  0  0  0
    1.6777   -3.7571   -0.2937 H   0  0  0  0  0  0  0  0  0  0  0  0
    1.8091   -3.6154    2.1451 H   0  0  0  0  0  0  0  0  0  0  0  0
    2.2519   -2.3179    4.1613 H   0  0  0  0  0  0  0  0  0  0  0  0
    2.9562   -0.2290    5.2381 H   0  0  0  0  0  0  0  0  0  0  0  0
    4.5021    3.2265    2.6892 H   0  0  0  0  0  0  0  0  0  0  0  0
    5.5836    1.9119    3.2853 H   0  0  0  0  0  0  0  0  0  0  0  0
    5.1627    3.2782    4.3301 H   0  0  0  0  0  0  0  0  0  0  0  0
    3.4302    1.6575    1.4428 H   0  0  0  0  0  0  0  0  0  0  0  0
    3.8517    1.1272   -0.5715 H   0  0  0  0  0  0  0  0  0  0  0  0
    3.1280    0.3350   -1.9352 H   0  0  0  0  0  0  0  0  0  0  0  0
    1.6481    2.1386    0.0651 H   0  0  0  0  0  0  0  0  0  0  0  0
    1.8976    2.4110   -1.6613 H   0  0  0  0  0  0  0  0  0  0  0  0
    0.8101    1.1288   -1.0994 H   0  0  0  0  0  0  0  0  0  0  0  0
   -0.6419   -2.8390   -1.0133 H   0  0  0  0  0  0  0  0  0  0  0  0
   -2.7910   -2.0054   -0.3253 H   0  0  0  0  0  0  0  0  0  0  0  0
  1  2  1  0
  2  3  1  0
  3  4  1  0
  4  5  1  0
  3  6  1  0
  6  7  2  0
  7  8  1  0
  8  9  2  0
  9 10  1  0
 10 11  2  3
 11 12  1  0
 12 13  2  0
 13 14  1  0
 14 15  2  0
 15 16  1  0
 16 17  2  0
 17 18  1  0
 18 19  1  0
 19 20  1  0
 18 21  2  0
 21 22  1  0
 22 23  2  0
 23 24  1  0
 24 25  1  0
  9 26  1  0
 26 27  2  0
 27  6  1  0
 23 12  1  0
 22 15  1  0
  1 28  1  0
  1 29  1  0
  1 30  1  0
  2 31  1  0
  2 32  1  0
  4 33  1  0
  4 34  1  0
  5 35  1  0
  5 36  1  0
  5 37  1  0
  7 38  1  0
  8 39  1  0
 10 40  1  0
 11 41  1  0
 13 42  1  0
 14 43  1  0
 16 44  1  0
 17 45  1  0
 20 46  1  0
 20 47  1  0
 20 48  1  0
 21 49  1  0
 24 50  1  0
 24 51  1  0
 25 52  1  0
 25 53  1  0
 25 54  1  0
 26 55  1  0
 27 56  1  0
M  CHG  1  23   1
M  END
$$$$
