
     RDKit          3D

 42 44  0  0  0  0  0  0  0  0999 V2000
   -3.2732    4.0034    0.1909 C   0  0  0  0  0  0  0  0  0  0  0  0
   -1.9757    3.2287    0.0670 C   0  0  0  0  0  0  0  0  0  0  0  0
   -2.2842    1.8323    0.1321 O   0  0  0  0  0  0  0  0  0  0  0  0
   -1.1984    1.0099    0.0393 C   0  0  0  0  0  0  0  0  0  0  0  0
   -0.0463    1.4104   -0.0899 O   0  0  0  0  0  0  0  0  0  0  0  0
   -1.5539   -0.4049    0.1068 C   0  0  0  0  0  0  0  0  0  0  0  0
   -0.6176   -1.4389    0.0103 C   0  0  0  0  0  0  0  0  0  0  0  0
    0.7491   -1.2965   -0.1526 N   0  0  0  0  0  0  0  0  0  0  0  0
    1.7110   -2.2837   -0.2497 C   0  0  0  0  0  0  0  0  0  0  0  0
    1.5490   -3.4977   -0.2135 O   0  0  0  0  0  0  0  0  0  0  0  0
    3.0598   -1.7055   -0.4124 C   0  0  0  0  0  0  0  0  0  0  0  0
    4.2853   -2.4102   -0.5384 C   0  0  0  0  0  0  0  0  0  0  0  0
    5.2531   -1.4428   -0.6622 C   0  0  0  0  0  0  0  0  0  0  0  0
    4.5976   -0.2490   -0.6062 N   0  0  0  0  0  0  0  0  0  0  0  0
    5.1918    1.0712   -0.6971 C   0  0  0  0  0  0  0  0  0  0  0  0
    5.3869    1.7068    0.6676 C   0  0  0  0  0  0  0  0  0  0  0  0
    3.2651   -0.3723   -0.4593 N   0  0  0  0  0  0  0  0  0  0  0  0
   -1.3337   -2.9959    0.1111 S   0  0  0  0  0  0  0  0  0  0  0  0
   -2.8478   -2.3263    0.2843 C   0  0  0  0  0  0  0  0  0  0  0  0
   -2.8562   -0.9607    0.2737 C   0  0  0  0  0  0  0  0  0  0  0  0
   -4.2408   -0.4420    0.4317 C   0  0  0  0  0  0  0  0  0  0  0  0
   -5.0272   -1.7129    0.8827 C   0  0  0  0  0  0  0  0  0  0  0  0
   -4.1825   -2.9462    0.4432 C   0  0  0  0  0  0  0  0  0  0  0  0
   -3.9653    3.7266   -0.6113 H   0  0  0  0  0  0  0  0  0  0  0  0
   -3.7728    3.7696    1.1369 H   0  0  0  0  0  0  0  0  0  0  0  0
   -3.0906    5.0806    0.1444 H   0  0  0  0  0  0  0  0  0  0  0  0
   -1.4984    3.4579   -0.8922 H   0  0  0  0  0  0  0  0  0  0  0  0
   -1.3038    3.4990    0.8892 H   0  0  0  0  0  0  0  0  0  0  0  0
    1.1172   -0.3430   -0.2072 H   0  0  0  0  0  0  0  0  0  0  0  0
    4.4225   -3.4830   -0.5359 H   0  0  0  0  0  0  0  0  0  0  0  0
    6.3257   -1.5060   -0.7801 H   0  0  0  0  0  0  0  0  0  0  0  0
    4.5367    1.6858   -1.3243 H   0  0  0  0  0  0  0  0  0  0  0  0
    6.1528    0.9701   -1.2129 H   0  0  0  0  0  0  0  0  0  0  0  0
    5.8439    2.6957    0.5644 H   0  0  0  0  0  0  0  0  0  0  0  0
    4.4315    1.8251    1.1895 H   0  0  0  0  0  0  0  0  0  0  0  0
    6.0380    1.0925    1.2986 H   0  0  0  0  0  0  0  0  0  0  0  0
   -4.6234   -0.0748   -0.5264 H   0  0  0  0  0  0  0  0  0  0  0  0
   -4.3176    0.3489    1.1828 H   0  0  0  0  0  0  0  0  0  0  0  0
   -5.1104   -1.7095    1.9777 H   0  0  0  0  0  0  0  0  0  0  0  0
   -6.0434   -1.7382    0.4771 H   0  0  0  0  0  0  0  0  0  0  0  0
   -4.5454   -3.3400   -0.5117 H   0  0  0  0  0  0  0  0  0  0  0  0
   -4.2082   -3.7347    1.2001 H   0  0  0  0  0  0  0  0  0  0  0  0
  1  2  1  0
  2  3  1  0
  3  4  1  0
  4  5  2  0
  4  6  1  0
  6  7  2  0
  7  8  1  0
  8  9  1  0
  9 10  2  0
  9 11  1  0
 11 12  1  0
 12 13  2  0
 13 14  1  0
 14 15  1  0
 15 16  1  0
 14 17  1  0
  7 18  1  0
 18 19  1  0
 19 20  2  0
 20 21  1  0
 21 22  1  0
 22 23  1  0
 20  6  1  0
 17 11  2  0
 23 19  1  0
  1 24  1  0
  1 25  1  0
  1 26  1  0
  2 27  1  0
  2 28  1  0
  8 29  1  0
 12 30  1  0
 13 31  1  0
 15 32  1  0
 15 33  1  0
 16 34  1  0
 16 35  1  0
 16 36  1  0
 21 37  1  0
 21 38  1  0
 22 39  1  0
 22 40  1  0
 23 41  1  0
 23 42  1  0
M  END
$$$$
