
     RDKit          3D

 39 39  0  0  0  0  0  0  0  0999 V2000
   -2.5949   -3.8171    0.7523 C   0  0  0  0  0  0  0  0  0  0  0  0
   -2.0812   -2.7818    1.7348 C   0  0  0  0  0  0  0  0  0  0  0  0
   -1.6920   -1.5879    1.0346 O   0  0  0  0  0  0  0  0  0  0  0  0
   -0.3985   -1.5637    0.5531 C   0  0  0  0  0  0  0  0  0  0  0  0
    0.3632   -2.5138    0.6797 O   0  0  0  0  0  0  0  0  0  0  0  0
   -0.1016   -0.2149   -0.1766 C   0  0  0  0  0  0  0  0  0  0  0  0
   -1.3069    0.6432    0.0221 N   0  0  0  0  0  0  0  0  0  0  0  0
   -1.4769    1.8804   -0.5376 C   0  0  0  0  0  0  0  0  0  0  0  0
   -0.5599    2.4812   -1.0815 O   0  0  0  0  0  0  0  0  0  0  0  0
   -2.8758    2.4343   -0.3633 C   0  0  0  0  0  0  0  0  0  0  0  0
   -3.0422    3.7956   -1.0140 C   0  0  0  0  0  0  0  0  0  0  0  0
    0.9611    0.5781    0.4966 N   0  0  0  0  0  0  0  0  0  0  0  0
    2.3331    0.3940    0.3084 C   0  0  0  0  0  0  0  0  0  0  0  0
    3.1663    1.5163    0.4743 C   0  0  0  0  0  0  0  0  0  0  0  0
    4.5583    1.4289    0.3721 C   0  0  0  0  0  0  0  0  0  0  0  0
    5.1565    0.2000    0.1309 C   0  0  0  0  0  0  0  0  0  0  0  0
    4.3593   -0.9321    0.0103 C   0  0  0  0  0  0  0  0  0  0  0  0
    2.9645   -0.8345    0.1153 C   0  0  0  0  0  0  0  0  0  0  0  0
    0.1026   -0.6144   -1.6714 C   0  0  0  0  0  0  0  0  0  0  0  0
   -1.0801   -1.0444   -2.2005 F   0  0  0  0  0  0  0  0  0  0  0  0
    0.9847   -1.6211   -1.8615 F   0  0  0  0  0  0  0  0  0  0  0  0
    0.5120    0.4159   -2.4473 F   0  0  0  0  0  0  0  0  0  0  0  0
   -3.4172   -3.4068    0.1569 H   0  0  0  0  0  0  0  0  0  0  0  0
   -2.9499   -4.7080    1.2778 H   0  0  0  0  0  0  0  0  0  0  0  0
   -1.8113   -4.1153    0.0487 H   0  0  0  0  0  0  0  0  0  0  0  0
   -2.8837   -2.4986    2.4238 H   0  0  0  0  0  0  0  0  0  0  0  0
   -1.2589   -3.1742    2.3435 H   0  0  0  0  0  0  0  0  0  0  0  0
   -2.1172    0.1623    0.3977 H   0  0  0  0  0  0  0  0  0  0  0  0
   -3.0877    2.5111    0.7089 H   0  0  0  0  0  0  0  0  0  0  0  0
   -3.5870    1.7282   -0.8061 H   0  0  0  0  0  0  0  0  0  0  0  0
   -2.3535    4.5268   -0.5780 H   0  0  0  0  0  0  0  0  0  0  0  0
   -2.8400    3.7446   -2.0890 H   0  0  0  0  0  0  0  0  0  0  0  0
   -4.0637    4.1626   -0.8746 H   0  0  0  0  0  0  0  0  0  0  0  0
    0.7525    1.5589    0.2864 H   0  0  0  0  0  0  0  0  0  0  0  0
    2.7299    2.4920    0.6802 H   0  0  0  0  0  0  0  0  0  0  0  0
    5.1676    2.3209    0.4877 H   0  0  0  0  0  0  0  0  0  0  0  0
    6.2369    0.1208    0.0518 H   0  0  0  0  0  0  0  0  0  0  0  0
    4.8177   -1.9040   -0.1554 H   0  0  0  0  0  0  0  0  0  0  0  0
    2.4135   -1.7633    0.0441 H   0  0  0  0  0  0  0  0  0  0  0  0
  1  2  1  0
  2  3  1  0
  3  4  1  0
  4  5  2  0
  4  6  1  0
  6  7  1  0
  7  8  1  0
  8  9  2  0
  8 10  1  0
 10 11  1  0
  6 12  1  0
 12 13  1  0
 13 14  2  0
 14 15  1  0
 15 16  2  0
 16 17  1  0
 17 18  2  0
  6 19  1  0
 19 20  1  0
 19 21  1  0
 19 22  1  0
 18 13  1  0
  1 23  1  0
  1 24  1  0
  1 25  1  0
  2 26  1  0
  2 27  1  0
  7 28  1  0
 10 29  1  0
 10 30  1  0
 11 31  1  0
 11 32  1  0
 11 33  1  0
 12 34  1  0
 14 35  1  0
 15 36  1  0
 16 37  1  0
 17 38  1  0
 18 39  1  0
M  END
$$$$
