
     RDKit          3D

 58 60  0  0  0  0  0  0  0  0999 V2000
   -2.8058   -4.5107   -1.1144 C   0  0  0  0  0  0  0  0  0  0  0  0
   -3.2910   -3.0877   -1.2182 C   0  0  0  0  0  0  0  0  0  0  0  0
   -4.6085   -2.8739   -1.6588 C   0  0  0  0  0  0  0  0  0  0  0  0
   -5.1140   -1.5842   -1.8014 C   0  0  0  0  0  0  0  0  0  0  0  0
   -4.2991   -0.4960   -1.4898 C   0  0  0  0  0  0  0  0  0  0  0  0
   -4.9723    1.1398   -1.6825 S   0  0  0  0  0  6  0  0  0  0  0  0
   -4.8219    1.4601   -3.0863 O   0  0  0  0  0  0  0  0  0  0  0  0
   -6.2722    1.1291   -1.0415 O   0  0  0  0  0  0  0  0  0  0  0  0
   -3.9302    2.1028   -0.7793 N   0  0  0  0  0  0  0  0  0  0  0  0
   -3.2093    3.1909   -1.4747 C   0  0  0  0  0  0  0  0  0  0  0  0
   -2.0257    3.6480   -0.6167 C   0  0  0  0  0  0  0  0  0  0  0  0
   -2.4604    4.0541    0.6912 O   0  0  0  0  0  0  0  0  0  0  0  0
   -3.0751    2.9496    1.3730 C   0  0  0  0  0  0  0  0  0  0  0  0
   -4.3067    2.4367    0.6163 C   0  0  0  0  0  0  0  0  0  0  0  0
   -2.9868   -0.6905   -1.0398 C   0  0  0  0  0  0  0  0  0  0  0  0
   -2.4683   -1.9813   -0.8970 C   0  0  0  0  0  0  0  0  0  0  0  0
   -1.1598   -2.2241   -0.4219 N   0  0  0  0  0  0  0  0  0  0  0  0
   -0.1812   -1.2965   -0.0917 C   0  0  0  0  0  0  0  0  0  0  0  0
   -0.2828   -0.0730   -0.1413 O   0  0  0  0  0  0  0  0  0  0  0  0
    1.1315   -1.9692    0.3268 C   0  0  0  0  0  0  0  0  0  0  0  0
    2.0628   -1.0708    0.9190 O   0  0  0  0  0  0  0  0  0  0  0  0
    1.7949   -0.7545    2.2171 C   0  0  0  0  0  0  0  0  0  0  0  0
    0.8282   -1.1765    2.8490 O   0  0  0  0  0  0  0  0  0  0  0  0
    2.8368    0.1907    2.8150 C   0  0  0  0  0  0  0  0  0  0  0  0
    3.9119    0.5632    1.9059 N   0  0  0  0  0  0  0  0  0  0  0  0
    4.9271   -0.3372    1.6492 C   0  0  0  0  0  0  0  0  0  0  0  0
    5.0234   -1.4172    2.2257 O   0  0  0  0  0  0  0  0  0  0  0  0
    5.8598    0.0227    0.5534 C   0  0  0  0  0  0  0  0  0  0  0  0
    6.1793    1.3583    0.2739 C   0  0  0  0  0  0  0  0  0  0  0  0
    7.0501    1.6600   -0.7750 C   0  0  0  0  0  0  0  0  0  0  0  0
    7.5973    0.6369   -1.5459 C   0  0  0  0  0  0  0  0  0  0  0  0
    7.2935   -0.6943   -1.2619 C   0  0  0  0  0  0  0  0  0  0  0  0
    6.4318   -1.0047   -0.2093 C   0  0  0  0  0  0  0  0  0  0  0  0
   -3.5564   -5.2216   -1.4756 H   0  0  0  0  0  0  0  0  0  0  0  0
   -2.5880   -4.7603   -0.0707 H   0  0  0  0  0  0  0  0  0  0  0  0
   -1.9031   -4.6503   -1.7194 H   0  0  0  0  0  0  0  0  0  0  0  0
   -5.2625   -3.7209   -1.8754 H   0  0  0  0  0  0  0  0  0  0  0  0
   -6.1373   -1.4358   -2.1415 H   0  0  0  0  0  0  0  0  0  0  0  0
   -2.8121    2.8336   -2.4306 H   0  0  0  0  0  0  0  0  0  0  0  0
   -3.8968    4.0255   -1.6523 H   0  0  0  0  0  0  0  0  0  0  0  0
   -1.2825    2.8447   -0.5077 H   0  0  0  0  0  0  0  0  0  0  0  0
   -1.5353    4.5042   -1.0890 H   0  0  0  0  0  0  0  0  0  0  0  0
   -2.3362    2.1492    1.5143 H   0  0  0  0  0  0  0  0  0  0  0  0
   -3.3771    3.3038    2.3641 H   0  0  0  0  0  0  0  0  0  0  0  0
   -4.6999    1.5549    1.1339 H   0  0  0  0  0  0  0  0  0  0  0  0
   -5.0766    3.2194    0.5861 H   0  0  0  0  0  0  0  0  0  0  0  0
   -2.3902    0.1771   -0.7911 H   0  0  0  0  0  0  0  0  0  0  0  0
   -0.8981   -3.1960   -0.3230 H   0  0  0  0  0  0  0  0  0  0  0  0
    1.5979   -2.3644   -0.5838 H   0  0  0  0  0  0  0  0  0  0  0  0
    0.9385   -2.8222    0.9908 H   0  0  0  0  0  0  0  0  0  0  0  0
    3.2659   -0.2910    3.7004 H   0  0  0  0  0  0  0  0  0  0  0  0
    2.3301    1.1153    3.1051 H   0  0  0  0  0  0  0  0  0  0  0  0
    3.6894    1.2365    1.1817 H   0  0  0  0  0  0  0  0  0  0  0  0
    5.7809    2.1656    0.8796 H   0  0  0  0  0  0  0  0  0  0  0  0
    7.2988    2.6960   -0.9923 H   0  0  0  0  0  0  0  0  0  0  0  0
    8.2717    0.8723   -2.3650 H   0  0  0  0  0  0  0  0  0  0  0  0
    7.7262   -1.4910   -1.8591 H   0  0  0  0  0  0  0  0  0  0  0  0
    6.1953   -2.0450    0.0121 H   0  0  0  0  0  0  0  0  0  0  0  0
  1  2  1  0
  2  3  2  0
  3  4  1  0
  4  5  2  0
  5  6  1  0
  6  7  2  0
  6  8  2  0
  6  9  1  0
  9 10  1  0
 10 11  1  0
 11 12  1  0
 12 13  1  0
 13 14  1  0
  5 15  1  0
 15 16  2  0
 16 17  1  0
 17 18  1  0
 18 19  2  0
 18 20  1  0
 20 21  1  0
 21 22  1  0
 22 23  2  0
 22 24  1  0
 24 25  1  0
 25 26  1  0
 26 27  2  0
 26 28  1  0
 28 29  2  0
 29 30  1  0
 30 31  2  0
 31 32  1  0
 32 33  2  0
 16  2  1  0
 33 28  1  0
 14  9  1  0
  1 34  1  0
  1 35  1  0
  1 36  1  0
  3 37  1  0
  4 38  1  0
 10 39  1  0
 10 40  1  0
 11 41  1  0
 11 42  1  0
 13 43  1  0
 13 44  1  0
 14 45  1  0
 14 46  1  0
 15 47  1  0
 17 48  1  0
 20 49  1  0
 20 50  1  0
 24 51  1  0
 24 52  1  0
 25 53  1  0
 29 54  1  0
 30 55  1  0
 31 56  1  0
 32 57  1  0
 33 58  1  0
M  END
$$$$
