
     RDKit          3D

 54 57  0  0  0  0  0  0  0  0999 V2000
   -5.0990    4.0834   -1.4948 C   0  0  0  0  0  0  0  0  0  0  0  0
   -4.2869    3.1600   -2.2091 O   0  0  0  0  0  0  0  0  0  0  0  0
   -3.3616    2.4619   -1.4841 C   0  0  0  0  0  0  0  0  0  0  0  0
   -2.5563    1.6056   -2.2381 C   0  0  0  0  0  0  0  0  0  0  0  0
   -1.5695    0.8267   -1.6278 C   0  0  0  0  0  0  0  0  0  0  0  0
   -1.3840    0.9008   -0.2441 C   0  0  0  0  0  0  0  0  0  0  0  0
   -0.3908    0.1069    0.3842 N   0  0  0  0  0  0  0  0  0  0  0  0
   -0.1269   -1.2462    0.1840 C   0  0  0  0  0  0  0  0  0  0  0  0
   -0.9743   -2.2038   -0.5903 C   0  0  0  0  0  0  0  0  0  0  0  0
   -2.2996   -2.4607    0.0646 C   0  0  0  0  0  0  0  0  0  0  0  0
   -3.5625   -2.0545   -0.3335 C   0  0  0  0  0  0  0  0  0  0  0  0
   -4.4942   -2.5327    0.6138 C   0  0  0  0  0  0  0  0  0  0  0  0
   -3.7854   -3.2254    1.5672 C   0  0  0  0  0  0  0  0  0  0  0  0
   -2.4569   -3.1856    1.2282 N   0  0  0  0  0  0  0  0  0  0  0  0
   -1.4072   -3.8094    2.0067 C   0  0  0  0  0  0  0  0  0  0  0  0
    0.9142   -1.6075    0.9148 N   0  0  0  0  0  0  0  0  0  0  0  0
    1.3130   -0.5333    1.6516 N   0  0  0  0  0  0  0  0  0  0  0  0
    0.5445    0.4850    1.3337 C   0  0  0  0  0  0  0  0  0  0  0  0
    0.8331    2.1091    1.8748 S   0  0  0  0  0  0  0  0  0  0  0  0
    2.5427    1.9835    2.4793 C   0  0  0  0  0  0  0  0  0  0  0  0
    3.5261    1.9173    1.3180 C   0  0  0  0  0  0  0  0  0  0  0  0
    4.0432    2.9397    0.8750 O   0  0  0  0  0  0  0  0  0  0  0  0
    3.7431    0.6300    0.8567 N   0  0  0  0  0  0  0  0  0  0  0  0
    4.5886    0.2195   -0.1922 C   0  0  0  0  0  0  0  0  0  0  0  0
    4.5270   -1.1328   -0.5642 C   0  0  0  0  0  0  0  0  0  0  0  0
    5.3306   -1.6306   -1.5937 C   0  0  0  0  0  0  0  0  0  0  0  0
    6.2070   -0.7784   -2.2576 C   0  0  0  0  0  0  0  0  0  0  0  0
    6.2688    0.5594   -1.8853 C   0  0  0  0  0  0  0  0  0  0  0  0
    7.1155    1.3769   -2.5255 F   0  0  0  0  0  0  0  0  0  0  0  0
    5.4705    1.0660   -0.8623 C   0  0  0  0  0  0  0  0  0  0  0  0
   -2.1825    1.7632    0.5159 C   0  0  0  0  0  0  0  0  0  0  0  0
   -3.1700    2.5381   -0.1048 C   0  0  0  0  0  0  0  0  0  0  0  0
   -5.7635    4.5700   -2.2149 H   0  0  0  0  0  0  0  0  0  0  0  0
   -4.4915    4.8623   -1.0221 H   0  0  0  0  0  0  0  0  0  0  0  0
   -5.7256    3.5699   -0.7587 H   0  0  0  0  0  0  0  0  0  0  0  0
   -2.6928    1.5543   -3.3162 H   0  0  0  0  0  0  0  0  0  0  0  0
   -0.9343    0.2149   -2.2618 H   0  0  0  0  0  0  0  0  0  0  0  0
   -0.4352   -3.1550   -0.6867 H   0  0  0  0  0  0  0  0  0  0  0  0
   -1.1199   -1.8628   -1.6184 H   0  0  0  0  0  0  0  0  0  0  0  0
   -3.7904   -1.4664   -1.2140 H   0  0  0  0  0  0  0  0  0  0  0  0
   -5.5666   -2.3878    0.6033 H   0  0  0  0  0  0  0  0  0  0  0  0
   -4.1224   -3.7423    2.4563 H   0  0  0  0  0  0  0  0  0  0  0  0
   -0.7133   -4.3171    1.3336 H   0  0  0  0  0  0  0  0  0  0  0  0
   -1.8497   -4.5436    2.6851 H   0  0  0  0  0  0  0  0  0  0  0  0
   -0.9012   -3.0317    2.5823 H   0  0  0  0  0  0  0  0  0  0  0  0
    2.7718    2.8810    3.0641 H   0  0  0  0  0  0  0  0  0  0  0  0
    2.6719    1.1287    3.1514 H   0  0  0  0  0  0  0  0  0  0  0  0
    3.1380   -0.0953    1.2441 H   0  0  0  0  0  0  0  0  0  0  0  0
    3.8452   -1.8140   -0.0587 H   0  0  0  0  0  0  0  0  0  0  0  0
    5.2705   -2.6790   -1.8736 H   0  0  0  0  0  0  0  0  0  0  0  0
    6.8413   -1.1431   -3.0586 H   0  0  0  0  0  0  0  0  0  0  0  0
    5.5701    2.1168   -0.6171 H   0  0  0  0  0  0  0  0  0  0  0  0
   -2.0868    1.8238    1.5980 H   0  0  0  0  0  0  0  0  0  0  0  0
   -3.7761    3.1848    0.5213 H   0  0  0  0  0  0  0  0  0  0  0  0
  1  2  1  0
  2  3  1  0
  3  4  2  0
  4  5  1  0
  5  6  2  0
  6  7  1  0
  7  8  1  0
  8  9  1  0
  9 10  1  0
 10 11  2  0
 11 12  1  0
 12 13  2  0
 13 14  1  0
 14 15  1  0
  8 16  2  0
 16 17  1  0
 17 18  2  0
 18 19  1  0
 19 20  1  0
 20 21  1  0
 21 22  2  0
 21 23  1  0
 23 24  1  0
 24 25  2  0
 25 26  1  0
 26 27  2  0
 27 28  1  0
 28 29  1  0
 28 30  2  0
  6 31  1  0
 31 32  2  0
 32  3  1  0
 18  7  1  0
 30 24  1  0
 14 10  1  0
  1 33  1  0
  1 34  1  0
  1 35  1  0
  4 36  1  0
  5 37  1  0
  9 38  1  0
  9 39  1  0
 11 40  1  0
 12 41  1  0
 13 42  1  0
 15 43  1  0
 15 44  1  0
 15 45  1  0
 20 46  1  0
 20 47  1  0
 23 48  1  0
 25 49  1  0
 26 50  1  0
 27 51  1  0
 30 52  1  0
 31 53  1  0
 32 54  1  0
M  END
$$$$
