
     RDKit          3D

 57 60  0  0  0  0  0  0  0  0999 V2000
    5.4211    2.3464    2.0080 C   0  0  0  0  0  0  0  0  0  0  0  0
    4.3827    1.4285    1.4540 C   0  0  0  0  0  0  0  0  0  0  0  0
    3.0367    1.4190    1.7615 C   0  0  0  0  0  0  0  0  0  0  0  0
    2.4046    0.4770    0.9275 C   0  0  0  0  0  0  0  0  0  0  0  0
    1.0064    0.1916    0.9504 C   0  0  0  0  0  0  0  0  0  0  0  0
    0.2596   -0.0873   -0.1311 C   0  0  0  0  0  0  0  0  0  0  0  0
   -1.1804   -0.3423   -0.0490 C   0  0  0  0  0  0  0  0  0  0  0  0
   -1.6107   -1.5086    0.5850 C   0  0  0  0  0  0  0  0  0  0  0  0
   -2.9599   -1.8062    0.6474 C   0  0  0  0  0  0  0  0  0  0  0  0
   -3.8812   -0.9414    0.0657 C   0  0  0  0  0  0  0  0  0  0  0  0
   -5.2589   -1.2381    0.1153 C   0  0  0  0  0  0  0  0  0  0  0  0
   -6.2411   -0.4132   -0.4570 C   0  0  0  0  0  0  0  0  0  0  0  0
   -7.5982   -0.7109   -0.3737 N   0  0  0  0  0  0  0  0  0  0  0  0
   -8.0304   -2.0613   -0.0041 C   0  0  0  0  0  0  0  0  0  0  0  0
   -8.5766    0.0732   -1.1325 C   0  0  0  0  0  0  0  0  0  0  0  0
   -5.7673    0.7493   -1.0786 C   0  0  0  0  0  0  0  0  0  0  0  0
   -4.4008    1.0696   -1.1415 C   0  0  0  0  0  0  0  0  0  0  0  0
   -3.4279    0.2357   -0.5723 C   0  0  0  0  0  0  0  0  0  0  0  0
   -2.0825    0.5137   -0.6093 N   0  0  0  0  0  4  0  0  0  0  0  0
   -1.6249    1.7773   -1.2379 C   0  0  0  0  0  0  0  0  0  0  0  0
    3.3845   -0.1348    0.1616 C   0  0  0  0  0  0  0  0  0  0  0  0
    3.2757   -1.3259   -0.7370 C   0  0  0  0  0  0  0  0  0  0  0  0
    4.6074    0.4828    0.4567 N   0  0  0  0  0  0  0  0  0  0  0  0
    5.8608    0.1956   -0.1593 C   0  0  0  0  0  0  0  0  0  0  0  0
    5.9434    0.0657   -1.5519 C   0  0  0  0  0  0  0  0  0  0  0  0
    7.1707   -0.2157   -2.1555 C   0  0  0  0  0  0  0  0  0  0  0  0
    8.3148   -0.3705   -1.3746 C   0  0  0  0  0  0  0  0  0  0  0  0
    8.2358   -0.2431    0.0115 C   0  0  0  0  0  0  0  0  0  0  0  0
    7.0123    0.0414    0.6217 C   0  0  0  0  0  0  0  0  0  0  0  0
    5.9888    1.8546    2.8030 H   0  0  0  0  0  0  0  0  0  0  0  0
    4.9501    3.2344    2.4444 H   0  0  0  0  0  0  0  0  0  0  0  0
    6.1088    2.6993    1.2336 H   0  0  0  0  0  0  0  0  0  0  0  0
    2.5689    2.0623    2.4971 H   0  0  0  0  0  0  0  0  0  0  0  0
    0.5313    0.2619    1.9296 H   0  0  0  0  0  0  0  0  0  0  0  0
    0.6989   -0.1190   -1.1246 H   0  0  0  0  0  0  0  0  0  0  0  0
   -0.8925   -2.1982    1.0262 H   0  0  0  0  0  0  0  0  0  0  0  0
   -3.2822   -2.7207    1.1452 H   0  0  0  0  0  0  0  0  0  0  0  0
   -5.5621   -2.1469    0.6302 H   0  0  0  0  0  0  0  0  0  0  0  0
   -7.7168   -2.3086    1.0157 H   0  0  0  0  0  0  0  0  0  0  0  0
   -9.1221   -2.1539   -0.0165 H   0  0  0  0  0  0  0  0  0  0  0  0
   -7.6301   -2.8045   -0.7026 H   0  0  0  0  0  0  0  0  0  0  0  0
   -8.4196   -0.0473   -2.2102 H   0  0  0  0  0  0  0  0  0  0  0  0
   -9.6017   -0.2409   -0.9081 H   0  0  0  0  0  0  0  0  0  0  0  0
   -8.5257    1.1350   -0.8691 H   0  0  0  0  0  0  0  0  0  0  0  0
   -6.4589    1.4525   -1.5387 H   0  0  0  0  0  0  0  0  0  0  0  0
   -4.1491    1.9952   -1.6520 H   0  0  0  0  0  0  0  0  0  0  0  0
   -1.9071    1.7469   -2.2947 H   0  0  0  0  0  0  0  0  0  0  0  0
   -2.1081    2.6077   -0.7132 H   0  0  0  0  0  0  0  0  0  0  0  0
   -0.5462    1.9168   -1.1687 H   0  0  0  0  0  0  0  0  0  0  0  0
    4.1746   -1.9486   -0.7066 H   0  0  0  0  0  0  0  0  0  0  0  0
    2.4488   -1.9735   -0.4271 H   0  0  0  0  0  0  0  0  0  0  0  0
    3.0899   -1.0141   -1.7683 H   0  0  0  0  0  0  0  0  0  0  0  0
    5.0758    0.2200   -2.1863 H   0  0  0  0  0  0  0  0  0  0  0  0
    7.2386   -0.3062   -3.2366 H   0  0  0  0  0  0  0  0  0  0  0  0
    9.2698   -0.5906   -1.8457 H   0  0  0  0  0  0  0  0  0  0  0  0
    9.1285   -0.3741    0.6189 H   0  0  0  0  0  0  0  0  0  0  0  0
    6.9738    0.0930    1.7067 H   0  0  0  0  0  0  0  0  0  0  0  0
  1  2  1  0
  2  3  2  0
  3  4  1  0
  4  5  1  0
  5  6  2  3
  6  7  1  0
  7  8  2  0
  8  9  1  0
  9 10  2  0
 10 11  1  0
 11 12  2  0
 12 13  1  0
 13 14  1  0
 13 15  1  0
 12 16  1  0
 16 17  2  0
 17 18  1  0
 18 19  2  0
 19 20  1  0
  4 21  2  0
 21 22  1  0
 21 23  1  0
 23 24  1  0
 24 25  2  0
 25 26  1  0
 26 27  2  0
 27 28  1  0
 28 29  2  0
 23  2  1  0
 29 24  1  0
 19  7  1  0
 18 10  1  0
  1 30  1  0
  1 31  1  0
  1 32  1  0
  3 33  1  0
  5 34  1  0
  6 35  1  0
  8 36  1  0
  9 37  1  0
 11 38  1  0
 14 39  1  0
 14 40  1  0
 14 41  1  0
 15 42  1  0
 15 43  1  0
 15 44  1  0
 16 45  1  0
 17 46  1  0
 20 47  1  0
 20 48  1  0
 20 49  1  0
 22 50  1  0
 22 51  1  0
 22 52  1  0
 25 53  1  0
 26 54  1  0
 27 55  1  0
 28 56  1  0
 29 57  1  0
M  CHG  1  19   1
M  END
$$$$
