
     RDKit          3D

 48 49  0  0  0  0  0  0  0  0999 V2000
   -4.5835    1.0153   -2.0689 C   0  0  0  0  0  0  0  0  0  0  0  0
   -4.8303   -0.2722   -1.2975 C   0  0  0  0  0  0  0  0  0  0  0  0
   -5.2205   -0.0093    0.0907 N   0  0  0  0  0  0  0  0  0  0  0  0
   -6.6424    0.2067    0.3541 C   0  0  0  0  0  0  0  0  0  0  0  0
   -7.3403   -1.0889    0.7360 C   0  0  0  0  0  0  0  0  0  0  0  0
   -4.3332    0.1306    1.1583 C   0  0  0  0  0  0  0  0  0  0  0  0
   -4.6706    0.4474    2.2962 O   0  0  0  0  0  0  0  0  0  0  0  0
   -2.8963   -0.1030    0.9250 C   0  0  0  0  0  0  0  0  0  0  0  0
   -2.4090   -1.4046    0.7953 C   0  0  0  0  0  0  0  0  0  0  0  0
   -1.0405   -1.6161    0.5974 C   0  0  0  0  0  0  0  0  0  0  0  0
   -0.1570   -0.5338    0.5468 C   0  0  0  0  0  0  0  0  0  0  0  0
    1.2298   -0.6631    0.3544 N   0  0  0  0  0  0  0  0  0  0  0  0
    1.9644   -1.8177    0.1539 C   0  0  0  0  0  0  0  0  0  0  0  0
    1.5281   -2.9638    0.0912 O   0  0  0  0  0  0  0  0  0  0  0  0
    3.4668   -1.5523    0.0070 C   0  0  0  0  0  0  0  0  0  0  0  0
    3.7418   -0.1547    0.0488 O   0  0  0  0  0  0  0  0  0  0  0  0
    5.0433    0.2537   -0.0645 C   0  0  0  0  0  0  0  0  0  0  0  0
    6.1357   -0.6057   -0.2224 C   0  0  0  0  0  0  0  0  0  0  0  0
    7.4324   -0.0886   -0.3298 C   0  0  0  0  0  0  0  0  0  0  0  0
    7.6379    1.2963   -0.2791 C   0  0  0  0  0  0  0  0  0  0  0  0
    8.9988    1.8353   -0.3928 N   0  0  0  0  0  4  0  0  0  0  0  0
    9.1357    3.0652   -0.3459 O   0  0  0  0  0  0  0  0  0  0  0  0
    9.9271    1.0267   -0.5295 O   0  0  0  0  0  1  0  0  0  0  0  0
    6.5577    2.1694   -0.1217 C   0  0  0  0  0  0  0  0  0  0  0  0
    5.2687    1.6424   -0.0156 C   0  0  0  0  0  0  0  0  0  0  0  0
    3.9522    2.7496    0.1780 Cl  0  0  0  0  0  0  0  0  0  0  0  0
   -0.6585    0.7668    0.7056 C   0  0  0  0  0  0  0  0  0  0  0  0
   -2.0247    0.9851    0.9010 C   0  0  0  0  0  0  0  0  0  0  0  0
   -5.4825    1.6393   -2.0952 H   0  0  0  0  0  0  0  0  0  0  0  0
   -3.7833    1.6054   -1.6118 H   0  0  0  0  0  0  0  0  0  0  0  0
   -4.2953    0.7900   -3.1003 H   0  0  0  0  0  0  0  0  0  0  0  0
   -3.9278   -0.8861   -1.3311 H   0  0  0  0  0  0  0  0  0  0  0  0
   -5.6246   -0.8550   -1.7773 H   0  0  0  0  0  0  0  0  0  0  0  0
   -6.7605    0.9317    1.1671 H   0  0  0  0  0  0  0  0  0  0  0  0
   -7.1101    0.6435   -0.5349 H   0  0  0  0  0  0  0  0  0  0  0  0
   -6.8967   -1.5242    1.6376 H   0  0  0  0  0  0  0  0  0  0  0  0
   -7.2608   -1.8303   -0.0657 H   0  0  0  0  0  0  0  0  0  0  0  0
   -8.4016   -0.9067    0.9300 H   0  0  0  0  0  0  0  0  0  0  0  0
   -3.0865   -2.2527    0.8519 H   0  0  0  0  0  0  0  0  0  0  0  0
   -0.6949   -2.6404    0.4975 H   0  0  0  0  0  0  0  0  0  0  0  0
    1.7764    0.1949    0.3547 H   0  0  0  0  0  0  0  0  0  0  0  0
    3.9669   -2.0621    0.8382 H   0  0  0  0  0  0  0  0  0  0  0  0
    3.7753   -1.9681   -0.9589 H   0  0  0  0  0  0  0  0  0  0  0  0
    6.0180   -1.6849   -0.2664 H   0  0  0  0  0  0  0  0  0  0  0  0
    8.2670   -0.7780   -0.4521 H   0  0  0  0  0  0  0  0  0  0  0  0
    6.7054    3.2465   -0.0808 H   0  0  0  0  0  0  0  0  0  0  0  0
    0.0073    1.6265    0.6863 H   0  0  0  0  0  0  0  0  0  0  0  0
   -2.4053    1.9939    1.0394 H   0  0  0  0  0  0  0  0  0  0  0  0
  1  2  1  0
  2  3  1  0
  3  4  1  0
  4  5  1  0
  3  6  1  0
  6  7  2  0
  6  8  1  0
  8  9  2  0
  9 10  1  0
 10 11  2  0
 11 12  1  0
 12 13  1  0
 13 14  2  0
 13 15  1  0
 15 16  1  0
 16 17  1  0
 17 18  2  0
 18 19  1  0
 19 20  2  0
 20 21  1  0
 21 22  2  0
 21 23  1  0
 20 24  1  0
 24 25  2  0
 25 26  1  0
 11 27  1  0
 27 28  2  0
 28  8  1  0
 25 17  1  0
  1 29  1  0
  1 30  1  0
  1 31  1  0
  2 32  1  0
  2 33  1  0
  4 34  1  0
  4 35  1  0
  5 36  1  0
  5 37  1  0
  5 38  1  0
  9 39  1  0
 10 40  1  0
 12 41  1  0
 15 42  1  0
 15 43  1  0
 18 44  1  0
 19 45  1  0
 24 46  1  0
 27 47  1  0
 28 48  1  0
M  CHG  2  21   1  23  -1
M  END
$$$$
