
     RDKit          3D

 35 37  0  0  0  0  0  0  0  0999 V2000
    6.6324   -0.8189    0.8763 C   0  0  0  0  0  0  0  0  0  0  0  0
    5.2043   -0.3596    0.9360 C   0  0  0  0  0  0  0  0  0  0  0  0
    4.8939    0.9226    1.4142 C   0  0  0  0  0  0  0  0  0  0  0  0
    3.5756    1.3954    1.4571 C   0  0  0  0  0  0  0  0  0  0  0  0
    2.5867    0.5311    0.9869 C   0  0  0  0  0  0  0  0  0  0  0  0
    1.2248    0.6515    0.8833 N   0  0  0  0  0  0  0  0  0  0  0  0
    0.7196   -0.5053    0.3265 C   0  0  0  0  0  0  0  0  0  0  0  0
   -0.6848   -0.6485    0.1302 C   0  0  0  0  0  0  0  0  0  0  0  0
   -1.2837   -1.9119    0.4372 C   0  0  0  0  0  0  0  0  0  0  0  0
   -1.8120   -2.9073    0.7197 N   0  0  0  0  0  0  0  0  0  0  0  0
   -1.3962    0.3786   -0.3833 C   0  0  0  0  0  0  0  0  0  0  0  0
   -2.8414    0.3940   -0.6638 C   0  0  0  0  0  0  0  0  0  0  0  0
   -3.7957    0.0869    0.3209 C   0  0  0  0  0  0  0  0  0  0  0  0
   -5.1644    0.1337    0.0309 C   0  0  0  0  0  0  0  0  0  0  0  0
   -5.5747    0.5065   -1.2418 C   0  0  0  0  0  0  0  0  0  0  0  0
   -6.8956    0.5706   -1.5872 O   0  0  0  0  0  0  0  0  0  0  0  0
   -4.6341    0.8339   -2.2137 C   0  0  0  0  0  0  0  0  0  0  0  0
   -5.0452    1.2106   -3.4604 O   0  0  0  0  0  0  0  0  0  0  0  0
   -3.2742    0.7840   -1.9373 C   0  0  0  0  0  0  0  0  0  0  0  0
    1.6963   -1.3633    0.1029 N   0  0  0  0  0  0  0  0  0  0  0  0
    2.8543   -0.7381    0.4943 C   0  0  0  0  0  0  0  0  0  0  0  0
    4.1792   -1.1962    0.4596 C   0  0  0  0  0  0  0  0  0  0  0  0
    6.6977   -1.9074    0.9776 H   0  0  0  0  0  0  0  0  0  0  0  0
    7.2172   -0.3816    1.6924 H   0  0  0  0  0  0  0  0  0  0  0  0
    7.0799   -0.5248   -0.0780 H   0  0  0  0  0  0  0  0  0  0  0  0
    5.6929    1.5742    1.7657 H   0  0  0  0  0  0  0  0  0  0  0  0
    3.3468    2.3857    1.8352 H   0  0  0  0  0  0  0  0  0  0  0  0
    0.6865    1.4513    1.1814 H   0  0  0  0  0  0  0  0  0  0  0  0
   -0.8966    1.2973   -0.6880 H   0  0  0  0  0  0  0  0  0  0  0  0
   -3.4889   -0.1957    1.3261 H   0  0  0  0  0  0  0  0  0  0  0  0
   -5.8808   -0.1210    0.8055 H   0  0  0  0  0  0  0  0  0  0  0  0
   -7.4223    0.2616   -0.8298 H   0  0  0  0  0  0  0  0  0  0  0  0
   -6.0212    1.1548   -3.4246 H   0  0  0  0  0  0  0  0  0  0  0  0
   -2.5665    1.0396   -2.7213 H   0  0  0  0  0  0  0  0  0  0  0  0
    4.3902   -2.1863    0.0693 H   0  0  0  0  0  0  0  0  0  0  0  0
  1  2  1  0
  2  3  2  0
  3  4  1  0
  4  5  2  0
  5  6  1  0
  6  7  1  0
  7  8  1  0
  8  9  1  0
  9 10  3  0
  8 11  2  3
 11 12  1  0
 12 13  2  0
 13 14  1  0
 14 15  2  0
 15 16  1  0
 15 17  1  0
 17 18  1  0
 17 19  2  0
  7 20  2  0
 20 21  1  0
 21 22  2  0
 22  2  1  0
 21  5  1  0
 19 12  1  0
  1 23  1  0
  1 24  1  0
  1 25  1  0
  3 26  1  0
  4 27  1  0
  6 28  1  0
 11 29  1  0
 13 30  1  0
 14 31  1  0
 16 32  1  0
 18 33  1  0
 19 34  1  0
 22 35  1  0
M  END
$$$$
