
     RDKit          3D

 53 58  0  0  0  0  0  0  0  0999 V2000
    1.7531   -1.6697    0.4172 C   0  0  0  0  0  0  0  0  0  0  0  0
    0.5142   -0.8064    0.7469 C   0  0  0  0  0  0  0  0  0  0  0  0
    0.7687   -0.1493    2.1139 C   0  0  0  0  0  0  0  0  0  0  0  0
    0.2639   -0.5805    3.1550 O   0  0  0  0  0  0  0  0  0  0  0  0
    1.6846    0.8567    2.2429 N   0  0  0  0  0  0  0  0  0  0  0  0
    2.5189    1.4951    1.3044 C   0  0  0  0  0  0  0  0  0  0  0  0
    3.5740    2.2276    1.8840 C   0  0  0  0  0  0  0  0  0  0  0  0
    4.5270    2.8605    1.0928 C   0  0  0  0  0  0  0  0  0  0  0  0
    5.5262    3.5318    1.6801 F   0  0  0  0  0  0  0  0  0  0  0  0
    4.4466    2.7876   -0.2848 C   0  0  0  0  0  0  0  0  0  0  0  0
    5.3639    3.3928   -1.0499 F   0  0  0  0  0  0  0  0  0  0  0  0
    3.4013    2.0981   -0.8833 C   0  0  0  0  0  0  0  0  0  0  0  0
    2.4175    1.4533   -0.1016 C   0  0  0  0  0  0  0  0  0  0  0  0
    1.2765    0.8839   -0.8764 C   0  0  0  0  0  0  0  0  0  0  0  0
    1.2508    0.9986   -2.0982 O   0  0  0  0  0  0  0  0  0  0  0  0
    0.2441    0.3076   -0.1760 N   0  0  0  0  0  0  0  0  0  0  0  0
   -1.1296    0.2758   -0.7033 C   0  0  0  0  0  0  0  0  0  0  0  0
   -1.8132    1.6297   -0.7772 C   0  0  0  0  0  0  0  0  0  0  0  0
   -1.4020    2.6046   -1.7040 C   0  0  0  0  0  0  0  0  0  0  0  0
   -2.0656    3.8301   -1.8040 C   0  0  0  0  0  0  0  0  0  0  0  0
   -1.5253    5.0048   -2.9397 Cl  0  0  0  0  0  0  0  0  0  0  0  0
   -3.1685    4.1029   -1.0038 C   0  0  0  0  0  0  0  0  0  0  0  0
   -3.6104    3.1390   -0.1018 C   0  0  0  0  0  0  0  0  0  0  0  0
   -2.9338    1.9211    0.0136 C   0  0  0  0  0  0  0  0  0  0  0  0
   -3.4785    1.0337    0.9008 O   0  0  0  0  0  0  0  0  0  0  0  0
   -2.5252    0.0936    1.3842 C   0  0  0  0  0  0  0  0  0  0  0  0
   -1.8808   -0.6780    0.2346 C   0  0  0  0  0  0  0  0  0  0  0  0
   -0.8067   -1.6545    0.7497 C   0  0  0  0  0  0  0  0  0  0  0  0
   -0.8328   -2.9559   -0.0519 C   0  0  0  0  0  0  0  0  0  0  0  0
   -1.1620   -4.1509    0.6126 C   0  0  0  0  0  0  0  0  0  0  0  0
   -1.2145   -5.3661   -0.0734 C   0  0  0  0  0  0  0  0  0  0  0  0
   -0.9407   -5.4092   -1.4366 C   0  0  0  0  0  0  0  0  0  0  0  0
   -0.6137   -4.2375   -2.1124 C   0  0  0  0  0  0  0  0  0  0  0  0
   -0.5615   -3.0206   -1.4272 C   0  0  0  0  0  0  0  0  0  0  0  0
    1.7972   -1.9432   -0.6409 H   0  0  0  0  0  0  0  0  0  0  0  0
    2.7003   -1.1717    0.6442 H   0  0  0  0  0  0  0  0  0  0  0  0
    1.7559   -2.5868    1.0181 H   0  0  0  0  0  0  0  0  0  0  0  0
    1.8210    1.0898    3.2218 H   0  0  0  0  0  0  0  0  0  0  0  0
    3.6893    2.2996    2.9629 H   0  0  0  0  0  0  0  0  0  0  0  0
    3.3488    2.0913   -1.9705 H   0  0  0  0  0  0  0  0  0  0  0  0
   -1.0974   -0.1409   -1.7165 H   0  0  0  0  0  0  0  0  0  0  0  0
   -0.5743    2.4095   -2.3799 H   0  0  0  0  0  0  0  0  0  0  0  0
   -3.6936    5.0501   -1.0859 H   0  0  0  0  0  0  0  0  0  0  0  0
   -4.4840    3.3329    0.5155 H   0  0  0  0  0  0  0  0  0  0  0  0
   -1.8020    0.6246    2.0126 H   0  0  0  0  0  0  0  0  0  0  0  0
   -3.0628   -0.6011    2.0395 H   0  0  0  0  0  0  0  0  0  0  0  0
   -2.6864   -1.1780   -0.3203 H   0  0  0  0  0  0  0  0  0  0  0  0
   -1.0582   -1.9397    1.7786 H   0  0  0  0  0  0  0  0  0  0  0  0
   -1.3845   -4.1497    1.6784 H   0  0  0  0  0  0  0  0  0  0  0  0
   -1.4715   -6.2789    0.4581 H   0  0  0  0  0  0  0  0  0  0  0  0
   -0.9816   -6.3541   -1.9718 H   0  0  0  0  0  0  0  0  0  0  0  0
   -0.3960   -4.2687   -3.1773 H   0  0  0  0  0  0  0  0  0  0  0  0
   -0.2866   -2.1355   -1.9939 H   0  0  0  0  0  0  0  0  0  0  0  0
  1  2  1  0
  2  3  1  0
  3  4  2  0
  3  5  1  0
  5  6  1  0
  6  7  2  0
  7  8  1  0
  8  9  1  0
  8 10  2  0
 10 11  1  0
 10 12  1  0
 12 13  2  0
 13 14  1  0
 14 15  2  0
 14 16  1  0
 16 17  1  0
 17 18  1  0
 18 19  2  0
 19 20  1  0
 20 21  1  0
 20 22  2  0
 22 23  1  0
 23 24  2  0
 24 25  1  0
 25 26  1  0
 26 27  1  0
 27 28  1  0
 28 29  1  0
 29 30  2  0
 30 31  1  0
 31 32  2  0
 32 33  1  0
 33 34  2  0
 16  2  1  0
 27 17  1  0
 34 29  1  0
 28  2  1  0
 13  6  1  0
 24 18  1  0
  1 35  1  0
  1 36  1  0
  1 37  1  0
  5 38  1  0
  7 39  1  0
 12 40  1  0
 17 41  1  0
 19 42  1  0
 22 43  1  0
 23 44  1  0
 26 45  1  0
 26 46  1  0
 27 47  1  0
 28 48  1  0
 30 49  1  0
 31 50  1  0
 32 51  1  0
 33 52  1  0
 34 53  1  0
M  END
$$$$
