
     RDKit          3D

 51 53  0  0  0  0  0  0  0  0999 V2000
    3.0540   -3.6264   -1.0998 C   0  0  0  0  0  0  0  0  0  0  0  0
    4.4197   -3.2760   -1.3000 O   0  0  0  0  0  0  0  0  0  0  0  0
    4.8010   -2.0240   -0.8964 C   0  0  0  0  0  0  0  0  0  0  0  0
    6.1766   -1.7908   -0.9419 C   0  0  0  0  0  0  0  0  0  0  0  0
    6.6975   -0.5601   -0.5482 C   0  0  0  0  0  0  0  0  0  0  0  0
    5.8390    0.4492   -0.1147 C   0  0  0  0  0  0  0  0  0  0  0  0
    4.4562    0.2381   -0.0809 C   0  0  0  0  0  0  0  0  0  0  0  0
    3.6537    1.3101    0.3489 N   0  0  0  0  0  0  0  0  0  0  0  0
    2.2780    1.3698    0.3971 C   0  0  0  0  0  0  0  0  0  0  0  0
    1.4535    0.5205    0.0829 O   0  0  0  0  0  0  0  0  0  0  0  0
    1.7677    2.7246    0.9201 C   0  0  0  0  0  0  0  0  0  0  0  0
    2.5647    3.5315    1.3791 O   0  0  0  0  0  0  0  0  0  0  0  0
    0.4026    2.8357    0.7776 N   0  0  0  0  0  0  0  0  0  0  0  0
   -0.2881    3.9217    1.2240 N   0  0  0  0  0  0  0  0  0  0  0  0
   -1.5823    3.9316    1.0877 C   0  0  0  0  0  0  0  0  0  0  0  0
   -2.3885    2.8432    0.5575 C   0  0  0  0  0  0  0  0  0  0  0  0
   -3.3867    2.9594   -0.4349 C   0  0  0  0  0  0  0  0  0  0  0  0
   -3.8914    1.7014   -0.7016 C   0  0  0  0  0  0  0  0  0  0  0  0
   -4.8748    1.3435   -1.7642 C   0  0  0  0  0  0  0  0  0  0  0  0
   -3.2347    0.7929    0.1240 N   0  0  0  0  0  0  0  0  0  0  0  0
   -3.3547   -0.6269    0.0913 C   0  0  0  0  0  0  0  0  0  0  0  0
   -4.6087   -1.2373   -0.0096 C   0  0  0  0  0  0  0  0  0  0  0  0
   -4.7040   -2.6328   -0.0416 C   0  0  0  0  0  0  0  0  0  0  0  0
   -3.5533   -3.4224    0.0226 C   0  0  0  0  0  0  0  0  0  0  0  0
   -3.7525   -5.1359   -0.0226 Cl  0  0  0  0  0  0  0  0  0  0  0  0
   -2.2979   -2.8139    0.1206 C   0  0  0  0  0  0  0  0  0  0  0  0
   -0.8306   -3.7228    0.1969 Cl  0  0  0  0  0  0  0  0  0  0  0  0
   -2.1977   -1.4195    0.1565 C   0  0  0  0  0  0  0  0  0  0  0  0
   -2.4000    1.5169    0.9754 C   0  0  0  0  0  0  0  0  0  0  0  0
   -1.7388    0.9214    2.1803 C   0  0  0  0  0  0  0  0  0  0  0  0
    3.9436   -1.0053   -0.4694 C   0  0  0  0  0  0  0  0  0  0  0  0
    2.7802   -3.5541   -0.0425 H   0  0  0  0  0  0  0  0  0  0  0  0
    2.3917   -3.0168   -1.7229 H   0  0  0  0  0  0  0  0  0  0  0  0
    2.9299   -4.6695   -1.4053 H   0  0  0  0  0  0  0  0  0  0  0  0
    6.8447   -2.5781   -1.2845 H   0  0  0  0  0  0  0  0  0  0  0  0
    7.7704   -0.3889   -0.5813 H   0  0  0  0  0  0  0  0  0  0  0  0
    6.2651    1.4032    0.1853 H   0  0  0  0  0  0  0  0  0  0  0  0
    4.1212    2.1649    0.6472 H   0  0  0  0  0  0  0  0  0  0  0  0
   -0.0783    2.0816    0.2911 H   0  0  0  0  0  0  0  0  0  0  0  0
   -2.1225    4.8541    1.3579 H   0  0  0  0  0  0  0  0  0  0  0  0
   -3.6759    3.8667   -0.9509 H   0  0  0  0  0  0  0  0  0  0  0  0
   -5.8669    1.1797   -1.3343 H   0  0  0  0  0  0  0  0  0  0  0  0
   -4.9671    2.1590   -2.4895 H   0  0  0  0  0  0  0  0  0  0  0  0
   -4.5650    0.4544   -2.3215 H   0  0  0  0  0  0  0  0  0  0  0  0
   -5.5254   -0.6540   -0.0156 H   0  0  0  0  0  0  0  0  0  0  0  0
   -5.6853   -3.0988   -0.1069 H   0  0  0  0  0  0  0  0  0  0  0  0
   -1.2114   -0.9635    0.1890 H   0  0  0  0  0  0  0  0  0  0  0  0
   -2.3703    0.1586    2.6475 H   0  0  0  0  0  0  0  0  0  0  0  0
   -0.7747    0.4750    1.9267 H   0  0  0  0  0  0  0  0  0  0  0  0
   -1.5610    1.6916    2.9405 H   0  0  0  0  0  0  0  0  0  0  0  0
    2.8773   -1.1825   -0.4381 H   0  0  0  0  0  0  0  0  0  0  0  0
  1  2  1  0
  2  3  1  0
  3  4  2  0
  4  5  1  0
  5  6  2  0
  6  7  1  0
  7  8  1  0
  8  9  1  0
  9 10  2  0
  9 11  1  0
 11 12  2  0
 11 13  1  0
 13 14  1  0
 14 15  2  3
 15 16  1  0
 16 17  1  0
 17 18  2  0
 18 19  1  0
 18 20  1  0
 20 21  1  0
 21 22  2  0
 22 23  1  0
 23 24  2  0
 24 25  1  0
 24 26  1  0
 26 27  1  0
 26 28  2  0
 20 29  1  0
 29 30  1  0
  7 31  2  0
 31  3  1  0
 29 16  2  0
 28 21  1  0
  1 32  1  0
  1 33  1  0
  1 34  1  0
  4 35  1  0
  5 36  1  0
  6 37  1  0
  8 38  1  0
 13 39  1  0
 15 40  1  0
 17 41  1  0
 19 42  1  0
 19 43  1  0
 19 44  1  0
 22 45  1  0
 23 46  1  0
 28 47  1  0
 30 48  1  0
 30 49  1  0
 30 50  1  0
 31 51  1  0
M  END
$$$$
