
     RDKit          3D

 63 67  0  0  0  0  0  0  0  0999 V2000
    6.6982   -0.2812   -4.3791 C   0  0  0  0  0  0  0  0  0  0  0  0
    5.8635    0.9291   -4.0043 C   0  0  0  0  0  0  0  0  0  0  0  0
    4.9994    0.6140   -2.9041 O   0  0  0  0  0  0  0  0  0  0  0  0
    5.5411    0.7662   -1.6606 C   0  0  0  0  0  0  0  0  0  0  0  0
    6.6850    1.1458   -1.4407 O   0  0  0  0  0  0  0  0  0  0  0  0
    4.5957    0.4226   -0.6060 C   0  0  0  0  0  0  0  0  0  0  0  0
    3.2517   -0.0363   -0.7225 C   0  0  0  0  0  0  0  0  0  0  0  0
    2.7452   -0.2190    0.5512 C   0  0  0  0  0  0  0  0  0  0  0  0
    1.4447   -0.6695    1.0164 C   0  0  0  0  0  0  0  0  0  0  0  0
    0.3927   -0.9222    0.1383 N   0  0  0  0  0  0  0  0  0  0  0  0
   -0.6561   -1.8607    0.5906 C   0  0  0  0  0  0  0  0  0  0  0  0
   -1.5609   -2.2839   -0.5868 C   0  0  0  0  0  0  0  0  0  0  0  0
   -2.1799   -1.1634   -1.3375 N   0  0  0  0  0  0  0  0  0  0  0  0
   -3.2472   -0.5240   -0.5466 C   0  0  0  0  0  0  0  0  0  0  0  0
   -4.1406    0.4026   -1.3924 C   0  0  0  0  0  0  0  0  0  0  0  0
   -5.2982    0.9603   -0.5851 C   0  0  0  0  0  0  0  0  0  0  0  0
   -5.0551    2.0754    0.2386 C   0  0  0  0  0  0  0  0  0  0  0  0
   -6.0708    2.6281    1.0170 C   0  0  0  0  0  0  0  0  0  0  0  0
   -7.3459    2.0765    0.9872 C   0  0  0  0  0  0  0  0  0  0  0  0
   -7.6051    0.9697    0.1792 C   0  0  0  0  0  0  0  0  0  0  0  0
   -6.5930    0.3922   -0.6129 C   0  0  0  0  0  0  0  0  0  0  0  0
   -6.9329   -0.8063   -1.4746 C   0  0  0  0  0  0  0  0  0  0  0  0
   -6.8467   -0.5366   -2.8068 F   0  0  0  0  0  0  0  0  0  0  0  0
   -8.1991   -1.2755   -1.2785 F   0  0  0  0  0  0  0  0  0  0  0  0
   -6.1140   -1.8702   -1.2474 F   0  0  0  0  0  0  0  0  0  0  0  0
   -1.1007   -0.2299   -1.7333 C   0  0  0  0  0  0  0  0  0  0  0  0
   -0.1709    0.2324   -0.5892 C   0  0  0  0  0  0  0  0  0  0  0  0
    1.2662   -0.8508    2.3003 N   0  0  0  0  0  0  0  0  0  0  0  0
    2.3041   -0.5750    3.2130 C   0  0  0  0  0  0  0  0  0  0  0  0
    2.0604   -0.7713    4.5735 C   0  0  0  0  0  0  0  0  0  0  0  0
    3.0520   -0.5050    5.5217 C   0  0  0  0  0  0  0  0  0  0  0  0
    4.3024   -0.0372    5.1155 C   0  0  0  0  0  0  0  0  0  0  0  0
    4.5690    0.1663    3.7611 C   0  0  0  0  0  0  0  0  0  0  0  0
    3.5670   -0.1039    2.8245 C   0  0  0  0  0  0  0  0  0  0  0  0
    3.7535    0.0619    1.4427 N   0  0  0  0  0  0  0  0  0  0  0  0
    4.8645    0.4790    0.7530 C   0  0  0  0  0  0  0  0  0  0  0  0
    7.3554   -0.5763   -3.5549 H   0  0  0  0  0  0  0  0  0  0  0  0
    6.0545   -1.1401   -4.5964 H   0  0  0  0  0  0  0  0  0  0  0  0
    7.3142   -0.0703   -5.2580 H   0  0  0  0  0  0  0  0  0  0  0  0
    6.4929    1.7987   -3.7823 H   0  0  0  0  0  0  0  0  0  0  0  0
    5.2203    1.2059   -4.8462 H   0  0  0  0  0  0  0  0  0  0  0  0
    2.7140   -0.2177   -1.6447 H   0  0  0  0  0  0  0  0  0  0  0  0
   -0.1891   -2.7633    1.0033 H   0  0  0  0  0  0  0  0  0  0  0  0
   -1.2562   -1.4021    1.3860 H   0  0  0  0  0  0  0  0  0  0  0  0
   -0.9587   -2.8667   -1.2968 H   0  0  0  0  0  0  0  0  0  0  0  0
   -2.3360   -2.9722   -0.2278 H   0  0  0  0  0  0  0  0  0  0  0  0
   -3.8925   -1.3080   -0.1287 H   0  0  0  0  0  0  0  0  0  0  0  0
   -2.8432    0.0239    0.3130 H   0  0  0  0  0  0  0  0  0  0  0  0
   -4.5081   -0.1303   -2.2760 H   0  0  0  0  0  0  0  0  0  0  0  0
   -3.5634    1.2492   -1.7835 H   0  0  0  0  0  0  0  0  0  0  0  0
   -4.0638    2.5241    0.2765 H   0  0  0  0  0  0  0  0  0  0  0  0
   -5.8658    3.4907    1.6462 H   0  0  0  0  0  0  0  0  0  0  0  0
   -8.1402    2.5072    1.5921 H   0  0  0  0  0  0  0  0  0  0  0  0
   -8.6126    0.5540    0.1704 H   0  0  0  0  0  0  0  0  0  0  0  0
   -1.5106    0.6456   -2.2472 H   0  0  0  0  0  0  0  0  0  0  0  0
   -0.4861   -0.7405   -2.4874 H   0  0  0  0  0  0  0  0  0  0  0  0
    0.6234    0.8465   -1.0251 H   0  0  0  0  0  0  0  0  0  0  0  0
   -0.7175    0.8743    0.1122 H   0  0  0  0  0  0  0  0  0  0  0  0
    1.0876   -1.1349    4.8938 H   0  0  0  0  0  0  0  0  0  0  0  0
    2.8465   -0.6638    6.5773 H   0  0  0  0  0  0  0  0  0  0  0  0
    5.0711    0.1672    5.8571 H   0  0  0  0  0  0  0  0  0  0  0  0
    5.5498    0.5275    3.4695 H   0  0  0  0  0  0  0  0  0  0  0  0
    5.7749    0.7708    1.2584 H   0  0  0  0  0  0  0  0  0  0  0  0
  1  2  1  0
  2  3  1  0
  3  4  1  0
  4  5  2  0
  4  6  1  0
  6  7  1  0
  7  8  2  0
  8  9  1  0
  9 10  1  0
 10 11  1  0
 11 12  1  0
 12 13  1  0
 13 14  1  0
 14 15  1  0
 15 16  1  0
 16 17  2  0
 17 18  1  0
 18 19  2  0
 19 20  1  0
 20 21  2  0
 21 22  1  0
 22 23  1  0
 22 24  1  0
 22 25  1  0
 13 26  1  0
 26 27  1  0
  9 28  2  0
 28 29  1  0
 29 30  2  0
 30 31  1  0
 31 32  2  0
 32 33  1  0
 33 34  2  0
 34 35  1  0
 35 36  1  0
 36  6  2  0
 35  8  1  0
 27 10  1  0
 34 29  1  0
 21 16  1  0
  1 37  1  0
  1 38  1  0
  1 39  1  0
  2 40  1  0
  2 41  1  0
  7 42  1  0
 11 43  1  0
 11 44  1  0
 12 45  1  0
 12 46  1  0
 14 47  1  0
 14 48  1  0
 15 49  1  0
 15 50  1  0
 17 51  1  0
 18 52  1  0
 19 53  1  0
 20 54  1  0
 26 55  1  0
 26 56  1  0
 27 57  1  0
 27 58  1  0
 30 59  1  0
 31 60  1  0
 32 61  1  0
 33 62  1  0
 36 63  1  0
M  END
$$$$
