
     RDKit          3D

 46 49  0  0  0  0  0  0  0  0999 V2000
   -3.6819   -3.8851    0.9093 C   0  0  0  0  0  0  0  0  0  0  0  0
   -4.4977   -3.1498    0.0056 O   0  0  0  0  0  0  0  0  0  0  0  0
   -4.0032   -1.9513   -0.4319 C   0  0  0  0  0  0  0  0  0  0  0  0
   -4.7312   -1.3651   -1.4694 C   0  0  0  0  0  0  0  0  0  0  0  0
   -4.3335   -0.1452   -2.0164 C   0  0  0  0  0  0  0  0  0  0  0  0
   -3.2054    0.5037   -1.5181 C   0  0  0  0  0  0  0  0  0  0  0  0
   -2.4800   -0.0614   -0.4629 C   0  0  0  0  0  0  0  0  0  0  0  0
   -1.3048    0.6225    0.0644 C   0  0  0  0  0  0  0  0  0  0  0  0
    0.0406    0.4319   -0.2202 C   0  0  0  0  0  0  0  0  0  0  0  0
    0.6589   -0.5338   -1.1254 C   0  0  0  0  0  0  0  0  0  0  0  0
    0.0172   -1.3733   -1.7479 O   0  0  0  0  0  0  0  0  0  0  0  0
    2.0390   -0.3884   -1.1771 N   0  0  0  0  0  0  0  0  0  0  0  0
    2.7896   -1.1491   -2.0265 N   0  0  0  0  0  0  0  0  0  0  0  0
    4.0869   -1.0363   -2.0188 C   0  0  0  0  0  0  0  0  0  0  0  0
    4.8480   -1.8176   -3.0686 C   0  0  0  0  0  0  0  0  0  0  0  0
    4.8560   -0.2299   -1.0857 C   0  0  0  0  0  0  0  0  0  0  0  0
    4.7837   -0.2065    0.2973 C   0  0  0  0  0  0  0  0  0  0  0  0
    5.6991    0.7253    0.8728 C   0  0  0  0  0  0  0  0  0  0  0  0
    6.4292    1.3610   -0.0972 C   0  0  0  0  0  0  0  0  0  0  0  0
    7.6375    2.5558    0.1467 Cl  0  0  0  0  0  0  0  0  0  0  0  0
    6.0450    0.8613   -1.6669 S   0  0  0  0  0  0  0  0  0  0  0  0
    0.7889    1.3305    0.4965 N   0  0  0  0  0  0  0  0  0  0  0  0
   -0.0304    2.0653    1.2252 N   0  0  0  0  0  0  0  0  0  0  0  0
   -1.3172    1.6547    1.0076 N   0  0  0  0  0  0  0  0  0  0  0  0
   -2.4079    2.2566    1.6862 C   0  0  0  0  0  0  0  0  0  0  0  0
   -3.6627    1.8620    1.4697 N   0  0  0  0  0  0  0  0  0  0  0  0
   -4.4265    2.6803    2.2986 O   0  0  0  0  0  0  0  0  0  0  0  0
   -3.6244    3.5657    3.0110 N   0  0  0  0  0  0  0  0  0  0  0  0
   -2.3749    3.2961    2.6352 C   0  0  0  0  0  0  0  0  0  0  0  0
   -1.2877    3.9344    3.1087 N   0  0  0  0  0  0  0  0  0  0  0  0
   -2.8786   -1.2951    0.0734 C   0  0  0  0  0  0  0  0  0  0  0  0
   -3.6172   -3.3778    1.8773 H   0  0  0  0  0  0  0  0  0  0  0  0
   -2.6866   -4.0695    0.4905 H   0  0  0  0  0  0  0  0  0  0  0  0
   -4.1568   -4.8582    1.0741 H   0  0  0  0  0  0  0  0  0  0  0  0
   -5.6104   -1.8699   -1.8618 H   0  0  0  0  0  0  0  0  0  0  0  0
   -4.9014    0.2939   -2.8325 H   0  0  0  0  0  0  0  0  0  0  0  0
   -2.9014    1.4491   -1.9598 H   0  0  0  0  0  0  0  0  0  0  0  0
    2.4637    0.3796   -0.6647 H   0  0  0  0  0  0  0  0  0  0  0  0
    5.7901   -2.1953   -2.6610 H   0  0  0  0  0  0  0  0  0  0  0  0
    5.0550   -1.1700   -3.9257 H   0  0  0  0  0  0  0  0  0  0  0  0
    4.2515   -2.6689   -3.4106 H   0  0  0  0  0  0  0  0  0  0  0  0
    4.1132   -0.8366    0.8711 H   0  0  0  0  0  0  0  0  0  0  0  0
    5.8128    0.9101    1.9341 H   0  0  0  0  0  0  0  0  0  0  0  0
   -0.3751    3.8322    2.6694 H   0  0  0  0  0  0  0  0  0  0  0  0
   -1.4094    4.7869    3.6459 H   0  0  0  0  0  0  0  0  0  0  0  0
   -2.2995   -1.7247    0.8834 H   0  0  0  0  0  0  0  0  0  0  0  0
  1  2  1  0
  2  3  1  0
  3  4  2  0
  4  5  1  0
  5  6  2  0
  6  7  1  0
  7  8  1  0
  8  9  2  0
  9 10  1  0
 10 11  2  0
 10 12  1  0
 12 13  1  0
 13 14  2  3
 14 15  1  0
 14 16  1  0
 16 17  2  0
 17 18  1  0
 18 19  2  0
 19 20  1  0
 19 21  1  0
  9 22  1  0
 22 23  2  0
 23 24  1  0
 24 25  1  0
 25 26  2  0
 26 27  1  0
 27 28  1  0
 28 29  2  0
 29 30  1  0
  7 31  2  0
 31  3  1  0
 24  8  1  0
 29 25  1  0
 21 16  1  0
  1 32  1  0
  1 33  1  0
  1 34  1  0
  4 35  1  0
  5 36  1  0
  6 37  1  0
 12 38  1  0
 15 39  1  0
 15 40  1  0
 15 41  1  0
 17 42  1  0
 18 43  1  0
 30 44  1  0
 30 45  1  0
 31 46  1  0
M  END
$$$$
