
     RDKit          3D

 46 47  0  0  0  0  0  0  0  0999 V2000
    1.3197    2.5860   -3.0810 C   0  0  0  0  0  0  0  0  0  0  0  0
    2.4925    1.9913   -2.3417 C   0  0  0  0  0  0  0  0  0  0  0  0
    3.4657    2.6797   -2.0523 O   0  0  0  0  0  0  0  0  0  0  0  0
    2.2982    0.6619   -2.0334 N   0  0  0  0  0  0  0  0  0  0  0  0
    3.1695   -0.2121   -1.3491 C   0  0  0  0  0  0  0  0  0  0  0  0
    4.4498    0.1455   -0.9234 C   0  0  0  0  0  0  0  0  0  0  0  0
    5.2641   -0.7834   -0.2639 C   0  0  0  0  0  0  0  0  0  0  0  0
    4.8123   -2.0818   -0.0327 C   0  0  0  0  0  0  0  0  0  0  0  0
    3.5384   -2.4549   -0.4519 C   0  0  0  0  0  0  0  0  0  0  0  0
    2.7193   -1.5178   -1.0861 C   0  0  0  0  0  0  0  0  0  0  0  0
    1.4766   -1.9188   -1.5128 O   0  0  0  0  0  0  0  0  0  0  0  0
    0.5085   -1.8435   -0.4561 C   0  0  0  0  0  0  0  0  0  0  0  0
   -0.2415   -3.1704   -0.4293 C   0  0  0  0  0  0  0  0  0  0  0  0
   -0.4687   -0.6839   -0.7275 C   0  0  0  0  0  0  0  0  0  0  0  0
   -0.4174    0.0071   -1.7449 O   0  0  0  0  0  0  0  0  0  0  0  0
   -1.3868   -0.4603    0.2762 N   0  0  0  0  0  0  0  0  0  0  0  0
   -2.3572    0.6209    0.2097 C   0  0  0  0  0  0  0  0  0  0  0  0
   -3.5056    0.2829   -0.7453 C   0  0  0  0  0  0  0  0  0  0  0  0
   -2.8403    0.9479    1.6130 C   0  0  0  0  0  0  0  0  0  0  0  0
   -3.7134    0.0953    2.3132 C   0  0  0  0  0  0  0  0  0  0  0  0
   -4.1196    0.4062    3.6125 C   0  0  0  0  0  0  0  0  0  0  0  0
   -3.6510    1.5641    4.2196 C   0  0  0  0  0  0  0  0  0  0  0  0
   -4.0392    1.8580    5.4673 F   0  0  0  0  0  0  0  0  0  0  0  0
   -2.7806    2.4171    3.5537 C   0  0  0  0  0  0  0  0  0  0  0  0
   -2.3723    2.1085    2.2546 C   0  0  0  0  0  0  0  0  0  0  0  0
    0.5655    2.9126   -2.3603 H   0  0  0  0  0  0  0  0  0  0  0  0
    1.6588    3.4447   -3.6675 H   0  0  0  0  0  0  0  0  0  0  0  0
    0.8806    1.8587   -3.7699 H   0  0  0  0  0  0  0  0  0  0  0  0
    1.3906    0.2626   -2.2805 H   0  0  0  0  0  0  0  0  0  0  0  0
    4.8508    1.1391   -1.0989 H   0  0  0  0  0  0  0  0  0  0  0  0
    6.2610   -0.4888    0.0559 H   0  0  0  0  0  0  0  0  0  0  0  0
    5.4582   -2.8017    0.4629 H   0  0  0  0  0  0  0  0  0  0  0  0
    3.1911   -3.4713   -0.2952 H   0  0  0  0  0  0  0  0  0  0  0  0
    0.9741   -1.6695    0.5242 H   0  0  0  0  0  0  0  0  0  0  0  0
    0.4561   -4.0029   -0.2888 H   0  0  0  0  0  0  0  0  0  0  0  0
   -0.7578   -3.3445   -1.3804 H   0  0  0  0  0  0  0  0  0  0  0  0
   -0.9865   -3.2034    0.3714 H   0  0  0  0  0  0  0  0  0  0  0  0
   -1.3333   -0.9952    1.1335 H   0  0  0  0  0  0  0  0  0  0  0  0
   -1.8430    1.4986   -0.2031 H   0  0  0  0  0  0  0  0  0  0  0  0
   -3.1386    0.1626   -1.7702 H   0  0  0  0  0  0  0  0  0  0  0  0
   -4.2587    1.0783   -0.7508 H   0  0  0  0  0  0  0  0  0  0  0  0
   -4.0027   -0.6550   -0.4743 H   0  0  0  0  0  0  0  0  0  0  0  0
   -4.0837   -0.8191    1.8551 H   0  0  0  0  0  0  0  0  0  0  0  0
   -4.7968   -0.2465    4.1544 H   0  0  0  0  0  0  0  0  0  0  0  0
   -2.4231    3.3142    4.0494 H   0  0  0  0  0  0  0  0  0  0  0  0
   -1.6834    2.7810    1.7456 H   0  0  0  0  0  0  0  0  0  0  0  0
  1  2  1  0
  2  3  2  0
  2  4  1  0
  4  5  1  0
  5  6  2  0
  6  7  1  0
  7  8  2  0
  8  9  1  0
  9 10  2  0
 10 11  1  0
 11 12  1  0
 12 13  1  0
 12 14  1  0
 14 15  2  0
 14 16  1  0
 16 17  1  0
 17 18  1  0
 17 19  1  0
 19 20  2  0
 20 21  1  0
 21 22  2  0
 22 23  1  0
 22 24  1  0
 24 25  2  0
 10  5  1  0
 25 19  1  0
  1 26  1  0
  1 27  1  0
  1 28  1  0
  4 29  1  0
  6 30  1  0
  7 31  1  0
  8 32  1  0
  9 33  1  0
 12 34  1  0
 13 35  1  0
 13 36  1  0
 13 37  1  0
 16 38  1  0
 17 39  1  0
 18 40  1  0
 18 41  1  0
 18 42  1  0
 20 43  1  0
 21 44  1  0
 24 45  1  0
 25 46  1  0
M  END
$$$$
