
     RDKit          3D

 56 61  0  0  0  0  0  0  0  0999 V2000
    9.9078    1.2947   -0.9170 C   0  0  0  0  0  0  0  0  0  0  0  0
    9.6010    0.5784    0.2739 O   0  0  0  0  0  0  0  0  0  0  0  0
    8.3030    0.1802    0.4393 C   0  0  0  0  0  0  0  0  0  0  0  0
    8.0631   -0.5520    1.5995 C   0  0  0  0  0  0  0  0  0  0  0  0
    6.7811   -1.0165    1.8847 C   0  0  0  0  0  0  0  0  0  0  0  0
    5.7228   -0.7467    1.0058 C   0  0  0  0  0  0  0  0  0  0  0  0
    4.4250   -1.2063    1.2805 C   0  0  0  0  0  0  0  0  0  0  0  0
    3.4170   -0.8939    0.3598 C   0  0  0  0  0  0  0  0  0  0  0  0
    2.0269   -1.1414    0.2380 C   0  0  0  0  0  0  0  0  0  0  0  0
    1.6144   -0.5319   -0.9348 C   0  0  0  0  0  0  0  0  0  0  0  0
    0.3309   -0.4538   -1.6052 C   0  0  0  0  0  0  0  0  0  0  0  0
    0.2102   -0.7831   -2.7853 O   0  0  0  0  0  0  0  0  0  0  0  0
   -0.7776   -0.0036   -0.8727 N   0  0  0  0  0  0  0  0  0  0  0  0
   -0.7439    0.3897    0.5397 C   0  0  0  0  0  0  0  0  0  0  0  0
   -1.8313    1.4180    0.9117 C   0  0  0  0  0  0  0  0  0  0  0  0
   -3.1904    1.0889    0.4429 N   0  0  0  0  0  0  0  0  0  0  0  0
   -3.7652   -0.0375    1.1947 C   0  0  0  0  0  0  0  0  0  0  0  0
   -5.2379   -0.2531    0.9105 C   0  0  0  0  0  0  0  0  0  0  0  0
   -5.6939   -1.4876    0.3912 C   0  0  0  0  0  0  0  0  0  0  0  0
   -7.0509   -1.6995    0.1259 C   0  0  0  0  0  0  0  0  0  0  0  0
   -7.9248   -0.6671    0.3884 C   0  0  0  0  0  0  0  0  0  0  0  0
   -7.4940    0.5353    0.8961 C   0  0  0  0  0  0  0  0  0  0  0  0
   -6.1640    0.7730    1.1697 C   0  0  0  0  0  0  0  0  0  0  0  0
   -8.5137    1.4159    1.0811 O   0  0  0  0  0  0  0  0  0  0  0  0
   -9.6316    0.6385    0.6053 C   0  0  0  0  0  0  0  0  0  0  0  0
   -9.2699   -0.6952    0.1905 O   0  0  0  0  0  0  0  0  0  0  0  0
   -3.1344    0.8476   -1.0149 C   0  0  0  0  0  0  0  0  0  0  0  0
   -2.1069   -0.2094   -1.4568 C   0  0  0  0  0  0  0  0  0  0  0  0
    2.6909    0.0481   -1.5503 O   0  0  0  0  0  0  0  0  0  0  0  0
    3.7794   -0.1589   -0.7620 C   0  0  0  0  0  0  0  0  0  0  0  0
    5.0016    0.3019   -1.0674 N   0  0  0  0  0  0  0  0  0  0  0  0
    5.9536   -0.0014   -0.1766 C   0  0  0  0  0  0  0  0  0  0  0  0
    7.2440    0.4455   -0.4323 C   0  0  0  0  0  0  0  0  0  0  0  0
    9.7052    0.6881   -1.8059 H   0  0  0  0  0  0  0  0  0  0  0  0
    9.3674    2.2469   -0.9544 H   0  0  0  0  0  0  0  0  0  0  0  0
   10.9787    1.5199   -0.9048 H   0  0  0  0  0  0  0  0  0  0  0  0
    8.8814   -0.7628    2.2843 H   0  0  0  0  0  0  0  0  0  0  0  0
    6.6183   -1.5872    2.7961 H   0  0  0  0  0  0  0  0  0  0  0  0
    4.2032   -1.7832    2.1724 H   0  0  0  0  0  0  0  0  0  0  0  0
    1.4014   -1.7069    0.9134 H   0  0  0  0  0  0  0  0  0  0  0  0
   -0.8670   -0.5241    1.1319 H   0  0  0  0  0  0  0  0  0  0  0  0
    0.2305    0.8217    0.7857 H   0  0  0  0  0  0  0  0  0  0  0  0
   -1.8309    1.5786    1.9969 H   0  0  0  0  0  0  0  0  0  0  0  0
   -1.5535    2.3865    0.4740 H   0  0  0  0  0  0  0  0  0  0  0  0
   -3.6872    0.1636    2.2720 H   0  0  0  0  0  0  0  0  0  0  0  0
   -3.2103   -0.9676    1.0238 H   0  0  0  0  0  0  0  0  0  0  0  0
   -4.9882   -2.2903    0.1880 H   0  0  0  0  0  0  0  0  0  0  0  0
   -7.4062   -2.6419   -0.2759 H   0  0  0  0  0  0  0  0  0  0  0  0
   -5.8434    1.7326    1.5626 H   0  0  0  0  0  0  0  0  0  0  0  0
  -10.0820    1.1588   -0.2477 H   0  0  0  0  0  0  0  0  0  0  0  0
  -10.3755    0.5675    1.4067 H   0  0  0  0  0  0  0  0  0  0  0  0
   -2.8754    1.8003   -1.4965 H   0  0  0  0  0  0  0  0  0  0  0  0
   -4.1230    0.5887   -1.4107 H   0  0  0  0  0  0  0  0  0  0  0  0
   -2.0486   -0.2088   -2.5507 H   0  0  0  0  0  0  0  0  0  0  0  0
   -2.4335   -1.2119   -1.1558 H   0  0  0  0  0  0  0  0  0  0  0  0
    7.3965    1.0146   -1.3442 H   0  0  0  0  0  0  0  0  0  0  0  0
  1  2  1  0
  2  3  1  0
  3  4  2  0
  4  5  1  0
  5  6  2  0
  6  7  1  0
  7  8  2  0
  8  9  1  0
  9 10  2  0
 10 11  1  0
 11 12  2  0
 11 13  1  0
 13 14  1  0
 14 15  1  0
 15 16  1  0
 16 17  1  0
 17 18  1  0
 18 19  2  0
 19 20  1  0
 20 21  2  0
 21 22  1  0
 22 23  2  0
 22 24  1  0
 24 25  1  0
 25 26  1  0
 16 27  1  0
 27 28  1  0
 10 29  1  0
 29 30  1  0
 30 31  2  0
 31 32  1  0
 32 33  2  0
 33  3  1  0
 32  6  1  0
 30  8  1  0
 28 13  1  0
 23 18  1  0
 26 21  1  0
  1 34  1  0
  1 35  1  0
  1 36  1  0
  4 37  1  0
  5 38  1  0
  7 39  1  0
  9 40  1  0
 14 41  1  0
 14 42  1  0
 15 43  1  0
 15 44  1  0
 17 45  1  0
 17 46  1  0
 19 47  1  0
 20 48  1  0
 23 49  1  0
 25 50  1  0
 25 51  1  0
 27 52  1  0
 27 53  1  0
 28 54  1  0
 28 55  1  0
 33 56  1  0
M  END
$$$$
