
     RDKit          3D

 40 42  0  0  0  0  0  0  0  0999 V2000
   -2.4584    4.0020    4.0550 C   0  0  0  0  0  0  0  0  0  0  0  0
   -1.7047    3.3571    3.0351 O   0  0  0  0  0  0  0  0  0  0  0  0
   -1.9609    2.0286    2.8222 C   0  0  0  0  0  0  0  0  0  0  0  0
   -2.8845    1.2524    3.5164 C   0  0  0  0  0  0  0  0  0  0  0  0
   -3.0635   -0.1034    3.2118 C   0  0  0  0  0  0  0  0  0  0  0  0
   -2.2865   -0.6639    2.1865 C   0  0  0  0  0  0  0  0  0  0  0  0
   -1.3501    0.0872    1.4708 C   0  0  0  0  0  0  0  0  0  0  0  0
   -1.1940    1.4516    1.8015 C   0  0  0  0  0  0  0  0  0  0  0  0
   -0.7450   -0.7877    0.5137 C   0  0  0  0  0  0  0  0  0  0  0  0
    0.2740   -0.4348   -0.4266 C   0  0  0  0  0  0  0  0  0  0  0  0
    0.8075   -1.2430   -1.3588 C   0  0  0  0  0  0  0  0  0  0  0  0
    1.8501   -0.8153   -2.2976 C   0  0  0  0  0  0  0  0  0  0  0  0
    1.7692   -1.2087   -3.6318 C   0  0  0  0  0  0  0  0  0  0  0  0
    2.7622   -0.8235   -4.5257 C   0  0  0  0  0  0  0  0  0  0  0  0
    3.8102   -0.0773   -4.1110 N   0  0  0  0  0  4  0  0  0  0  0  0
    4.8547    0.3116   -5.0736 C   0  0  0  0  0  0  0  0  0  0  0  0
    3.9234    0.2941   -2.8164 C   0  0  0  0  0  0  0  0  0  0  0  0
    2.9529   -0.0665   -1.8888 C   0  0  0  0  0  0  0  0  0  0  0  0
   -1.3207   -2.0305    0.6705 C   0  0  0  0  0  0  0  0  0  0  0  0
   -2.2470   -1.9448    1.6786 N   0  0  0  0  0  0  0  0  0  0  0  0
   -3.0645   -3.0445    2.1430 C   0  0  0  0  0  0  0  0  0  0  0  0
   -2.2591    3.5556    5.0348 H   0  0  0  0  0  0  0  0  0  0  0  0
   -3.5285    3.9888    3.8232 H   0  0  0  0  0  0  0  0  0  0  0  0
   -2.1396    5.0480    4.0949 H   0  0  0  0  0  0  0  0  0  0  0  0
   -3.4933    1.6701    4.3123 H   0  0  0  0  0  0  0  0  0  0  0  0
   -3.7883   -0.6956    3.7622 H   0  0  0  0  0  0  0  0  0  0  0  0
   -0.4783    2.0677    1.2666 H   0  0  0  0  0  0  0  0  0  0  0  0
    0.6215    0.5945   -0.3669 H   0  0  0  0  0  0  0  0  0  0  0  0
    0.4574   -2.2669   -1.4666 H   0  0  0  0  0  0  0  0  0  0  0  0
    0.9303   -1.8058   -3.9853 H   0  0  0  0  0  0  0  0  0  0  0  0
    2.7274   -1.1090   -5.5733 H   0  0  0  0  0  0  0  0  0  0  0  0
    4.4094    0.4082   -6.0671 H   0  0  0  0  0  0  0  0  0  0  0  0
    5.6173   -0.4711   -5.0627 H   0  0  0  0  0  0  0  0  0  0  0  0
    5.2784    1.2732   -4.7725 H   0  0  0  0  0  0  0  0  0  0  0  0
    4.7962    0.8749   -2.5310 H   0  0  0  0  0  0  0  0  0  0  0  0
    3.0709    0.2320   -0.8486 H   0  0  0  0  0  0  0  0  0  0  0  0
   -1.1547   -2.9689    0.1589 H   0  0  0  0  0  0  0  0  0  0  0  0
   -2.8306   -3.9436    1.5673 H   0  0  0  0  0  0  0  0  0  0  0  0
   -4.1149   -2.7778    2.0016 H   0  0  0  0  0  0  0  0  0  0  0  0
   -2.8458   -3.2150    3.2003 H   0  0  0  0  0  0  0  0  0  0  0  0
  1  2  1  0
  2  3  1  0
  3  4  2  0
  4  5  1  0
  5  6  2  0
  6  7  1  0
  7  8  2  0
  7  9  1  0
  9 10  1  0
 10 11  2  3
 11 12  1  0
 12 13  2  0
 13 14  1  0
 14 15  2  0
 15 16  1  0
 15 17  1  0
 17 18  2  0
  9 19  2  0
 19 20  1  0
 20 21  1  0
  8  3  1  0
 18 12  1  0
 20  6  1  0
  1 22  1  0
  1 23  1  0
  1 24  1  0
  4 25  1  0
  5 26  1  0
  8 27  1  0
 10 28  1  0
 11 29  1  0
 13 30  1  0
 14 31  1  0
 16 32  1  0
 16 33  1  0
 16 34  1  0
 17 35  1  0
 18 36  1  0
 19 37  1  0
 21 38  1  0
 21 39  1  0
 21 40  1  0
M  CHG  1  15   1
M  END
$$$$
