
     RDKit          3D

 36 37  0  0  0  0  0  0  0  0999 V2000
    0.0684   -1.2079   -1.6928 O   0  0  0  0  0  0  0  0  0  0  0  0
   -0.5189   -0.7269   -0.7287 C   0  0  0  0  0  0  0  0  0  0  0  0
    0.0615   -0.6771    0.6832 C   0  0  0  0  0  0  0  0  0  0  0  0
    1.4525   -0.9841    0.6821 O   0  0  0  0  0  0  0  0  0  0  0  0
    1.9931   -1.0494    1.9175 C   0  0  0  0  0  0  0  0  0  0  0  0
    1.4152   -0.9310    2.9837 O   0  0  0  0  0  0  0  0  0  0  0  0
    3.4180   -1.3835    1.7892 C   0  0  0  0  0  0  0  0  0  0  0  0
    3.8280   -2.6238    2.2998 C   0  0  0  0  0  0  0  0  0  0  0  0
    5.1638   -3.0050    2.2060 C   0  0  0  0  0  0  0  0  0  0  0  0
    6.0873   -2.1451    1.6123 C   0  0  0  0  0  0  0  0  0  0  0  0
    5.6812   -0.8975    1.1196 C   0  0  0  0  0  0  0  0  0  0  0  0
    6.9035    0.1092    0.4218 Cl  0  0  0  0  0  0  0  0  0  0  0  0
    4.3389   -0.5011    1.2085 C   0  0  0  0  0  0  0  0  0  0  0  0
    3.8380    1.0667    0.6599 Cl  0  0  0  0  0  0  0  0  0  0  0  0
   -1.7890   -0.1941   -0.8159 N   0  0  0  0  0  0  0  0  0  0  0  0
   -2.4676   -0.0638   -2.0932 C   0  0  0  0  0  0  0  0  0  0  0  0
   -3.8991    0.4585   -1.9389 C   0  0  0  0  0  0  0  0  0  0  0  0
   -3.9492    1.8648   -1.5665 N   0  0  0  0  0  0  0  0  0  0  0  0
   -3.8604    2.3314   -0.2776 C   0  0  0  0  0  0  0  0  0  0  0  0
   -3.6953    1.4397    0.7422 O   0  0  0  0  0  0  0  0  0  0  0  0
   -3.9250    3.6626   -0.1609 C   0  0  0  0  0  0  0  0  0  0  0  0
   -4.0896    4.4233   -1.7139 S   0  0  0  0  0  0  0  0  0  0  0  0
   -4.0542    2.8519   -2.5360 C   0  0  0  0  0  0  0  0  0  0  0  0
   -4.1156    2.7179   -3.7464 O   0  0  0  0  0  0  0  0  0  0  0  0
   -0.4865   -1.4085    1.2892 H   0  0  0  0  0  0  0  0  0  0  0  0
   -0.0844    0.3326    1.0848 H   0  0  0  0  0  0  0  0  0  0  0  0
    3.1051   -3.2919    2.7648 H   0  0  0  0  0  0  0  0  0  0  0  0
    5.4864   -3.9691    2.5937 H   0  0  0  0  0  0  0  0  0  0  0  0
    7.1300   -2.4489    1.5414 H   0  0  0  0  0  0  0  0  0  0  0  0
   -2.1673    0.3314   -0.0328 H   0  0  0  0  0  0  0  0  0  0  0  0
   -1.8695    0.6008   -2.7269 H   0  0  0  0  0  0  0  0  0  0  0  0
   -2.4805   -1.0539   -2.5625 H   0  0  0  0  0  0  0  0  0  0  0  0
   -4.4163    0.3401   -2.8983 H   0  0  0  0  0  0  0  0  0  0  0  0
   -4.4561   -0.1279   -1.1985 H   0  0  0  0  0  0  0  0  0  0  0  0
   -3.7804    1.9285    1.5814 H   0  0  0  0  0  0  0  0  0  0  0  0
   -3.8660    4.2308    0.7557 H   0  0  0  0  0  0  0  0  0  0  0  0
  1  2  2  0
  2  3  1  0
  3  4  1  0
  4  5  1  0
  5  6  2  0
  5  7  1  0
  7  8  2  0
  8  9  1  0
  9 10  2  0
 10 11  1  0
 11 12  1  0
 11 13  2  0
 13 14  1  0
  2 15  1  0
 15 16  1  0
 16 17  1  0
 17 18  1  0
 18 19  1  0
 19 20  1  0
 19 21  2  0
 21 22  1  0
 22 23  1  0
 23 24  2  0
 13  7  1  0
 23 18  1  0
  3 25  1  0
  3 26  1  0
  8 27  1  0
  9 28  1  0
 10 29  1  0
 15 30  1  0
 16 31  1  0
 16 32  1  0
 17 33  1  0
 17 34  1  0
 20 35  1  0
 21 36  1  0
M  END
$$$$
