
     RDKit          3D

 54 57  0  0  0  0  0  0  0  0999 V2000
    5.9243    0.5215    4.2615 C   0  0  0  0  0  0  0  0  0  0  0  0
    4.7908   -0.1250    3.4818 C   0  0  0  0  0  0  0  0  0  0  0  0
    4.3109    0.7433    2.3291 C   0  0  0  0  0  0  0  0  0  0  0  0
    4.7332    1.8874    2.1637 O   0  0  0  0  0  0  0  0  0  0  0  0
    3.3706    0.1822    1.4776 N   0  0  0  0  0  0  0  0  0  0  0  0
    2.9266    0.9569    0.3121 C   0  0  0  0  0  0  0  0  0  0  0  0
    2.4886    0.0528   -0.8510 C   0  0  0  0  0  0  0  0  0  0  0  0
    1.3738   -0.8345   -0.4397 N   0  0  0  0  0  0  0  0  0  0  0  0
    1.1178   -1.8804   -1.3623 C   0  0  0  0  0  0  0  0  0  0  0  0
    2.0665   -2.8671   -1.6639 C   0  0  0  0  0  0  0  0  0  0  0  0
    1.7604   -3.8865   -2.5669 C   0  0  0  0  0  0  0  0  0  0  0  0
    0.5041   -3.9271   -3.1695 C   0  0  0  0  0  0  0  0  0  0  0  0
    0.1432   -5.1900   -4.2832 Cl  0  0  0  0  0  0  0  0  0  0  0  0
   -0.4587   -2.9613   -2.8805 C   0  0  0  0  0  0  0  0  0  0  0  0
   -0.1587   -1.9417   -1.9773 C   0  0  0  0  0  0  0  0  0  0  0  0
   -1.0557   -0.9145   -1.6151 N   0  0  0  0  0  0  0  0  0  0  0  0
   -2.3717   -0.7566   -1.9870 C   0  0  0  0  0  0  0  0  0  0  0  0
   -3.0321   -1.5265   -2.6737 O   0  0  0  0  0  0  0  0  0  0  0  0
   -3.0327    0.4666   -1.4490 C   0  0  0  0  0  0  0  0  0  0  0  0
   -2.3280    1.6653   -1.2600 C   0  0  0  0  0  0  0  0  0  0  0  0
   -2.9860    2.7913   -0.7584 C   0  0  0  0  0  0  0  0  0  0  0  0
   -4.3451    2.7254   -0.4571 C   0  0  0  0  0  0  0  0  0  0  0  0
   -5.0470    1.5284   -0.6337 C   0  0  0  0  0  0  0  0  0  0  0  0
   -4.3993    0.4069   -1.1478 C   0  0  0  0  0  0  0  0  0  0  0  0
   -6.3770    1.3870   -0.3304 O   0  0  0  0  0  0  0  0  0  0  0  0
   -6.8485    2.4681    0.4819 C   0  0  0  0  0  0  0  0  0  0  0  0
   -6.3562    3.8004   -0.0583 C   0  0  0  0  0  0  0  0  0  0  0  0
   -4.9272    3.8757    0.0102 O   0  0  0  0  0  0  0  0  0  0  0  0
    1.4131   -1.3040    0.9683 C   0  0  0  0  0  0  0  0  0  0  0  0
    2.8032   -1.1663    1.6162 C   0  0  0  0  0  0  0  0  0  0  0  0
    5.6095    1.4760    4.6961 H   0  0  0  0  0  0  0  0  0  0  0  0
    6.7859    0.7149    3.6141 H   0  0  0  0  0  0  0  0  0  0  0  0
    6.2481   -0.1335    5.0761 H   0  0  0  0  0  0  0  0  0  0  0  0
    5.1359   -1.0859    3.0860 H   0  0  0  0  0  0  0  0  0  0  0  0
    3.9502   -0.2983    4.1618 H   0  0  0  0  0  0  0  0  0  0  0  0
    3.7263    1.6270   -0.0213 H   0  0  0  0  0  0  0  0  0  0  0  0
    2.0872    1.5786    0.6463 H   0  0  0  0  0  0  0  0  0  0  0  0
    2.1568    0.6761   -1.6896 H   0  0  0  0  0  0  0  0  0  0  0  0
    3.3592   -0.5246   -1.1863 H   0  0  0  0  0  0  0  0  0  0  0  0
    3.0475   -2.8558   -1.1990 H   0  0  0  0  0  0  0  0  0  0  0  0
    2.5035   -4.6456   -2.7964 H   0  0  0  0  0  0  0  0  0  0  0  0
   -1.4261   -3.0186   -3.3679 H   0  0  0  0  0  0  0  0  0  0  0  0
   -0.6435   -0.2747   -0.9416 H   0  0  0  0  0  0  0  0  0  0  0  0
   -1.2782    1.7491   -1.5277 H   0  0  0  0  0  0  0  0  0  0  0  0
   -2.4461    3.7246   -0.6220 H   0  0  0  0  0  0  0  0  0  0  0  0
   -4.9552   -0.5154   -1.3011 H   0  0  0  0  0  0  0  0  0  0  0  0
   -6.5098    2.3028    1.5122 H   0  0  0  0  0  0  0  0  0  0  0  0
   -7.9424    2.4370    0.4730 H   0  0  0  0  0  0  0  0  0  0  0  0
   -6.7603    4.6239    0.5389 H   0  0  0  0  0  0  0  0  0  0  0  0
   -6.6642    3.9503   -1.1006 H   0  0  0  0  0  0  0  0  0  0  0  0
    1.0588   -2.3378    1.0709 H   0  0  0  0  0  0  0  0  0  0  0  0
    0.7059   -0.6795    1.5287 H   0  0  0  0  0  0  0  0  0  0  0  0
    3.5111   -1.8540    1.1393 H   0  0  0  0  0  0  0  0  0  0  0  0
    2.7366   -1.4404    2.6725 H   0  0  0  0  0  0  0  0  0  0  0  0
  1  2  1  0
  2  3  1  0
  3  4  2  0
  3  5  1  0
  5  6  1  0
  6  7  1  0
  7  8  1  0
  8  9  1  0
  9 10  2  0
 10 11  1  0
 11 12  2  0
 12 13  1  0
 12 14  1  0
 14 15  2  0
 15 16  1  0
 16 17  1  0
 17 18  2  0
 17 19  1  0
 19 20  2  0
 20 21  1  0
 21 22  2  0
 22 23  1  0
 23 24  2  0
 23 25  1  0
 25 26  1  0
 26 27  1  0
 27 28  1  0
  8 29  1  0
 29 30  1  0
 30  5  1  0
 15  9  1  0
 24 19  1  0
 28 22  1  0
  1 31  1  0
  1 32  1  0
  1 33  1  0
  2 34  1  0
  2 35  1  0
  6 36  1  0
  6 37  1  0
  7 38  1  0
  7 39  1  0
 10 40  1  0
 11 41  1  0
 14 42  1  0
 16 43  1  0
 20 44  1  0
 21 45  1  0
 24 46  1  0
 26 47  1  0
 26 48  1  0
 27 49  1  0
 27 50  1  0
 29 51  1  0
 29 52  1  0
 30 53  1  0
 30 54  1  0
M  END
$$$$
