
     RDKit          3D

 49 51  0  0  0  0  0  0  0  0999 V2000
    5.6220    2.0635    0.7499 C   0  0  0  0  0  0  0  0  0  0  0  0
    4.6616    1.0993    0.3434 O   0  0  0  0  0  0  0  0  0  0  0  0
    3.4837    1.5584   -0.1922 C   0  0  0  0  0  0  0  0  0  0  0  0
    3.1101    2.9080   -0.2353 C   0  0  0  0  0  0  0  0  0  0  0  0
    1.8825    3.2843   -0.7838 C   0  0  0  0  0  0  0  0  0  0  0  0
    1.0276    2.3042   -1.2879 C   0  0  0  0  0  0  0  0  0  0  0  0
   -0.5423    2.7759   -1.9810 S   0  0  0  0  0  6  0  0  0  0  0  0
   -0.9280    1.7634   -2.9403 O   0  0  0  0  0  0  0  0  0  0  0  0
   -0.4531    4.1720   -2.3531 O   0  0  0  0  0  0  0  0  0  0  0  0
   -1.5796    2.7115   -0.6453 N   0  0  0  0  0  0  0  0  0  0  0  0
   -1.6619    1.5036    0.1034 C   0  0  0  0  0  0  0  0  0  0  0  0
   -1.1521    1.4731    1.3951 C   0  0  0  0  0  0  0  0  0  0  0  0
   -1.1954    0.2849    2.1170 C   0  0  0  0  0  0  0  0  0  0  0  0
   -1.7217   -0.8863    1.5421 C   0  0  0  0  0  0  0  0  0  0  0  0
   -2.2116   -0.8710    0.2170 C   0  0  0  0  0  0  0  0  0  0  0  0
   -2.2034    0.3493   -0.4706 C   0  0  0  0  0  0  0  0  0  0  0  0
   -2.7487   -2.0737   -0.3508 N   0  0  0  0  0  0  0  0  0  0  0  0
   -2.9971   -2.3415   -1.6971 C   0  0  0  0  0  0  0  0  0  0  0  0
   -2.1765   -1.6418   -2.7534 C   0  0  0  0  0  0  0  0  0  0  0  0
   -3.8068   -3.2030   -2.0563 O   0  0  0  0  0  0  0  0  0  0  0  0
   -3.1749   -3.0987    0.6060 C   0  0  0  0  0  0  0  0  0  0  0  0
   -2.0734   -3.3786    1.6120 C   0  0  0  0  0  0  0  0  0  0  0  0
   -1.7880   -2.1196    2.4100 C   0  0  0  0  0  0  0  0  0  0  0  0
    1.3976    0.9555   -1.2787 C   0  0  0  0  0  0  0  0  0  0  0  0
    2.6162    0.5737   -0.7129 C   0  0  0  0  0  0  0  0  0  0  0  0
    3.0531   -0.7251   -0.6269 O   0  0  0  0  0  0  0  0  0  0  0  0
    2.1557   -1.7510   -1.0303 C   0  0  0  0  0  0  0  0  0  0  0  0
    6.5148    1.5262    1.0841 H   0  0  0  0  0  0  0  0  0  0  0  0
    5.2532    2.6526    1.5958 H   0  0  0  0  0  0  0  0  0  0  0  0
    5.9154    2.7087   -0.0848 H   0  0  0  0  0  0  0  0  0  0  0  0
    3.7536    3.6907    0.1535 H   0  0  0  0  0  0  0  0  0  0  0  0
    1.6077    4.3365   -0.8155 H   0  0  0  0  0  0  0  0  0  0  0  0
   -1.5983    3.5934   -0.1355 H   0  0  0  0  0  0  0  0  0  0  0  0
   -0.7230    2.3598    1.8522 H   0  0  0  0  0  0  0  0  0  0  0  0
   -0.8147    0.2694    3.1369 H   0  0  0  0  0  0  0  0  0  0  0  0
   -2.6620    0.4480   -1.4477 H   0  0  0  0  0  0  0  0  0  0  0  0
   -1.2172   -1.2930   -2.3664 H   0  0  0  0  0  0  0  0  0  0  0  0
   -2.7492   -0.8238   -3.1953 H   0  0  0  0  0  0  0  0  0  0  0  0
   -1.9469   -2.3644   -3.5441 H   0  0  0  0  0  0  0  0  0  0  0  0
   -4.0923   -2.7481    1.0954 H   0  0  0  0  0  0  0  0  0  0  0  0
   -3.4191   -4.0341    0.0907 H   0  0  0  0  0  0  0  0  0  0  0  0
   -2.3620   -4.1922    2.2864 H   0  0  0  0  0  0  0  0  0  0  0  0
   -1.1652   -3.6979    1.0845 H   0  0  0  0  0  0  0  0  0  0  0  0
   -2.5836   -1.9706    3.1510 H   0  0  0  0  0  0  0  0  0  0  0  0
   -0.8455   -2.2484    2.9554 H   0  0  0  0  0  0  0  0  0  0  0  0
    0.7202    0.2244   -1.7067 H   0  0  0  0  0  0  0  0  0  0  0  0
    1.9491   -1.6929   -2.1038 H   0  0  0  0  0  0  0  0  0  0  0  0
    1.2298   -1.7216   -0.4460 H   0  0  0  0  0  0  0  0  0  0  0  0
    2.6396   -2.7132   -0.8370 H   0  0  0  0  0  0  0  0  0  0  0  0
  1  2  1  0
  2  3  1  0
  3  4  2  0
  4  5  1  0
  5  6  2  0
  6  7  1  0
  7  8  2  0
  7  9  2  0
  7 10  1  0
 10 11  1  0
 11 12  2  0
 12 13  1  0
 13 14  2  0
 14 15  1  0
 15 16  2  0
 15 17  1  0
 17 18  1  0
 18 19  1  0
 18 20  2  0
 17 21  1  0
 21 22  1  0
 22 23  1  0
  6 24  1  0
 24 25  2  0
 25 26  1  0
 26 27  1  0
 25  3  1  0
 16 11  1  0
 23 14  1  0
  1 28  1  0
  1 29  1  0
  1 30  1  0
  4 31  1  0
  5 32  1  0
 10 33  1  0
 12 34  1  0
 13 35  1  0
 16 36  1  0
 19 37  1  0
 19 38  1  0
 19 39  1  0
 21 40  1  0
 21 41  1  0
 22 42  1  0
 22 43  1  0
 23 44  1  0
 23 45  1  0
 24 46  1  0
 27 47  1  0
 27 48  1  0
 27 49  1  0
M  END
$$$$
