
     RDKit          3D

 33 34  0  0  0  0  0  0  0  0999 V2000
   -1.7388    4.2130    0.3607 C   0  0  0  0  0  0  0  0  0  0  0  0
   -0.9760    3.0292    0.1268 O   0  0  0  0  0  0  0  0  0  0  0  0
   -0.4942    2.4669    1.2608 C   0  0  0  0  0  0  0  0  0  0  0  0
   -0.5399    2.9094    2.3946 O   0  0  0  0  0  0  0  0  0  0  0  0
    0.2596    1.2643    0.8883 C   0  0  0  0  0  0  0  0  0  0  0  0
    1.6246    1.2808    1.1681 C   0  0  0  0  0  0  0  0  0  0  0  0
    2.3672    0.1947    0.7682 C   0  0  0  0  0  0  0  0  0  0  0  0
    3.7166    0.2368    1.0437 O   0  0  0  0  0  0  0  0  0  0  0  0
    4.4171   -0.9283    0.6187 C   0  0  0  0  0  0  0  0  0  0  0  0
    1.8412   -0.8652    0.1223 N   0  0  0  0  0  0  0  0  0  0  0  0
    0.5059   -0.8748   -0.1260 C   0  0  0  0  0  0  0  0  0  0  0  0
   -0.3237    0.1612    0.2594 C   0  0  0  0  0  0  0  0  0  0  0  0
   -1.7668    0.0186    0.0339 C   0  0  0  0  0  0  0  0  0  0  0  0
   -2.5539    0.7649    0.6071 O   0  0  0  0  0  0  0  0  0  0  0  0
   -2.1671   -1.0175   -0.7959 N   0  0  0  0  0  0  0  0  0  0  0  0
   -3.5839   -1.1268   -1.0959 C   0  0  0  0  0  0  0  0  0  0  0  0
   -1.3577   -2.0873   -1.1534 C   0  0  0  0  0  0  0  0  0  0  0  0
   -1.8101   -3.0723   -1.7398 O   0  0  0  0  0  0  0  0  0  0  0  0
   -0.0259   -1.9932   -0.7993 N   0  0  0  0  0  0  0  0  0  0  0  0
    0.8944   -3.0660   -1.1491 C   0  0  0  0  0  0  0  0  0  0  0  0
   -2.1321    4.5580   -0.5995 H   0  0  0  0  0  0  0  0  0  0  0  0
   -2.5831    4.0034    1.0253 H   0  0  0  0  0  0  0  0  0  0  0  0
   -1.1027    4.9999    0.7779 H   0  0  0  0  0  0  0  0  0  0  0  0
    2.0930    2.1204    1.6715 H   0  0  0  0  0  0  0  0  0  0  0  0
    4.3669   -1.0455   -0.4693 H   0  0  0  0  0  0  0  0  0  0  0  0
    5.4692   -0.8032    0.8923 H   0  0  0  0  0  0  0  0  0  0  0  0
    4.0440   -1.8236    1.1284 H   0  0  0  0  0  0  0  0  0  0  0  0
   -3.7351   -1.5875   -2.0770 H   0  0  0  0  0  0  0  0  0  0  0  0
   -4.0643   -0.1438   -1.0923 H   0  0  0  0  0  0  0  0  0  0  0  0
   -4.0520   -1.7565   -0.3325 H   0  0  0  0  0  0  0  0  0  0  0  0
    1.6565   -2.6807   -1.8347 H   0  0  0  0  0  0  0  0  0  0  0  0
    0.3833   -3.8970   -1.6431 H   0  0  0  0  0  0  0  0  0  0  0  0
    1.3677   -3.4520   -0.2403 H   0  0  0  0  0  0  0  0  0  0  0  0
  1  2  1  0
  2  3  1  0
  3  4  2  0
  3  5  1  0
  5  6  2  0
  6  7  1  0
  7  8  1  0
  8  9  1  0
  7 10  2  0
 10 11  1  0
 11 12  2  0
 12 13  1  0
 13 14  2  0
 13 15  1  0
 15 16  1  0
 15 17  1  0
 17 18  2  0
 17 19  1  0
 19 20  1  0
 12  5  1  0
 19 11  1  0
  1 21  1  0
  1 22  1  0
  1 23  1  0
  6 24  1  0
  9 25  1  0
  9 26  1  0
  9 27  1  0
 16 28  1  0
 16 29  1  0
 16 30  1  0
 20 31  1  0
 20 32  1  0
 20 33  1  0
M  END
$$$$
