
     RDKit          3D

 52 54  0  0  0  0  0  0  0  0999 V2000
    6.3746   -1.1088   -1.0132 C   0  0  0  0  0  0  0  0  0  0  0  0
    5.0162   -0.6799   -0.5416 C   0  0  0  0  0  0  0  0  0  0  0  0
    4.0628   -0.2102   -1.4535 C   0  0  0  0  0  0  0  0  0  0  0  0
    2.7810    0.1633   -1.0263 C   0  0  0  0  0  0  0  0  0  0  0  0
    1.7798    0.6683   -2.0259 C   0  0  0  0  0  0  0  0  0  0  0  0
    2.4761    0.0865    0.3420 C   0  0  0  0  0  0  0  0  0  0  0  0
    1.2277    0.4676    0.7636 O   0  0  0  0  0  0  0  0  0  0  0  0
    1.2358    1.8391    1.1788 C   0  0  0  0  0  0  0  0  0  0  0  0
   -0.1852    2.4057    1.2510 C   0  0  0  0  0  0  0  0  0  0  0  0
   -0.3871    3.5420    1.6728 O   0  0  0  0  0  0  0  0  0  0  0  0
   -1.1361    1.5252    0.7905 N   0  0  0  0  0  0  0  0  0  0  0  0
   -2.5308    1.6788    0.6974 C   0  0  0  0  0  0  0  0  0  0  0  0
   -3.2164    2.8314    1.0792 C   0  0  0  0  0  0  0  0  0  0  0  0
   -4.6064    2.8865    0.9601 C   0  0  0  0  0  0  0  0  0  0  0  0
   -5.3127    1.7942    0.4598 C   0  0  0  0  0  0  0  0  0  0  0  0
   -4.6326    0.6379    0.0738 C   0  0  0  0  0  0  0  0  0  0  0  0
   -3.2374    0.5631    0.1849 C   0  0  0  0  0  0  0  0  0  0  0  0
   -2.5007   -0.5822   -0.2022 N   0  0  0  0  0  0  0  0  0  0  0  0
   -2.4694   -0.7683   -1.6707 C   0  0  0  0  0  0  0  0  0  0  0  0
   -1.8964   -2.1563   -1.9924 C   0  0  0  0  0  0  0  0  0  0  0  0
   -2.7030   -3.2348   -1.4893 O   0  0  0  0  0  0  0  0  0  0  0  0
   -3.4942   -2.8718   -0.3468 C   0  0  0  0  0  0  0  0  0  0  0  0
   -2.8348   -1.8142    0.5523 C   0  0  0  0  0  0  0  0  0  0  0  0
    3.3905   -0.4454    1.2628 C   0  0  0  0  0  0  0  0  0  0  0  0
    3.0545   -0.6007    2.7182 C   0  0  0  0  0  0  0  0  0  0  0  0
    4.6664   -0.8086    0.8085 C   0  0  0  0  0  0  0  0  0  0  0  0
    6.6564   -0.5839   -1.9318 H   0  0  0  0  0  0  0  0  0  0  0  0
    7.1366   -0.8797   -0.2610 H   0  0  0  0  0  0  0  0  0  0  0  0
    6.3797   -2.1860   -1.2082 H   0  0  0  0  0  0  0  0  0  0  0  0
    4.3210   -0.1385   -2.5084 H   0  0  0  0  0  0  0  0  0  0  0  0
    0.7876    0.2517   -1.8259 H   0  0  0  0  0  0  0  0  0  0  0  0
    1.7269    1.7609   -1.9900 H   0  0  0  0  0  0  0  0  0  0  0  0
    2.0515    0.3696   -3.0442 H   0  0  0  0  0  0  0  0  0  0  0  0
    1.7986    2.4696    0.4795 H   0  0  0  0  0  0  0  0  0  0  0  0
    1.6686    1.9129    2.1820 H   0  0  0  0  0  0  0  0  0  0  0  0
   -0.8110    0.6051    0.4903 H   0  0  0  0  0  0  0  0  0  0  0  0
   -2.6949    3.6970    1.4744 H   0  0  0  0  0  0  0  0  0  0  0  0
   -5.1363    3.7868    1.2609 H   0  0  0  0  0  0  0  0  0  0  0  0
   -6.3944    1.8438    0.3690 H   0  0  0  0  0  0  0  0  0  0  0  0
   -5.2015   -0.1988   -0.3188 H   0  0  0  0  0  0  0  0  0  0  0  0
   -3.4758   -0.6909   -2.1010 H   0  0  0  0  0  0  0  0  0  0  0  0
   -1.8393    0.0050   -2.1241 H   0  0  0  0  0  0  0  0  0  0  0  0
   -1.8106   -2.2902   -3.0752 H   0  0  0  0  0  0  0  0  0  0  0  0
   -0.8925   -2.2658   -1.5660 H   0  0  0  0  0  0  0  0  0  0  0  0
   -3.6789   -3.7862    0.2258 H   0  0  0  0  0  0  0  0  0  0  0  0
   -4.4647   -2.5189   -0.7133 H   0  0  0  0  0  0  0  0  0  0  0  0
   -1.8882   -2.2177    0.9314 H   0  0  0  0  0  0  0  0  0  0  0  0
   -3.4663   -1.6104    1.4253 H   0  0  0  0  0  0  0  0  0  0  0  0
    3.6436   -1.4050    3.1718 H   0  0  0  0  0  0  0  0  0  0  0  0
    3.2652    0.3292    3.2547 H   0  0  0  0  0  0  0  0  0  0  0  0
    2.0009   -0.8646    2.8551 H   0  0  0  0  0  0  0  0  0  0  0  0
    5.3957   -1.2038    1.5140 H   0  0  0  0  0  0  0  0  0  0  0  0
  1  2  1  0
  2  3  2  0
  3  4  1  0
  4  5  1  0
  4  6  2  0
  6  7  1  0
  7  8  1  0
  8  9  1  0
  9 10  2  0
  9 11  1  0
 11 12  1  0
 12 13  2  0
 13 14  1  0
 14 15  2  0
 15 16  1  0
 16 17  2  0
 17 18  1  0
 18 19  1  0
 19 20  1  0
 20 21  1  0
 21 22  1  0
 22 23  1  0
  6 24  1  0
 24 25  1  0
 24 26  2  0
 26  2  1  0
 17 12  1  0
 23 18  1  0
  1 27  1  0
  1 28  1  0
  1 29  1  0
  3 30  1  0
  5 31  1  0
  5 32  1  0
  5 33  1  0
  8 34  1  0
  8 35  1  0
 11 36  1  0
 13 37  1  0
 14 38  1  0
 15 39  1  0
 16 40  1  0
 19 41  1  0
 19 42  1  0
 20 43  1  0
 20 44  1  0
 22 45  1  0
 22 46  1  0
 23 47  1  0
 23 48  1  0
 25 49  1  0
 25 50  1  0
 25 51  1  0
 26 52  1  0
M  END
$$$$
