
     RDKit          3D

 39 40  0  0  0  0  0  0  0  0999 V2000
   -1.1938    1.4223   -0.8150 O   0  0  0  0  0  0  0  0  0  0  0  0
   -1.2487    0.2542   -0.4539 C   0  0  0  0  0  0  0  0  0  0  0  0
   -0.1098   -0.7248   -0.7049 C   0  0  0  0  0  0  0  0  0  0  0  0
    1.1057   -0.1021   -1.3861 C   0  0  0  0  0  0  0  0  0  0  0  0
    1.8855    0.8402   -0.4676 C   0  0  0  0  0  0  0  0  0  0  0  0
    3.0762    1.2912   -1.1160 O   0  0  0  0  0  0  0  0  0  0  0  0
    4.2307    0.5803   -0.9457 C   0  0  0  0  0  0  0  0  0  0  0  0
    5.3711    1.1954   -1.4706 C   0  0  0  0  0  0  0  0  0  0  0  0
    6.6217    0.5825   -1.3749 C   0  0  0  0  0  0  0  0  0  0  0  0
    6.7392   -0.6584   -0.7547 C   0  0  0  0  0  0  0  0  0  0  0  0
    5.6064   -1.2825   -0.2352 C   0  0  0  0  0  0  0  0  0  0  0  0
    4.3540   -0.6662   -0.3315 C   0  0  0  0  0  0  0  0  0  0  0  0
   -2.3003   -0.3600    0.2114 N   0  0  0  0  0  0  0  0  0  0  0  0
   -3.5325    0.2088    0.6210 C   0  0  0  0  0  0  0  0  0  0  0  0
   -3.8460    1.5525    0.3738 C   0  0  0  0  0  0  0  0  0  0  0  0
   -5.0654    2.1026    0.7811 C   0  0  0  0  0  0  0  0  0  0  0  0
   -5.9977    1.3193    1.4458 C   0  0  0  0  0  0  0  0  0  0  0  0
   -5.7075   -0.0167    1.7030 C   0  0  0  0  0  0  0  0  0  0  0  0
   -4.4813   -0.5891    1.2971 C   0  0  0  0  0  0  0  0  0  0  0  0
   -4.2647   -2.0416    1.6387 C   0  0  0  0  0  0  0  0  0  0  0  0
   -3.1071   -2.5671    1.1368 F   0  0  0  0  0  0  0  0  0  0  0  0
   -4.2082   -2.2586    2.9823 F   0  0  0  0  0  0  0  0  0  0  0  0
   -5.2601   -2.8465    1.1728 F   0  0  0  0  0  0  0  0  0  0  0  0
    0.1861   -1.1786    0.2482 H   0  0  0  0  0  0  0  0  0  0  0  0
   -0.5017   -1.5212   -1.3495 H   0  0  0  0  0  0  0  0  0  0  0  0
    1.7650   -0.9078   -1.7297 H   0  0  0  0  0  0  0  0  0  0  0  0
    0.8091    0.4398   -2.2929 H   0  0  0  0  0  0  0  0  0  0  0  0
    2.0912    0.4012    0.5154 H   0  0  0  0  0  0  0  0  0  0  0  0
    1.2905    1.7383   -0.2711 H   0  0  0  0  0  0  0  0  0  0  0  0
    5.2826    2.1638   -1.9572 H   0  0  0  0  0  0  0  0  0  0  0  0
    7.4994    1.0744   -1.7852 H   0  0  0  0  0  0  0  0  0  0  0  0
    7.7107   -1.1395   -0.6787 H   0  0  0  0  0  0  0  0  0  0  0  0
    5.6964   -2.2538    0.2445 H   0  0  0  0  0  0  0  0  0  0  0  0
    3.4984   -1.1929    0.0746 H   0  0  0  0  0  0  0  0  0  0  0  0
   -2.1676   -1.3474    0.4155 H   0  0  0  0  0  0  0  0  0  0  0  0
   -3.1584    2.2158   -0.1426 H   0  0  0  0  0  0  0  0  0  0  0  0
   -5.2789    3.1488    0.5738 H   0  0  0  0  0  0  0  0  0  0  0  0
   -6.9453    1.7475    1.7630 H   0  0  0  0  0  0  0  0  0  0  0  0
   -6.4448   -0.6242    2.2281 H   0  0  0  0  0  0  0  0  0  0  0  0
  1  2  2  0
  2  3  1  0
  3  4  1  0
  4  5  1  0
  5  6  1  0
  6  7  1  0
  7  8  2  0
  8  9  1  0
  9 10  2  0
 10 11  1  0
 11 12  2  0
  2 13  1  0
 13 14  1  0
 14 15  2  0
 15 16  1  0
 16 17  2  0
 17 18  1  0
 18 19  2  0
 19 20  1  0
 20 21  1  0
 20 22  1  0
 20 23  1  0
 12  7  1  0
 19 14  1  0
  3 24  1  0
  3 25  1  0
  4 26  1  0
  4 27  1  0
  5 28  1  0
  5 29  1  0
  8 30  1  0
  9 31  1  0
 10 32  1  0
 11 33  1  0
 12 34  1  0
 13 35  1  0
 15 36  1  0
 16 37  1  0
 17 38  1  0
 18 39  1  0
M  END
$$$$
