
     RDKit          3D

 40 42  0  0  0  0  0  0  0  0999 V2000
   -6.3876   -0.4744   -1.6288 C   0  0  0  0  0  0  0  0  0  0  0  0
   -6.7971   -0.0059    0.0419 S   0  0  0  0  0  6  0  0  0  0  0  0
   -6.7490    1.4347    0.1464 O   0  0  0  0  0  0  0  0  0  0  0  0
   -7.9832   -0.7450    0.4210 O   0  0  0  0  0  0  0  0  0  0  0  0
   -5.5441   -0.6908    0.9302 N   0  0  0  0  0  0  0  0  0  0  0  0
   -4.1851   -0.3547    0.6741 C   0  0  0  0  0  0  0  0  0  0  0  0
   -3.2673   -1.3982    0.5177 C   0  0  0  0  0  0  0  0  0  0  0  0
   -1.9166   -1.1233    0.2788 C   0  0  0  0  0  0  0  0  0  0  0  0
   -1.4763    0.2039    0.2141 C   0  0  0  0  0  0  0  0  0  0  0  0
   -0.0507    0.5413   -0.0514 C   0  0  0  0  0  0  0  0  0  0  0  0
    0.1883    1.5038   -0.7688 O   0  0  0  0  0  0  0  0  0  0  0  0
    0.8640   -0.2755    0.5873 N   0  0  0  0  0  0  0  0  0  0  0  0
    2.2711   -0.2249    0.4874 C   0  0  0  0  0  0  0  0  0  0  0  0
    2.9990   -1.1008    1.3066 C   0  0  0  0  0  0  0  0  0  0  0  0
    4.3958   -1.1271    1.2624 C   0  0  0  0  0  0  0  0  0  0  0  0
    5.0757   -0.2809    0.3934 C   0  0  0  0  0  0  0  0  0  0  0  0
    4.3605    0.6110   -0.4097 C   0  0  0  0  0  0  0  0  0  0  0  0
    2.9636    0.6285   -0.3748 C   0  0  0  0  0  0  0  0  0  0  0  0
    4.9666    1.4946   -1.2679 O   0  0  0  0  0  0  0  0  0  0  0  0
    6.3587    1.6411   -0.9685 C   0  0  0  0  0  0  0  0  0  0  0  0
    7.0047    0.2821   -0.7575 C   0  0  0  0  0  0  0  0  0  0  0  0
    6.4434   -0.3743    0.3855 O   0  0  0  0  0  0  0  0  0  0  0  0
   -2.3943    1.2471    0.3744 C   0  0  0  0  0  0  0  0  0  0  0  0
   -3.7422    0.9667    0.6192 C   0  0  0  0  0  0  0  0  0  0  0  0
   -7.2087   -0.1550   -2.2747 H   0  0  0  0  0  0  0  0  0  0  0  0
   -5.4674    0.0270   -1.9321 H   0  0  0  0  0  0  0  0  0  0  0  0
   -6.2821   -1.5598   -1.6770 H   0  0  0  0  0  0  0  0  0  0  0  0
   -5.7551   -1.6475    1.2125 H   0  0  0  0  0  0  0  0  0  0  0  0
   -3.5929   -2.4344    0.5641 H   0  0  0  0  0  0  0  0  0  0  0  0
   -1.2288   -1.9494    0.1172 H   0  0  0  0  0  0  0  0  0  0  0  0
    0.4972   -0.9394    1.2564 H   0  0  0  0  0  0  0  0  0  0  0  0
    2.4922   -1.7760    1.9910 H   0  0  0  0  0  0  0  0  0  0  0  0
    4.9504   -1.8126    1.8970 H   0  0  0  0  0  0  0  0  0  0  0  0
    2.4472    1.3242   -1.0280 H   0  0  0  0  0  0  0  0  0  0  0  0
    6.8274    2.1562   -1.8128 H   0  0  0  0  0  0  0  0  0  0  0  0
    6.4605    2.2773   -0.0804 H   0  0  0  0  0  0  0  0  0  0  0  0
    8.0785    0.3968   -0.5794 H   0  0  0  0  0  0  0  0  0  0  0  0
    6.8704   -0.3665   -1.6321 H   0  0  0  0  0  0  0  0  0  0  0  0
   -2.0613    2.2824    0.3191 H   0  0  0  0  0  0  0  0  0  0  0  0
   -4.4253    1.7976    0.7777 H   0  0  0  0  0  0  0  0  0  0  0  0
  1  2  1  0
  2  3  2  0
  2  4  2  0
  2  5  1  0
  5  6  1  0
  6  7  2  0
  7  8  1  0
  8  9  2  0
  9 10  1  0
 10 11  2  0
 10 12  1  0
 12 13  1  0
 13 14  2  0
 14 15  1  0
 15 16  2  0
 16 17  1  0
 17 18  2  0
 17 19  1  0
 19 20  1  0
 20 21  1  0
 21 22  1  0
  9 23  1  0
 23 24  2  0
 24  6  1  0
 18 13  1  0
 22 16  1  0
  1 25  1  0
  1 26  1  0
  1 27  1  0
  5 28  1  0
  7 29  1  0
  8 30  1  0
 12 31  1  0
 14 32  1  0
 15 33  1  0
 18 34  1  0
 20 35  1  0
 20 36  1  0
 21 37  1  0
 21 38  1  0
 23 39  1  0
 24 40  1  0
M  END
$$$$
