
     RDKit          3D

 36 38  0  0  0  0  0  0  0  0999 V2000
   -2.2299    1.8956    1.3554 C   0  0  0  0  0  0  0  0  0  0  0  0
   -1.5431    1.2365    0.2004 C   0  0  0  0  0  0  0  0  0  0  0  0
   -0.2970    1.6557   -0.1096 N   0  0  0  0  0  0  0  0  0  0  0  0
    0.2947    1.0265   -1.1611 C   0  0  0  0  0  0  0  0  0  0  0  0
    1.9512    1.5752   -1.5454 S   0  0  0  0  0  6  0  0  0  0  0  0
    2.6245    0.5718   -2.3592 O   0  0  0  0  0  0  0  0  0  0  0  0
    1.8594    2.9435   -2.0378 O   0  0  0  0  0  0  0  0  0  0  0  0
    2.7688    1.6330    0.0387 C   0  0  0  0  0  0  0  0  0  0  0  0
    2.7029    0.3092    0.7613 C   0  0  0  0  0  0  0  0  0  0  0  0
    3.4705   -0.7861    0.3374 C   0  0  0  0  0  0  0  0  0  0  0  0
    3.3988   -2.0083    1.0104 C   0  0  0  0  0  0  0  0  0  0  0  0
    2.5663   -2.1418    2.1181 C   0  0  0  0  0  0  0  0  0  0  0  0
    2.4746   -3.6471    2.9455 Cl  0  0  0  0  0  0  0  0  0  0  0  0
    1.8076   -1.0618    2.5613 C   0  0  0  0  0  0  0  0  0  0  0  0
    1.8784    0.1599    1.8878 C   0  0  0  0  0  0  0  0  0  0  0  0
   -0.1997    0.0300   -1.9226 N   0  0  0  0  0  0  0  0  0  0  0  0
   -1.4328   -0.3298   -1.5645 C   0  0  0  0  0  0  0  0  0  0  0  0
   -2.1489    0.2362   -0.5230 C   0  0  0  0  0  0  0  0  0  0  0  0
   -3.4770   -0.4210   -0.3611 C   0  0  0  0  0  0  0  0  0  0  0  0
   -3.6289   -1.1248   -1.7192 C   0  0  0  0  0  0  0  0  0  0  0  0
   -2.2098   -1.4426   -2.2093 C   0  0  0  0  0  0  0  0  0  0  0  0
   -3.1434    2.3957    1.0192 H   0  0  0  0  0  0  0  0  0  0  0  0
   -1.5807    2.6476    1.8156 H   0  0  0  0  0  0  0  0  0  0  0  0
   -2.4839    1.1547    2.1198 H   0  0  0  0  0  0  0  0  0  0  0  0
    3.8124    1.9136   -0.1404 H   0  0  0  0  0  0  0  0  0  0  0  0
    2.3092    2.4357    0.6249 H   0  0  0  0  0  0  0  0  0  0  0  0
    4.1255   -0.7034   -0.5299 H   0  0  0  0  0  0  0  0  0  0  0  0
    3.9924   -2.8495    0.6617 H   0  0  0  0  0  0  0  0  0  0  0  0
    1.1608   -1.1633    3.4286 H   0  0  0  0  0  0  0  0  0  0  0  0
    1.2776    0.9933    2.2490 H   0  0  0  0  0  0  0  0  0  0  0  0
   -4.2868    0.2946   -0.1945 H   0  0  0  0  0  0  0  0  0  0  0  0
   -3.4429   -1.1469    0.4579 H   0  0  0  0  0  0  0  0  0  0  0  0
   -4.2607   -2.0165   -1.6596 H   0  0  0  0  0  0  0  0  0  0  0  0
   -4.1083   -0.4360   -2.4289 H   0  0  0  0  0  0  0  0  0  0  0  0
   -2.1387   -1.4216   -3.2998 H   0  0  0  0  0  0  0  0  0  0  0  0
   -1.8633   -2.4079   -1.8267 H   0  0  0  0  0  0  0  0  0  0  0  0
  1  2  1  0
  2  3  2  0
  3  4  1  0
  4  5  1  0
  5  6  2  0
  5  7  2  0
  5  8  1  0
  8  9  1  0
  9 10  2  0
 10 11  1  0
 11 12  2  0
 12 13  1  0
 12 14  1  0
 14 15  2  0
  4 16  2  0
 16 17  1  0
 17 18  2  0
 18 19  1  0
 19 20  1  0
 20 21  1  0
 18  2  1  0
 15  9  1  0
 21 17  1  0
  1 22  1  0
  1 23  1  0
  1 24  1  0
  8 25  1  0
  8 26  1  0
 10 27  1  0
 11 28  1  0
 14 29  1  0
 15 30  1  0
 19 31  1  0
 19 32  1  0
 20 33  1  0
 20 34  1  0
 21 35  1  0
 21 36  1  0
M  END
$$$$
