
     RDKit          3D

 44 47  0  0  0  0  0  0  0  0999 V2000
   -4.2387    3.8422    1.0732 N   0  0  0  0  0  0  0  0  0  0  0  0
   -4.4787    2.8466    0.1950 C   0  0  0  0  0  0  0  0  0  0  0  0
   -5.6728    2.5810   -0.3329 N   0  0  0  0  0  0  0  0  0  0  0  0
   -5.4825    1.4732   -1.1530 O   0  0  0  0  0  0  0  0  0  0  0  0
   -4.1563    1.0497   -1.1290 N   0  0  0  0  0  0  0  0  0  0  0  0
   -3.5550    1.9066   -0.3005 C   0  0  0  0  0  0  0  0  0  0  0  0
   -2.1653    1.8225   -0.0334 N   0  0  0  0  0  0  0  0  0  0  0  0
   -1.5182    2.8182    0.6389 N   0  0  0  0  0  0  0  0  0  0  0  0
   -0.2391    2.5103    0.7469 N   0  0  0  0  0  0  0  0  0  0  0  0
   -0.0373    1.2890    0.1645 C   0  0  0  0  0  0  0  0  0  0  0  0
    1.2729    0.6372    0.1698 C   0  0  0  0  0  0  0  0  0  0  0  0
    1.4560   -0.4649   -0.3325 O   0  0  0  0  0  0  0  0  0  0  0  0
    2.2339    1.4028    0.8237 N   0  0  0  0  0  0  0  0  0  0  0  0
    3.4867    0.9873    1.1949 N   0  0  0  0  0  0  0  0  0  0  0  0
    4.1246    0.1712    0.4177 C   0  0  0  0  0  0  0  0  0  0  0  0
    5.4653   -0.3345    0.7759 C   0  0  0  0  0  0  0  0  0  0  0  0
    5.7765   -0.7563    2.0770 C   0  0  0  0  0  0  0  0  0  0  0  0
    4.6154   -0.8478    3.3553 Cl  0  0  0  0  0  0  0  0  0  0  0  0
    7.0721   -1.1917    2.3821 C   0  0  0  0  0  0  0  0  0  0  0  0
    8.0585   -1.2195    1.4006 C   0  0  0  0  0  0  0  0  0  0  0  0
    7.7512   -0.8233    0.1043 C   0  0  0  0  0  0  0  0  0  0  0  0
    6.4599   -0.3827   -0.2132 C   0  0  0  0  0  0  0  0  0  0  0  0
    6.1849    0.1222   -1.8528 Cl  0  0  0  0  0  0  0  0  0  0  0  0
   -1.2405    0.8282   -0.3588 C   0  0  0  0  0  0  0  0  0  0  0  0
   -1.5663   -0.4559   -1.0384 C   0  0  0  0  0  0  0  0  0  0  0  0
   -2.1599   -1.6489    0.1931 S   0  0  0  0  0  0  0  0  0  0  0  0
   -3.5917   -2.2059   -0.5959 C   0  0  0  0  0  0  0  0  0  0  0  0
   -3.6498   -2.5013   -1.8495 N   0  0  0  0  0  0  0  0  0  0  0  0
   -5.0081   -2.9899   -2.1639 C   0  0  0  0  0  0  0  0  0  0  0  0
   -6.0085   -2.4641   -1.1456 C   0  0  0  0  0  0  0  0  0  0  0  0
   -5.0350   -2.3517    0.3632 S   0  0  0  0  0  0  0  0  0  0  0  0
   -3.2869    4.1563    1.2562 H   0  0  0  0  0  0  0  0  0  0  0  0
   -4.9401    4.5664    1.1888 H   0  0  0  0  0  0  0  0  0  0  0  0
    1.8818    2.1840    1.3698 H   0  0  0  0  0  0  0  0  0  0  0  0
    3.7403   -0.1178   -0.5812 H   0  0  0  0  0  0  0  0  0  0  0  0
    7.3162   -1.5205    3.3851 H   0  0  0  0  0  0  0  0  0  0  0  0
    9.0634   -1.5578    1.6436 H   0  0  0  0  0  0  0  0  0  0  0  0
    8.5284   -0.8443   -0.6586 H   0  0  0  0  0  0  0  0  0  0  0  0
   -2.2712   -0.3003   -1.8586 H   0  0  0  0  0  0  0  0  0  0  0  0
   -0.6733   -0.8772   -1.5121 H   0  0  0  0  0  0  0  0  0  0  0  0
   -5.2903   -2.6583   -3.1681 H   0  0  0  0  0  0  0  0  0  0  0  0
   -4.9973   -4.0860   -2.1773 H   0  0  0  0  0  0  0  0  0  0  0  0
   -6.8669   -3.1290   -1.0378 H   0  0  0  0  0  0  0  0  0  0  0  0
   -6.3584   -1.4654   -1.4265 H   0  0  0  0  0  0  0  0  0  0  0  0
  1  2  1  0
  2  3  2  0
  3  4  1  0
  4  5  1  0
  5  6  2  0
  6  7  1  0
  7  8  1  0
  8  9  2  0
  9 10  1  0
 10 11  1  0
 11 12  2  0
 11 13  1  0
 13 14  1  0
 14 15  2  3
 15 16  1  0
 16 17  2  0
 17 18  1  0
 17 19  1  0
 19 20  2  0
 20 21  1  0
 21 22  2  0
 22 23  1  0
 10 24  2  0
 24 25  1  0
 25 26  1  0
 26 27  1  0
 27 28  2  0
 28 29  1  0
 29 30  1  0
 30 31  1  0
  6  2  1  0
 24  7  1  0
 31 27  1  0
 22 16  1  0
  1 32  1  0
  1 33  1  0
 13 34  1  0
 15 35  1  0
 19 36  1  0
 20 37  1  0
 21 38  1  0
 25 39  1  0
 25 40  1  0
 29 41  1  0
 29 42  1  0
 30 43  1  0
 30 44  1  0
M  END
$$$$
