
     RDKit          3D

 29 30  0  0  0  0  0  0  0  0999 V2000
    1.0400    1.5671   -1.2331 O   0  0  0  0  0  0  0  0  0  0  0  0
    1.3631    0.5099   -0.6944 C   0  0  0  0  0  0  0  0  0  0  0  0
    0.3821   -0.3633    0.0802 C   0  0  0  0  0  0  0  0  0  0  0  0
   -0.9276    0.1996    0.0942 O   0  0  0  0  0  0  0  0  0  0  0  0
   -1.8354   -0.5457    0.7736 C   0  0  0  0  0  0  0  0  0  0  0  0
   -1.5957   -1.6063    1.3356 O   0  0  0  0  0  0  0  0  0  0  0  0
   -3.1862    0.0939    0.7535 C   0  0  0  0  0  0  0  0  0  0  0  0
   -4.2368   -0.5440    1.4072 C   0  0  0  0  0  0  0  0  0  0  0  0
   -5.4934    0.0554    1.3859 C   0  0  0  0  0  0  0  0  0  0  0  0
   -5.6600    1.2638    0.7177 C   0  0  0  0  0  0  0  0  0  0  0  0
   -4.5593    1.8288    0.0937 C   0  0  0  0  0  0  0  0  0  0  0  0
   -3.3293    1.2740    0.0957 N   0  0  0  0  0  0  0  0  0  0  0  0
    2.7847    0.0525   -0.8002 C   0  0  0  0  0  0  0  0  0  0  0  0
    3.6904    0.8539   -1.5128 C   0  0  0  0  0  0  0  0  0  0  0  0
    5.0290    0.4736   -1.6420 C   0  0  0  0  0  0  0  0  0  0  0  0
    5.4675   -0.7117   -1.0580 C   0  0  0  0  0  0  0  0  0  0  0  0
    7.2764   -1.2309   -1.2296 Br  0  0  0  0  0  0  0  0  0  0  0  0
    4.5803   -1.5184   -0.3472 C   0  0  0  0  0  0  0  0  0  0  0  0
    3.2395   -1.1384   -0.2172 C   0  0  0  0  0  0  0  0  0  0  0  0
    0.7421   -0.4472    1.1119 H   0  0  0  0  0  0  0  0  0  0  0  0
    0.3405   -1.3439   -0.4076 H   0  0  0  0  0  0  0  0  0  0  0  0
   -4.0828   -1.4870    1.9224 H   0  0  0  0  0  0  0  0  0  0  0  0
   -6.3347   -0.4163    1.8864 H   0  0  0  0  0  0  0  0  0  0  0  0
   -6.6263    1.7556    0.6832 H   0  0  0  0  0  0  0  0  0  0  0  0
   -4.6402    2.7717   -0.4407 H   0  0  0  0  0  0  0  0  0  0  0  0
    3.3567    1.7832   -1.9733 H   0  0  0  0  0  0  0  0  0  0  0  0
    5.7144    1.1083   -2.1980 H   0  0  0  0  0  0  0  0  0  0  0  0
    4.9218   -2.4446    0.1094 H   0  0  0  0  0  0  0  0  0  0  0  0
    2.5791   -1.7933    0.3441 H   0  0  0  0  0  0  0  0  0  0  0  0
  1  2  2  0
  2  3  1  0
  3  4  1  0
  4  5  1  0
  5  6  2  0
  5  7  1  0
  7  8  2  0
  8  9  1  0
  9 10  2  0
 10 11  1  0
 11 12  2  0
  2 13  1  0
 13 14  2  0
 14 15  1  0
 15 16  2  0
 16 17  1  0
 16 18  1  0
 18 19  2  0
 12  7  1  0
 19 13  1  0
  3 20  1  0
  3 21  1  0
  8 22  1  0
  9 23  1  0
 10 24  1  0
 11 25  1  0
 14 26  1  0
 15 27  1  0
 18 28  1  0
 19 29  1  0
M  END
$$$$
