
     RDKit          3D

 58 63  0  0  0  0  0  0  0  0999 V2000
    7.6774   -1.9929    0.0160 C   0  0  0  0  0  0  0  0  0  0  0  0
    6.3270   -1.6271    0.5293 C   0  0  0  0  0  0  0  0  0  0  0  0
    5.2262   -2.4382    0.7081 C   0  0  0  0  0  0  0  0  0  0  0  0
    4.1105   -1.7226    1.2326 C   0  0  0  0  0  0  0  0  0  0  0  0
    4.3863   -0.3810    1.4202 C   0  0  0  0  0  0  0  0  0  0  0  0
    3.5318    0.6772    1.9394 C   0  0  0  0  0  0  0  0  0  0  0  0
    3.9145    1.4588    2.8109 O   0  0  0  0  0  0  0  0  0  0  0  0
    2.2250    0.7690    1.4306 N   0  0  0  0  0  0  0  0  0  0  0  0
    1.7994    0.1813    0.1628 C   0  0  0  0  0  0  0  0  0  0  0  0
    0.8400    1.0908   -0.6005 C   0  0  0  0  0  0  0  0  0  0  0  0
   -0.4077    1.5166    0.2232 C   0  0  0  0  0  0  0  0  0  0  0  0
   -0.1343    1.3973    1.7461 C   0  0  0  0  0  0  0  0  0  0  0  0
    1.3195    1.7207    2.0674 C   0  0  0  0  0  0  0  0  0  0  0  0
   -0.5709    2.9537    0.0382 O   0  0  0  0  0  0  0  0  0  0  0  0
   -1.2304    3.3882   -1.0714 C   0  0  0  0  0  0  0  0  0  0  0  0
   -1.1372    4.7532   -1.3438 C   0  0  0  0  0  0  0  0  0  0  0  0
   -1.7628    5.2881   -2.4728 C   0  0  0  0  0  0  0  0  0  0  0  0
   -2.4841    4.4542   -3.3268 C   0  0  0  0  0  0  0  0  0  0  0  0
   -3.2466    5.1141   -4.7198 Cl  0  0  0  0  0  0  0  0  0  0  0  0
   -2.5922    3.0928   -3.0572 C   0  0  0  0  0  0  0  0  0  0  0  0
   -1.9698    2.5714   -1.9183 C   0  0  0  0  0  0  0  0  0  0  0  0
   -2.0811    1.1441   -1.5958 C   0  0  0  0  0  0  0  0  0  0  0  0
   -2.4439    0.3520   -2.4618 O   0  0  0  0  0  0  0  0  0  0  0  0
   -1.6997    0.7465   -0.1730 C   0  0  0  0  0  0  0  0  0  0  0  0
   -1.6286   -0.7681   -0.0347 C   0  0  0  0  0  0  0  0  0  0  0  0
   -3.0109   -1.0161    0.4685 C   0  0  0  0  0  0  0  0  0  0  0  0
   -3.6009   -2.3749    0.5166 C   0  0  0  0  0  0  0  0  0  0  0  0
   -4.9249   -2.5228    0.9491 C   0  0  0  0  0  0  0  0  0  0  0  0
   -5.5088   -3.7894    1.0107 C   0  0  0  0  0  0  0  0  0  0  0  0
   -4.7734   -4.9140    0.6418 C   0  0  0  0  0  0  0  0  0  0  0  0
   -3.4545   -4.7742    0.2117 C   0  0  0  0  0  0  0  0  0  0  0  0
   -2.8661   -3.5079    0.1489 C   0  0  0  0  0  0  0  0  0  0  0  0
   -3.6301    0.0402    0.8912 N   0  0  0  0  0  0  0  0  0  0  0  0
   -2.7786    1.1470    0.6873 O   0  0  0  0  0  0  0  0  0  0  0  0
    6.0058   -0.0148    1.0037 S   0  0  0  0  0  0  0  0  0  0  0  0
    8.4443   -1.8102    0.7759 H   0  0  0  0  0  0  0  0  0  0  0  0
    7.9243   -1.4109   -0.8780 H   0  0  0  0  0  0  0  0  0  0  0  0
    7.7188   -3.0535   -0.2534 H   0  0  0  0  0  0  0  0  0  0  0  0
    5.2238   -3.4990    0.4865 H   0  0  0  0  0  0  0  0  0  0  0  0
    3.1567   -2.1752    1.4735 H   0  0  0  0  0  0  0  0  0  0  0  0
    2.6667   -0.0210   -0.4731 H   0  0  0  0  0  0  0  0  0  0  0  0
    1.3222   -0.7767    0.3912 H   0  0  0  0  0  0  0  0  0  0  0  0
    0.5476    0.5916   -1.5314 H   0  0  0  0  0  0  0  0  0  0  0  0
    1.3985    1.9853   -0.9096 H   0  0  0  0  0  0  0  0  0  0  0  0
   -0.7783    2.0891    2.3037 H   0  0  0  0  0  0  0  0  0  0  0  0
   -0.3498    0.3906    2.1184 H   0  0  0  0  0  0  0  0  0  0  0  0
    1.5898    2.7259    1.7227 H   0  0  0  0  0  0  0  0  0  0  0  0
    1.4741    1.6936    3.1522 H   0  0  0  0  0  0  0  0  0  0  0  0
   -0.5715    5.4033   -0.6800 H   0  0  0  0  0  0  0  0  0  0  0  0
   -1.6824    6.3526   -2.6798 H   0  0  0  0  0  0  0  0  0  0  0  0
   -3.1627    2.4438   -3.7176 H   0  0  0  0  0  0  0  0  0  0  0  0
   -0.9329   -1.1107    0.7342 H   0  0  0  0  0  0  0  0  0  0  0  0
   -1.4139   -1.2929   -0.9682 H   0  0  0  0  0  0  0  0  0  0  0  0
   -5.5119   -1.6531    1.2388 H   0  0  0  0  0  0  0  0  0  0  0  0
   -6.5377   -3.8958    1.3453 H   0  0  0  0  0  0  0  0  0  0  0  0
   -5.2295   -5.9000    0.6885 H   0  0  0  0  0  0  0  0  0  0  0  0
   -2.8843   -5.6542   -0.0765 H   0  0  0  0  0  0  0  0  0  0  0  0
   -1.8375   -3.4357   -0.1889 H   0  0  0  0  0  0  0  0  0  0  0  0
  1  2  1  0
  2  3  2  0
  3  4  1  0
  4  5  2  0
  5  6  1  0
  6  7  2  0
  6  8  1  0
  8  9  1  0
  9 10  1  0
 10 11  1  0
 11 12  1  0
 12 13  1  0
 11 14  1  0
 14 15  1  0
 15 16  2  0
 16 17  1  0
 17 18  2  0
 18 19  1  0
 18 20  1  0
 20 21  2  0
 21 22  1  0
 22 23  2  0
 22 24  1  0
 24 25  1  0
 25 26  1  0
 26 27  1  0
 27 28  2  0
 28 29  1  0
 29 30  2  0
 30 31  1  0
 31 32  2  0
 26 33  2  0
 33 34  1  0
  5 35  1  0
 35  2  1  0
 13  8  1  0
 21 15  1  0
 34 24  1  0
 24 11  1  0
 32 27  1  0
  1 36  1  0
  1 37  1  0
  1 38  1  0
  3 39  1  0
  4 40  1  0
  9 41  1  0
  9 42  1  0
 10 43  1  0
 10 44  1  0
 12 45  1  0
 12 46  1  0
 13 47  1  0
 13 48  1  0
 16 49  1  0
 17 50  1  0
 20 51  1  0
 25 52  1  0
 25 53  1  0
 28 54  1  0
 29 55  1  0
 30 56  1  0
 31 57  1  0
 32 58  1  0
M  END
$$$$
