
     RDKit          3D

 36 35  0  0  0  0  0  0  0  0999 V2000
    2.7438   -2.4285    1.4129 C   0  0  0  0  0  0  0  0  0  0  0  0
    1.7670   -1.3569    0.9508 C   0  0  0  0  0  0  0  0  0  0  0  0
    1.9859   -0.9831   -0.4582 N   0  0  0  0  0  0  0  0  0  0  0  0
    2.9680    0.0994   -0.6522 C   0  0  0  0  0  0  0  0  0  0  0  0
    2.3038    1.4682   -0.6724 C   0  0  0  0  0  0  0  0  0  0  0  0
    1.3683   -1.6302   -1.5507 C   0  0  0  0  0  0  0  0  0  0  0  0
    1.6735   -1.2890   -3.1779 S   0  0  0  0  0  0  0  0  0  0  0  0
    0.2285   -2.9381   -1.1679 S   0  0  0  0  0  0  0  0  0  0  0  0
   -1.6017   -2.0564   -1.5589 S   0  0  0  0  0  0  0  0  0  0  0  0
   -1.9131   -1.1779   -0.0475 C   0  0  0  0  0  0  0  0  0  0  0  0
   -2.4998   -2.0476    1.2769 S   0  0  0  0  0  0  0  0  0  0  0  0
   -1.6565    0.2109   -0.0575 N   0  0  0  0  0  0  0  0  0  0  0  0
   -1.5005    0.9918   -1.2998 C   0  0  0  0  0  0  0  0  0  0  0  0
   -2.8183    1.2411   -2.0217 C   0  0  0  0  0  0  0  0  0  0  0  0
   -1.6695    1.0024    1.1863 C   0  0  0  0  0  0  0  0  0  0  0  0
   -3.0074    1.6651    1.4730 C   0  0  0  0  0  0  0  0  0  0  0  0
    2.5573   -2.6838    2.4606 H   0  0  0  0  0  0  0  0  0  0  0  0
    2.6493   -3.3414    0.8171 H   0  0  0  0  0  0  0  0  0  0  0  0
    3.7790   -2.0832    1.3267 H   0  0  0  0  0  0  0  0  0  0  0  0
    0.7452   -1.7021    1.1088 H   0  0  0  0  0  0  0  0  0  0  0  0
    1.8776   -0.4595    1.5708 H   0  0  0  0  0  0  0  0  0  0  0  0
    3.7028    0.0579    0.1602 H   0  0  0  0  0  0  0  0  0  0  0  0
    3.5342   -0.0510   -1.5754 H   0  0  0  0  0  0  0  0  0  0  0  0
    1.5949    1.5560   -1.5008 H   0  0  0  0  0  0  0  0  0  0  0  0
    1.7549    1.6547    0.2562 H   0  0  0  0  0  0  0  0  0  0  0  0
    3.0578    2.2531   -0.7864 H   0  0  0  0  0  0  0  0  0  0  0  0
   -0.8082    0.4815   -1.9720 H   0  0  0  0  0  0  0  0  0  0  0  0
   -1.0302    1.9521   -1.0597 H   0  0  0  0  0  0  0  0  0  0  0  0
   -3.3198    0.3080   -2.2928 H   0  0  0  0  0  0  0  0  0  0  0  0
   -2.6398    1.8076   -2.9412 H   0  0  0  0  0  0  0  0  0  0  0  0
   -3.5121    1.8168   -1.4039 H   0  0  0  0  0  0  0  0  0  0  0  0
   -1.3883    0.3699    2.0338 H   0  0  0  0  0  0  0  0  0  0  0  0
   -0.8824    1.7627    1.1176 H   0  0  0  0  0  0  0  0  0  0  0  0
   -2.9891    2.1367    2.4607 H   0  0  0  0  0  0  0  0  0  0  0  0
   -3.8305    0.9450    1.4516 H   0  0  0  0  0  0  0  0  0  0  0  0
   -3.2244    2.4478    0.7408 H   0  0  0  0  0  0  0  0  0  0  0  0
  1  2  1  0
  2  3  1  0
  3  4  1  0
  4  5  1  0
  3  6  1  0
  6  7  2  0
  6  8  1  0
  8  9  1  0
  9 10  1  0
 10 11  2  0
 10 12  1  0
 12 13  1  0
 13 14  1  0
 12 15  1  0
 15 16  1  0
  1 17  1  0
  1 18  1  0
  1 19  1  0
  2 20  1  0
  2 21  1  0
  4 22  1  0
  4 23  1  0
  5 24  1  0
  5 25  1  0
  5 26  1  0
 13 27  1  0
 13 28  1  0
 14 29  1  0
 14 30  1  0
 14 31  1  0
 15 32  1  0
 15 33  1  0
 16 34  1  0
 16 35  1  0
 16 36  1  0
M  END
$$$$
