
     RDKit          3D

 51 55  0  0  0  0  0  0  0  0999 V2000
   -5.4332    0.3870    0.5800 O   0  0  0  0  0  0  0  0  0  0  0  0
   -4.4462    0.7951   -0.0555 C   0  0  0  0  0  0  0  0  0  0  0  0
   -4.4796    2.1613   -0.7815 C   0  0  0  0  0  0  0  0  0  0  0  0
   -4.5648    2.1502   -2.3366 C   0  0  0  0  0  0  0  0  0  0  0  0
   -6.0893    2.3023   -2.2038 C   0  0  0  0  0  0  0  0  0  0  0  0
   -5.8400    2.9231   -0.8199 C   0  0  0  0  0  0  0  0  0  0  0  0
   -3.3080   -0.0051   -0.1211 N   0  0  0  0  0  0  0  0  0  0  0  0
   -3.3387   -1.3281    0.5219 C   0  0  0  0  0  0  0  0  0  0  0  0
   -2.0452   -2.0529    0.1571 C   0  0  0  0  0  0  0  0  0  0  0  0
   -1.2574   -0.9587   -0.4897 C   0  0  0  0  0  0  0  0  0  0  0  0
    0.0593   -1.0457   -0.9227 C   0  0  0  0  0  0  0  0  0  0  0  0
    0.6217    0.0801   -1.5239 C   0  0  0  0  0  0  0  0  0  0  0  0
    2.2996    0.0252   -2.1023 S   0  0  0  0  0  6  0  0  0  0  0  0
    2.7538   -1.3481   -2.0910 O   0  0  0  0  0  0  0  0  0  0  0  0
    2.3623    0.8220   -3.3099 O   0  0  0  0  0  0  0  0  0  0  0  0
    3.1275    0.9068   -0.9179 N   0  0  0  0  0  0  0  0  0  0  0  0
    3.4698    0.2371    0.2893 C   0  0  0  0  0  0  0  0  0  0  0  0
    2.5612    0.2205    1.3489 C   0  0  0  0  0  0  0  0  0  0  0  0
    2.8749   -0.4642    2.5243 C   0  0  0  0  0  0  0  0  0  0  0  0
    4.0932   -1.1315    2.6332 C   0  0  0  0  0  0  0  0  0  0  0  0
    4.9866   -1.1400    1.5564 C   0  0  0  0  0  0  0  0  0  0  0  0
    4.6813   -0.4466    0.3863 C   0  0  0  0  0  0  0  0  0  0  0  0
    6.1859   -1.8055    1.5827 O   0  0  0  0  0  0  0  0  0  0  0  0
    6.2314   -2.7537    2.6553 C   0  0  0  0  0  0  0  0  0  0  0  0
    5.7237   -2.1278    3.9438 C   0  0  0  0  0  0  0  0  0  0  0  0
    4.3428   -1.7662    3.8225 O   0  0  0  0  0  0  0  0  0  0  0  0
   -0.1314    1.2495   -1.7079 C   0  0  0  0  0  0  0  0  0  0  0  0
   -1.4616    1.3125   -1.2684 C   0  0  0  0  0  0  0  0  0  0  0  0
   -2.0246    0.2027   -0.6590 C   0  0  0  0  0  0  0  0  0  0  0  0
   -3.7097    2.8270   -0.3719 H   0  0  0  0  0  0  0  0  0  0  0  0
   -4.2362    1.2364   -2.8390 H   0  0  0  0  0  0  0  0  0  0  0  0
   -4.0732    3.0089   -2.8088 H   0  0  0  0  0  0  0  0  0  0  0  0
   -6.6267    1.3478   -2.1693 H   0  0  0  0  0  0  0  0  0  0  0  0
   -6.5684    2.9539   -2.9386 H   0  0  0  0  0  0  0  0  0  0  0  0
   -6.5737    2.6672   -0.0510 H   0  0  0  0  0  0  0  0  0  0  0  0
   -5.7281    4.0141   -0.8407 H   0  0  0  0  0  0  0  0  0  0  0  0
   -4.2232   -1.8867    0.1949 H   0  0  0  0  0  0  0  0  0  0  0  0
   -3.4168   -1.1774    1.6058 H   0  0  0  0  0  0  0  0  0  0  0  0
   -2.2350   -2.8597   -0.5582 H   0  0  0  0  0  0  0  0  0  0  0  0
   -1.5465   -2.4546    1.0439 H   0  0  0  0  0  0  0  0  0  0  0  0
    0.6294   -1.9618   -0.7925 H   0  0  0  0  0  0  0  0  0  0  0  0
    3.8485    1.4851   -1.3496 H   0  0  0  0  0  0  0  0  0  0  0  0
    1.6157    0.7509    1.2771 H   0  0  0  0  0  0  0  0  0  0  0  0
    2.1767   -0.4681    3.3568 H   0  0  0  0  0  0  0  0  0  0  0  0
    5.3780   -0.4686   -0.4461 H   0  0  0  0  0  0  0  0  0  0  0  0
    7.2722   -3.0714    2.7731 H   0  0  0  0  0  0  0  0  0  0  0  0
    5.6360   -3.6305    2.3721 H   0  0  0  0  0  0  0  0  0  0  0  0
    6.2966   -1.2298    4.2066 H   0  0  0  0  0  0  0  0  0  0  0  0
    5.8083   -2.8406    4.7700 H   0  0  0  0  0  0  0  0  0  0  0  0
    0.3137    2.1169   -2.1926 H   0  0  0  0  0  0  0  0  0  0  0  0
   -1.9926    2.2396   -1.4227 H   0  0  0  0  0  0  0  0  0  0  0  0
  1  2  2  0
  2  3  1  0
  3  4  1  0
  4  5  1  0
  5  6  1  0
  2  7  1  0
  7  8  1  0
  8  9  1  0
  9 10  1  0
 10 11  2  0
 11 12  1  0
 12 13  1  0
 13 14  2  0
 13 15  2  0
 13 16  1  0
 16 17  1  0
 17 18  2  0
 18 19  1  0
 19 20  2  0
 20 21  1  0
 21 22  2  0
 21 23  1  0
 23 24  1  0
 24 25  1  0
 25 26  1  0
 12 27  2  0
 27 28  1  0
 28 29  2  0
  6  3  1  0
 29  7  1  0
 29 10  1  0
 22 17  1  0
 26 20  1  0
  3 30  1  0
  4 31  1  0
  4 32  1  0
  5 33  1  0
  5 34  1  0
  6 35  1  0
  6 36  1  0
  8 37  1  0
  8 38  1  0
  9 39  1  0
  9 40  1  0
 11 41  1  0
 16 42  1  0
 18 43  1  0
 19 44  1  0
 22 45  1  0
 24 46  1  0
 24 47  1  0
 25 48  1  0
 25 49  1  0
 27 50  1  0
 28 51  1  0
M  END
$$$$
