
     RDKit          3D

 62 67  0  0  0  0  0  0  0  0999 V2000
   -2.9069   -0.3493    5.1359 C   0  0  0  0  0  0  0  0  0  0  0  0
   -3.0426   -0.3557    3.7217 O   0  0  0  0  0  0  0  0  0  0  0  0
   -3.1437   -1.5765    3.1020 C   0  0  0  0  0  0  0  0  0  0  0  0
   -2.9139   -2.8034    3.7360 C   0  0  0  0  0  0  0  0  0  0  0  0
   -3.0136   -4.0013    3.0222 C   0  0  0  0  0  0  0  0  0  0  0  0
   -3.3387   -3.9868    1.6692 C   0  0  0  0  0  0  0  0  0  0  0  0
   -3.5674   -2.7721    1.0255 C   0  0  0  0  0  0  0  0  0  0  0  0
   -3.4763   -1.5613    1.7315 C   0  0  0  0  0  0  0  0  0  0  0  0
   -3.7201   -0.3058    1.0081 C   0  0  0  0  0  0  0  0  0  0  0  0
   -5.2705    0.4033    1.1188 S   0  0  0  0  0  0  0  0  0  0  0  0
   -4.8471    1.7090    0.0828 C   0  0  0  0  0  0  0  0  0  0  0  0
   -5.6900    2.7734   -0.3068 C   0  0  0  0  0  0  0  0  0  0  0  0
   -5.1422    3.7191   -1.1485 C   0  0  0  0  0  0  0  0  0  0  0  0
   -3.8500    3.6433   -1.5903 C   0  0  0  0  0  0  0  0  0  0  0  0
   -3.0084    2.6119   -1.2222 C   0  0  0  0  0  0  0  0  0  0  0  0
   -3.5176    1.6032   -0.3573 C   0  0  0  0  0  0  0  0  0  0  0  0
   -2.8777    0.4243    0.1866 C   0  0  0  0  0  0  0  0  0  0  0  0
   -1.5065   -0.0005   -0.0728 C   0  0  0  0  0  0  0  0  0  0  0  0
   -0.5377    0.0771    0.9332 C   0  0  0  0  0  0  0  0  0  0  0  0
    0.7785   -0.3260    0.6813 C   0  0  0  0  0  0  0  0  0  0  0  0
    1.1357   -0.8041   -0.5799 C   0  0  0  0  0  0  0  0  0  0  0  0
    2.3780   -1.2312   -0.9573 O   0  0  0  0  0  0  0  0  0  0  0  0
    3.4307   -1.1045   -0.0003 C   0  0  0  0  0  0  0  0  0  0  0  0
    4.7529   -1.6013   -0.6198 C   0  0  0  0  0  0  0  0  0  0  0  0
    5.2385   -0.8286   -1.7788 N   0  0  0  0  0  0  0  0  0  0  0  0
    5.4575    0.5973   -1.4609 C   0  0  0  0  0  0  0  0  0  0  0  0
    6.4637    1.2507   -2.4204 C   0  0  0  0  0  0  0  0  0  0  0  0
    7.7732    0.6731   -2.3191 O   0  0  0  0  0  0  0  0  0  0  0  0
    7.7485   -0.7166   -1.9655 C   0  0  0  0  0  0  0  0  0  0  0  0
    6.4498   -1.4282   -2.3765 C   0  0  0  0  0  0  0  0  0  0  0  0
    0.1662   -0.8779   -1.5837 C   0  0  0  0  0  0  0  0  0  0  0  0
   -1.1489   -0.4774   -1.3365 C   0  0  0  0  0  0  0  0  0  0  0  0
   -3.5166    4.6786   -2.4078 O   0  0  0  0  0  0  0  0  0  0  0  0
   -4.7550    5.4170   -2.4286 C   0  0  0  0  0  0  0  0  0  0  0  0
   -5.7934    4.8130   -1.6306 O   0  0  0  0  0  0  0  0  0  0  0  0
   -3.7322   -0.8835    5.6185 H   0  0  0  0  0  0  0  0  0  0  0  0
   -1.9380   -0.7597    5.4379 H   0  0  0  0  0  0  0  0  0  0  0  0
   -2.9445    0.6919    5.4703 H   0  0  0  0  0  0  0  0  0  0  0  0
   -2.6455   -2.8629    4.7854 H   0  0  0  0  0  0  0  0  0  0  0  0
   -2.8314   -4.9481    3.5248 H   0  0  0  0  0  0  0  0  0  0  0  0
   -3.4114   -4.9182    1.1139 H   0  0  0  0  0  0  0  0  0  0  0  0
   -3.8173   -2.7685   -0.0332 H   0  0  0  0  0  0  0  0  0  0  0  0
   -6.7145    2.8439    0.0389 H   0  0  0  0  0  0  0  0  0  0  0  0
   -1.9856    2.5785   -1.5833 H   0  0  0  0  0  0  0  0  0  0  0  0
   -0.8035    0.4487    1.9207 H   0  0  0  0  0  0  0  0  0  0  0  0
    1.4940   -0.2557    1.4929 H   0  0  0  0  0  0  0  0  0  0  0  0
    3.2083   -1.7367    0.8683 H   0  0  0  0  0  0  0  0  0  0  0  0
    3.5310   -0.0646    0.3313 H   0  0  0  0  0  0  0  0  0  0  0  0
    5.5212   -1.6260    0.1633 H   0  0  0  0  0  0  0  0  0  0  0  0
    4.5844   -2.6347   -0.9491 H   0  0  0  0  0  0  0  0  0  0  0  0
    4.5035    1.1320   -1.5202 H   0  0  0  0  0  0  0  0  0  0  0  0
    5.8471    0.7030   -0.4400 H   0  0  0  0  0  0  0  0  0  0  0  0
    6.1278    1.1670   -3.4608 H   0  0  0  0  0  0  0  0  0  0  0  0
    6.5596    2.3178   -2.1953 H   0  0  0  0  0  0  0  0  0  0  0  0
    7.9048   -0.7935   -0.8831 H   0  0  0  0  0  0  0  0  0  0  0  0
    8.6068   -1.1919   -2.4514 H   0  0  0  0  0  0  0  0  0  0  0  0
    6.5229   -2.5000   -2.1580 H   0  0  0  0  0  0  0  0  0  0  0  0
    6.3421   -1.3455   -3.4655 H   0  0  0  0  0  0  0  0  0  0  0  0
    0.4401   -1.2503   -2.5680 H   0  0  0  0  0  0  0  0  0  0  0  0
   -1.8865   -0.5447   -2.1323 H   0  0  0  0  0  0  0  0  0  0  0  0
   -5.1048    5.4867   -3.4651 H   0  0  0  0  0  0  0  0  0  0  0  0
   -4.5669    6.4290   -2.0521 H   0  0  0  0  0  0  0  0  0  0  0  0
  1  2  1  0
  2  3  1  0
  3  4  2  0
  4  5  1  0
  5  6  2  0
  6  7  1  0
  7  8  2  0
  8  9  1  0
  9 10  1  0
 10 11  1  0
 11 12  2  0
 12 13  1  0
 13 14  2  0
 14 15  1  0
 15 16  2  0
 16 17  1  0
 17 18  1  0
 18 19  2  0
 19 20  1  0
 20 21  2  0
 21 22  1  0
 22 23  1  0
 23 24  1  0
 24 25  1  0
 25 26  1  0
 26 27  1  0
 27 28  1  0
 28 29  1  0
 29 30  1  0
 21 31  1  0
 31 32  2  0
 14 33  1  0
 33 34  1  0
 34 35  1  0
  8  3  1  0
 17  9  2  0
 32 18  1  0
 16 11  1  0
 30 25  1  0
 35 13  1  0
  1 36  1  0
  1 37  1  0
  1 38  1  0
  4 39  1  0
  5 40  1  0
  6 41  1  0
  7 42  1  0
 12 43  1  0
 15 44  1  0
 19 45  1  0
 20 46  1  0
 23 47  1  0
 23 48  1  0
 24 49  1  0
 24 50  1  0
 26 51  1  0
 26 52  1  0
 27 53  1  0
 27 54  1  0
 29 55  1  0
 29 56  1  0
 30 57  1  0
 30 58  1  0
 31 59  1  0
 32 60  1  0
 34 61  1  0
 34 62  1  0
M  END
$$$$
