
     RDKit          3D

 68 74  0  0  0  0  0  0  0  0999 V2000
   -4.7627   -2.3076   -4.7504 C   0  0  0  0  0  0  0  0  0  0  0  0
   -3.9707   -2.3897   -3.4808 C   0  0  0  0  0  0  0  0  0  0  0  0
   -4.0633   -3.5034   -2.6233 C   0  0  0  0  0  0  0  0  0  0  0  0
   -5.1040   -4.8362   -2.9950 Cl  0  0  0  0  0  0  0  0  0  0  0  0
   -3.3096   -3.5886   -1.4354 C   0  0  0  0  0  0  0  0  0  0  0  0
   -2.4401   -2.5626   -1.0660 C   0  0  0  0  0  0  0  0  0  0  0  0
   -2.3429   -1.4616   -1.9005 C   0  0  0  0  0  0  0  0  0  0  0  0
   -3.0875   -1.3913   -3.0882 C   0  0  0  0  0  0  0  0  0  0  0  0
   -2.7782   -0.2109   -3.7654 N   0  0  0  0  0  0  0  0  0  0  0  0
   -1.8343    0.5532   -3.0739 C   0  0  0  0  0  0  0  0  0  0  0  0
   -1.3739    1.6150   -3.4681 O   0  0  0  0  0  0  0  0  0  0  0  0
   -1.4994   -0.2273   -1.7807 C   0  0  1  0  0  0  0  0  0  0  0  0
   -1.8635    0.5092   -0.5443 C   0  0  0  0  0  0  0  0  0  0  0  0
   -0.7063    0.9670    0.1043 C   0  0  0  0  0  0  0  0  0  0  0  0
   -1.0621    1.6137    1.2531 C   0  0  0  0  0  0  0  0  0  0  0  0
   -0.2631    2.0979    2.2022 O   0  0  0  0  0  0  0  0  0  0  0  0
   -2.4705    1.6166    1.2971 N   0  0  0  0  0  0  0  0  0  0  0  0
   -3.2719    2.2011    2.3206 C   0  0  0  0  0  0  0  0  0  0  0  0
   -4.4236    1.5417    2.7705 C   0  0  0  0  0  0  0  0  0  0  0  0
   -5.2050    2.1141    3.7755 C   0  0  0  0  0  0  0  0  0  0  0  0
   -4.8438    3.3421    4.3288 C   0  0  0  0  0  0  0  0  0  0  0  0
   -3.7000    4.0020    3.8802 C   0  0  0  0  0  0  0  0  0  0  0  0
   -2.9110    3.4346    2.8782 C   0  0  0  0  0  0  0  0  0  0  0  0
   -2.9556    0.9473    0.1550 C   0  0  0  0  0  0  0  0  0  0  0  0
   -4.2414    0.8479   -0.1798 O   0  0  0  0  0  0  0  0  0  0  0  0
    0.5007    0.5927   -0.6584 C   0  0  1  0  0  0  0  0  0  0  0  0
    1.6795   -0.0061    0.1100 C   0  0  0  0  0  0  0  0  0  0  0  0
    2.5788   -0.7832   -0.7696 N   0  0  0  0  0  0  0  0  0  0  0  0
    3.7375   -1.3613   -0.2943 C   0  0  0  0  0  0  0  0  0  0  0  0
    4.5677   -1.9117   -1.0079 O   0  0  0  0  0  0  0  0  0  0  0  0
    3.8444   -1.2495    1.0558 O   0  0  0  0  0  0  0  0  0  0  0  0
    5.0333   -1.7941    1.6361 C   0  0  0  0  0  0  0  0  0  0  0  0
    6.0483   -0.6983    1.8341 C   0  0  0  0  0  0  0  0  0  0  0  0
    5.9452    0.1807    2.9214 C   0  0  0  0  0  0  0  0  0  0  0  0
    6.8780    1.2048    3.0936 C   0  0  0  0  0  0  0  0  0  0  0  0
    7.9163    1.3647    2.1772 C   0  0  0  0  0  0  0  0  0  0  0  0
    8.0197    0.5055    1.0845 C   0  0  0  0  0  0  0  0  0  0  0  0
    7.0879   -0.5190    0.9107 C   0  0  0  0  0  0  0  0  0  0  0  0
    2.3315   -0.7253   -2.2161 C   0  0  0  0  0  0  0  0  0  0  0  0
    0.8335   -0.8694   -2.6089 C   0  0  0  0  0  0  0  0  0  0  0  0
   -0.0610   -0.4642   -1.5420 N   0  0  0  0  0  0  0  0  0  0  0  0
   -4.6677   -1.3344   -5.2395 H   0  0  0  0  0  0  0  0  0  0  0  0
   -4.4207   -3.0685   -5.4593 H   0  0  0  0  0  0  0  0  0  0  0  0
   -5.8290   -2.4519   -4.5483 H   0  0  0  0  0  0  0  0  0  0  0  0
   -3.4003   -4.4634   -0.7950 H   0  0  0  0  0  0  0  0  0  0  0  0
   -1.8544   -2.6241   -0.1537 H   0  0  0  0  0  0  0  0  0  0  0  0
   -3.1644    0.0893   -4.6467 H   0  0  0  0  0  0  0  0  0  0  0  0
   -0.7654    2.1747    3.0328 H   0  0  0  0  0  0  0  0  0  0  0  0
   -4.7040    0.5628    2.3848 H   0  0  0  0  0  0  0  0  0  0  0  0
   -6.0921    1.5976    4.1353 H   0  0  0  0  0  0  0  0  0  0  0  0
   -5.4556    3.7866    5.1104 H   0  0  0  0  0  0  0  0  0  0  0  0
   -3.4288    4.9658    4.3052 H   0  0  0  0  0  0  0  0  0  0  0  0
   -2.0495    3.9921    2.5142 H   0  0  0  0  0  0  0  0  0  0  0  0
   -4.7460    1.5388    0.2856 H   0  0  0  0  0  0  0  0  0  0  0  0
    0.8266    1.4513   -1.2614 H   0  0  0  0  0  0  0  0  0  0  0  0
    2.2649    0.7883    0.5887 H   0  0  0  0  0  0  0  0  0  0  0  0
    1.3373   -0.6811    0.9051 H   0  0  0  0  0  0  0  0  0  0  0  0
    4.7589   -2.2163    2.6101 H   0  0  0  0  0  0  0  0  0  0  0  0
    5.4453   -2.6291    1.0566 H   0  0  0  0  0  0  0  0  0  0  0  0
    5.1322    0.0740    3.6366 H   0  0  0  0  0  0  0  0  0  0  0  0
    6.7918    1.8809    3.9403 H   0  0  0  0  0  0  0  0  0  0  0  0
    8.6408    2.1635    2.3102 H   0  0  0  0  0  0  0  0  0  0  0  0
    8.8225    0.6350    0.3628 H   0  0  0  0  0  0  0  0  0  0  0  0
    7.1702   -1.1738    0.0444 H   0  0  0  0  0  0  0  0  0  0  0  0
    2.9241   -1.4825   -2.7405 H   0  0  0  0  0  0  0  0  0  0  0  0
    2.6983    0.2555   -2.5442 H   0  0  0  0  0  0  0  0  0  0  0  0
    0.6355   -1.9215   -2.8442 H   0  0  0  0  0  0  0  0  0  0  0  0
    0.6725   -0.2993   -3.5306 H   0  0  0  0  0  0  0  0  0  0  0  0
  1  2  1  0
  2  3  2  0
  3  4  1  0
  3  5  1  0
  5  6  2  0
  6  7  1  0
  7  8  2  0
  8  9  1  0
  9 10  1  0
 10 11  2  0
 10 12  1  0
 12 13  1  0
 13 14  1  0
 14 15  2  0
 15 16  1  0
 15 17  1  0
 17 18  1  0
 18 19  2  0
 19 20  1  0
 20 21  2  0
 21 22  1  0
 22 23  2  0
 17 24  1  0
 24 25  1  0
 14 26  1  0
 26 27  1  0
 27 28  1  0
 28 29  1  0
 29 30  2  0
 29 31  1  0
 31 32  1  0
 32 33  1  0
 33 34  2  0
 34 35  1  0
 35 36  2  0
 36 37  1  0
 37 38  2  0
 28 39  1  0
 39 40  1  0
 40 41  1  0
  8  2  1  0
 12 41  1  1
 12  7  1  0
 24 13  2  0
 41 26  1  0
 23 18  1  0
 38 33  1  0
  1 42  1  0
  1 43  1  0
  1 44  1  0
  5 45  1  0
  6 46  1  0
  9 47  1  0
 16 48  1  0
 19 49  1  0
 20 50  1  0
 21 51  1  0
 22 52  1  0
 23 53  1  0
 25 54  1  0
 26 55  1  6
 27 56  1  0
 27 57  1  0
 32 58  1  0
 32 59  1  0
 34 60  1  0
 35 61  1  0
 36 62  1  0
 37 63  1  0
 38 64  1  0
 39 65  1  0
 39 66  1  0
 40 67  1  0
 40 68  1  0
M  END
$$$$
