
     RDKit          3D

 61 64  0  0  0  0  0  0  0  0999 V2000
    7.3399    3.9017   -0.3327 C   0  0  0  0  0  0  0  0  0  0  0  0
    6.4762    3.5767    0.7556 O   0  0  0  0  0  0  0  0  0  0  0  0
    5.6089    2.5780    0.3872 C   0  0  0  0  0  0  0  0  0  0  0  0
    4.3172    2.9485    0.0148 C   0  0  0  0  0  0  0  0  0  0  0  0
    3.3909    1.9668   -0.3385 C   0  0  0  0  0  0  0  0  0  0  0  0
    3.7439    0.6121   -0.3009 C   0  0  0  0  0  0  0  0  0  0  0  0
    2.7530   -0.3160   -0.6803 N   0  0  0  0  0  0  0  0  0  0  0  0
    2.8203   -1.6983   -0.6323 C   0  0  0  0  0  0  0  0  0  0  0  0
    3.7562   -2.3648   -0.1972 O   0  0  0  0  0  0  0  0  0  0  0  0
    1.5958   -2.3859   -1.2122 C   0  0  0  0  0  0  0  0  0  0  0  0
    0.2160   -2.3737   -0.0348 S   0  0  0  0  0  0  0  0  0  0  0  0
   -0.6373   -0.9610   -0.5595 C   0  0  0  0  0  0  0  0  0  0  0  0
   -0.0415    0.1104   -1.0336 N   0  0  0  0  0  0  0  0  0  0  0  0
   -1.0061    0.9608   -1.4833 N   0  0  0  0  0  0  0  0  0  0  0  0
   -2.1865    0.4009   -1.2708 C   0  0  0  0  0  0  0  0  0  0  0  0
   -3.4953    1.0981   -1.4710 C   0  0  0  0  0  0  0  0  0  0  0  0
   -4.1951    1.4204   -0.1821 C   0  0  0  0  0  0  0  0  0  0  0  0
   -5.3723    0.8946    0.3254 C   0  0  0  0  0  0  0  0  0  0  0  0
   -5.6238    1.5092    1.5743 C   0  0  0  0  0  0  0  0  0  0  0  0
   -4.6050    2.4061    1.7994 C   0  0  0  0  0  0  0  0  0  0  0  0
   -3.7421    2.3525    0.7322 N   0  0  0  0  0  0  0  0  0  0  0  0
   -2.5364    3.1467    0.6283 C   0  0  0  0  0  0  0  0  0  0  0  0
   -2.0098   -0.8586   -0.7059 N   0  0  0  0  0  0  0  0  0  0  0  0
   -3.0021   -1.8241   -0.4017 C   0  0  0  0  0  0  0  0  0  0  0  0
   -3.9836   -2.1371   -1.3515 C   0  0  0  0  0  0  0  0  0  0  0  0
   -4.9486   -3.1058   -1.0619 C   0  0  0  0  0  0  0  0  0  0  0  0
   -4.9558   -3.7556    0.1783 C   0  0  0  0  0  0  0  0  0  0  0  0
   -5.9728   -4.8189    0.4802 C   0  0  0  0  0  0  0  0  0  0  0  0
   -3.9641   -3.4430    1.1194 C   0  0  0  0  0  0  0  0  0  0  0  0
   -2.9891   -2.4835    0.8336 C   0  0  0  0  0  0  0  0  0  0  0  0
    5.0402    0.2524    0.0926 C   0  0  0  0  0  0  0  0  0  0  0  0
    5.9815    1.2276    0.4492 C   0  0  0  0  0  0  0  0  0  0  0  0
    7.2628    0.9677    0.8668 O   0  0  0  0  0  0  0  0  0  0  0  0
    7.6765   -0.3933    0.8863 C   0  0  0  0  0  0  0  0  0  0  0  0
    8.1125    4.5801    0.0434 H   0  0  0  0  0  0  0  0  0  0  0  0
    6.7793    4.4237   -1.1171 H   0  0  0  0  0  0  0  0  0  0  0  0
    7.8400    3.0188   -0.7503 H   0  0  0  0  0  0  0  0  0  0  0  0
    4.0343    3.9970    0.0024 H   0  0  0  0  0  0  0  0  0  0  0  0
    2.3886    2.2728   -0.6309 H   0  0  0  0  0  0  0  0  0  0  0  0
    1.8521    0.0821   -0.9479 H   0  0  0  0  0  0  0  0  0  0  0  0
    1.3233   -1.9397   -2.1743 H   0  0  0  0  0  0  0  0  0  0  0  0
    1.8597   -3.4305   -1.4120 H   0  0  0  0  0  0  0  0  0  0  0  0
   -3.3183    2.0326   -2.0196 H   0  0  0  0  0  0  0  0  0  0  0  0
   -4.1527    0.5124   -2.1212 H   0  0  0  0  0  0  0  0  0  0  0  0
   -5.9847    0.1363   -0.1506 H   0  0  0  0  0  0  0  0  0  0  0  0
   -6.4592    1.3215    2.2370 H   0  0  0  0  0  0  0  0  0  0  0  0
   -4.4242    3.0720    2.6348 H   0  0  0  0  0  0  0  0  0  0  0  0
   -2.6036    3.9932    1.3162 H   0  0  0  0  0  0  0  0  0  0  0  0
   -2.4358    3.5229   -0.3926 H   0  0  0  0  0  0  0  0  0  0  0  0
   -1.6894    2.5167    0.9016 H   0  0  0  0  0  0  0  0  0  0  0  0
   -3.9891   -1.6854   -2.3398 H   0  0  0  0  0  0  0  0  0  0  0  0
   -5.6924   -3.3586   -1.8177 H   0  0  0  0  0  0  0  0  0  0  0  0
   -6.8641   -4.7054   -0.1482 H   0  0  0  0  0  0  0  0  0  0  0  0
   -6.3000   -4.7555    1.5253 H   0  0  0  0  0  0  0  0  0  0  0  0
   -5.5416   -5.8097    0.3006 H   0  0  0  0  0  0  0  0  0  0  0  0
   -3.9479   -3.9443    2.0857 H   0  0  0  0  0  0  0  0  0  0  0  0
   -2.2562   -2.2466    1.6047 H   0  0  0  0  0  0  0  0  0  0  0  0
    5.3157   -0.7931    0.1280 H   0  0  0  0  0  0  0  0  0  0  0  0
    7.0688   -0.9836    1.5792 H   0  0  0  0  0  0  0  0  0  0  0  0
    7.6630   -0.8170   -0.1207 H   0  0  0  0  0  0  0  0  0  0  0  0
    8.7095   -0.4246    1.2468 H   0  0  0  0  0  0  0  0  0  0  0  0
  1  2  1  0
  2  3  1  0
  3  4  2  0
  4  5  1  0
  5  6  2  0
  6  7  1  0
  7  8  1  0
  8  9  2  0
  8 10  1  0
 10 11  1  0
 11 12  1  0
 12 13  2  0
 13 14  1  0
 14 15  2  0
 15 16  1  0
 16 17  1  0
 17 18  2  0
 18 19  1  0
 19 20  2  0
 20 21  1  0
 21 22  1  0
 15 23  1  0
 23 24  1  0
 24 25  2  0
 25 26  1  0
 26 27  2  0
 27 28  1  0
 27 29  1  0
 29 30  2  0
  6 31  1  0
 31 32  2  0
 32 33  1  0
 33 34  1  0
 32  3  1  0
 23 12  1  0
 30 24  1  0
 21 17  1  0
  1 35  1  0
  1 36  1  0
  1 37  1  0
  4 38  1  0
  5 39  1  0
  7 40  1  0
 10 41  1  0
 10 42  1  0
 16 43  1  0
 16 44  1  0
 18 45  1  0
 19 46  1  0
 20 47  1  0
 22 48  1  0
 22 49  1  0
 22 50  1  0
 25 51  1  0
 26 52  1  0
 28 53  1  0
 28 54  1  0
 28 55  1  0
 29 56  1  0
 30 57  1  0
 31 58  1  0
 34 59  1  0
 34 60  1  0
 34 61  1  0
M  END
$$$$
