
     RDKit          3D

 39 41  0  0  0  0  0  0  0  0999 V2000
   -4.9411   -0.5566   -0.4802 C   0  0  0  0  0  0  0  0  0  0  0  0
   -3.7261   -1.4342   -0.2124 C   0  0  0  0  0  0  0  0  0  0  0  0
   -2.5748   -0.6468    0.2214 N   0  0  0  0  0  0  0  0  0  0  0  0
   -2.4466   -0.4057    1.5810 C   0  0  0  0  0  0  0  0  0  0  0  0
   -3.2447   -0.8047    2.4266 O   0  0  0  0  0  0  0  0  0  0  0  0
   -1.2816    0.3819    2.0074 C   0  0  0  0  0  0  0  0  0  0  0  0
   -1.0740    0.6093    3.3779 C   0  0  0  0  0  0  0  0  0  0  0  0
    0.0208    1.3532    3.8047 C   0  0  0  0  0  0  0  0  0  0  0  0
    0.9030    1.8688    2.8633 C   0  0  0  0  0  0  0  0  0  0  0  0
    0.6901    1.6413    1.4981 C   0  0  0  0  0  0  0  0  0  0  0  0
   -0.4079    0.8906    1.0473 C   0  0  0  0  0  0  0  0  0  0  0  0
   -0.6605    0.6427   -0.3321 N   0  0  0  0  0  0  0  0  0  0  0  0
    0.2254    1.1862   -1.3680 C   0  0  0  0  0  0  0  0  0  0  0  0
    1.5175    0.4080   -1.5446 C   0  0  0  0  0  0  0  0  0  0  0  0
    2.7466    1.0868   -1.5950 C   0  0  0  0  0  0  0  0  0  0  0  0
    3.9428    0.3871   -1.7766 C   0  0  0  0  0  0  0  0  0  0  0  0
    3.9131   -1.0047   -1.9241 C   0  0  0  0  0  0  0  0  0  0  0  0
    5.1673   -1.7436   -2.1142 N   0  0  0  0  0  4  0  0  0  0  0  0
    5.0987   -2.9735   -2.2497 O   0  0  0  0  0  0  0  0  0  0  0  0
    6.2226   -1.0933   -2.1258 O   0  0  0  0  0  1  0  0  0  0  0  0
    2.6967   -1.6953   -1.8988 C   0  0  0  0  0  0  0  0  0  0  0  0
    1.5062   -0.9863   -1.7163 C   0  0  0  0  0  0  0  0  0  0  0  0
   -1.7458   -0.1188   -0.7594 C   0  0  0  0  0  0  0  0  0  0  0  0
   -1.9597   -0.3213   -1.9577 O   0  0  0  0  0  0  0  0  0  0  0  0
   -5.2376   -0.0079    0.4196 H   0  0  0  0  0  0  0  0  0  0  0  0
   -5.7887   -1.1696   -0.8017 H   0  0  0  0  0  0  0  0  0  0  0  0
   -4.7330    0.1778   -1.2651 H   0  0  0  0  0  0  0  0  0  0  0  0
   -3.4712   -1.9923   -1.1205 H   0  0  0  0  0  0  0  0  0  0  0  0
   -3.9754   -2.1753    0.5557 H   0  0  0  0  0  0  0  0  0  0  0  0
   -1.7671    0.2048    4.1136 H   0  0  0  0  0  0  0  0  0  0  0  0
    0.1832    1.5283    4.8653 H   0  0  0  0  0  0  0  0  0  0  0  0
    1.7627    2.4510    3.1884 H   0  0  0  0  0  0  0  0  0  0  0  0
    1.4145    2.0703    0.8149 H   0  0  0  0  0  0  0  0  0  0  0  0
   -0.2805    1.2016   -2.3411 H   0  0  0  0  0  0  0  0  0  0  0  0
    0.4214    2.2412   -1.1406 H   0  0  0  0  0  0  0  0  0  0  0  0
    2.7831    2.1703   -1.4938 H   0  0  0  0  0  0  0  0  0  0  0  0
    4.8808    0.9382   -1.8053 H   0  0  0  0  0  0  0  0  0  0  0  0
    2.6549   -2.7755   -2.0242 H   0  0  0  0  0  0  0  0  0  0  0  0
    0.5650   -1.5341   -1.7176 H   0  0  0  0  0  0  0  0  0  0  0  0
  1  2  1  0
  2  3  1  0
  3  4  1  0
  4  5  2  0
  4  6  1  0
  6  7  2  0
  7  8  1  0
  8  9  2  0
  9 10  1  0
 10 11  2  0
 11 12  1  0
 12 13  1  0
 13 14  1  0
 14 15  2  0
 15 16  1  0
 16 17  2  0
 17 18  1  0
 18 19  2  0
 18 20  1  0
 17 21  1  0
 21 22  2  0
 12 23  1  0
 23 24  2  0
 23  3  1  0
 11  6  1  0
 22 14  1  0
  1 25  1  0
  1 26  1  0
  1 27  1  0
  2 28  1  0
  2 29  1  0
  7 30  1  0
  8 31  1  0
  9 32  1  0
 10 33  1  0
 13 34  1  0
 13 35  1  0
 15 36  1  0
 16 37  1  0
 21 38  1  0
 22 39  1  0
M  CHG  2  18   1  20  -1
M  END
$$$$
