
     RDKit          3D

 49 53  0  0  0  0  0  0  0  0999 V2000
    6.3845   -1.2547   -0.4737 C   0  0  0  0  0  0  0  0  0  0  0  0
    5.4397   -0.2629    0.1266 C   0  0  0  0  0  0  0  0  0  0  0  0
    5.8862    1.3846    0.1785 S   0  0  0  0  0  0  0  0  0  0  0  0
    4.4290    1.8294    0.9240 C   0  0  0  0  0  0  0  0  0  0  0  0
    4.2040    3.1219    1.2203 N   0  0  0  0  0  0  0  0  0  0  0  0
    3.0206    3.3191    1.7959 C   0  0  0  0  0  0  0  0  0  0  0  0
    2.0939    2.3970    2.0768 N   0  0  0  0  0  0  0  0  0  0  0  0
    2.3669    1.1097    1.7755 C   0  0  0  0  0  0  0  0  0  0  0  0
    1.1342   -0.0826    2.1911 S   0  0  0  0  0  0  0  0  0  0  0  0
   -0.2171    0.5064    1.0858 C   0  0  0  0  0  0  0  0  0  0  0  0
   -1.2421    1.2327    1.9539 C   0  0  0  0  0  0  0  0  0  0  0  0
   -0.8084   -0.7022    0.3176 C   0  0  0  0  0  0  0  0  0  0  0  0
   -0.2070   -1.7670    0.1631 O   0  0  0  0  0  0  0  0  0  0  0  0
   -2.0735   -0.4636   -0.2390 N   0  0  0  0  0  0  0  0  0  0  0  0
   -2.1985    0.4175   -1.3708 C   0  0  0  0  0  0  0  0  0  0  0  0
   -1.0374    0.7940   -2.0853 C   0  0  0  0  0  0  0  0  0  0  0  0
   -1.0895    1.6628   -3.1780 C   0  0  0  0  0  0  0  0  0  0  0  0
   -2.3093    2.1723   -3.5942 C   0  0  0  0  0  0  0  0  0  0  0  0
   -3.4715    1.7934   -2.9271 C   0  0  0  0  0  0  0  0  0  0  0  0
   -3.4269    0.9110   -1.8323 C   0  0  0  0  0  0  0  0  0  0  0  0
   -4.9806    0.5126   -1.0925 S   0  0  0  0  0  0  0  0  0  0  0  0
   -4.5333   -0.8946   -0.1129 C   0  0  0  0  0  0  0  0  0  0  0  0
   -5.6048   -1.6645    0.3787 C   0  0  0  0  0  0  0  0  0  0  0  0
   -5.3843   -2.7446    1.2290 C   0  0  0  0  0  0  0  0  0  0  0  0
   -4.0884   -3.0528    1.6094 C   0  0  0  0  0  0  0  0  0  0  0  0
   -3.0195   -2.2902    1.1267 C   0  0  0  0  0  0  0  0  0  0  0  0
   -3.2102   -1.2088    0.2357 C   0  0  0  0  0  0  0  0  0  0  0  0
    3.5794    0.7546    1.1566 C   0  0  0  0  0  0  0  0  0  0  0  0
    4.1819   -0.4878    0.6763 C   0  0  0  0  0  0  0  0  0  0  0  0
    3.5398   -1.8426    0.7499 C   0  0  0  0  0  0  0  0  0  0  0  0
    5.9281   -1.7281   -1.3514 H   0  0  0  0  0  0  0  0  0  0  0  0
    7.3287   -0.7980   -0.7888 H   0  0  0  0  0  0  0  0  0  0  0  0
    6.6231   -2.0381    0.2531 H   0  0  0  0  0  0  0  0  0  0  0  0
    2.7800    4.3439    2.0600 H   0  0  0  0  0  0  0  0  0  0  0  0
    0.1977    1.2006    0.3479 H   0  0  0  0  0  0  0  0  0  0  0  0
   -1.7282    0.5538    2.6689 H   0  0  0  0  0  0  0  0  0  0  0  0
   -0.7865    2.0546    2.5167 H   0  0  0  0  0  0  0  0  0  0  0  0
   -2.0334    1.6783    1.3404 H   0  0  0  0  0  0  0  0  0  0  0  0
   -0.0599    0.3872   -1.8346 H   0  0  0  0  0  0  0  0  0  0  0  0
   -0.1760    1.9281   -3.7079 H   0  0  0  0  0  0  0  0  0  0  0  0
   -2.3596    2.8516   -4.4387 H   0  0  0  0  0  0  0  0  0  0  0  0
   -4.4236    2.1912   -3.2741 H   0  0  0  0  0  0  0  0  0  0  0  0
   -6.6300   -1.4180    0.1065 H   0  0  0  0  0  0  0  0  0  0  0  0
   -6.2209   -3.3339    1.5943 H   0  0  0  0  0  0  0  0  0  0  0  0
   -3.8985   -3.8908    2.2761 H   0  0  0  0  0  0  0  0  0  0  0  0
   -2.0263   -2.5935    1.4523 H   0  0  0  0  0  0  0  0  0  0  0  0
    4.1805   -2.6225    0.3270 H   0  0  0  0  0  0  0  0  0  0  0  0
    3.3418   -2.1176    1.7912 H   0  0  0  0  0  0  0  0  0  0  0  0
    2.6055   -1.8490    0.1809 H   0  0  0  0  0  0  0  0  0  0  0  0
  1  2  1  0
  2  3  1  0
  3  4  1  0
  4  5  2  0
  5  6  1  0
  6  7  2  0
  7  8  1  0
  8  9  1  0
  9 10  1  0
 10 11  1  0
 10 12  1  0
 12 13  2  0
 12 14  1  0
 14 15  1  0
 15 16  2  0
 16 17  1  0
 17 18  2  0
 18 19  1  0
 19 20  2  0
 20 21  1  0
 21 22  1  0
 22 23  2  0
 23 24  1  0
 24 25  2  0
 25 26  1  0
 26 27  2  0
  8 28  2  0
 28 29  1  0
 29 30  1  0
 29  2  2  0
 28  4  1  0
 27 14  1  0
 20 15  1  0
 27 22  1  0
  1 31  1  0
  1 32  1  0
  1 33  1  0
  6 34  1  0
 10 35  1  0
 11 36  1  0
 11 37  1  0
 11 38  1  0
 16 39  1  0
 17 40  1  0
 18 41  1  0
 19 42  1  0
 23 43  1  0
 24 44  1  0
 25 45  1  0
 26 46  1  0
 30 47  1  0
 30 48  1  0
 30 49  1  0
M  END
$$$$
