
     RDKit          3D

 52 51  0  0  0  0  0  0  0  0999 V2000
   -7.5139    2.3636   -0.2175 C   0  0  0  0  0  0  0  0  0  0  0  0
   -6.3873    2.0875    0.0961 C   0  0  0  0  0  0  0  0  0  0  0  0
   -5.0068    1.7702    0.4755 C   0  0  0  0  0  0  0  0  0  0  0  0
   -4.7861    0.2577    0.6623 N   0  0  0  0  0  4  0  0  0  0  0  0
   -5.7621   -0.2802    1.7179 C   0  0  0  0  0  0  0  0  0  0  0  0
   -5.0328   -0.4867   -0.6460 C   0  0  0  0  0  0  0  0  0  0  0  0
   -3.3620   -0.0146    1.1925 C   0  0  0  0  0  0  0  0  0  0  0  0
   -2.2452    0.4308    0.2447 C   0  0  0  0  0  0  0  0  0  0  0  0
   -0.8738    0.0820    0.8352 C   0  0  0  0  0  0  0  0  0  0  0  0
    0.3025    0.6083    0.0056 C   0  0  0  0  0  0  0  0  0  0  0  0
    0.4314   -0.0669   -1.3621 C   0  0  0  0  0  0  0  0  0  0  0  0
    1.6059    0.4607   -2.1938 C   0  0  0  0  0  0  0  0  0  0  0  0
    2.9977    0.2818   -1.5778 C   0  0  0  0  0  0  0  0  0  0  0  0
    3.3485   -1.1794   -1.2873 C   0  0  0  0  0  0  0  0  0  0  0  0
    4.8112   -1.3815   -0.8791 C   0  0  0  0  0  0  0  0  0  0  0  0
    5.1650   -0.7236    0.4565 C   0  0  0  0  0  0  0  0  0  0  0  0
    6.6005   -1.0498    0.8709 C   0  0  0  0  0  0  0  0  0  0  0  0
    6.9596   -0.3974    2.1965 C   0  0  0  0  0  0  0  0  0  0  0  0
   -8.5114    2.6229   -0.4975 H   0  0  0  0  0  0  0  0  0  0  0  0
   -4.7378    2.2548    1.4204 H   0  0  0  0  0  0  0  0  0  0  0  0
   -4.3223    2.1101   -0.3073 H   0  0  0  0  0  0  0  0  0  0  0  0
   -6.7866   -0.1894    1.3476 H   0  0  0  0  0  0  0  0  0  0  0  0
   -5.5306   -1.3356    1.8922 H   0  0  0  0  0  0  0  0  0  0  0  0
   -5.6292    0.2973    2.6376 H   0  0  0  0  0  0  0  0  0  0  0  0
   -4.4568   -0.0078   -1.4420 H   0  0  0  0  0  0  0  0  0  0  0  0
   -4.7208   -1.5270   -0.5138 H   0  0  0  0  0  0  0  0  0  0  0  0
   -6.0996   -0.4479   -0.8845 H   0  0  0  0  0  0  0  0  0  0  0  0
   -3.2784    0.5036    2.1556 H   0  0  0  0  0  0  0  0  0  0  0  0
   -3.2935   -1.0942    1.3748 H   0  0  0  0  0  0  0  0  0  0  0  0
   -2.2878    1.5116    0.0775 H   0  0  0  0  0  0  0  0  0  0  0  0
   -2.3552   -0.0616   -0.7252 H   0  0  0  0  0  0  0  0  0  0  0  0
   -0.7994    0.5135    1.8414 H   0  0  0  0  0  0  0  0  0  0  0  0
   -0.7850   -1.0052    0.9504 H   0  0  0  0  0  0  0  0  0  0  0  0
    1.2162    0.4370    0.5857 H   0  0  0  0  0  0  0  0  0  0  0  0
    0.2063    1.6930   -0.1232 H   0  0  0  0  0  0  0  0  0  0  0  0
   -0.4820    0.1032   -1.9432 H   0  0  0  0  0  0  0  0  0  0  0  0
    0.5180   -1.1520   -1.2351 H   0  0  0  0  0  0  0  0  0  0  0  0
    1.5867   -0.0376   -3.1713 H   0  0  0  0  0  0  0  0  0  0  0  0
    1.4493    1.5286   -2.3912 H   0  0  0  0  0  0  0  0  0  0  0  0
    3.0737    0.8806   -0.6643 H   0  0  0  0  0  0  0  0  0  0  0  0
    3.7335    0.6950   -2.2791 H   0  0  0  0  0  0  0  0  0  0  0  0
    3.1581   -1.7793   -2.1857 H   0  0  0  0  0  0  0  0  0  0  0  0
    2.6994   -1.5742   -0.4974 H   0  0  0  0  0  0  0  0  0  0  0  0
    5.4699   -0.9978   -1.6676 H   0  0  0  0  0  0  0  0  0  0  0  0
    4.9997   -2.4600   -0.8081 H   0  0  0  0  0  0  0  0  0  0  0  0
    4.4714   -1.0696    1.2323 H   0  0  0  0  0  0  0  0  0  0  0  0
    5.0526    0.3637    0.3813 H   0  0  0  0  0  0  0  0  0  0  0  0
    6.7256   -2.1352    0.9595 H   0  0  0  0  0  0  0  0  0  0  0  0
    7.2982   -0.7043    0.0992 H   0  0  0  0  0  0  0  0  0  0  0  0
    6.2998   -0.7468    2.9970 H   0  0  0  0  0  0  0  0  0  0  0  0
    7.9895   -0.6436    2.4734 H   0  0  0  0  0  0  0  0  0  0  0  0
    6.8761    0.6922    2.1330 H   0  0  0  0  0  0  0  0  0  0  0  0
  1  2  3  0
  2  3  1  0
  3  4  1  0
  4  5  1  0
  4  6  1  0
  4  7  1  0
  7  8  1  0
  8  9  1  0
  9 10  1  0
 10 11  1  0
 11 12  1  0
 12 13  1  0
 13 14  1  0
 14 15  1  0
 15 16  1  0
 16 17  1  0
 17 18  1  0
  1 19  1  0
  3 20  1  0
  3 21  1  0
  5 22  1  0
  5 23  1  0
  5 24  1  0
  6 25  1  0
  6 26  1  0
  6 27  1  0
  7 28  1  0
  7 29  1  0
  8 30  1  0
  8 31  1  0
  9 32  1  0
  9 33  1  0
 10 34  1  0
 10 35  1  0
 11 36  1  0
 11 37  1  0
 12 38  1  0
 12 39  1  0
 13 40  1  0
 13 41  1  0
 14 42  1  0
 14 43  1  0
 15 44  1  0
 15 45  1  0
 16 46  1  0
 16 47  1  0
 17 48  1  0
 17 49  1  0
 18 50  1  0
 18 51  1  0
 18 52  1  0
M  CHG  1   4   1
M  END
$$$$
