
     RDKit          3D

 40 42  0  0  0  0  0  0  0  0999 V2000
   -4.9842   -0.9471    0.8827 C   0  0  0  0  0  0  0  0  0  0  0  0
   -5.1898   -0.2157   -0.2220 C   0  0  0  0  0  0  0  0  0  0  0  0
   -4.2559    0.7698   -0.8724 C   0  0  0  0  0  0  0  0  0  0  0  0
   -2.9494    0.9150   -0.2344 N   0  0  0  0  0  0  0  0  0  0  0  0
   -1.8266    0.2136   -0.6074 C   0  0  0  0  0  0  0  0  0  0  0  0
   -0.7763    0.6347    0.1786 C   0  0  0  0  0  0  0  0  0  0  0  0
    0.5696    0.1512    0.1237 C   0  0  0  0  0  0  0  0  0  0  0  0
    1.0509   -0.7494   -0.7507 C   0  0  0  0  0  0  0  0  0  0  0  0
    2.4439   -1.2082   -0.7596 C   0  0  0  0  0  0  0  0  0  0  0  0
    3.1032   -1.3602   -1.9777 C   0  0  0  0  0  0  0  0  0  0  0  0
    4.4161   -1.8172   -1.9989 C   0  0  0  0  0  0  0  0  0  0  0  0
    5.0571   -2.1235   -0.8490 N   0  0  0  0  0  4  0  0  0  0  0  0
    6.4441   -2.6163   -0.8970 C   0  0  0  0  0  0  0  0  0  0  0  0
    4.4296   -2.0084    0.3426 C   0  0  0  0  0  0  0  0  0  0  0  0
    3.1180   -1.5525    0.4111 C   0  0  0  0  0  0  0  0  0  0  0  0
   -1.2813    1.6386    1.0651 C   0  0  0  0  0  0  0  0  0  0  0  0
   -0.7099    2.4342    2.0840 C   0  0  0  0  0  0  0  0  0  0  0  0
   -1.5057    3.3447    2.7873 C   0  0  0  0  0  0  0  0  0  0  0  0
   -2.8584    3.4732    2.4940 C   0  0  0  0  0  0  0  0  0  0  0  0
   -3.4514    2.7017    1.4916 C   0  0  0  0  0  0  0  0  0  0  0  0
   -2.6442    1.7934    0.7864 C   0  0  0  0  0  0  0  0  0  0  0  0
   -5.7517   -1.6226    1.2499 H   0  0  0  0  0  0  0  0  0  0  0  0
   -4.0635   -0.8926    1.4562 H   0  0  0  0  0  0  0  0  0  0  0  0
   -6.1475   -0.3288   -0.7285 H   0  0  0  0  0  0  0  0  0  0  0  0
   -4.0734    0.4647   -1.9097 H   0  0  0  0  0  0  0  0  0  0  0  0
   -4.7203    1.7612   -0.9071 H   0  0  0  0  0  0  0  0  0  0  0  0
   -1.8877   -0.5259   -1.3942 H   0  0  0  0  0  0  0  0  0  0  0  0
    1.2458    0.5773    0.8614 H   0  0  0  0  0  0  0  0  0  0  0  0
    0.4068   -1.1677   -1.5208 H   0  0  0  0  0  0  0  0  0  0  0  0
    2.6042   -1.1156   -2.9140 H   0  0  0  0  0  0  0  0  0  0  0  0
    4.9604   -1.9435   -2.9306 H   0  0  0  0  0  0  0  0  0  0  0  0
    6.4018   -3.7047   -0.9842 H   0  0  0  0  0  0  0  0  0  0  0  0
    6.9515   -2.1754   -1.7590 H   0  0  0  0  0  0  0  0  0  0  0  0
    6.9620   -2.3182    0.0183 H   0  0  0  0  0  0  0  0  0  0  0  0
    4.9825   -2.2889    1.2348 H   0  0  0  0  0  0  0  0  0  0  0  0
    2.6266   -1.4816    1.3800 H   0  0  0  0  0  0  0  0  0  0  0  0
    0.3438    2.3476    2.3287 H   0  0  0  0  0  0  0  0  0  0  0  0
   -1.0637    3.9552    3.5709 H   0  0  0  0  0  0  0  0  0  0  0  0
   -3.4659    4.1822    3.0524 H   0  0  0  0  0  0  0  0  0  0  0  0
   -4.5107    2.8060    1.2780 H   0  0  0  0  0  0  0  0  0  0  0  0
  1  2  2  0
  2  3  1  0
  3  4  1  0
  4  5  1  0
  5  6  2  0
  6  7  1  0
  7  8  2  3
  8  9  1  0
  9 10  2  0
 10 11  1  0
 11 12  2  0
 12 13  1  0
 12 14  1  0
 14 15  2  0
  6 16  1  0
 16 17  2  0
 17 18  1  0
 18 19  2  0
 19 20  1  0
 20 21  2  0
 21  4  1  0
 15  9  1  0
 21 16  1  0
  1 22  1  0
  1 23  1  0
  2 24  1  0
  3 25  1  0
  3 26  1  0
  5 27  1  0
  7 28  1  0
  8 29  1  0
 10 30  1  0
 11 31  1  0
 13 32  1  0
 13 33  1  0
 13 34  1  0
 14 35  1  0
 15 36  1  0
 17 37  1  0
 18 38  1  0
 19 39  1  0
 20 40  1  0
M  CHG  1  12   1
M  END
$$$$
