
     RDKit          3D

 50 53  0  0  0  0  0  0  0  0999 V2000
   -3.6023    2.1853   -2.6976 C   0  0  0  0  0  0  0  0  0  0  0  0
   -4.0167    0.8016   -2.5869 N   0  0  0  0  0  0  0  0  0  0  0  0
   -4.1658   -0.0395   -3.6604 C   0  0  0  0  0  0  0  0  0  0  0  0
   -4.5730   -1.2668   -3.1929 C   0  0  0  0  0  0  0  0  0  0  0  0
   -4.6683   -1.1679   -1.7871 C   0  0  0  0  0  0  0  0  0  0  0  0
   -4.3084    0.1190   -1.4232 C   0  0  0  0  0  0  0  0  0  0  0  0
   -4.2337    0.7288   -0.0539 C   0  0  0  0  0  0  0  0  0  0  0  0
   -2.8315    1.0216    0.3713 C   0  0  0  0  0  0  0  0  0  0  0  0
   -2.3126    2.2358    0.4113 N   0  0  0  0  0  0  0  0  0  0  0  0
   -0.9725    2.1235    0.6425 N   0  0  0  0  0  0  0  0  0  0  0  0
   -0.6885    0.8473    0.7615 C   0  0  0  0  0  0  0  0  0  0  0  0
    0.8788    0.2401    1.1934 S   0  0  0  0  0  0  0  0  0  0  0  0
    1.6754    1.7742    1.7561 C   0  0  0  0  0  0  0  0  0  0  0  0
    3.1072    1.4815    2.1737 C   0  0  0  0  0  0  0  0  0  0  0  0
    3.4304    1.4825    3.3581 O   0  0  0  0  0  0  0  0  0  0  0  0
    3.9428    1.2478    1.0907 N   0  0  0  0  0  0  0  0  0  0  0  0
    5.3265    0.9809    1.1107 C   0  0  0  0  0  0  0  0  0  0  0  0
    5.9436    0.7176   -0.1198 C   0  0  0  0  0  0  0  0  0  0  0  0
    7.3127    0.4466   -0.1888 C   0  0  0  0  0  0  0  0  0  0  0  0
    8.0791    0.4381    0.9729 C   0  0  0  0  0  0  0  0  0  0  0  0
    7.4754    0.7008    2.2000 C   0  0  0  0  0  0  0  0  0  0  0  0
    6.1047    0.9716    2.2691 C   0  0  0  0  0  0  0  0  0  0  0  0
   -1.8354    0.0827    0.6233 N   0  0  0  0  0  0  0  0  0  0  0  0
   -1.9770   -1.3270    0.7088 C   0  0  0  0  0  0  0  0  0  0  0  0
   -1.0877   -2.1677    0.0241 C   0  0  0  0  0  0  0  0  0  0  0  0
   -1.2412   -3.5534    0.1031 C   0  0  0  0  0  0  0  0  0  0  0  0
   -2.2716   -4.0898    0.8657 C   0  0  0  0  0  0  0  0  0  0  0  0
   -2.4154   -5.4191    0.9394 F   0  0  0  0  0  0  0  0  0  0  0  0
   -3.1545   -3.2669    1.5549 C   0  0  0  0  0  0  0  0  0  0  0  0
   -3.0109   -1.8799    1.4783 C   0  0  0  0  0  0  0  0  0  0  0  0
   -3.7479    2.5232   -3.7271 H   0  0  0  0  0  0  0  0  0  0  0  0
   -2.5445    2.2470   -2.4331 H   0  0  0  0  0  0  0  0  0  0  0  0
   -4.2125    2.7978   -2.0305 H   0  0  0  0  0  0  0  0  0  0  0  0
   -3.9753    0.3012   -4.6700 H   0  0  0  0  0  0  0  0  0  0  0  0
   -4.7801   -2.1384   -3.8000 H   0  0  0  0  0  0  0  0  0  0  0  0
   -4.9641   -1.9585   -1.1089 H   0  0  0  0  0  0  0  0  0  0  0  0
   -4.8084    1.6641   -0.0510 H   0  0  0  0  0  0  0  0  0  0  0  0
   -4.7401    0.0886    0.6737 H   0  0  0  0  0  0  0  0  0  0  0  0
    1.6836    2.5249    0.9585 H   0  0  0  0  0  0  0  0  0  0  0  0
    1.1354    2.1869    2.6146 H   0  0  0  0  0  0  0  0  0  0  0  0
    3.4985    1.2141    0.1812 H   0  0  0  0  0  0  0  0  0  0  0  0
    5.3695    0.7175   -1.0423 H   0  0  0  0  0  0  0  0  0  0  0  0
    7.7795    0.2424   -1.1488 H   0  0  0  0  0  0  0  0  0  0  0  0
    9.1442    0.2279    0.9242 H   0  0  0  0  0  0  0  0  0  0  0  0
    8.0687    0.6963    3.1110 H   0  0  0  0  0  0  0  0  0  0  0  0
    5.6780    1.1732    3.2464 H   0  0  0  0  0  0  0  0  0  0  0  0
   -0.2977   -1.7704   -0.6089 H   0  0  0  0  0  0  0  0  0  0  0  0
   -0.5684   -4.2172   -0.4311 H   0  0  0  0  0  0  0  0  0  0  0  0
   -3.9424   -3.7119    2.1547 H   0  0  0  0  0  0  0  0  0  0  0  0
   -3.6853   -1.2582    2.0613 H   0  0  0  0  0  0  0  0  0  0  0  0
  1  2  1  0
  2  3  1  0
  3  4  2  0
  4  5  1  0
  5  6  2  0
  6  7  1  0
  7  8  1  0
  8  9  2  0
  9 10  1  0
 10 11  2  0
 11 12  1  0
 12 13  1  0
 13 14  1  0
 14 15  2  0
 14 16  1  0
 16 17  1  0
 17 18  2  0
 18 19  1  0
 19 20  2  0
 20 21  1  0
 21 22  2  0
 11 23  1  0
 23 24  1  0
 24 25  2  0
 25 26  1  0
 26 27  2  0
 27 28  1  0
 27 29  1  0
 29 30  2  0
  6  2  1  0
 23  8  1  0
 30 24  1  0
 22 17  1  0
  1 31  1  0
  1 32  1  0
  1 33  1  0
  3 34  1  0
  4 35  1  0
  5 36  1  0
  7 37  1  0
  7 38  1  0
 13 39  1  0
 13 40  1  0
 16 41  1  0
 18 42  1  0
 19 43  1  0
 20 44  1  0
 21 45  1  0
 22 46  1  0
 25 47  1  0
 26 48  1  0
 29 49  1  0
 30 50  1  0
M  END
$$$$
