
     RDKit          3D

 56 59  0  0  0  0  0  0  0  0999 V2000
    6.1676    4.4275    1.8909 C   0  0  0  0  0  0  0  0  0  0  0  0
    5.4027    3.1172    1.9363 C   0  0  0  0  0  0  0  0  0  0  0  0
    4.9018    2.8523    0.6269 O   0  0  0  0  0  0  0  0  0  0  0  0
    4.1393    1.7287    0.4694 C   0  0  0  0  0  0  0  0  0  0  0  0
    3.6158    1.5508   -0.8131 C   0  0  0  0  0  0  0  0  0  0  0  0
    2.8238    0.4391   -1.1147 C   0  0  0  0  0  0  0  0  0  0  0  0
    2.5565   -0.5222   -0.1345 C   0  0  0  0  0  0  0  0  0  0  0  0
    1.7410   -1.6956   -0.4332 C   0  0  0  0  0  0  0  0  0  0  0  0
    0.3880   -1.7696   -0.7586 C   0  0  0  0  0  0  0  0  0  0  0  0
   -0.5587   -0.6970   -1.0612 C   0  0  0  0  0  0  0  0  0  0  0  0
   -0.2080    0.4489   -1.3214 O   0  0  0  0  0  0  0  0  0  0  0  0
   -1.8736   -1.1390   -1.0191 N   0  0  0  0  0  0  0  0  0  0  0  0
   -2.9072   -0.2859   -1.2624 N   0  0  0  0  0  0  0  0  0  0  0  0
   -4.1215   -0.7115   -1.0728 C   0  0  0  0  0  0  0  0  0  0  0  0
   -4.4867   -2.1062   -0.6092 C   0  0  0  0  0  0  0  0  0  0  0  0
   -5.2365    0.2274   -1.3509 C   0  0  0  0  0  0  0  0  0  0  0  0
   -5.2507    0.8973   -2.5807 C   0  0  0  0  0  0  0  0  0  0  0  0
   -6.2926    1.7754   -2.8837 C   0  0  0  0  0  0  0  0  0  0  0  0
   -7.3186    1.9882   -1.9607 C   0  0  0  0  0  0  0  0  0  0  0  0
   -7.2983    1.3351   -0.7272 C   0  0  0  0  0  0  0  0  0  0  0  0
   -6.2436    0.4751   -0.4128 C   0  0  0  0  0  0  0  0  0  0  0  0
   -6.2368   -0.1264    0.8173 O   0  0  0  0  0  0  0  0  0  0  0  0
   -5.6062    0.7336    1.7720 C   0  0  0  0  0  0  0  0  0  0  0  0
   -0.0241   -3.0722   -0.6937 N   0  0  0  0  0  0  0  0  0  0  0  0
    1.0085   -3.8154   -0.3501 N   0  0  0  0  0  0  0  0  0  0  0  0
    2.1301   -3.0351   -0.2797 N   0  0  0  0  0  0  0  0  0  0  0  0
    3.4113   -3.6246   -0.0765 C   0  0  0  0  0  0  0  0  0  0  0  0
    3.4375   -4.8968    0.3412 N   0  0  0  0  0  0  0  0  0  0  0  0
    4.7829   -5.1957    0.4920 O   0  0  0  0  0  0  0  0  0  0  0  0
    5.5733   -4.1183    0.1350 N   0  0  0  0  0  0  0  0  0  0  0  0
    4.7303   -3.1580   -0.2480 C   0  0  0  0  0  0  0  0  0  0  0  0
    5.1738   -1.9932   -0.7508 N   0  0  0  0  0  0  0  0  0  0  0  0
    3.0644   -0.3297    1.1576 C   0  0  0  0  0  0  0  0  0  0  0  0
    3.8556    0.7858    1.4558 C   0  0  0  0  0  0  0  0  0  0  0  0
    5.5216    5.2399    1.5431 H   0  0  0  0  0  0  0  0  0  0  0  0
    6.5579    4.6850    2.8793 H   0  0  0  0  0  0  0  0  0  0  0  0
    7.0036    4.3621    1.1871 H   0  0  0  0  0  0  0  0  0  0  0  0
    4.5759    3.2105    2.6500 H   0  0  0  0  0  0  0  0  0  0  0  0
    6.0828    2.3167    2.2502 H   0  0  0  0  0  0  0  0  0  0  0  0
    3.8148    2.2930   -1.5825 H   0  0  0  0  0  0  0  0  0  0  0  0
    2.4099    0.3454   -2.1172 H   0  0  0  0  0  0  0  0  0  0  0  0
   -2.0473   -2.1071   -0.7653 H   0  0  0  0  0  0  0  0  0  0  0  0
   -4.0297   -2.8440   -1.2761 H   0  0  0  0  0  0  0  0  0  0  0  0
   -5.5663   -2.2738   -0.6290 H   0  0  0  0  0  0  0  0  0  0  0  0
   -4.1227   -2.2589    0.4099 H   0  0  0  0  0  0  0  0  0  0  0  0
   -4.4579    0.7273   -3.3075 H   0  0  0  0  0  0  0  0  0  0  0  0
   -6.3023    2.2923   -3.8417 H   0  0  0  0  0  0  0  0  0  0  0  0
   -8.1323    2.6672   -2.2026 H   0  0  0  0  0  0  0  0  0  0  0  0
   -8.0956    1.5055   -0.0107 H   0  0  0  0  0  0  0  0  0  0  0  0
   -5.6024    0.2178    2.7381 H   0  0  0  0  0  0  0  0  0  0  0  0
   -4.5654    0.9363    1.4962 H   0  0  0  0  0  0  0  0  0  0  0  0
   -6.1573    1.6731    1.8864 H   0  0  0  0  0  0  0  0  0  0  0  0
    6.1699   -1.9122   -0.9353 H   0  0  0  0  0  0  0  0  0  0  0  0
    4.6190   -1.4103   -1.3658 H   0  0  0  0  0  0  0  0  0  0  0  0
    2.8506   -1.0407    1.9532 H   0  0  0  0  0  0  0  0  0  0  0  0
    4.2319    0.8851    2.4686 H   0  0  0  0  0  0  0  0  0  0  0  0
  1  2  1  0
  2  3  1  0
  3  4  1  0
  4  5  2  0
  5  6  1  0
  6  7  2  0
  7  8  1  0
  8  9  2  0
  9 10  1  0
 10 11  2  0
 10 12  1  0
 12 13  1  0
 13 14  2  3
 14 15  1  0
 14 16  1  0
 16 17  2  0
 17 18  1  0
 18 19  2  0
 19 20  1  0
 20 21  2  0
 21 22  1  0
 22 23  1  0
  9 24  1  0
 24 25  2  0
 25 26  1  0
 26 27  1  0
 27 28  2  0
 28 29  1  0
 29 30  1  0
 30 31  2  0
 31 32  1  0
  7 33  1  0
 33 34  2  0
 34  4  1  0
 26  8  1  0
 31 27  1  0
 21 16  1  0
  1 35  1  0
  1 36  1  0
  1 37  1  0
  2 38  1  0
  2 39  1  0
  5 40  1  0
  6 41  1  0
 12 42  1  0
 15 43  1  0
 15 44  1  0
 15 45  1  0
 17 46  1  0
 18 47  1  0
 19 48  1  0
 20 49  1  0
 23 50  1  0
 23 51  1  0
 23 52  1  0
 32 53  1  0
 32 54  1  0
 33 55  1  0
 34 56  1  0
M  END
$$$$
