
     RDKit          3D

 40 42  0  0  0  0  0  0  0  0999 V2000
    2.4564    5.3017    0.1458 C   0  0  0  0  0  0  0  0  0  0  0  0
    2.0343    3.8438    0.2040 C   0  0  0  0  0  0  0  0  0  0  0  0
    0.2652    3.6970   -0.2080 S   0  0  0  0  0  0  0  0  0  0  0  0
    0.0341    1.9302   -0.0540 C   0  0  0  0  0  0  0  0  0  0  0  0
   -1.2276    1.4133   -0.2551 C   0  0  0  0  0  0  0  0  0  0  0  0
   -1.3835    0.0471   -0.1386 C   0  0  0  0  0  0  0  0  0  0  0  0
   -2.6279   -0.5507   -0.3081 N   0  0  0  0  0  0  0  0  0  0  0  0
   -3.5199   -0.0795   -1.3834 C   0  0  0  0  0  0  0  0  0  0  0  0
   -4.0124   -1.2574   -2.2422 C   0  0  0  0  0  0  0  0  0  0  0  0
   -4.6970   -2.2709   -1.4938 O   0  0  0  0  0  0  0  0  0  0  0  0
   -4.1634   -2.4615   -0.1734 C   0  0  0  0  0  0  0  0  0  0  0  0
   -2.7092   -1.9916   -0.0140 C   0  0  0  0  0  0  0  0  0  0  0  0
   -0.3359   -0.7267    0.1907 N   0  0  0  0  0  0  0  0  0  0  0  0
    0.8654   -0.1453    0.3687 C   0  0  0  0  0  0  0  0  0  0  0  0
    2.0080   -1.0163    0.7158 C   0  0  0  0  0  0  0  0  0  0  0  0
    1.8553   -2.4098    0.8567 C   0  0  0  0  0  0  0  0  0  0  0  0
    2.9350   -3.2365    1.1848 C   0  0  0  0  0  0  0  0  0  0  0  0
    4.1982   -2.6873    1.3807 C   0  0  0  0  0  0  0  0  0  0  0  0
    4.3819   -1.3145    1.2490 C   0  0  0  0  0  0  0  0  0  0  0  0
    3.2994   -0.4914    0.9207 C   0  0  0  0  0  0  0  0  0  0  0  0
    1.0942    1.1707    0.2497 N   0  0  0  0  0  0  0  0  0  0  0  0
    3.5195    5.3912    0.3931 H   0  0  0  0  0  0  0  0  0  0  0  0
    1.8976    5.9115    0.8638 H   0  0  0  0  0  0  0  0  0  0  0  0
    2.3136    5.7225   -0.8554 H   0  0  0  0  0  0  0  0  0  0  0  0
    2.6283    3.2636   -0.5095 H   0  0  0  0  0  0  0  0  0  0  0  0
    2.2119    3.4526    1.2109 H   0  0  0  0  0  0  0  0  0  0  0  0
   -2.0651    2.0628   -0.4706 H   0  0  0  0  0  0  0  0  0  0  0  0
   -4.3788    0.4136   -0.9138 H   0  0  0  0  0  0  0  0  0  0  0  0
   -3.0330    0.6435   -2.0475 H   0  0  0  0  0  0  0  0  0  0  0  0
   -3.1701   -1.7324   -2.7593 H   0  0  0  0  0  0  0  0  0  0  0  0
   -4.7023   -0.8962   -3.0117 H   0  0  0  0  0  0  0  0  0  0  0  0
   -4.8150   -1.9206    0.5229 H   0  0  0  0  0  0  0  0  0  0  0  0
   -4.2446   -3.5273    0.0626 H   0  0  0  0  0  0  0  0  0  0  0  0
   -2.3846   -2.1919    1.0140 H   0  0  0  0  0  0  0  0  0  0  0  0
   -2.0674   -2.5544   -0.7039 H   0  0  0  0  0  0  0  0  0  0  0  0
    0.8778   -2.8665    0.7091 H   0  0  0  0  0  0  0  0  0  0  0  0
    2.7849   -4.3082    1.2864 H   0  0  0  0  0  0  0  0  0  0  0  0
    5.0380   -3.3281    1.6358 H   0  0  0  0  0  0  0  0  0  0  0  0
    5.3663   -0.8795    1.4010 H   0  0  0  0  0  0  0  0  0  0  0  0
    3.4728    0.5792    0.8243 H   0  0  0  0  0  0  0  0  0  0  0  0
  1  2  1  0
  2  3  1  0
  3  4  1  0
  4  5  2  0
  5  6  1  0
  6  7  1  0
  7  8  1  0
  8  9  1  0
  9 10  1  0
 10 11  1  0
 11 12  1  0
  6 13  2  0
 13 14  1  0
 14 15  1  0
 15 16  2  0
 16 17  1  0
 17 18  2  0
 18 19  1  0
 19 20  2  0
 14 21  2  0
 21  4  1  0
 12  7  1  0
 20 15  1  0
  1 22  1  0
  1 23  1  0
  1 24  1  0
  2 25  1  0
  2 26  1  0
  5 27  1  0
  8 28  1  0
  8 29  1  0
  9 30  1  0
  9 31  1  0
 11 32  1  0
 11 33  1  0
 12 34  1  0
 12 35  1  0
 16 36  1  0
 17 37  1  0
 18 38  1  0
 19 39  1  0
 20 40  1  0
M  END
$$$$
