
     RDKit          3D

 59 64  0  0  0  0  0  0  0  0999 V2000
   -5.5630    1.0058   -2.9794 C   0  0  0  0  0  0  0  0  0  0  0  0
   -4.9176    1.0845   -1.7124 O   0  0  0  0  0  0  0  0  0  0  0  0
   -5.5747    0.4486   -0.6821 C   0  0  0  0  0  0  0  0  0  0  0  0
   -6.9743    0.5394   -0.5690 C   0  0  0  0  0  0  0  0  0  0  0  0
   -7.6433   -0.0453    0.5026 C   0  0  0  0  0  0  0  0  0  0  0  0
   -6.9184   -0.7135    1.4765 C   0  0  0  0  0  0  0  0  0  0  0  0
   -5.5254   -0.7852    1.3802 C   0  0  0  0  0  0  0  0  0  0  0  0
   -4.8053   -0.2048    0.3134 C   0  0  0  0  0  0  0  0  0  0  0  0
   -3.4188   -0.3331    0.2884 N   0  0  0  0  0  0  0  0  0  0  0  0
   -2.6498   -0.2987    1.5490 C   0  0  0  0  0  0  0  0  0  0  0  0
   -1.2667    0.3608    1.3564 C   0  0  0  0  0  0  0  0  0  0  0  0
   -0.4512   -0.3440    0.3337 N   0  0  0  0  0  0  0  0  0  0  0  0
    0.7317    0.2590    0.0008 C   0  0  0  0  0  0  0  0  0  0  0  0
    0.9265    1.4764   -0.6226 C   0  0  0  0  0  0  0  0  0  0  0  0
    2.3135    1.6720   -0.7749 C   0  0  0  0  0  0  0  0  0  0  0  0
    2.9536    0.5832   -0.2142 C   0  0  0  0  0  0  0  0  0  0  0  0
    4.3565    0.2518   -0.0835 C   0  0  0  0  0  0  0  0  0  0  0  0
    5.4085    1.2090   -0.5113 C   0  0  0  0  0  0  0  0  0  0  0  0
    6.4507    0.7472   -1.3230 C   0  0  0  0  0  0  0  0  0  0  0  0
    7.4608    1.6224   -1.7235 C   0  0  0  0  0  0  0  0  0  0  0  0
    7.4380    2.9527   -1.3031 C   0  0  0  0  0  0  0  0  0  0  0  0
    6.4115    3.4094   -0.4753 C   0  0  0  0  0  0  0  0  0  0  0  0
    5.3983    2.5377   -0.0725 C   0  0  0  0  0  0  0  0  0  0  0  0
    4.7291   -0.8957    0.3995 N   0  0  0  0  0  0  0  0  0  0  0  0
    3.7510   -1.8055    0.8452 C   0  0  0  0  0  0  0  0  0  0  0  0
    4.1968   -3.0199    1.3762 C   0  0  0  0  0  0  0  0  0  0  0  0
    3.2908   -3.9681    1.8517 C   0  0  0  0  0  0  0  0  0  0  0  0
    1.9243   -3.7055    1.8014 C   0  0  0  0  0  0  0  0  0  0  0  0
    1.4594   -2.4979    1.2746 C   0  0  0  0  0  0  0  0  0  0  0  0
    2.3689   -1.5503    0.7950 C   0  0  0  0  0  0  0  0  0  0  0  0
    1.9852   -0.3060    0.2322 N   0  0  0  0  0  0  0  0  0  0  0  0
   -1.2507   -0.8821   -0.8034 C   0  0  0  0  0  0  0  0  0  0  0  0
   -2.6327   -0.2058   -0.9505 C   0  0  0  0  0  0  0  0  0  0  0  0
   -6.3448    1.7661   -3.0634 H   0  0  0  0  0  0  0  0  0  0  0  0
   -5.9653    0.0050   -3.1724 H   0  0  0  0  0  0  0  0  0  0  0  0
   -4.8125    1.2158   -3.7476 H   0  0  0  0  0  0  0  0  0  0  0  0
   -7.5606    1.0883   -1.2985 H   0  0  0  0  0  0  0  0  0  0  0  0
   -8.7245    0.0282    0.5785 H   0  0  0  0  0  0  0  0  0  0  0  0
   -7.4276   -1.1811    2.3143 H   0  0  0  0  0  0  0  0  0  0  0  0
   -4.9983   -1.3380    2.1540 H   0  0  0  0  0  0  0  0  0  0  0  0
   -3.1824    0.2708    2.3206 H   0  0  0  0  0  0  0  0  0  0  0  0
   -2.5191   -1.3256    1.9113 H   0  0  0  0  0  0  0  0  0  0  0  0
   -1.4114    1.4111    1.0702 H   0  0  0  0  0  0  0  0  0  0  0  0
   -0.7294    0.3475    2.3123 H   0  0  0  0  0  0  0  0  0  0  0  0
    0.1408    2.1461   -0.9457 H   0  0  0  0  0  0  0  0  0  0  0  0
    2.7871    2.5228   -1.2469 H   0  0  0  0  0  0  0  0  0  0  0  0
    6.4754   -0.2925   -1.6413 H   0  0  0  0  0  0  0  0  0  0  0  0
    8.2683    1.2649   -2.3573 H   0  0  0  0  0  0  0  0  0  0  0  0
    8.2289    3.6319   -1.6119 H   0  0  0  0  0  0  0  0  0  0  0  0
    6.4069    4.4421   -0.1357 H   0  0  0  0  0  0  0  0  0  0  0  0
    4.6198    2.8951    0.5960 H   0  0  0  0  0  0  0  0  0  0  0  0
    5.2641   -3.2209    1.4194 H   0  0  0  0  0  0  0  0  0  0  0  0
    3.6532   -4.9068    2.2617 H   0  0  0  0  0  0  0  0  0  0  0  0
    1.2156   -4.4415    2.1729 H   0  0  0  0  0  0  0  0  0  0  0  0
    0.3897   -2.3316    1.2563 H   0  0  0  0  0  0  0  0  0  0  0  0
   -0.7035   -0.7987   -1.7512 H   0  0  0  0  0  0  0  0  0  0  0  0
   -1.3973   -1.9539   -0.6194 H   0  0  0  0  0  0  0  0  0  0  0  0
   -3.1479   -0.6972   -1.7841 H   0  0  0  0  0  0  0  0  0  0  0  0
   -2.4884    0.8536   -1.1941 H   0  0  0  0  0  0  0  0  0  0  0  0
  1  2  1  0
  2  3  1  0
  3  4  2  0
  4  5  1  0
  5  6  2  0
  6  7  1  0
  7  8  2  0
  8  9  1  0
  9 10  1  0
 10 11  1  0
 11 12  1  0
 12 13  1  0
 13 14  2  0
 14 15  1  0
 15 16  2  0
 16 17  1  0
 17 18  1  0
 18 19  2  0
 19 20  1  0
 20 21  2  0
 21 22  1  0
 22 23  2  0
 17 24  2  0
 24 25  1  0
 25 26  2  0
 26 27  1  0
 27 28  2  0
 28 29  1  0
 29 30  2  0
 30 31  1  0
 12 32  1  0
 32 33  1  0
  8  3  1  0
 33  9  1  0
 31 13  1  0
 31 16  1  0
 23 18  1  0
 30 25  1  0
  1 34  1  0
  1 35  1  0
  1 36  1  0
  4 37  1  0
  5 38  1  0
  6 39  1  0
  7 40  1  0
 10 41  1  0
 10 42  1  0
 11 43  1  0
 11 44  1  0
 14 45  1  0
 15 46  1  0
 19 47  1  0
 20 48  1  0
 21 49  1  0
 22 50  1  0
 23 51  1  0
 26 52  1  0
 27 53  1  0
 28 54  1  0
 29 55  1  0
 32 56  1  0
 32 57  1  0
 33 58  1  0
 33 59  1  0
M  END
$$$$
