
     RDKit          3D

 49 52  0  0  0  0  0  0  0  0999 V2000
   -1.6528    1.6862   -0.0328 C   0  0  0  0  0  0  0  0  0  0  0  0
   -2.6752    0.7296    0.5400 C   0  0  0  0  0  0  0  0  0  0  0  0
   -2.4490   -0.5361    0.7396 N   0  0  0  0  0  0  0  0  0  0  0  0
   -1.2562   -1.0809    0.3622 N   0  0  0  0  0  0  0  0  0  0  0  0
   -1.0331   -2.4410    0.5686 C   0  0  0  0  0  0  0  0  0  0  0  0
   -1.8229   -3.1940    1.1317 O   0  0  0  0  0  0  0  0  0  0  0  0
    0.2360   -2.9314    0.0314 C   0  0  0  0  0  0  0  0  0  0  0  0
    0.3619   -4.2040   -0.4532 N   0  0  0  0  0  0  0  0  0  0  0  0
    1.5927   -4.3604   -0.9058 N   0  0  0  0  0  0  0  0  0  0  0  0
    2.2852   -3.2011   -0.7319 N   0  0  0  0  0  0  0  0  0  0  0  0
    3.6167   -3.0653   -1.2010 C   0  0  0  0  0  0  0  0  0  0  0  0
    4.2974   -1.9306   -1.0366 N   0  0  0  0  0  0  0  0  0  0  0  0
    5.5377   -2.1909   -1.6176 O   0  0  0  0  0  0  0  0  0  0  0  0
    5.5954   -3.4832   -2.1262 N   0  0  0  0  0  0  0  0  0  0  0  0
    4.4011   -4.0191   -1.8783 C   0  0  0  0  0  0  0  0  0  0  0  0
    4.0394   -5.2653   -2.2311 N   0  0  0  0  0  0  0  0  0  0  0  0
    1.4673   -2.2946   -0.0589 C   0  0  0  0  0  0  0  0  0  0  0  0
    1.8927   -0.9614    0.4258 C   0  0  0  0  0  0  0  0  0  0  0  0
    1.5371   -0.0606   -0.6183 O   0  0  0  0  0  0  0  0  0  0  0  0
    2.0160    1.2168   -0.5208 C   0  0  0  0  0  0  0  0  0  0  0  0
    1.9035    1.9727   -1.6932 C   0  0  0  0  0  0  0  0  0  0  0  0
    2.3327    3.3000   -1.7232 C   0  0  0  0  0  0  0  0  0  0  0  0
    2.8684    3.8681   -0.5754 C   0  0  0  0  0  0  0  0  0  0  0  0
    3.2783    5.1426   -0.5978 F   0  0  0  0  0  0  0  0  0  0  0  0
    2.9800    3.1329    0.5989 C   0  0  0  0  0  0  0  0  0  0  0  0
    2.5507    1.8027    0.6296 C   0  0  0  0  0  0  0  0  0  0  0  0
   -4.0203    1.2676    0.9158 C   0  0  0  0  0  0  0  0  0  0  0  0
   -4.7443    0.6293    1.9337 C   0  0  0  0  0  0  0  0  0  0  0  0
   -6.0061    1.1007    2.3063 C   0  0  0  0  0  0  0  0  0  0  0  0
   -6.5502    2.2057    1.6562 C   0  0  0  0  0  0  0  0  0  0  0  0
   -8.1026    2.7891    2.1122 Cl  0  0  0  0  0  0  0  0  0  0  0  0
   -5.8464    2.8385    0.6323 C   0  0  0  0  0  0  0  0  0  0  0  0
   -4.5832    2.3681    0.2575 C   0  0  0  0  0  0  0  0  0  0  0  0
   -1.9478    2.7316    0.0762 H   0  0  0  0  0  0  0  0  0  0  0  0
   -0.7114    1.5693    0.5103 H   0  0  0  0  0  0  0  0  0  0  0  0
   -1.4977    1.4648   -1.0922 H   0  0  0  0  0  0  0  0  0  0  0  0
   -0.6286   -0.5483   -0.2312 H   0  0  0  0  0  0  0  0  0  0  0  0
    4.7337   -5.9184   -2.5776 H   0  0  0  0  0  0  0  0  0  0  0  0
    3.1693   -5.6882   -1.9100 H   0  0  0  0  0  0  0  0  0  0  0  0
    2.9563   -0.9210    0.6739 H   0  0  0  0  0  0  0  0  0  0  0  0
    1.3347   -0.7065    1.3354 H   0  0  0  0  0  0  0  0  0  0  0  0
    1.4869    1.5236   -2.5918 H   0  0  0  0  0  0  0  0  0  0  0  0
    2.2549    3.8895   -2.6311 H   0  0  0  0  0  0  0  0  0  0  0  0
    3.3990    3.6011    1.4845 H   0  0  0  0  0  0  0  0  0  0  0  0
    2.6400    1.2622    1.5663 H   0  0  0  0  0  0  0  0  0  0  0  0
   -4.3311   -0.2413    2.4414 H   0  0  0  0  0  0  0  0  0  0  0  0
   -6.5560    0.5976    3.0975 H   0  0  0  0  0  0  0  0  0  0  0  0
   -6.2791    3.6922    0.1166 H   0  0  0  0  0  0  0  0  0  0  0  0
   -4.0708    2.8611   -0.5635 H   0  0  0  0  0  0  0  0  0  0  0  0
  1  2  1  0
  2  3  2  3
  3  4  1  0
  4  5  1  0
  5  6  2  0
  5  7  1  0
  7  8  1  0
  8  9  2  0
  9 10  1  0
 10 11  1  0
 11 12  2  0
 12 13  1  0
 13 14  1  0
 14 15  2  0
 15 16  1  0
 10 17  1  0
 17 18  1  0
 18 19  1  0
 19 20  1  0
 20 21  2  0
 21 22  1  0
 22 23  2  0
 23 24  1  0
 23 25  1  0
 25 26  2  0
  2 27  1  0
 27 28  2  0
 28 29  1  0
 29 30  2  0
 30 31  1  0
 30 32  1  0
 32 33  2  0
 17  7  2  0
 26 20  1  0
 33 27  1  0
 15 11  1  0
  1 34  1  0
  1 35  1  0
  1 36  1  0
  4 37  1  0
 16 38  1  0
 16 39  1  0
 18 40  1  0
 18 41  1  0
 21 42  1  0
 22 43  1  0
 25 44  1  0
 26 45  1  0
 28 46  1  0
 29 47  1  0
 32 48  1  0
 33 49  1  0
M  END
$$$$
