
     RDKit          3D

 35 36  0  0  0  0  0  0  0  0999 V2000
    2.4194    1.5503    0.8259 C   0  0  0  0  0  0  0  0  0  0  0  0
    1.9231    0.4355    0.0045 N   0  0  0  0  0  0  0  0  0  0  0  0
    0.8353   -0.2534    0.7291 C   0  0  0  0  0  0  0  0  0  0  0  0
   -0.0465   -1.0859   -0.2130 C   0  0  0  0  0  0  0  0  0  0  0  0
   -1.1731   -1.7960    0.5401 C   0  0  0  0  0  0  0  0  0  0  0  0
   -1.9807   -0.8911    1.2887 O   0  0  0  0  0  0  0  0  0  0  0  0
   -3.0093   -0.2246    0.6806 C   0  0  0  0  0  0  0  0  0  0  0  0
   -3.3632   -0.3534   -0.6657 C   0  0  0  0  0  0  0  0  0  0  0  0
   -4.4356    0.3778   -1.1896 C   0  0  0  0  0  0  0  0  0  0  0  0
   -5.1592    1.2411   -0.3708 C   0  0  0  0  0  0  0  0  0  0  0  0
   -6.4757    2.1344   -1.0244 Cl  0  0  0  0  0  0  0  0  0  0  0  0
   -4.8228    1.3850    0.9700 C   0  0  0  0  0  0  0  0  0  0  0  0
   -3.7517    0.6546    1.4908 C   0  0  0  0  0  0  0  0  0  0  0  0
   -3.3691    0.8714    3.1652 Cl  0  0  0  0  0  0  0  0  0  0  0  0
    3.0260   -0.4905   -0.3136 C   0  0  0  0  0  0  0  0  0  0  0  0
    4.0122    0.1346   -1.2540 C   0  0  0  0  0  0  0  0  0  0  0  0
    5.3427   -0.5229   -1.5160 C   0  0  0  0  0  0  0  0  0  0  0  0
    5.2215    0.6122   -0.6478 O   0  0  0  0  0  0  0  0  0  0  0  0
    2.8543    1.2048    1.7708 H   0  0  0  0  0  0  0  0  0  0  0  0
    3.1710    2.1379    0.2889 H   0  0  0  0  0  0  0  0  0  0  0  0
    1.6064    2.2484    1.0567 H   0  0  0  0  0  0  0  0  0  0  0  0
    0.1884    0.4969    1.2017 H   0  0  0  0  0  0  0  0  0  0  0  0
    1.2362   -0.8776    1.5382 H   0  0  0  0  0  0  0  0  0  0  0  0
   -0.4670   -0.4210   -0.9760 H   0  0  0  0  0  0  0  0  0  0  0  0
    0.5412   -1.8471   -0.7358 H   0  0  0  0  0  0  0  0  0  0  0  0
   -1.7736   -2.4295   -0.1223 H   0  0  0  0  0  0  0  0  0  0  0  0
   -0.7254   -2.4816    1.2697 H   0  0  0  0  0  0  0  0  0  0  0  0
   -2.8256   -1.0083   -1.3431 H   0  0  0  0  0  0  0  0  0  0  0  0
   -4.6980    0.2687   -2.2394 H   0  0  0  0  0  0  0  0  0  0  0  0
   -5.3869    2.0601    1.6073 H   0  0  0  0  0  0  0  0  0  0  0  0
    3.5196   -0.8470    0.6003 H   0  0  0  0  0  0  0  0  0  0  0  0
    2.6380   -1.3758   -0.8276 H   0  0  0  0  0  0  0  0  0  0  0  0
    3.5606    0.7101   -2.0510 H   0  0  0  0  0  0  0  0  0  0  0  0
    5.5556   -1.4809   -1.0593 H   0  0  0  0  0  0  0  0  0  0  0  0
    5.8118   -0.3646   -2.4789 H   0  0  0  0  0  0  0  0  0  0  0  0
  1  2  1  0
  2  3  1  0
  3  4  1  0
  4  5  1  0
  5  6  1  0
  6  7  1  0
  7  8  2  0
  8  9  1  0
  9 10  2  0
 10 11  1  0
 10 12  1  0
 12 13  2  0
 13 14  1  0
  2 15  1  0
 15 16  1  0
 16 17  1  0
 17 18  1  0
 13  7  1  0
 18 16  1  0
  1 19  1  0
  1 20  1  0
  1 21  1  0
  3 22  1  0
  3 23  1  0
  4 24  1  0
  4 25  1  0
  5 26  1  0
  5 27  1  0
  8 28  1  0
  9 29  1  0
 12 30  1  0
 15 31  1  0
 15 32  1  0
 16 33  1  0
 17 34  1  0
 17 35  1  0
M  END
$$$$
