
     RDKit          3D

 33 33  0  0  0  0  0  0  0  0999 V2000
   -3.8129   -1.5879   -0.3792 C   0  0  0  0  0  0  0  0  0  0  0  0
   -3.5854   -0.0765   -0.3096 C   0  0  0  0  0  0  0  0  0  0  0  0
   -4.9257    0.6341   -0.0974 C   0  0  0  0  0  0  0  0  0  0  0  0
   -2.6845    0.2929    0.7927 N   0  0  0  0  0  0  0  0  0  0  0  0
   -1.2894   -0.0766    0.5317 C   0  0  0  0  0  0  0  0  0  0  0  0
   -0.4063    0.4150    1.6830 C   0  0  0  0  0  0  0  0  0  0  0  0
    1.0531    0.0079    1.4879 C   0  0  0  0  0  0  0  0  0  0  0  0
    1.5506    0.6406    0.3103 O   0  0  0  0  0  0  0  0  0  0  0  0
    2.8359    0.3721   -0.0751 C   0  0  0  0  0  0  0  0  0  0  0  0
    3.7211   -0.4487    0.6322 C   0  0  0  0  0  0  0  0  0  0  0  0
    5.0187   -0.6662    0.1564 C   0  0  0  0  0  0  0  0  0  0  0  0
    5.4381   -0.0623   -1.0263 C   0  0  0  0  0  0  0  0  0  0  0  0
    7.0354   -0.3345   -1.6030 Cl  0  0  0  0  0  0  0  0  0  0  0  0
    4.5739    0.7592   -1.7428 C   0  0  0  0  0  0  0  0  0  0  0  0
    3.2778    0.9737   -1.2664 C   0  0  0  0  0  0  0  0  0  0  0  0
    2.1374    2.1031   -2.2875 Br  0  0  0  0  0  0  0  0  0  0  0  0
   -4.5576   -1.8318   -1.1448 H   0  0  0  0  0  0  0  0  0  0  0  0
   -2.8955   -2.1250   -0.6397 H   0  0  0  0  0  0  0  0  0  0  0  0
   -4.1772   -1.9804    0.5773 H   0  0  0  0  0  0  0  0  0  0  0  0
   -3.1727    0.2738   -1.2640 H   0  0  0  0  0  0  0  0  0  0  0  0
   -5.4061    0.3170    0.8355 H   0  0  0  0  0  0  0  0  0  0  0  0
   -5.6128    0.4152   -0.9224 H   0  0  0  0  0  0  0  0  0  0  0  0
   -4.7958    1.7214   -0.0590 H   0  0  0  0  0  0  0  0  0  0  0  0
   -2.7295    1.3036    0.9313 H   0  0  0  0  0  0  0  0  0  0  0  0
   -1.1895   -1.1643    0.4528 H   0  0  0  0  0  0  0  0  0  0  0  0
   -0.9532    0.3681   -0.4120 H   0  0  0  0  0  0  0  0  0  0  0  0
   -0.7670    0.0037    2.6338 H   0  0  0  0  0  0  0  0  0  0  0  0
   -0.4698    1.5088    1.7461 H   0  0  0  0  0  0  0  0  0  0  0  0
    1.6299    0.3406    2.3590 H   0  0  0  0  0  0  0  0  0  0  0  0
    1.1188   -1.0831    1.3959 H   0  0  0  0  0  0  0  0  0  0  0  0
    3.4359   -0.9354    1.5598 H   0  0  0  0  0  0  0  0  0  0  0  0
    5.6964   -1.3074    0.7160 H   0  0  0  0  0  0  0  0  0  0  0  0
    4.9078    1.2292   -2.6638 H   0  0  0  0  0  0  0  0  0  0  0  0
  1  2  1  0
  2  3  1  0
  2  4  1  0
  4  5  1  0
  5  6  1  0
  6  7  1  0
  7  8  1  0
  8  9  1  0
  9 10  2  0
 10 11  1  0
 11 12  2  0
 12 13  1  0
 12 14  1  0
 14 15  2  0
 15 16  1  0
 15  9  1  0
  1 17  1  0
  1 18  1  0
  1 19  1  0
  2 20  1  0
  3 21  1  0
  3 22  1  0
  3 23  1  0
  4 24  1  0
  5 25  1  0
  5 26  1  0
  6 27  1  0
  6 28  1  0
  7 29  1  0
  7 30  1  0
 10 31  1  0
 11 32  1  0
 14 33  1  0
M  END
$$$$
