
     RDKit          3D

 73 75  0  0  0  0  0  0  0  0999 V2000
   -2.4744    0.8319   -3.8378 C   0  0  0  0  0  0  0  0  0  0  0  0
   -1.7963   -0.1758   -2.9164 C   0  0  0  0  0  0  0  0  0  0  0  0
   -2.6034   -0.4139   -1.6320 C   0  0  0  0  0  0  0  0  0  0  0  0
   -1.6433   -1.4567   -0.4595 S   0  0  0  0  0  0  0  0  0  0  0  0
   -0.7558   -0.2366    0.4407 C   0  0  0  0  0  0  0  0  0  0  0  0
   -0.6569    0.9419   -0.0789 N   0  0  0  0  0  0  0  0  0  0  0  0
    0.0522    1.9272    0.6109 C   0  0  0  0  0  0  0  0  0  0  0  0
    0.2008    3.1852    0.0222 C   0  0  0  0  0  0  0  0  0  0  0  0
    0.9102    4.2016    0.6742 C   0  0  0  0  0  0  0  0  0  0  0  0
    1.1038    5.4609    0.1628 O   0  0  0  0  0  0  0  0  0  0  0  0
    0.5230    5.7585   -1.0988 C   0  0  0  0  0  0  0  0  0  0  0  0
    1.4829    3.9525    1.9393 C   0  0  0  0  0  0  0  0  0  0  0  0
    2.1654    4.9979    2.5096 O   0  0  0  0  0  0  0  0  0  0  0  0
    2.7991    4.7670    3.7606 C   0  0  0  0  0  0  0  0  0  0  0  0
    1.3276    2.6963    2.5297 C   0  0  0  0  0  0  0  0  0  0  0  0
    0.6118    1.6978    1.8594 C   0  0  0  0  0  0  0  0  0  0  0  0
    0.4365    0.3616    2.4494 C   0  0  0  0  0  0  0  0  0  0  0  0
    0.8456    0.1617    3.5920 O   0  0  0  0  0  0  0  0  0  0  0  0
   -0.2037   -0.5976    1.6604 N   0  0  0  0  0  0  0  0  0  0  0  0
   -0.1904   -1.9728    2.1867 C   0  0  0  0  0  0  0  0  0  0  0  0
    0.8885   -2.8642    1.5396 C   0  0  0  0  0  0  0  0  0  0  0  0
    2.2709   -2.2544    1.5207 C   0  0  0  0  0  0  0  0  0  0  0  0
    2.8361   -1.8213    0.3168 C   0  0  0  0  0  0  0  0  0  0  0  0
    4.0973   -1.2201    0.2994 C   0  0  0  0  0  0  0  0  0  0  0  0
    4.8099   -1.0327    1.4871 C   0  0  0  0  0  0  0  0  0  0  0  0
    6.0478   -0.4442    1.5656 O   0  0  0  0  0  0  0  0  0  0  0  0
    6.5936    0.1016    0.3741 C   0  0  0  0  0  0  0  0  0  0  0  0
    4.2480   -1.4602    2.7051 C   0  0  0  0  0  0  0  0  0  0  0  0
    5.0019   -1.2406    3.8325 O   0  0  0  0  0  0  0  0  0  0  0  0
    4.3297   -1.3237    5.0819 C   0  0  0  0  0  0  0  0  0  0  0  0
    2.9920   -2.0802    2.7105 C   0  0  0  0  0  0  0  0  0  0  0  0
   -3.9325   -1.1200   -1.9271 C   0  0  0  0  0  0  0  0  0  0  0  0
   -5.0139   -0.5656   -1.7420 O   0  0  0  0  0  0  0  0  0  0  0  0
   -3.8287   -2.3898   -2.4596 N   0  0  0  0  0  0  0  0  0  0  0  0
   -5.0038   -3.2087   -2.6969 C   0  0  0  0  0  0  0  0  0  0  0  0
   -5.8802   -2.7090   -3.8472 C   0  0  0  0  0  0  0  0  0  0  0  0
   -6.8631   -3.7039   -4.1448 O   0  0  0  0  0  0  0  0  0  0  0  0
   -7.7522   -3.2653   -5.1641 C   0  0  0  0  0  0  0  0  0  0  0  0
   -1.8491    1.0169   -4.7169 H   0  0  0  0  0  0  0  0  0  0  0  0
   -2.6308    1.7871   -3.3265 H   0  0  0  0  0  0  0  0  0  0  0  0
   -3.4441    0.4645   -4.1883 H   0  0  0  0  0  0  0  0  0  0  0  0
   -1.6504   -1.1103   -3.4719 H   0  0  0  0  0  0  0  0  0  0  0  0
   -0.7982    0.2098   -2.6788 H   0  0  0  0  0  0  0  0  0  0  0  0
   -2.8617    0.5354   -1.1493 H   0  0  0  0  0  0  0  0  0  0  0  0
   -0.2496    3.3400   -0.9527 H   0  0  0  0  0  0  0  0  0  0  0  0
    0.9404    5.1227   -1.8871 H   0  0  0  0  0  0  0  0  0  0  0  0
   -0.5683    5.6785   -1.0606 H   0  0  0  0  0  0  0  0  0  0  0  0
    0.7714    6.7953   -1.3435 H   0  0  0  0  0  0  0  0  0  0  0  0
    3.5567    3.9806    3.6812 H   0  0  0  0  0  0  0  0  0  0  0  0
    2.0642    4.5332    4.5377 H   0  0  0  0  0  0  0  0  0  0  0  0
    3.3074    5.6906    4.0526 H   0  0  0  0  0  0  0  0  0  0  0  0
    1.7521    2.4643    3.5014 H   0  0  0  0  0  0  0  0  0  0  0  0
   -1.1757   -2.4303    2.0484 H   0  0  0  0  0  0  0  0  0  0  0  0
   -0.0282   -1.9544    3.2707 H   0  0  0  0  0  0  0  0  0  0  0  0
    0.5967   -3.1197    0.5151 H   0  0  0  0  0  0  0  0  0  0  0  0
    0.9324   -3.8215    2.0748 H   0  0  0  0  0  0  0  0  0  0  0  0
    2.3003   -1.9439   -0.6218 H   0  0  0  0  0  0  0  0  0  0  0  0
    4.4953   -0.9059   -0.6591 H   0  0  0  0  0  0  0  0  0  0  0  0
    5.9435    0.8793   -0.0401 H   0  0  0  0  0  0  0  0  0  0  0  0
    6.7931   -0.6826   -0.3633 H   0  0  0  0  0  0  0  0  0  0  0  0
    7.5502    0.5690    0.6271 H   0  0  0  0  0  0  0  0  0  0  0  0
    5.0167   -0.9631    5.8539 H   0  0  0  0  0  0  0  0  0  0  0  0
    4.0799   -2.3627    5.3208 H   0  0  0  0  0  0  0  0  0  0  0  0
    3.4390   -0.6856    5.1050 H   0  0  0  0  0  0  0  0  0  0  0  0
    2.5462   -2.4197    3.6401 H   0  0  0  0  0  0  0  0  0  0  0  0
   -2.9485   -2.8695   -2.3097 H   0  0  0  0  0  0  0  0  0  0  0  0
   -5.5909   -3.2627   -1.7723 H   0  0  0  0  0  0  0  0  0  0  0  0
   -4.6526   -4.2244   -2.9115 H   0  0  0  0  0  0  0  0  0  0  0  0
   -5.2651   -2.5338   -4.7381 H   0  0  0  0  0  0  0  0  0  0  0  0
   -6.3752   -1.7702   -3.5769 H   0  0  0  0  0  0  0  0  0  0  0  0
   -8.3000   -2.3757   -4.8380 H   0  0  0  0  0  0  0  0  0  0  0  0
   -8.4709   -4.0655   -5.3621 H   0  0  0  0  0  0  0  0  0  0  0  0
   -7.2024   -3.0518   -6.0862 H   0  0  0  0  0  0  0  0  0  0  0  0
  1  2  1  0
  2  3  1  0
  3  4  1  0
  4  5  1  0
  5  6  2  0
  6  7  1  0
  7  8  2  0
  8  9  1  0
  9 10  1  0
 10 11  1  0
  9 12  2  0
 12 13  1  0
 13 14  1  0
 12 15  1  0
 15 16  2  0
 16 17  1  0
 17 18  2  0
 17 19  1  0
 19 20  1  0
 20 21  1  0
 21 22  1  0
 22 23  2  0
 23 24  1  0
 24 25  2  0
 25 26  1  0
 26 27  1  0
 25 28  1  0
 28 29  1  0
 29 30  1  0
 28 31  2  0
  3 32  1  0
 32 33  2  0
 32 34  1  0
 34 35  1  0
 35 36  1  0
 36 37  1  0
 37 38  1  0
 19  5  1  0
 31 22  1  0
 16  7  1  0
  1 39  1  0
  1 40  1  0
  1 41  1  0
  2 42  1  0
  2 43  1  0
  3 44  1  0
  8 45  1  0
 11 46  1  0
 11 47  1  0
 11 48  1  0
 14 49  1  0
 14 50  1  0
 14 51  1  0
 15 52  1  0
 20 53  1  0
 20 54  1  0
 21 55  1  0
 21 56  1  0
 23 57  1  0
 24 58  1  0
 27 59  1  0
 27 60  1  0
 27 61  1  0
 30 62  1  0
 30 63  1  0
 30 64  1  0
 31 65  1  0
 34 66  1  0
 35 67  1  0
 35 68  1  0
 36 69  1  0
 36 70  1  0
 38 71  1  0
 38 72  1  0
 38 73  1  0
M  END
$$$$
