
     RDKit          3D

 45 47  0  0  0  0  0  0  0  0999 V2000
   -3.8806   -2.5669    2.5568 C   0  0  0  0  0  0  0  0  0  0  0  0
   -4.5959   -1.2277    2.5933 C   0  0  0  0  0  0  0  0  0  0  0  0
   -4.6239   -0.6355    1.2979 O   0  0  0  0  0  0  0  0  0  0  0  0
   -3.6158    0.2140    0.9194 C   0  0  0  0  0  0  0  0  0  0  0  0
   -2.4350    0.4193    1.6380 C   0  0  0  0  0  0  0  0  0  0  0  0
   -1.4607    1.3025    1.1640 C   0  0  0  0  0  0  0  0  0  0  0  0
   -1.6484    1.9806   -0.0417 C   0  0  0  0  0  0  0  0  0  0  0  0
   -0.6538    2.9359   -0.5388 C   0  0  0  0  0  0  0  0  0  0  0  0
    0.6008    2.6565   -0.9205 C   0  0  0  0  0  0  0  0  0  0  0  0
    1.6874    3.8889   -1.4831 S   0  0  0  0  0  0  0  0  0  0  0  0
    3.0178    2.7613   -1.7256 C   0  0  0  0  0  0  0  0  0  0  0  0
    4.5054    3.2125   -2.3301 S   0  0  0  0  0  0  0  0  0  0  0  0
    2.5878    1.5001   -1.3746 N   0  0  0  0  0  0  0  0  0  0  0  0
    3.4421    0.3784   -1.3858 N   0  0  0  0  0  0  0  0  0  0  0  0
    4.0948    0.1086   -0.1932 C   0  0  0  0  0  0  0  0  0  0  0  0
    4.1116    0.8803    0.7608 O   0  0  0  0  0  0  0  0  0  0  0  0
    4.7620   -1.2154   -0.0986 C   0  0  0  0  0  0  0  0  0  0  0  0
    5.2256   -1.8921   -1.2278 C   0  0  0  0  0  0  0  0  0  0  0  0
    5.8401   -3.1172   -1.0377 C   0  0  0  0  0  0  0  0  0  0  0  0
    6.0144   -3.6887    0.1724 N   0  0  0  0  0  0  0  0  0  0  0  0
    5.5719   -3.0032    1.2482 C   0  0  0  0  0  0  0  0  0  0  0  0
    4.9487   -1.7727    1.1666 C   0  0  0  0  0  0  0  0  0  0  0  0
    1.2774    1.3261   -0.9604 C   0  0  0  0  0  0  0  0  0  0  0  0
    0.7575    0.2460   -0.7173 O   0  0  0  0  0  0  0  0  0  0  0  0
   -2.8308    1.7822   -0.7650 C   0  0  0  0  0  0  0  0  0  0  0  0
   -3.8124    0.8983   -0.2979 C   0  0  0  0  0  0  0  0  0  0  0  0
   -4.9976    0.6452   -0.9454 O   0  0  0  0  0  0  0  0  0  0  0  0
   -5.1936    1.2367   -2.2212 C   0  0  0  0  0  0  0  0  0  0  0  0
   -4.3453   -3.2287    1.8183 H   0  0  0  0  0  0  0  0  0  0  0  0
   -3.9188   -3.0522    3.5362 H   0  0  0  0  0  0  0  0  0  0  0  0
   -2.8325   -2.4541    2.2644 H   0  0  0  0  0  0  0  0  0  0  0  0
   -4.1902   -0.5557    3.3575 H   0  0  0  0  0  0  0  0  0  0  0  0
   -5.6403   -1.4033    2.8755 H   0  0  0  0  0  0  0  0  0  0  0  0
   -2.2302   -0.1009    2.5669 H   0  0  0  0  0  0  0  0  0  0  0  0
   -0.5514    1.4431    1.7443 H   0  0  0  0  0  0  0  0  0  0  0  0
   -1.0194    3.9605   -0.5896 H   0  0  0  0  0  0  0  0  0  0  0  0
    3.0859   -0.4079   -1.9213 H   0  0  0  0  0  0  0  0  0  0  0  0
    5.1475   -1.4823   -2.2276 H   0  0  0  0  0  0  0  0  0  0  0  0
    6.2273   -3.6886   -1.8771 H   0  0  0  0  0  0  0  0  0  0  0  0
    5.7389   -3.4855    2.2075 H   0  0  0  0  0  0  0  0  0  0  0  0
    4.6157   -1.2632    2.0652 H   0  0  0  0  0  0  0  0  0  0  0  0
   -2.9672    2.3269   -1.6931 H   0  0  0  0  0  0  0  0  0  0  0  0
   -4.4186    0.9222   -2.9281 H   0  0  0  0  0  0  0  0  0  0  0  0
   -5.2424    2.3278   -2.1456 H   0  0  0  0  0  0  0  0  0  0  0  0
   -6.1562    0.8879   -2.6074 H   0  0  0  0  0  0  0  0  0  0  0  0
  1  2  1  0
  2  3  1  0
  3  4  1  0
  4  5  2  0
  5  6  1  0
  6  7  2  0
  7  8  1  0
  8  9  2  3
  9 10  1  0
 10 11  1  0
 11 12  2  0
 11 13  1  0
 13 14  1  0
 14 15  1  0
 15 16  2  0
 15 17  1  0
 17 18  2  0
 18 19  1  0
 19 20  2  0
 20 21  1  0
 21 22  2  0
 13 23  1  0
 23 24  2  0
  7 25  1  0
 25 26  2  0
 26 27  1  0
 27 28  1  0
 26  4  1  0
 23  9  1  0
 22 17  1  0
  1 29  1  0
  1 30  1  0
  1 31  1  0
  2 32  1  0
  2 33  1  0
  5 34  1  0
  6 35  1  0
  8 36  1  0
 14 37  1  0
 18 38  1  0
 19 39  1  0
 21 40  1  0
 22 41  1  0
 25 42  1  0
 28 43  1  0
 28 44  1  0
 28 45  1  0
M  END
$$$$
