
     RDKit          3D

 57 59  0  0  0  0  0  0  0  0999 V2000
    7.9572   -4.5054   -0.2931 C   0  0  0  0  0  0  0  0  0  0  0  0
    7.9517   -3.2443   -0.9497 O   0  0  0  0  0  0  0  0  0  0  0  0
    6.7287   -2.6870   -1.2042 C   0  0  0  0  0  0  0  0  0  0  0  0
    5.4904   -3.2418   -0.8829 C   0  0  0  0  0  0  0  0  0  0  0  0
    4.3105   -2.5608   -1.2028 C   0  0  0  0  0  0  0  0  0  0  0  0
    4.3518   -1.3202   -1.8538 C   0  0  0  0  0  0  0  0  0  0  0  0
    3.0766   -0.5852   -2.1732 C   0  0  0  0  0  0  0  0  0  0  0  0
    2.6371    0.1947   -1.0481 N   0  0  0  0  0  0  0  0  0  0  0  0
    1.6956   -0.2572   -0.1558 C   0  0  0  0  0  0  0  0  0  0  0  0
    1.0645   -1.3036   -0.2293 O   0  0  0  0  0  0  0  0  0  0  0  0
    1.4788    0.6967    1.0440 C   0  0  0  0  0  0  0  0  0  0  0  0
    2.1740    1.6931    1.1863 O   0  0  0  0  0  0  0  0  0  0  0  0
    0.4504    0.3127    1.8748 N   0  0  0  0  0  0  0  0  0  0  0  0
   -0.0356    1.1812    2.9235 C   0  0  0  0  0  0  0  0  0  0  0  0
   -0.8764    2.3879    2.4408 C   0  0  0  0  0  0  0  0  0  0  0  0
   -1.3042    3.1330    3.6010 O   0  0  0  0  0  0  0  0  0  0  0  0
   -2.6487    2.7368    3.8723 C   0  0  0  0  0  0  0  0  0  0  0  0
   -3.2409    2.5099    2.5032 C   0  0  0  0  0  0  0  0  0  0  0  0
   -2.1134    1.9208    1.7540 N   0  0  0  0  0  0  0  0  0  0  0  0
   -2.1068    2.1829    0.0795 S   0  0  0  0  0  6  0  0  0  0  0  0
   -0.9763    1.4861   -0.4922 O   0  0  0  0  0  0  0  0  0  0  0  0
   -2.3078    3.5970   -0.1534 O   0  0  0  0  0  0  0  0  0  0  0  0
   -3.5712    1.3191   -0.4342 C   0  0  0  0  0  0  0  0  0  0  0  0
   -4.7071    2.0318   -0.8256 C   0  0  0  0  0  0  0  0  0  0  0  0
   -5.8518    1.3389   -1.2336 C   0  0  0  0  0  0  0  0  0  0  0  0
   -5.8571   -0.0583   -1.2570 C   0  0  0  0  0  0  0  0  0  0  0  0
   -6.9064   -0.8511   -1.6316 O   0  0  0  0  0  0  0  0  0  0  0  0
   -8.0804   -0.1933   -2.0914 C   0  0  0  0  0  0  0  0  0  0  0  0
   -4.7080   -0.7581   -0.8725 C   0  0  0  0  0  0  0  0  0  0  0  0
   -3.5604   -0.0763   -0.4654 C   0  0  0  0  0  0  0  0  0  0  0  0
    5.5978   -0.7633   -2.1638 C   0  0  0  0  0  0  0  0  0  0  0  0
    6.7741   -1.4461   -1.8436 C   0  0  0  0  0  0  0  0  0  0  0  0
    9.0002   -4.8100   -0.1633 H   0  0  0  0  0  0  0  0  0  0  0  0
    7.5050   -4.4350    0.7017 H   0  0  0  0  0  0  0  0  0  0  0  0
    7.4608   -5.2693   -0.9009 H   0  0  0  0  0  0  0  0  0  0  0  0
    5.4036   -4.1992   -0.3807 H   0  0  0  0  0  0  0  0  0  0  0  0
    3.3513   -3.0025   -0.9357 H   0  0  0  0  0  0  0  0  0  0  0  0
    2.2964   -1.2934   -2.4753 H   0  0  0  0  0  0  0  0  0  0  0  0
    3.2317    0.1032   -3.0113 H   0  0  0  0  0  0  0  0  0  0  0  0
    3.1391    1.0381   -0.7879 H   0  0  0  0  0  0  0  0  0  0  0  0
   -0.1412   -0.4309    1.5141 H   0  0  0  0  0  0  0  0  0  0  0  0
   -0.6213    0.5555    3.6067 H   0  0  0  0  0  0  0  0  0  0  0  0
    0.8234    1.5514    3.4963 H   0  0  0  0  0  0  0  0  0  0  0  0
   -0.2772    3.0606    1.8189 H   0  0  0  0  0  0  0  0  0  0  0  0
   -3.1663    3.5165    4.4372 H   0  0  0  0  0  0  0  0  0  0  0  0
   -2.6320    1.8171    4.4676 H   0  0  0  0  0  0  0  0  0  0  0  0
   -3.5434    3.4702    2.0732 H   0  0  0  0  0  0  0  0  0  0  0  0
   -4.1023    1.8389    2.5389 H   0  0  0  0  0  0  0  0  0  0  0  0
   -4.7112    3.1197   -0.8222 H   0  0  0  0  0  0  0  0  0  0  0  0
   -6.7197    1.9184   -1.5315 H   0  0  0  0  0  0  0  0  0  0  0  0
   -7.8727    0.4117   -2.9803 H   0  0  0  0  0  0  0  0  0  0  0  0
   -8.8057   -0.9624   -2.3742 H   0  0  0  0  0  0  0  0  0  0  0  0
   -8.5292    0.4116   -1.2966 H   0  0  0  0  0  0  0  0  0  0  0  0
   -4.7069   -1.8458   -0.9000 H   0  0  0  0  0  0  0  0  0  0  0  0
   -2.6701   -0.6340   -0.1837 H   0  0  0  0  0  0  0  0  0  0  0  0
    5.6645    0.2044   -2.6552 H   0  0  0  0  0  0  0  0  0  0  0  0
    7.7365   -1.0053   -2.0920 H   0  0  0  0  0  0  0  0  0  0  0  0
  1  2  1  0
  2  3  1  0
  3  4  2  0
  4  5  1  0
  5  6  2  0
  6  7  1  0
  7  8  1  0
  8  9  1  0
  9 10  2  0
  9 11  1  0
 11 12  2  0
 11 13  1  0
 13 14  1  0
 14 15  1  0
 15 16  1  0
 16 17  1  0
 17 18  1  0
 18 19  1  0
 19 20  1  0
 20 21  2  0
 20 22  2  0
 20 23  1  0
 23 24  2  0
 24 25  1  0
 25 26  2  0
 26 27  1  0
 27 28  1  0
 26 29  1  0
 29 30  2  0
  6 31  1  0
 31 32  2  0
 32  3  1  0
 19 15  1  0
 30 23  1  0
  1 33  1  0
  1 34  1  0
  1 35  1  0
  4 36  1  0
  5 37  1  0
  7 38  1  0
  7 39  1  0
  8 40  1  0
 13 41  1  0
 14 42  1  0
 14 43  1  0
 15 44  1  0
 17 45  1  0
 17 46  1  0
 18 47  1  0
 18 48  1  0
 24 49  1  0
 25 50  1  0
 28 51  1  0
 28 52  1  0
 28 53  1  0
 29 54  1  0
 30 55  1  0
 31 56  1  0
 32 57  1  0
M  END
$$$$
