
     RDKit          3D

 98102  0  0  0  0  0  0  0  0999 V2000
    6.9041   -5.0067    1.1797 C   0  0  0  0  0  0  0  0  0  0  0  0
    7.0011   -3.5952    0.6585 C   0  0  0  0  0  0  0  0  0  0  0  0
    7.4919   -3.4918   -0.7600 C   0  0  0  0  0  0  0  0  0  0  0  0
    6.6888   -2.5577    1.4614 C   0  0  0  0  0  0  0  0  0  0  0  0
    6.7047   -1.1109    1.1495 C   0  0  0  0  0  0  0  0  0  0  0  0
    6.9679   -0.2731    2.0018 O   0  0  0  0  0  0  0  0  0  0  0  0
    6.3318   -0.8716   -0.1331 O   0  0  0  0  0  0  0  0  0  0  0  0
    6.2866    0.5152   -0.5001 C   0  0  0  0  0  0  0  0  0  0  0  0
    4.9034    1.0929   -0.2829 C   0  0  0  0  0  0  0  0  0  0  0  0
    3.7787    0.3581   -0.3581 C   0  0  0  0  0  0  0  0  0  0  0  0
    2.4155    0.9567   -0.1413 C   0  0  0  0  0  0  0  0  0  0  0  0
    1.4378   -0.1030    0.3520 C   0  0  0  0  0  0  0  0  0  0  0  0
    1.5871   -0.7693    1.3687 O   0  0  0  0  0  0  0  0  0  0  0  0
    0.3881   -0.1959   -0.5088 O   0  0  0  0  0  0  0  0  0  0  0  0
   -0.7477   -1.0009   -0.1121 C   0  0  1  0  0  0  0  0  0  0  0  0
   -1.6989   -0.1041    0.6691 C   0  0  0  0  0  0  0  0  0  0  0  0
   -3.0842   -0.7266    0.8301 C   0  0  1  0  0  0  0  0  0  0  0  0
   -4.1143    0.2256    1.4882 C   0  0  0  0  0  0  0  0  0  0  0  0
   -4.0229    1.6619    1.0235 C   0  0  0  0  0  0  0  0  0  0  0  0
   -4.5540    2.2204   -0.0819 C   0  0  0  0  0  0  0  0  0  0  0  0
   -5.4678    1.4620   -1.0165 C   0  0  0  0  0  0  0  0  0  0  0  0
   -4.2565    3.6407   -0.5679 C   0  0  0  0  0  0  0  0  0  0  0  0
   -3.2089    4.5644    0.1268 C   0  0  1  0  0  0  0  0  0  0  0  0
   -3.7648    5.1404    1.4365 C   0  0  0  0  0  0  0  0  0  0  0  0
   -1.8369    3.9121    0.2141 C   0  0  0  0  0  0  0  0  0  0  0  0
   -1.0724    3.8097    1.3133 C   0  0  0  0  0  0  0  0  0  0  0  0
    0.1226    3.0058    1.4173 C   0  0  0  0  0  0  0  0  0  0  0  0
    1.2002    3.0107    0.6177 C   0  0  0  0  0  0  0  0  0  0  0  0
    1.4933    3.9307   -0.5347 C   0  0  0  0  0  0  0  0  0  0  0  0
    2.9175    3.8053   -0.7956 O   0  0  0  0  0  0  0  0  0  0  0  0
    3.5027    3.2041    0.4009 C   0  0  2  0  0  0  0  0  0  0  0  0
    3.7458    4.3482    1.4154 C   0  0  0  0  0  0  0  0  0  0  0  0
    4.8846    2.5597    0.0773 C   0  0  2  0  0  0  0  0  0  0  0  0
    5.5096    3.2749   -0.9943 O   0  0  0  0  0  0  0  0  0  0  0  0
    2.4395    2.1724    0.8288 C   0  0  2  0  0  0  0  0  0  0  0  0
    2.5960    1.8211    2.2008 O   0  0  0  0  0  0  0  0  0  0  0  0
   -3.6073   -1.1410   -0.4400 O   0  0  0  0  0  0  0  0  0  0  0  0
   -2.7921   -2.0919   -1.1275 C   0  0  2  0  0  0  0  0  0  0  0  0
   -3.4579   -2.4110   -2.4757 C   0  0  0  0  0  0  0  0  0  0  0  0
   -4.7657   -3.1709   -2.2900 C   0  0  0  0  0  0  0  0  0  0  0  0
   -4.5495   -4.4059   -1.4062 C   0  0  2  0  0  0  0  0  0  0  0  0
   -5.8810   -5.1187   -1.1725 C   0  0  0  0  0  0  0  0  0  0  0  0
   -3.8512   -3.9896   -0.0994 C   0  0  1  0  0  0  0  0  0  0  0  0
   -3.4769   -5.1814    0.7768 C   0  0  0  0  0  0  0  0  0  0  0  0
   -2.6221   -3.3002   -0.3819 O   0  0  0  0  0  0  0  0  0  0  0  0
   -1.4153   -1.4811   -1.3972 C   0  0  0  0  0  0  0  0  0  0  0  0
    7.8941   -5.4766    1.1768 H   0  0  0  0  0  0  0  0  0  0  0  0
    6.5159   -5.0480    2.2030 H   0  0  0  0  0  0  0  0  0  0  0  0
    6.2329   -5.5992    0.5475 H   0  0  0  0  0  0  0  0  0  0  0  0
    7.8718   -2.4942   -1.0119 H   0  0  0  0  0  0  0  0  0  0  0  0
    8.3265   -4.1882   -0.9175 H   0  0  0  0  0  0  0  0  0  0  0  0
    6.6839   -3.7524   -1.4566 H   0  0  0  0  0  0  0  0  0  0  0  0
    6.4135   -2.7405    2.4986 H   0  0  0  0  0  0  0  0  0  0  0  0
    7.0532    1.0860    0.0412 H   0  0  0  0  0  0  0  0  0  0  0  0
    6.5424    0.5832   -1.5635 H   0  0  0  0  0  0  0  0  0  0  0  0
    3.8322   -0.6942   -0.6320 H   0  0  0  0  0  0  0  0  0  0  0  0
    2.0762    1.2674   -1.1419 H   0  0  0  0  0  0  0  0  0  0  0  0
   -0.4283   -1.8615    0.4870 H   0  0  0  0  0  0  0  0  0  0  0  0
   -1.7695    0.8364    0.1102 H   0  0  0  0  0  0  0  0  0  0  0  0
   -1.2684    0.1452    1.6465 H   0  0  0  0  0  0  0  0  0  0  0  0
   -3.0127   -1.6112    1.4739 H   0  0  0  0  0  0  0  0  0  0  0  0
   -5.1305   -0.1595    1.3494 H   0  0  0  0  0  0  0  0  0  0  0  0
   -3.9398    0.2326    2.5722 H   0  0  0  0  0  0  0  0  0  0  0  0
   -3.3844    2.2580    1.6677 H   0  0  0  0  0  0  0  0  0  0  0  0
   -5.7895    0.4958   -0.6226 H   0  0  0  0  0  0  0  0  0  0  0  0
   -6.3777    2.0422   -1.2076 H   0  0  0  0  0  0  0  0  0  0  0  0
   -4.9678    1.2824   -1.9736 H   0  0  0  0  0  0  0  0  0  0  0  0
   -3.9304    3.5428   -1.6154 H   0  0  0  0  0  0  0  0  0  0  0  0
   -5.2115    4.1828   -0.6051 H   0  0  0  0  0  0  0  0  0  0  0  0
   -3.0786    5.4265   -0.5450 H   0  0  0  0  0  0  0  0  0  0  0  0
   -3.0939    5.9021    1.8471 H   0  0  0  0  0  0  0  0  0  0  0  0
   -4.7335    5.6225    1.2671 H   0  0  0  0  0  0  0  0  0  0  0  0
   -3.9073    4.3746    2.2034 H   0  0  0  0  0  0  0  0  0  0  0  0
   -1.5051    3.4354   -0.7079 H   0  0  0  0  0  0  0  0  0  0  0  0
   -1.4072    4.2320    2.2599 H   0  0  0  0  0  0  0  0  0  0  0  0
    0.1260    2.3449    2.2867 H   0  0  0  0  0  0  0  0  0  0  0  0
    0.9667    3.6315   -1.4451 H   0  0  0  0  0  0  0  0  0  0  0  0
    1.2767    4.9769   -0.3010 H   0  0  0  0  0  0  0  0  0  0  0  0
    4.1641    3.9696    2.3545 H   0  0  0  0  0  0  0  0  0  0  0  0
    4.4473    5.0801    0.9978 H   0  0  0  0  0  0  0  0  0  0  0  0
    2.8330    4.9066    1.6503 H   0  0  0  0  0  0  0  0  0  0  0  0
    5.5329    2.6628    0.9579 H   0  0  0  0  0  0  0  0  0  0  0  0
    4.7789    3.7295   -1.4614 H   0  0  0  0  0  0  0  0  0  0  0  0
    2.8686    0.8837    2.2631 H   0  0  0  0  0  0  0  0  0  0  0  0
   -3.6615   -1.4907   -3.0363 H   0  0  0  0  0  0  0  0  0  0  0  0
   -2.7870   -3.0312   -3.0837 H   0  0  0  0  0  0  0  0  0  0  0  0
   -5.1540   -3.4693   -3.2707 H   0  0  0  0  0  0  0  0  0  0  0  0
   -5.5163   -2.5084   -1.8379 H   0  0  0  0  0  0  0  0  0  0  0  0
   -3.8855   -5.0888   -1.9540 H   0  0  0  0  0  0  0  0  0  0  0  0
   -6.3628   -5.3523   -2.1294 H   0  0  0  0  0  0  0  0  0  0  0  0
   -6.5708   -4.4919   -0.5944 H   0  0  0  0  0  0  0  0  0  0  0  0
   -5.7447   -6.0653   -0.6390 H   0  0  0  0  0  0  0  0  0  0  0  0
   -4.5054   -3.3311    0.4869 H   0  0  0  0  0  0  0  0  0  0  0  0
   -2.8807   -4.8488    1.6332 H   0  0  0  0  0  0  0  0  0  0  0  0
   -2.8595   -5.8990    0.2225 H   0  0  0  0  0  0  0  0  0  0  0  0
   -4.3616   -5.6967    1.1588 H   0  0  0  0  0  0  0  0  0  0  0  0
   -0.7515   -2.2007   -1.8921 H   0  0  0  0  0  0  0  0  0  0  0  0
   -1.5107   -0.6284   -2.0833 H   0  0  0  0  0  0  0  0  0  0  0  0
  1  2  1  0
  2  3  1  0
  2  4  2  3
  4  5  1  0
  5  6  2  0
  5  7  1  0
  7  8  1  0
  8  9  1  0
  9 10  2  0
 10 11  1  0
 11 12  1  0
 12 13  2  0
 12 14  1  0
 14 15  1  0
 15 16  1  0
 16 17  1  0
 17 18  1  0
 18 19  1  0
 19 20  2  0
 20 21  1  0
 20 22  1  0
 22 23  1  0
 23 24  1  0
 23 25  1  0
 25 26  2  0
 26 27  1  0
 27 28  2  0
 28 29  1  0
 29 30  1  0
 30 31  1  0
 31 32  1  1
 31 33  1  0
 33 34  1  0
 31 35  1  0
 35 36  1  1
 17 37  1  0
 38 37  1  1
 38 39  1  0
 39 40  1  0
 40 41  1  0
 41 42  1  0
 41 43  1  0
 43 44  1  0
 43 45  1  0
 38 46  1  0
 33  9  1  0
 45 38  1  0
 35 11  1  0
 46 15  1  0
 35 28  1  0
  1 47  1  0
  1 48  1  0
  1 49  1  0
  3 50  1  0
  3 51  1  0
  3 52  1  0
  4 53  1  0
  8 54  1  0
  8 55  1  0
 10 56  1  0
 11 57  1  0
 15 58  1  1
 16 59  1  0
 16 60  1  0
 17 61  1  1
 18 62  1  0
 18 63  1  0
 19 64  1  0
 21 65  1  0
 21 66  1  0
 21 67  1  0
 22 68  1  0
 22 69  1  0
 23 70  1  6
 24 71  1  0
 24 72  1  0
 24 73  1  0
 25 74  1  0
 26 75  1  0
 27 76  1  0
 29 77  1  0
 29 78  1  0
 32 79  1  0
 32 80  1  0
 32 81  1  0
 33 82  1  1
 34 83  1  0
 36 84  1  0
 39 85  1  0
 39 86  1  0
 40 87  1  0
 40 88  1  0
 41 89  1  6
 42 90  1  0
 42 91  1  0
 42 92  1  0
 43 93  1  1
 44 94  1  0
 44 95  1  0
 44 96  1  0
 46 97  1  0
 46 98  1  0
M  END
$$$$
