
     RDKit          3D

 57 62  0  0  0  0  0  0  0  0999 V2000
    8.4006   -2.9930   -0.4045 C   0  0  0  0  0  0  0  0  0  0  0  0
    8.0057   -1.6316   -0.2854 O   0  0  0  0  0  0  0  0  0  0  0  0
    6.6687   -1.3763   -0.1901 C   0  0  0  0  0  0  0  0  0  0  0  0
    6.3429   -0.0256   -0.0563 C   0  0  0  0  0  0  0  0  0  0  0  0
    5.0103    0.3859    0.0555 C   0  0  0  0  0  0  0  0  0  0  0  0
    3.9856   -0.5581    0.0336 C   0  0  0  0  0  0  0  0  0  0  0  0
    2.4833   -0.1157    0.1580 C   0  0  0  0  0  0  0  0  0  0  0  0
    1.3705   -0.9451    0.0807 C   0  0  0  0  0  0  0  0  0  0  0  0
    0.2164   -0.1728    0.2094 N   0  0  0  0  0  4  0  0  0  0  0  0
   -1.1778   -0.6570    0.1477 C   0  0  0  0  0  0  0  0  0  0  0  0
   -2.0175    0.1234   -0.8843 C   0  0  0  0  0  0  0  0  0  0  0  0
   -1.4644    0.7830   -1.7662 O   0  0  0  0  0  0  0  0  0  0  0  0
   -3.3954    0.0952   -0.6083 N   0  0  0  0  0  0  0  0  0  0  0  0
   -4.0702   -1.1684   -0.4439 C   0  0  0  0  0  0  0  0  0  0  0  0
   -3.5634   -2.3080   -1.1083 C   0  0  0  0  0  0  0  0  0  0  0  0
   -4.1763   -3.5595   -0.9907 C   0  0  0  0  0  0  0  0  0  0  0  0
   -5.3184   -3.6977   -0.2146 C   0  0  0  0  0  0  0  0  0  0  0  0
   -5.8544   -2.5804    0.4247 C   0  0  0  0  0  0  0  0  0  0  0  0
   -5.2485   -1.3184    0.3014 C   0  0  0  0  0  0  0  0  0  0  0  0
   -6.0055    0.0333    1.1562 S   0  0  0  0  0  0  0  0  0  0  0  0
   -5.3828    1.3832    0.1839 C   0  0  0  0  0  0  0  0  0  0  0  0
   -6.1148    2.5829    0.2486 C   0  0  0  0  0  0  0  0  0  0  0  0
   -5.6596    3.7292   -0.3934 C   0  0  0  0  0  0  0  0  0  0  0  0
   -4.4625    3.6844   -1.0952 C   0  0  0  0  0  0  0  0  0  0  0  0
   -3.7294    2.4926   -1.1626 C   0  0  0  0  0  0  0  0  0  0  0  0
   -4.1744    1.3094   -0.5397 C   0  0  0  0  0  0  0  0  0  0  0  0
    0.6011    1.0939    0.3495 C   0  0  0  0  0  0  0  0  0  0  0  0
    1.9309    1.1363    0.3604 N   0  0  0  0  0  0  0  0  0  0  0  0
    2.4285    2.4923    0.5491 C   0  0  0  0  0  0  0  0  0  0  0  0
    1.1691    3.2836    0.9964 C   0  0  0  0  0  0  0  0  0  0  0  0
   -0.0237    2.4268    0.5283 C   0  0  0  0  0  0  0  0  0  0  0  0
    4.3077   -1.9139   -0.1087 C   0  0  0  0  0  0  0  0  0  0  0  0
    5.6450   -2.3204   -0.2180 C   0  0  0  0  0  0  0  0  0  0  0  0
    7.9920   -3.4429   -1.3165 H   0  0  0  0  0  0  0  0  0  0  0  0
    8.1103   -3.5654    0.4822 H   0  0  0  0  0  0  0  0  0  0  0  0
    9.4930   -3.0206   -0.4814 H   0  0  0  0  0  0  0  0  0  0  0  0
    7.1404    0.7158   -0.0417 H   0  0  0  0  0  0  0  0  0  0  0  0
    4.8204    1.4476    0.1427 H   0  0  0  0  0  0  0  0  0  0  0  0
    1.2528   -2.0052   -0.0663 H   0  0  0  0  0  0  0  0  0  0  0  0
   -1.1552   -1.7168   -0.1113 H   0  0  0  0  0  0  0  0  0  0  0  0
   -1.6038   -0.5307    1.1477 H   0  0  0  0  0  0  0  0  0  0  0  0
   -2.7167   -2.2377   -1.7896 H   0  0  0  0  0  0  0  0  0  0  0  0
   -3.7795   -4.4205   -1.5286 H   0  0  0  0  0  0  0  0  0  0  0  0
   -5.8085   -4.6657   -0.1239 H   0  0  0  0  0  0  0  0  0  0  0  0
   -6.7636   -2.7004    1.0138 H   0  0  0  0  0  0  0  0  0  0  0  0
   -7.0490    2.6332    0.8097 H   0  0  0  0  0  0  0  0  0  0  0  0
   -6.2383    4.6501   -0.3443 H   0  0  0  0  0  0  0  0  0  0  0  0
   -4.1026    4.5736   -1.6099 H   0  0  0  0  0  0  0  0  0  0  0  0
   -2.8251    2.5250   -1.7663 H   0  0  0  0  0  0  0  0  0  0  0  0
    2.8102    2.8648   -0.4057 H   0  0  0  0  0  0  0  0  0  0  0  0
    3.2028    2.5217    1.3185 H   0  0  0  0  0  0  0  0  0  0  0  0
    1.1450    4.3023    0.5962 H   0  0  0  0  0  0  0  0  0  0  0  0
    1.1601    3.3516    2.0908 H   0  0  0  0  0  0  0  0  0  0  0  0
   -0.3877    2.7438   -0.4487 H   0  0  0  0  0  0  0  0  0  0  0  0
   -0.8252    2.3515    1.2615 H   0  0  0  0  0  0  0  0  0  0  0  0
    3.5466   -2.6875   -0.1360 H   0  0  0  0  0  0  0  0  0  0  0  0
    5.8539   -3.3809   -0.3246 H   0  0  0  0  0  0  0  0  0  0  0  0
  1  2  1  0
  2  3  1  0
  3  4  2  0
  4  5  1  0
  5  6  2  0
  6  7  1  0
  7  8  2  0
  8  9  1  0
  9 10  1  0
 10 11  1  0
 11 12  2  0
 11 13  1  0
 13 14  1  0
 14 15  2  0
 15 16  1  0
 16 17  2  0
 17 18  1  0
 18 19  2  0
 19 20  1  0
 20 21  1  0
 21 22  2  0
 22 23  1  0
 23 24  2  0
 24 25  1  0
 25 26  2  0
  9 27  2  0
 27 28  1  0
 28 29  1  0
 29 30  1  0
 30 31  1  0
  6 32  1  0
 32 33  2  0
 33  3  1  0
 28  7  1  0
 26 13  1  0
 31 27  1  0
 19 14  1  0
 26 21  1  0
  1 34  1  0
  1 35  1  0
  1 36  1  0
  4 37  1  0
  5 38  1  0
  8 39  1  0
 10 40  1  0
 10 41  1  0
 15 42  1  0
 16 43  1  0
 17 44  1  0
 18 45  1  0
 22 46  1  0
 23 47  1  0
 24 48  1  0
 25 49  1  0
 29 50  1  0
 29 51  1  0
 30 52  1  0
 30 53  1  0
 31 54  1  0
 31 55  1  0
 32 56  1  0
 33 57  1  0
M  CHG  1   9   1
M  END
$$$$
