
     RDKit          3D

 67 72  0  0  0  0  0  0  0  0999 V2000
    3.4777   -0.7939   -1.9555 O   0  0  0  0  0  0  0  0  0  0  0  0
    3.0992   -1.0068   -0.7992 C   0  0  0  0  0  0  0  0  0  0  0  0
    4.1344   -1.1323    0.3269 C   0  0  0  0  0  0  0  0  0  0  0  0
    4.7522    0.2215    0.7179 C   0  0  0  0  0  0  0  0  0  0  0  0
    3.7977    1.3335    1.0906 C   0  0  0  0  0  0  0  0  0  0  0  0
    3.3627    2.2477    0.1201 C   0  0  0  0  0  0  0  0  0  0  0  0
    2.4990    3.2901    0.4628 C   0  0  0  0  0  0  0  0  0  0  0  0
    2.0536    3.4243    1.7752 C   0  0  0  0  0  0  0  0  0  0  0  0
    2.4728    2.5166    2.7459 C   0  0  0  0  0  0  0  0  0  0  0  0
    3.3440    1.4795    2.4070 C   0  0  0  0  0  0  0  0  0  0  0  0
    3.6531   -1.9042    1.4676 N   0  0  0  0  0  0  0  0  0  0  0  0
    2.3374   -1.7032    1.8476 C   0  0  0  0  0  0  0  0  0  0  0  0
    2.0874   -1.9810    3.1364 N   0  0  0  0  0  0  0  0  0  0  0  0
    0.8191   -1.8552    3.5217 C   0  0  0  0  0  0  0  0  0  0  0  0
   -0.1929   -1.4262    2.7632 N   0  0  0  0  0  0  0  0  0  0  0  0
    0.0851   -1.0985    1.4827 C   0  0  0  0  0  0  0  0  0  0  0  0
   -0.9399   -0.4492    0.7579 N   0  0  0  0  0  0  0  0  0  0  0  0
   -2.3079   -0.7491    1.2462 C   0  0  0  0  0  0  0  0  0  0  0  0
   -3.3500   -0.0691    0.3263 C   0  0  0  0  0  0  0  0  0  0  0  0
   -3.1318    1.3977    0.2768 N   0  0  0  0  0  0  0  0  0  0  0  0
   -4.0993    2.1833   -0.3756 C   0  0  0  0  0  0  0  0  0  0  0  0
   -4.1194    3.5726   -0.1571 C   0  0  0  0  0  0  0  0  0  0  0  0
   -5.0531    4.4040   -0.7838 C   0  0  0  0  0  0  0  0  0  0  0  0
   -6.0001    3.8602   -1.6439 C   0  0  0  0  0  0  0  0  0  0  0  0
   -6.0156    2.4872   -1.8653 C   0  0  0  0  0  0  0  0  0  0  0  0
   -5.0800    1.6597   -1.2313 C   0  0  0  0  0  0  0  0  0  0  0  0
   -1.7387    1.7531   -0.1121 C   0  0  0  0  0  0  0  0  0  0  0  0
   -0.6988    1.0199    0.7664 C   0  0  0  0  0  0  0  0  0  0  0  0
    1.3651   -1.2903    0.9320 C   0  0  0  0  0  0  0  0  0  0  0  0
    1.7486   -1.0819   -0.4445 N   0  0  0  0  0  0  0  0  0  0  0  0
    0.7917   -1.2082   -1.5386 C   0  0  0  0  0  0  0  0  0  0  0  0
    0.6430   -2.6431   -2.0092 C   0  0  0  0  0  0  0  0  0  0  0  0
    1.3544   -3.1003   -3.1316 C   0  0  0  0  0  0  0  0  0  0  0  0
    1.2261   -4.4214   -3.5660 C   0  0  0  0  0  0  0  0  0  0  0  0
    0.3940   -5.2977   -2.8729 C   0  0  0  0  0  0  0  0  0  0  0  0
    0.2269   -7.0893   -3.4564 Br  0  0  0  0  0  0  0  0  0  0  0  0
   -0.3126   -4.8645   -1.7511 C   0  0  0  0  0  0  0  0  0  0  0  0
   -0.1889   -3.5407   -1.3224 C   0  0  0  0  0  0  0  0  0  0  0  0
    4.9463   -1.7392   -0.0965 H   0  0  0  0  0  0  0  0  0  0  0  0
    5.3686    0.5754   -0.1212 H   0  0  0  0  0  0  0  0  0  0  0  0
    5.4584    0.0764    1.5467 H   0  0  0  0  0  0  0  0  0  0  0  0
    3.7013    2.1589   -0.9113 H   0  0  0  0  0  0  0  0  0  0  0  0
    2.1783    3.9974   -0.2979 H   0  0  0  0  0  0  0  0  0  0  0  0
    1.3832    4.2360    2.0436 H   0  0  0  0  0  0  0  0  0  0  0  0
    2.1264    2.6167    3.7708 H   0  0  0  0  0  0  0  0  0  0  0  0
    3.6644    0.7847    3.1816 H   0  0  0  0  0  0  0  0  0  0  0  0
    4.2587   -2.0189    2.2708 H   0  0  0  0  0  0  0  0  0  0  0  0
    0.5886   -2.1128    4.5493 H   0  0  0  0  0  0  0  0  0  0  0  0
   -2.4525   -0.3853    2.2736 H   0  0  0  0  0  0  0  0  0  0  0  0
   -2.4837   -1.8317    1.2319 H   0  0  0  0  0  0  0  0  0  0  0  0
   -3.2636   -0.4972   -0.6810 H   0  0  0  0  0  0  0  0  0  0  0  0
   -4.3501   -0.2887    0.7194 H   0  0  0  0  0  0  0  0  0  0  0  0
   -3.4115    4.0219    0.5354 H   0  0  0  0  0  0  0  0  0  0  0  0
   -5.0428    5.4730   -0.5895 H   0  0  0  0  0  0  0  0  0  0  0  0
   -6.7275    4.5022   -2.1330 H   0  0  0  0  0  0  0  0  0  0  0  0
   -6.7565    2.0534   -2.5319 H   0  0  0  0  0  0  0  0  0  0  0  0
   -5.1313    0.5965   -1.4442 H   0  0  0  0  0  0  0  0  0  0  0  0
   -1.5761    1.4848   -1.1664 H   0  0  0  0  0  0  0  0  0  0  0  0
   -1.5547    2.8289   -0.0098 H   0  0  0  0  0  0  0  0  0  0  0  0
   -0.7585    1.4061    1.7944 H   0  0  0  0  0  0  0  0  0  0  0  0
    0.2968    1.2541    0.3732 H   0  0  0  0  0  0  0  0  0  0  0  0
   -0.1912   -0.8002   -1.3180 H   0  0  0  0  0  0  0  0  0  0  0  0
    1.1379   -0.5956   -2.3816 H   0  0  0  0  0  0  0  0  0  0  0  0
    2.0182   -2.4273   -3.6736 H   0  0  0  0  0  0  0  0  0  0  0  0
    1.7795   -4.7525   -4.4426 H   0  0  0  0  0  0  0  0  0  0  0  0
   -0.9578   -5.5452   -1.2016 H   0  0  0  0  0  0  0  0  0  0  0  0
   -0.7453   -3.2164   -0.4452 H   0  0  0  0  0  0  0  0  0  0  0  0
  1  2  2  0
  2  3  1  0
  3  4  1  0
  4  5  1  0
  5  6  2  0
  6  7  1  0
  7  8  2  0
  8  9  1  0
  9 10  2  0
  3 11  1  0
 11 12  1  0
 12 13  2  0
 13 14  1  0
 14 15  2  0
 15 16  1  0
 16 17  1  0
 17 18  1  0
 18 19  1  0
 19 20  1  0
 20 21  1  0
 21 22  2  0
 22 23  1  0
 23 24  2  0
 24 25  1  0
 25 26  2  0
 20 27  1  0
 27 28  1  0
 16 29  2  0
 29 30  1  0
 30 31  1  0
 31 32  1  0
 32 33  2  0
 33 34  1  0
 34 35  2  0
 35 36  1  0
 35 37  1  0
 37 38  2  0
 30  2  1  0
 38 32  1  0
 10  5  1  0
 29 12  1  0
 28 17  1  0
 26 21  1  0
  3 39  1  0
  4 40  1  0
  4 41  1  0
  6 42  1  0
  7 43  1  0
  8 44  1  0
  9 45  1  0
 10 46  1  0
 11 47  1  0
 14 48  1  0
 18 49  1  0
 18 50  1  0
 19 51  1  0
 19 52  1  0
 22 53  1  0
 23 54  1  0
 24 55  1  0
 25 56  1  0
 26 57  1  0
 27 58  1  0
 27 59  1  0
 28 60  1  0
 28 61  1  0
 31 62  1  0
 31 63  1  0
 33 64  1  0
 34 65  1  0
 37 66  1  0
 38 67  1  0
M  END
$$$$
