
     RDKit          3D

 54 57  0  0  0  0  0  0  0  0999 V2000
    6.1153    2.4205    2.2241 C   0  0  0  0  0  0  0  0  0  0  0  0
    6.6753    1.1817    1.5206 C   0  0  0  0  0  0  0  0  0  0  0  0
    7.4285    0.2877    2.5088 C   0  0  0  0  0  0  0  0  0  0  0  0
    5.5866    0.4151    0.7919 C   0  0  0  0  0  0  0  0  0  0  0  0
    5.6446    0.2743   -0.6010 C   0  0  0  0  0  0  0  0  0  0  0  0
    4.6525   -0.4269   -1.2978 C   0  0  0  0  0  0  0  0  0  0  0  0
    3.5816   -1.0010   -0.6156 C   0  0  0  0  0  0  0  0  0  0  0  0
    2.5440   -1.7224   -1.2364 N   0  0  0  0  0  0  0  0  0  0  0  0
    2.3478   -1.9391   -2.5887 C   0  0  0  0  0  0  0  0  0  0  0  0
    3.0525   -1.5276   -3.5064 O   0  0  0  0  0  0  0  0  0  0  0  0
    1.1088   -2.7951   -2.8804 C   0  0  0  0  0  0  0  0  0  0  0  0
   -0.1277   -2.0901   -2.7489 O   0  0  0  0  0  0  0  0  0  0  0  0
   -0.5835   -1.9482   -1.4832 C   0  0  0  0  0  0  0  0  0  0  0  0
   -0.0136   -2.3465   -0.4783 O   0  0  0  0  0  0  0  0  0  0  0  0
   -1.8826   -1.2243   -1.4612 C   0  0  0  0  0  0  0  0  0  0  0  0
   -2.4851   -0.7234   -2.6207 C   0  0  0  0  0  0  0  0  0  0  0  0
   -3.7095   -0.0468   -2.5430 C   0  0  0  0  0  0  0  0  0  0  0  0
   -4.3547    0.1430   -1.3098 C   0  0  0  0  0  0  0  0  0  0  0  0
   -3.7455   -0.3589   -0.1693 C   0  0  0  0  0  0  0  0  0  0  0  0
   -2.5185   -1.0383   -0.2293 C   0  0  0  0  0  0  0  0  0  0  0  0
   -4.4970   -0.1617    1.3973 S   0  0  0  0  0  6  0  0  0  0  0  0
   -4.8791   -1.4904    1.8306 O   0  0  0  0  0  0  0  0  0  0  0  0
   -3.5989    0.6692    2.1735 O   0  0  0  0  0  0  0  0  0  0  0  0
   -5.9772    0.7464    1.2063 C   0  0  0  0  0  0  0  0  0  0  0  0
   -6.7207    1.0447    2.3567 C   0  0  0  0  0  0  0  0  0  0  0  0
   -7.9074    1.7647    2.2437 C   0  0  0  0  0  0  0  0  0  0  0  0
   -8.3453    2.1818    0.9892 C   0  0  0  0  0  0  0  0  0  0  0  0
   -7.5954    1.8790   -0.1512 C   0  0  0  0  0  0  0  0  0  0  0  0
   -6.3961    1.1545   -0.0525 C   0  0  0  0  0  0  0  0  0  0  0  0
   -5.6474    0.8675   -1.2986 C   0  0  0  0  0  0  0  0  0  0  0  0
   -6.1140    1.2470   -2.3696 O   0  0  0  0  0  0  0  0  0  0  0  0
    3.5190   -0.8657    0.7754 C   0  0  0  0  0  0  0  0  0  0  0  0
    4.5089   -0.1651    1.4724 C   0  0  0  0  0  0  0  0  0  0  0  0
    5.5876    3.0685    1.5153 H   0  0  0  0  0  0  0  0  0  0  0  0
    6.9241    3.0058    2.6749 H   0  0  0  0  0  0  0  0  0  0  0  0
    5.4123    2.1562    3.0216 H   0  0  0  0  0  0  0  0  0  0  0  0
    7.4082    1.5341    0.7825 H   0  0  0  0  0  0  0  0  0  0  0  0
    7.8386   -0.5945    2.0048 H   0  0  0  0  0  0  0  0  0  0  0  0
    6.7813   -0.0624    3.3204 H   0  0  0  0  0  0  0  0  0  0  0  0
    8.2635    0.8331    2.9618 H   0  0  0  0  0  0  0  0  0  0  0  0
    6.4663    0.7101   -1.1657 H   0  0  0  0  0  0  0  0  0  0  0  0
    4.7511   -0.5060   -2.3756 H   0  0  0  0  0  0  0  0  0  0  0  0
    1.8176   -2.0808   -0.6147 H   0  0  0  0  0  0  0  0  0  0  0  0
    1.1761   -3.1387   -3.9187 H   0  0  0  0  0  0  0  0  0  0  0  0
    1.1203   -3.6983   -2.2575 H   0  0  0  0  0  0  0  0  0  0  0  0
   -2.0170   -0.8456   -3.5959 H   0  0  0  0  0  0  0  0  0  0  0  0
   -4.1565    0.3345   -3.4619 H   0  0  0  0  0  0  0  0  0  0  0  0
   -2.0648   -1.4204    0.6858 H   0  0  0  0  0  0  0  0  0  0  0  0
   -6.3781    0.7177    3.3374 H   0  0  0  0  0  0  0  0  0  0  0  0
   -8.4907    2.0002    3.1313 H   0  0  0  0  0  0  0  0  0  0  0  0
   -9.2720    2.7442    0.8947 H   0  0  0  0  0  0  0  0  0  0  0  0
   -7.9575    2.2161   -1.1223 H   0  0  0  0  0  0  0  0  0  0  0  0
    2.6970   -1.3012    1.3387 H   0  0  0  0  0  0  0  0  0  0  0  0
    4.4265   -0.0782    2.5532 H   0  0  0  0  0  0  0  0  0  0  0  0
  1  2  1  0
  2  3  1  0
  2  4  1  0
  4  5  2  0
  5  6  1  0
  6  7  2  0
  7  8  1  0
  8  9  1  0
  9 10  2  0
  9 11  1  0
 11 12  1  0
 12 13  1  0
 13 14  2  0
 13 15  1  0
 15 16  2  0
 16 17  1  0
 17 18  2  0
 18 19  1  0
 19 20  2  0
 19 21  1  0
 21 22  2  0
 21 23  2  0
 21 24  1  0
 24 25  2  0
 25 26  1  0
 26 27  2  0
 27 28  1  0
 28 29  2  0
 29 30  1  0
 30 31  2  0
  7 32  1  0
 32 33  2  0
 33  4  1  0
 20 15  1  0
 29 24  1  0
 30 18  1  0
  1 34  1  0
  1 35  1  0
  1 36  1  0
  2 37  1  0
  3 38  1  0
  3 39  1  0
  3 40  1  0
  5 41  1  0
  6 42  1  0
  8 43  1  0
 11 44  1  0
 11 45  1  0
 16 46  1  0
 17 47  1  0
 20 48  1  0
 25 49  1  0
 26 50  1  0
 27 51  1  0
 28 52  1  0
 32 53  1  0
 33 54  1  0
M  END
$$$$
