
     RDKit          3D

 26 27  0  0  0  0  0  0  0  0999 V2000
    0.7744    2.4503    0.5765 O   0  0  0  0  0  0  0  0  0  0  0  0
    1.2967    1.4064    0.1985 C   0  0  0  0  0  0  0  0  0  0  0  0
    2.7267    1.3703   -0.2950 C   0  0  0  0  0  0  0  0  0  0  0  0
    3.5077    0.2724    0.4157 C   0  0  0  0  0  0  0  0  0  0  0  0
    2.8439   -1.0883    0.2472 C   0  0  0  0  0  0  0  0  0  0  0  0
    1.4119   -1.0442    0.7340 C   0  0  0  0  0  0  0  0  0  0  0  0
    0.9733   -1.8806    1.5178 O   0  0  0  0  0  0  0  0  0  0  0  0
    0.5865    0.0904    0.2162 C   0  0  0  0  0  0  0  0  0  0  0  0
   -0.6476   -0.0845   -0.3059 C   0  0  0  0  0  0  0  0  0  0  0  0
   -1.3915   -1.6648   -0.4354 S   0  0  0  0  0  0  0  0  0  0  0  0
   -2.8500   -1.3952    0.6156 C   0  0  0  0  0  0  0  0  0  0  0  0
   -3.4475    0.0120    0.5719 C   0  0  0  0  0  0  0  0  0  0  0  0
   -3.2665    0.7310   -0.7586 C   0  0  0  0  0  0  0  0  0  0  0  0
   -1.5411    1.2305   -1.0539 S   0  0  0  0  0  0  0  0  0  0  0  0
    3.1938    2.3412   -0.0970 H   0  0  0  0  0  0  0  0  0  0  0  0
    2.7173    1.2170   -1.3797 H   0  0  0  0  0  0  0  0  0  0  0  0
    3.5745    0.5114    1.4850 H   0  0  0  0  0  0  0  0  0  0  0  0
    4.5310    0.2353    0.0264 H   0  0  0  0  0  0  0  0  0  0  0  0
    3.3916   -1.8388    0.8275 H   0  0  0  0  0  0  0  0  0  0  0  0
    2.8455   -1.4070   -0.8010 H   0  0  0  0  0  0  0  0  0  0  0  0
   -3.6068   -2.1162    0.2871 H   0  0  0  0  0  0  0  0  0  0  0  0
   -2.5962   -1.6552    1.6490 H   0  0  0  0  0  0  0  0  0  0  0  0
   -3.0225    0.6170    1.3841 H   0  0  0  0  0  0  0  0  0  0  0  0
   -4.5188   -0.0645    0.7967 H   0  0  0  0  0  0  0  0  0  0  0  0
   -3.6149    0.1102   -1.5913 H   0  0  0  0  0  0  0  0  0  0  0  0
   -3.8713    1.6438   -0.7647 H   0  0  0  0  0  0  0  0  0  0  0  0
  1  2  2  0
  2  3  1  0
  3  4  1  0
  4  5  1  0
  5  6  1  0
  6  7  2  0
  6  8  1  0
  8  9  2  3
  9 10  1  0
 10 11  1  0
 11 12  1  0
 12 13  1  0
 13 14  1  0
  8  2  1  0
 14  9  1  0
  3 15  1  0
  3 16  1  0
  4 17  1  0
  4 18  1  0
  5 19  1  0
  5 20  1  0
 11 21  1  0
 11 22  1  0
 12 23  1  0
 12 24  1  0
 13 25  1  0
 13 26  1  0
M  END
$$$$
