
     RDKit          3D

 43 46  0  0  0  0  0  0  0  0999 V2000
    2.0482   -2.4804   -0.1220 O   0  0  0  0  0  0  0  0  0  0  0  0
    2.5025   -1.8535    0.8360 C   0  0  0  0  0  0  0  0  0  0  0  0
    2.0596   -2.1093    2.2673 C   0  0  0  0  0  0  0  0  0  0  0  0
    0.2424   -2.2083    2.3610 S   0  0  0  0  0  0  0  0  0  0  0  0
   -0.1592   -0.6040    1.8546 C   0  0  0  0  0  0  0  0  0  0  0  0
    0.6172    0.4437    1.9859 N   0  0  0  0  0  0  0  0  0  0  0  0
   -0.0529    1.5212    1.4706 N   0  0  0  0  0  0  0  0  0  0  0  0
   -1.2210    1.1110    1.0077 C   0  0  0  0  0  0  0  0  0  0  0  0
   -2.2303    1.9760    0.4152 C   0  0  0  0  0  0  0  0  0  0  0  0
   -2.7432    1.7682   -0.8661 C   0  0  0  0  0  0  0  0  0  0  0  0
   -3.7119    2.6331   -1.3727 C   0  0  0  0  0  0  0  0  0  0  0  0
   -4.1312    3.6893   -0.5808 C   0  0  0  0  0  0  0  0  0  0  0  0
   -3.6475    3.9353    0.6549 N   0  0  0  0  0  0  0  0  0  0  0  0
   -2.6991    3.0834    1.1162 C   0  0  0  0  0  0  0  0  0  0  0  0
   -1.3300   -0.2471    1.2436 N   0  0  0  0  0  0  0  0  0  0  0  0
   -2.4899   -1.0852    1.0047 C   0  0  0  0  0  0  0  0  0  0  0  0
   -2.4668   -1.6847   -0.3538 C   0  0  0  0  0  0  0  0  0  0  0  0
   -1.5278   -2.3787   -1.0913 C   0  0  0  0  0  0  0  0  0  0  0  0
   -2.1374   -2.6863   -2.3317 C   0  0  0  0  0  0  0  0  0  0  0  0
   -3.4092   -2.1701   -2.2729 C   0  0  0  0  0  0  0  0  0  0  0  0
   -3.6185   -1.5610   -1.0783 O   0  0  0  0  0  0  0  0  0  0  0  0
    3.5263   -0.8042    0.5720 C   0  0  0  0  0  0  0  0  0  0  0  0
    4.4983   -0.4550    1.5148 C   0  0  0  0  0  0  0  0  0  0  0  0
    5.4363    0.5378    1.2132 C   0  0  0  0  0  0  0  0  0  0  0  0
    5.4132    1.1801   -0.0292 C   0  0  0  0  0  0  0  0  0  0  0  0
    6.6076    2.3913   -0.3288 Cl  0  0  0  0  0  0  0  0  0  0  0  0
    4.4485    0.8239   -0.9774 C   0  0  0  0  0  0  0  0  0  0  0  0
    4.3647    1.5652   -2.5358 Cl  0  0  0  0  0  0  0  0  0  0  0  0
    3.5109   -0.1686   -0.6774 C   0  0  0  0  0  0  0  0  0  0  0  0
    2.3952   -1.3279    2.9528 H   0  0  0  0  0  0  0  0  0  0  0  0
    2.4910   -3.0601    2.5943 H   0  0  0  0  0  0  0  0  0  0  0  0
   -2.3858    0.9524   -1.4885 H   0  0  0  0  0  0  0  0  0  0  0  0
   -4.1234    2.4892   -2.3657 H   0  0  0  0  0  0  0  0  0  0  0  0
   -4.8835    4.3897   -0.9325 H   0  0  0  0  0  0  0  0  0  0  0  0
   -2.3169    3.3236    2.1060 H   0  0  0  0  0  0  0  0  0  0  0  0
   -2.5280   -1.8683    1.7680 H   0  0  0  0  0  0  0  0  0  0  0  0
   -3.3840   -0.4690    1.1517 H   0  0  0  0  0  0  0  0  0  0  0  0
   -0.5225   -2.6358   -0.7824 H   0  0  0  0  0  0  0  0  0  0  0  0
   -1.7021   -3.2231   -3.1633 H   0  0  0  0  0  0  0  0  0  0  0  0
   -4.2437   -2.1540   -2.9603 H   0  0  0  0  0  0  0  0  0  0  0  0
    4.5580   -0.9443    2.4831 H   0  0  0  0  0  0  0  0  0  0  0  0
    6.1876    0.8069    1.9531 H   0  0  0  0  0  0  0  0  0  0  0  0
    2.7583   -0.4426   -1.4151 H   0  0  0  0  0  0  0  0  0  0  0  0
  1  2  2  0
  2  3  1  0
  3  4  1  0
  4  5  1  0
  5  6  2  0
  6  7  1  0
  7  8  2  0
  8  9  1  0
  9 10  2  0
 10 11  1  0
 11 12  2  0
 12 13  1  0
 13 14  2  0
  8 15  1  0
 15 16  1  0
 16 17  1  0
 17 18  2  0
 18 19  1  0
 19 20  2  0
 20 21  1  0
  2 22  1  0
 22 23  2  0
 23 24  1  0
 24 25  2  0
 25 26  1  0
 25 27  1  0
 27 28  1  0
 27 29  2  0
 15  5  1  0
 21 17  1  0
 29 22  1  0
 14  9  1  0
  3 30  1  0
  3 31  1  0
 10 32  1  0
 11 33  1  0
 12 34  1  0
 14 35  1  0
 16 36  1  0
 16 37  1  0
 18 38  1  0
 19 39  1  0
 20 40  1  0
 23 41  1  0
 24 42  1  0
 29 43  1  0
M  END
$$$$
