
     RDKit          3D

 39 40  0  0  0  0  0  0  0  0999 V2000
   -1.3014    1.8729    0.8236 O   0  0  0  0  0  0  0  0  0  0  0  0
   -1.3856    0.7130    0.4412 C   0  0  0  0  0  0  0  0  0  0  0  0
   -0.1692   -0.0772   -0.0209 C   0  0  0  0  0  0  0  0  0  0  0  0
    1.1182    0.7364    0.0573 C   0  0  0  0  0  0  0  0  0  0  0  0
    2.3227   -0.0718   -0.4165 C   0  0  0  0  0  0  0  0  0  0  0  0
    3.4747    0.7641   -0.3235 O   0  0  0  0  0  0  0  0  0  0  0  0
    4.6743    0.2165   -0.6859 C   0  0  0  0  0  0  0  0  0  0  0  0
    4.8745   -1.0746   -1.1758 C   0  0  0  0  0  0  0  0  0  0  0  0
    6.1618   -1.5071   -1.5108 C   0  0  0  0  0  0  0  0  0  0  0  0
    7.2524   -0.6530   -1.3561 C   0  0  0  0  0  0  0  0  0  0  0  0
    7.0581    0.6364   -0.8674 C   0  0  0  0  0  0  0  0  0  0  0  0
    5.7728    1.0667   -0.5347 C   0  0  0  0  0  0  0  0  0  0  0  0
   -2.5415   -0.0511    0.3573 N   0  0  0  0  0  0  0  0  0  0  0  0
   -3.8636    0.3177    0.7115 C   0  0  0  0  0  0  0  0  0  0  0  0
   -4.1606    1.5709    1.2650 C   0  0  0  0  0  0  0  0  0  0  0  0
   -5.4681    1.9193    1.6176 C   0  0  0  0  0  0  0  0  0  0  0  0
   -6.5074    1.0208    1.4218 C   0  0  0  0  0  0  0  0  0  0  0  0
   -6.2362   -0.2273    0.8711 C   0  0  0  0  0  0  0  0  0  0  0  0
   -4.9205   -0.5973    0.5140 C   0  0  0  0  0  0  0  0  0  0  0  0
   -4.7367   -1.9595   -0.1045 C   0  0  0  0  0  0  0  0  0  0  0  0
   -5.4110   -2.9417    0.5594 F   0  0  0  0  0  0  0  0  0  0  0  0
   -5.1778   -2.0092   -1.3927 F   0  0  0  0  0  0  0  0  0  0  0  0
   -3.4351   -2.3769   -0.1491 F   0  0  0  0  0  0  0  0  0  0  0  0
   -0.0817   -0.9704    0.6088 H   0  0  0  0  0  0  0  0  0  0  0  0
   -0.3425   -0.4000   -1.0549 H   0  0  0  0  0  0  0  0  0  0  0  0
    1.0307    1.6497   -0.5463 H   0  0  0  0  0  0  0  0  0  0  0  0
    1.2906    1.0790    1.0864 H   0  0  0  0  0  0  0  0  0  0  0  0
    2.4454   -0.9532    0.2254 H   0  0  0  0  0  0  0  0  0  0  0  0
    2.1678   -0.3829   -1.4558 H   0  0  0  0  0  0  0  0  0  0  0  0
    4.0538   -1.7699   -1.3102 H   0  0  0  0  0  0  0  0  0  0  0  0
    6.3131   -2.5133   -1.8933 H   0  0  0  0  0  0  0  0  0  0  0  0
    8.2518   -0.9919   -1.6160 H   0  0  0  0  0  0  0  0  0  0  0  0
    7.9039    1.3071   -0.7424 H   0  0  0  0  0  0  0  0  0  0  0  0
    5.6241    2.0739   -0.1523 H   0  0  0  0  0  0  0  0  0  0  0  0
   -2.4121   -0.9973    0.0092 H   0  0  0  0  0  0  0  0  0  0  0  0
   -3.3904    2.3141    1.4459 H   0  0  0  0  0  0  0  0  0  0  0  0
   -5.6659    2.8988    2.0464 H   0  0  0  0  0  0  0  0  0  0  0  0
   -7.5239    1.2927    1.6944 H   0  0  0  0  0  0  0  0  0  0  0  0
   -7.0597   -0.9245    0.7163 H   0  0  0  0  0  0  0  0  0  0  0  0
  1  2  2  0
  2  3  1  0
  3  4  1  0
  4  5  1  0
  5  6  1  0
  6  7  1  0
  7  8  2  0
  8  9  1  0
  9 10  2  0
 10 11  1  0
 11 12  2  0
  2 13  1  0
 13 14  1  0
 14 15  2  0
 15 16  1  0
 16 17  2  0
 17 18  1  0
 18 19  2  0
 19 20  1  0
 20 21  1  0
 20 22  1  0
 20 23  1  0
 12  7  1  0
 19 14  1  0
  3 24  1  0
  3 25  1  0
  4 26  1  0
  4 27  1  0
  5 28  1  0
  5 29  1  0
  8 30  1  0
  9 31  1  0
 10 32  1  0
 11 33  1  0
 12 34  1  0
 13 35  1  0
 15 36  1  0
 16 37  1  0
 17 38  1  0
 18 39  1  0
M  END
$$$$
