
     RDKit          3D

 46 48  0  0  0  0  0  0  0  0999 V2000
   -2.3727    2.5496    0.9103 C   0  0  0  0  0  0  0  0  0  0  0  0
   -2.2771    1.1684    1.5361 C   0  0  0  0  0  0  0  0  0  0  0  0
   -2.7261    0.1318    0.5546 N   0  0  0  0  0  4  0  0  0  0  0  0
   -1.7922   -0.5148   -0.2091 C   0  0  0  0  0  0  0  0  0  0  0  0
   -0.3749   -0.1334   -0.1488 C   0  0  0  0  0  0  0  0  0  0  0  0
    0.5852   -0.9802    0.2628 C   0  0  0  0  0  0  0  0  0  0  0  0
    2.0017   -0.6066    0.4090 C   0  0  0  0  0  0  0  0  0  0  0  0
    2.7829   -1.2887    1.3514 C   0  0  0  0  0  0  0  0  0  0  0  0
    4.1282   -0.9509    1.5606 C   0  0  0  0  0  0  0  0  0  0  0  0
    4.7221    0.0724    0.8210 C   0  0  0  0  0  0  0  0  0  0  0  0
    6.0058    0.5166    0.9819 O   0  0  0  0  0  0  0  0  0  0  0  0
    6.7957   -0.0993    1.9911 C   0  0  0  0  0  0  0  0  0  0  0  0
    3.9563    0.7136   -0.1633 C   0  0  0  0  0  0  0  0  0  0  0  0
    4.4635    1.7380   -0.9257 O   0  0  0  0  0  0  0  0  0  0  0  0
    5.2988    1.2235   -1.9653 C   0  0  0  0  0  0  0  0  0  0  0  0
    2.6095    0.3913   -0.3607 C   0  0  0  0  0  0  0  0  0  0  0  0
   -2.1690   -1.5318   -1.0879 C   0  0  0  0  0  0  0  0  0  0  0  0
   -3.4954   -1.9031   -1.1928 C   0  0  0  0  0  0  0  0  0  0  0  0
   -4.4503   -1.2444   -0.4284 C   0  0  0  0  0  0  0  0  0  0  0  0
   -5.7985   -1.6144   -0.5394 C   0  0  0  0  0  0  0  0  0  0  0  0
   -6.7759   -0.9656    0.2090 C   0  0  0  0  0  0  0  0  0  0  0  0
   -6.4172    0.0633    1.0698 C   0  0  0  0  0  0  0  0  0  0  0  0
   -5.0763    0.4420    1.1924 C   0  0  0  0  0  0  0  0  0  0  0  0
   -4.0592   -0.2010    0.4575 C   0  0  0  0  0  0  0  0  0  0  0  0
   -2.0389    3.3107    1.6209 H   0  0  0  0  0  0  0  0  0  0  0  0
   -3.3964    2.7896    0.6156 H   0  0  0  0  0  0  0  0  0  0  0  0
   -1.7497    2.6259    0.0142 H   0  0  0  0  0  0  0  0  0  0  0  0
   -2.8784    1.0810    2.4464 H   0  0  0  0  0  0  0  0  0  0  0  0
   -1.2541    0.9525    1.8582 H   0  0  0  0  0  0  0  0  0  0  0  0
   -0.1459    0.8922   -0.4269 H   0  0  0  0  0  0  0  0  0  0  0  0
    0.3413   -1.9997    0.5626 H   0  0  0  0  0  0  0  0  0  0  0  0
    2.3540   -2.0834    1.9566 H   0  0  0  0  0  0  0  0  0  0  0  0
    4.6787   -1.5004    2.3193 H   0  0  0  0  0  0  0  0  0  0  0  0
    6.9811   -1.1505    1.7511 H   0  0  0  0  0  0  0  0  0  0  0  0
    7.7617    0.4117    2.0192 H   0  0  0  0  0  0  0  0  0  0  0  0
    6.3364    0.0076    2.9779 H   0  0  0  0  0  0  0  0  0  0  0  0
    4.7070    0.6372   -2.6756 H   0  0  0  0  0  0  0  0  0  0  0  0
    5.7281    2.0774   -2.5030 H   0  0  0  0  0  0  0  0  0  0  0  0
    6.1322    0.6238   -1.5750 H   0  0  0  0  0  0  0  0  0  0  0  0
    2.0656    0.9303   -1.1313 H   0  0  0  0  0  0  0  0  0  0  0  0
   -1.4259   -2.0383   -1.7037 H   0  0  0  0  0  0  0  0  0  0  0  0
   -3.7731   -2.7020   -1.8825 H   0  0  0  0  0  0  0  0  0  0  0  0
   -6.1060   -2.4167   -1.2118 H   0  0  0  0  0  0  0  0  0  0  0  0
   -7.8195   -1.2612    0.1150 H   0  0  0  0  0  0  0  0  0  0  0  0
   -7.1849    0.5745    1.6497 H   0  0  0  0  0  0  0  0  0  0  0  0
   -4.8781    1.2612    1.8777 H   0  0  0  0  0  0  0  0  0  0  0  0
  1  2  1  0
  2  3  1  0
  3  4  2  0
  4  5  1  0
  5  6  2  3
  6  7  1  0
  7  8  2  0
  8  9  1  0
  9 10  2  0
 10 11  1  0
 11 12  1  0
 10 13  1  0
 13 14  1  0
 14 15  1  0
 13 16  2  0
  4 17  1  0
 17 18  2  0
 18 19  1  0
 19 20  2  0
 20 21  1  0
 21 22  2  0
 22 23  1  0
 23 24  2  0
 24  3  1  0
 16  7  1  0
 24 19  1  0
  1 25  1  0
  1 26  1  0
  1 27  1  0
  2 28  1  0
  2 29  1  0
  5 30  1  0
  6 31  1  0
  8 32  1  0
  9 33  1  0
 12 34  1  0
 12 35  1  0
 12 36  1  0
 15 37  1  0
 15 38  1  0
 15 39  1  0
 16 40  1  0
 17 41  1  0
 18 42  1  0
 20 43  1  0
 21 44  1  0
 22 45  1  0
 23 46  1  0
M  CHG  1   3   1
M  END
$$$$
