
     RDKit          3D

 63 67  0  0  0  0  0  0  0  0999 V2000
    4.0347    5.9258   -2.7021 C   0  0  0  0  0  0  0  0  0  0  0  0
    3.6463    5.3605   -1.4566 O   0  0  0  0  0  0  0  0  0  0  0  0
    3.6912    3.9976   -1.3555 C   0  0  0  0  0  0  0  0  0  0  0  0
    4.0575    3.1107   -2.3674 C   0  0  0  0  0  0  0  0  0  0  0  0
    4.0577    1.7307   -2.1278 C   0  0  0  0  0  0  0  0  0  0  0  0
    3.6943    1.2197   -0.8743 C   0  0  0  0  0  0  0  0  0  0  0  0
    3.6786   -0.2281   -0.6262 C   0  0  0  0  0  0  0  0  0  0  0  0
    5.1549   -1.0876   -0.7402 S   0  0  0  0  0  0  0  0  0  0  0  0
    4.4240   -2.5837   -0.3257 C   0  0  0  0  0  0  0  0  0  0  0  0
    5.0633   -3.8334   -0.2130 C   0  0  0  0  0  0  0  0  0  0  0  0
    4.3088   -4.9605    0.1319 C   0  0  0  0  0  0  0  0  0  0  0  0
    2.9438   -4.8548    0.3589 C   0  0  0  0  0  0  0  0  0  0  0  0
    2.1021   -5.8787    0.6979 O   0  0  0  0  0  0  0  0  0  0  0  0
    2.6786   -7.1722    0.8266 C   0  0  0  0  0  0  0  0  0  0  0  0
    2.3210   -3.6061    0.2433 C   0  0  0  0  0  0  0  0  0  0  0  0
    3.0556   -2.4396   -0.0980 C   0  0  0  0  0  0  0  0  0  0  0  0
    2.6314   -1.0657   -0.2695 C   0  0  0  0  0  0  0  0  0  0  0  0
    1.2685   -0.5691   -0.0999 C   0  0  0  0  0  0  0  0  0  0  0  0
    0.5494   -0.0722   -1.1924 C   0  0  0  0  0  0  0  0  0  0  0  0
   -0.7556    0.4051   -1.0244 C   0  0  0  0  0  0  0  0  0  0  0  0
   -1.3532    0.3836    0.2359 C   0  0  0  0  0  0  0  0  0  0  0  0
   -2.6147    0.8158    0.5363 O   0  0  0  0  0  0  0  0  0  0  0  0
   -3.3883    1.3672   -0.5335 C   0  0  0  0  0  0  0  0  0  0  0  0
   -4.7654    1.7947    0.0106 C   0  0  0  0  0  0  0  0  0  0  0  0
   -5.7948    0.7328   -0.0045 N   0  0  0  0  0  0  0  0  0  0  0  0
   -7.1009    1.2517    0.4661 C   0  0  0  0  0  0  0  0  0  0  0  0
   -7.1803    1.4728    1.9883 C   0  0  0  0  0  0  0  0  0  0  0  0
   -6.8352    0.2866    2.7140 O   0  0  0  0  0  0  0  0  0  0  0  0
   -5.5298   -0.1767    2.3408 C   0  0  0  0  0  0  0  0  0  0  0  0
   -5.4501   -0.4414    0.8290 C   0  0  0  0  0  0  0  0  0  0  0  0
   -0.6363   -0.1199    1.3244 C   0  0  0  0  0  0  0  0  0  0  0  0
    0.6672   -0.5949    1.1617 C   0  0  0  0  0  0  0  0  0  0  0  0
    3.3271    2.1157    0.1357 C   0  0  0  0  0  0  0  0  0  0  0  0
    3.3259    3.4923   -0.1061 C   0  0  0  0  0  0  0  0  0  0  0  0
    3.3641    5.6062   -3.5066 H   0  0  0  0  0  0  0  0  0  0  0  0
    3.9547    7.0136   -2.6150 H   0  0  0  0  0  0  0  0  0  0  0  0
    5.0772    5.6864   -2.9369 H   0  0  0  0  0  0  0  0  0  0  0  0
    4.3466    3.4553   -3.3544 H   0  0  0  0  0  0  0  0  0  0  0  0
    4.3393    1.0560   -2.9334 H   0  0  0  0  0  0  0  0  0  0  0  0
    6.1313   -3.9241   -0.3922 H   0  0  0  0  0  0  0  0  0  0  0  0
    4.8296   -5.9093    0.2114 H   0  0  0  0  0  0  0  0  0  0  0  0
    3.4245   -7.1938    1.6279 H   0  0  0  0  0  0  0  0  0  0  0  0
    3.1072   -7.5097   -0.1228 H   0  0  0  0  0  0  0  0  0  0  0  0
    1.8793   -7.8689    1.0972 H   0  0  0  0  0  0  0  0  0  0  0  0
    1.2494   -3.5339    0.4169 H   0  0  0  0  0  0  0  0  0  0  0  0
    0.9990   -0.0513   -2.1825 H   0  0  0  0  0  0  0  0  0  0  0  0
   -1.2732    0.7841   -1.8990 H   0  0  0  0  0  0  0  0  0  0  0  0
   -3.5116    0.6422   -1.3473 H   0  0  0  0  0  0  0  0  0  0  0  0
   -2.8793    2.2606   -0.9161 H   0  0  0  0  0  0  0  0  0  0  0  0
   -5.1252    2.5968   -0.6463 H   0  0  0  0  0  0  0  0  0  0  0  0
   -4.6421    2.2231    1.0115 H   0  0  0  0  0  0  0  0  0  0  0  0
   -7.3624    2.1753   -0.0635 H   0  0  0  0  0  0  0  0  0  0  0  0
   -7.8641    0.5144    0.1848 H   0  0  0  0  0  0  0  0  0  0  0  0
   -6.5315    2.2935    2.3136 H   0  0  0  0  0  0  0  0  0  0  0  0
   -8.2055    1.7391    2.2656 H   0  0  0  0  0  0  0  0  0  0  0  0
   -4.7793    0.5506    2.6699 H   0  0  0  0  0  0  0  0  0  0  0  0
   -5.3463   -1.1077    2.8867 H   0  0  0  0  0  0  0  0  0  0  0  0
   -6.1731   -1.2312    0.5835 H   0  0  0  0  0  0  0  0  0  0  0  0
   -4.4734   -0.8540    0.5602 H   0  0  0  0  0  0  0  0  0  0  0  0
   -1.0959   -0.1410    2.3095 H   0  0  0  0  0  0  0  0  0  0  0  0
    1.2070   -0.9783    2.0243 H   0  0  0  0  0  0  0  0  0  0  0  0
    3.0393    1.7511    1.1190 H   0  0  0  0  0  0  0  0  0  0  0  0
    3.0372    4.1763    0.6884 H   0  0  0  0  0  0  0  0  0  0  0  0
  1  2  1  0
  2  3  1  0
  3  4  2  0
  4  5  1  0
  5  6  2  0
  6  7  1  0
  7  8  1  0
  8  9  1  0
  9 10  2  0
 10 11  1  0
 11 12  2  0
 12 13  1  0
 13 14  1  0
 12 15  1  0
 15 16  2  0
 16 17  1  0
 17 18  1  0
 18 19  2  0
 19 20  1  0
 20 21  2  0
 21 22  1  0
 22 23  1  0
 23 24  1  0
 24 25  1  0
 25 26  1  0
 26 27  1  0
 27 28  1  0
 28 29  1  0
 29 30  1  0
 21 31  1  0
 31 32  2  0
  6 33  1  0
 33 34  2  0
 34  3  1  0
 17  7  2  0
 32 18  1  0
 16  9  1  0
 30 25  1  0
  1 35  1  0
  1 36  1  0
  1 37  1  0
  4 38  1  0
  5 39  1  0
 10 40  1  0
 11 41  1  0
 14 42  1  0
 14 43  1  0
 14 44  1  0
 15 45  1  0
 19 46  1  0
 20 47  1  0
 23 48  1  0
 23 49  1  0
 24 50  1  0
 24 51  1  0
 26 52  1  0
 26 53  1  0
 27 54  1  0
 27 55  1  0
 29 56  1  0
 29 57  1  0
 30 58  1  0
 30 59  1  0
 31 60  1  0
 32 61  1  0
 33 62  1  0
 34 63  1  0
M  END
$$$$
