
     RDKit          3D

 39 40  0  0  0  0  0  0  0  0999 V2000
   -2.4345    1.3665    2.6006 C   0  0  0  0  0  0  0  0  0  0  0  0
   -2.4225    1.6472    1.1087 C   0  0  0  0  0  0  0  0  0  0  0  0
   -2.4250    0.3946    0.4232 O   0  0  0  0  0  0  0  0  0  0  0  0
   -2.5787    0.4245   -0.9406 C   0  0  0  0  0  0  0  0  0  0  0  0
   -2.6079    1.5803   -1.7235 C   0  0  0  0  0  0  0  0  0  0  0  0
   -2.7680    1.4866   -3.1094 C   0  0  0  0  0  0  0  0  0  0  0  0
   -2.9065    0.2409   -3.7200 C   0  0  0  0  0  0  0  0  0  0  0  0
   -2.8707   -0.9196   -2.9492 C   0  0  0  0  0  0  0  0  0  0  0  0
   -2.6798   -0.8287   -1.5690 C   0  0  0  0  0  0  0  0  0  0  0  0
   -2.6555   -1.9501   -0.7740 O   0  0  0  0  0  0  0  0  0  0  0  0
   -1.6127   -2.8616   -1.1017 C   0  0  0  0  0  0  0  0  0  0  0  0
   -0.1886   -2.4578   -0.6883 C   0  0  0  0  0  0  0  0  0  0  0  0
    0.7799   -2.9966   -1.2182 O   0  0  0  0  0  0  0  0  0  0  0  0
   -0.1637   -1.5251    0.3215 N   0  0  0  0  0  0  0  0  0  0  0  0
    0.9403   -0.9408    0.8865 C   0  0  0  0  0  0  0  0  0  0  0  0
    0.8479    0.0007    1.8004 N   0  0  0  0  0  0  0  0  0  0  0  0
    2.0845    0.4431    2.2259 N   0  0  0  0  0  0  0  0  0  0  0  0
    3.0682   -0.1819    1.6091 C   0  0  0  0  0  0  0  0  0  0  0  0
    4.5200    0.0530    1.8554 C   0  0  0  0  0  0  0  0  0  0  0  0
    5.0489    0.7549    0.7288 O   0  0  0  0  0  0  0  0  0  0  0  0
    6.4266    1.0530    0.9007 C   0  0  0  0  0  0  0  0  0  0  0  0
    2.5387   -1.3699    0.4853 S   0  0  0  0  0  0  0  0  0  0  0  0
   -2.4208    2.2986    3.1723 H   0  0  0  0  0  0  0  0  0  0  0  0
   -3.3277    0.7964    2.8764 H   0  0  0  0  0  0  0  0  0  0  0  0
   -1.5713    0.7605    2.8903 H   0  0  0  0  0  0  0  0  0  0  0  0
   -3.3169    2.2278    0.8543 H   0  0  0  0  0  0  0  0  0  0  0  0
   -1.5194    2.2118    0.8508 H   0  0  0  0  0  0  0  0  0  0  0  0
   -2.5038    2.5693   -1.2901 H   0  0  0  0  0  0  0  0  0  0  0  0
   -2.7912    2.3907   -3.7133 H   0  0  0  0  0  0  0  0  0  0  0  0
   -3.0483    0.1753   -4.7960 H   0  0  0  0  0  0  0  0  0  0  0  0
   -3.0097   -1.8818   -3.4326 H   0  0  0  0  0  0  0  0  0  0  0  0
   -1.8323   -3.7915   -0.5637 H   0  0  0  0  0  0  0  0  0  0  0  0
   -1.6115   -3.1123   -2.1684 H   0  0  0  0  0  0  0  0  0  0  0  0
   -1.0472   -1.1219    0.6258 H   0  0  0  0  0  0  0  0  0  0  0  0
    5.0508   -0.8965    1.9882 H   0  0  0  0  0  0  0  0  0  0  0  0
    4.6490    0.6589    2.7593 H   0  0  0  0  0  0  0  0  0  0  0  0
    6.5738    1.6955    1.7744 H   0  0  0  0  0  0  0  0  0  0  0  0
    7.0082    0.1326    1.0069 H   0  0  0  0  0  0  0  0  0  0  0  0
    6.7773    1.5866    0.0135 H   0  0  0  0  0  0  0  0  0  0  0  0
  1  2  1  0
  2  3  1  0
  3  4  1  0
  4  5  2  0
  5  6  1  0
  6  7  2  0
  7  8  1  0
  8  9  2  0
  9 10  1  0
 10 11  1  0
 11 12  1  0
 12 13  2  0
 12 14  1  0
 14 15  1  0
 15 16  2  0
 16 17  1  0
 17 18  2  0
 18 19  1  0
 19 20  1  0
 20 21  1  0
 18 22  1  0
  9  4  1  0
 22 15  1  0
  1 23  1  0
  1 24  1  0
  1 25  1  0
  2 26  1  0
  2 27  1  0
  5 28  1  0
  6 29  1  0
  7 30  1  0
  8 31  1  0
 11 32  1  0
 11 33  1  0
 14 34  1  0
 19 35  1  0
 19 36  1  0
 21 37  1  0
 21 38  1  0
 21 39  1  0
M  END
$$$$
