
     RDKit          3D

 50 51  0  0  0  0  0  0  0  0999 V2000
   -4.7146   -4.3048   -0.4428 C   0  0  0  0  0  0  0  0  0  0  0  0
   -4.9517   -3.0922    0.2588 O   0  0  0  0  0  0  0  0  0  0  0  0
   -3.9073   -2.2084    0.3697 C   0  0  0  0  0  0  0  0  0  0  0  0
   -2.6117   -2.4532   -0.0962 C   0  0  0  0  0  0  0  0  0  0  0  0
   -1.6093   -1.4925    0.0615 C   0  0  0  0  0  0  0  0  0  0  0  0
   -1.8939   -0.2843    0.6921 C   0  0  0  0  0  0  0  0  0  0  0  0
   -0.9180    0.7623    0.8286 N   0  0  0  0  0  0  0  0  0  0  0  0
   -0.6373    1.5416   -0.4088 C   0  0  0  0  0  0  0  0  0  0  0  0
    0.4303    0.9560   -1.3271 C   0  0  0  0  0  0  0  0  0  0  0  0
    0.1132    0.2026   -2.2442 O   0  0  0  0  0  0  0  0  0  0  0  0
    1.7170    1.3674   -1.0072 N   0  0  0  0  0  0  0  0  0  0  0  0
    2.9299    1.0304   -1.6593 C   0  0  0  0  0  0  0  0  0  0  0  0
    2.9427    0.2960   -2.8566 C   0  0  0  0  0  0  0  0  0  0  0  0
    4.1380   -0.0665   -3.4824 C   0  0  0  0  0  0  0  0  0  0  0  0
    5.3505    0.2870   -2.9123 C   0  0  0  0  0  0  0  0  0  0  0  0
    5.3510    1.0253   -1.7238 C   0  0  0  0  0  0  0  0  0  0  0  0
    6.6570    1.3342   -1.1580 N   0  0  0  0  0  4  0  0  0  0  0  0
    6.8756    0.9750    0.0071 O   0  0  0  0  0  0  0  0  0  0  0  0
    7.4634    1.9231   -1.8917 O   0  0  0  0  0  1  0  0  0  0  0  0
    4.1586    1.4469   -1.0898 C   0  0  0  0  0  0  0  0  0  0  0  0
    4.1991    2.2938    0.1596 C   0  0  0  0  0  0  0  0  0  0  0  0
    0.4220    0.4553    1.8238 S   0  0  0  0  0  6  0  0  0  0  0  0
   -0.3246    0.3701    3.4396 C   0  0  0  0  0  0  0  0  0  0  0  0
    1.2429    1.6536    1.7746 O   0  0  0  0  0  0  0  0  0  0  0  0
    0.9981   -0.8280    1.4956 O   0  0  0  0  0  0  0  0  0  0  0  0
   -3.1898   -0.0210    1.1438 C   0  0  0  0  0  0  0  0  0  0  0  0
   -4.1986   -0.9795    0.9975 C   0  0  0  0  0  0  0  0  0  0  0  0
   -5.4943   -0.8132    1.4225 O   0  0  0  0  0  0  0  0  0  0  0  0
   -5.8366    0.4194    2.0393 C   0  0  0  0  0  0  0  0  0  0  0  0
   -4.4143   -4.1117   -1.4780 H   0  0  0  0  0  0  0  0  0  0  0  0
   -3.9738   -4.9212    0.0767 H   0  0  0  0  0  0  0  0  0  0  0  0
   -5.6543   -4.8656   -0.4685 H   0  0  0  0  0  0  0  0  0  0  0  0
   -2.3451   -3.3818   -0.5910 H   0  0  0  0  0  0  0  0  0  0  0  0
   -0.6152   -1.7022   -0.3269 H   0  0  0  0  0  0  0  0  0  0  0  0
   -0.3595    2.5654   -0.1277 H   0  0  0  0  0  0  0  0  0  0  0  0
   -1.5571    1.6531   -0.9977 H   0  0  0  0  0  0  0  0  0  0  0  0
    1.8055    1.8459   -0.1117 H   0  0  0  0  0  0  0  0  0  0  0  0
    2.0239   -0.0212   -3.3401 H   0  0  0  0  0  0  0  0  0  0  0  0
    4.1111   -0.6390   -4.4073 H   0  0  0  0  0  0  0  0  0  0  0  0
    6.2815   -0.0101   -3.3915 H   0  0  0  0  0  0  0  0  0  0  0  0
    5.1324    2.8560    0.2528 H   0  0  0  0  0  0  0  0  0  0  0  0
    4.0775    1.6644    1.0458 H   0  0  0  0  0  0  0  0  0  0  0  0
    3.4176    3.0602    0.1435 H   0  0  0  0  0  0  0  0  0  0  0  0
    0.4788    0.2748    4.1734 H   0  0  0  0  0  0  0  0  0  0  0  0
   -0.8809    1.2922    3.6211 H   0  0  0  0  0  0  0  0  0  0  0  0
   -0.9766   -0.5032    3.4913 H   0  0  0  0  0  0  0  0  0  0  0  0
   -3.3876    0.9396    1.6052 H   0  0  0  0  0  0  0  0  0  0  0  0
   -6.8989    0.3797    2.3021 H   0  0  0  0  0  0  0  0  0  0  0  0
   -5.2696    0.5691    2.9641 H   0  0  0  0  0  0  0  0  0  0  0  0
   -5.6967    1.2591    1.3506 H   0  0  0  0  0  0  0  0  0  0  0  0
  1  2  1  0
  2  3  1  0
  3  4  2  0
  4  5  1  0
  5  6  2  0
  6  7  1  0
  7  8  1  0
  8  9  1  0
  9 10  2  0
  9 11  1  0
 11 12  1  0
 12 13  2  0
 13 14  1  0
 14 15  2  0
 15 16  1  0
 16 17  1  0
 17 18  2  0
 17 19  1  0
 16 20  2  0
 20 21  1  0
  7 22  1  0
 22 23  1  0
 22 24  2  0
 22 25  2  0
  6 26  1  0
 26 27  2  0
 27 28  1  0
 28 29  1  0
 27  3  1  0
 20 12  1  0
  1 30  1  0
  1 31  1  0
  1 32  1  0
  4 33  1  0
  5 34  1  0
  8 35  1  0
  8 36  1  0
 11 37  1  0
 13 38  1  0
 14 39  1  0
 15 40  1  0
 21 41  1  0
 21 42  1  0
 21 43  1  0
 23 44  1  0
 23 45  1  0
 23 46  1  0
 26 47  1  0
 29 48  1  0
 29 49  1  0
 29 50  1  0
M  CHG  2  17   1  19  -1
M  END
$$$$
