
     RDKit          3D

 57 60  0  0  0  0  0  0  0  0999 V2000
    2.2581    0.6674    2.2526 C   0  0  0  0  0  0  0  0  0  0  0  0
    2.3888    0.6604    0.7654 C   0  0  0  0  0  0  0  0  0  0  0  0
    1.5042    1.1978   -0.1493 C   0  0  0  0  0  0  0  0  0  0  0  0
    2.0697    1.0649   -1.4320 C   0  0  0  0  0  0  0  0  0  0  0  0
    1.5246    1.4886   -2.6819 C   0  0  0  0  0  0  0  0  0  0  0  0
    0.2531    1.3742   -3.1016 C   0  0  0  0  0  0  0  0  0  0  0  0
   -0.8318    0.7262   -2.3561 C   0  0  0  0  0  0  0  0  0  0  0  0
   -0.8139   -0.6646   -2.2408 C   0  0  0  0  0  0  0  0  0  0  0  0
   -1.8251   -1.3167   -1.5595 C   0  0  0  0  0  0  0  0  0  0  0  0
   -2.8604   -0.5778   -0.9965 C   0  0  0  0  0  0  0  0  0  0  0  0
   -3.8999   -1.2312   -0.3032 C   0  0  0  0  0  0  0  0  0  0  0  0
   -4.9730   -0.5465    0.2905 C   0  0  0  0  0  0  0  0  0  0  0  0
   -6.0040   -1.2111    0.9481 N   0  0  0  0  0  0  0  0  0  0  0  0
   -6.9993   -0.4584    1.7145 C   0  0  0  0  0  0  0  0  0  0  0  0
   -5.8460   -2.6158    1.3317 C   0  0  0  0  0  0  0  0  0  0  0  0
   -4.9593    0.8460    0.1398 C   0  0  0  0  0  0  0  0  0  0  0  0
   -3.9354    1.5220   -0.5444 C   0  0  0  0  0  0  0  0  0  0  0  0
   -2.8643    0.8296   -1.1261 C   0  0  0  0  0  0  0  0  0  0  0  0
   -1.8447    1.4533   -1.8039 N   0  0  0  0  0  4  0  0  0  0  0  0
   -1.8405    2.9322   -1.8993 C   0  0  0  0  0  0  0  0  0  0  0  0
    3.2984    0.4419   -1.2893 C   0  0  0  0  0  0  0  0  0  0  0  0
    4.2425   -0.0110   -2.3600 C   0  0  0  0  0  0  0  0  0  0  0  0
    3.5071    0.1993    0.0724 N   0  0  0  0  0  0  0  0  0  0  0  0
    4.6615   -0.4021    0.6529 C   0  0  0  0  0  0  0  0  0  0  0  0
    5.9410    0.0036    0.2530 C   0  0  0  0  0  0  0  0  0  0  0  0
    7.0707   -0.5846    0.8255 C   0  0  0  0  0  0  0  0  0  0  0  0
    6.9283   -1.5771    1.7935 C   0  0  0  0  0  0  0  0  0  0  0  0
    5.6564   -1.9836    2.1938 C   0  0  0  0  0  0  0  0  0  0  0  0
    4.5222   -1.3976    1.6278 C   0  0  0  0  0  0  0  0  0  0  0  0
    1.9075   -0.3029    2.6157 H   0  0  0  0  0  0  0  0  0  0  0  0
    1.5238    1.4179    2.5660 H   0  0  0  0  0  0  0  0  0  0  0  0
    3.2025    0.9212    2.7434 H   0  0  0  0  0  0  0  0  0  0  0  0
    0.5695    1.6695    0.1203 H   0  0  0  0  0  0  0  0  0  0  0  0
    2.2365    1.9332   -3.3792 H   0  0  0  0  0  0  0  0  0  0  0  0
   -0.0130    1.7393   -4.0914 H   0  0  0  0  0  0  0  0  0  0  0  0
   -0.0022   -1.2458   -2.6767 H   0  0  0  0  0  0  0  0  0  0  0  0
   -1.7948   -2.4024   -1.4733 H   0  0  0  0  0  0  0  0  0  0  0  0
   -3.8604   -2.3171   -0.2403 H   0  0  0  0  0  0  0  0  0  0  0  0
   -7.5370    0.2495    1.0745 H   0  0  0  0  0  0  0  0  0  0  0  0
   -7.7631   -1.1189    2.1402 H   0  0  0  0  0  0  0  0  0  0  0  0
   -6.5273    0.0802    2.5436 H   0  0  0  0  0  0  0  0  0  0  0  0
   -5.7238   -3.2527    0.4493 H   0  0  0  0  0  0  0  0  0  0  0  0
   -4.9873   -2.7438    1.9996 H   0  0  0  0  0  0  0  0  0  0  0  0
   -6.7304   -2.9931    1.8570 H   0  0  0  0  0  0  0  0  0  0  0  0
   -5.7599    1.4549    0.5547 H   0  0  0  0  0  0  0  0  0  0  0  0
   -4.0288    2.6026   -0.5988 H   0  0  0  0  0  0  0  0  0  0  0  0
   -0.9719    3.3173   -2.4311 H   0  0  0  0  0  0  0  0  0  0  0  0
   -1.8249    3.3348   -0.8825 H   0  0  0  0  0  0  0  0  0  0  0  0
   -2.7409    3.2361   -2.4403 H   0  0  0  0  0  0  0  0  0  0  0  0
    5.0104    0.7470   -2.5405 H   0  0  0  0  0  0  0  0  0  0  0  0
    3.7121   -0.1756   -3.3041 H   0  0  0  0  0  0  0  0  0  0  0  0
    4.7224   -0.9612   -2.1073 H   0  0  0  0  0  0  0  0  0  0  0  0
    6.0825    0.8036   -0.4681 H   0  0  0  0  0  0  0  0  0  0  0  0
    8.0644   -0.2621    0.5234 H   0  0  0  0  0  0  0  0  0  0  0  0
    7.8100   -2.0338    2.2372 H   0  0  0  0  0  0  0  0  0  0  0  0
    5.5497   -2.7645    2.9432 H   0  0  0  0  0  0  0  0  0  0  0  0
    3.5453   -1.7625    1.9307 H   0  0  0  0  0  0  0  0  0  0  0  0
  1  2  1  0
  2  3  2  0
  3  4  1  0
  4  5  1  0
  5  6  2  3
  6  7  1  0
  7  8  2  0
  8  9  1  0
  9 10  2  0
 10 11  1  0
 11 12  2  0
 12 13  1  0
 13 14  1  0
 13 15  1  0
 12 16  1  0
 16 17  2  0
 17 18  1  0
 18 19  2  0
 19 20  1  0
  4 21  2  0
 21 22  1  0
 21 23  1  0
 23 24  1  0
 24 25  2  0
 25 26  1  0
 26 27  2  0
 27 28  1  0
 28 29  2  0
 23  2  1  0
 29 24  1  0
 19  7  1  0
 18 10  1  0
  1 30  1  0
  1 31  1  0
  1 32  1  0
  3 33  1  0
  5 34  1  0
  6 35  1  0
  8 36  1  0
  9 37  1  0
 11 38  1  0
 14 39  1  0
 14 40  1  0
 14 41  1  0
 15 42  1  0
 15 43  1  0
 15 44  1  0
 16 45  1  0
 17 46  1  0
 20 47  1  0
 20 48  1  0
 20 49  1  0
 22 50  1  0
 22 51  1  0
 22 52  1  0
 25 53  1  0
 26 54  1  0
 27 55  1  0
 28 56  1  0
 29 57  1  0
M  CHG  1  19   1
M  END
$$$$
