
     RDKit          3D

 59 64  0  0  0  0  0  0  0  0999 V2000
   -3.1525    3.3132    2.4884 C   0  0  0  0  0  0  0  0  0  0  0  0
   -4.3559    2.5445    2.0805 C   0  0  0  0  0  0  0  0  0  0  0  0
   -5.5140    2.5570    2.7091 N   0  0  0  0  0  0  0  0  0  0  0  0
   -6.3354    1.7171    2.0014 C   0  0  0  0  0  0  0  0  0  0  0  0
   -7.6739    1.3706    2.2383 C   0  0  0  0  0  0  0  0  0  0  0  0
   -8.3054    0.4789    1.3631 C   0  0  0  0  0  0  0  0  0  0  0  0
   -7.6170   -0.0580    0.2738 C   0  0  0  0  0  0  0  0  0  0  0  0
   -6.2809    0.2761    0.0218 C   0  0  0  0  0  0  0  0  0  0  0  0
   -5.6690    1.1711    0.9090 C   0  0  0  0  0  0  0  0  0  0  0  0
   -4.4059    1.7132    0.9824 N   0  0  0  0  0  0  0  0  0  0  0  0
   -3.3215    1.4448    0.0547 C   0  0  0  0  0  0  0  0  0  0  0  0
   -2.5289    0.2043    0.4501 C   0  0  0  0  0  0  0  0  0  0  0  0
   -1.4164   -0.0905   -0.4896 C   0  0  0  0  0  0  0  0  0  0  0  0
   -1.0526    0.7601   -1.5067 N   0  0  0  0  0  0  0  0  0  0  0  0
   -0.0406    0.1308   -2.0648 C   0  0  0  0  0  0  0  0  0  0  0  0
    0.7973    0.4597   -3.1973 C   0  0  0  0  0  0  0  0  0  0  0  0
    0.6444    1.6369   -3.9314 C   0  0  0  0  0  0  0  0  0  0  0  0
    1.4872    1.8846   -5.0147 C   0  0  0  0  0  0  0  0  0  0  0  0
    2.4748    0.9597   -5.3601 C   0  0  0  0  0  0  0  0  0  0  0  0
    2.6261   -0.2186   -4.6236 C   0  0  0  0  0  0  0  0  0  0  0  0
    1.7928   -0.4831   -3.5367 C   0  0  0  0  0  0  0  0  0  0  0  0
    1.9800   -1.6886   -2.8099 N   0  0  0  0  0  0  0  0  0  0  0  0
    1.2116   -1.9357   -1.7803 C   0  0  0  0  0  0  0  0  0  0  0  0
    1.4786   -3.4219   -0.8782 S   0  0  0  0  0  0  0  0  0  0  0  0
    3.2826   -3.3269   -0.7192 C   0  0  0  0  0  0  0  0  0  0  0  0
    3.7701   -2.0057   -0.1332 C   0  0  0  0  0  0  0  0  0  0  0  0
    3.0356   -1.1022    0.2576 O   0  0  0  0  0  0  0  0  0  0  0  0
    5.1474   -1.9118   -0.0949 N   0  0  0  0  0  0  0  0  0  0  0  0
    5.8093   -0.7982    0.5477 C   0  0  0  0  0  0  0  0  0  0  0  0
    6.1376   -1.1942    1.9377 C   0  0  0  0  0  0  0  0  0  0  0  0
    5.5086   -1.0024    3.1503 C   0  0  0  0  0  0  0  0  0  0  0  0
    6.3183   -1.6349    4.1236 C   0  0  0  0  0  0  0  0  0  0  0  0
    7.3853   -2.1735    3.4442 C   0  0  0  0  0  0  0  0  0  0  0  0
    7.2827   -1.9164    2.1146 O   0  0  0  0  0  0  0  0  0  0  0  0
    0.1965   -1.0453   -1.4046 N   0  0  0  0  0  0  0  0  0  0  0  0
   -0.6959   -1.2163   -0.4000 N   0  0  0  0  0  0  0  0  0  0  0  0
   -3.3309    3.8253    3.4394 H   0  0  0  0  0  0  0  0  0  0  0  0
   -2.2911    2.6516    2.6199 H   0  0  0  0  0  0  0  0  0  0  0  0
   -2.9065    4.0713    1.7387 H   0  0  0  0  0  0  0  0  0  0  0  0
   -8.1996    1.7921    3.0877 H   0  0  0  0  0  0  0  0  0  0  0  0
   -9.3427    0.2032    1.5371 H   0  0  0  0  0  0  0  0  0  0  0  0
   -8.1283   -0.7501   -0.3926 H   0  0  0  0  0  0  0  0  0  0  0  0
   -5.7534   -0.1463   -0.8265 H   0  0  0  0  0  0  0  0  0  0  0  0
   -3.7599    1.3352   -0.9447 H   0  0  0  0  0  0  0  0  0  0  0  0
   -2.6811    2.3335    0.0175 H   0  0  0  0  0  0  0  0  0  0  0  0
   -3.1973   -0.6650    0.4948 H   0  0  0  0  0  0  0  0  0  0  0  0
   -2.1150    0.3322    1.4582 H   0  0  0  0  0  0  0  0  0  0  0  0
   -0.1247    2.3574   -3.6627 H   0  0  0  0  0  0  0  0  0  0  0  0
    1.3747    2.7997   -5.5916 H   0  0  0  0  0  0  0  0  0  0  0  0
    3.1298    1.1563   -6.2058 H   0  0  0  0  0  0  0  0  0  0  0  0
    3.3969   -0.9338   -4.8980 H   0  0  0  0  0  0  0  0  0  0  0  0
    3.6074   -4.1362   -0.0575 H   0  0  0  0  0  0  0  0  0  0  0  0
    3.7444   -3.4792   -1.7000 H   0  0  0  0  0  0  0  0  0  0  0  0
    5.7036   -2.7457   -0.2299 H   0  0  0  0  0  0  0  0  0  0  0  0
    6.7213   -0.5854   -0.0185 H   0  0  0  0  0  0  0  0  0  0  0  0
    5.1751    0.0934    0.5305 H   0  0  0  0  0  0  0  0  0  0  0  0
    4.5762   -0.4753    3.3041 H   0  0  0  0  0  0  0  0  0  0  0  0
    6.1449   -1.6928    5.1890 H   0  0  0  0  0  0  0  0  0  0  0  0
    8.2551   -2.7400    3.7453 H   0  0  0  0  0  0  0  0  0  0  0  0
  1  2  1  0
  2  3  2  0
  3  4  1  0
  4  5  2  0
  5  6  1  0
  6  7  2  0
  7  8  1  0
  8  9  2  0
  9 10  1  0
 10 11  1  0
 11 12  1  0
 12 13  1  0
 13 14  1  0
 14 15  2  0
 15 16  1  0
 16 17  2  0
 17 18  1  0
 18 19  2  0
 19 20  1  0
 20 21  2  0
 21 22  1  0
 22 23  2  0
 23 24  1  0
 24 25  1  0
 25 26  1  0
 26 27  2  0
 26 28  1  0
 28 29  1  0
 29 30  1  0
 30 31  2  0
 31 32  1  0
 32 33  2  0
 33 34  1  0
 23 35  1  0
 35 36  1  0
 10  2  1  0
 36 13  2  0
  9  4  1  0
 35 15  1  0
 21 16  1  0
 34 30  1  0
  1 37  1  0
  1 38  1  0
  1 39  1  0
  5 40  1  0
  6 41  1  0
  7 42  1  0
  8 43  1  0
 11 44  1  0
 11 45  1  0
 12 46  1  0
 12 47  1  0
 17 48  1  0
 18 49  1  0
 19 50  1  0
 20 51  1  0
 25 52  1  0
 25 53  1  0
 28 54  1  0
 29 55  1  0
 29 56  1  0
 31 57  1  0
 32 58  1  0
 33 59  1  0
M  END
$$$$
