
     RDKit          3D

 61 65  0  0  0  0  0  0  0  0999 V2000
    1.3307   -4.9312   -0.3453 C   0  0  0  0  0  0  0  0  0  0  0  0
    2.1585   -3.6992   -0.1314 C   0  0  0  0  0  0  0  0  0  0  0  0
    3.3248   -3.7490    0.6281 C   0  0  0  0  0  0  0  0  0  0  0  0
    4.0760   -2.5885    0.8378 C   0  0  0  0  0  0  0  0  0  0  0  0
    3.6910   -1.3588    0.3233 C   0  0  0  0  0  0  0  0  0  0  0  0
    4.4683   -0.2890    0.5662 N   0  0  0  0  0  0  0  0  0  0  0  0
    4.1375    0.9239    0.0543 C   0  0  0  0  0  0  0  0  0  0  0  0
    5.0730    2.0258    0.3586 C   0  0  0  0  0  0  0  0  0  0  0  0
    5.7807    2.0498    1.5749 C   0  0  0  0  0  0  0  0  0  0  0  0
    6.6611    3.0897    1.8879 C   0  0  0  0  0  0  0  0  0  0  0  0
    6.8584    4.1295    0.9854 C   0  0  0  0  0  0  0  0  0  0  0  0
    6.1817    4.1259   -0.2306 C   0  0  0  0  0  0  0  0  0  0  0  0
    5.3005    3.0843   -0.5409 C   0  0  0  0  0  0  0  0  0  0  0  0
    2.9790    1.1021   -0.6809 C   0  0  0  0  0  0  0  0  0  0  0  0
    2.1558   -0.0026   -0.8932 C   0  0  0  0  0  0  0  0  0  0  0  0
    0.9138    0.2367   -1.6521 C   0  0  0  0  0  0  0  0  0  0  0  0
    1.0207    0.5264   -2.8398 O   0  0  0  0  0  0  0  0  0  0  0  0
   -0.3074    0.1276   -0.9877 N   0  0  0  0  0  0  0  0  0  0  0  0
   -1.5151    0.4565   -1.7497 C   0  0  0  0  0  0  0  0  0  0  0  0
   -2.7566   -0.2677   -1.2134 C   0  0  0  0  0  0  0  0  0  0  0  0
   -2.9160   -0.0037    0.2551 N   0  0  0  0  0  0  0  0  0  0  0  0
   -4.3653   -0.6058    0.9221 S   0  0  0  0  0  6  0  0  0  0  0  0
   -4.5040   -1.9816    0.4996 O   0  0  0  0  0  0  0  0  0  0  0  0
   -4.4100   -0.2257    2.3161 O   0  0  0  0  0  0  0  0  0  0  0  0
   -5.6738    0.2308    0.2259 C   0  0  0  0  0  0  0  0  0  0  0  0
   -6.8628   -0.2952   -0.3204 C   0  0  0  0  0  0  0  0  0  0  0  0
   -7.3135   -1.7028   -0.4289 C   0  0  0  0  0  0  0  0  0  0  0  0
   -7.6416    0.6899   -0.7914 N   0  0  0  0  0  0  0  0  0  0  0  0
   -6.9731    1.8700   -0.5187 O   0  0  0  0  0  0  0  0  0  0  0  0
   -5.7939    1.5925    0.0993 C   0  0  0  0  0  0  0  0  0  0  0  0
   -4.9607    2.7464    0.4827 C   0  0  0  0  0  0  0  0  0  0  0  0
   -1.7000   -0.4711    0.9975 C   0  0  0  0  0  0  0  0  0  0  0  0
   -0.4482    0.2462    0.4725 C   0  0  0  0  0  0  0  0  0  0  0  0
    2.5037   -1.2845   -0.4215 C   0  0  0  0  0  0  0  0  0  0  0  0
    1.7489   -2.4653   -0.6460 C   0  0  0  0  0  0  0  0  0  0  0  0
    0.5954   -5.0314    0.4590 H   0  0  0  0  0  0  0  0  0  0  0  0
    1.9603   -5.8269   -0.3631 H   0  0  0  0  0  0  0  0  0  0  0  0
    0.8029   -4.8861   -1.3039 H   0  0  0  0  0  0  0  0  0  0  0  0
    3.6678   -4.6881    1.0570 H   0  0  0  0  0  0  0  0  0  0  0  0
    4.9934   -2.6480    1.4201 H   0  0  0  0  0  0  0  0  0  0  0  0
    5.6441    1.2443    2.2953 H   0  0  0  0  0  0  0  0  0  0  0  0
    7.1921    3.0817    2.8360 H   0  0  0  0  0  0  0  0  0  0  0  0
    7.5449    4.9371    1.2257 H   0  0  0  0  0  0  0  0  0  0  0  0
    6.3427    4.9303   -0.9432 H   0  0  0  0  0  0  0  0  0  0  0  0
    4.8078    3.1029   -1.5096 H   0  0  0  0  0  0  0  0  0  0  0  0
    2.6964    2.0741   -1.0708 H   0  0  0  0  0  0  0  0  0  0  0  0
   -1.6504    1.5431   -1.6836 H   0  0  0  0  0  0  0  0  0  0  0  0
   -1.3767    0.2036   -2.8064 H   0  0  0  0  0  0  0  0  0  0  0  0
   -2.6554   -1.3462   -1.3839 H   0  0  0  0  0  0  0  0  0  0  0  0
   -3.6343    0.0926   -1.7587 H   0  0  0  0  0  0  0  0  0  0  0  0
   -6.7035   -2.2453   -1.1585 H   0  0  0  0  0  0  0  0  0  0  0  0
   -7.2386   -2.2080    0.5389 H   0  0  0  0  0  0  0  0  0  0  0  0
   -8.3578   -1.7656   -0.7523 H   0  0  0  0  0  0  0  0  0  0  0  0
   -4.8231    2.7741    1.5687 H   0  0  0  0  0  0  0  0  0  0  0  0
   -3.9747    2.6872    0.0108 H   0  0  0  0  0  0  0  0  0  0  0  0
   -5.4228    3.6909    0.1767 H   0  0  0  0  0  0  0  0  0  0  0  0
   -1.5880   -1.5548    0.8713 H   0  0  0  0  0  0  0  0  0  0  0  0
   -1.8033   -0.2505    2.0649 H   0  0  0  0  0  0  0  0  0  0  0  0
   -0.5091    1.3191    0.6942 H   0  0  0  0  0  0  0  0  0  0  0  0
    0.4319   -0.1397    0.9909 H   0  0  0  0  0  0  0  0  0  0  0  0
    0.8357   -2.4229   -1.2378 H   0  0  0  0  0  0  0  0  0  0  0  0
  1  2  1  0
  2  3  2  0
  3  4  1  0
  4  5  2  0
  5  6  1  0
  6  7  2  0
  7  8  1  0
  8  9  2  0
  9 10  1  0
 10 11  2  0
 11 12  1  0
 12 13  2  0
  7 14  1  0
 14 15  2  0
 15 16  1  0
 16 17  2  0
 16 18  1  0
 18 19  1  0
 19 20  1  0
 20 21  1  0
 21 22  1  0
 22 23  2  0
 22 24  2  0
 22 25  1  0
 25 26  1  0
 26 27  1  0
 26 28  2  0
 28 29  1  0
 29 30  1  0
 30 31  1  0
 21 32  1  0
 32 33  1  0
 15 34  1  0
 34 35  2  0
 35  2  1  0
 34  5  1  0
 13  8  1  0
 33 18  1  0
 30 25  2  0
  1 36  1  0
  1 37  1  0
  1 38  1  0
  3 39  1  0
  4 40  1  0
  9 41  1  0
 10 42  1  0
 11 43  1  0
 12 44  1  0
 13 45  1  0
 14 46  1  0
 19 47  1  0
 19 48  1  0
 20 49  1  0
 20 50  1  0
 27 51  1  0
 27 52  1  0
 27 53  1  0
 31 54  1  0
 31 55  1  0
 31 56  1  0
 32 57  1  0
 32 58  1  0
 33 59  1  0
 33 60  1  0
 35 61  1  0
M  END
$$$$
