
     RDKit          3D

 37 39  0  0  0  0  0  0  0  0999 V2000
   -2.3339   -0.4077    1.9206 O   0  0  0  0  0  0  0  0  0  0  0  0
   -2.6752    0.0592    0.8384 C   0  0  0  0  0  0  0  0  0  0  0  0
   -2.1640    1.2380    0.3173 N   0  0  0  0  0  0  0  0  0  0  0  0
   -1.0344    1.7606    0.9792 N   0  0  0  0  0  0  0  0  0  0  0  0
    0.2221    1.3563    0.5579 C   0  0  0  0  0  0  0  0  0  0  0  0
    0.4426    0.6748   -0.4341 O   0  0  0  0  0  0  0  0  0  0  0  0
    1.2510    1.9494    1.4633 C   0  0  0  0  0  0  0  0  0  0  0  0
    2.5780    1.7572    1.4503 C   0  0  0  0  0  0  0  0  0  0  0  0
    3.3280    0.9024    0.5265 C   0  0  0  0  0  0  0  0  0  0  0  0
    3.4372    1.2212   -0.8364 C   0  0  0  0  0  0  0  0  0  0  0  0
    4.1778    0.4087   -1.7019 C   0  0  0  0  0  0  0  0  0  0  0  0
    4.8171   -0.7146   -1.1936 C   0  0  0  0  0  0  0  0  0  0  0  0
    5.5555   -1.5480   -1.9873 O   0  0  0  0  0  0  0  0  0  0  0  0
    4.7229   -1.0247    0.1605 C   0  0  0  0  0  0  0  0  0  0  0  0
    5.3624   -2.1269    0.6525 O   0  0  0  0  0  0  0  0  0  0  0  0
    3.9867   -0.2269    1.0259 C   0  0  0  0  0  0  0  0  0  0  0  0
    0.4844    2.9767    2.6355 S   0  0  0  0  0  0  0  0  0  0  0  0
   -1.1362    2.6422    2.0336 C   0  0  0  0  0  0  0  0  0  0  0  0
   -2.5094    3.3580    2.6541 S   0  0  0  0  0  0  0  0  0  0  0  0
   -3.6551   -0.6585   -0.0209 C   0  0  0  0  0  0  0  0  0  0  0  0
   -4.4677    0.0182   -0.9407 C   0  0  0  0  0  0  0  0  0  0  0  0
   -5.3738   -0.6969   -1.7274 C   0  0  0  0  0  0  0  0  0  0  0  0
   -5.4754   -2.0818   -1.5945 C   0  0  0  0  0  0  0  0  0  0  0  0
   -4.6791   -2.7564   -0.6698 C   0  0  0  0  0  0  0  0  0  0  0  0
   -3.7733   -2.0466    0.1198 C   0  0  0  0  0  0  0  0  0  0  0  0
   -2.1327    1.3286   -0.6939 H   0  0  0  0  0  0  0  0  0  0  0  0
    3.2020    2.2394    2.2014 H   0  0  0  0  0  0  0  0  0  0  0  0
    2.9366    2.0998   -1.2368 H   0  0  0  0  0  0  0  0  0  0  0  0
    4.2380    0.6687   -2.7534 H   0  0  0  0  0  0  0  0  0  0  0  0
    5.4942   -1.2243   -2.9024 H   0  0  0  0  0  0  0  0  0  0  0  0
    5.7937   -2.5276   -0.1285 H   0  0  0  0  0  0  0  0  0  0  0  0
    3.9290   -0.4946    2.0771 H   0  0  0  0  0  0  0  0  0  0  0  0
   -4.4321    1.0996   -1.0383 H   0  0  0  0  0  0  0  0  0  0  0  0
   -6.0101   -0.1739   -2.4376 H   0  0  0  0  0  0  0  0  0  0  0  0
   -6.1840   -2.6362   -2.2056 H   0  0  0  0  0  0  0  0  0  0  0  0
   -4.7653   -3.8348   -0.5597 H   0  0  0  0  0  0  0  0  0  0  0  0
   -3.1578   -2.5788    0.8431 H   0  0  0  0  0  0  0  0  0  0  0  0
  1  2  2  0
  2  3  1  0
  3  4  1  0
  4  5  1  0
  5  6  2  0
  5  7  1  0
  7  8  2  3
  8  9  1  0
  9 10  2  0
 10 11  1  0
 11 12  2  0
 12 13  1  0
 12 14  1  0
 14 15  1  0
 14 16  2  0
  7 17  1  0
 17 18  1  0
 18 19  2  0
  2 20  1  0
 20 21  2  0
 21 22  1  0
 22 23  2  0
 23 24  1  0
 24 25  2  0
 18  4  1  0
 25 20  1  0
 16  9  1  0
  3 26  1  0
  8 27  1  0
 10 28  1  0
 11 29  1  0
 13 30  1  0
 15 31  1  0
 16 32  1  0
 21 33  1  0
 22 34  1  0
 23 35  1  0
 24 36  1  0
 25 37  1  0
M  END
$$$$
