
     RDKit          3D

 38 40  0  0  0  0  0  0  0  0999 V2000
    0.3251   -1.1928    1.8925 O   0  0  0  0  0  0  0  0  0  0  0  0
    0.1987   -0.1463    1.2604 C   0  0  0  0  0  0  0  0  0  0  0  0
    1.1252    0.8599    1.3280 N   0  0  0  0  0  0  0  0  0  0  0  0
    2.3248    0.7113    2.1241 C   0  0  0  0  0  0  0  0  0  0  0  0
    3.4839    0.2432    1.2784 C   0  0  0  0  0  0  0  0  0  0  0  0
    3.6412   -1.1203    0.9869 C   0  0  0  0  0  0  0  0  0  0  0  0
    4.6974   -1.5578    0.1849 C   0  0  0  0  0  0  0  0  0  0  0  0
    5.5998   -0.6327   -0.3341 C   0  0  0  0  0  0  0  0  0  0  0  0
    6.9010   -1.1689   -1.3240 Cl  0  0  0  0  0  0  0  0  0  0  0  0
    5.4536    0.7258   -0.0602 C   0  0  0  0  0  0  0  0  0  0  0  0
    4.3963    1.1637    0.7413 C   0  0  0  0  0  0  0  0  0  0  0  0
   -0.8935    0.1007    0.4453 N   0  0  0  0  0  0  0  0  0  0  0  0
   -1.1057    1.3049   -0.3580 C   0  0  0  0  0  0  0  0  0  0  0  0
   -2.5793    1.7003   -0.4193 C   0  0  0  0  0  0  0  0  0  0  0  0
   -3.4295    0.5489   -0.8763 C   0  0  0  0  0  0  0  0  0  0  0  0
   -4.6437    0.7782   -1.5368 C   0  0  0  0  0  0  0  0  0  0  0  0
   -5.4416   -0.2937   -1.9346 C   0  0  0  0  0  0  0  0  0  0  0  0
   -5.0383   -1.5990   -1.6656 C   0  0  0  0  0  0  0  0  0  0  0  0
   -3.8381   -1.8335   -0.9943 C   0  0  0  0  0  0  0  0  0  0  0  0
   -3.0235   -0.7642   -0.5906 C   0  0  0  0  0  0  0  0  0  0  0  0
   -1.7406   -1.0554    0.1533 C   0  0  0  0  0  0  0  0  0  0  0  0
    1.2447    1.3970    0.4861 H   0  0  0  0  0  0  0  0  0  0  0  0
    2.5470    1.6949    2.5527 H   0  0  0  0  0  0  0  0  0  0  0  0
    2.1598    0.0254    2.9627 H   0  0  0  0  0  0  0  0  0  0  0  0
    2.9332   -1.8479    1.3831 H   0  0  0  0  0  0  0  0  0  0  0  0
    4.8060   -2.6172   -0.0305 H   0  0  0  0  0  0  0  0  0  0  0  0
    6.1575    1.4469   -0.4670 H   0  0  0  0  0  0  0  0  0  0  0  0
    4.2920    2.2271    0.9461 H   0  0  0  0  0  0  0  0  0  0  0  0
   -0.5449    2.1514    0.0479 H   0  0  0  0  0  0  0  0  0  0  0  0
   -0.7129    1.0959   -1.3608 H   0  0  0  0  0  0  0  0  0  0  0  0
   -2.9257    2.0125    0.5735 H   0  0  0  0  0  0  0  0  0  0  0  0
   -2.6909    2.5522   -1.1000 H   0  0  0  0  0  0  0  0  0  0  0  0
   -4.9747    1.7931   -1.7441 H   0  0  0  0  0  0  0  0  0  0  0  0
   -6.3807   -0.1105   -2.4501 H   0  0  0  0  0  0  0  0  0  0  0  0
   -5.6616   -2.4349   -1.9720 H   0  0  0  0  0  0  0  0  0  0  0  0
   -3.5408   -2.8583   -0.7808 H   0  0  0  0  0  0  0  0  0  0  0  0
   -1.9866   -1.5539    1.0990 H   0  0  0  0  0  0  0  0  0  0  0  0
   -1.1345   -1.7460   -0.4472 H   0  0  0  0  0  0  0  0  0  0  0  0
  1  2  2  0
  2  3  1  0
  3  4  1  0
  4  5  1  0
  5  6  2  0
  6  7  1  0
  7  8  2  0
  8  9  1  0
  8 10  1  0
 10 11  2  0
  2 12  1  0
 12 13  1  0
 13 14  1  0
 14 15  1  0
 15 16  2  0
 16 17  1  0
 17 18  2  0
 18 19  1  0
 19 20  2  0
 20 21  1  0
 11  5  1  0
 21 12  1  0
 20 15  1  0
  3 22  1  0
  4 23  1  0
  4 24  1  0
  6 25  1  0
  7 26  1  0
 10 27  1  0
 11 28  1  0
 13 29  1  0
 13 30  1  0
 14 31  1  0
 14 32  1  0
 16 33  1  0
 17 34  1  0
 18 35  1  0
 19 36  1  0
 21 37  1  0
 21 38  1  0
M  END
$$$$
