
     RDKit          3D

 48 49  0  0  0  0  0  0  0  0999 V2000
   -6.0278    0.5524   -1.9995 C   0  0  0  0  0  0  0  0  0  0  0  0
   -5.7341    0.5956   -0.5070 C   0  0  0  0  0  0  0  0  0  0  0  0
   -4.3152    0.3930   -0.2126 N   0  0  0  0  0  0  0  0  0  0  0  0
   -3.4389    1.5697   -0.2719 C   0  0  0  0  0  0  0  0  0  0  0  0
   -3.5401    2.4336    0.9760 C   0  0  0  0  0  0  0  0  0  0  0  0
   -3.8609   -0.9266   -0.1335 C   0  0  0  0  0  0  0  0  0  0  0  0
   -4.5737   -1.9089   -0.3274 O   0  0  0  0  0  0  0  0  0  0  0  0
   -2.4424   -1.1787    0.1874 C   0  0  0  0  0  0  0  0  0  0  0  0
   -1.9267   -0.8435    1.4399 C   0  0  0  0  0  0  0  0  0  0  0  0
   -0.5819   -1.0996    1.7294 C   0  0  0  0  0  0  0  0  0  0  0  0
    0.2450   -1.7029    0.7775 C   0  0  0  0  0  0  0  0  0  0  0  0
    1.6068   -1.9864    0.9887 N   0  0  0  0  0  0  0  0  0  0  0  0
    2.3809   -1.6725    2.0934 C   0  0  0  0  0  0  0  0  0  0  0  0
    2.0153   -1.0937    3.1113 O   0  0  0  0  0  0  0  0  0  0  0  0
    3.8277   -2.1525    1.9397 C   0  0  0  0  0  0  0  0  0  0  0  0
    4.3303   -2.0449    0.6128 O   0  0  0  0  0  0  0  0  0  0  0  0
    4.6003   -0.7992    0.1068 C   0  0  0  0  0  0  0  0  0  0  0  0
    4.6208    0.3803    0.8598 C   0  0  0  0  0  0  0  0  0  0  0  0
    4.9084    1.6071    0.2488 C   0  0  0  0  0  0  0  0  0  0  0  0
    5.1795    1.6557   -1.1241 C   0  0  0  0  0  0  0  0  0  0  0  0
    5.4776    2.9431   -1.7634 N   0  0  0  0  0  4  0  0  0  0  0  0
    5.6363    2.9511   -2.9917 O   0  0  0  0  0  0  0  0  0  0  0  0
    5.5511    3.9432   -1.0364 O   0  0  0  0  0  1  0  0  0  0  0  0
    5.1643    0.4883   -1.8922 C   0  0  0  0  0  0  0  0  0  0  0  0
    4.8750   -0.7297   -1.2724 C   0  0  0  0  0  0  0  0  0  0  0  0
    4.8358   -2.1494   -2.2595 Cl  0  0  0  0  0  0  0  0  0  0  0  0
   -0.2942   -2.0625   -0.4665 C   0  0  0  0  0  0  0  0  0  0  0  0
   -1.6362   -1.8083   -0.7615 C   0  0  0  0  0  0  0  0  0  0  0  0
   -5.4833    1.3367   -2.5348 H   0  0  0  0  0  0  0  0  0  0  0  0
   -5.7374   -0.4105   -2.4331 H   0  0  0  0  0  0  0  0  0  0  0  0
   -7.0977    0.6982   -2.1784 H   0  0  0  0  0  0  0  0  0  0  0  0
   -6.3166   -0.1867   -0.0065 H   0  0  0  0  0  0  0  0  0  0  0  0
   -6.0549    1.5524   -0.0840 H   0  0  0  0  0  0  0  0  0  0  0  0
   -2.3985    1.2691   -0.4203 H   0  0  0  0  0  0  0  0  0  0  0  0
   -3.7149    2.1576   -1.1542 H   0  0  0  0  0  0  0  0  0  0  0  0
   -3.3069    1.8619    1.8787 H   0  0  0  0  0  0  0  0  0  0  0  0
   -2.8406    3.2733    0.9120 H   0  0  0  0  0  0  0  0  0  0  0  0
   -4.5470    2.8453    1.0963 H   0  0  0  0  0  0  0  0  0  0  0  0
   -2.5660   -0.3978    2.1971 H   0  0  0  0  0  0  0  0  0  0  0  0
   -0.2150   -0.8258    2.7140 H   0  0  0  0  0  0  0  0  0  0  0  0
    2.1036   -2.4264    0.2192 H   0  0  0  0  0  0  0  0  0  0  0  0
    3.8354   -3.2171    2.2018 H   0  0  0  0  0  0  0  0  0  0  0  0
    4.4835   -1.6508    2.6595 H   0  0  0  0  0  0  0  0  0  0  0  0
    4.4183    0.3914    1.9277 H   0  0  0  0  0  0  0  0  0  0  0  0
    4.9157    2.5103    0.8574 H   0  0  0  0  0  0  0  0  0  0  0  0
    5.3720    0.5152   -2.9601 H   0  0  0  0  0  0  0  0  0  0  0  0
    0.3192   -2.5484   -1.2217 H   0  0  0  0  0  0  0  0  0  0  0  0
   -2.0519   -2.1017   -1.7227 H   0  0  0  0  0  0  0  0  0  0  0  0
  1  2  1  0
  2  3  1  0
  3  4  1  0
  4  5  1  0
  3  6  1  0
  6  7  2  0
  6  8  1  0
  8  9  2  0
  9 10  1  0
 10 11  2  0
 11 12  1  0
 12 13  1  0
 13 14  2  0
 13 15  1  0
 15 16  1  0
 16 17  1  0
 17 18  2  0
 18 19  1  0
 19 20  2  0
 20 21  1  0
 21 22  2  0
 21 23  1  0
 20 24  1  0
 24 25  2  0
 25 26  1  0
 11 27  1  0
 27 28  2  0
 28  8  1  0
 25 17  1  0
  1 29  1  0
  1 30  1  0
  1 31  1  0
  2 32  1  0
  2 33  1  0
  4 34  1  0
  4 35  1  0
  5 36  1  0
  5 37  1  0
  5 38  1  0
  9 39  1  0
 10 40  1  0
 12 41  1  0
 15 42  1  0
 15 43  1  0
 18 44  1  0
 19 45  1  0
 24 46  1  0
 27 47  1  0
 28 48  1  0
M  CHG  2  21   1  23  -1
M  END
$$$$
