
     RDKit          3D

 39 41  0  0  0  0  0  0  0  0999 V2000
   -4.8970   -1.9188   -1.4417 C   0  0  0  0  0  0  0  0  0  0  0  0
   -4.4359   -1.7800   -0.0015 C   0  0  0  0  0  0  0  0  0  0  0  0
   -3.2443   -0.9548    0.1178 N   0  0  0  0  0  0  0  0  0  0  0  0
   -1.9664   -1.4516    0.1634 C   0  0  0  0  0  0  0  0  0  0  0  0
   -1.0983   -0.3878    0.2739 C   0  0  0  0  0  0  0  0  0  0  0  0
    0.3186   -0.5600    0.3283 C   0  0  0  0  0  0  0  0  0  0  0  0
    1.2215    0.2850   -0.1970 C   0  0  0  0  0  0  0  0  0  0  0  0
    2.6730    0.0823   -0.1376 C   0  0  0  0  0  0  0  0  0  0  0  0
    3.2609   -1.1669   -0.3309 C   0  0  0  0  0  0  0  0  0  0  0  0
    4.6452   -1.2916   -0.2924 C   0  0  0  0  0  0  0  0  0  0  0  0
    5.4281   -0.2122   -0.0723 N   0  0  0  0  0  4  0  0  0  0  0  0
    6.8924   -0.3676   -0.0444 C   0  0  0  0  0  0  0  0  0  0  0  0
    4.8825    1.0130    0.0946 C   0  0  0  0  0  0  0  0  0  0  0  0
    3.5031    1.1841    0.0615 C   0  0  0  0  0  0  0  0  0  0  0  0
   -1.8829    0.8060    0.3405 C   0  0  0  0  0  0  0  0  0  0  0  0
   -1.5951    2.1802    0.5042 C   0  0  0  0  0  0  0  0  0  0  0  0
   -2.6341    3.1172    0.5215 C   0  0  0  0  0  0  0  0  0  0  0  0
   -3.9549    2.7079    0.3855 C   0  0  0  0  0  0  0  0  0  0  0  0
   -4.2742    1.3562    0.2389 C   0  0  0  0  0  0  0  0  0  0  0  0
   -3.2255    0.4208    0.2266 C   0  0  0  0  0  0  0  0  0  0  0  0
   -4.1165   -2.3699   -2.0636 H   0  0  0  0  0  0  0  0  0  0  0  0
   -5.7865   -2.5541   -1.4957 H   0  0  0  0  0  0  0  0  0  0  0  0
   -5.1470   -0.9449   -1.8750 H   0  0  0  0  0  0  0  0  0  0  0  0
   -5.2200   -1.3374    0.6216 H   0  0  0  0  0  0  0  0  0  0  0  0
   -4.2025   -2.7645    0.4195 H   0  0  0  0  0  0  0  0  0  0  0  0
   -1.7856   -2.5166    0.0960 H   0  0  0  0  0  0  0  0  0  0  0  0
    0.6571   -1.4689    0.8212 H   0  0  0  0  0  0  0  0  0  0  0  0
    0.8873    1.1855   -0.7085 H   0  0  0  0  0  0  0  0  0  0  0  0
    2.6518   -2.0475   -0.5260 H   0  0  0  0  0  0  0  0  0  0  0  0
    5.1351   -2.2495   -0.4430 H   0  0  0  0  0  0  0  0  0  0  0  0
    7.2553   -0.2322   -1.0662 H   0  0  0  0  0  0  0  0  0  0  0  0
    7.1398   -1.3649    0.3284 H   0  0  0  0  0  0  0  0  0  0  0  0
    7.3197    0.3842    0.6242 H   0  0  0  0  0  0  0  0  0  0  0  0
    5.5570    1.8503    0.2508 H   0  0  0  0  0  0  0  0  0  0  0  0
    3.0829    2.1790    0.1998 H   0  0  0  0  0  0  0  0  0  0  0  0
   -0.5732    2.5209    0.6295 H   0  0  0  0  0  0  0  0  0  0  0  0
   -2.4073    4.1730    0.6470 H   0  0  0  0  0  0  0  0  0  0  0  0
   -4.7529    3.4471    0.4009 H   0  0  0  0  0  0  0  0  0  0  0  0
   -5.3110    1.0491    0.1424 H   0  0  0  0  0  0  0  0  0  0  0  0
  1  2  1  0
  2  3  1  0
  3  4  1  0
  4  5  2  0
  5  6  1  0
  6  7  2  3
  7  8  1  0
  8  9  2  0
  9 10  1  0
 10 11  2  0
 11 12  1  0
 11 13  1  0
 13 14  2  0
  5 15  1  0
 15 16  2  0
 16 17  1  0
 17 18  2  0
 18 19  1  0
 19 20  2  0
 20  3  1  0
 14  8  1  0
 20 15  1  0
  1 21  1  0
  1 22  1  0
  1 23  1  0
  2 24  1  0
  2 25  1  0
  4 26  1  0
  6 27  1  0
  7 28  1  0
  9 29  1  0
 10 30  1  0
 12 31  1  0
 12 32  1  0
 12 33  1  0
 13 34  1  0
 14 35  1  0
 16 36  1  0
 17 37  1  0
 18 38  1  0
 19 39  1  0
M  CHG  1  11   1
M  END
$$$$
