
     RDKit          3D

 44 46  0  0  0  0  0  0  0  0999 V2000
    8.2672   -1.2942    1.8680 C   0  0  0  0  0  0  0  0  0  0  0  0
    6.9160   -1.4378    1.2312 C   0  0  0  0  0  0  0  0  0  0  0  0
    6.7590   -1.2331   -0.1457 C   0  0  0  0  0  0  0  0  0  0  0  0
    5.4976   -1.3357   -0.7399 C   0  0  0  0  0  0  0  0  0  0  0  0
    4.3754   -1.6283    0.0443 C   0  0  0  0  0  0  0  0  0  0  0  0
    3.0122   -1.7481   -0.5430 C   0  0  0  0  0  0  0  0  0  0  0  0
    2.1540   -2.4276    0.0083 O   0  0  0  0  0  0  0  0  0  0  0  0
    2.7758   -1.0263   -1.6966 N   0  0  0  0  0  0  0  0  0  0  0  0
    1.4186   -0.9130   -2.2107 C   0  0  0  0  0  0  0  0  0  0  0  0
    0.7211    0.3002   -1.6106 C   0  0  0  0  0  0  0  0  0  0  0  0
    1.3007    1.2767   -1.1487 O   0  0  0  0  0  0  0  0  0  0  0  0
   -0.6282    0.1786   -1.7337 O   0  0  0  0  0  0  0  0  0  0  0  0
   -1.3550    1.2793   -1.1693 C   0  0  0  0  0  0  0  0  0  0  0  0
   -2.8301    1.1052   -1.3594 C   0  0  0  0  0  0  0  0  0  0  0  0
   -3.4712    0.7182   -2.5193 C   0  0  0  0  0  0  0  0  0  0  0  0
   -5.1604    0.6603   -2.2693 S   0  0  0  0  0  0  0  0  0  0  0  0
   -4.9449    1.1669   -0.6333 C   0  0  0  0  0  0  0  0  0  0  0  0
   -6.0825    1.3517    0.2935 C   0  0  0  0  0  0  0  0  0  0  0  0
   -7.4275    1.1979   -0.0834 C   0  0  0  0  0  0  0  0  0  0  0  0
   -8.4622    1.3849    0.8407 C   0  0  0  0  0  0  0  0  0  0  0  0
   -8.1717    1.7295    2.1575 C   0  0  0  0  0  0  0  0  0  0  0  0
   -6.8475    1.8895    2.5535 C   0  0  0  0  0  0  0  0  0  0  0  0
   -5.8153    1.7028    1.6295 C   0  0  0  0  0  0  0  0  0  0  0  0
   -3.6825    1.3668   -0.2958 N   0  0  0  0  0  0  0  0  0  0  0  0
    4.5291   -1.8351    1.4197 C   0  0  0  0  0  0  0  0  0  0  0  0
    5.7906   -1.7306    2.0109 C   0  0  0  0  0  0  0  0  0  0  0  0
    8.4664   -0.2411    2.0880 H   0  0  0  0  0  0  0  0  0  0  0  0
    8.3267   -1.8658    2.8003 H   0  0  0  0  0  0  0  0  0  0  0  0
    9.0508   -1.6733    1.2035 H   0  0  0  0  0  0  0  0  0  0  0  0
    7.6227   -1.0010   -0.7659 H   0  0  0  0  0  0  0  0  0  0  0  0
    5.4136   -1.2076   -1.8149 H   0  0  0  0  0  0  0  0  0  0  0  0
    3.3825   -0.2333   -1.8692 H   0  0  0  0  0  0  0  0  0  0  0  0
    0.8534   -1.8206   -1.9794 H   0  0  0  0  0  0  0  0  0  0  0  0
    1.4825   -0.7773   -3.2936 H   0  0  0  0  0  0  0  0  0  0  0  0
   -1.0497    2.2121   -1.6585 H   0  0  0  0  0  0  0  0  0  0  0  0
   -1.1313    1.3447   -0.0978 H   0  0  0  0  0  0  0  0  0  0  0  0
   -3.0341    0.4659   -3.4749 H   0  0  0  0  0  0  0  0  0  0  0  0
   -7.7028    0.9308   -1.1003 H   0  0  0  0  0  0  0  0  0  0  0  0
   -9.4962    1.2599    0.5282 H   0  0  0  0  0  0  0  0  0  0  0  0
   -8.9761    1.8731    2.8742 H   0  0  0  0  0  0  0  0  0  0  0  0
   -6.6125    2.1587    3.5798 H   0  0  0  0  0  0  0  0  0  0  0  0
   -4.7855    1.8323    1.9616 H   0  0  0  0  0  0  0  0  0  0  0  0
    3.6643   -2.0723    2.0366 H   0  0  0  0  0  0  0  0  0  0  0  0
    5.8869   -1.8841    3.0839 H   0  0  0  0  0  0  0  0  0  0  0  0
  1  2  1  0
  2  3  2  0
  3  4  1  0
  4  5  2  0
  5  6  1  0
  6  7  2  0
  6  8  1  0
  8  9  1  0
  9 10  1  0
 10 11  2  0
 10 12  1  0
 12 13  1  0
 13 14  1  0
 14 15  2  0
 15 16  1  0
 16 17  1  0
 17 18  1  0
 18 19  2  0
 19 20  1  0
 20 21  2  0
 21 22  1  0
 22 23  2  0
 17 24  2  0
  5 25  1  0
 25 26  2  0
 26  2  1  0
 24 14  1  0
 23 18  1  0
  1 27  1  0
  1 28  1  0
  1 29  1  0
  3 30  1  0
  4 31  1  0
  8 32  1  0
  9 33  1  0
  9 34  1  0
 13 35  1  0
 13 36  1  0
 15 37  1  0
 19 38  1  0
 20 39  1  0
 21 40  1  0
 22 41  1  0
 23 42  1  0
 25 43  1  0
 26 44  1  0
M  END
$$$$
