
     RDKit          3D

 59 62  0  0  0  0  0  0  0  0999 V2000
    8.1700    1.3333   -1.6424 C   0  0  0  0  0  0  0  0  0  0  0  0
    7.6847    0.7837   -0.4246 O   0  0  0  0  0  0  0  0  0  0  0  0
    6.3288    0.6537   -0.2978 C   0  0  0  0  0  0  0  0  0  0  0  0
    5.9064    0.1523    0.9385 C   0  0  0  0  0  0  0  0  0  0  0  0
    4.5481   -0.0321    1.2115 C   0  0  0  0  0  0  0  0  0  0  0  0
    3.5973    0.2854    0.2418 C   0  0  0  0  0  0  0  0  0  0  0  0
    2.1662    0.1090    0.4859 C   0  0  0  0  0  0  0  0  0  0  0  0
    1.2560    0.4206   -0.4548 C   0  0  0  0  0  0  0  0  0  0  0  0
   -0.2382    0.2920   -0.3460 C   0  0  0  0  0  0  0  0  0  0  0  0
   -0.6526   -0.3403    0.9379 N   0  0  0  0  0  0  0  0  0  0  0  0
   -1.3015   -1.6766    0.7847 C   0  0  0  0  0  0  0  0  0  0  0  0
   -0.2493   -2.7713    0.5137 C   0  0  0  0  0  0  0  0  0  0  0  0
   -0.8062   -4.1773    0.7087 C   0  0  0  0  0  0  0  0  0  0  0  0
   -1.2548   -4.5603   -0.6794 C   0  0  0  0  0  0  0  0  0  0  0  0
   -0.1892   -3.9148   -1.5329 C   0  0  0  0  0  0  0  0  0  0  0  0
    0.1735   -2.6989   -0.8669 O   0  0  0  0  0  0  0  0  0  0  0  0
   -1.2749    0.6937    2.1287 S   0  0  0  0  0  6  0  0  0  0  0  0
   -0.4672    1.8944    2.1577 O   0  0  0  0  0  0  0  0  0  0  0  0
   -1.4889   -0.0839    3.3311 O   0  0  0  0  0  0  0  0  0  0  0  0
   -2.8811    1.1442    1.4959 C   0  0  0  0  0  0  0  0  0  0  0  0
   -3.0388    2.3385    0.7860 C   0  0  0  0  0  0  0  0  0  0  0  0
   -4.3054    2.7104    0.3202 C   0  0  0  0  0  0  0  0  0  0  0  0
   -5.4177    1.8994    0.5807 C   0  0  0  0  0  0  0  0  0  0  0  0
   -6.7901    2.2558    0.1115 C   0  0  0  0  0  0  0  0  0  0  0  0
   -7.0062    3.5762   -0.5803 C   0  0  0  0  0  0  0  0  0  0  0  0
   -7.7197    1.4703    0.2916 O   0  0  0  0  0  0  0  0  0  0  0  0
   -5.2503    0.7150    1.3151 C   0  0  0  0  0  0  0  0  0  0  0  0
   -3.9873    0.3398    1.7811 C   0  0  0  0  0  0  0  0  0  0  0  0
    1.7148    0.9692   -1.7697 C   0  0  0  0  0  0  0  0  0  0  0  0
    0.9139    1.2920   -2.6439 O   0  0  0  0  0  0  0  0  0  0  0  0
    3.0629    1.1096   -1.9612 N   0  0  0  0  0  0  0  0  0  0  0  0
    4.0217    0.7859   -0.9937 C   0  0  0  0  0  0  0  0  0  0  0  0
    5.3794    0.9713   -1.2704 C   0  0  0  0  0  0  0  0  0  0  0  0
    7.9284    0.6859   -2.4913 H   0  0  0  0  0  0  0  0  0  0  0  0
    7.7888    2.3479   -1.7981 H   0  0  0  0  0  0  0  0  0  0  0  0
    9.2601    1.3939   -1.5695 H   0  0  0  0  0  0  0  0  0  0  0  0
    6.6442   -0.0943    1.6990 H   0  0  0  0  0  0  0  0  0  0  0  0
    4.2474   -0.4185    2.1824 H   0  0  0  0  0  0  0  0  0  0  0  0
    1.8652   -0.2788    1.4536 H   0  0  0  0  0  0  0  0  0  0  0  0
   -0.6282   -0.2865   -1.1916 H   0  0  0  0  0  0  0  0  0  0  0  0
   -0.6844    1.2872   -0.4438 H   0  0  0  0  0  0  0  0  0  0  0  0
   -2.0396   -1.6304   -0.0257 H   0  0  0  0  0  0  0  0  0  0  0  0
   -1.8354   -1.9329    1.7054 H   0  0  0  0  0  0  0  0  0  0  0  0
    0.6278   -2.6179    1.1521 H   0  0  0  0  0  0  0  0  0  0  0  0
    0.0043   -4.8482    1.0226 H   0  0  0  0  0  0  0  0  0  0  0  0
   -1.6000   -4.2448    1.4587 H   0  0  0  0  0  0  0  0  0  0  0  0
   -2.2328   -4.1117   -0.8915 H   0  0  0  0  0  0  0  0  0  0  0  0
   -1.3294   -5.6398   -0.8346 H   0  0  0  0  0  0  0  0  0  0  0  0
   -0.5356   -3.6927   -2.5470 H   0  0  0  0  0  0  0  0  0  0  0  0
    0.7050   -4.5441   -1.5960 H   0  0  0  0  0  0  0  0  0  0  0  0
   -2.1860    2.9890    0.5965 H   0  0  0  0  0  0  0  0  0  0  0  0
   -4.3949    3.6390   -0.2367 H   0  0  0  0  0  0  0  0  0  0  0  0
   -8.0736    3.7002   -0.7935 H   0  0  0  0  0  0  0  0  0  0  0  0
   -6.6956    4.4003    0.0675 H   0  0  0  0  0  0  0  0  0  0  0  0
   -6.4640    3.5979   -1.5295 H   0  0  0  0  0  0  0  0  0  0  0  0
   -6.1102    0.0841    1.5386 H   0  0  0  0  0  0  0  0  0  0  0  0
   -3.8823   -0.5671    2.3724 H   0  0  0  0  0  0  0  0  0  0  0  0
    3.3446    1.4805   -2.8574 H   0  0  0  0  0  0  0  0  0  0  0  0
    5.6720    1.3616   -2.2379 H   0  0  0  0  0  0  0  0  0  0  0  0
  1  2  1  0
  2  3  1  0
  3  4  2  0
  4  5  1  0
  5  6  2  0
  6  7  1  0
  7  8  2  0
  8  9  1  0
  9 10  1  0
 10 11  1  0
 11 12  1  0
 12 13  1  0
 13 14  1  0
 14 15  1  0
 15 16  1  0
 10 17  1  0
 17 18  2  0
 17 19  2  0
 17 20  1  0
 20 21  2  0
 21 22  1  0
 22 23  2  0
 23 24  1  0
 24 25  1  0
 24 26  2  0
 23 27  1  0
 27 28  2  0
  8 29  1  0
 29 30  2  0
 29 31  1  0
 31 32  1  0
 32 33  2  0
 33  3  1  0
 32  6  1  0
 16 12  1  0
 28 20  1  0
  1 34  1  0
  1 35  1  0
  1 36  1  0
  4 37  1  0
  5 38  1  0
  7 39  1  0
  9 40  1  0
  9 41  1  0
 11 42  1  0
 11 43  1  0
 12 44  1  0
 13 45  1  0
 13 46  1  0
 14 47  1  0
 14 48  1  0
 15 49  1  0
 15 50  1  0
 21 51  1  0
 22 52  1  0
 25 53  1  0
 25 54  1  0
 25 55  1  0
 27 56  1  0
 28 57  1  0
 31 58  1  0
 33 59  1  0
M  END
$$$$
