
     RDKit          3D

 63 67  0  0  0  0  0  0  0  0999 V2000
   -6.0956   -2.6258    2.4692 C   0  0  0  0  0  0  0  0  0  0  0  0
   -5.0890   -3.4139    1.8280 O   0  0  0  0  0  0  0  0  0  0  0  0
   -4.0230   -2.6983    1.3901 C   0  0  0  0  0  0  0  0  0  0  0  0
   -3.8926   -1.4875    1.5035 O   0  0  0  0  0  0  0  0  0  0  0  0
   -3.0045   -3.5747    0.7386 C   0  0  0  0  0  0  0  0  0  0  0  0
   -3.1397   -4.9739    0.7997 C   0  0  0  0  0  0  0  0  0  0  0  0
   -2.1874   -5.8065    0.2114 C   0  0  0  0  0  0  0  0  0  0  0  0
   -1.0852   -5.2512   -0.4286 C   0  0  0  0  0  0  0  0  0  0  0  0
   -0.9405   -3.8635   -0.4991 C   0  0  0  0  0  0  0  0  0  0  0  0
   -1.9046   -3.0070    0.0529 C   0  0  0  0  0  0  0  0  0  0  0  0
   -1.7330   -1.5954    0.0063 N   0  0  0  0  0  0  0  0  0  0  0  0
   -1.1143   -0.8026   -0.9521 C   0  0  0  0  0  0  0  0  0  0  0  0
   -1.0358   -1.2547   -2.5762 S   0  0  0  0  0  0  0  0  0  0  0  0
   -0.6357    0.4277   -0.4433 N   0  0  0  0  0  0  0  0  0  0  0  0
   -0.7309    0.7939    0.9858 C   0  0  0  0  0  0  0  0  0  0  0  0
   -1.7289    1.9061    1.2452 C   0  0  0  0  0  0  0  0  0  0  0  0
   -3.0811    1.7828    0.8460 C   0  0  0  0  0  0  0  0  0  0  0  0
   -4.0093    2.7980    1.0979 C   0  0  0  0  0  0  0  0  0  0  0  0
   -3.5622    3.9266    1.7454 C   0  0  0  0  0  0  0  0  0  0  0  0
   -2.2530    4.0629    2.1377 C   0  0  0  0  0  0  0  0  0  0  0  0
   -1.3173    3.0760    1.9076 C   0  0  0  0  0  0  0  0  0  0  0  0
   -2.0184    5.2527    2.7535 O   0  0  0  0  0  0  0  0  0  0  0  0
   -3.3239    5.8594    2.6773 C   0  0  0  0  0  0  0  0  0  0  0  0
   -4.3164    5.0111    2.0654 O   0  0  0  0  0  0  0  0  0  0  0  0
    0.0431    1.4389   -1.2930 C   0  0  0  0  0  0  0  0  0  0  0  0
    1.5428    1.2804   -1.2557 C   0  0  0  0  0  0  0  0  0  0  0  0
    2.2302    0.5042   -2.1159 C   0  0  0  0  0  0  0  0  0  0  0  0
    3.6865    0.3997   -2.0576 C   0  0  0  0  0  0  0  0  0  0  0  0
    4.3995   -0.4269   -2.9278 C   0  0  0  0  0  0  0  0  0  0  0  0
    5.7943   -0.5083   -2.8359 C   0  0  0  0  0  0  0  0  0  0  0  0
    6.4818    0.2328   -1.8715 C   0  0  0  0  0  0  0  0  0  0  0  0
    7.8355    0.2364   -1.6757 O   0  0  0  0  0  0  0  0  0  0  0  0
    8.6037   -0.6664   -2.4613 C   0  0  0  0  0  0  0  0  0  0  0  0
    5.7677    1.0678   -1.0074 C   0  0  0  0  0  0  0  0  0  0  0  0
    4.3794    1.1470   -1.1034 C   0  0  0  0  0  0  0  0  0  0  0  0
    3.6619    1.9878   -0.2464 N   0  0  0  0  0  0  0  0  0  0  0  0
    2.3001    2.1280   -0.2811 C   0  0  0  0  0  0  0  0  0  0  0  0
    1.7385    2.9237    0.4657 O   0  0  0  0  0  0  0  0  0  0  0  0
   -6.9193   -3.2881    2.7497 H   0  0  0  0  0  0  0  0  0  0  0  0
   -5.6921   -2.1668    3.3770 H   0  0  0  0  0  0  0  0  0  0  0  0
   -6.4810   -1.8623    1.7861 H   0  0  0  0  0  0  0  0  0  0  0  0
   -3.9858   -5.4351    1.3064 H   0  0  0  0  0  0  0  0  0  0  0  0
   -2.2997   -6.8861    0.2640 H   0  0  0  0  0  0  0  0  0  0  0  0
   -0.3278   -5.8959   -0.8711 H   0  0  0  0  0  0  0  0  0  0  0  0
   -0.0445   -3.4708   -0.9702 H   0  0  0  0  0  0  0  0  0  0  0  0
   -2.3993   -1.0862    0.5863 H   0  0  0  0  0  0  0  0  0  0  0  0
   -0.9953   -0.0591    1.6169 H   0  0  0  0  0  0  0  0  0  0  0  0
    0.2689    1.0804    1.3247 H   0  0  0  0  0  0  0  0  0  0  0  0
   -3.4225    0.8897    0.3287 H   0  0  0  0  0  0  0  0  0  0  0  0
   -5.0440    2.7008    0.7912 H   0  0  0  0  0  0  0  0  0  0  0  0
   -0.2884    3.2216    2.2184 H   0  0  0  0  0  0  0  0  0  0  0  0
   -3.2461    6.7850    2.0952 H   0  0  0  0  0  0  0  0  0  0  0  0
   -3.6549    6.1096    3.6917 H   0  0  0  0  0  0  0  0  0  0  0  0
   -0.2627    2.4416   -0.9747 H   0  0  0  0  0  0  0  0  0  0  0  0
   -0.3095    1.3627   -2.3265 H   0  0  0  0  0  0  0  0  0  0  0  0
    1.7219   -0.0783   -2.8761 H   0  0  0  0  0  0  0  0  0  0  0  0
    3.8808   -1.0143   -3.6819 H   0  0  0  0  0  0  0  0  0  0  0  0
    6.3110   -1.1590   -3.5325 H   0  0  0  0  0  0  0  0  0  0  0  0
    8.5533   -0.4038   -3.5235 H   0  0  0  0  0  0  0  0  0  0  0  0
    8.2906   -1.7029   -2.2960 H   0  0  0  0  0  0  0  0  0  0  0  0
    9.6481   -0.5795   -2.1444 H   0  0  0  0  0  0  0  0  0  0  0  0
    6.3069    1.6462   -0.2626 H   0  0  0  0  0  0  0  0  0  0  0  0
    4.1485    2.5629    0.4281 H   0  0  0  0  0  0  0  0  0  0  0  0
  1  2  1  0
  2  3  1  0
  3  4  2  0
  3  5  1  0
  5  6  2  0
  6  7  1  0
  7  8  2  0
  8  9  1  0
  9 10  2  0
 10 11  1  0
 11 12  1  0
 12 13  2  0
 12 14  1  0
 14 15  1  0
 15 16  1  0
 16 17  2  0
 17 18  1  0
 18 19  2  0
 19 20  1  0
 20 21  2  0
 20 22  1  0
 22 23  1  0
 23 24  1  0
 14 25  1  0
 25 26  1  0
 26 27  2  0
 27 28  1  0
 28 29  2  0
 29 30  1  0
 30 31  2  0
 31 32  1  0
 32 33  1  0
 31 34  1  0
 34 35  2  0
 35 36  1  0
 36 37  1  0
 37 38  2  0
 10  5  1  0
 21 16  1  0
 37 26  1  0
 24 19  1  0
 35 28  1  0
  1 39  1  0
  1 40  1  0
  1 41  1  0
  6 42  1  0
  7 43  1  0
  8 44  1  0
  9 45  1  0
 11 46  1  0
 15 47  1  0
 15 48  1  0
 17 49  1  0
 18 50  1  0
 21 51  1  0
 23 52  1  0
 23 53  1  0
 25 54  1  0
 25 55  1  0
 27 56  1  0
 29 57  1  0
 30 58  1  0
 33 59  1  0
 33 60  1  0
 33 61  1  0
 34 62  1  0
 36 63  1  0
M  END
$$$$
