
     RDKit          3D

 61 66  0  0  0  0  0  0  0  0999 V2000
    8.7441    2.3435    3.7439 F   0  0  0  0  0  0  0  0  0  0  0  0
    7.8896    1.5970    3.0315 C   0  0  0  0  0  0  0  0  0  0  0  0
    8.1726    1.3146    1.7002 C   0  0  0  0  0  0  0  0  0  0  0  0
    7.2807    0.5406    0.9559 C   0  0  0  0  0  0  0  0  0  0  0  0
    6.1070    0.0466    1.5472 C   0  0  0  0  0  0  0  0  0  0  0  0
    5.1271   -0.7693    0.7346 C   0  0  0  0  0  0  0  0  0  0  0  0
    4.0241    0.1163    0.1305 C   0  0  0  0  0  0  0  0  0  0  0  0
    3.1008   -0.6409   -0.7293 N   0  0  0  0  0  0  0  0  0  0  0  0
    2.3721    0.2807   -1.6349 C   0  0  0  0  0  0  0  0  0  0  0  0
    1.0723   -0.3207   -2.2073 C   0  0  0  0  0  0  0  0  0  0  0  0
    0.0987   -0.6400   -1.1354 N   0  0  0  0  0  0  0  0  0  0  0  0
   -1.0617    0.0876   -1.0827 C   0  0  0  0  0  0  0  0  0  0  0  0
   -1.2382    1.4513   -1.2259 C   0  0  0  0  0  0  0  0  0  0  0  0
   -2.5880    1.7501   -0.9484 C   0  0  0  0  0  0  0  0  0  0  0  0
   -3.2212    0.5630   -0.6343 C   0  0  0  0  0  0  0  0  0  0  0  0
   -4.5806    0.2669   -0.2344 C   0  0  0  0  0  0  0  0  0  0  0  0
   -5.5363    1.3600    0.0838 C   0  0  0  0  0  0  0  0  0  0  0  0
   -6.8324    1.2999   -0.4453 C   0  0  0  0  0  0  0  0  0  0  0  0
   -7.7523    2.3076   -0.1513 C   0  0  0  0  0  0  0  0  0  0  0  0
   -7.3840    3.3669    0.6805 C   0  0  0  0  0  0  0  0  0  0  0  0
   -6.1002    3.4168    1.2283 C   0  0  0  0  0  0  0  0  0  0  0  0
   -5.1766    2.4109    0.9368 C   0  0  0  0  0  0  0  0  0  0  0  0
   -4.9966   -0.9622   -0.1472 N   0  0  0  0  0  0  0  0  0  0  0  0
   -4.1034   -2.0137   -0.4314 C   0  0  0  0  0  0  0  0  0  0  0  0
   -4.6006   -3.3192   -0.3695 C   0  0  0  0  0  0  0  0  0  0  0  0
   -3.7810   -4.4111   -0.6575 C   0  0  0  0  0  0  0  0  0  0  0  0
   -2.4523   -4.2036   -1.0196 C   0  0  0  0  0  0  0  0  0  0  0  0
   -1.9362   -2.9070   -1.0851 C   0  0  0  0  0  0  0  0  0  0  0  0
   -2.7542   -1.8162   -0.7749 C   0  0  0  0  0  0  0  0  0  0  0  0
   -2.3158   -0.4689   -0.8299 N   0  0  0  0  0  0  0  0  0  0  0  0
    0.7272   -0.9030    0.1863 C   0  0  0  0  0  0  0  0  0  0  0  0
    2.1506   -1.4856    0.0344 C   0  0  0  0  0  0  0  0  0  0  0  0
    5.8377    0.3449    2.8923 C   0  0  0  0  0  0  0  0  0  0  0  0
    6.7311    1.1196    3.6340 C   0  0  0  0  0  0  0  0  0  0  0  0
    9.0832    1.6995    1.2511 H   0  0  0  0  0  0  0  0  0  0  0  0
    7.5043    0.3252   -0.0873 H   0  0  0  0  0  0  0  0  0  0  0  0
    5.6662   -1.2934   -0.0659 H   0  0  0  0  0  0  0  0  0  0  0  0
    4.7061   -1.5528    1.3760 H   0  0  0  0  0  0  0  0  0  0  0  0
    4.5193    0.8901   -0.4717 H   0  0  0  0  0  0  0  0  0  0  0  0
    3.4737    0.6444    0.9198 H   0  0  0  0  0  0  0  0  0  0  0  0
    2.1159    1.2113   -1.1099 H   0  0  0  0  0  0  0  0  0  0  0  0
    3.0362    0.5467   -2.4653 H   0  0  0  0  0  0  0  0  0  0  0  0
    1.3042   -1.2506   -2.7419 H   0  0  0  0  0  0  0  0  0  0  0  0
    0.6462    0.3613   -2.9535 H   0  0  0  0  0  0  0  0  0  0  0  0
   -0.4595    2.1652   -1.4560 H   0  0  0  0  0  0  0  0  0  0  0  0
   -3.0375    2.7345   -0.9572 H   0  0  0  0  0  0  0  0  0  0  0  0
   -7.1254    0.4699   -1.0864 H   0  0  0  0  0  0  0  0  0  0  0  0
   -8.7572    2.2628   -0.5670 H   0  0  0  0  0  0  0  0  0  0  0  0
   -8.1034    4.1489    0.9108 H   0  0  0  0  0  0  0  0  0  0  0  0
   -5.8221    4.2349    1.8894 H   0  0  0  0  0  0  0  0  0  0  0  0
   -4.1896    2.4444    1.3925 H   0  0  0  0  0  0  0  0  0  0  0  0
   -5.6407   -3.4792   -0.0998 H   0  0  0  0  0  0  0  0  0  0  0  0
   -4.1836   -5.4191   -0.6102 H   0  0  0  0  0  0  0  0  0  0  0  0
   -1.8163   -5.0512   -1.2621 H   0  0  0  0  0  0  0  0  0  0  0  0
   -0.9069   -2.7815   -1.4025 H   0  0  0  0  0  0  0  0  0  0  0  0
    0.7805    0.0239    0.7717 H   0  0  0  0  0  0  0  0  0  0  0  0
    0.1109   -1.6121    0.7495 H   0  0  0  0  0  0  0  0  0  0  0  0
    2.5374   -1.7358    1.0281 H   0  0  0  0  0  0  0  0  0  0  0  0
    2.0718   -2.4401   -0.5025 H   0  0  0  0  0  0  0  0  0  0  0  0
    4.9314   -0.0247    3.3683 H   0  0  0  0  0  0  0  0  0  0  0  0
    6.5308    1.3542    4.6751 H   0  0  0  0  0  0  0  0  0  0  0  0
  1  2  1  0
  2  3  2  0
  3  4  1  0
  4  5  2  0
  5  6  1  0
  6  7  1  0
  7  8  1  0
  8  9  1  0
  9 10  1  0
 10 11  1  0
 11 12  1  0
 12 13  2  0
 13 14  1  0
 14 15  2  0
 15 16  1  0
 16 17  1  0
 17 18  2  0
 18 19  1  0
 19 20  2  0
 20 21  1  0
 21 22  2  0
 16 23  2  0
 23 24  1  0
 24 25  2  0
 25 26  1  0
 26 27  2  0
 27 28  1  0
 28 29  2  0
 29 30  1  0
 11 31  1  0
 31 32  1  0
  5 33  1  0
 33 34  2  0
 34  2  1  0
 32  8  1  0
 30 12  1  0
 30 15  1  0
 22 17  1  0
 29 24  1  0
  3 35  1  0
  4 36  1  0
  6 37  1  0
  6 38  1  0
  7 39  1  0
  7 40  1  0
  9 41  1  0
  9 42  1  0
 10 43  1  0
 10 44  1  0
 13 45  1  0
 14 46  1  0
 18 47  1  0
 19 48  1  0
 20 49  1  0
 21 50  1  0
 22 51  1  0
 25 52  1  0
 26 53  1  0
 27 54  1  0
 28 55  1  0
 31 56  1  0
 31 57  1  0
 32 58  1  0
 32 59  1  0
 33 60  1  0
 34 61  1  0
M  END
$$$$
