
     RDKit          3D

 42 43  0  0  0  0  0  0  0  0999 V2000
   -5.4889    0.7912    0.9181 C   0  0  0  0  0  0  0  0  0  0  0  0
   -5.2403    0.2555   -0.4562 C   0  0  0  0  0  0  0  0  0  0  0  0
   -4.1480   -0.4023   -0.9003 C   0  0  0  0  0  0  0  0  0  0  0  0
   -4.0767   -0.8324   -2.3426 C   0  0  0  0  0  0  0  0  0  0  0  0
   -2.9751   -0.8012   -0.0253 C   0  0  0  0  0  0  0  0  0  0  0  0
   -1.8596    0.1430   -0.1304 N   0  0  0  0  0  0  0  0  0  0  0  0
   -0.9026   -0.1861   -1.2076 C   0  0  0  0  0  0  0  0  0  0  0  0
    0.4658   -0.7568   -0.7578 C   0  0  0  0  0  0  0  0  0  0  0  0
    1.1190    0.1225    0.2223 N   0  0  0  0  0  0  0  0  0  0  0  0
    2.4920    0.1307    0.4003 C   0  0  0  0  0  0  0  0  0  0  0  0
    3.3078   -0.9192   -0.0492 C   0  0  0  0  0  0  0  0  0  0  0  0
    4.6985   -0.9141    0.1305 C   0  0  0  0  0  0  0  0  0  0  0  0
    5.3253    0.1491    0.7790 C   0  0  0  0  0  0  0  0  0  0  0  0
    6.8145    0.1770    0.9424 C   0  0  0  0  0  0  0  0  0  0  0  0
    4.5396    1.2135    1.2188 C   0  0  0  0  0  0  0  0  0  0  0  0
    3.1498    1.1963    1.0349 C   0  0  0  0  0  0  0  0  0  0  0  0
    0.2289    0.9462    1.0556 C   0  0  0  0  0  0  0  0  0  0  0  0
   -1.1695    0.2978    1.1658 C   0  0  0  0  0  0  0  0  0  0  0  0
   -5.8093    1.8359    0.8484 H   0  0  0  0  0  0  0  0  0  0  0  0
   -6.2891    0.2219    1.4005 H   0  0  0  0  0  0  0  0  0  0  0  0
   -4.6075    0.7676    1.5625 H   0  0  0  0  0  0  0  0  0  0  0  0
   -6.0424    0.4686   -1.1620 H   0  0  0  0  0  0  0  0  0  0  0  0
   -3.3301   -0.2443   -2.8840 H   0  0  0  0  0  0  0  0  0  0  0  0
   -3.8135   -1.8927   -2.4145 H   0  0  0  0  0  0  0  0  0  0  0  0
   -5.0331   -0.7020   -2.8607 H   0  0  0  0  0  0  0  0  0  0  0  0
   -2.6566   -1.8269   -0.2560 H   0  0  0  0  0  0  0  0  0  0  0  0
   -3.3258   -0.8636    1.0125 H   0  0  0  0  0  0  0  0  0  0  0  0
   -0.7120    0.7490   -1.7507 H   0  0  0  0  0  0  0  0  0  0  0  0
   -1.3329   -0.8733   -1.9438 H   0  0  0  0  0  0  0  0  0  0  0  0
    1.0838   -0.8623   -1.6577 H   0  0  0  0  0  0  0  0  0  0  0  0
    0.3259   -1.7529   -0.3207 H   0  0  0  0  0  0  0  0  0  0  0  0
    2.8724   -1.7858   -0.5379 H   0  0  0  0  0  0  0  0  0  0  0  0
    5.2818   -1.7540   -0.2392 H   0  0  0  0  0  0  0  0  0  0  0  0
    7.2778    0.6552    0.0739 H   0  0  0  0  0  0  0  0  0  0  0  0
    7.2154   -0.8370    1.0439 H   0  0  0  0  0  0  0  0  0  0  0  0
    7.0984    0.7297    1.8441 H   0  0  0  0  0  0  0  0  0  0  0  0
    4.9971    2.0717    1.7052 H   0  0  0  0  0  0  0  0  0  0  0  0
    2.5898    2.0608    1.3801 H   0  0  0  0  0  0  0  0  0  0  0  0
    0.1468    1.9519    0.6258 H   0  0  0  0  0  0  0  0  0  0  0  0
    0.6242    1.0408    2.0743 H   0  0  0  0  0  0  0  0  0  0  0  0
   -1.7923    0.9130    1.8259 H   0  0  0  0  0  0  0  0  0  0  0  0
   -1.0491   -0.6818    1.6497 H   0  0  0  0  0  0  0  0  0  0  0  0
  1  2  1  0
  2  3  2  3
  3  4  1  0
  3  5  1  0
  5  6  1  0
  6  7  1  0
  7  8  1  0
  8  9  1  0
  9 10  1  0
 10 11  2  0
 11 12  1  0
 12 13  2  0
 13 14  1  0
 13 15  1  0
 15 16  2  0
  9 17  1  0
 17 18  1  0
 18  6  1  0
 16 10  1  0
  1 19  1  0
  1 20  1  0
  1 21  1  0
  2 22  1  0
  4 23  1  0
  4 24  1  0
  4 25  1  0
  5 26  1  0
  5 27  1  0
  7 28  1  0
  7 29  1  0
  8 30  1  0
  8 31  1  0
 11 32  1  0
 12 33  1  0
 14 34  1  0
 14 35  1  0
 14 36  1  0
 15 37  1  0
 16 38  1  0
 17 39  1  0
 17 40  1  0
 18 41  1  0
 18 42  1  0
M  END
$$$$
