
     RDKit          3D

 46 48  0  0  0  0  0  0  0  0999 V2000
   -2.0815    2.0622    1.5895 C   0  0  0  0  0  0  0  0  0  0  0  0
   -2.2950    1.6995    0.1318 C   0  0  0  0  0  0  0  0  0  0  0  0
   -2.7413    0.2762    0.0155 N   0  0  0  0  0  4  0  0  0  0  0  0
   -1.8063   -0.7050   -0.1730 C   0  0  0  0  0  0  0  0  0  0  0  0
   -0.3773   -0.3809   -0.2654 C   0  0  0  0  0  0  0  0  0  0  0  0
    0.5046   -0.7221    0.6891 C   0  0  0  0  0  0  0  0  0  0  0  0
    1.9338   -0.3644    0.6592 C   0  0  0  0  0  0  0  0  0  0  0  0
    2.6428   -0.3163    1.8677 C   0  0  0  0  0  0  0  0  0  0  0  0
    3.9959    0.0546    1.9013 C   0  0  0  0  0  0  0  0  0  0  0  0
    4.6735    0.3703    0.7220 C   0  0  0  0  0  0  0  0  0  0  0  0
    5.9717    0.7946    0.6494 O   0  0  0  0  0  0  0  0  0  0  0  0
    6.6954    0.9228    1.8660 C   0  0  0  0  0  0  0  0  0  0  0  0
    3.9781    0.2703   -0.4907 C   0  0  0  0  0  0  0  0  0  0  0  0
    4.5532    0.6027   -1.6916 O   0  0  0  0  0  0  0  0  0  0  0  0
    5.4297   -0.4315   -2.1461 C   0  0  0  0  0  0  0  0  0  0  0  0
    2.6237   -0.0795   -0.5232 C   0  0  0  0  0  0  0  0  0  0  0  0
   -2.1873   -2.0410   -0.3091 C   0  0  0  0  0  0  0  0  0  0  0  0
   -3.5228   -2.3912   -0.2522 C   0  0  0  0  0  0  0  0  0  0  0  0
   -4.4781   -1.4039   -0.0489 C   0  0  0  0  0  0  0  0  0  0  0  0
   -5.8341   -1.7587    0.0153 C   0  0  0  0  0  0  0  0  0  0  0  0
   -6.8113   -0.7916    0.2281 C   0  0  0  0  0  0  0  0  0  0  0  0
   -6.4435    0.5373    0.3850 C   0  0  0  0  0  0  0  0  0  0  0  0
   -5.0948    0.9068    0.3232 C   0  0  0  0  0  0  0  0  0  0  0  0
   -4.0796   -0.0442    0.0960 C   0  0  0  0  0  0  0  0  0  0  0  0
   -1.3180    1.4295    2.0504 H   0  0  0  0  0  0  0  0  0  0  0  0
   -2.9994    1.9482    2.1729 H   0  0  0  0  0  0  0  0  0  0  0  0
   -1.7554    3.1028    1.6711 H   0  0  0  0  0  0  0  0  0  0  0  0
   -3.0333    2.3449   -0.3512 H   0  0  0  0  0  0  0  0  0  0  0  0
   -1.3808    1.8508   -0.4465 H   0  0  0  0  0  0  0  0  0  0  0  0
   -0.0792    0.1700   -1.1525 H   0  0  0  0  0  0  0  0  0  0  0  0
    0.1781   -1.2586    1.5795 H   0  0  0  0  0  0  0  0  0  0  0  0
    2.1521   -0.5498    2.8107 H   0  0  0  0  0  0  0  0  0  0  0  0
    4.4877    0.0944    2.8679 H   0  0  0  0  0  0  0  0  0  0  0  0
    6.2145    1.6324    2.5473 H   0  0  0  0  0  0  0  0  0  0  0  0
    6.8298   -0.0542    2.3399 H   0  0  0  0  0  0  0  0  0  0  0  0
    7.6858    1.3202    1.6242 H   0  0  0  0  0  0  0  0  0  0  0  0
    6.2138   -0.6723   -1.4176 H   0  0  0  0  0  0  0  0  0  0  0  0
    4.8575   -1.3345   -2.3946 H   0  0  0  0  0  0  0  0  0  0  0  0
    5.9126   -0.0759   -3.0618 H   0  0  0  0  0  0  0  0  0  0  0  0
    2.1404   -0.1370   -1.4945 H   0  0  0  0  0  0  0  0  0  0  0  0
   -1.4406   -2.8183   -0.4708 H   0  0  0  0  0  0  0  0  0  0  0  0
   -3.8072   -3.4380   -0.3626 H   0  0  0  0  0  0  0  0  0  0  0  0
   -6.1489   -2.7970   -0.0985 H   0  0  0  0  0  0  0  0  0  0  0  0
   -7.8615   -1.0784    0.2759 H   0  0  0  0  0  0  0  0  0  0  0  0
   -7.2104    1.2911    0.5590 H   0  0  0  0  0  0  0  0  0  0  0  0
   -4.8871    1.9629    0.4732 H   0  0  0  0  0  0  0  0  0  0  0  0
  1  2  1  0
  2  3  1  0
  3  4  2  0
  4  5  1  0
  5  6  2  3
  6  7  1  0
  7  8  2  0
  8  9  1  0
  9 10  2  0
 10 11  1  0
 11 12  1  0
 10 13  1  0
 13 14  1  0
 14 15  1  0
 13 16  2  0
  4 17  1  0
 17 18  2  0
 18 19  1  0
 19 20  2  0
 20 21  1  0
 21 22  2  0
 22 23  1  0
 23 24  2  0
 24  3  1  0
 16  7  1  0
 24 19  1  0
  1 25  1  0
  1 26  1  0
  1 27  1  0
  2 28  1  0
  2 29  1  0
  5 30  1  0
  6 31  1  0
  8 32  1  0
  9 33  1  0
 12 34  1  0
 12 35  1  0
 12 36  1  0
 15 37  1  0
 15 38  1  0
 15 39  1  0
 16 40  1  0
 17 41  1  0
 18 42  1  0
 20 43  1  0
 21 44  1  0
 22 45  1  0
 23 46  1  0
M  CHG  1   3   1
M  END
$$$$
