
     RDKit          3D

 44 46  0  0  0  0  0  0  0  0999 V2000
    7.9603    4.5560    1.5811 C   0  0  0  0  0  0  0  0  0  0  0  0
    6.8886    4.2633    2.4685 O   0  0  0  0  0  0  0  0  0  0  0  0
    5.8166    3.5961    1.9458 C   0  0  0  0  0  0  0  0  0  0  0  0
    5.6794    3.1636    0.6290 C   0  0  0  0  0  0  0  0  0  0  0  0
    4.5216    2.4825    0.2260 C   0  0  0  0  0  0  0  0  0  0  0  0
    3.4807    2.2231    1.1289 C   0  0  0  0  0  0  0  0  0  0  0  0
    2.2841    1.5096    0.6962 C   0  0  0  0  0  0  0  0  0  0  0  0
    1.9136    0.8337   -0.4423 C   0  0  0  0  0  0  0  0  0  0  0  0
    0.5960    0.3773   -0.1884 C   0  0  0  0  0  0  0  0  0  0  0  0
   -0.2635   -0.4098   -1.0809 C   0  0  0  0  0  0  0  0  0  0  0  0
    0.1339   -0.7685   -2.1841 O   0  0  0  0  0  0  0  0  0  0  0  0
   -1.5053   -0.6705   -0.5303 N   0  0  0  0  0  0  0  0  0  0  0  0
   -2.5760   -1.3902   -1.0887 C   0  0  0  0  0  0  0  0  0  0  0  0
   -2.5427   -1.9895   -2.3485 C   0  0  0  0  0  0  0  0  0  0  0  0
   -3.6578   -2.6836   -2.8434 C   0  0  0  0  0  0  0  0  0  0  0  0
   -4.8223   -2.7950   -2.0824 C   0  0  0  0  0  0  0  0  0  0  0  0
   -5.9659   -3.4320   -2.4828 O   0  0  0  0  0  0  0  0  0  0  0  0
   -6.0240   -3.8761   -3.8316 C   0  0  0  0  0  0  0  0  0  0  0  0
   -4.8374   -2.2196   -0.8046 C   0  0  0  0  0  0  0  0  0  0  0  0
   -5.9521   -2.2675   -0.0027 O   0  0  0  0  0  0  0  0  0  0  0  0
   -6.0332   -3.5335    0.6532 C   0  0  0  0  0  0  0  0  0  0  0  0
   -3.7374   -1.5047   -0.3205 C   0  0  0  0  0  0  0  0  0  0  0  0
    0.1870    0.7622    1.0336 N   0  0  0  0  0  0  0  0  0  0  0  0
    1.2451    1.4650    1.5795 O   0  0  0  0  0  0  0  0  0  0  0  0
    3.6303    2.6660    2.4498 C   0  0  0  0  0  0  0  0  0  0  0  0
    4.7868    3.3431    2.8516 C   0  0  0  0  0  0  0  0  0  0  0  0
    7.6322    5.2162    0.7716 H   0  0  0  0  0  0  0  0  0  0  0  0
    8.4088    3.6394    1.1856 H   0  0  0  0  0  0  0  0  0  0  0  0
    8.7312    5.0847    2.1501 H   0  0  0  0  0  0  0  0  0  0  0  0
    6.4529    3.3355   -0.1122 H   0  0  0  0  0  0  0  0  0  0  0  0
    4.4491    2.1622   -0.8108 H   0  0  0  0  0  0  0  0  0  0  0  0
    2.4969    0.6718   -1.3367 H   0  0  0  0  0  0  0  0  0  0  0  0
   -1.6433   -0.2777    0.3976 H   0  0  0  0  0  0  0  0  0  0  0  0
   -1.6634   -1.9342   -2.9832 H   0  0  0  0  0  0  0  0  0  0  0  0
   -3.5761   -3.1242   -3.8314 H   0  0  0  0  0  0  0  0  0  0  0  0
   -5.8640   -3.0491   -4.5312 H   0  0  0  0  0  0  0  0  0  0  0  0
   -7.0279   -4.2718   -4.0104 H   0  0  0  0  0  0  0  0  0  0  0  0
   -5.3093   -4.6865   -4.0081 H   0  0  0  0  0  0  0  0  0  0  0  0
   -6.1971   -4.3499   -0.0580 H   0  0  0  0  0  0  0  0  0  0  0  0
   -6.8913   -3.5036    1.3325 H   0  0  0  0  0  0  0  0  0  0  0  0
   -5.1352   -3.7254    1.2526 H   0  0  0  0  0  0  0  0  0  0  0  0
   -3.8069   -1.0475    0.6627 H   0  0  0  0  0  0  0  0  0  0  0  0
    2.8534    2.4860    3.1897 H   0  0  0  0  0  0  0  0  0  0  0  0
    4.8837    3.6732    3.8830 H   0  0  0  0  0  0  0  0  0  0  0  0
  1  2  1  0
  2  3  1  0
  3  4  2  0
  4  5  1  0
  5  6  2  0
  6  7  1  0
  7  8  2  0
  8  9  1  0
  9 10  1  0
 10 11  2  0
 10 12  1  0
 12 13  1  0
 13 14  2  0
 14 15  1  0
 15 16  2  0
 16 17  1  0
 17 18  1  0
 16 19  1  0
 19 20  1  0
 20 21  1  0
 19 22  2  0
  9 23  2  0
 23 24  1  0
  6 25  1  0
 25 26  2  0
 26  3  1  0
 24  7  1  0
 22 13  1  0
  1 27  1  0
  1 28  1  0
  1 29  1  0
  4 30  1  0
  5 31  1  0
  8 32  1  0
 12 33  1  0
 14 34  1  0
 15 35  1  0
 18 36  1  0
 18 37  1  0
 18 38  1  0
 21 39  1  0
 21 40  1  0
 21 41  1  0
 22 42  1  0
 25 43  1  0
 26 44  1  0
M  END
$$$$
