
     RDKit          3D

 32 34  0  0  0  0  0  0  0  0999 V2000
    5.1522   -0.5626   -0.9357 C   0  0  0  0  0  0  0  0  0  0  0  0
    4.3984    0.1386    0.1775 C   0  0  0  0  0  0  0  0  0  0  0  0
    2.9970   -0.0005   -0.0756 O   0  0  0  0  0  0  0  0  0  0  0  0
    2.2070    0.5734    0.8688 C   0  0  0  0  0  0  0  0  0  0  0  0
    2.5849    1.1947    1.8516 O   0  0  0  0  0  0  0  0  0  0  0  0
    0.7986    0.3465    0.5175 C   0  0  0  0  0  0  0  0  0  0  0  0
    0.0493    1.4033    0.1334 C   0  0  0  0  0  0  0  0  0  0  0  0
    0.5647    2.6817    0.0503 O   0  0  0  0  0  0  0  0  0  0  0  0
   -1.3675    1.2160   -0.2251 C   0  0  0  0  0  0  0  0  0  0  0  0
   -2.2706    2.1722   -0.6935 C   0  0  0  0  0  0  0  0  0  0  0  0
   -3.6045    1.8104   -0.9932 C   0  0  0  0  0  0  0  0  0  0  0  0
   -4.0581    0.4910   -0.8412 C   0  0  0  0  0  0  0  0  0  0  0  0
   -3.1596   -0.4561   -0.3959 C   0  0  0  0  0  0  0  0  0  0  0  0
   -1.8600   -0.0706   -0.1080 C   0  0  0  0  0  0  0  0  0  0  0  0
   -1.0943   -1.1486    0.3003 N   0  0  0  0  0  0  0  0  0  0  0  0
    0.2351   -1.0381    0.6184 C   0  0  0  0  0  0  0  0  0  0  0  0
    0.9162   -1.9945    0.9763 O   0  0  0  0  0  0  0  0  0  0  0  0
   -1.9140   -2.3590    0.2965 C   0  0  0  0  0  0  0  0  0  0  0  0
   -3.3312   -1.9251   -0.1533 C   0  0  0  0  0  0  0  0  0  0  0  0
    4.8780   -1.6218   -0.9789 H   0  0  0  0  0  0  0  0  0  0  0  0
    4.8968   -0.1276   -1.9076 H   0  0  0  0  0  0  0  0  0  0  0  0
    6.2325   -0.4830   -0.7858 H   0  0  0  0  0  0  0  0  0  0  0  0
    4.6675    1.2008    0.1942 H   0  0  0  0  0  0  0  0  0  0  0  0
    4.6492   -0.3210    1.1401 H   0  0  0  0  0  0  0  0  0  0  0  0
   -0.1371    3.3179    0.2667 H   0  0  0  0  0  0  0  0  0  0  0  0
   -1.9707    3.2036   -0.8541 H   0  0  0  0  0  0  0  0  0  0  0  0
   -4.2930    2.5716   -1.3574 H   0  0  0  0  0  0  0  0  0  0  0  0
   -5.0842    0.2282   -1.0789 H   0  0  0  0  0  0  0  0  0  0  0  0
   -1.4711   -3.0872   -0.3918 H   0  0  0  0  0  0  0  0  0  0  0  0
   -1.9170   -2.7942    1.3018 H   0  0  0  0  0  0  0  0  0  0  0  0
   -4.0658   -2.1117    0.6360 H   0  0  0  0  0  0  0  0  0  0  0  0
   -3.6285   -2.4481   -1.0673 H   0  0  0  0  0  0  0  0  0  0  0  0
  1  2  1  0
  2  3  1  0
  3  4  1  0
  4  5  2  0
  4  6  1  0
  6  7  2  0
  7  8  1  0
  7  9  1  0
  9 10  2  0
 10 11  1  0
 11 12  2  0
 12 13  1  0
 13 14  2  0
 14 15  1  0
 15 16  1  0
 16 17  2  0
 15 18  1  0
 18 19  1  0
 16  6  1  0
 14  9  1  0
 19 13  1  0
  1 20  1  0
  1 21  1  0
  1 22  1  0
  2 23  1  0
  2 24  1  0
  8 25  1  0
 10 26  1  0
 11 27  1  0
 12 28  1  0
 18 29  1  0
 18 30  1  0
 19 31  1  0
 19 32  1  0
M  END
$$$$
