
     RDKit          3D

 40 42  0  0  0  0  0  0  0  0999 V2000
   -4.3568    3.3727    1.8291 C   0  0  0  0  0  0  0  0  0  0  0  0
   -4.4051    2.0991    1.4155 C   0  0  0  0  0  0  0  0  0  0  0  0
   -4.0632    1.6395    0.0279 C   0  0  0  0  0  0  0  0  0  0  0  0
   -3.0074    0.6306    0.0396 N   0  0  0  0  0  0  0  0  0  0  0  0
   -1.6653    0.9205   -0.0362 C   0  0  0  0  0  0  0  0  0  0  0  0
   -0.9675   -0.2672   -0.0172 C   0  0  0  0  0  0  0  0  0  0  0  0
    0.4551   -0.4144   -0.0667 C   0  0  0  0  0  0  0  0  0  0  0  0
    1.3479    0.5796   -0.2159 C   0  0  0  0  0  0  0  0  0  0  0  0
    2.7984    0.3679   -0.2588 C   0  0  0  0  0  0  0  0  0  0  0  0
    3.5606    1.0614   -1.1965 C   0  0  0  0  0  0  0  0  0  0  0  0
    4.9394    0.8856   -1.2301 C   0  0  0  0  0  0  0  0  0  0  0  0
    5.5501    0.0619   -0.3494 N   0  0  0  0  0  4  0  0  0  0  0  0
    7.0108   -0.1169   -0.4105 C   0  0  0  0  0  0  0  0  0  0  0  0
    4.8324   -0.6142    0.5751 C   0  0  0  0  0  0  0  0  0  0  0  0
    3.4513   -0.4709    0.6432 C   0  0  0  0  0  0  0  0  0  0  0  0
   -1.9272   -1.3252    0.0722 C   0  0  0  0  0  0  0  0  0  0  0  0
   -1.8396   -2.7348    0.1280 C   0  0  0  0  0  0  0  0  0  0  0  0
   -3.0046   -3.5036    0.2196 C   0  0  0  0  0  0  0  0  0  0  0  0
   -4.2521   -2.8920    0.2576 C   0  0  0  0  0  0  0  0  0  0  0  0
   -4.3712   -1.5010    0.2034 C   0  0  0  0  0  0  0  0  0  0  0  0
   -3.1965   -0.7355    0.1082 C   0  0  0  0  0  0  0  0  0  0  0  0
   -4.0579    4.1820    1.1699 H   0  0  0  0  0  0  0  0  0  0  0  0
   -4.6229    3.6334    2.8498 H   0  0  0  0  0  0  0  0  0  0  0  0
   -4.7175    1.3298    2.1196 H   0  0  0  0  0  0  0  0  0  0  0  0
   -4.9428    1.2062   -0.4588 H   0  0  0  0  0  0  0  0  0  0  0  0
   -3.7155    2.4658   -0.6033 H   0  0  0  0  0  0  0  0  0  0  0  0
   -1.3368    1.9498   -0.0867 H   0  0  0  0  0  0  0  0  0  0  0  0
    0.8189   -1.4361    0.0151 H   0  0  0  0  0  0  0  0  0  0  0  0
    1.0130    1.6076   -0.3338 H   0  0  0  0  0  0  0  0  0  0  0  0
    3.0865    1.7307   -1.9126 H   0  0  0  0  0  0  0  0  0  0  0  0
    5.5616    1.3994   -1.9577 H   0  0  0  0  0  0  0  0  0  0  0  0
    7.2096   -0.9557   -1.0821 H   0  0  0  0  0  0  0  0  0  0  0  0
    7.4694    0.8010   -0.7871 H   0  0  0  0  0  0  0  0  0  0  0  0
    7.3886   -0.3235    0.5941 H   0  0  0  0  0  0  0  0  0  0  0  0
    5.3718   -1.2648    1.2579 H   0  0  0  0  0  0  0  0  0  0  0  0
    2.8949   -1.0093    1.4084 H   0  0  0  0  0  0  0  0  0  0  0  0
   -0.8748   -3.2309    0.0998 H   0  0  0  0  0  0  0  0  0  0  0  0
   -2.9339   -4.5878    0.2621 H   0  0  0  0  0  0  0  0  0  0  0  0
   -5.1493   -3.5029    0.3308 H   0  0  0  0  0  0  0  0  0  0  0  0
   -5.3525   -1.0381    0.2371 H   0  0  0  0  0  0  0  0  0  0  0  0
  1  2  2  0
  2  3  1  0
  3  4  1  0
  4  5  1  0
  5  6  2  0
  6  7  1  0
  7  8  2  3
  8  9  1  0
  9 10  2  0
 10 11  1  0
 11 12  2  0
 12 13  1  0
 12 14  1  0
 14 15  2  0
  6 16  1  0
 16 17  2  0
 17 18  1  0
 18 19  2  0
 19 20  1  0
 20 21  2  0
 21  4  1  0
 15  9  1  0
 21 16  1  0
  1 22  1  0
  1 23  1  0
  2 24  1  0
  3 25  1  0
  3 26  1  0
  5 27  1  0
  7 28  1  0
  8 29  1  0
 10 30  1  0
 11 31  1  0
 13 32  1  0
 13 33  1  0
 13 34  1  0
 14 35  1  0
 15 36  1  0
 17 37  1  0
 18 38  1  0
 19 39  1  0
 20 40  1  0
M  CHG  1  12   1
M  END
$$$$
