
     RDKit          3D

 60 63  0  0  0  0  0  0  0  0999 V2000
   -7.0384   -0.5175   -1.6923 C   0  0  0  0  0  0  0  0  0  0  0  0
   -7.5982   -0.2420   -0.5057 C   0  0  0  0  0  0  0  0  0  0  0  0
   -7.2606    0.8641    0.4627 C   0  0  0  0  0  0  0  0  0  0  0  0
   -6.1389    1.6850    0.0255 N   0  0  0  0  0  0  0  0  0  0  0  0
   -6.3801    2.8275   -0.7271 C   0  0  0  0  0  0  0  0  0  0  0  0
   -7.5062    3.2075   -1.0378 O   0  0  0  0  0  0  0  0  0  0  0  0
   -5.2044    3.6297   -1.1733 C   0  0  0  0  0  0  0  0  0  0  0  0
   -5.4398    4.7810   -1.9407 C   0  0  0  0  0  0  0  0  0  0  0  0
   -4.3755    5.5638   -2.3790 C   0  0  0  0  0  0  0  0  0  0  0  0
   -3.0732    5.1999   -2.0496 C   0  0  0  0  0  0  0  0  0  0  0  0
   -2.8265    4.0541   -1.2847 C   0  0  0  0  0  0  0  0  0  0  0  0
   -3.8897    3.2605   -0.8419 C   0  0  0  0  0  0  0  0  0  0  0  0
   -3.7376    2.0914   -0.0629 N   0  0  0  0  0  0  0  0  0  0  0  0
   -2.6616    1.4034    0.4693 C   0  0  0  0  0  0  0  0  0  0  0  0
   -0.9814    1.7778    0.2958 S   0  0  0  0  0  0  0  0  0  0  0  0
   -0.2863    0.8226    1.6759 C   0  0  0  0  0  0  0  0  0  0  0  0
    1.2232    1.0184    1.7134 C   0  0  0  0  0  0  0  0  0  0  0  0
    1.7036    2.0706    2.1271 O   0  0  0  0  0  0  0  0  0  0  0  0
    1.9102   -0.0894    1.2402 N   0  0  0  0  0  0  0  0  0  0  0  0
    3.2856   -0.2603    1.1329 C   0  0  0  0  0  0  0  0  0  0  0  0
    4.3587    0.9670    1.5768 S   0  0  0  0  0  0  0  0  0  0  0  0
    5.7249    0.0386    1.1696 C   0  0  0  0  0  0  0  0  0  0  0  0
    7.0856    0.6312    1.3526 C   0  0  0  0  0  0  0  0  0  0  0  0
    5.3845   -1.2182    0.6835 C   0  0  0  0  0  0  0  0  0  0  0  0
    6.4144   -2.2290    0.2380 C   0  0  0  0  0  0  0  0  0  0  0  0
    6.7545   -3.2348    1.3279 C   0  0  0  0  0  0  0  0  0  0  0  0
    3.9338   -1.4025    0.6698 C   0  0  0  0  0  0  0  0  0  0  0  0
    3.1617   -2.5834    0.2527 C   0  0  0  0  0  0  0  0  0  0  0  0
    1.9327   -2.6135    0.2883 O   0  0  0  0  0  0  0  0  0  0  0  0
    3.9271   -3.6276   -0.1638 O   0  0  0  0  0  0  0  0  0  0  0  0
    3.2006   -4.8035   -0.5404 C   0  0  0  0  0  0  0  0  0  0  0  0
    4.1635   -5.7410   -1.2415 C   0  0  0  0  0  0  0  0  0  0  0  0
   -3.0849    0.3575    1.1448 N   0  0  0  0  0  0  0  0  0  0  0  0
   -4.4461    0.3238    1.0679 N   0  0  0  0  0  0  0  0  0  0  0  0
   -4.8348    1.3523    0.3481 C   0  0  0  0  0  0  0  0  0  0  0  0
   -6.2265    0.0693   -2.1054 H   0  0  0  0  0  0  0  0  0  0  0  0
   -7.3935   -1.3517   -2.2900 H   0  0  0  0  0  0  0  0  0  0  0  0
   -8.4123   -0.8851   -0.1739 H   0  0  0  0  0  0  0  0  0  0  0  0
   -8.1470    1.4952    0.5945 H   0  0  0  0  0  0  0  0  0  0  0  0
   -7.0289    0.4331    1.4438 H   0  0  0  0  0  0  0  0  0  0  0  0
   -6.4570    5.0727   -2.1994 H   0  0  0  0  0  0  0  0  0  0  0  0
   -4.5619    6.4552   -2.9734 H   0  0  0  0  0  0  0  0  0  0  0  0
   -2.2398    5.8119   -2.3893 H   0  0  0  0  0  0  0  0  0  0  0  0
   -1.7877    3.8396   -1.0674 H   0  0  0  0  0  0  0  0  0  0  0  0
   -0.6995    1.1705    2.6283 H   0  0  0  0  0  0  0  0  0  0  0  0
   -0.5342   -0.2369    1.5660 H   0  0  0  0  0  0  0  0  0  0  0  0
    1.3640   -0.8930    0.9291 H   0  0  0  0  0  0  0  0  0  0  0  0
    7.7398   -0.0682    1.8830 H   0  0  0  0  0  0  0  0  0  0  0  0
    7.5332    0.8512    0.3778 H   0  0  0  0  0  0  0  0  0  0  0  0
    7.0623    1.5611    1.9303 H   0  0  0  0  0  0  0  0  0  0  0  0
    7.3362   -1.7135   -0.0586 H   0  0  0  0  0  0  0  0  0  0  0  0
    6.0791   -2.7431   -0.6673 H   0  0  0  0  0  0  0  0  0  0  0  0
    7.4847   -3.9603    0.9574 H   0  0  0  0  0  0  0  0  0  0  0  0
    5.8701   -3.7847    1.6635 H   0  0  0  0  0  0  0  0  0  0  0  0
    7.1860   -2.7363    2.2023 H   0  0  0  0  0  0  0  0  0  0  0  0
    2.8067   -5.2835    0.3631 H   0  0  0  0  0  0  0  0  0  0  0  0
    2.3762   -4.5524   -1.2175 H   0  0  0  0  0  0  0  0  0  0  0  0
    5.0213   -5.9702   -0.5990 H   0  0  0  0  0  0  0  0  0  0  0  0
    4.5617   -5.2710   -2.1472 H   0  0  0  0  0  0  0  0  0  0  0  0
    3.6668   -6.6751   -1.5188 H   0  0  0  0  0  0  0  0  0  0  0  0
  1  2  2  0
  2  3  1  0
  3  4  1  0
  4  5  1  0
  5  6  2  0
  5  7  1  0
  7  8  2  0
  8  9  1  0
  9 10  2  0
 10 11  1  0
 11 12  2  0
 12 13  1  0
 13 14  1  0
 14 15  1  0
 15 16  1  0
 16 17  1  0
 17 18  2  0
 17 19  1  0
 19 20  1  0
 20 21  1  0
 21 22  1  0
 22 23  1  0
 22 24  2  0
 24 25  1  0
 25 26  1  0
 24 27  1  0
 27 28  1  0
 28 29  2  0
 28 30  1  0
 30 31  1  0
 31 32  1  0
 14 33  2  0
 33 34  1  0
 34 35  2  0
 35  4  1  0
 12  7  1  0
 35 13  1  0
 27 20  2  0
  1 36  1  0
  1 37  1  0
  2 38  1  0
  3 39  1  0
  3 40  1  0
  8 41  1  0
  9 42  1  0
 10 43  1  0
 11 44  1  0
 16 45  1  0
 16 46  1  0
 19 47  1  0
 23 48  1  0
 23 49  1  0
 23 50  1  0
 25 51  1  0
 25 52  1  0
 26 53  1  0
 26 54  1  0
 26 55  1  0
 31 56  1  0
 31 57  1  0
 32 58  1  0
 32 59  1  0
 32 60  1  0
M  END
$$$$
