
     RDKit          3D

 59 62  0  0  0  0  0  0  0  0999 V2000
   -9.1190   -0.2479    1.8016 C   0  0  0  0  0  0  0  0  0  0  0  0
   -7.8494    0.4473    1.4050 C   0  0  0  0  0  0  0  0  0  0  0  0
   -7.2799    1.4091    2.2511 C   0  0  0  0  0  0  0  0  0  0  0  0
   -6.1187    2.0852    1.8721 C   0  0  0  0  0  0  0  0  0  0  0  0
   -5.5164    1.7956    0.6454 C   0  0  0  0  0  0  0  0  0  0  0  0
   -4.2948    2.5365    0.2578 C   0  0  0  0  0  0  0  0  0  0  0  0
   -4.3275    3.7639    0.3002 O   0  0  0  0  0  0  0  0  0  0  0  0
   -3.1697    1.8183   -0.1317 N   0  0  0  0  0  0  0  0  0  0  0  0
   -2.9616    0.3864    0.1220 C   0  0  0  0  0  0  0  0  0  0  0  0
   -1.4839    0.0250    0.3722 C   0  0  0  0  0  0  0  0  0  0  0  0
   -0.6248    0.4804   -0.7320 N   0  0  0  0  0  0  0  0  0  0  0  0
    0.6211   -0.0807   -0.9653 C   0  0  0  0  0  0  0  0  0  0  0  0
    1.2757   -0.8739   -0.0132 C   0  0  0  0  0  0  0  0  0  0  0  0
    2.5373   -1.4377   -0.2556 C   0  0  0  0  0  0  0  0  0  0  0  0
    3.1917   -1.2290   -1.4703 C   0  0  0  0  0  0  0  0  0  0  0  0
    4.4617   -1.8176   -1.6292 N   0  0  0  0  0  0  0  0  0  0  0  0
    5.3414   -1.6591   -2.6905 C   0  0  0  0  0  0  0  0  0  0  0  0
    5.1398   -1.0024   -3.7083 O   0  0  0  0  0  0  0  0  0  0  0  0
    6.6586   -2.3951   -2.4820 C   0  0  0  0  0  0  0  0  0  0  0  0
    7.9198   -1.2851   -1.7692 S   0  0  0  0  0  0  0  0  0  0  0  0
    7.2452   -1.0650   -0.1361 C   0  0  0  0  0  0  0  0  0  0  0  0
    6.5534    0.1094    0.1785 C   0  0  0  0  0  0  0  0  0  0  0  0
    5.9781    0.2704    1.4417 C   0  0  0  0  0  0  0  0  0  0  0  0
    6.1078   -0.7380    2.3942 C   0  0  0  0  0  0  0  0  0  0  0  0
    5.3857   -0.5506    3.9434 Cl  0  0  0  0  0  0  0  0  0  0  0  0
    6.8131   -1.9032    2.0964 C   0  0  0  0  0  0  0  0  0  0  0  0
    7.3840   -2.0658    0.8311 C   0  0  0  0  0  0  0  0  0  0  0  0
    2.5582   -0.4566   -2.4357 C   0  0  0  0  0  0  0  0  0  0  0  0
    1.2958    0.1040   -2.1819 C   0  0  0  0  0  0  0  0  0  0  0  0
   -1.0311    1.7146   -1.4343 C   0  0  0  0  0  0  0  0  0  0  0  0
   -1.9991    2.5656   -0.5933 C   0  0  0  0  0  0  0  0  0  0  0  0
   -6.0972    0.8664   -0.2234 C   0  0  0  0  0  0  0  0  0  0  0  0
   -7.2598    0.1937    0.1587 C   0  0  0  0  0  0  0  0  0  0  0  0
   -9.9827    0.3710    1.5383 H   0  0  0  0  0  0  0  0  0  0  0  0
   -9.2119   -1.2152    1.2963 H   0  0  0  0  0  0  0  0  0  0  0  0
   -9.1343   -0.4412    2.8796 H   0  0  0  0  0  0  0  0  0  0  0  0
   -7.7430    1.6428    3.2079 H   0  0  0  0  0  0  0  0  0  0  0  0
   -5.6871    2.8381    2.5279 H   0  0  0  0  0  0  0  0  0  0  0  0
   -3.3195   -0.1447   -0.7678 H   0  0  0  0  0  0  0  0  0  0  0  0
   -3.5617    0.0647    0.9786 H   0  0  0  0  0  0  0  0  0  0  0  0
   -1.4274   -1.0641    0.4861 H   0  0  0  0  0  0  0  0  0  0  0  0
   -1.1450    0.4871    1.3076 H   0  0  0  0  0  0  0  0  0  0  0  0
    0.8290   -1.0527    0.9606 H   0  0  0  0  0  0  0  0  0  0  0  0
    2.9952   -2.0301    0.5321 H   0  0  0  0  0  0  0  0  0  0  0  0
    4.8025   -2.3339   -0.8276 H   0  0  0  0  0  0  0  0  0  0  0  0
    7.0087   -2.7484   -3.4575 H   0  0  0  0  0  0  0  0  0  0  0  0
    6.5210   -3.2795   -1.8509 H   0  0  0  0  0  0  0  0  0  0  0  0
    6.4385    0.8992   -0.5627 H   0  0  0  0  0  0  0  0  0  0  0  0
    5.4298    1.1811    1.6702 H   0  0  0  0  0  0  0  0  0  0  0  0
    6.9261   -2.6843    2.8442 H   0  0  0  0  0  0  0  0  0  0  0  0
    7.9406   -2.9745    0.6119 H   0  0  0  0  0  0  0  0  0  0  0  0
    3.0075   -0.2679   -3.4054 H   0  0  0  0  0  0  0  0  0  0  0  0
    0.8390    0.6788   -2.9837 H   0  0  0  0  0  0  0  0  0  0  0  0
   -1.5158    1.4354   -2.3778 H   0  0  0  0  0  0  0  0  0  0  0  0
   -0.1623    2.3418   -1.6683 H   0  0  0  0  0  0  0  0  0  0  0  0
   -2.3257    3.4380   -1.1708 H   0  0  0  0  0  0  0  0  0  0  0  0
   -1.4868    2.9385    0.3029 H   0  0  0  0  0  0  0  0  0  0  0  0
   -5.6608    0.6783   -1.2007 H   0  0  0  0  0  0  0  0  0  0  0  0
   -7.7096   -0.5224   -0.5257 H   0  0  0  0  0  0  0  0  0  0  0  0
  1  2  1  0
  2  3  2  0
  3  4  1  0
  4  5  2  0
  5  6  1  0
  6  7  2  0
  6  8  1  0
  8  9  1  0
  9 10  1  0
 10 11  1  0
 11 12  1  0
 12 13  2  0
 13 14  1  0
 14 15  2  0
 15 16  1  0
 16 17  1  0
 17 18  2  0
 17 19  1  0
 19 20  1  0
 20 21  1  0
 21 22  2  0
 22 23  1  0
 23 24  2  0
 24 25  1  0
 24 26  1  0
 26 27  2  0
 15 28  1  0
 28 29  2  0
 11 30  1  0
 30 31  1  0
  5 32  1  0
 32 33  2  0
 33  2  1  0
 31  8  1  0
 29 12  1  0
 27 21  1  0
  1 34  1  0
  1 35  1  0
  1 36  1  0
  3 37  1  0
  4 38  1  0
  9 39  1  0
  9 40  1  0
 10 41  1  0
 10 42  1  0
 13 43  1  0
 14 44  1  0
 16 45  1  0
 19 46  1  0
 19 47  1  0
 22 48  1  0
 23 49  1  0
 26 50  1  0
 27 51  1  0
 28 52  1  0
 29 53  1  0
 30 54  1  0
 30 55  1  0
 31 56  1  0
 31 57  1  0
 32 58  1  0
 33 59  1  0
M  END
$$$$
