
     RDKit          3D

 41 42  0  0  0  0  0  0  0  0999 V2000
   -0.1920    4.7766    2.0729 C   0  0  0  0  0  0  0  0  0  0  0  0
    0.9510    4.1429    1.3046 C   0  0  0  0  0  0  0  0  0  0  0  0
    0.7530    2.7250    1.3016 O   0  0  0  0  0  0  0  0  0  0  0  0
    1.6713    2.0251    0.5742 C   0  0  0  0  0  0  0  0  0  0  0  0
    2.6670    2.5248    0.0517 O   0  0  0  0  0  0  0  0  0  0  0  0
    1.3853    0.5025    0.5595 C   0  0  0  0  0  0  0  0  0  0  0  0
   -0.0336    0.1379    0.6916 N   0  0  0  0  0  0  0  0  0  0  0  0
   -0.9611    0.6428   -0.1945 C   0  0  0  0  0  0  0  0  0  0  0  0
   -0.7385    1.5935   -0.9346 O   0  0  0  0  0  0  0  0  0  0  0  0
   -2.2796   -0.0481   -0.2410 C   0  0  0  0  0  0  0  0  0  0  0  0
   -2.7744   -0.7825    0.8464 C   0  0  0  0  0  0  0  0  0  0  0  0
   -4.0179   -1.4129    0.7572 C   0  0  0  0  0  0  0  0  0  0  0  0
   -4.7718   -1.3065   -0.4118 C   0  0  0  0  0  0  0  0  0  0  0  0
   -4.2840   -0.5649   -1.4870 C   0  0  0  0  0  0  0  0  0  0  0  0
   -5.2216   -0.4315   -2.9237 Cl  0  0  0  0  0  0  0  0  0  0  0  0
   -3.0456    0.0677   -1.4075 C   0  0  0  0  0  0  0  0  0  0  0  0
    1.8727   -0.0745   -0.7173 N   0  0  0  0  0  0  0  0  0  0  0  0
    1.8784   -1.4100   -0.9129 C   0  0  0  0  0  0  0  0  0  0  0  0
    1.1536   -2.2857   -0.2491 N   0  0  0  0  0  0  0  0  0  0  0  0
    1.3563   -3.5808   -0.6728 N   0  0  0  0  0  0  0  0  0  0  0  0
    2.2289   -3.6454   -1.6551 C   0  0  0  0  0  0  0  0  0  0  0  0
    2.6588   -4.8940   -2.3318 C   0  0  0  0  0  0  0  0  0  0  0  0
    2.8684   -2.1237   -2.1254 S   0  0  0  0  0  0  0  0  0  0  0  0
    2.2319    0.0582    1.8026 C   0  0  0  0  0  0  0  0  0  0  0  0
    3.5653    0.1439    1.5734 F   0  0  0  0  0  0  0  0  0  0  0  0
    1.9660    0.7949    2.9096 F   0  0  0  0  0  0  0  0  0  0  0  0
    1.9771   -1.2307    2.1466 F   0  0  0  0  0  0  0  0  0  0  0  0
   -0.2260    4.3941    3.0984 H   0  0  0  0  0  0  0  0  0  0  0  0
   -0.0854    5.8644    2.1047 H   0  0  0  0  0  0  0  0  0  0  0  0
   -1.1523    4.5283    1.6088 H   0  0  0  0  0  0  0  0  0  0  0  0
    1.9027    4.3794    1.7931 H   0  0  0  0  0  0  0  0  0  0  0  0
    0.9593    4.5200    0.2757 H   0  0  0  0  0  0  0  0  0  0  0  0
   -0.1577   -0.8413    0.9277 H   0  0  0  0  0  0  0  0  0  0  0  0
   -2.2176   -0.8585    1.7766 H   0  0  0  0  0  0  0  0  0  0  0  0
   -4.4016   -1.9828    1.6004 H   0  0  0  0  0  0  0  0  0  0  0  0
   -5.7390   -1.7986   -0.4770 H   0  0  0  0  0  0  0  0  0  0  0  0
   -2.6724    0.6458   -2.2501 H   0  0  0  0  0  0  0  0  0  0  0  0
    2.6215    0.4736   -1.1391 H   0  0  0  0  0  0  0  0  0  0  0  0
    2.1469   -5.7598   -1.8996 H   0  0  0  0  0  0  0  0  0  0  0  0
    2.4203   -4.8606   -3.3996 H   0  0  0  0  0  0  0  0  0  0  0  0
    3.7363   -5.0485   -2.2170 H   0  0  0  0  0  0  0  0  0  0  0  0
  1  2  1  0
  2  3  1  0
  3  4  1  0
  4  5  2  0
  4  6  1  0
  6  7  1  0
  7  8  1  0
  8  9  2  0
  8 10  1  0
 10 11  2  0
 11 12  1  0
 12 13  2  0
 13 14  1  0
 14 15  1  0
 14 16  2  0
  6 17  1  0
 17 18  1  0
 18 19  2  0
 19 20  1  0
 20 21  2  0
 21 22  1  0
 21 23  1  0
  6 24  1  0
 24 25  1  0
 24 26  1  0
 24 27  1  0
 16 10  1  0
 23 18  1  0
  1 28  1  0
  1 29  1  0
  1 30  1  0
  2 31  1  0
  2 32  1  0
  7 33  1  0
 11 34  1  0
 12 35  1  0
 13 36  1  0
 16 37  1  0
 17 38  1  0
 22 39  1  0
 22 40  1  0
 22 41  1  0
M  END
$$$$
