
     RDKit          3D

 32 34  0  0  0  0  0  0  0  0999 V2000
   -4.6591   -0.6031   -1.5179 O   0  0  0  0  0  0  0  0  0  0  0  0
   -5.0540   -0.5484   -0.3663 C   0  0  0  0  0  0  0  0  0  0  0  0
   -6.2950   -0.9790    0.0159 N   0  0  0  0  0  0  0  0  0  0  0  0
   -6.6221   -0.9328    1.3334 C   0  0  0  0  0  0  0  0  0  0  0  0
   -8.0732   -1.4466    1.9397 S   0  0  0  0  0  0  0  0  0  0  0  0
   -5.2929   -0.2621    2.2424 S   0  0  0  0  0  0  0  0  0  0  0  0
   -4.3008   -0.0475    0.8219 C   0  0  0  0  0  0  0  0  0  0  0  0
   -3.0666    0.4651    0.9167 C   0  0  0  0  0  0  0  0  0  0  0  0
   -2.1574    0.7028   -0.1482 C   0  0  0  0  0  0  0  0  0  0  0  0
   -2.3385    1.1672   -1.4441 C   0  0  0  0  0  0  0  0  0  0  0  0
   -1.0677    1.2496   -2.0623 C   0  0  0  0  0  0  0  0  0  0  0  0
   -0.1481    0.8562   -1.1191 C   0  0  0  0  0  0  0  0  0  0  0  0
    1.5825    0.7594   -1.2910 S   0  0  0  0  0  0  0  0  0  0  0  0
    2.0456    0.1021    0.3372 C   0  0  0  0  0  0  0  0  0  0  0  0
    3.5369   -0.0938    0.4531 C   0  0  0  0  0  0  0  0  0  0  0  0
    4.1281   -1.3079    0.0731 C   0  0  0  0  0  0  0  0  0  0  0  0
    5.5092   -1.4848    0.1718 C   0  0  0  0  0  0  0  0  0  0  0  0
    6.3136   -0.4501    0.6455 C   0  0  0  0  0  0  0  0  0  0  0  0
    5.7392    0.7638    1.0175 C   0  0  0  0  0  0  0  0  0  0  0  0
    4.3583    0.9432    0.9197 C   0  0  0  0  0  0  0  0  0  0  0  0
   -0.8001    0.5443    0.0349 O   0  0  0  0  0  0  0  0  0  0  0  0
   -6.9263   -1.3600   -0.6727 H   0  0  0  0  0  0  0  0  0  0  0  0
   -2.6743    0.7063    1.9026 H   0  0  0  0  0  0  0  0  0  0  0  0
   -3.2841    1.4236   -1.9021 H   0  0  0  0  0  0  0  0  0  0  0  0
   -0.8495    1.5647   -3.0731 H   0  0  0  0  0  0  0  0  0  0  0  0
    1.7050    0.7879    1.1218 H   0  0  0  0  0  0  0  0  0  0  0  0
    1.5369   -0.8543    0.5067 H   0  0  0  0  0  0  0  0  0  0  0  0
    3.5146   -2.1219   -0.3070 H   0  0  0  0  0  0  0  0  0  0  0  0
    5.9578   -2.4291   -0.1254 H   0  0  0  0  0  0  0  0  0  0  0  0
    7.3890   -0.5879    0.7193 H   0  0  0  0  0  0  0  0  0  0  0  0
    6.3672    1.5734    1.3798 H   0  0  0  0  0  0  0  0  0  0  0  0
    3.9259    1.8997    1.2054 H   0  0  0  0  0  0  0  0  0  0  0  0
  1  2  2  0
  2  3  1  0
  3  4  1  0
  4  5  2  0
  4  6  1  0
  6  7  1  0
  7  8  2  3
  8  9  1  0
  9 10  2  0
 10 11  1  0
 11 12  2  0
 12 13  1  0
 13 14  1  0
 14 15  1  0
 15 16  2  0
 16 17  1  0
 17 18  2  0
 18 19  1  0
 19 20  2  0
 12 21  1  0
  7  2  1  0
 21  9  1  0
 20 15  1  0
  3 22  1  0
  8 23  1  0
 10 24  1  0
 11 25  1  0
 14 26  1  0
 14 27  1  0
 16 28  1  0
 17 29  1  0
 18 30  1  0
 19 31  1  0
 20 32  1  0
M  END
$$$$
