
     RDKit          3D

 56 58  0  0  0  0  0  0  0  0999 V2000
    0.6105   -1.9550   -2.9277 C   0  0  0  0  0  0  0  0  0  0  0  0
    1.5819   -1.3194   -2.1108 O   0  0  0  0  0  0  0  0  0  0  0  0
    1.2020   -0.1908   -1.4256 C   0  0  0  0  0  0  0  0  0  0  0  0
   -0.1138    0.2879   -1.3598 C   0  0  0  0  0  0  0  0  0  0  0  0
   -0.4217    1.4425   -0.6269 C   0  0  0  0  0  0  0  0  0  0  0  0
   -1.7832    1.9879   -0.5570 C   0  0  0  0  0  0  0  0  0  0  0  0
   -2.8833    1.2318   -0.4263 C   0  0  0  0  0  0  0  0  0  0  0  0
   -4.2169    1.8858   -0.3480 C   0  0  0  0  0  0  0  0  0  0  0  0
   -4.3783    3.0983   -0.4016 O   0  0  0  0  0  0  0  0  0  0  0  0
   -5.3825    0.9881   -0.2362 C   0  0  0  0  0  0  0  0  0  0  0  0
   -5.5684    0.1847    0.9078 C   0  0  0  0  0  0  0  0  0  0  0  0
   -4.6028    0.2636    1.8760 O   0  0  0  0  0  0  0  0  0  0  0  0
   -4.8408   -0.4061    3.1088 C   0  0  0  0  0  0  0  0  0  0  0  0
   -6.7044   -0.6383    0.9919 C   0  0  0  0  0  0  0  0  0  0  0  0
   -7.6498   -0.6581   -0.0380 C   0  0  0  0  0  0  0  0  0  0  0  0
   -7.4450    0.1461   -1.1483 C   0  0  0  0  0  0  0  0  0  0  0  0
   -8.3660    0.1399   -2.1930 O   0  0  0  0  0  0  0  0  0  0  0  0
   -7.8946    1.0135   -3.1682 C   0  0  0  0  0  0  0  0  0  0  0  0
   -8.4929    1.2105   -4.2171 O   0  0  0  0  0  0  0  0  0  0  0  0
   -6.3632    1.8090   -2.8021 S   0  0  0  0  0  0  0  0  0  0  0  0
   -6.3273    0.9661   -1.2590 C   0  0  0  0  0  0  0  0  0  0  0  0
    0.6090    2.1264    0.0225 C   0  0  0  0  0  0  0  0  0  0  0  0
    1.9240    1.6552   -0.0338 C   0  0  0  0  0  0  0  0  0  0  0  0
    2.2319    0.5015   -0.7584 C   0  0  0  0  0  0  0  0  0  0  0  0
    3.4869   -0.0422   -0.8586 O   0  0  0  0  0  0  0  0  0  0  0  0
    4.6224    0.7543   -0.5185 C   0  0  0  0  0  0  0  0  0  0  0  0
    5.0542    0.5082    0.9275 C   0  0  0  0  0  0  0  0  0  0  0  0
    5.5501   -0.9244    1.1738 C   0  0  0  0  0  0  0  0  0  0  0  0
    6.7706   -1.2723    0.4236 N   0  0  0  0  0  0  0  0  0  0  0  0
    7.9535   -0.5865    0.9465 C   0  0  0  0  0  0  0  0  0  0  0  0
    6.9836   -2.7217    0.4608 C   0  0  0  0  0  0  0  0  0  0  0  0
    0.2168   -1.2698   -3.6861 H   0  0  0  0  0  0  0  0  0  0  0  0
    1.1020   -2.7809   -3.4510 H   0  0  0  0  0  0  0  0  0  0  0  0
   -0.1957   -2.3803   -2.3210 H   0  0  0  0  0  0  0  0  0  0  0  0
   -0.9131   -0.2242   -1.8833 H   0  0  0  0  0  0  0  0  0  0  0  0
   -1.8648    3.0735   -0.5916 H   0  0  0  0  0  0  0  0  0  0  0  0
   -2.8429    0.1517   -0.3592 H   0  0  0  0  0  0  0  0  0  0  0  0
   -4.0111   -0.1705    3.7819 H   0  0  0  0  0  0  0  0  0  0  0  0
   -4.8567   -1.4914    2.9663 H   0  0  0  0  0  0  0  0  0  0  0  0
   -5.7640   -0.0538    3.5808 H   0  0  0  0  0  0  0  0  0  0  0  0
   -6.8835   -1.2781    1.8514 H   0  0  0  0  0  0  0  0  0  0  0  0
   -8.5289   -1.2935    0.0311 H   0  0  0  0  0  0  0  0  0  0  0  0
    0.3972    3.0291    0.5925 H   0  0  0  0  0  0  0  0  0  0  0  0
    2.6814    2.2089    0.5098 H   0  0  0  0  0  0  0  0  0  0  0  0
    5.4277    0.4668   -1.2038 H   0  0  0  0  0  0  0  0  0  0  0  0
    4.4491    1.8198   -0.7093 H   0  0  0  0  0  0  0  0  0  0  0  0
    5.8216    1.2367    1.2080 H   0  0  0  0  0  0  0  0  0  0  0  0
    4.2036    0.6781    1.5975 H   0  0  0  0  0  0  0  0  0  0  0  0
    4.7386   -1.6084    0.8919 H   0  0  0  0  0  0  0  0  0  0  0  0
    5.7121   -1.0682    2.2504 H   0  0  0  0  0  0  0  0  0  0  0  0
    8.8466   -0.8785    0.3819 H   0  0  0  0  0  0  0  0  0  0  0  0
    7.8682    0.4983    0.8332 H   0  0  0  0  0  0  0  0  0  0  0  0
    8.1291   -0.8130    2.0043 H   0  0  0  0  0  0  0  0  0  0  0  0
    7.1218   -3.0922    1.4830 H   0  0  0  0  0  0  0  0  0  0  0  0
    6.1342   -3.2492    0.0129 H   0  0  0  0  0  0  0  0  0  0  0  0
    7.8650   -2.9972   -0.1292 H   0  0  0  0  0  0  0  0  0  0  0  0
  1  2  1  0
  2  3  1  0
  3  4  2  0
  4  5  1  0
  5  6  1  0
  6  7  2  0
  7  8  1  0
  8  9  2  0
  8 10  1  0
 10 11  2  0
 11 12  1  0
 12 13  1  0
 11 14  1  0
 14 15  2  0
 15 16  1  0
 16 17  1  0
 17 18  1  0
 18 19  2  0
 18 20  1  0
 20 21  1  0
  5 22  2  0
 22 23  1  0
 23 24  2  0
 24 25  1  0
 25 26  1  0
 26 27  1  0
 27 28  1  0
 28 29  1  0
 29 30  1  0
 29 31  1  0
 24  3  1  0
 21 10  1  0
 21 16  2  0
  1 32  1  0
  1 33  1  0
  1 34  1  0
  4 35  1  0
  6 36  1  0
  7 37  1  0
 13 38  1  0
 13 39  1  0
 13 40  1  0
 14 41  1  0
 15 42  1  0
 22 43  1  0
 23 44  1  0
 26 45  1  0
 26 46  1  0
 27 47  1  0
 27 48  1  0
 28 49  1  0
 28 50  1  0
 30 51  1  0
 30 52  1  0
 30 53  1  0
 31 54  1  0
 31 55  1  0
 31 56  1  0
M  END
$$$$
