
     RDKit          3D

 84 89  0  0  0  0  0  0  0  0999 V2000
   11.6075    0.2583   -2.6771 C   0  0  0  0  0  0  0  0  0  0  0  0
   10.8356    0.4726   -1.4940 O   0  0  0  0  0  0  0  0  0  0  0  0
   11.0455   -0.4577   -0.5230 C   0  0  0  0  0  0  0  0  0  0  0  0
   11.8322   -1.3934   -0.6039 O   0  0  0  0  0  0  0  0  0  0  0  0
   10.2456   -0.1501    0.7214 C   0  0  0  0  0  0  0  0  0  0  0  0
    8.7857    0.2236    0.4658 C   0  0  0  0  0  0  0  0  0  0  0  0
    7.9896   -0.9093   -0.1927 C   0  0  0  0  0  0  0  0  0  0  0  0
    6.4757   -0.6686   -0.1643 C   0  0  0  0  0  0  0  0  0  0  0  0
    6.0391    0.5701   -0.9525 C   0  0  0  0  0  0  0  0  0  0  0  0
    4.5169    0.7522   -1.0076 C   0  0  0  0  0  0  0  0  0  0  0  0
    3.8883    0.9402    0.3776 C   0  0  0  0  0  0  0  0  0  0  0  0
    2.4253    1.3879    0.3333 C   0  0  0  0  0  0  0  0  0  0  0  0
    1.4497    0.2891   -0.0738 C   0  0  0  0  0  0  0  0  0  0  0  0
    1.8365   -0.8004   -0.4930 O   0  0  0  0  0  0  0  0  0  0  0  0
    0.1023    0.5925    0.0385 N   0  0  0  0  0  0  0  0  0  0  0  0
   -0.4253    1.8291    0.6248 C   0  0  0  0  0  0  0  0  0  0  0  0
   -1.9663    1.8578    0.7012 C   0  0  0  0  0  0  0  0  0  0  0  0
   -2.4900    0.6594    1.3620 N   0  0  0  0  0  0  0  0  0  0  0  0
   -1.9579   -0.6168    0.7379 C   0  0  2  0  0  0  0  0  0  0  0  0
   -0.8987   -0.3989   -0.3610 C   0  0  0  0  0  0  0  0  0  0  0  0
   -3.1848   -1.2901    0.2521 C   0  0  0  0  0  0  0  0  0  0  0  0
   -4.3296   -0.6252    0.6821 C   0  0  0  0  0  0  0  0  0  0  0  0
   -5.4251   -1.3438    0.2889 C   0  0  0  0  0  0  0  0  0  0  0  0
   -6.6935   -1.1637    0.6562 O   0  0  0  0  0  0  0  0  0  0  0  0
   -4.9669   -2.3735   -0.5597 N   0  0  0  0  0  0  0  0  0  0  0  0
   -5.7908   -3.2170   -1.3767 C   0  0  0  0  0  0  0  0  0  0  0  0
   -7.0268   -2.7483   -1.8521 C   0  0  0  0  0  0  0  0  0  0  0  0
   -7.8340   -3.5608   -2.6535 C   0  0  0  0  0  0  0  0  0  0  0  0
   -7.4087   -4.8387   -3.0046 C   0  0  0  0  0  0  0  0  0  0  0  0
   -6.1755   -5.3034   -2.5588 C   0  0  0  0  0  0  0  0  0  0  0  0
   -5.3683   -4.4983   -1.7487 C   0  0  0  0  0  0  0  0  0  0  0  0
   -3.5581   -2.3895   -0.4774 C   0  0  0  0  0  0  0  0  0  0  0  0
   -2.8102   -3.3036   -1.0864 O   0  0  0  0  0  0  0  0  0  0  0  0
   -3.9858    0.5542    1.4968 C   0  0  1  0  0  0  0  0  0  0  0  0
   -4.3492    0.3848    3.0025 C   0  0  0  0  0  0  0  0  0  0  0  0
   -3.9507   -0.4550    3.7988 O   0  0  0  0  0  0  0  0  0  0  0  0
   -5.2350    1.4155    3.3206 N   0  0  0  0  0  0  0  0  0  0  0  0
   -5.5577    2.1876    2.2078 C   0  0  0  0  0  0  0  0  0  0  0  0
   -4.8640    1.7106    1.0834 C   0  0  0  0  0  0  0  0  0  0  0  0
   -5.0847    2.2792   -0.1626 C   0  0  0  0  0  0  0  0  0  0  0  0
   -5.9811    3.3447   -0.2519 C   0  0  0  0  0  0  0  0  0  0  0  0
   -6.6511    3.8285    0.8883 C   0  0  0  0  0  0  0  0  0  0  0  0
   -7.7514    5.1453    0.6587 Cl  0  0  0  0  0  0  0  0  0  0  0  0
   -6.4475    3.2564    2.1558 C   0  0  0  0  0  0  0  0  0  0  0  0
   -7.1894    3.7396    3.3649 C   0  0  0  0  0  0  0  0  0  0  0  0
   11.4323    1.1012   -3.3509 H   0  0  0  0  0  0  0  0  0  0  0  0
   12.6763    0.2193   -2.4434 H   0  0  0  0  0  0  0  0  0  0  0  0
   11.2842   -0.6610   -3.1754 H   0  0  0  0  0  0  0  0  0  0  0  0
   10.2868   -1.0296    1.3771 H   0  0  0  0  0  0  0  0  0  0  0  0
   10.7529    0.6697    1.2427 H   0  0  0  0  0  0  0  0  0  0  0  0
    8.7379    1.1241   -0.1590 H   0  0  0  0  0  0  0  0  0  0  0  0
    8.3249    0.4828    1.4279 H   0  0  0  0  0  0  0  0  0  0  0  0
    8.3214   -1.0483   -1.2295 H   0  0  0  0  0  0  0  0  0  0  0  0
    8.1940   -1.8499    0.3353 H   0  0  0  0  0  0  0  0  0  0  0  0
    6.1582   -0.5824    0.8818 H   0  0  0  0  0  0  0  0  0  0  0  0
    5.9759   -1.5536   -0.5779 H   0  0  0  0  0  0  0  0  0  0  0  0
    6.4846    1.4736   -0.5188 H   0  0  0  0  0  0  0  0  0  0  0  0
    6.4165    0.4927   -1.9798 H   0  0  0  0  0  0  0  0  0  0  0  0
    4.0681   -0.1101   -1.5162 H   0  0  0  0  0  0  0  0  0  0  0  0
    4.3004    1.6305   -1.6279 H   0  0  0  0  0  0  0  0  0  0  0  0
    4.4578    1.7070    0.9186 H   0  0  0  0  0  0  0  0  0  0  0  0
    3.9687    0.0120    0.9566 H   0  0  0  0  0  0  0  0  0  0  0  0
    2.1620    1.7170    1.3457 H   0  0  0  0  0  0  0  0  0  0  0  0
    2.3104    2.2329   -0.3561 H   0  0  0  0  0  0  0  0  0  0  0  0
   -0.0073    1.9315    1.6340 H   0  0  0  0  0  0  0  0  0  0  0  0
   -0.0671    2.6715    0.0214 H   0  0  0  0  0  0  0  0  0  0  0  0
   -2.2591    2.7584    1.2533 H   0  0  0  0  0  0  0  0  0  0  0  0
   -2.3563    1.9469   -0.3190 H   0  0  0  0  0  0  0  0  0  0  0  0
   -1.5156   -1.2002    1.5549 H   0  0  0  0  0  0  0  0  0  0  0  0
   -1.3620   -0.0223   -1.2826 H   0  0  0  0  0  0  0  0  0  0  0  0
   -0.4308   -1.3558   -0.6180 H   0  0  0  0  0  0  0  0  0  0  0  0
   -7.1793   -1.9993    0.5183 H   0  0  0  0  0  0  0  0  0  0  0  0
   -7.3650   -1.7329   -1.6603 H   0  0  0  0  0  0  0  0  0  0  0  0
   -8.7893   -3.1886   -3.0146 H   0  0  0  0  0  0  0  0  0  0  0  0
   -8.0333   -5.4673   -3.6359 H   0  0  0  0  0  0  0  0  0  0  0  0
   -5.8370   -6.2984   -2.8364 H   0  0  0  0  0  0  0  0  0  0  0  0
   -4.4265   -4.9139   -1.4014 H   0  0  0  0  0  0  0  0  0  0  0  0
   -1.8753   -3.1411   -0.8686 H   0  0  0  0  0  0  0  0  0  0  0  0
   -5.6240    1.5078    4.2443 H   0  0  0  0  0  0  0  0  0  0  0  0
   -4.5935    1.8996   -1.0529 H   0  0  0  0  0  0  0  0  0  0  0  0
   -6.1680    3.8001   -1.2214 H   0  0  0  0  0  0  0  0  0  0  0  0
   -7.1218    4.8296    3.4522 H   0  0  0  0  0  0  0  0  0  0  0  0
   -6.7787    3.3336    4.2938 H   0  0  0  0  0  0  0  0  0  0  0  0
   -8.2408    3.4398    3.3062 H   0  0  0  0  0  0  0  0  0  0  0  0
  1  2  1  0
  2  3  1  0
  3  4  2  0
  3  5  1  0
  5  6  1  0
  6  7  1  0
  7  8  1  0
  8  9  1  0
  9 10  1  0
 10 11  1  0
 11 12  1  0
 12 13  1  0
 13 14  2  0
 13 15  1  0
 15 16  1  0
 16 17  1  0
 17 18  1  0
 18 19  1  0
 19 20  1  0
 19 21  1  0
 21 22  1  0
 22 23  2  0
 23 24  1  0
 23 25  1  0
 25 26  1  0
 26 27  2  0
 27 28  1  0
 28 29  2  0
 29 30  1  0
 30 31  2  0
 25 32  1  0
 32 33  1  0
 22 34  1  0
 34 35  1  0
 35 36  2  0
 35 37  1  0
 37 38  1  0
 38 39  2  0
 39 40  1  0
 40 41  2  0
 41 42  1  0
 42 43  1  0
 42 44  2  0
 44 45  1  0
 20 15  1  0
 32 21  2  0
 39 34  1  0
 34 18  1  1
 44 38  1  0
 31 26  1  0
  1 46  1  0
  1 47  1  0
  1 48  1  0
  5 49  1  0
  5 50  1  0
  6 51  1  0
  6 52  1  0
  7 53  1  0
  7 54  1  0
  8 55  1  0
  8 56  1  0
  9 57  1  0
  9 58  1  0
 10 59  1  0
 10 60  1  0
 11 61  1  0
 11 62  1  0
 12 63  1  0
 12 64  1  0
 16 65  1  0
 16 66  1  0
 17 67  1  0
 17 68  1  0
 19 69  1  1
 20 70  1  0
 20 71  1  0
 24 72  1  0
 27 73  1  0
 28 74  1  0
 29 75  1  0
 30 76  1  0
 31 77  1  0
 33 78  1  0
 37 79  1  0
 40 80  1  0
 41 81  1  0
 45 82  1  0
 45 83  1  0
 45 84  1  0
M  END
$$$$
