
     RDKit          3D

 36 37  0  0  0  0  0  0  0  0999 V2000
    4.7728   -1.0005    0.9052 C   0  0  0  0  0  0  0  0  0  0  0  0
    4.6394    0.3617    0.3612 N   0  0  0  0  0  0  0  0  0  0  0  0
    4.2168    1.3502    1.3674 C   0  0  0  0  0  0  0  0  0  0  0  0
    3.9741    0.5110   -1.1966 S   0  0  0  0  0  6  0  0  0  0  0  0
    4.0010    1.9091   -1.5721 O   0  0  0  0  0  0  0  0  0  0  0  0
    4.5641   -0.5016   -2.0463 O   0  0  0  0  0  0  0  0  0  0  0  0
    2.2644    0.0644   -0.9515 C   0  0  0  0  0  0  0  0  0  0  0  0
    1.8705   -1.2690   -1.0946 C   0  0  0  0  0  0  0  0  0  0  0  0
    0.5270   -1.6117   -0.9240 C   0  0  0  0  0  0  0  0  0  0  0  0
   -0.4267   -0.6246   -0.6305 C   0  0  0  0  0  0  0  0  0  0  0  0
   -1.8416   -1.0499   -0.4515 C   0  0  0  0  0  0  0  0  0  0  0  0
   -2.2022   -2.2154   -0.4698 O   0  0  0  0  0  0  0  0  0  0  0  0
   -2.6508    0.0269   -0.2893 O   0  0  0  0  0  0  0  0  0  0  0  0
   -3.9942   -0.3008    0.0327 C   0  0  0  0  0  0  0  0  0  0  0  0
   -4.8982    0.8789   -0.2384 C   0  0  0  0  0  0  0  0  0  0  0  0
   -6.0692    0.5785    0.6609 C   0  0  0  0  0  0  0  0  0  0  0  0
   -5.5055   -0.0340    1.8223 O   0  0  0  0  0  0  0  0  0  0  0  0
   -4.2556   -0.5077    1.5152 C   0  0  0  0  0  0  0  0  0  0  0  0
   -3.4917   -0.9932    2.3335 O   0  0  0  0  0  0  0  0  0  0  0  0
   -0.0228    0.7141   -0.5128 C   0  0  0  0  0  0  0  0  0  0  0  0
    1.3210    1.0608   -0.6804 C   0  0  0  0  0  0  0  0  0  0  0  0
    5.4802   -0.9940    1.7410 H   0  0  0  0  0  0  0  0  0  0  0  0
    3.8119   -1.3750    1.2688 H   0  0  0  0  0  0  0  0  0  0  0  0
    5.1740   -1.6895    0.1572 H   0  0  0  0  0  0  0  0  0  0  0  0
    4.9202    1.3440    2.2067 H   0  0  0  0  0  0  0  0  0  0  0  0
    3.2191    1.1194    1.7510 H   0  0  0  0  0  0  0  0  0  0  0  0
    4.2246    2.3632    0.9562 H   0  0  0  0  0  0  0  0  0  0  0  0
    2.5966   -2.0417   -1.3398 H   0  0  0  0  0  0  0  0  0  0  0  0
    0.2239   -2.6531   -1.0262 H   0  0  0  0  0  0  0  0  0  0  0  0
   -4.3543   -1.1785   -0.5194 H   0  0  0  0  0  0  0  0  0  0  0  0
   -5.1778    0.9773   -1.2911 H   0  0  0  0  0  0  0  0  0  0  0  0
   -4.4082    1.8143    0.0605 H   0  0  0  0  0  0  0  0  0  0  0  0
   -6.6062    1.4869    0.9482 H   0  0  0  0  0  0  0  0  0  0  0  0
   -6.7759   -0.1229    0.2046 H   0  0  0  0  0  0  0  0  0  0  0  0
   -0.7427    1.4988   -0.2922 H   0  0  0  0  0  0  0  0  0  0  0  0
    1.6220    2.1038   -0.6017 H   0  0  0  0  0  0  0  0  0  0  0  0
  1  2  1  0
  2  3  1  0
  2  4  1  0
  4  5  2  0
  4  6  2  0
  4  7  1  0
  7  8  2  0
  8  9  1  0
  9 10  2  0
 10 11  1  0
 11 12  2  0
 11 13  1  0
 13 14  1  0
 14 15  1  0
 15 16  1  0
 16 17  1  0
 17 18  1  0
 18 19  2  0
 10 20  1  0
 20 21  2  0
 21  7  1  0
 18 14  1  0
  1 22  1  0
  1 23  1  0
  1 24  1  0
  3 25  1  0
  3 26  1  0
  3 27  1  0
  8 28  1  0
  9 29  1  0
 14 30  1  0
 15 31  1  0
 15 32  1  0
 16 33  1  0
 16 34  1  0
 20 35  1  0
 21 36  1  0
M  END
$$$$
