
     RDKit          3D

 68 74  0  0  0  0  0  0  0  0999 V2000
   -3.5151   -3.1504   -4.2578 C   0  0  0  0  0  0  0  0  0  0  0  0
   -2.9498   -2.7929   -2.9153 C   0  0  0  0  0  0  0  0  0  0  0  0
   -3.0283   -3.6777   -1.8242 C   0  0  0  0  0  0  0  0  0  0  0  0
   -3.7740   -5.2311   -1.9790 Cl  0  0  0  0  0  0  0  0  0  0  0  0
   -2.5135   -3.3345   -0.5595 C   0  0  0  0  0  0  0  0  0  0  0  0
   -1.9014   -2.0986   -0.3448 C   0  0  0  0  0  0  0  0  0  0  0  0
   -1.8107   -1.2176   -1.4102 C   0  0  0  0  0  0  0  0  0  0  0  0
   -2.3428   -1.5675   -2.6631 C   0  0  0  0  0  0  0  0  0  0  0  0
   -2.1787   -0.5089   -3.5528 N   0  0  0  0  0  0  0  0  0  0  0  0
   -1.5358    0.5806   -2.9613 C   0  0  0  0  0  0  0  0  0  0  0  0
   -1.2921    1.6278   -3.5406 O   0  0  0  0  0  0  0  0  0  0  0  0
   -1.2258    0.1702   -1.4974 C   0  0  1  0  0  0  0  0  0  0  0  0
   -1.8939    1.0113   -0.4782 C   0  0  0  0  0  0  0  0  0  0  0  0
   -0.9652    1.4901    0.4506 C   0  0  0  0  0  0  0  0  0  0  0  0
   -1.6146    2.2741    1.3658 C   0  0  0  0  0  0  0  0  0  0  0  0
   -1.1152    2.9820    2.3756 O   0  0  0  0  0  0  0  0  0  0  0  0
   -2.9881    2.2735    1.0279 N   0  0  0  0  0  0  0  0  0  0  0  0
   -4.0387    2.9591    1.7331 C   0  0  0  0  0  0  0  0  0  0  0  0
   -5.2274    3.3175    1.0805 C   0  0  0  0  0  0  0  0  0  0  0  0
   -6.2490    3.9823    1.7670 C   0  0  0  0  0  0  0  0  0  0  0  0
   -6.0983    4.2962    3.1143 C   0  0  0  0  0  0  0  0  0  0  0  0
   -4.9247    3.9478    3.7752 C   0  0  0  0  0  0  0  0  0  0  0  0
   -3.9006    3.2849    3.0904 C   0  0  0  0  0  0  0  0  0  0  0  0
   -3.1384    1.4727   -0.1298 C   0  0  0  0  0  0  0  0  0  0  0  0
   -4.3219    1.2145   -0.6818 O   0  0  0  0  0  0  0  0  0  0  0  0
    0.4072    1.0149    0.1485 C   0  0  1  0  0  0  0  0  0  0  0  0
    0.9604    0.0733    1.2386 C   0  0  0  0  0  0  0  0  0  0  0  0
    2.0272   -0.7912    0.7426 N   0  0  0  0  0  0  0  0  0  0  0  0
    3.1362   -1.0269    1.5294 C   0  0  0  0  0  0  0  0  0  0  0  0
    3.3330   -0.4716    2.6036 O   0  0  0  0  0  0  0  0  0  0  0  0
    3.9794   -1.9353    0.9754 O   0  0  0  0  0  0  0  0  0  0  0  0
    5.2074   -2.1626    1.6771 C   0  0  0  0  0  0  0  0  0  0  0  0
    6.2943   -1.3242    1.0557 C   0  0  0  0  0  0  0  0  0  0  0  0
    6.6702   -0.1058    1.6382 C   0  0  0  0  0  0  0  0  0  0  0  0
    7.6566    0.6858    1.0481 C   0  0  0  0  0  0  0  0  0  0  0  0
    8.2707    0.2711   -0.1330 C   0  0  0  0  0  0  0  0  0  0  0  0
    7.8969   -0.9330   -0.7273 C   0  0  0  0  0  0  0  0  0  0  0  0
    6.9104   -1.7262   -0.1382 C   0  0  0  0  0  0  0  0  0  0  0  0
    1.7228   -1.5285   -0.4840 C   0  0  0  0  0  0  0  0  0  0  0  0
    1.2068   -0.5965   -1.5945 C   0  0  0  0  0  0  0  0  0  0  0  0
    0.2038    0.3635   -1.1750 N   0  0  0  0  0  0  0  0  0  0  0  0
   -4.6057   -3.2257   -4.2014 H   0  0  0  0  0  0  0  0  0  0  0  0
   -3.1021   -4.1023   -4.6070 H   0  0  0  0  0  0  0  0  0  0  0  0
   -3.2745   -2.4081   -5.0238 H   0  0  0  0  0  0  0  0  0  0  0  0
   -2.5988   -4.0354    0.2691 H   0  0  0  0  0  0  0  0  0  0  0  0
   -1.5257   -1.8396    0.6396 H   0  0  0  0  0  0  0  0  0  0  0  0
   -2.4724   -0.4836   -4.5181 H   0  0  0  0  0  0  0  0  0  0  0  0
   -0.1444    2.9484    2.3252 H   0  0  0  0  0  0  0  0  0  0  0  0
   -5.3771    3.1275    0.0224 H   0  0  0  0  0  0  0  0  0  0  0  0
   -7.1595    4.2585    1.2423 H   0  0  0  0  0  0  0  0  0  0  0  0
   -6.8921    4.8119    3.6469 H   0  0  0  0  0  0  0  0  0  0  0  0
   -4.8030    4.1856    4.8288 H   0  0  0  0  0  0  0  0  0  0  0  0
   -3.0195    3.0043    3.6587 H   0  0  0  0  0  0  0  0  0  0  0  0
   -4.1876    0.6183   -1.4378 H   0  0  0  0  0  0  0  0  0  0  0  0
    1.0912    1.8608    0.0116 H   0  0  0  0  0  0  0  0  0  0  0  0
    0.1789   -0.5910    1.6269 H   0  0  0  0  0  0  0  0  0  0  0  0
    1.3061    0.6707    2.0901 H   0  0  0  0  0  0  0  0  0  0  0  0
    5.1230   -1.9816    2.7550 H   0  0  0  0  0  0  0  0  0  0  0  0
    5.4546   -3.2252    1.5706 H   0  0  0  0  0  0  0  0  0  0  0  0
    6.1891    0.2358    2.5542 H   0  0  0  0  0  0  0  0  0  0  0  0
    7.9421    1.6284    1.5080 H   0  0  0  0  0  0  0  0  0  0  0  0
    9.0368    0.8900   -0.5924 H   0  0  0  0  0  0  0  0  0  0  0  0
    8.3708   -1.2525   -1.6520 H   0  0  0  0  0  0  0  0  0  0  0  0
    6.6193   -2.6580   -0.6176 H   0  0  0  0  0  0  0  0  0  0  0  0
    0.9691   -2.2796   -0.2264 H   0  0  0  0  0  0  0  0  0  0  0  0
    2.6011   -2.0667   -0.8522 H   0  0  0  0  0  0  0  0  0  0  0  0
    0.8755   -1.1879   -2.4553 H   0  0  0  0  0  0  0  0  0  0  0  0
    2.0655   -0.0157   -1.9552 H   0  0  0  0  0  0  0  0  0  0  0  0
  1  2  1  0
  2  3  2  0
  3  4  1  0
  3  5  1  0
  5  6  2  0
  6  7  1  0
  7  8  2  0
  8  9  1  0
  9 10  1  0
 10 11  2  0
 10 12  1  0
 12 13  1  0
 13 14  1  0
 14 15  2  0
 15 16  1  0
 15 17  1  0
 17 18  1  0
 18 19  2  0
 19 20  1  0
 20 21  2  0
 21 22  1  0
 22 23  2  0
 17 24  1  0
 24 25  1  0
 14 26  1  0
 26 27  1  0
 27 28  1  0
 28 29  1  0
 29 30  2  0
 29 31  1  0
 31 32  1  0
 32 33  1  0
 33 34  2  0
 34 35  1  0
 35 36  2  0
 36 37  1  0
 37 38  2  0
 28 39  1  0
 39 40  1  0
 40 41  1  0
  8  2  1  0
 12 41  1  1
 12  7  1  0
 24 13  2  0
 41 26  1  0
 23 18  1  0
 38 33  1  0
  1 42  1  0
  1 43  1  0
  1 44  1  0
  5 45  1  0
  6 46  1  0
  9 47  1  0
 16 48  1  0
 19 49  1  0
 20 50  1  0
 21 51  1  0
 22 52  1  0
 23 53  1  0
 25 54  1  0
 26 55  1  6
 27 56  1  0
 27 57  1  0
 32 58  1  0
 32 59  1  0
 34 60  1  0
 35 61  1  0
 36 62  1  0
 37 63  1  0
 38 64  1  0
 39 65  1  0
 39 66  1  0
 40 67  1  0
 40 68  1  0
M  END
$$$$
