
     RDKit          3D

 44 46  0  0  0  0  0  0  0  0999 V2000
   -6.0039    1.3116   -2.6292 C   0  0  0  0  0  0  0  0  0  0  0  0
   -5.4267    1.8888   -1.4649 O   0  0  0  0  0  0  0  0  0  0  0  0
   -4.2929    1.3124   -0.9594 C   0  0  0  0  0  0  0  0  0  0  0  0
   -3.6903    0.1682   -1.4932 C   0  0  0  0  0  0  0  0  0  0  0  0
   -2.5003   -0.3370   -0.9526 C   0  0  0  0  0  0  0  0  0  0  0  0
   -1.8940    0.2880    0.1397 C   0  0  0  0  0  0  0  0  0  0  0  0
   -0.6228   -0.1800    0.7112 C   0  0  0  0  0  0  0  0  0  0  0  0
   -0.3358   -1.4354    1.1109 C   0  0  0  0  0  0  0  0  0  0  0  0
   -1.2629   -2.5142    1.0912 C   0  0  0  0  0  0  0  0  0  0  0  0
   -2.0271   -3.3846    1.0120 N   0  0  0  0  0  0  0  0  0  0  0  0
    1.0087   -1.7030    1.7044 C   0  0  0  0  0  0  0  0  0  0  0  0
    1.0878   -2.2928    2.7741 O   0  0  0  0  0  0  0  0  0  0  0  0
    2.0555   -1.2599    0.9121 N   0  0  0  0  0  0  0  0  0  0  0  0
    3.4492   -1.3179    1.1915 C   0  0  0  0  0  0  0  0  0  0  0  0
    3.9263   -1.7896    2.4190 C   0  0  0  0  0  0  0  0  0  0  0  0
    5.2912   -1.8275    2.6816 C   0  0  0  0  0  0  0  0  0  0  0  0
    6.1939   -1.3901    1.7186 C   0  0  0  0  0  0  0  0  0  0  0  0
    5.7723   -0.9140    0.4902 C   0  0  0  0  0  0  0  0  0  0  0  0
    6.7243   -0.5150   -0.3706 N   0  0  0  0  0  0  0  0  0  0  0  0
    6.3475   -0.0515   -1.5772 C   0  0  0  0  0  0  0  0  0  0  0  0
    5.0341    0.0397   -1.9780 C   0  0  0  0  0  0  0  0  0  0  0  0
    4.0499   -0.3702   -1.0832 C   0  0  0  0  0  0  0  0  0  0  0  0
    4.3856   -0.8688    0.2013 C   0  0  0  0  0  0  0  0  0  0  0  0
   -2.4875    1.4372    0.6689 C   0  0  0  0  0  0  0  0  0  0  0  0
   -3.6899    1.9330    0.1473 C   0  0  0  0  0  0  0  0  0  0  0  0
   -4.1409    3.0704    0.7694 O   0  0  0  0  0  0  0  0  0  0  0  0
   -5.5396    3.0832    1.0430 C   0  0  0  0  0  0  0  0  0  0  0  0
   -6.8748    1.9150   -2.9035 H   0  0  0  0  0  0  0  0  0  0  0  0
   -6.3547    0.2933   -2.4317 H   0  0  0  0  0  0  0  0  0  0  0  0
   -5.3049    1.3348   -3.4718 H   0  0  0  0  0  0  0  0  0  0  0  0
   -4.1163   -0.3583   -2.3413 H   0  0  0  0  0  0  0  0  0  0  0  0
   -2.0603   -1.2200   -1.4117 H   0  0  0  0  0  0  0  0  0  0  0  0
    0.1105    0.6147    0.8496 H   0  0  0  0  0  0  0  0  0  0  0  0
    1.8029   -0.8810    0.0120 H   0  0  0  0  0  0  0  0  0  0  0  0
    3.2629   -2.1332    3.2067 H   0  0  0  0  0  0  0  0  0  0  0  0
    5.6517   -2.1958    3.6391 H   0  0  0  0  0  0  0  0  0  0  0  0
    7.2599   -1.4222    1.9334 H   0  0  0  0  0  0  0  0  0  0  0  0
    7.1598    0.2511   -2.2320 H   0  0  0  0  0  0  0  0  0  0  0  0
    4.7797    0.4185   -2.9616 H   0  0  0  0  0  0  0  0  0  0  0  0
    3.0219   -0.2946   -1.4187 H   0  0  0  0  0  0  0  0  0  0  0  0
   -2.0336    1.9579    1.5096 H   0  0  0  0  0  0  0  0  0  0  0  0
   -6.0797    3.5771    0.2298 H   0  0  0  0  0  0  0  0  0  0  0  0
   -5.6931    3.6792    1.9482 H   0  0  0  0  0  0  0  0  0  0  0  0
   -5.9435    2.0823    1.2341 H   0  0  0  0  0  0  0  0  0  0  0  0
  1  2  1  0
  2  3  1  0
  3  4  2  0
  4  5  1  0
  5  6  2  0
  6  7  1  0
  7  8  2  3
  8  9  1  0
  9 10  3  0
  8 11  1  0
 11 12  2  0
 11 13  1  0
 13 14  1  0
 14 15  2  0
 15 16  1  0
 16 17  2  0
 17 18  1  0
 18 19  2  0
 19 20  1  0
 20 21  2  0
 21 22  1  0
 22 23  2  0
  6 24  1  0
 24 25  2  0
 25 26  1  0
 26 27  1  0
 25  3  1  0
 23 14  1  0
 23 18  1  0
  1 28  1  0
  1 29  1  0
  1 30  1  0
  4 31  1  0
  5 32  1  0
  7 33  1  0
 13 34  1  0
 15 35  1  0
 16 36  1  0
 17 37  1  0
 20 38  1  0
 21 39  1  0
 22 40  1  0
 24 41  1  0
 27 42  1  0
 27 43  1  0
 27 44  1  0
M  END
$$$$
