
     RDKit          3D

 33 35  0  0  0  0  0  0  0  0999 V2000
   -2.4654    0.0416    2.3052 O   0  0  0  0  0  0  0  0  0  0  0  0
   -2.2647    0.0996    1.0972 C   0  0  0  0  0  0  0  0  0  0  0  0
   -1.0418    0.0580    0.4737 N   0  0  0  0  0  0  0  0  0  0  0  0
    0.2246   -0.0099    1.0619 C   0  0  0  0  0  0  0  0  0  0  0  0
    0.4418   -0.0517    2.4187 C   0  0  0  0  0  0  0  0  0  0  0  0
    1.7556   -0.1168    2.8134 C   0  0  0  0  0  0  0  0  0  0  0  0
    2.7897   -0.1408    1.9557 N   0  0  0  0  0  0  0  0  0  0  0  0
    2.4829   -0.0947    0.6462 C   0  0  0  0  0  0  0  0  0  0  0  0
    3.5896   -0.1192   -0.3194 C   0  0  0  0  0  0  0  0  0  0  0  0
    4.9355   -0.1979    0.0733 C   0  0  0  0  0  0  0  0  0  0  0  0
    5.9576   -0.2199   -0.8760 C   0  0  0  0  0  0  0  0  0  0  0  0
    5.6108   -0.1628   -2.2133 C   0  0  0  0  0  0  0  0  0  0  0  0
    4.3378   -0.0866   -2.6491 N   0  0  0  0  0  0  0  0  0  0  0  0
    3.3682   -0.0658   -1.6963 C   0  0  0  0  0  0  0  0  0  0  0  0
    1.2265   -0.0313    0.1649 N   0  0  0  0  0  0  0  0  0  0  0  0
   -3.4487    0.1432    0.1965 C   0  0  0  0  0  0  0  0  0  0  0  0
   -4.5039   -0.7249    0.5314 C   0  0  0  0  0  0  0  0  0  0  0  0
   -5.6585   -0.7734   -0.2463 C   0  0  0  0  0  0  0  0  0  0  0  0
   -5.7719    0.0515   -1.3615 C   0  0  0  0  0  0  0  0  0  0  0  0
   -4.7369    0.9330   -1.6946 C   0  0  0  0  0  0  0  0  0  0  0  0
   -4.9765    1.9280   -3.0912 Cl  0  0  0  0  0  0  0  0  0  0  0  0
   -3.5676    0.9925   -0.9161 C   0  0  0  0  0  0  0  0  0  0  0  0
   -2.3221    2.1341   -1.3129 Cl  0  0  0  0  0  0  0  0  0  0  0  0
   -0.9923    0.1094   -0.5361 H   0  0  0  0  0  0  0  0  0  0  0  0
   -0.3462   -0.0335    3.1565 H   0  0  0  0  0  0  0  0  0  0  0  0
    2.0216   -0.1522    3.8661 H   0  0  0  0  0  0  0  0  0  0  0  0
    5.1954   -0.2424    1.1295 H   0  0  0  0  0  0  0  0  0  0  0  0
    6.9973   -0.2801   -0.5746 H   0  0  0  0  0  0  0  0  0  0  0  0
    6.3687   -0.1768   -2.9912 H   0  0  0  0  0  0  0  0  0  0  0  0
    2.3599   -0.0013   -2.0999 H   0  0  0  0  0  0  0  0  0  0  0  0
   -4.4231   -1.3696    1.4066 H   0  0  0  0  0  0  0  0  0  0  0  0
   -6.4679   -1.4504    0.0191 H   0  0  0  0  0  0  0  0  0  0  0  0
   -6.6759    0.0111   -1.9661 H   0  0  0  0  0  0  0  0  0  0  0  0
  1  2  2  0
  2  3  1  0
  3  4  1  0
  4  5  2  0
  5  6  1  0
  6  7  2  0
  7  8  1  0
  8  9  1  0
  9 10  2  0
 10 11  1  0
 11 12  2  0
 12 13  1  0
 13 14  2  0
  8 15  2  0
  2 16  1  0
 16 17  2  0
 17 18  1  0
 18 19  2  0
 19 20  1  0
 20 21  1  0
 20 22  2  0
 22 23  1  0
 15  4  1  0
 22 16  1  0
 14  9  1  0
  3 24  1  0
  5 25  1  0
  6 26  1  0
 10 27  1  0
 11 28  1  0
 12 29  1  0
 14 30  1  0
 17 31  1  0
 18 32  1  0
 19 33  1  0
M  END
$$$$
