
     RDKit          3D

 46 49  0  0  0  0  0  0  0  0999 V2000
    1.1556    3.0793    0.5045 O   0  0  0  0  0  0  0  0  0  0  0  0
    0.6023    2.6260    1.5056 C   0  0  0  0  0  0  0  0  0  0  0  0
   -0.7077    3.2150    2.0151 C   0  0  0  0  0  0  0  0  0  0  0  0
   -2.0262    2.9741    0.7935 S   0  0  0  0  0  0  0  0  0  0  0  0
   -2.2421    1.2652    0.9319 C   0  0  0  0  0  0  0  0  0  0  0  0
   -2.1584    0.5803    2.0453 N   0  0  0  0  0  0  0  0  0  0  0  0
   -2.4335   -0.7317    1.7465 N   0  0  0  0  0  0  0  0  0  0  0  0
   -2.6669   -0.8227    0.4492 C   0  0  0  0  0  0  0  0  0  0  0  0
   -3.0539   -2.0721   -0.2737 C   0  0  0  0  0  0  0  0  0  0  0  0
   -2.0109   -2.5626   -1.2331 C   0  0  0  0  0  0  0  0  0  0  0  0
   -0.6684   -2.8216   -0.9968 C   0  0  0  0  0  0  0  0  0  0  0  0
    0.0107   -3.2913   -2.1578 C   0  0  0  0  0  0  0  0  0  0  0  0
   -0.8348   -3.3910   -3.2408 C   0  0  0  0  0  0  0  0  0  0  0  0
   -2.4361   -2.9314   -2.8529 S   0  0  0  0  0  0  0  0  0  0  0  0
   -2.5733    0.4363   -0.1043 N   0  0  0  0  0  0  0  0  0  0  0  0
   -2.7789    0.8030   -1.4955 C   0  0  0  0  0  0  0  0  0  0  0  0
   -1.5223    0.7986   -2.2857 C   0  0  0  0  0  0  0  0  0  0  0  0
   -1.2714    0.7521   -3.6421 C   0  0  0  0  0  0  0  0  0  0  0  0
    0.1329    0.8309   -3.7941 C   0  0  0  0  0  0  0  0  0  0  0  0
    0.6506    0.9265   -2.5259 C   0  0  0  0  0  0  0  0  0  0  0  0
   -0.3429    0.8843   -1.6062 O   0  0  0  0  0  0  0  0  0  0  0  0
    1.0911    1.6075    2.3133 N   0  0  0  0  0  0  0  0  0  0  0  0
    2.2846    0.8785    2.1357 C   0  0  0  0  0  0  0  0  0  0  0  0
    3.0609    0.9235    0.9728 C   0  0  0  0  0  0  0  0  0  0  0  0
    4.2387    0.1785    0.8739 C   0  0  0  0  0  0  0  0  0  0  0  0
    4.6596   -0.6130    1.9408 C   0  0  0  0  0  0  0  0  0  0  0  0
    3.8874   -0.6664    3.0947 C   0  0  0  0  0  0  0  0  0  0  0  0
    4.3993   -1.6362    4.4195 Cl  0  0  0  0  0  0  0  0  0  0  0  0
    2.7010    0.0652    3.1964 C   0  0  0  0  0  0  0  0  0  0  0  0
   -0.5501    4.2882    2.1747 H   0  0  0  0  0  0  0  0  0  0  0  0
   -1.0083    2.7881    2.9788 H   0  0  0  0  0  0  0  0  0  0  0  0
   -3.2361   -2.8659    0.4640 H   0  0  0  0  0  0  0  0  0  0  0  0
   -4.0141   -1.9071   -0.7753 H   0  0  0  0  0  0  0  0  0  0  0  0
   -0.1925   -2.6695   -0.0326 H   0  0  0  0  0  0  0  0  0  0  0  0
    1.0642   -3.5395   -2.1906 H   0  0  0  0  0  0  0  0  0  0  0  0
   -0.5905   -3.7186   -4.2418 H   0  0  0  0  0  0  0  0  0  0  0  0
   -3.5096    0.1094   -1.9296 H   0  0  0  0  0  0  0  0  0  0  0  0
   -3.2429    1.7944   -1.5237 H   0  0  0  0  0  0  0  0  0  0  0  0
   -2.0084    0.6952   -4.4305 H   0  0  0  0  0  0  0  0  0  0  0  0
    0.7013    0.8416   -4.7113 H   0  0  0  0  0  0  0  0  0  0  0  0
    1.6512    1.0443   -2.1313 H   0  0  0  0  0  0  0  0  0  0  0  0
    0.5157    1.3069    3.0888 H   0  0  0  0  0  0  0  0  0  0  0  0
    2.7513    1.5072    0.1019 H   0  0  0  0  0  0  0  0  0  0  0  0
    4.8232    0.2233   -0.0439 H   0  0  0  0  0  0  0  0  0  0  0  0
    5.5781   -1.1839    1.8628 H   0  0  0  0  0  0  0  0  0  0  0  0
    2.1202    0.0014    4.1115 H   0  0  0  0  0  0  0  0  0  0  0  0
  1  2  2  0
  2  3  1  0
  3  4  1  0
  4  5  1  0
  5  6  2  0
  6  7  1  0
  7  8  2  0
  8  9  1  0
  9 10  1  0
 10 11  2  0
 11 12  1  0
 12 13  2  0
 13 14  1  0
  8 15  1  0
 15 16  1  0
 16 17  1  0
 17 18  2  0
 18 19  1  0
 19 20  2  0
 20 21  1  0
  2 22  1  0
 22 23  1  0
 23 24  2  0
 24 25  1  0
 25 26  2  0
 26 27  1  0
 27 28  1  0
 27 29  2  0
 15  5  1  0
 21 17  1  0
 29 23  1  0
 14 10  1  0
  3 30  1  0
  3 31  1  0
  9 32  1  0
  9 33  1  0
 11 34  1  0
 12 35  1  0
 13 36  1  0
 16 37  1  0
 16 38  1  0
 18 39  1  0
 19 40  1  0
 20 41  1  0
 22 42  1  0
 24 43  1  0
 25 44  1  0
 26 45  1  0
 29 46  1  0
M  END
$$$$
