
     RDKit          3D

 51 54  0  0  0  0  0  0  0  0999 V2000
    8.1682   -1.6944   -0.6820 N   0  0  0  0  0  0  0  0  0  0  0  0
    7.4299   -0.8696   -1.9516 S   0  0  0  0  0  6  0  0  0  0  0  0
    8.2791    0.2388   -2.3027 O   0  0  0  0  0  0  0  0  0  0  0  0
    7.0333   -1.8891   -2.8982 O   0  0  0  0  0  0  0  0  0  0  0  0
    5.9761   -0.2441   -1.1567 C   0  0  0  0  0  0  0  0  0  0  0  0
    6.0046    1.0122   -0.5553 C   0  0  0  0  0  0  0  0  0  0  0  0
    4.8601    1.5049    0.0768 C   0  0  0  0  0  0  0  0  0  0  0  0
    3.6917    0.7445    0.1128 C   0  0  0  0  0  0  0  0  0  0  0  0
    2.5185    1.1617    0.7625 N   0  0  0  0  0  0  0  0  0  0  0  0
    2.2022    2.4314    1.2078 C   0  0  0  0  0  0  0  0  0  0  0  0
    2.8697    3.4422    1.0197 O   0  0  0  0  0  0  0  0  0  0  0  0
    0.9126    2.4927    2.0127 C   0  0  0  0  0  0  0  0  0  0  0  0
   -0.5603    2.4472    0.9492 S   0  0  0  0  0  0  0  0  0  0  0  0
   -0.8675    0.7416    0.8910 C   0  0  0  0  0  0  0  0  0  0  0  0
    0.0908   -0.1598    0.9114 N   0  0  0  0  0  0  0  0  0  0  0  0
   -0.4997   -1.3912    0.9691 N   0  0  0  0  0  0  0  0  0  0  0  0
   -1.8142   -1.2301    0.9794 C   0  0  0  0  0  0  0  0  0  0  0  0
   -2.7944   -2.3556    0.8927 C   0  0  0  0  0  0  0  0  0  0  0  0
   -3.7502   -2.2691   -0.2628 C   0  0  0  0  0  0  0  0  0  0  0  0
   -5.1338   -2.2429   -0.2237 C   0  0  0  0  0  0  0  0  0  0  0  0
   -5.7092   -2.1461   -1.5228 C   0  0  0  0  0  0  0  0  0  0  0  0
   -4.7491   -2.1292   -2.5133 C   0  0  0  0  0  0  0  0  0  0  0  0
   -3.1669   -2.2350   -1.8769 S   0  0  0  0  0  0  0  0  0  0  0  0
   -2.1088    0.1320    0.9892 N   0  0  0  0  0  0  0  0  0  0  0  0
   -3.3814    0.7392    1.1234 C   0  0  0  0  0  0  0  0  0  0  0  0
   -4.2679    0.2820    2.1061 C   0  0  0  0  0  0  0  0  0  0  0  0
   -5.5184    0.8834    2.2465 C   0  0  0  0  0  0  0  0  0  0  0  0
   -5.8914    1.9292    1.4087 C   0  0  0  0  0  0  0  0  0  0  0  0
   -5.0100    2.3854    0.4299 C   0  0  0  0  0  0  0  0  0  0  0  0
   -3.7538    1.7949    0.2857 C   0  0  0  0  0  0  0  0  0  0  0  0
    3.6777   -0.5207   -0.4923 C   0  0  0  0  0  0  0  0  0  0  0  0
    4.8105   -1.0137   -1.1402 C   0  0  0  0  0  0  0  0  0  0  0  0
    7.7624   -1.4805    0.2244 H   0  0  0  0  0  0  0  0  0  0  0  0
    8.1696   -2.6959   -0.8842 H   0  0  0  0  0  0  0  0  0  0  0  0
    6.9116    1.6199   -0.5685 H   0  0  0  0  0  0  0  0  0  0  0  0
    4.9176    2.4861    0.5477 H   0  0  0  0  0  0  0  0  0  0  0  0
    1.7624    0.4724    0.7944 H   0  0  0  0  0  0  0  0  0  0  0  0
    0.8984    1.6960    2.7648 H   0  0  0  0  0  0  0  0  0  0  0  0
    0.9050    3.4418    2.5577 H   0  0  0  0  0  0  0  0  0  0  0  0
   -3.3432   -2.4407    1.8347 H   0  0  0  0  0  0  0  0  0  0  0  0
   -2.2337   -3.2947    0.8003 H   0  0  0  0  0  0  0  0  0  0  0  0
   -5.7150   -2.2844    0.6934 H   0  0  0  0  0  0  0  0  0  0  0  0
   -6.7732   -2.0976   -1.7216 H   0  0  0  0  0  0  0  0  0  0  0  0
   -4.8995   -2.0648   -3.5859 H   0  0  0  0  0  0  0  0  0  0  0  0
   -3.9916   -0.5018    2.8033 H   0  0  0  0  0  0  0  0  0  0  0  0
   -6.1972    0.5450    3.0186 H   0  0  0  0  0  0  0  0  0  0  0  0
   -6.8662    2.3964    1.5209 H   0  0  0  0  0  0  0  0  0  0  0  0
   -5.3028    3.2002   -0.2256 H   0  0  0  0  0  0  0  0  0  0  0  0
   -3.1028    2.1522   -0.5084 H   0  0  0  0  0  0  0  0  0  0  0  0
    2.7770   -1.1307   -0.4762 H   0  0  0  0  0  0  0  0  0  0  0  0
    4.7735   -1.9918   -1.6204 H   0  0  0  0  0  0  0  0  0  0  0  0
  1  2  1  0
  2  3  2  0
  2  4  2  0
  2  5  1  0
  5  6  2  0
  6  7  1  0
  7  8  2  0
  8  9  1  0
  9 10  1  0
 10 11  2  0
 10 12  1  0
 12 13  1  0
 13 14  1  0
 14 15  2  0
 15 16  1  0
 16 17  2  0
 17 18  1  0
 18 19  1  0
 19 20  2  0
 20 21  1  0
 21 22  2  0
 22 23  1  0
 17 24  1  0
 24 25  1  0
 25 26  2  0
 26 27  1  0
 27 28  2  0
 28 29  1  0
 29 30  2  0
  8 31  1  0
 31 32  2  0
 32  5  1  0
 24 14  1  0
 30 25  1  0
 23 19  1  0
  1 33  1  0
  1 34  1  0
  6 35  1  0
  7 36  1  0
  9 37  1  0
 12 38  1  0
 12 39  1  0
 18 40  1  0
 18 41  1  0
 20 42  1  0
 21 43  1  0
 22 44  1  0
 26 45  1  0
 27 46  1  0
 28 47  1  0
 29 48  1  0
 30 49  1  0
 31 50  1  0
 32 51  1  0
M  END
$$$$
