
     RDKit          3D

 26 28  0  0  0  0  0  0  0  0999 V2000
    0.6555   -2.5734   -2.5614 N   0  0  0  0  0  0  0  0  0  0  0  0
    0.6339   -1.7099   -1.7851 C   0  0  0  0  0  0  0  0  0  0  0  0
    0.6020   -0.6575   -0.8204 C   0  0  0  0  0  0  0  0  0  0  0  0
    1.6617    0.1472   -0.5910 C   0  0  0  0  0  0  0  0  0  0  0  0
    2.9398    0.0850   -1.2200 C   0  0  0  0  0  0  0  0  0  0  0  0
    3.6582   -0.9516   -1.8101 C   0  0  0  0  0  0  0  0  0  0  0  0
    4.8967   -0.4324   -2.2614 C   0  0  0  0  0  0  0  0  0  0  0  0
    4.8934    0.8920   -1.9158 C   0  0  0  0  0  0  0  0  0  0  0  0
    3.7390    1.2094   -1.2858 O   0  0  0  0  0  0  0  0  0  0  0  0
   -0.5990   -0.3989   -0.0613 C   0  0  0  0  0  0  0  0  0  0  0  0
   -0.7310    0.5175    0.8841 N   0  0  0  0  0  0  0  0  0  0  0  0
   -2.0058    0.5175    1.4230 C   0  0  0  0  0  0  0  0  0  0  0  0
   -2.4715    1.3690    2.4451 C   0  0  0  0  0  0  0  0  0  0  0  0
   -3.7911    1.2574    2.8950 C   0  0  0  0  0  0  0  0  0  0  0  0
   -4.6463    0.3110    2.3396 C   0  0  0  0  0  0  0  0  0  0  0  0
   -4.2061   -0.5442    1.3246 C   0  0  0  0  0  0  0  0  0  0  0  0
   -2.8785   -0.4218    0.8818 C   0  0  0  0  0  0  0  0  0  0  0  0
   -2.0544   -1.3131   -0.3305 S   0  0  0  0  0  0  0  0  0  0  0  0
    1.5623    0.9673    0.1198 H   0  0  0  0  0  0  0  0  0  0  0  0
    3.3442   -1.9822   -1.9039 H   0  0  0  0  0  0  0  0  0  0  0  0
    5.6911   -0.9634   -2.7666 H   0  0  0  0  0  0  0  0  0  0  0  0
    5.6003    1.7013   -2.0353 H   0  0  0  0  0  0  0  0  0  0  0  0
   -1.8011    2.1063    2.8758 H   0  0  0  0  0  0  0  0  0  0  0  0
   -4.1478    1.9159    3.6838 H   0  0  0  0  0  0  0  0  0  0  0  0
   -5.6709    0.2341    2.6981 H   0  0  0  0  0  0  0  0  0  0  0  0
   -4.8747   -1.2824    0.8918 H   0  0  0  0  0  0  0  0  0  0  0  0
  1  2  3  0
  2  3  1  0
  3  4  2  3
  4  5  1  0
  5  6  2  0
  6  7  1  0
  7  8  2  0
  8  9  1  0
  3 10  1  0
 10 11  2  0
 11 12  1  0
 12 13  2  0
 13 14  1  0
 14 15  2  0
 15 16  1  0
 16 17  2  0
 17 18  1  0
  9  5  1  0
 18 10  1  0
 17 12  1  0
  4 19  1  0
  6 20  1  0
  7 21  1  0
  8 22  1  0
 13 23  1  0
 14 24  1  0
 15 25  1  0
 16 26  1  0
M  END
$$$$
