
     RDKit          3D

 35 36  0  0  0  0  0  0  0  0999 V2000
    2.2190   -0.9658   -2.2147 C   0  0  0  0  0  0  0  0  0  0  0  0
    2.0573    0.0663   -1.1928 N   0  0  0  0  0  0  0  0  0  0  0  0
    1.2886   -0.3986   -0.0282 C   0  0  0  0  0  0  0  0  0  0  0  0
   -0.1843   -0.6575   -0.3582 C   0  0  0  0  0  0  0  0  0  0  0  0
   -0.9746   -0.9910    0.9059 C   0  0  0  0  0  0  0  0  0  0  0  0
   -2.3345   -1.2835    0.5842 O   0  0  0  0  0  0  0  0  0  0  0  0
   -3.2652   -0.2802    0.6147 C   0  0  0  0  0  0  0  0  0  0  0  0
   -2.9654    1.0831    0.7021 C   0  0  0  0  0  0  0  0  0  0  0  0
   -3.9911    2.0350    0.7146 C   0  0  0  0  0  0  0  0  0  0  0  0
   -5.3209    1.6295    0.6350 C   0  0  0  0  0  0  0  0  0  0  0  0
   -6.5747    2.8069    0.6510 Cl  0  0  0  0  0  0  0  0  0  0  0  0
   -5.6400    0.2799    0.5390 C   0  0  0  0  0  0  0  0  0  0  0  0
   -4.6144   -0.6689    0.5260 C   0  0  0  0  0  0  0  0  0  0  0  0
   -5.0634   -2.3362    0.4040 Cl  0  0  0  0  0  0  0  0  0  0  0  0
    3.3425    0.6652   -0.7978 C   0  0  0  0  0  0  0  0  0  0  0  0
    4.2957   -0.2499   -0.0917 C   0  0  0  0  0  0  0  0  0  0  0  0
    5.3199    0.3045    0.8657 C   0  0  0  0  0  0  0  0  0  0  0  0
    4.1273   -0.3444    1.3292 O   0  0  0  0  0  0  0  0  0  0  0  0
    1.2554   -1.2290   -2.6621 H   0  0  0  0  0  0  0  0  0  0  0  0
    2.8417   -0.6016   -3.0400 H   0  0  0  0  0  0  0  0  0  0  0  0
    2.6731   -1.8809   -1.8199 H   0  0  0  0  0  0  0  0  0  0  0  0
    1.3186    0.3755    0.7498 H   0  0  0  0  0  0  0  0  0  0  0  0
    1.7331   -1.3051    0.4016 H   0  0  0  0  0  0  0  0  0  0  0  0
   -0.2913   -1.4897   -1.0639 H   0  0  0  0  0  0  0  0  0  0  0  0
   -0.6201    0.2167   -0.8557 H   0  0  0  0  0  0  0  0  0  0  0  0
   -0.8867   -0.2208    1.6809 H   0  0  0  0  0  0  0  0  0  0  0  0
   -0.5624   -1.9058    1.3482 H   0  0  0  0  0  0  0  0  0  0  0  0
   -1.9434    1.4451    0.7483 H   0  0  0  0  0  0  0  0  0  0  0  0
   -3.7422    3.0916    0.7818 H   0  0  0  0  0  0  0  0  0  0  0  0
   -6.6777   -0.0345    0.4734 H   0  0  0  0  0  0  0  0  0  0  0  0
    3.8410    1.0612   -1.6917 H   0  0  0  0  0  0  0  0  0  0  0  0
    3.1373    1.5478   -0.1774 H   0  0  0  0  0  0  0  0  0  0  0  0
    4.5568   -1.1399   -0.6463 H   0  0  0  0  0  0  0  0  0  0  0  0
    6.2546   -0.2292    0.9840 H   0  0  0  0  0  0  0  0  0  0  0  0
    5.3905    1.3764    1.0007 H   0  0  0  0  0  0  0  0  0  0  0  0
  1  2  1  0
  2  3  1  0
  3  4  1  0
  4  5  1  0
  5  6  1  0
  6  7  1  0
  7  8  2  0
  8  9  1  0
  9 10  2  0
 10 11  1  0
 10 12  1  0
 12 13  2  0
 13 14  1  0
  2 15  1  0
 15 16  1  0
 16 17  1  0
 17 18  1  0
 13  7  1  0
 18 16  1  0
  1 19  1  0
  1 20  1  0
  1 21  1  0
  3 22  1  0
  3 23  1  0
  4 24  1  0
  4 25  1  0
  5 26  1  0
  5 27  1  0
  8 28  1  0
  9 29  1  0
 12 30  1  0
 15 31  1  0
 15 32  1  0
 16 33  1  0
 17 34  1  0
 17 35  1  0
M  END
$$$$
