
     RDKit          3D

 65 69  0  0  0  0  0  0  0  0999 V2000
   -1.1990   -5.3365    0.6977 C   0  0  0  0  0  0  0  0  0  0  0  0
   -1.6658   -4.1696    0.0337 O   0  0  0  0  0  0  0  0  0  0  0  0
   -2.4601   -3.3221    0.7570 C   0  0  0  0  0  0  0  0  0  0  0  0
   -2.9164   -3.5365    2.0577 C   0  0  0  0  0  0  0  0  0  0  0  0
   -3.7287   -2.5863    2.6812 C   0  0  0  0  0  0  0  0  0  0  0  0
   -4.0879   -1.4182    2.0072 C   0  0  0  0  0  0  0  0  0  0  0  0
   -3.6405   -1.1890    0.6999 C   0  0  0  0  0  0  0  0  0  0  0  0
   -3.9913    0.0490   -0.0094 C   0  0  0  0  0  0  0  0  0  0  0  0
   -5.6422    0.3595   -0.3397 S   0  0  0  0  0  0  0  0  0  0  0  0
   -5.2994    1.8383   -1.1409 C   0  0  0  0  0  0  0  0  0  0  0  0
   -6.2319    2.7197   -1.7216 C   0  0  0  0  0  0  0  0  0  0  0  0
   -5.7768    3.8939   -2.3317 C   0  0  0  0  0  0  0  0  0  0  0  0
   -4.4219    4.1929   -2.3658 C   0  0  0  0  0  0  0  0  0  0  0  0
   -3.8575    5.3048   -2.9285 O   0  0  0  0  0  0  0  0  0  0  0  0
   -4.7454    6.2803   -3.4587 C   0  0  0  0  0  0  0  0  0  0  0  0
   -3.5053    3.3053   -1.7889 C   0  0  0  0  0  0  0  0  0  0  0  0
   -3.9304    2.1032   -1.1646 C   0  0  0  0  0  0  0  0  0  0  0  0
   -3.1769    1.0544   -0.5108 C   0  0  0  0  0  0  0  0  0  0  0  0
   -1.7246    1.0143   -0.3651 C   0  0  0  0  0  0  0  0  0  0  0  0
   -0.9144    0.8572   -1.4931 C   0  0  0  0  0  0  0  0  0  0  0  0
    0.4746    0.8116   -1.3544 C   0  0  0  0  0  0  0  0  0  0  0  0
    1.0697    0.9236   -0.0954 C   0  0  0  0  0  0  0  0  0  0  0  0
    2.4351    0.8612   -0.1040 O   0  0  0  0  0  0  0  0  0  0  0  0
    3.0986    0.9137    1.1603 C   0  0  0  0  0  0  0  0  0  0  0  0
    4.6225    0.7807    0.9640 C   0  0  0  0  0  0  0  0  0  0  0  0
    5.1034   -0.6139    0.9436 N   0  0  0  0  0  0  0  0  0  0  0  0
    4.6928   -1.3562   -0.2589 C   0  0  0  0  0  0  0  0  0  0  0  0
    5.8531   -1.8950   -1.1003 C   0  0  0  0  0  0  0  0  0  0  0  0
    6.8355   -2.7133   -0.2683 C   0  0  0  0  0  0  0  0  0  0  0  0
    7.0449   -2.1244    1.1254 C   0  0  0  0  0  0  0  0  0  0  0  0
    6.5424   -0.6861    1.2225 C   0  0  0  0  0  0  0  0  0  0  0  0
    0.2616    1.0893    1.0300 C   0  0  0  0  0  0  0  0  0  0  0  0
   -1.1309    1.1368    0.8958 C   0  0  0  0  0  0  0  0  0  0  0  0
   -2.8273   -2.1515    0.0854 C   0  0  0  0  0  0  0  0  0  0  0  0
   -0.5630   -5.8877   -0.0032 H   0  0  0  0  0  0  0  0  0  0  0  0
   -0.5884   -5.0783    1.5704 H   0  0  0  0  0  0  0  0  0  0  0  0
   -2.0318   -5.9915    0.9763 H   0  0  0  0  0  0  0  0  0  0  0  0
   -2.6598   -4.4311    2.6148 H   0  0  0  0  0  0  0  0  0  0  0  0
   -4.0814   -2.7575    3.6954 H   0  0  0  0  0  0  0  0  0  0  0  0
   -4.7132   -0.6856    2.5121 H   0  0  0  0  0  0  0  0  0  0  0  0
   -7.2943    2.4930   -1.6973 H   0  0  0  0  0  0  0  0  0  0  0  0
   -6.5190    4.5519   -2.7721 H   0  0  0  0  0  0  0  0  0  0  0  0
   -5.3982    6.6842   -2.6782 H   0  0  0  0  0  0  0  0  0  0  0  0
   -5.3283    5.8733   -4.2910 H   0  0  0  0  0  0  0  0  0  0  0  0
   -4.1417    7.1057   -3.8482 H   0  0  0  0  0  0  0  0  0  0  0  0
   -2.4454    3.5485   -1.8174 H   0  0  0  0  0  0  0  0  0  0  0  0
   -1.3555    0.7603   -2.4824 H   0  0  0  0  0  0  0  0  0  0  0  0
    1.0987    0.6828   -2.2352 H   0  0  0  0  0  0  0  0  0  0  0  0
    2.9012    1.8906    1.6201 H   0  0  0  0  0  0  0  0  0  0  0  0
    2.7382    0.1208    1.8278 H   0  0  0  0  0  0  0  0  0  0  0  0
    5.0843    1.2834    1.8226 H   0  0  0  0  0  0  0  0  0  0  0  0
    4.9444    1.3111    0.0600 H   0  0  0  0  0  0  0  0  0  0  0  0
    4.0576   -0.7591   -0.9226 H   0  0  0  0  0  0  0  0  0  0  0  0
    4.0773   -2.2020    0.0741 H   0  0  0  0  0  0  0  0  0  0  0  0
    6.3830   -1.0518   -1.5648 H   0  0  0  0  0  0  0  0  0  0  0  0
    5.4677   -2.5077   -1.9240 H   0  0  0  0  0  0  0  0  0  0  0  0
    6.4784   -3.7468   -0.1725 H   0  0  0  0  0  0  0  0  0  0  0  0
    7.7953   -2.7675   -0.7995 H   0  0  0  0  0  0  0  0  0  0  0  0
    6.5165   -2.7445    1.8629 H   0  0  0  0  0  0  0  0  0  0  0  0
    8.1079   -2.1713    1.3911 H   0  0  0  0  0  0  0  0  0  0  0  0
    7.1114   -0.0446    0.5365 H   0  0  0  0  0  0  0  0  0  0  0  0
    6.7346   -0.3237    2.2395 H   0  0  0  0  0  0  0  0  0  0  0  0
    0.6794    1.1827    2.0266 H   0  0  0  0  0  0  0  0  0  0  0  0
   -1.7476    1.2646    1.7826 H   0  0  0  0  0  0  0  0  0  0  0  0
   -2.4679   -1.9934   -0.9289 H   0  0  0  0  0  0  0  0  0  0  0  0
  1  2  1  0
  2  3  1  0
  3  4  2  0
  4  5  1  0
  5  6  2  0
  6  7  1  0
  7  8  1  0
  8  9  1  0
  9 10  1  0
 10 11  2  0
 11 12  1  0
 12 13  2  0
 13 14  1  0
 14 15  1  0
 13 16  1  0
 16 17  2  0
 17 18  1  0
 18 19  1  0
 19 20  2  0
 20 21  1  0
 21 22  2  0
 22 23  1  0
 23 24  1  0
 24 25  1  0
 25 26  1  0
 26 27  1  0
 27 28  1  0
 28 29  1  0
 29 30  1  0
 30 31  1  0
 22 32  1  0
 32 33  2  0
  7 34  2  0
 34  3  1  0
 18  8  2  0
 33 19  1  0
 17 10  1  0
 31 26  1  0
  1 35  1  0
  1 36  1  0
  1 37  1  0
  4 38  1  0
  5 39  1  0
  6 40  1  0
 11 41  1  0
 12 42  1  0
 15 43  1  0
 15 44  1  0
 15 45  1  0
 16 46  1  0
 20 47  1  0
 21 48  1  0
 24 49  1  0
 24 50  1  0
 25 51  1  0
 25 52  1  0
 27 53  1  0
 27 54  1  0
 28 55  1  0
 28 56  1  0
 29 57  1  0
 29 58  1  0
 30 59  1  0
 30 60  1  0
 31 61  1  0
 31 62  1  0
 32 63  1  0
 33 64  1  0
 34 65  1  0
M  END
$$$$
