
     RDKit          3D

 45 46  0  0  0  0  0  0  0  0999 V2000
    6.1969   -2.5629    3.6674 C   0  0  0  0  0  0  0  0  0  0  0  0
    6.2566   -2.5028    2.2482 O   0  0  0  0  0  0  0  0  0  0  0  0
    5.2824   -1.7870    1.6095 C   0  0  0  0  0  0  0  0  0  0  0  0
    5.3983   -1.7646    0.2182 C   0  0  0  0  0  0  0  0  0  0  0  0
    4.4685   -1.0740   -0.5618 C   0  0  0  0  0  0  0  0  0  0  0  0
    3.3980   -0.4028    0.0428 C   0  0  0  0  0  0  0  0  0  0  0  0
    2.4566    0.3100   -0.8583 C   0  0  0  0  0  0  0  0  0  0  0  0
    2.8809    0.8594   -1.8713 O   0  0  0  0  0  0  0  0  0  0  0  0
    1.0046    0.2661   -0.5378 C   0  0  0  0  0  0  0  0  0  0  0  0
    0.1381    0.9688   -1.2835 C   0  0  0  0  0  0  0  0  0  0  0  0
   -1.3134    0.9719   -1.0559 C   0  0  0  0  0  0  0  0  0  0  0  0
   -1.8576    1.0576    0.2348 C   0  0  0  0  0  0  0  0  0  0  0  0
   -3.2418    1.0793    0.4233 C   0  0  0  0  0  0  0  0  0  0  0  0
   -3.8633    1.1516    1.6438 O   0  0  0  0  0  0  0  0  0  0  0  0
   -3.0589    1.4982    2.7624 C   0  0  0  0  0  0  0  0  0  0  0  0
   -4.0810    1.0020   -0.7007 C   0  0  0  0  0  0  0  0  0  0  0  0
   -5.4470    1.0586   -0.5254 O   0  0  0  0  0  0  0  0  0  0  0  0
   -5.9716   -0.2622   -0.4051 C   0  0  0  0  0  0  0  0  0  0  0  0
   -3.5550    0.9561   -2.0027 C   0  0  0  0  0  0  0  0  0  0  0  0
   -4.4669    0.9150   -3.0260 O   0  0  0  0  0  0  0  0  0  0  0  0
   -3.9685    1.0462   -4.3502 C   0  0  0  0  0  0  0  0  0  0  0  0
   -2.1679    0.9387   -2.1681 C   0  0  0  0  0  0  0  0  0  0  0  0
    3.2970   -0.4065    1.4396 C   0  0  0  0  0  0  0  0  0  0  0  0
    2.3011    0.2927    2.0671 O   0  0  0  0  0  0  0  0  0  0  0  0
    4.2304   -1.1016    2.2209 C   0  0  0  0  0  0  0  0  0  0  0  0
    7.0390   -3.1705    4.0125 H   0  0  0  0  0  0  0  0  0  0  0  0
    6.3017   -1.5664    4.1089 H   0  0  0  0  0  0  0  0  0  0  0  0
    5.2750   -3.0493    4.0030 H   0  0  0  0  0  0  0  0  0  0  0  0
    6.2219   -2.2867   -0.2643 H   0  0  0  0  0  0  0  0  0  0  0  0
    4.5814   -1.0625   -1.6445 H   0  0  0  0  0  0  0  0  0  0  0  0
    0.6823   -0.3605    0.2838 H   0  0  0  0  0  0  0  0  0  0  0  0
    0.4924    1.5630   -2.1246 H   0  0  0  0  0  0  0  0  0  0  0  0
   -1.1818    1.1134    1.0817 H   0  0  0  0  0  0  0  0  0  0  0  0
   -3.7227    1.6384    3.6209 H   0  0  0  0  0  0  0  0  0  0  0  0
   -2.5266    2.4408    2.5960 H   0  0  0  0  0  0  0  0  0  0  0  0
   -2.3638    0.6893    3.0093 H   0  0  0  0  0  0  0  0  0  0  0  0
   -5.5551   -0.7800    0.4659 H   0  0  0  0  0  0  0  0  0  0  0  0
   -5.7947   -0.8478   -1.3139 H   0  0  0  0  0  0  0  0  0  0  0  0
   -7.0534   -0.1806   -0.2627 H   0  0  0  0  0  0  0  0  0  0  0  0
   -3.3630    0.1777   -4.6288 H   0  0  0  0  0  0  0  0  0  0  0  0
   -3.4064    1.9778   -4.4741 H   0  0  0  0  0  0  0  0  0  0  0  0
   -4.8268    1.0833   -5.0281 H   0  0  0  0  0  0  0  0  0  0  0  0
   -1.7247    0.8860   -3.1578 H   0  0  0  0  0  0  0  0  0  0  0  0
    2.4818    0.3242    3.0221 H   0  0  0  0  0  0  0  0  0  0  0  0
    4.1272   -1.0973    3.2997 H   0  0  0  0  0  0  0  0  0  0  0  0
  1  2  1  0
  2  3  1  0
  3  4  2  0
  4  5  1  0
  5  6  2  0
  6  7  1  0
  7  8  2  0
  7  9  1  0
  9 10  2  0
 10 11  1  0
 11 12  2  0
 12 13  1  0
 13 14  1  0
 14 15  1  0
 13 16  2  0
 16 17  1  0
 17 18  1  0
 16 19  1  0
 19 20  1  0
 20 21  1  0
 19 22  2  0
  6 23  1  0
 23 24  1  0
 23 25  2  0
 25  3  1  0
 22 11  1  0
  1 26  1  0
  1 27  1  0
  1 28  1  0
  4 29  1  0
  5 30  1  0
  9 31  1  0
 10 32  1  0
 12 33  1  0
 15 34  1  0
 15 35  1  0
 15 36  1  0
 18 37  1  0
 18 38  1  0
 18 39  1  0
 21 40  1  0
 21 41  1  0
 21 42  1  0
 22 43  1  0
 24 44  1  0
 25 45  1  0
M  END
$$$$
