
     RDKit          3D

 41 43  0  0  0  0  0  0  0  0999 V2000
   -0.8380   -4.0628    2.2090 C   0  0  0  0  0  0  0  0  0  0  0  0
   -1.4665   -2.7298    1.9308 C   0  0  0  0  0  0  0  0  0  0  0  0
   -2.5266   -2.6189    1.0310 C   0  0  0  0  0  0  0  0  0  0  0  0
   -3.0991   -1.3734    0.7591 C   0  0  0  0  0  0  0  0  0  0  0  0
   -2.6171   -0.1970    1.3599 C   0  0  0  0  0  0  0  0  0  0  0  0
   -3.3081    1.0941    1.0276 C   0  0  0  0  0  0  0  0  0  0  0  0
   -1.5247   -0.3070    2.2387 C   0  0  0  0  0  0  0  0  0  0  0  0
   -0.7606    1.0900    3.0603 S   0  0  0  0  0  6  0  0  0  0  0  0
   -1.5704    2.2764    2.8948 O   0  0  0  0  0  0  0  0  0  0  0  0
   -0.3706    0.6432    4.3827 O   0  0  0  0  0  0  0  0  0  0  0  0
    0.6843    1.2860    2.1964 N   0  0  0  0  0  0  0  0  0  0  0  0
    0.6165    1.5044    0.7926 C   0  0  0  0  0  0  0  0  0  0  0  0
    0.1702    2.7279    0.2963 C   0  0  0  0  0  0  0  0  0  0  0  0
    0.0662    2.9269   -1.0807 C   0  0  0  0  0  0  0  0  0  0  0  0
    0.4053    1.8938   -1.9555 C   0  0  0  0  0  0  0  0  0  0  0  0
    0.2912    2.0904   -3.3049 O   0  0  0  0  0  0  0  0  0  0  0  0
    0.8542    0.6585   -1.4659 C   0  0  0  0  0  0  0  0  0  0  0  0
    1.2731   -0.6994   -2.5482 S   0  0  0  0  0  0  0  0  0  0  0  0
    2.9221   -0.3232   -2.9827 C   0  0  0  0  0  0  0  0  0  0  0  0
    3.4831   -0.7586   -4.1567 N   0  0  0  0  0  0  0  0  0  0  0  0
    4.7100   -0.3009   -4.0912 C   0  0  0  0  0  0  0  0  0  0  0  0
    4.8821    0.3622   -2.9196 N   0  0  0  0  0  0  0  0  0  0  0  0
    3.7634    0.3437   -2.1802 N   0  0  0  0  0  0  0  0  0  0  0  0
    0.9527    0.4702   -0.0811 C   0  0  0  0  0  0  0  0  0  0  0  0
   -0.9654   -1.5683    2.5263 C   0  0  0  0  0  0  0  0  0  0  0  0
   -1.5711   -4.8700    2.1082 H   0  0  0  0  0  0  0  0  0  0  0  0
   -0.0162   -4.2419    1.5090 H   0  0  0  0  0  0  0  0  0  0  0  0
   -0.4483   -4.1044    3.2316 H   0  0  0  0  0  0  0  0  0  0  0  0
   -2.9245   -3.5035    0.5376 H   0  0  0  0  0  0  0  0  0  0  0  0
   -3.9359   -1.3305    0.0631 H   0  0  0  0  0  0  0  0  0  0  0  0
   -3.7845    1.5133    1.9188 H   0  0  0  0  0  0  0  0  0  0  0  0
   -2.6092    1.8120    0.5927 H   0  0  0  0  0  0  0  0  0  0  0  0
   -4.1011    0.9441    0.2861 H   0  0  0  0  0  0  0  0  0  0  0  0
    1.4116    0.6600    2.5382 H   0  0  0  0  0  0  0  0  0  0  0  0
   -0.0990    3.5313    0.9787 H   0  0  0  0  0  0  0  0  0  0  0  0
   -0.2842    3.8864   -1.4486 H   0  0  0  0  0  0  0  0  0  0  0  0
   -0.0171    2.9949   -3.4739 H   0  0  0  0  0  0  0  0  0  0  0  0
    5.4869   -0.4172   -4.8330 H   0  0  0  0  0  0  0  0  0  0  0  0
    5.7073    0.8305   -2.5632 H   0  0  0  0  0  0  0  0  0  0  0  0
    1.2905   -0.4866    0.3071 H   0  0  0  0  0  0  0  0  0  0  0  0
   -0.1321   -1.6470    3.2232 H   0  0  0  0  0  0  0  0  0  0  0  0
  1  2  1  0
  2  3  2  0
  3  4  1  0
  4  5  2  0
  5  6  1  0
  5  7  1  0
  7  8  1  0
  8  9  2  0
  8 10  2  0
  8 11  1  0
 11 12  1  0
 12 13  2  0
 13 14  1  0
 14 15  2  0
 15 16  1  0
 15 17  1  0
 17 18  1  0
 18 19  1  0
 19 20  1  0
 20 21  2  0
 21 22  1  0
 22 23  1  0
 17 24  2  0
  7 25  2  0
 25  2  1  0
 24 12  1  0
 23 19  2  0
  1 26  1  0
  1 27  1  0
  1 28  1  0
  3 29  1  0
  4 30  1  0
  6 31  1  0
  6 32  1  0
  6 33  1  0
 11 34  1  0
 13 35  1  0
 14 36  1  0
 16 37  1  0
 21 38  1  0
 22 39  1  0
 24 40  1  0
 25 41  1  0
M  END
$$$$
