
     RDKit          3D

 32 33  0  0  0  0  0  0  0  0999 V2000
    4.1072    1.8159   -0.8396 C   0  0  0  0  0  0  0  0  0  0  0  0
    4.4064    0.4231    0.2179 S   0  0  0  0  0  6  0  0  0  0  0  0
    5.6254   -0.2162   -0.2422 O   0  0  0  0  0  0  0  0  0  0  0  0
    4.2602    0.8416    1.5976 O   0  0  0  0  0  0  0  0  0  0  0  0
    3.0632   -0.6903   -0.1261 C   0  0  0  0  0  0  0  0  0  0  0  0
    3.3297   -1.9815   -0.5859 C   0  0  0  0  0  0  0  0  0  0  0  0
    2.2676   -2.8488   -0.8357 C   0  0  0  0  0  0  0  0  0  0  0  0
    0.9531   -2.4173   -0.6329 C   0  0  0  0  0  0  0  0  0  0  0  0
   -0.3308   -3.5323   -0.9608 Cl  0  0  0  0  0  0  0  0  0  0  0  0
    0.6781   -1.1110   -0.1813 C   0  0  0  0  0  0  0  0  0  0  0  0
   -0.6733   -0.7273   -0.0047 N   0  0  0  0  0  0  0  0  0  0  0  0
   -1.1582    0.5437    0.2360 C   0  0  0  0  0  0  0  0  0  0  0  0
   -0.5003    1.5773    0.2477 O   0  0  0  0  0  0  0  0  0  0  0  0
   -2.6325    0.6314    0.4362 C   0  0  0  0  0  0  0  0  0  0  0  0
   -3.3549   -0.3950    1.0620 C   0  0  0  0  0  0  0  0  0  0  0  0
   -4.7357   -0.2727    1.2332 C   0  0  0  0  0  0  0  0  0  0  0  0
   -5.3960    0.8737    0.7895 C   0  0  0  0  0  0  0  0  0  0  0  0
   -4.6721    1.9001    0.1835 C   0  0  0  0  0  0  0  0  0  0  0  0
   -5.5696    3.4563   -0.4052 Br  0  0  0  0  0  0  0  0  0  0  0  0
   -3.2942    1.7890    0.0085 C   0  0  0  0  0  0  0  0  0  0  0  0
    1.7496   -0.2560    0.0896 C   0  0  0  0  0  0  0  0  0  0  0  0
    4.9355    2.5171   -0.7147 H   0  0  0  0  0  0  0  0  0  0  0  0
    3.1724    2.2995   -0.5521 H   0  0  0  0  0  0  0  0  0  0  0  0
    4.0667    1.4733   -1.8753 H   0  0  0  0  0  0  0  0  0  0  0  0
    4.3521   -2.3225   -0.7389 H   0  0  0  0  0  0  0  0  0  0  0  0
    2.4698   -3.8584   -1.1858 H   0  0  0  0  0  0  0  0  0  0  0  0
   -1.3485   -1.4618   -0.1931 H   0  0  0  0  0  0  0  0  0  0  0  0
   -2.8570   -1.2808    1.4483 H   0  0  0  0  0  0  0  0  0  0  0  0
   -5.2971   -1.0657    1.7225 H   0  0  0  0  0  0  0  0  0  0  0  0
   -6.4708    0.9621    0.9293 H   0  0  0  0  0  0  0  0  0  0  0  0
   -2.7316    2.5945   -0.4588 H   0  0  0  0  0  0  0  0  0  0  0  0
    1.5855    0.7390    0.4930 H   0  0  0  0  0  0  0  0  0  0  0  0
  1  2  1  0
  2  3  2  0
  2  4  2  0
  2  5  1  0
  5  6  2  0
  6  7  1  0
  7  8  2  0
  8  9  1  0
  8 10  1  0
 10 11  1  0
 11 12  1  0
 12 13  2  0
 12 14  1  0
 14 15  2  0
 15 16  1  0
 16 17  2  0
 17 18  1  0
 18 19  1  0
 18 20  2  0
 10 21  2  0
 21  5  1  0
 20 14  1  0
  1 22  1  0
  1 23  1  0
  1 24  1  0
  6 25  1  0
  7 26  1  0
 11 27  1  0
 15 28  1  0
 16 29  1  0
 17 30  1  0
 20 31  1  0
 21 32  1  0
M  END
$$$$
