
     RDKit          3D

 36 38  0  0  0  0  0  0  0  0999 V2000
   -4.5697   -0.8147   -1.7492 C   0  0  0  0  0  0  0  0  0  0  0  0
   -3.5062   -0.4132   -0.8538 N   0  0  0  0  0  0  0  0  0  0  0  0
   -2.1699   -0.4535   -1.1601 C   0  0  0  0  0  0  0  0  0  0  0  0
   -1.4659    0.0037   -0.0667 C   0  0  0  0  0  0  0  0  0  0  0  0
   -0.0440    0.1295    0.0357 C   0  0  0  0  0  0  0  0  0  0  0  0
    0.8535   -0.2515   -0.8899 C   0  0  0  0  0  0  0  0  0  0  0  0
    2.3031   -0.1001   -0.7232 C   0  0  0  0  0  0  0  0  0  0  0  0
    2.8740    1.0728   -0.2312 C   0  0  0  0  0  0  0  0  0  0  0  0
    4.2561    1.1715   -0.1163 C   0  0  0  0  0  0  0  0  0  0  0  0
    5.0524    0.1416   -0.4796 N   0  0  0  0  0  4  0  0  0  0  0  0
    6.5141    0.2723   -0.3550 C   0  0  0  0  0  0  0  0  0  0  0  0
    4.5229   -0.9965   -0.9809 C   0  0  0  0  0  0  0  0  0  0  0  0
    3.1461   -1.1377   -1.1158 C   0  0  0  0  0  0  0  0  0  0  0  0
   -2.4199    0.3368    0.9467 C   0  0  0  0  0  0  0  0  0  0  0  0
   -2.3262    0.8433    2.2606 C   0  0  0  0  0  0  0  0  0  0  0  0
   -3.4936    1.0569    2.9918 C   0  0  0  0  0  0  0  0  0  0  0  0
   -3.3996    1.5385    4.2388 F   0  0  0  0  0  0  0  0  0  0  0  0
   -4.7453    0.7840    2.4619 C   0  0  0  0  0  0  0  0  0  0  0  0
   -4.8684    0.2812    1.1647 C   0  0  0  0  0  0  0  0  0  0  0  0
   -3.6915    0.0655    0.4262 C   0  0  0  0  0  0  0  0  0  0  0  0
   -5.1253   -1.6313   -1.2811 H   0  0  0  0  0  0  0  0  0  0  0  0
   -5.2186    0.0474   -1.9231 H   0  0  0  0  0  0  0  0  0  0  0  0
   -4.1427   -1.1534   -2.6966 H   0  0  0  0  0  0  0  0  0  0  0  0
   -1.8426   -0.8014   -2.1307 H   0  0  0  0  0  0  0  0  0  0  0  0
    0.3178    0.5642    0.9650 H   0  0  0  0  0  0  0  0  0  0  0  0
    0.5264   -0.7216   -1.8145 H   0  0  0  0  0  0  0  0  0  0  0  0
    2.2526    1.9199    0.0541 H   0  0  0  0  0  0  0  0  0  0  0  0
    4.7336    2.0720    0.2600 H   0  0  0  0  0  0  0  0  0  0  0  0
    6.7444    0.9285    0.4883 H   0  0  0  0  0  0  0  0  0  0  0  0
    6.8857    0.6957   -1.2914 H   0  0  0  0  0  0  0  0  0  0  0  0
    6.9481   -0.7145   -0.1739 H   0  0  0  0  0  0  0  0  0  0  0  0
    5.2081   -1.7873   -1.2733 H   0  0  0  0  0  0  0  0  0  0  0  0
    2.7381   -2.0636   -1.5181 H   0  0  0  0  0  0  0  0  0  0  0  0
   -1.3690    1.0691    2.7158 H   0  0  0  0  0  0  0  0  0  0  0  0
   -5.6301    0.9645    3.0654 H   0  0  0  0  0  0  0  0  0  0  0  0
   -5.8484    0.0670    0.7494 H   0  0  0  0  0  0  0  0  0  0  0  0
  1  2  1  0
  2  3  1  0
  3  4  2  0
  4  5  1  0
  5  6  2  3
  6  7  1  0
  7  8  2  0
  8  9  1  0
  9 10  2  0
 10 11  1  0
 10 12  1  0
 12 13  2  0
  4 14  1  0
 14 15  2  0
 15 16  1  0
 16 17  1  0
 16 18  2  0
 18 19  1  0
 19 20  2  0
 20  2  1  0
 13  7  1  0
 20 14  1  0
  1 21  1  0
  1 22  1  0
  1 23  1  0
  3 24  1  0
  5 25  1  0
  6 26  1  0
  8 27  1  0
  9 28  1  0
 11 29  1  0
 11 30  1  0
 11 31  1  0
 12 32  1  0
 13 33  1  0
 15 34  1  0
 18 35  1  0
 19 36  1  0
M  CHG  1  10   1
M  END
$$$$
