
     RDKit          3D

 31 32  0  0  0  0  0  0  0  0999 V2000
   -2.9168    0.0195    2.2444 C   0  0  0  0  0  0  0  0  0  0  0  0
   -2.6807    0.6757    0.8915 C   0  0  0  0  0  0  0  0  0  0  0  0
   -1.7189   -0.0959    0.0917 N   0  0  0  0  0  0  0  0  0  0  0  0
   -2.3034   -1.1030   -0.8061 C   0  0  0  0  0  0  0  0  0  0  0  0
   -2.5584   -0.5203   -2.1888 C   0  0  0  0  0  0  0  0  0  0  0  0
   -0.3478    0.1138    0.1749 C   0  0  0  0  0  0  0  0  0  0  0  0
    0.2261    0.9841    1.1173 C   0  0  0  0  0  0  0  0  0  0  0  0
    1.6140    1.2039    1.2107 C   0  0  0  0  0  0  0  0  0  0  0  0
    2.5041    0.5560    0.3544 C   0  0  0  0  0  0  0  0  0  0  0  0
    3.9632    0.7162    0.3695 C   0  0  0  0  0  0  0  0  0  0  0  0
    4.6447    1.7988    1.5488 Cl  0  0  0  0  0  0  0  0  0  0  0  0
    4.7386    0.0458   -0.5015 C   0  0  0  0  0  0  0  0  0  0  0  0
    6.6172    0.1867   -0.5582 Br  0  0  0  0  0  0  0  0  0  0  0  0
    4.1349   -0.8755   -1.5024 C   0  0  0  0  0  0  0  0  0  0  0  0
    4.8039   -1.5059   -2.3151 O   0  0  0  0  0  0  0  0  0  0  0  0
    2.7534   -1.0044   -1.4891 O   0  0  0  0  0  0  0  0  0  0  0  0
    1.9462   -0.3034   -0.5774 C   0  0  0  0  0  0  0  0  0  0  0  0
    0.5649   -0.5269   -0.6742 C   0  0  0  0  0  0  0  0  0  0  0  0
   -1.9963   -0.0403    2.8328 H   0  0  0  0  0  0  0  0  0  0  0  0
   -3.3008   -0.9991    2.1256 H   0  0  0  0  0  0  0  0  0  0  0  0
   -3.6502    0.5933    2.8195 H   0  0  0  0  0  0  0  0  0  0  0  0
   -3.6406    0.7311    0.3620 H   0  0  0  0  0  0  0  0  0  0  0  0
   -2.3677    1.7190    1.0104 H   0  0  0  0  0  0  0  0  0  0  0  0
   -3.2599   -1.4518   -0.3960 H   0  0  0  0  0  0  0  0  0  0  0  0
   -1.6820   -2.0034   -0.8679 H   0  0  0  0  0  0  0  0  0  0  0  0
   -3.2393    0.3356   -2.1354 H   0  0  0  0  0  0  0  0  0  0  0  0
   -3.0128   -1.2748   -2.8385 H   0  0  0  0  0  0  0  0  0  0  0  0
   -1.6332   -0.1782   -2.6623 H   0  0  0  0  0  0  0  0  0  0  0  0
   -0.3938    1.5212    1.8298 H   0  0  0  0  0  0  0  0  0  0  0  0
    1.9607    1.8947    1.9758 H   0  0  0  0  0  0  0  0  0  0  0  0
    0.2306   -1.2124   -1.4461 H   0  0  0  0  0  0  0  0  0  0  0  0
  1  2  1  0
  2  3  1  0
  3  4  1  0
  4  5  1  0
  3  6  1  0
  6  7  2  0
  7  8  1  0
  8  9  2  0
  9 10  1  0
 10 11  1  0
 10 12  2  0
 12 13  1  0
 12 14  1  0
 14 15  2  0
 14 16  1  0
 16 17  1  0
 17 18  2  0
 18  6  1  0
 17  9  1  0
  1 19  1  0
  1 20  1  0
  1 21  1  0
  2 22  1  0
  2 23  1  0
  4 24  1  0
  4 25  1  0
  5 26  1  0
  5 27  1  0
  5 28  1  0
  7 29  1  0
  8 30  1  0
 18 31  1  0
M  END
$$$$
