
     RDKit          3D

 46 48  0  0  0  0  0  0  0  0999 V2000
    4.5886   -0.9293   -2.0222 C   0  0  0  0  0  0  0  0  0  0  0  0
    3.5566   -0.2346   -1.1479 C   0  0  0  0  0  0  0  0  0  0  0  0
    2.1812   -0.0121   -1.8302 N   0  0  0  0  0  4  0  0  0  0  0  0
    2.3289    0.8977   -3.0430 C   0  0  0  0  0  0  0  0  0  0  0  0
    1.5801   -1.3520   -2.2527 C   0  0  0  0  0  0  0  0  0  0  0  0
    1.2788    0.6558   -0.7496 C   0  0  0  0  0  0  0  0  0  0  0  0
   -0.0980    1.1177   -1.2555 C   0  0  0  0  0  0  0  0  0  0  0  0
   -1.0008    1.5187   -0.1162 C   0  0  0  0  0  0  0  0  0  0  0  0
   -1.6693    0.7223    0.7509 C   0  0  0  0  0  0  0  0  0  0  0  0
   -2.2950    1.3768    1.9321 C   0  0  0  0  0  0  0  0  0  0  0  0
   -3.1593    2.4746    1.8075 C   0  0  0  0  0  0  0  0  0  0  0  0
   -3.7235    3.0590    2.9428 C   0  0  0  0  0  0  0  0  0  0  0  0
   -3.4357    2.5503    4.2079 C   0  0  0  0  0  0  0  0  0  0  0  0
   -2.5909    1.4478    4.3437 C   0  0  0  0  0  0  0  0  0  0  0  0
   -2.0262    0.8492    3.2118 C   0  0  0  0  0  0  0  0  0  0  0  0
   -0.9581   -0.5774    3.4375 S   0  0  0  0  0  0  0  0  0  0  0  0
   -1.2318   -1.4454    1.8935 C   0  0  0  0  0  0  0  0  0  0  0  0
   -1.1061   -2.8404    1.8808 C   0  0  0  0  0  0  0  0  0  0  0  0
   -1.3481   -3.5582    0.7082 C   0  0  0  0  0  0  0  0  0  0  0  0
   -1.7397   -2.8830   -0.4441 C   0  0  0  0  0  0  0  0  0  0  0  0
   -2.0277   -3.7589   -1.8951 Cl  0  0  0  0  0  0  0  0  0  0  0  0
   -1.8752   -1.4951   -0.4434 C   0  0  0  0  0  0  0  0  0  0  0  0
   -1.5765   -0.7597    0.7108 C   0  0  0  0  0  0  0  0  0  0  0  0
    5.5255   -1.0295   -1.4630 H   0  0  0  0  0  0  0  0  0  0  0  0
    4.8175   -0.3618   -2.9276 H   0  0  0  0  0  0  0  0  0  0  0  0
    4.2796   -1.9387   -2.3059 H   0  0  0  0  0  0  0  0  0  0  0  0
    3.9264    0.7527   -0.8478 H   0  0  0  0  0  0  0  0  0  0  0  0
    3.3722   -0.8289   -0.2453 H   0  0  0  0  0  0  0  0  0  0  0  0
    2.7539    1.8492   -2.7121 H   0  0  0  0  0  0  0  0  0  0  0  0
    2.9792    0.4137   -3.7752 H   0  0  0  0  0  0  0  0  0  0  0  0
    1.3450    1.0473   -3.4949 H   0  0  0  0  0  0  0  0  0  0  0  0
    0.5918   -1.1813   -2.6834 H   0  0  0  0  0  0  0  0  0  0  0  0
    1.5136   -1.9957   -1.3713 H   0  0  0  0  0  0  0  0  0  0  0  0
    2.2195   -1.8016   -3.0161 H   0  0  0  0  0  0  0  0  0  0  0  0
    1.8354    1.5203   -0.3662 H   0  0  0  0  0  0  0  0  0  0  0  0
    1.1872   -0.0766    0.0607 H   0  0  0  0  0  0  0  0  0  0  0  0
    0.0282    1.9993   -1.8963 H   0  0  0  0  0  0  0  0  0  0  0  0
   -0.5871    0.3747   -1.8852 H   0  0  0  0  0  0  0  0  0  0  0  0
   -1.0387    2.5992    0.0401 H   0  0  0  0  0  0  0  0  0  0  0  0
   -3.4122    2.8768    0.8295 H   0  0  0  0  0  0  0  0  0  0  0  0
   -4.3945    3.9094    2.8414 H   0  0  0  0  0  0  0  0  0  0  0  0
   -3.8782    3.0066    5.0909 H   0  0  0  0  0  0  0  0  0  0  0  0
   -2.3868    1.0567    5.3382 H   0  0  0  0  0  0  0  0  0  0  0  0
   -0.8374   -3.3794    2.7879 H   0  0  0  0  0  0  0  0  0  0  0  0
   -1.2545   -4.6420    0.7112 H   0  0  0  0  0  0  0  0  0  0  0  0
   -2.2377   -0.9943   -1.3373 H   0  0  0  0  0  0  0  0  0  0  0  0
  1  2  1  0
  2  3  1  0
  3  4  1  0
  3  5  1  0
  3  6  1  0
  6  7  1  0
  7  8  1  0
  8  9  2  3
  9 10  1  0
 10 11  2  0
 11 12  1  0
 12 13  2  0
 13 14  1  0
 14 15  2  0
 15 16  1  0
 16 17  1  0
 17 18  2  0
 18 19  1  0
 19 20  2  0
 20 21  1  0
 20 22  1  0
 22 23  2  0
 23  9  1  0
 15 10  1  0
 23 17  1  0
  1 24  1  0
  1 25  1  0
  1 26  1  0
  2 27  1  0
  2 28  1  0
  4 29  1  0
  4 30  1  0
  4 31  1  0
  5 32  1  0
  5 33  1  0
  5 34  1  0
  6 35  1  0
  6 36  1  0
  7 37  1  0
  7 38  1  0
  8 39  1  0
 11 40  1  0
 12 41  1  0
 13 42  1  0
 14 43  1  0
 18 44  1  0
 19 45  1  0
 22 46  1  0
M  CHG  1   3   1
M  END
$$$$
