
     RDKit          3D

 41 43  0  0  0  0  0  0  0  0999 V2000
   -4.0690    0.4843    2.8743 C   0  0  0  0  0  0  0  0  0  0  0  0
   -3.7495   -0.3152    1.6460 C   0  0  0  0  0  0  0  0  0  0  0  0
   -4.2126   -1.6254    1.5092 C   0  0  0  0  0  0  0  0  0  0  0  0
   -3.9417   -2.3577    0.3500 C   0  0  0  0  0  0  0  0  0  0  0  0
   -3.2004   -1.8018   -0.7058 C   0  0  0  0  0  0  0  0  0  0  0  0
   -2.9624   -2.6409   -1.9294 C   0  0  0  0  0  0  0  0  0  0  0  0
   -2.7523   -0.4741   -0.5722 C   0  0  0  0  0  0  0  0  0  0  0  0
   -1.8279    0.3502   -1.8577 S   0  0  0  0  0  6  0  0  0  0  0  0
   -2.4136   -0.0058   -3.1331 O   0  0  0  0  0  0  0  0  0  0  0  0
   -1.6522    1.7419   -1.4989 O   0  0  0  0  0  0  0  0  0  0  0  0
   -0.3195   -0.4203   -1.7968 N   0  0  0  0  0  0  0  0  0  0  0  0
    0.5889   -0.0176   -0.7792 C   0  0  0  0  0  0  0  0  0  0  0  0
    0.5220   -0.6116    0.4786 C   0  0  0  0  0  0  0  0  0  0  0  0
    1.3822   -0.1865    1.4889 C   0  0  0  0  0  0  0  0  0  0  0  0
    2.3048    0.8287    1.2379 C   0  0  0  0  0  0  0  0  0  0  0  0
    3.1114    1.1693    2.2888 O   0  0  0  0  0  0  0  0  0  0  0  0
    2.3722    1.4477   -0.0192 C   0  0  0  0  0  0  0  0  0  0  0  0
    3.4440    2.8262   -0.3979 S   0  0  0  0  0  0  0  0  0  0  0  0
    5.0240    2.1213   -0.2287 C   0  0  0  0  0  0  0  0  0  0  0  0
    5.4745    1.6165    0.9648 N   0  0  0  0  0  0  0  0  0  0  0  0
    6.6911    1.2185    0.6716 C   0  0  0  0  0  0  0  0  0  0  0  0
    6.9535    1.4832   -0.6359 N   0  0  0  0  0  0  0  0  0  0  0  0
    5.9018    2.0651   -1.2328 N   0  0  0  0  0  0  0  0  0  0  0  0
    1.4955    1.0157   -1.0257 C   0  0  0  0  0  0  0  0  0  0  0  0
   -3.0340    0.2621    0.5918 C   0  0  0  0  0  0  0  0  0  0  0  0
   -4.1782   -0.1670    3.7478 H   0  0  0  0  0  0  0  0  0  0  0  0
   -3.2651    1.1937    3.0973 H   0  0  0  0  0  0  0  0  0  0  0  0
   -5.0012    1.0386    2.7280 H   0  0  0  0  0  0  0  0  0  0  0  0
   -4.7939   -2.0877    2.3046 H   0  0  0  0  0  0  0  0  0  0  0  0
   -4.3227   -3.3752    0.2769 H   0  0  0  0  0  0  0  0  0  0  0  0
   -3.1910   -3.6952   -1.7365 H   0  0  0  0  0  0  0  0  0  0  0  0
   -1.9146   -2.6055   -2.2389 H   0  0  0  0  0  0  0  0  0  0  0  0
   -3.6065   -2.3094   -2.7491 H   0  0  0  0  0  0  0  0  0  0  0  0
    0.0515   -0.5385   -2.7390 H   0  0  0  0  0  0  0  0  0  0  0  0
   -0.1869   -1.4094    0.6819 H   0  0  0  0  0  0  0  0  0  0  0  0
    1.3385   -0.6464    2.4727 H   0  0  0  0  0  0  0  0  0  0  0  0
    3.9267    1.5770    1.9278 H   0  0  0  0  0  0  0  0  0  0  0  0
    7.4022    0.7521    1.3389 H   0  0  0  0  0  0  0  0  0  0  0  0
    7.7963    1.3055   -1.1715 H   0  0  0  0  0  0  0  0  0  0  0  0
    1.5036    1.5019   -1.9985 H   0  0  0  0  0  0  0  0  0  0  0  0
   -2.6899    1.2918    0.6838 H   0  0  0  0  0  0  0  0  0  0  0  0
  1  2  1  0
  2  3  2  0
  3  4  1  0
  4  5  2  0
  5  6  1  0
  5  7  1  0
  7  8  1  0
  8  9  2  0
  8 10  2  0
  8 11  1  0
 11 12  1  0
 12 13  2  0
 13 14  1  0
 14 15  2  0
 15 16  1  0
 15 17  1  0
 17 18  1  0
 18 19  1  0
 19 20  1  0
 20 21  2  0
 21 22  1  0
 22 23  1  0
 17 24  2  0
  7 25  2  0
 25  2  1  0
 24 12  1  0
 23 19  2  0
  1 26  1  0
  1 27  1  0
  1 28  1  0
  3 29  1  0
  4 30  1  0
  6 31  1  0
  6 32  1  0
  6 33  1  0
 11 34  1  0
 13 35  1  0
 14 36  1  0
 16 37  1  0
 21 38  1  0
 22 39  1  0
 24 40  1  0
 25 41  1  0
M  END
$$$$
