
     RDKit          3D

 35 37  0  0  0  0  0  0  0  0999 V2000
   -2.6727    1.2406   -1.2526 C   0  0  0  0  0  0  0  0  0  0  0  0
   -3.7168    0.5154   -0.4493 C   0  0  0  0  0  0  0  0  0  0  0  0
   -5.0759    0.7474   -0.7101 C   0  0  0  0  0  0  0  0  0  0  0  0
   -6.0603    0.0865    0.0220 C   0  0  0  0  0  0  0  0  0  0  0  0
   -5.6957   -0.8113    1.0204 C   0  0  0  0  0  0  0  0  0  0  0  0
   -4.3461   -1.0516    1.2904 C   0  0  0  0  0  0  0  0  0  0  0  0
   -3.3509   -0.3932    0.5612 C   0  0  0  0  0  0  0  0  0  0  0  0
   -2.0035   -0.5587    0.7480 O   0  0  0  0  0  0  0  0  0  0  0  0
   -1.5891   -1.4715    1.7632 C   0  0  0  0  0  0  0  0  0  0  0  0
   -0.0622   -1.5375    1.8400 C   0  0  0  0  0  0  0  0  0  0  0  0
    0.4911   -2.2696    2.6547 O   0  0  0  0  0  0  0  0  0  0  0  0
    0.5521   -0.7136    0.9259 N   0  0  0  0  0  0  0  0  0  0  0  0
    1.9075   -0.6110    0.8149 C   0  0  0  0  0  0  0  0  0  0  0  0
    2.8624   -1.2096    1.4822 N   0  0  0  0  0  0  0  0  0  0  0  0
    4.1148   -0.8132    1.0446 N   0  0  0  0  0  0  0  0  0  0  0  0
    4.0409    0.0673    0.0661 C   0  0  0  0  0  0  0  0  0  0  0  0
    5.1970    0.6360   -0.5633 C   0  0  0  0  0  0  0  0  0  0  0  0
    6.5328    0.3870   -0.2836 C   0  0  0  0  0  0  0  0  0  0  0  0
    7.3064    1.1808   -1.1638 C   0  0  0  0  0  0  0  0  0  0  0  0
    6.4070    1.8733   -1.9353 C   0  0  0  0  0  0  0  0  0  0  0  0
    5.1360    1.5552   -1.5847 O   0  0  0  0  0  0  0  0  0  0  0  0
    2.4355    0.4750   -0.3905 S   0  0  0  0  0  0  0  0  0  0  0  0
   -2.0435    0.5240   -1.7906 H   0  0  0  0  0  0  0  0  0  0  0  0
   -3.1254    1.9071   -1.9942 H   0  0  0  0  0  0  0  0  0  0  0  0
   -2.0462    1.8522   -0.5952 H   0  0  0  0  0  0  0  0  0  0  0  0
   -5.3763    1.4465   -1.4875 H   0  0  0  0  0  0  0  0  0  0  0  0
   -7.1108    0.2724   -0.1868 H   0  0  0  0  0  0  0  0  0  0  0  0
   -6.4634   -1.3272    1.5919 H   0  0  0  0  0  0  0  0  0  0  0  0
   -4.1116   -1.7601    2.0782 H   0  0  0  0  0  0  0  0  0  0  0  0
   -1.9467   -1.1359    2.7433 H   0  0  0  0  0  0  0  0  0  0  0  0
   -1.9440   -2.4822    1.5316 H   0  0  0  0  0  0  0  0  0  0  0  0
   -0.0268   -0.1589    0.3083 H   0  0  0  0  0  0  0  0  0  0  0  0
    6.8954   -0.2949    0.4749 H   0  0  0  0  0  0  0  0  0  0  0  0
    8.3840    1.2394   -1.2266 H   0  0  0  0  0  0  0  0  0  0  0  0
    6.5050    2.5939   -2.7357 H   0  0  0  0  0  0  0  0  0  0  0  0
  1  2  1  0
  2  3  2  0
  3  4  1  0
  4  5  2  0
  5  6  1  0
  6  7  2  0
  7  8  1  0
  8  9  1  0
  9 10  1  0
 10 11  2  0
 10 12  1  0
 12 13  1  0
 13 14  2  0
 14 15  1  0
 15 16  2  0
 16 17  1  0
 17 18  2  0
 18 19  1  0
 19 20  2  0
 20 21  1  0
 16 22  1  0
  7  2  1  0
 22 13  1  0
 21 17  1  0
  1 23  1  0
  1 24  1  0
  1 25  1  0
  3 26  1  0
  4 27  1  0
  5 28  1  0
  6 29  1  0
  9 30  1  0
  9 31  1  0
 12 32  1  0
 18 33  1  0
 19 34  1  0
 20 35  1  0
M  END
$$$$
