
     RDKit          3D

 61 66  0  0  0  0  0  0  0  0999 V2000
    6.1587    3.3085    1.7449 F   0  0  0  0  0  0  0  0  0  0  0  0
    4.8366    3.3946    1.4273 C   0  0  0  0  0  0  0  0  0  0  0  0
    4.1600    2.9652    2.5284 F   0  0  0  0  0  0  0  0  0  0  0  0
    4.5657    4.7258    1.3187 F   0  0  0  0  0  0  0  0  0  0  0  0
    4.4891    2.6030    0.1909 C   0  0  0  0  0  0  0  0  0  0  0  0
    3.9538    3.2258   -0.9436 C   0  0  0  0  0  0  0  0  0  0  0  0
    3.6498    2.4791   -2.0809 C   0  0  0  0  0  0  0  0  0  0  0  0
    3.8708    1.1014   -2.0942 C   0  0  0  0  0  0  0  0  0  0  0  0
    4.3899    0.4476   -0.9685 C   0  0  0  0  0  0  0  0  0  0  0  0
    4.6205   -1.0508   -0.9747 C   0  0  0  0  0  0  0  0  0  0  0  0
    3.4973   -1.8940   -0.5606 N   0  0  0  0  0  0  0  0  0  0  0  0
    2.3118   -1.8495   -1.4268 C   0  0  0  0  0  0  0  0  0  0  0  0
    1.0985   -1.0940   -0.8401 C   0  0  0  0  0  0  0  0  0  0  0  0
    0.7112   -1.6046    0.4847 N   0  0  0  0  0  0  0  0  0  0  0  0
   -0.6226   -1.7835    0.8385 C   0  0  0  0  0  0  0  0  0  0  0  0
   -0.9277   -2.8207    1.5804 N   0  0  0  0  0  0  0  0  0  0  0  0
   -2.2622   -3.0882    1.9379 C   0  0  0  0  0  0  0  0  0  0  0  0
   -2.5261   -4.2135    2.7216 C   0  0  0  0  0  0  0  0  0  0  0  0
   -3.8338   -4.5332    3.0945 C   0  0  0  0  0  0  0  0  0  0  0  0
   -4.8953   -3.7277    2.6825 C   0  0  0  0  0  0  0  0  0  0  0  0
   -4.6549   -2.5993    1.8978 C   0  0  0  0  0  0  0  0  0  0  0  0
   -3.3406   -2.2910    1.5344 C   0  0  0  0  0  0  0  0  0  0  0  0
   -3.0067   -1.1651    0.7649 N   0  0  0  0  0  0  0  0  0  0  0  0
   -3.8280   -0.1933    0.2444 C   0  0  0  0  0  0  0  0  0  0  0  0
   -3.0423    0.7634   -0.3685 C   0  0  0  0  0  0  0  0  0  0  0  0
   -3.5652    1.9649   -1.0003 C   0  0  0  0  0  0  0  0  0  0  0  0
   -4.7573    1.9328   -1.7373 C   0  0  0  0  0  0  0  0  0  0  0  0
   -5.2429    3.0900   -2.3525 C   0  0  0  0  0  0  0  0  0  0  0  0
   -4.5416    4.2892   -2.2368 C   0  0  0  0  0  0  0  0  0  0  0  0
   -3.3551    4.3337   -1.5065 C   0  0  0  0  0  0  0  0  0  0  0  0
   -2.8680    3.1763   -0.8922 C   0  0  0  0  0  0  0  0  0  0  0  0
   -1.6957    0.3382   -0.2113 C   0  0  0  0  0  0  0  0  0  0  0  0
   -1.6975   -0.8829    0.4407 C   0  0  0  0  0  0  0  0  0  0  0  0
    1.7544   -2.3752    1.1864 C   0  0  0  0  0  0  0  0  0  0  0  0
    3.1534   -1.8074    0.8685 C   0  0  0  0  0  0  0  0  0  0  0  0
    4.7059    1.2145    0.1646 C   0  0  0  0  0  0  0  0  0  0  0  0
    3.7755    4.2997   -0.9491 H   0  0  0  0  0  0  0  0  0  0  0  0
    3.2432    2.9716   -2.9610 H   0  0  0  0  0  0  0  0  0  0  0  0
    3.6412    0.5411   -2.9978 H   0  0  0  0  0  0  0  0  0  0  0  0
    4.9405   -1.3502   -1.9813 H   0  0  0  0  0  0  0  0  0  0  0  0
    5.4894   -1.2784   -0.3420 H   0  0  0  0  0  0  0  0  0  0  0  0
    2.0051   -2.8908   -1.5965 H   0  0  0  0  0  0  0  0  0  0  0  0
    2.5480   -1.4618   -2.4241 H   0  0  0  0  0  0  0  0  0  0  0  0
    0.2729   -1.2025   -1.5518 H   0  0  0  0  0  0  0  0  0  0  0  0
    1.3332   -0.0284   -0.7526 H   0  0  0  0  0  0  0  0  0  0  0  0
   -1.7015   -4.8444    3.0414 H   0  0  0  0  0  0  0  0  0  0  0  0
   -4.0212   -5.4120    3.7062 H   0  0  0  0  0  0  0  0  0  0  0  0
   -5.9113   -3.9787    2.9761 H   0  0  0  0  0  0  0  0  0  0  0  0
   -5.4964   -1.9863    1.5934 H   0  0  0  0  0  0  0  0  0  0  0  0
   -4.8994   -0.2352    0.3730 H   0  0  0  0  0  0  0  0  0  0  0  0
   -5.3127    1.0048   -1.8520 H   0  0  0  0  0  0  0  0  0  0  0  0
   -6.1669    3.0526   -2.9246 H   0  0  0  0  0  0  0  0  0  0  0  0
   -4.9201    5.1888   -2.7155 H   0  0  0  0  0  0  0  0  0  0  0  0
   -2.8086    5.2689   -1.4134 H   0  0  0  0  0  0  0  0  0  0  0  0
   -1.9461    3.2335   -0.3179 H   0  0  0  0  0  0  0  0  0  0  0  0
   -0.8200    0.8698   -0.5554 H   0  0  0  0  0  0  0  0  0  0  0  0
    1.7005   -3.4315    0.8970 H   0  0  0  0  0  0  0  0  0  0  0  0
    1.5963   -2.3142    2.2689 H   0  0  0  0  0  0  0  0  0  0  0  0
    3.9051   -2.3546    1.4492 H   0  0  0  0  0  0  0  0  0  0  0  0
    3.1629   -0.7686    1.2164 H   0  0  0  0  0  0  0  0  0  0  0  0
    5.1261    0.7264    1.0435 H   0  0  0  0  0  0  0  0  0  0  0  0
  1  2  1  0
  2  3  1  0
  2  4  1  0
  2  5  1  0
  5  6  2  0
  6  7  1  0
  7  8  2  0
  8  9  1  0
  9 10  1  0
 10 11  1  0
 11 12  1  0
 12 13  1  0
 13 14  1  0
 14 15  1  0
 15 16  2  0
 16 17  1  0
 17 18  2  0
 18 19  1  0
 19 20  2  0
 20 21  1  0
 21 22  2  0
 22 23  1  0
 23 24  1  0
 24 25  2  0
 25 26  1  0
 26 27  2  0
 27 28  1  0
 28 29  2  0
 29 30  1  0
 30 31  2  0
 25 32  1  0
 32 33  2  0
 14 34  1  0
 34 35  1  0
  9 36  2  0
 36  5  1  0
 35 11  1  0
 33 15  1  0
 22 17  1  0
 33 23  1  0
 31 26  1  0
  6 37  1  0
  7 38  1  0
  8 39  1  0
 10 40  1  0
 10 41  1  0
 12 42  1  0
 12 43  1  0
 13 44  1  0
 13 45  1  0
 18 46  1  0
 19 47  1  0
 20 48  1  0
 21 49  1  0
 24 50  1  0
 27 51  1  0
 28 52  1  0
 29 53  1  0
 30 54  1  0
 31 55  1  0
 32 56  1  0
 34 57  1  0
 34 58  1  0
 35 59  1  0
 35 60  1  0
 36 61  1  0
M  END
$$$$
