
     RDKit          3D

 42 44  0  0  0  0  0  0  0  0999 V2000
   -0.7729   -3.1872   -0.6800 C   0  0  0  0  0  0  0  0  0  0  0  0
   -0.8944   -1.7383   -0.3331 C   0  0  0  0  0  0  0  0  0  0  0  0
    0.0744   -0.8794    0.0264 C   0  0  0  0  0  0  0  0  0  0  0  0
    1.4384   -0.9483    0.1342 N   0  0  0  0  0  0  0  0  0  0  0  0
    2.2989   -1.8521   -0.4541 C   0  0  0  0  0  0  0  0  0  0  0  0
    1.9770   -2.7384   -1.2417 O   0  0  0  0  0  0  0  0  0  0  0  0
    3.7441   -1.6727   -0.0504 C   0  0  0  0  0  0  0  0  0  0  0  0
    4.2766   -0.4297   -0.5698 N   0  0  0  0  0  0  0  0  0  0  0  0
    4.9708   -0.2502   -1.7326 C   0  0  0  0  0  0  0  0  0  0  0  0
    5.2681    1.0923   -1.7988 C   0  0  0  0  0  0  0  0  0  0  0  0
    4.7123    1.6410   -0.6211 C   0  0  0  0  0  0  0  0  0  0  0  0
    4.7414    3.0219   -0.1704 N   0  0  0  0  0  4  0  0  0  0  0  0
    4.2796    3.2912    0.9472 O   0  0  0  0  0  0  0  0  0  0  0  0
    5.2512    3.8389   -0.9529 O   0  0  0  0  0  1  0  0  0  0  0  0
    4.0937    0.7096    0.1298 N   0  0  0  0  0  0  0  0  0  0  0  0
   -0.6298    0.3897    0.4003 C   0  0  0  0  0  0  0  0  0  0  0  0
   -0.0263    1.3605    0.8333 O   0  0  0  0  0  0  0  0  0  0  0  0
   -1.9939    0.1640    0.2062 N   0  0  0  0  0  0  0  0  0  0  0  0
   -3.0475    0.8684    0.8447 C   0  0  0  0  0  0  0  0  0  0  0  0
   -2.8814    2.2015    1.2446 C   0  0  0  0  0  0  0  0  0  0  0  0
   -3.9184    2.9012    1.8711 C   0  0  0  0  0  0  0  0  0  0  0  0
   -5.1381    2.2762    2.1124 C   0  0  0  0  0  0  0  0  0  0  0  0
   -5.3201    0.9506    1.7312 C   0  0  0  0  0  0  0  0  0  0  0  0
   -4.2824    0.2535    1.1039 C   0  0  0  0  0  0  0  0  0  0  0  0
   -2.1772   -1.1542   -0.3045 N   0  0  0  0  0  0  0  0  0  0  0  0
   -2.9574   -1.1904   -1.5568 C   0  0  0  0  0  0  0  0  0  0  0  0
   -1.6913   -3.7239   -0.4158 H   0  0  0  0  0  0  0  0  0  0  0  0
   -0.6043   -3.3168   -1.7531 H   0  0  0  0  0  0  0  0  0  0  0  0
    0.0293   -3.6730   -0.1178 H   0  0  0  0  0  0  0  0  0  0  0  0
    1.8597   -0.1061    0.5401 H   0  0  0  0  0  0  0  0  0  0  0  0
    3.8389   -1.6681    1.0404 H   0  0  0  0  0  0  0  0  0  0  0  0
    4.3471   -2.4967   -0.4454 H   0  0  0  0  0  0  0  0  0  0  0  0
    5.1869   -1.0719   -2.4035 H   0  0  0  0  0  0  0  0  0  0  0  0
    5.8111    1.6081   -2.5792 H   0  0  0  0  0  0  0  0  0  0  0  0
   -1.9491    2.7305    1.0634 H   0  0  0  0  0  0  0  0  0  0  0  0
   -3.7670    3.9355    2.1697 H   0  0  0  0  0  0  0  0  0  0  0  0
   -5.9416    2.8195    2.6026 H   0  0  0  0  0  0  0  0  0  0  0  0
   -6.2654    0.4523    1.9296 H   0  0  0  0  0  0  0  0  0  0  0  0
   -4.4460   -0.7906    0.8518 H   0  0  0  0  0  0  0  0  0  0  0  0
   -3.9206   -0.6827   -1.4539 H   0  0  0  0  0  0  0  0  0  0  0  0
   -2.4058   -0.7096   -2.3730 H   0  0  0  0  0  0  0  0  0  0  0  0
   -3.1687   -2.2262   -1.8424 H   0  0  0  0  0  0  0  0  0  0  0  0
  1  2  1  0
  2  3  2  0
  3  4  1  0
  4  5  1  0
  5  6  2  0
  5  7  1  0
  7  8  1  0
  8  9  1  0
  9 10  2  0
 10 11  1  0
 11 12  1  0
 12 13  2  0
 12 14  1  0
 11 15  2  0
  3 16  1  0
 16 17  2  0
 16 18  1  0
 18 19  1  0
 19 20  2  0
 20 21  1  0
 21 22  2  0
 22 23  1  0
 23 24  2  0
 18 25  1  0
 25 26  1  0
 25  2  1  0
 15  8  1  0
 24 19  1  0
  1 27  1  0
  1 28  1  0
  1 29  1  0
  4 30  1  0
  7 31  1  0
  7 32  1  0
  9 33  1  0
 10 34  1  0
 20 35  1  0
 21 36  1  0
 22 37  1  0
 23 38  1  0
 24 39  1  0
 26 40  1  0
 26 41  1  0
 26 42  1  0
M  CHG  2  12   1  14  -1
M  END
$$$$
