
     RDKit          3D

 57 60  0  0  0  0  0  0  0  0999 V2000
   10.4919   -0.3091    0.1865 C   0  0  0  0  0  0  0  0  0  0  0  0
    9.1234    0.3029   -0.0536 C   0  0  0  0  0  0  0  0  0  0  0  0
    8.1642   -0.4737    0.6612 O   0  0  0  0  0  0  0  0  0  0  0  0
    6.8638   -0.0551    0.6108 C   0  0  0  0  0  0  0  0  0  0  0  0
    6.3733    1.0225   -0.1233 C   0  0  0  0  0  0  0  0  0  0  0  0
    5.0085    1.3454   -0.0852 C   0  0  0  0  0  0  0  0  0  0  0  0
    4.1203    0.5951    0.6848 C   0  0  0  0  0  0  0  0  0  0  0  0
    2.7402    0.8579    0.7816 N   0  0  0  0  0  0  0  0  0  0  0  0
    2.0087    1.8264    0.1090 C   0  0  0  0  0  0  0  0  0  0  0  0
    2.4448    2.6285   -0.7125 O   0  0  0  0  0  0  0  0  0  0  0  0
    0.5443    1.8494    0.5188 C   0  0  0  0  0  0  0  0  0  0  0  0
   -0.2673    0.3032    0.0116 S   0  0  0  0  0  0  0  0  0  0  0  0
   -1.8694    0.5791    0.6192 C   0  0  0  0  0  0  0  0  0  0  0  0
   -2.1809    1.5522    1.4438 N   0  0  0  0  0  0  0  0  0  0  0  0
   -3.4837    1.3882    1.8146 N   0  0  0  0  0  0  0  0  0  0  0  0
   -3.9606    0.3212    1.1992 C   0  0  0  0  0  0  0  0  0  0  0  0
   -5.4050   -0.0627    1.1983 C   0  0  0  0  0  0  0  0  0  0  0  0
   -6.0687    0.1684   -0.1278 C   0  0  0  0  0  0  0  0  0  0  0  0
   -6.5650   -0.7591   -1.0288 C   0  0  0  0  0  0  0  0  0  0  0  0
   -7.0840   -0.0559   -2.1382 C   0  0  0  0  0  0  0  0  0  0  0  0
   -6.9053    1.2845   -1.8898 C   0  0  0  0  0  0  0  0  0  0  0  0
   -6.3013    1.4181   -0.6653 N   0  0  0  0  0  0  0  0  0  0  0  0
   -5.9710    2.6944   -0.0637 C   0  0  0  0  0  0  0  0  0  0  0  0
   -2.9513   -0.2690    0.4434 N   0  0  0  0  0  0  0  0  0  0  0  0
   -3.0279   -1.4603   -0.3247 C   0  0  0  0  0  0  0  0  0  0  0  0
   -3.6154   -2.6094    0.2250 C   0  0  0  0  0  0  0  0  0  0  0  0
   -3.6958   -3.7794   -0.5331 C   0  0  0  0  0  0  0  0  0  0  0  0
   -3.1935   -3.7965   -1.8291 C   0  0  0  0  0  0  0  0  0  0  0  0
   -3.2752   -4.9203   -2.5528 F   0  0  0  0  0  0  0  0  0  0  0  0
   -2.6063   -2.6658   -2.3834 C   0  0  0  0  0  0  0  0  0  0  0  0
   -2.5187   -1.4922   -1.6312 C   0  0  0  0  0  0  0  0  0  0  0  0
    4.6173   -0.4858    1.4202 C   0  0  0  0  0  0  0  0  0  0  0  0
    5.9775   -0.8075    1.3806 C   0  0  0  0  0  0  0  0  0  0  0  0
   10.7294   -0.3132    1.2556 H   0  0  0  0  0  0  0  0  0  0  0  0
   10.5131   -1.3519   -0.1484 H   0  0  0  0  0  0  0  0  0  0  0  0
   11.2669    0.2498   -0.3445 H   0  0  0  0  0  0  0  0  0  0  0  0
    8.9045    0.2816   -1.1270 H   0  0  0  0  0  0  0  0  0  0  0  0
    9.1257    1.3367    0.3107 H   0  0  0  0  0  0  0  0  0  0  0  0
    7.0196    1.6380   -0.7395 H   0  0  0  0  0  0  0  0  0  0  0  0
    4.6760    2.1965   -0.6710 H   0  0  0  0  0  0  0  0  0  0  0  0
    2.2085    0.2303    1.3732 H   0  0  0  0  0  0  0  0  0  0  0  0
    0.0562    2.7017    0.0355 H   0  0  0  0  0  0  0  0  0  0  0  0
    0.4876    1.9824    1.6042 H   0  0  0  0  0  0  0  0  0  0  0  0
   -5.9294    0.5262    1.9621 H   0  0  0  0  0  0  0  0  0  0  0  0
   -5.5332   -1.1029    1.5108 H   0  0  0  0  0  0  0  0  0  0  0  0
   -6.5473   -1.8346   -0.9046 H   0  0  0  0  0  0  0  0  0  0  0  0
   -7.5401   -0.4799   -3.0237 H   0  0  0  0  0  0  0  0  0  0  0  0
   -7.1647    2.1511   -2.4847 H   0  0  0  0  0  0  0  0  0  0  0  0
   -6.2360    2.6710    0.9957 H   0  0  0  0  0  0  0  0  0  0  0  0
   -4.9018    2.8699   -0.2001 H   0  0  0  0  0  0  0  0  0  0  0  0
   -6.5437    3.4837   -0.5587 H   0  0  0  0  0  0  0  0  0  0  0  0
   -3.9755   -2.6335    1.2500 H   0  0  0  0  0  0  0  0  0  0  0  0
   -4.1388   -4.6805   -0.1200 H   0  0  0  0  0  0  0  0  0  0  0  0
   -2.2274   -2.7014   -3.4006 H   0  0  0  0  0  0  0  0  0  0  0  0
   -2.0907   -0.6094   -2.1010 H   0  0  0  0  0  0  0  0  0  0  0  0
    3.9599   -1.0961    2.0326 H   0  0  0  0  0  0  0  0  0  0  0  0
    6.3491   -1.6515    1.9560 H   0  0  0  0  0  0  0  0  0  0  0  0
  1  2  1  0
  2  3  1  0
  3  4  1  0
  4  5  2  0
  5  6  1  0
  6  7  2  0
  7  8  1  0
  8  9  1  0
  9 10  2  0
  9 11  1  0
 11 12  1  0
 12 13  1  0
 13 14  2  0
 14 15  1  0
 15 16  2  0
 16 17  1  0
 17 18  1  0
 18 19  2  0
 19 20  1  0
 20 21  2  0
 21 22  1  0
 22 23  1  0
 16 24  1  0
 24 25  1  0
 25 26  2  0
 26 27  1  0
 27 28  2  0
 28 29  1  0
 28 30  1  0
 30 31  2  0
  7 32  1  0
 32 33  2  0
 33  4  1  0
 24 13  1  0
 31 25  1  0
 22 18  1  0
  1 34  1  0
  1 35  1  0
  1 36  1  0
  2 37  1  0
  2 38  1  0
  5 39  1  0
  6 40  1  0
  8 41  1  0
 11 42  1  0
 11 43  1  0
 17 44  1  0
 17 45  1  0
 19 46  1  0
 20 47  1  0
 21 48  1  0
 23 49  1  0
 23 50  1  0
 23 51  1  0
 26 52  1  0
 27 53  1  0
 30 54  1  0
 31 55  1  0
 32 56  1  0
 33 57  1  0
M  END
$$$$
