
     RDKit          3D

 39 41  0  0  0  0  0  0  0  0999 V2000
   -1.4296   -0.3173   -2.5479 C   0  0  0  0  0  0  0  0  0  0  0  0
   -1.3774   -1.1429   -1.3899 O   0  0  0  0  0  0  0  0  0  0  0  0
   -2.2381   -0.8367   -0.3676 C   0  0  0  0  0  0  0  0  0  0  0  0
   -3.0201    0.3184   -0.2935 C   0  0  0  0  0  0  0  0  0  0  0  0
   -3.8594    0.5424    0.8086 C   0  0  0  0  0  0  0  0  0  0  0  0
   -4.7228    1.7678    0.8819 C   0  0  0  0  0  0  0  0  0  0  0  0
   -3.9238   -0.4135    1.8286 C   0  0  0  0  0  0  0  0  0  0  0  0
   -3.1348   -1.5614    1.7724 C   0  0  0  0  0  0  0  0  0  0  0  0
   -2.2785   -1.7605    0.6888 C   0  0  0  0  0  0  0  0  0  0  0  0
   -1.5066   -2.8938    0.5889 O   0  0  0  0  0  0  0  0  0  0  0  0
   -0.5525   -3.0271    1.6420 C   0  0  0  0  0  0  0  0  0  0  0  0
    0.6984   -2.1394    1.5446 C   0  0  0  0  0  0  0  0  0  0  0  0
    1.3960   -1.9469    2.5356 O   0  0  0  0  0  0  0  0  0  0  0  0
    0.9350   -1.6740    0.2723 N   0  0  0  0  0  0  0  0  0  0  0  0
    1.9330   -0.8276   -0.1349 C   0  0  0  0  0  0  0  0  0  0  0  0
    2.0074   -0.3738   -1.3678 N   0  0  0  0  0  0  0  0  0  0  0  0
    3.0911    0.4643   -1.5480 N   0  0  0  0  0  0  0  0  0  0  0  0
    3.7939    0.5857   -0.4463 C   0  0  0  0  0  0  0  0  0  0  0  0
    5.0877    1.4518   -0.3656 C   0  0  0  0  0  0  0  0  0  0  0  0
    5.2659    2.5930   -1.3401 C   0  0  0  0  0  0  0  0  0  0  0  0
    4.9944    2.8832    0.1086 C   0  0  0  0  0  0  0  0  0  0  0  0
    3.1661   -0.2597    0.9009 S   0  0  0  0  0  0  0  0  0  0  0  0
   -2.4380   -0.2870   -2.9761 H   0  0  0  0  0  0  0  0  0  0  0  0
   -1.0587    0.6872   -2.3282 H   0  0  0  0  0  0  0  0  0  0  0  0
   -0.7677   -0.7590   -3.2945 H   0  0  0  0  0  0  0  0  0  0  0  0
   -2.9923    1.0657   -1.0827 H   0  0  0  0  0  0  0  0  0  0  0  0
   -4.6289    2.2414    1.8633 H   0  0  0  0  0  0  0  0  0  0  0  0
   -4.4410    2.5050    0.1252 H   0  0  0  0  0  0  0  0  0  0  0  0
   -5.7705    1.4965    0.7219 H   0  0  0  0  0  0  0  0  0  0  0  0
   -4.5941   -0.2692    2.6715 H   0  0  0  0  0  0  0  0  0  0  0  0
   -3.2147   -2.3022    2.5630 H   0  0  0  0  0  0  0  0  0  0  0  0
   -1.0080   -2.8844    2.6307 H   0  0  0  0  0  0  0  0  0  0  0  0
   -0.1959   -4.0645    1.6100 H   0  0  0  0  0  0  0  0  0  0  0  0
    0.2401   -1.8679   -0.4483 H   0  0  0  0  0  0  0  0  0  0  0  0
    5.9814    0.8920   -0.1127 H   0  0  0  0  0  0  0  0  0  0  0  0
    4.4747    2.7992   -2.0585 H   0  0  0  0  0  0  0  0  0  0  0  0
    6.2636    2.7722   -1.7274 H   0  0  0  0  0  0  0  0  0  0  0  0
    5.8075    3.2697    0.7127 H   0  0  0  0  0  0  0  0  0  0  0  0
    4.0175    3.2732    0.3863 H   0  0  0  0  0  0  0  0  0  0  0  0
  1  2  1  0
  2  3  1  0
  3  4  2  0
  4  5  1  0
  5  6  1  0
  5  7  2  0
  7  8  1  0
  8  9  2  0
  9 10  1  0
 10 11  1  0
 11 12  1  0
 12 13  2  0
 12 14  1  0
 14 15  1  0
 15 16  2  0
 16 17  1  0
 17 18  2  0
 18 19  1  0
 19 20  1  0
 20 21  1  0
 18 22  1  0
  9  3  1  0
 22 15  1  0
 21 19  1  0
  1 23  1  0
  1 24  1  0
  1 25  1  0
  4 26  1  0
  6 27  1  0
  6 28  1  0
  6 29  1  0
  7 30  1  0
  8 31  1  0
 11 32  1  0
 11 33  1  0
 14 34  1  0
 19 35  1  0
 20 36  1  0
 20 37  1  0
 21 38  1  0
 21 39  1  0
M  END
$$$$
