
     RDKit          3D

 42 44  0  0  0  0  0  0  0  0999 V2000
   -4.7696   -0.4012    1.9341 C   0  0  0  0  0  0  0  0  0  0  0  0
   -4.0694   -1.2535    0.8760 C   0  0  0  0  0  0  0  0  0  0  0  0
   -5.0235   -1.7171   -0.2244 C   0  0  0  0  0  0  0  0  0  0  0  0
   -2.8624   -0.6152    0.3454 N   0  0  0  0  0  0  0  0  0  0  0  0
   -1.6047   -1.1490    0.5131 C   0  0  0  0  0  0  0  0  0  0  0  0
   -0.6919   -0.3081   -0.0803 C   0  0  0  0  0  0  0  0  0  0  0  0
    0.7120   -0.5708   -0.0667 C   0  0  0  0  0  0  0  0  0  0  0  0
    1.6727    0.3647    0.0185 C   0  0  0  0  0  0  0  0  0  0  0  0
    3.1098    0.0722    0.0409 C   0  0  0  0  0  0  0  0  0  0  0  0
    3.6434   -0.9956    0.7610 C   0  0  0  0  0  0  0  0  0  0  0  0
    5.0180   -1.2050    0.7680 C   0  0  0  0  0  0  0  0  0  0  0  0
    5.8438   -0.3809    0.0857 N   0  0  0  0  0  4  0  0  0  0  0  0
    7.2970   -0.6178    0.1152 C   0  0  0  0  0  0  0  0  0  0  0  0
    5.3522    0.6746   -0.6003 C   0  0  0  0  0  0  0  0  0  0  0  0
    3.9845    0.9229   -0.6329 C   0  0  0  0  0  0  0  0  0  0  0  0
   -1.4202    0.7663   -0.6748 C   0  0  0  0  0  0  0  0  0  0  0  0
   -1.0635    1.8923   -1.4527 C   0  0  0  0  0  0  0  0  0  0  0  0
   -2.0455    2.7850   -1.8908 C   0  0  0  0  0  0  0  0  0  0  0  0
   -3.3790    2.5706   -1.5726 C   0  0  0  0  0  0  0  0  0  0  0  0
   -3.7660    1.4587   -0.8201 C   0  0  0  0  0  0  0  0  0  0  0  0
   -2.7775    0.5589   -0.3820 C   0  0  0  0  0  0  0  0  0  0  0  0
   -5.5694   -0.9728    2.4172 H   0  0  0  0  0  0  0  0  0  0  0  0
   -4.0647   -0.0867    2.7115 H   0  0  0  0  0  0  0  0  0  0  0  0
   -5.2205    0.5003    1.5103 H   0  0  0  0  0  0  0  0  0  0  0  0
   -3.7215   -2.1609    1.3885 H   0  0  0  0  0  0  0  0  0  0  0  0
   -5.8297   -2.3252    0.2001 H   0  0  0  0  0  0  0  0  0  0  0  0
   -5.4876   -0.8797   -0.7526 H   0  0  0  0  0  0  0  0  0  0  0  0
   -4.4971   -2.3278   -0.9662 H   0  0  0  0  0  0  0  0  0  0  0  0
   -1.4665   -2.0752    1.0560 H   0  0  0  0  0  0  0  0  0  0  0  0
    0.9879   -1.6224   -0.1064 H   0  0  0  0  0  0  0  0  0  0  0  0
    1.3999    1.4165    0.0788 H   0  0  0  0  0  0  0  0  0  0  0  0
    2.9999   -1.6629    1.3313 H   0  0  0  0  0  0  0  0  0  0  0  0
    5.4663   -2.0252    1.3219 H   0  0  0  0  0  0  0  0  0  0  0  0
    7.7366   -0.2642   -0.8210 H   0  0  0  0  0  0  0  0  0  0  0  0
    7.7010   -0.0671    0.9682 H   0  0  0  0  0  0  0  0  0  0  0  0
    7.4833   -1.6898    0.2195 H   0  0  0  0  0  0  0  0  0  0  0  0
    6.0603    1.3163   -1.1172 H   0  0  0  0  0  0  0  0  0  0  0  0
    3.6080    1.7774   -1.1928 H   0  0  0  0  0  0  0  0  0  0  0  0
   -0.0292    2.0683   -1.7277 H   0  0  0  0  0  0  0  0  0  0  0  0
   -1.7647    3.6487   -2.4880 H   0  0  0  0  0  0  0  0  0  0  0  0
   -4.1360    3.2707   -1.9195 H   0  0  0  0  0  0  0  0  0  0  0  0
   -4.8165    1.3094   -0.5956 H   0  0  0  0  0  0  0  0  0  0  0  0
  1  2  1  0
  2  3  1  0
  2  4  1  0
  4  5  1  0
  5  6  2  0
  6  7  1  0
  7  8  2  3
  8  9  1  0
  9 10  2  0
 10 11  1  0
 11 12  2  0
 12 13  1  0
 12 14  1  0
 14 15  2  0
  6 16  1  0
 16 17  2  0
 17 18  1  0
 18 19  2  0
 19 20  1  0
 20 21  2  0
 21  4  1  0
 15  9  1  0
 21 16  1  0
  1 22  1  0
  1 23  1  0
  1 24  1  0
  2 25  1  0
  3 26  1  0
  3 27  1  0
  3 28  1  0
  5 29  1  0
  7 30  1  0
  8 31  1  0
 10 32  1  0
 11 33  1  0
 13 34  1  0
 13 35  1  0
 13 36  1  0
 14 37  1  0
 15 38  1  0
 17 39  1  0
 18 40  1  0
 19 41  1  0
 20 42  1  0
M  CHG  1  12   1
M  END
$$$$
