
     RDKit          3D

 48 51  0  0  0  0  0  0  0  0999 V2000
    3.2826    3.0447   -0.7228 C   0  0  0  0  0  0  0  0  0  0  0  0
    3.2755    1.8466   -1.6603 C   0  0  0  0  0  0  0  0  0  0  0  0
    2.9447    0.6228   -0.9360 N   0  0  0  0  0  0  0  0  0  0  0  0
    1.6757    0.0774   -0.7154 C   0  0  0  0  0  0  0  0  0  0  0  0
    0.5021    0.6084   -1.1098 C   0  0  0  0  0  0  0  0  0  0  0  0
   -0.8283    0.0284   -0.8775 C   0  0  0  0  0  0  0  0  0  0  0  0
   -1.2320   -1.0216   -1.7038 C   0  0  0  0  0  0  0  0  0  0  0  0
   -2.4738   -1.6016   -1.5332 C   0  0  0  0  0  0  0  0  0  0  0  0
   -3.3142   -1.1314   -0.5327 C   0  0  0  0  0  0  0  0  0  0  0  0
   -4.5729   -1.7268   -0.3529 C   0  0  0  0  0  0  0  0  0  0  0  0
   -5.4406   -1.2916    0.6520 C   0  0  0  0  0  0  0  0  0  0  0  0
   -6.7963   -1.9183    0.8125 C   0  0  0  0  0  0  0  0  0  0  0  0
   -5.0482   -0.2325    1.4673 C   0  0  0  0  0  0  0  0  0  0  0  0
   -3.7959    0.3706    1.2979 C   0  0  0  0  0  0  0  0  0  0  0  0
   -2.8982   -0.0564    0.2997 C   0  0  0  0  0  0  0  0  0  0  0  0
   -1.6586    0.5118    0.0967 N   0  0  0  0  0  4  0  0  0  0  0  0
   -1.2145    1.6692    0.9322 C   0  0  0  0  0  0  0  0  0  0  0  0
   -0.6166    1.1864    2.2396 C   0  0  0  0  0  0  0  0  0  0  0  0
    1.7021   -1.4492    0.2148 S   0  0  0  0  0  0  0  0  0  0  0  0
    3.4780   -1.2981    0.3387 C   0  0  0  0  0  0  0  0  0  0  0  0
    4.3201   -2.1809    1.0008 C   0  0  0  0  0  0  0  0  0  0  0  0
    5.6864   -1.9097    1.0116 C   0  0  0  0  0  0  0  0  0  0  0  0
    6.1841   -0.7702    0.3684 C   0  0  0  0  0  0  0  0  0  0  0  0
    5.3239    0.1133   -0.2971 C   0  0  0  0  0  0  0  0  0  0  0  0
    3.9572   -0.1444   -0.3213 C   0  0  0  0  0  0  0  0  0  0  0  0
    3.5131    3.9589   -1.2787 H   0  0  0  0  0  0  0  0  0  0  0  0
    4.0316    2.9296    0.0671 H   0  0  0  0  0  0  0  0  0  0  0  0
    2.3077    3.1761   -0.2417 H   0  0  0  0  0  0  0  0  0  0  0  0
    2.5455    2.0218   -2.4593 H   0  0  0  0  0  0  0  0  0  0  0  0
    4.2383    1.7635   -2.1770 H   0  0  0  0  0  0  0  0  0  0  0  0
    0.4872    1.5392   -1.6682 H   0  0  0  0  0  0  0  0  0  0  0  0
   -0.5704   -1.4005   -2.4824 H   0  0  0  0  0  0  0  0  0  0  0  0
   -2.7712   -2.4257   -2.1813 H   0  0  0  0  0  0  0  0  0  0  0  0
   -4.8891   -2.5467   -0.9996 H   0  0  0  0  0  0  0  0  0  0  0  0
   -6.7693   -2.9795    0.5437 H   0  0  0  0  0  0  0  0  0  0  0  0
   -7.5219   -1.4080    0.1719 H   0  0  0  0  0  0  0  0  0  0  0  0
   -7.1355   -1.8554    1.8518 H   0  0  0  0  0  0  0  0  0  0  0  0
   -5.7168    0.1301    2.2485 H   0  0  0  0  0  0  0  0  0  0  0  0
   -3.5644    1.1761    1.9877 H   0  0  0  0  0  0  0  0  0  0  0  0
   -0.4936    2.2744    0.3764 H   0  0  0  0  0  0  0  0  0  0  0  0
   -2.0698    2.3326    1.0901 H   0  0  0  0  0  0  0  0  0  0  0  0
    0.2811    0.5878    2.0699 H   0  0  0  0  0  0  0  0  0  0  0  0
   -0.3356    2.0414    2.8622 H   0  0  0  0  0  0  0  0  0  0  0  0
   -1.3188    0.5701    2.8079 H   0  0  0  0  0  0  0  0  0  0  0  0
    3.9309   -3.0629    1.4993 H   0  0  0  0  0  0  0  0  0  0  0  0
    6.3708   -2.5848    1.5213 H   0  0  0  0  0  0  0  0  0  0  0  0
    7.2540   -0.5698    0.3855 H   0  0  0  0  0  0  0  0  0  0  0  0
    5.7536    0.9850   -0.7781 H   0  0  0  0  0  0  0  0  0  0  0  0
  1  2  1  0
  2  3  1  0
  3  4  1  0
  4  5  2  3
  5  6  1  0
  6  7  2  0
  7  8  1  0
  8  9  2  0
  9 10  1  0
 10 11  2  0
 11 12  1  0
 11 13  1  0
 13 14  2  0
 14 15  1  0
 15 16  2  0
 16 17  1  0
 17 18  1  0
  4 19  1  0
 19 20  1  0
 20 21  2  0
 21 22  1  0
 22 23  2  0
 23 24  1  0
 24 25  2  0
 25  3  1  0
 16  6  1  0
 25 20  1  0
 15  9  1  0
  1 26  1  0
  1 27  1  0
  1 28  1  0
  2 29  1  0
  2 30  1  0
  5 31  1  0
  7 32  1  0
  8 33  1  0
 10 34  1  0
 12 35  1  0
 12 36  1  0
 12 37  1  0
 13 38  1  0
 14 39  1  0
 17 40  1  0
 17 41  1  0
 18 42  1  0
 18 43  1  0
 18 44  1  0
 21 45  1  0
 22 46  1  0
 23 47  1  0
 24 48  1  0
M  CHG  1  16   1
M  END
$$$$
