
     RDKit          3D

 26 27  0  0  0  0  0  0  0  0999 V2000
    0.7834   -1.2361   -1.9610 O   0  0  0  0  0  0  0  0  0  0  0  0
    1.3207   -0.5636   -1.0847 C   0  0  0  0  0  0  0  0  0  0  0  0
    2.7714   -0.1406   -1.2076 C   0  0  0  0  0  0  0  0  0  0  0  0
    3.2090    0.7465   -0.0468 C   0  0  0  0  0  0  0  0  0  0  0  0
    2.9165    0.0757    1.2913 C   0  0  0  0  0  0  0  0  0  0  0  0
    1.4669   -0.3529    1.4094 C   0  0  0  0  0  0  0  0  0  0  0  0
    1.0453   -0.8683    2.4413 O   0  0  0  0  0  0  0  0  0  0  0  0
    0.6224   -0.1974    0.1855 C   0  0  0  0  0  0  0  0  0  0  0  0
   -0.6128    0.3499    0.2087 C   0  0  0  0  0  0  0  0  0  0  0  0
   -1.5110    0.6889   -1.2559 S   0  0  0  0  0  0  0  0  0  0  0  0
   -2.9554   -0.3782   -0.9742 C   0  0  0  0  0  0  0  0  0  0  0  0
   -3.4055   -0.5141    0.4812 C   0  0  0  0  0  0  0  0  0  0  0  0
   -3.1249    0.7099    1.3432 C   0  0  0  0  0  0  0  0  0  0  0  0
   -1.3520    0.9249    1.6952 S   0  0  0  0  0  0  0  0  0  0  0  0
    3.3855   -1.0475   -1.2386 H   0  0  0  0  0  0  0  0  0  0  0  0
    2.8944    0.4019   -2.1507 H   0  0  0  0  0  0  0  0  0  0  0  0
    2.6828    1.7084   -0.0995 H   0  0  0  0  0  0  0  0  0  0  0  0
    4.2801    0.9624   -0.1276 H   0  0  0  0  0  0  0  0  0  0  0  0
    3.5419   -0.8166    1.4072 H   0  0  0  0  0  0  0  0  0  0  0  0
    3.1388    0.7713    2.1071 H   0  0  0  0  0  0  0  0  0  0  0  0
   -2.7504   -1.3706   -1.3901 H   0  0  0  0  0  0  0  0  0  0  0  0
   -3.7749    0.0466   -1.5645 H   0  0  0  0  0  0  0  0  0  0  0  0
   -2.9379   -1.4013    0.9291 H   0  0  0  0  0  0  0  0  0  0  0  0
   -4.4834   -0.7193    0.4877 H   0  0  0  0  0  0  0  0  0  0  0  0
   -3.6335    0.6012    2.3068 H   0  0  0  0  0  0  0  0  0  0  0  0
   -3.5174    1.6190    0.8745 H   0  0  0  0  0  0  0  0  0  0  0  0
  1  2  2  0
  2  3  1  0
  3  4  1  0
  4  5  1  0
  5  6  1  0
  6  7  2  0
  6  8  1  0
  8  9  2  3
  9 10  1  0
 10 11  1  0
 11 12  1  0
 12 13  1  0
 13 14  1  0
  8  2  1  0
 14  9  1  0
  3 15  1  0
  3 16  1  0
  4 17  1  0
  4 18  1  0
  5 19  1  0
  5 20  1  0
 11 21  1  0
 11 22  1  0
 12 23  1  0
 12 24  1  0
 13 25  1  0
 13 26  1  0
M  END
$$$$
