
     RDKit          3D

 41 43  0  0  0  0  0  0  0  0999 V2000
    1.8023   -2.6673   -0.7373 O   0  0  0  0  0  0  0  0  0  0  0  0
    1.3081   -1.6185   -0.3306 C   0  0  0  0  0  0  0  0  0  0  0  0
    1.8783   -0.9060    0.8866 C   0  0  0  0  0  0  0  0  0  0  0  0
    2.8199    0.5595    0.3341 S   0  0  0  0  0  0  0  0  0  0  0  0
    3.8908    0.8240    1.7534 C   0  0  0  0  0  0  0  0  0  0  0  0
    5.2307    1.1661    1.4931 C   0  0  0  0  0  0  0  0  0  0  0  0
    6.1211    1.4055    2.5375 C   0  0  0  0  0  0  0  0  0  0  0  0
    5.6846    1.3149    3.8514 C   0  0  0  0  0  0  0  0  0  0  0  0
    4.3550    0.9899    4.1045 C   0  0  0  0  0  0  0  0  0  0  0  0
    3.4452    0.7464    3.0806 N   0  0  0  0  0  4  0  0  0  0  0  0
    2.2405    0.4644    3.3908 O   0  0  0  0  0  1  0  0  0  0  0  0
    0.2161   -0.9631   -0.8719 N   0  0  0  0  0  0  0  0  0  0  0  0
   -0.5615   -1.3359   -1.9893 C   0  0  0  0  0  0  0  0  0  0  0  0
   -0.3570   -2.5025   -2.7273 C   0  0  0  0  0  0  0  0  0  0  0  0
   -1.1722   -2.7975   -3.8267 C   0  0  0  0  0  0  0  0  0  0  0  0
   -2.1952   -1.9281   -4.2027 C   0  0  0  0  0  0  0  0  0  0  0  0
   -2.4128   -0.7602   -3.4764 C   0  0  0  0  0  0  0  0  0  0  0  0
   -1.6103   -0.4778   -2.3656 C   0  0  0  0  0  0  0  0  0  0  0  0
   -1.7834    0.6936   -1.6546 O   0  0  0  0  0  0  0  0  0  0  0  0
   -3.0217    0.9074   -1.0906 C   0  0  0  0  0  0  0  0  0  0  0  0
   -3.4980    2.2190   -1.1154 C   0  0  0  0  0  0  0  0  0  0  0  0
   -4.7290    2.5250   -0.5349 C   0  0  0  0  0  0  0  0  0  0  0  0
   -5.4760    1.5220    0.0828 C   0  0  0  0  0  0  0  0  0  0  0  0
   -4.9906    0.2146    0.1261 C   0  0  0  0  0  0  0  0  0  0  0  0
   -3.7593   -0.0943   -0.4542 C   0  0  0  0  0  0  0  0  0  0  0  0
    2.5263   -1.6070    1.4231 H   0  0  0  0  0  0  0  0  0  0  0  0
    1.0500   -0.6166    1.5401 H   0  0  0  0  0  0  0  0  0  0  0  0
    5.5852    1.2433    0.4665 H   0  0  0  0  0  0  0  0  0  0  0  0
    7.1555    1.6654    2.3212 H   0  0  0  0  0  0  0  0  0  0  0  0
    6.3675    1.5006    4.6765 H   0  0  0  0  0  0  0  0  0  0  0  0
    3.9197    0.9032    5.0890 H   0  0  0  0  0  0  0  0  0  0  0  0
   -0.0434   -0.0740   -0.4530 H   0  0  0  0  0  0  0  0  0  0  0  0
    0.4316   -3.2047   -2.4768 H   0  0  0  0  0  0  0  0  0  0  0  0
   -0.9985   -3.7095   -4.3934 H   0  0  0  0  0  0  0  0  0  0  0  0
   -2.8170   -2.1586   -5.0639 H   0  0  0  0  0  0  0  0  0  0  0  0
   -3.1996   -0.0743   -3.7765 H   0  0  0  0  0  0  0  0  0  0  0  0
   -2.9123    3.0015   -1.5901 H   0  0  0  0  0  0  0  0  0  0  0  0
   -5.1030    3.5452   -0.5600 H   0  0  0  0  0  0  0  0  0  0  0  0
   -6.4340    1.7609    0.5378 H   0  0  0  0  0  0  0  0  0  0  0  0
   -5.5684   -0.5637    0.6182 H   0  0  0  0  0  0  0  0  0  0  0  0
   -3.3853   -1.1127   -0.3965 H   0  0  0  0  0  0  0  0  0  0  0  0
  1  2  2  0
  2  3  1  0
  3  4  1  0
  4  5  1  0
  5  6  2  0
  6  7  1  0
  7  8  2  0
  8  9  1  0
  9 10  2  0
 10 11  1  0
  2 12  1  0
 12 13  1  0
 13 14  2  0
 14 15  1  0
 15 16  2  0
 16 17  1  0
 17 18  2  0
 18 19  1  0
 19 20  1  0
 20 21  2  0
 21 22  1  0
 22 23  2  0
 23 24  1  0
 24 25  2  0
 10  5  1  0
 18 13  1  0
 25 20  1  0
  3 26  1  0
  3 27  1  0
  6 28  1  0
  7 29  1  0
  8 30  1  0
  9 31  1  0
 12 32  1  0
 14 33  1  0
 15 34  1  0
 16 35  1  0
 17 36  1  0
 21 37  1  0
 22 38  1  0
 23 39  1  0
 24 40  1  0
 25 41  1  0
M  CHG  2  10   1  11  -1
M  END
$$$$
