
     RDKit          3D

 53 58  0  0  0  0  0  0  0  0999 V2000
   -0.5360    1.2993   -1.6833 O   0  0  0  0  0  0  0  0  0  0  0  0
   -1.2297    1.0089   -0.7076 C   0  0  0  0  0  0  0  0  0  0  0  0
   -0.6534    1.0899    0.7187 C   0  0  0  0  0  0  0  0  0  0  0  0
    0.7593    0.6767    0.7544 N   0  0  0  0  0  4  0  0  0  0  0  0
    1.2710   -0.5153    1.2619 C   0  0  0  0  0  0  0  0  0  0  0  0
    2.6471   -0.5376    1.0642 C   0  0  0  0  0  0  0  0  0  0  0  0
    3.6330   -1.6860    1.4947 C   0  0  0  0  0  0  0  0  0  0  0  0
    5.0084   -1.5622    1.2945 C   0  0  0  0  0  0  0  0  0  0  0  0
    5.8722   -2.5940    1.6816 C   0  0  0  0  0  0  0  0  0  0  0  0
    5.3703   -3.7559    2.2724 C   0  0  0  0  0  0  0  0  0  0  0  0
    6.4943   -4.9844    2.7215 Cl  0  0  0  0  0  0  0  0  0  0  0  0
    3.9947   -3.8815    2.4784 C   0  0  0  0  0  0  0  0  0  0  0  0
    3.2879   -5.2814    3.2020 Cl  0  0  0  0  0  0  0  0  0  0  0  0
    3.1291   -2.8485    2.0920 C   0  0  0  0  0  0  0  0  0  0  0  0
    2.8950    0.6633    0.4251 N   0  0  0  0  0  0  0  0  0  0  0  0
    1.7812    1.3767    0.2681 C   0  0  0  0  0  0  0  0  0  0  0  0
    2.0204    2.6998   -0.3557 C   0  0  0  0  0  0  0  0  0  0  0  0
    3.4497    2.5403   -0.9078 C   0  0  0  0  0  0  0  0  0  0  0  0
    4.0603    1.3582   -0.1079 C   0  0  0  0  0  0  0  0  0  0  0  0
   -2.5861    0.6687   -0.7396 N   0  0  0  0  0  0  0  0  0  0  0  0
   -3.5585    1.5479   -1.3402 C   0  0  0  0  0  0  0  0  0  0  0  0
   -3.1459    2.6173   -2.1619 C   0  0  0  0  0  0  0  0  0  0  0  0
   -4.0636    3.4930   -2.7532 C   0  0  0  0  0  0  0  0  0  0  0  0
   -5.4210    3.3341   -2.5248 C   0  0  0  0  0  0  0  0  0  0  0  0
   -5.8561    2.3047   -1.6975 C   0  0  0  0  0  0  0  0  0  0  0  0
   -4.9395    1.4184   -1.1038 C   0  0  0  0  0  0  0  0  0  0  0  0
   -5.6213    0.2363    0.0295 S   0  0  0  0  0  0  0  0  0  0  0  0
   -4.3133   -0.9499    0.0687 C   0  0  0  0  0  0  0  0  0  0  0  0
   -4.6385   -2.2412    0.5174 C   0  0  0  0  0  0  0  0  0  0  0  0
   -3.6724   -3.2416    0.5851 C   0  0  0  0  0  0  0  0  0  0  0  0
   -2.3715   -2.9628    0.1943 C   0  0  0  0  0  0  0  0  0  0  0  0
   -2.0389   -1.6779   -0.2423 C   0  0  0  0  0  0  0  0  0  0  0  0
   -2.9956   -0.6382   -0.2914 C   0  0  0  0  0  0  0  0  0  0  0  0
   -1.2187    0.4853    1.4329 H   0  0  0  0  0  0  0  0  0  0  0  0
   -0.7101    2.1338    1.0465 H   0  0  0  0  0  0  0  0  0  0  0  0
    0.5794   -1.2066    1.7134 H   0  0  0  0  0  0  0  0  0  0  0  0
    5.4504   -0.6787    0.8505 H   0  0  0  0  0  0  0  0  0  0  0  0
    6.9440   -2.4858    1.5204 H   0  0  0  0  0  0  0  0  0  0  0  0
    2.0652   -2.9828    2.2661 H   0  0  0  0  0  0  0  0  0  0  0  0
    1.2805    2.8956   -1.1290 H   0  0  0  0  0  0  0  0  0  0  0  0
    1.9656    3.4342    0.4512 H   0  0  0  0  0  0  0  0  0  0  0  0
    4.0421    3.4560   -0.8309 H   0  0  0  0  0  0  0  0  0  0  0  0
    3.3956    2.2614   -1.9669 H   0  0  0  0  0  0  0  0  0  0  0  0
    4.6420    0.7030   -0.7601 H   0  0  0  0  0  0  0  0  0  0  0  0
    4.6674    1.7185    0.7276 H   0  0  0  0  0  0  0  0  0  0  0  0
   -2.1022    2.7893   -2.4063 H   0  0  0  0  0  0  0  0  0  0  0  0
   -3.7127    4.2940   -3.4007 H   0  0  0  0  0  0  0  0  0  0  0  0
   -6.1397    4.0101   -2.9821 H   0  0  0  0  0  0  0  0  0  0  0  0
   -6.9241    2.2037   -1.5085 H   0  0  0  0  0  0  0  0  0  0  0  0
   -5.6609   -2.4815    0.8086 H   0  0  0  0  0  0  0  0  0  0  0  0
   -3.9466   -4.2405    0.9182 H   0  0  0  0  0  0  0  0  0  0  0  0
   -1.6249   -3.7541    0.2021 H   0  0  0  0  0  0  0  0  0  0  0  0
   -1.0251   -1.5302   -0.6070 H   0  0  0  0  0  0  0  0  0  0  0  0
  1  2  2  0
  2  3  1  0
  3  4  1  0
  4  5  1  0
  5  6  2  0
  6  7  1  0
  7  8  2  0
  8  9  1  0
  9 10  2  0
 10 11  1  0
 10 12  1  0
 12 13  1  0
 12 14  2  0
  6 15  1  0
 15 16  1  0
 16 17  1  0
 17 18  1  0
 18 19  1  0
  2 20  1  0
 20 21  1  0
 21 22  2  0
 22 23  1  0
 23 24  2  0
 24 25  1  0
 25 26  2  0
 26 27  1  0
 27 28  1  0
 28 29  2  0
 29 30  1  0
 30 31  2  0
 31 32  1  0
 32 33  2  0
 16  4  2  0
 33 20  1  0
 14  7  1  0
 19 15  1  0
 26 21  1  0
 33 28  1  0
  3 34  1  0
  3 35  1  0
  5 36  1  0
  8 37  1  0
  9 38  1  0
 14 39  1  0
 17 40  1  0
 17 41  1  0
 18 42  1  0
 18 43  1  0
 19 44  1  0
 19 45  1  0
 22 46  1  0
 23 47  1  0
 24 48  1  0
 25 49  1  0
 29 50  1  0
 30 51  1  0
 31 52  1  0
 32 53  1  0
M  CHG  1   4   1
M  END
$$$$
