
     RDKit          3D

 29 30  0  0  0  0  0  0  0  0999 V2000
   -2.8930   -1.7080    1.0592 C   0  0  0  0  0  0  0  0  0  0  0  0
   -2.0177   -0.5144    0.8007 C   0  0  0  0  0  0  0  0  0  0  0  0
   -1.2847   -0.2909   -0.3087 C   0  0  0  0  0  0  0  0  0  0  0  0
   -1.2935   -1.1805   -1.5243 C   0  0  0  0  0  0  0  0  0  0  0  0
   -0.3834    0.9248   -0.4230 C   0  0  0  0  0  0  0  0  0  0  0  0
    1.0933    0.5727   -0.5112 C   0  0  0  0  0  0  0  0  0  0  0  0
    1.8184    0.8499   -1.6814 C   0  0  0  0  0  0  0  0  0  0  0  0
    3.1739    0.5268   -1.7716 C   0  0  0  0  0  0  0  0  0  0  0  0
    3.8217   -0.0761   -0.6954 C   0  0  0  0  0  0  0  0  0  0  0  0
    3.1165   -0.3573    0.4726 C   0  0  0  0  0  0  0  0  0  0  0  0
    1.7615   -0.0359    0.5649 C   0  0  0  0  0  0  0  0  0  0  0  0
   -0.6065    1.8632    0.6571 N   0  0  0  0  0  0  0  0  0  0  0  0
   -1.2941    1.5799    1.7861 C   0  0  0  0  0  0  0  0  0  0  0  0
   -1.3272    2.6399    3.0653 S   0  0  0  0  0  0  0  0  0  0  0  0
   -1.9699    0.4027    1.8243 N   0  0  0  0  0  0  0  0  0  0  0  0
   -3.9472   -1.4336    0.9497 H   0  0  0  0  0  0  0  0  0  0  0  0
   -2.7407   -2.0802    2.0789 H   0  0  0  0  0  0  0  0  0  0  0  0
   -2.6829   -2.5472    0.3917 H   0  0  0  0  0  0  0  0  0  0  0  0
   -2.1469   -1.8625   -1.5508 H   0  0  0  0  0  0  0  0  0  0  0  0
   -1.3576   -0.5765   -2.4361 H   0  0  0  0  0  0  0  0  0  0  0  0
   -0.3774   -1.7776   -1.5697 H   0  0  0  0  0  0  0  0  0  0  0  0
   -0.6730    1.4796   -1.3250 H   0  0  0  0  0  0  0  0  0  0  0  0
    1.3323    1.3202   -2.5334 H   0  0  0  0  0  0  0  0  0  0  0  0
    3.7256    0.7466   -2.6821 H   0  0  0  0  0  0  0  0  0  0  0  0
    4.8771   -0.3260   -0.7659 H   0  0  0  0  0  0  0  0  0  0  0  0
    3.6205   -0.8259    1.3138 H   0  0  0  0  0  0  0  0  0  0  0  0
    1.2237   -0.2604    1.4842 H   0  0  0  0  0  0  0  0  0  0  0  0
   -0.0642    2.7163    0.6613 H   0  0  0  0  0  0  0  0  0  0  0  0
   -2.5049    0.2303    2.6689 H   0  0  0  0  0  0  0  0  0  0  0  0
  1  2  1  0
  2  3  2  0
  3  4  1  0
  3  5  1  0
  5  6  1  0
  6  7  2  0
  7  8  1  0
  8  9  2  0
  9 10  1  0
 10 11  2  0
  5 12  1  0
 12 13  1  0
 13 14  2  0
 13 15  1  0
 15  2  1  0
 11  6  1  0
  1 16  1  0
  1 17  1  0
  1 18  1  0
  4 19  1  0
  4 20  1  0
  4 21  1  0
  5 22  1  0
  7 23  1  0
  8 24  1  0
  9 25  1  0
 10 26  1  0
 11 27  1  0
 12 28  1  0
 15 29  1  0
M  END
$$$$
