
     RDKit          3D

 53 54  0  0  0  0  0  0  0  0999 V2000
   -6.7914   -2.8875    0.3620 C   0  0  0  0  0  0  0  0  0  0  0  0
   -5.6339   -2.1051   -0.2342 C   0  0  0  0  0  0  0  0  0  0  0  0
   -5.6402   -0.7243    0.3069 N   0  0  0  0  0  0  0  0  0  0  0  0
   -5.8840    0.3407   -0.6950 C   0  0  0  0  0  0  0  0  0  0  0  0
   -7.3470    0.3551   -1.1085 C   0  0  0  0  0  0  0  0  0  0  0  0
   -4.5422   -0.3770    1.5613 S   0  0  0  0  0  6  0  0  0  0  0  0
   -4.4898   -1.5186    2.4503 O   0  0  0  0  0  0  0  0  0  0  0  0
   -4.8224    0.9505    2.0654 O   0  0  0  0  0  0  0  0  0  0  0  0
   -2.9711   -0.2941    0.7154 C   0  0  0  0  0  0  0  0  0  0  0  0
   -2.1374   -1.4167    0.6849 C   0  0  0  0  0  0  0  0  0  0  0  0
   -0.8913   -1.3388    0.0553 C   0  0  0  0  0  0  0  0  0  0  0  0
   -0.4706   -0.1349   -0.5294 C   0  0  0  0  0  0  0  0  0  0  0  0
    0.8447    0.0036   -1.2108 C   0  0  0  0  0  0  0  0  0  0  0  0
    1.1821    0.9975   -1.8308 O   0  0  0  0  0  0  0  0  0  0  0  0
    1.6052   -1.1032   -1.0178 O   0  0  0  0  0  0  0  0  0  0  0  0
    2.8703   -1.0736   -1.6845 C   0  0  0  0  0  0  0  0  0  0  0  0
    3.9285   -0.2118   -0.9924 C   0  0  0  0  0  0  0  0  0  0  0  0
    4.8965    0.2646   -1.5842 O   0  0  0  0  0  0  0  0  0  0  0  0
    3.7662   -0.0793    0.3732 N   0  0  0  0  0  0  0  0  0  0  0  0
    4.6006    0.8447    1.1199 C   0  0  0  0  0  0  0  0  0  0  0  0
    6.0691    0.4001    1.2047 C   0  0  0  0  0  0  0  0  0  0  0  0
    6.9788    1.5217    1.1005 N   0  0  0  0  0  0  0  0  0  0  0  0
    7.5642    1.9633   -0.0625 C   0  0  0  0  0  0  0  0  0  0  0  0
    7.3242    1.3711   -1.2663 O   0  0  0  0  0  0  0  0  0  0  0  0
    8.3801    3.0101    0.0921 C   0  0  0  0  0  0  0  0  0  0  0  0
    8.4369    3.5369    1.7451 S   0  0  0  0  0  0  0  0  0  0  0  0
    7.2958    2.2708    2.2258 C   0  0  0  0  0  0  0  0  0  0  0  0
    6.8747    2.1247    3.3620 O   0  0  0  0  0  0  0  0  0  0  0  0
   -1.3065    0.9907   -0.4740 C   0  0  0  0  0  0  0  0  0  0  0  0
   -2.5510    0.9167    0.1568 C   0  0  0  0  0  0  0  0  0  0  0  0
   -7.7516   -2.4175    0.1265 H   0  0  0  0  0  0  0  0  0  0  0  0
   -6.7098   -2.9482    1.4520 H   0  0  0  0  0  0  0  0  0  0  0  0
   -6.8049   -3.9072   -0.0353 H   0  0  0  0  0  0  0  0  0  0  0  0
   -5.7193   -2.0959   -1.3264 H   0  0  0  0  0  0  0  0  0  0  0  0
   -4.6932   -2.6165   -0.0114 H   0  0  0  0  0  0  0  0  0  0  0  0
   -5.6478    1.3259   -0.2811 H   0  0  0  0  0  0  0  0  0  0  0  0
   -5.2408    0.1915   -1.5692 H   0  0  0  0  0  0  0  0  0  0  0  0
   -7.6298   -0.5696   -1.6209 H   0  0  0  0  0  0  0  0  0  0  0  0
   -7.5383    1.1877   -1.7928 H   0  0  0  0  0  0  0  0  0  0  0  0
   -7.9996    0.4706   -0.2368 H   0  0  0  0  0  0  0  0  0  0  0  0
   -2.4456   -2.3500    1.1531 H   0  0  0  0  0  0  0  0  0  0  0  0
   -0.2607   -2.2248    0.0330 H   0  0  0  0  0  0  0  0  0  0  0  0
    3.2495   -2.1006   -1.7087 H   0  0  0  0  0  0  0  0  0  0  0  0
    2.7500   -0.7399   -2.7219 H   0  0  0  0  0  0  0  0  0  0  0  0
    2.8656   -0.3368    0.7611 H   0  0  0  0  0  0  0  0  0  0  0  0
    4.5087    1.8246    0.6361 H   0  0  0  0  0  0  0  0  0  0  0  0
    4.1756    0.9315    2.1257 H   0  0  0  0  0  0  0  0  0  0  0  0
    6.2276   -0.0873    2.1754 H   0  0  0  0  0  0  0  0  0  0  0  0
    6.3357   -0.3503    0.4526 H   0  0  0  0  0  0  0  0  0  0  0  0
    6.4222    0.9837   -1.2726 H   0  0  0  0  0  0  0  0  0  0  0  0
    8.9306    3.4910   -0.7039 H   0  0  0  0  0  0  0  0  0  0  0  0
   -0.9862    1.9352   -0.9128 H   0  0  0  0  0  0  0  0  0  0  0  0
   -3.1772    1.8049    0.2162 H   0  0  0  0  0  0  0  0  0  0  0  0
  1  2  1  0
  2  3  1  0
  3  4  1  0
  4  5  1  0
  3  6  1  0
  6  7  2  0
  6  8  2  0
  6  9  1  0
  9 10  2  0
 10 11  1  0
 11 12  2  0
 12 13  1  0
 13 14  2  0
 13 15  1  0
 15 16  1  0
 16 17  1  0
 17 18  2  0
 17 19  1  0
 19 20  1  0
 20 21  1  0
 21 22  1  0
 22 23  1  0
 23 24  1  0
 23 25  2  0
 25 26  1  0
 26 27  1  0
 27 28  2  0
 12 29  1  0
 29 30  2  0
 30  9  1  0
 27 22  1  0
  1 31  1  0
  1 32  1  0
  1 33  1  0
  2 34  1  0
  2 35  1  0
  4 36  1  0
  4 37  1  0
  5 38  1  0
  5 39  1  0
  5 40  1  0
 10 41  1  0
 11 42  1  0
 16 43  1  0
 16 44  1  0
 19 45  1  0
 20 46  1  0
 20 47  1  0
 21 48  1  0
 21 49  1  0
 24 50  1  0
 25 51  1  0
 29 52  1  0
 30 53  1  0
M  END
$$$$
