
     RDKit          3D

 50 52  0  0  0  0  0  0  0  0999 V2000
    7.7389    2.4537   -0.8682 C   0  0  0  0  0  0  0  0  0  0  0  0
    6.7428    2.3454    0.1405 O   0  0  0  0  0  0  0  0  0  0  0  0
    5.5356    1.8274   -0.2362 C   0  0  0  0  0  0  0  0  0  0  0  0
    5.1715    1.4433   -1.5245 C   0  0  0  0  0  0  0  0  0  0  0  0
    3.8921    0.9265   -1.7687 C   0  0  0  0  0  0  0  0  0  0  0  0
    2.9616    0.7838   -0.7313 C   0  0  0  0  0  0  0  0  0  0  0  0
    1.7016    0.2506   -1.0672 N   0  0  0  0  0  0  0  0  0  0  0  0
    0.6459   -0.0394   -0.2116 C   0  0  0  0  0  0  0  0  0  0  0  0
    0.6480    0.0934    1.0123 O   0  0  0  0  0  0  0  0  0  0  0  0
   -0.5788   -0.6449   -0.9544 C   0  0  0  0  0  0  0  0  0  0  0  0
   -1.7658   -0.5200   -0.1222 N   0  0  0  0  0  0  0  0  0  0  0  0
   -2.5644    0.5977   -0.2259 C   0  0  0  0  0  0  0  0  0  0  0  0
   -2.4198    1.4446   -1.1001 O   0  0  0  0  0  0  0  0  0  0  0  0
   -3.6194    0.7550    0.8141 C   0  0  0  0  0  0  0  0  0  0  0  0
   -4.1004    2.0402    1.0870 C   0  0  0  0  0  0  0  0  0  0  0  0
   -5.0912    2.2321    2.0532 C   0  0  0  0  0  0  0  0  0  0  0  0
   -5.6252    1.1395    2.7458 C   0  0  0  0  0  0  0  0  0  0  0  0
   -6.6763    1.3366    3.7979 C   0  0  0  0  0  0  0  0  0  0  0  0
   -5.1480   -0.1468    2.4644 C   0  0  0  0  0  0  0  0  0  0  0  0
   -4.1551   -0.3416    1.4997 C   0  0  0  0  0  0  0  0  0  0  0  0
   -0.3679   -2.1048   -1.3214 C   0  0  0  0  0  0  0  0  0  0  0  0
    0.2533   -3.0103   -0.4456 C   0  0  0  0  0  0  0  0  0  0  0  0
    0.4192   -4.3485   -0.8077 C   0  0  0  0  0  0  0  0  0  0  0  0
   -0.0448   -4.8024   -2.0405 C   0  0  0  0  0  0  0  0  0  0  0  0
   -0.6825   -3.9210   -2.9108 C   0  0  0  0  0  0  0  0  0  0  0  0
   -0.8483   -2.5822   -2.5524 C   0  0  0  0  0  0  0  0  0  0  0  0
    3.3291    1.1746    0.5545 C   0  0  0  0  0  0  0  0  0  0  0  0
    4.6071    1.6927    0.7972 C   0  0  0  0  0  0  0  0  0  0  0  0
    8.6382    2.8734   -0.4069 H   0  0  0  0  0  0  0  0  0  0  0  0
    7.9993    1.4692   -1.2709 H   0  0  0  0  0  0  0  0  0  0  0  0
    7.4243    3.1364   -1.6644 H   0  0  0  0  0  0  0  0  0  0  0  0
    5.8548    1.5299   -2.3619 H   0  0  0  0  0  0  0  0  0  0  0  0
    3.6386    0.6382   -2.7861 H   0  0  0  0  0  0  0  0  0  0  0  0
    1.5669    0.0166   -2.0432 H   0  0  0  0  0  0  0  0  0  0  0  0
   -0.7175   -0.0579   -1.8716 H   0  0  0  0  0  0  0  0  0  0  0  0
   -1.6927   -0.9506    0.7911 H   0  0  0  0  0  0  0  0  0  0  0  0
   -3.7007    2.8977    0.5491 H   0  0  0  0  0  0  0  0  0  0  0  0
   -5.4444    3.2413    2.2557 H   0  0  0  0  0  0  0  0  0  0  0  0
   -6.2447    1.1827    4.7921 H   0  0  0  0  0  0  0  0  0  0  0  0
   -7.5001    0.6306    3.6505 H   0  0  0  0  0  0  0  0  0  0  0  0
   -7.0969    2.3472    3.7585 H   0  0  0  0  0  0  0  0  0  0  0  0
   -5.5552   -1.0074    2.9913 H   0  0  0  0  0  0  0  0  0  0  0  0
   -3.8308   -1.3551    1.2810 H   0  0  0  0  0  0  0  0  0  0  0  0
    0.6148   -2.6850    0.5294 H   0  0  0  0  0  0  0  0  0  0  0  0
    0.9069   -5.0388   -0.1234 H   0  0  0  0  0  0  0  0  0  0  0  0
    0.0827   -5.8454   -2.3187 H   0  0  0  0  0  0  0  0  0  0  0  0
   -1.0593   -4.2780   -3.8658 H   0  0  0  0  0  0  0  0  0  0  0  0
   -1.3674   -1.9135   -3.2367 H   0  0  0  0  0  0  0  0  0  0  0  0
    2.6482    1.0976    1.3958 H   0  0  0  0  0  0  0  0  0  0  0  0
    4.8761    1.9957    1.8057 H   0  0  0  0  0  0  0  0  0  0  0  0
  1  2  1  0
  2  3  1  0
  3  4  2  0
  4  5  1  0
  5  6  2  0
  6  7  1  0
  7  8  1  0
  8  9  2  0
  8 10  1  0
 10 11  1  0
 11 12  1  0
 12 13  2  0
 12 14  1  0
 14 15  2  0
 15 16  1  0
 16 17  2  0
 17 18  1  0
 17 19  1  0
 19 20  2  0
 10 21  1  0
 21 22  2  0
 22 23  1  0
 23 24  2  0
 24 25  1  0
 25 26  2  0
  6 27  1  0
 27 28  2  0
 28  3  1  0
 20 14  1  0
 26 21  1  0
  1 29  1  0
  1 30  1  0
  1 31  1  0
  4 32  1  0
  5 33  1  0
  7 34  1  0
 10 35  1  0
 11 36  1  0
 15 37  1  0
 16 38  1  0
 18 39  1  0
 18 40  1  0
 18 41  1  0
 19 42  1  0
 20 43  1  0
 22 44  1  0
 23 45  1  0
 24 46  1  0
 25 47  1  0
 26 48  1  0
 27 49  1  0
 28 50  1  0
M  END
$$$$
