
     RDKit          3D

 43 45  0  0  0  0  0  0  0  0999 V2000
   -5.2237    0.3439    2.3717 C   0  0  0  0  0  0  0  0  0  0  0  0
   -5.7482    1.1744    1.2959 N   0  0  0  0  0  0  0  0  0  0  0  0
   -7.0697    1.7364    1.5153 C   0  0  0  0  0  0  0  0  0  0  0  0
   -5.2479    1.1823   -0.0062 C   0  0  0  0  0  0  0  0  0  0  0  0
   -5.8899    1.5716   -0.9789 O   0  0  0  0  0  0  0  0  0  0  0  0
   -3.8609    0.7246   -0.2441 C   0  0  0  0  0  0  0  0  0  0  0  0
   -3.6237   -0.2529   -1.2115 C   0  0  0  0  0  0  0  0  0  0  0  0
   -2.3158   -0.6803   -1.4678 C   0  0  0  0  0  0  0  0  0  0  0  0
   -1.2388   -0.1212   -0.7746 C   0  0  0  0  0  0  0  0  0  0  0  0
    0.1029   -0.4926   -0.9743 N   0  0  0  0  0  0  0  0  0  0  0  0
    0.6124   -1.4592   -1.8238 C   0  0  0  0  0  0  0  0  0  0  0  0
   -0.0498   -2.1872   -2.5551 O   0  0  0  0  0  0  0  0  0  0  0  0
    2.0615   -1.5423   -1.7643 C   0  0  0  0  0  0  0  0  0  0  0  0
    2.9526   -2.3555   -2.4342 C   0  0  0  0  0  0  0  0  0  0  0  0
    4.2465   -1.9988   -1.9836 C   0  0  0  0  0  0  0  0  0  0  0  0
    4.0844   -0.9832   -1.0607 C   0  0  0  0  0  0  0  0  0  0  0  0
    5.0006   -0.1887   -0.2438 C   0  0  0  0  0  0  0  0  0  0  0  0
    6.3824   -0.4379   -0.2749 C   0  0  0  0  0  0  0  0  0  0  0  0
    7.2680    0.3190    0.5006 C   0  0  0  0  0  0  0  0  0  0  0  0
    6.7795    1.3351    1.3169 C   0  0  0  0  0  0  0  0  0  0  0  0
    7.8665    2.2666    2.2694 Cl  0  0  0  0  0  0  0  0  0  0  0  0
    5.4143    1.6003    1.3642 C   0  0  0  0  0  0  0  0  0  0  0  0
    4.5314    0.8417    0.5877 C   0  0  0  0  0  0  0  0  0  0  0  0
    2.7514   -0.7051   -0.9250 O   0  0  0  0  0  0  0  0  0  0  0  0
   -1.4867    0.8808    0.1754 C   0  0  0  0  0  0  0  0  0  0  0  0
   -2.7913    1.3087    0.4386 C   0  0  0  0  0  0  0  0  0  0  0  0
   -5.9751   -0.4102    2.6275 H   0  0  0  0  0  0  0  0  0  0  0  0
   -5.0374    0.9784    3.2427 H   0  0  0  0  0  0  0  0  0  0  0  0
   -4.3065   -0.1793    2.1005 H   0  0  0  0  0  0  0  0  0  0  0  0
   -7.3119    2.4911    0.7616 H   0  0  0  0  0  0  0  0  0  0  0  0
   -7.1025    2.2036    2.5039 H   0  0  0  0  0  0  0  0  0  0  0  0
   -7.8079    0.9304    1.4627 H   0  0  0  0  0  0  0  0  0  0  0  0
   -4.4531   -0.6819   -1.7698 H   0  0  0  0  0  0  0  0  0  0  0  0
   -2.1754   -1.4447   -2.2259 H   0  0  0  0  0  0  0  0  0  0  0  0
    0.8048   -0.0001   -0.4330 H   0  0  0  0  0  0  0  0  0  0  0  0
    2.6872   -3.1125   -3.1603 H   0  0  0  0  0  0  0  0  0  0  0  0
    5.1835   -2.4338   -2.3015 H   0  0  0  0  0  0  0  0  0  0  0  0
    6.7919   -1.2256   -0.9034 H   0  0  0  0  0  0  0  0  0  0  0  0
    8.3337    0.1085    0.4612 H   0  0  0  0  0  0  0  0  0  0  0  0
    5.0285    2.3937    1.9990 H   0  0  0  0  0  0  0  0  0  0  0  0
    3.4689    1.0690    0.6400 H   0  0  0  0  0  0  0  0  0  0  0  0
   -0.6682    1.3459    0.7192 H   0  0  0  0  0  0  0  0  0  0  0  0
   -2.9690    2.0991    1.1630 H   0  0  0  0  0  0  0  0  0  0  0  0
  1  2  1  0
  2  3  1  0
  2  4  1  0
  4  5  2  0
  4  6  1  0
  6  7  2  0
  7  8  1  0
  8  9  2  0
  9 10  1  0
 10 11  1  0
 11 12  2  0
 11 13  1  0
 13 14  2  0
 14 15  1  0
 15 16  2  0
 16 17  1  0
 17 18  2  0
 18 19  1  0
 19 20  2  0
 20 21  1  0
 20 22  1  0
 22 23  2  0
 16 24  1  0
  9 25  1  0
 25 26  2  0
 26  6  1  0
 24 13  1  0
 23 17  1  0
  1 27  1  0
  1 28  1  0
  1 29  1  0
  3 30  1  0
  3 31  1  0
  3 32  1  0
  7 33  1  0
  8 34  1  0
 10 35  1  0
 14 36  1  0
 15 37  1  0
 18 38  1  0
 19 39  1  0
 22 40  1  0
 23 41  1  0
 25 42  1  0
 26 43  1  0
M  END
$$$$
