
     RDKit          3D

 57 61  0  0  0  0  0  0  0  0999 V2000
   -6.4751   -3.6321   -0.4693 C   0  0  0  0  0  0  0  0  0  0  0  0
   -5.9123   -2.2420   -0.4446 C   0  0  0  0  0  0  0  0  0  0  0  0
   -4.6727   -1.9702   -1.0335 C   0  0  0  0  0  0  0  0  0  0  0  0
   -4.1594   -0.6714   -1.0371 C   0  0  0  0  0  0  0  0  0  0  0  0
   -4.8847    0.3827   -0.4649 C   0  0  0  0  0  0  0  0  0  0  0  0
   -4.3258    1.7830   -0.4568 C   0  0  0  0  0  0  0  0  0  0  0  0
   -3.6965    2.0970    0.8087 N   0  0  0  0  0  0  0  0  0  0  0  0
   -4.3475    2.8261    1.7499 N   0  0  0  0  0  0  0  0  0  0  0  0
   -3.5270    2.9709    2.7909 N   0  0  0  0  0  0  0  0  0  0  0  0
   -2.3613    2.3435    2.4767 C   0  0  0  0  0  0  0  0  0  0  0  0
   -1.1447    2.1855    3.2258 C   0  0  0  0  0  0  0  0  0  0  0  0
   -0.9297    2.6216    4.3510 O   0  0  0  0  0  0  0  0  0  0  0  0
   -0.1896    1.4623    2.5216 N   0  0  0  0  0  0  0  0  0  0  0  0
   -0.3816    0.9480    1.2404 C   0  0  0  0  0  0  0  0  0  0  0  0
    0.8219    0.2138    0.6724 C   0  0  0  0  0  0  0  0  0  0  0  0
    1.9127    1.2293    0.2814 C   0  0  0  0  0  0  0  0  0  0  0  0
    2.6560    0.8360   -0.9948 C   0  0  0  0  0  0  0  0  0  0  0  0
    2.9132   -0.6179   -0.9478 N   0  0  0  0  0  0  0  0  0  0  0  0
    4.1796   -1.1945   -1.9375 S   0  0  0  0  0  6  0  0  0  0  0  0
    4.2838   -2.6278   -1.7716 O   0  0  0  0  0  0  0  0  0  0  0  0
    3.9723   -0.6118   -3.2486 O   0  0  0  0  0  0  0  0  0  0  0  0
    5.6226   -0.4699   -1.2381 C   0  0  0  0  0  0  0  0  0  0  0  0
    6.4586    0.3371   -2.0171 C   0  0  0  0  0  0  0  0  0  0  0  0
    7.5992    0.9008   -1.4423 C   0  0  0  0  0  0  0  0  0  0  0  0
    7.9005    0.6569   -0.1007 C   0  0  0  0  0  0  0  0  0  0  0  0
    7.0617   -0.1516    0.6683 C   0  0  0  0  0  0  0  0  0  0  0  0
    5.9239   -0.7142    0.0952 C   0  0  0  0  0  0  0  0  0  0  0  0
    5.1317   -1.4738    0.8633 F   0  0  0  0  0  0  0  0  0  0  0  0
    1.6738   -1.4392   -1.0380 C   0  0  0  0  0  0  0  0  0  0  0  0
    0.4540   -0.6833   -0.5120 C   0  0  0  0  0  0  0  0  0  0  0  0
   -1.4741    1.1068    0.5458 N   0  0  0  0  0  0  0  0  0  0  0  0
   -2.4290    1.7958    1.2183 C   0  0  0  0  0  0  0  0  0  0  0  0
   -6.1288    0.1090    0.1192 C   0  0  0  0  0  0  0  0  0  0  0  0
   -6.6406   -1.1905    0.1221 C   0  0  0  0  0  0  0  0  0  0  0  0
   -7.0150   -3.8005   -1.4061 H   0  0  0  0  0  0  0  0  0  0  0  0
   -5.6767   -4.3762   -0.3801 H   0  0  0  0  0  0  0  0  0  0  0  0
   -7.1628   -3.7924    0.3676 H   0  0  0  0  0  0  0  0  0  0  0  0
   -4.0959   -2.7716   -1.4900 H   0  0  0  0  0  0  0  0  0  0  0  0
   -3.1849   -0.4898   -1.4862 H   0  0  0  0  0  0  0  0  0  0  0  0
   -5.1192    2.5172   -0.6403 H   0  0  0  0  0  0  0  0  0  0  0  0
   -3.5777    1.9177   -1.2466 H   0  0  0  0  0  0  0  0  0  0  0  0
    0.6769    1.3117    3.0174 H   0  0  0  0  0  0  0  0  0  0  0  0
    1.2183   -0.4254    1.4742 H   0  0  0  0  0  0  0  0  0  0  0  0
    2.6305    1.2975    1.1097 H   0  0  0  0  0  0  0  0  0  0  0  0
    1.5019    2.2384    0.1541 H   0  0  0  0  0  0  0  0  0  0  0  0
    3.5876    1.4076   -1.0446 H   0  0  0  0  0  0  0  0  0  0  0  0
    2.0661    1.0881   -1.8837 H   0  0  0  0  0  0  0  0  0  0  0  0
    6.2341    0.5257   -3.0650 H   0  0  0  0  0  0  0  0  0  0  0  0
    8.2573    1.5267   -2.0417 H   0  0  0  0  0  0  0  0  0  0  0  0
    8.7918    1.0939    0.3443 H   0  0  0  0  0  0  0  0  0  0  0  0
    7.2896   -0.3491    1.7117 H   0  0  0  0  0  0  0  0  0  0  0  0
    1.8259   -2.3390   -0.4307 H   0  0  0  0  0  0  0  0  0  0  0  0
    1.4838   -1.7512   -2.0709 H   0  0  0  0  0  0  0  0  0  0  0  0
   -0.3288   -1.3990   -0.2326 H   0  0  0  0  0  0  0  0  0  0  0  0
    0.0303   -0.0763   -1.3235 H   0  0  0  0  0  0  0  0  0  0  0  0
   -6.7074    0.9068    0.5826 H   0  0  0  0  0  0  0  0  0  0  0  0
   -7.6114   -1.3768    0.5766 H   0  0  0  0  0  0  0  0  0  0  0  0
  1  2  1  0
  2  3  2  0
  3  4  1  0
  4  5  2  0
  5  6  1  0
  6  7  1  0
  7  8  1  0
  8  9  2  0
  9 10  1  0
 10 11  1  0
 11 12  2  0
 11 13  1  0
 13 14  1  0
 14 15  1  0
 15 16  1  0
 16 17  1  0
 17 18  1  0
 18 19  1  0
 19 20  2  0
 19 21  2  0
 19 22  1  0
 22 23  2  0
 23 24  1  0
 24 25  2  0
 25 26  1  0
 26 27  2  0
 27 28  1  0
 18 29  1  0
 29 30  1  0
 14 31  2  0
 31 32  1  0
  5 33  1  0
 33 34  2  0
 34  2  1  0
 32  7  1  0
 32 10  2  0
 30 15  1  0
 27 22  1  0
  1 35  1  0
  1 36  1  0
  1 37  1  0
  3 38  1  0
  4 39  1  0
  6 40  1  0
  6 41  1  0
 13 42  1  0
 15 43  1  0
 16 44  1  0
 16 45  1  0
 17 46  1  0
 17 47  1  0
 23 48  1  0
 24 49  1  0
 25 50  1  0
 26 51  1  0
 29 52  1  0
 29 53  1  0
 30 54  1  0
 30 55  1  0
 33 56  1  0
 34 57  1  0
M  END
$$$$
