
     RDKit          3D

 42 44  0  0  0  0  0  0  0  0999 V2000
   -2.1570    0.7395   -2.4680 C   0  0  0  0  0  0  0  0  0  0  0  0
   -3.1287    1.1392   -1.3763 C   0  0  0  0  0  0  0  0  0  0  0  0
   -3.6776    2.2424   -1.4582 O   0  0  0  0  0  0  0  0  0  0  0  0
   -3.3898    0.1882   -0.3645 N   0  0  0  0  0  0  0  0  0  0  0  0
   -2.4272   -0.7205    0.0918 C   0  0  0  0  0  0  0  0  0  0  0  0
   -1.0935   -0.5662    0.0648 C   0  0  0  0  0  0  0  0  0  0  0  0
   -0.1843   -1.5725    0.5761 C   0  0  0  0  0  0  0  0  0  0  0  0
    1.1587   -1.5336    0.5878 C   0  0  0  0  0  0  0  0  0  0  0  0
    2.0133   -0.4770    0.0793 C   0  0  0  0  0  0  0  0  0  0  0  0
    3.3545   -0.4514    0.1072 C   0  0  0  0  0  0  0  0  0  0  0  0
    4.4286   -1.6543    0.7559 S   0  0  0  0  0  0  0  0  0  0  0  0
    5.8535   -0.6973    0.3169 C   0  0  0  0  0  0  0  0  0  0  0  0
    7.1777   -1.0460    0.5418 C   0  0  0  0  0  0  0  0  0  0  0  0
    8.1867   -0.1687    0.1287 C   0  0  0  0  0  0  0  0  0  0  0  0
    7.8676    1.0432   -0.5023 C   0  0  0  0  0  0  0  0  0  0  0  0
    6.5354    1.3912   -0.7272 C   0  0  0  0  0  0  0  0  0  0  0  0
    5.5490    0.5072   -0.3096 C   0  0  0  0  0  0  0  0  0  0  0  0
    4.1042    0.7100   -0.4645 C   0  0  0  0  0  0  0  0  0  0  0  0
    3.6103    1.6929   -0.9904 O   0  0  0  0  0  0  0  0  0  0  0  0
   -4.7201    0.1700    0.2266 C   0  0  0  0  0  0  0  0  0  0  0  0
   -5.8410    0.6588   -0.4648 C   0  0  0  0  0  0  0  0  0  0  0  0
   -7.1211    0.6172    0.1003 C   0  0  0  0  0  0  0  0  0  0  0  0
   -7.3081    0.0858    1.3716 C   0  0  0  0  0  0  0  0  0  0  0  0
   -6.2150   -0.4009    2.0796 C   0  0  0  0  0  0  0  0  0  0  0  0
   -4.9358   -0.3596    1.5129 C   0  0  0  0  0  0  0  0  0  0  0  0
   -2.5579    1.0846   -3.4270 H   0  0  0  0  0  0  0  0  0  0  0  0
   -1.1899    1.2201   -2.3044 H   0  0  0  0  0  0  0  0  0  0  0  0
   -2.0424   -0.3439   -2.5476 H   0  0  0  0  0  0  0  0  0  0  0  0
   -2.8378   -1.6178    0.5508 H   0  0  0  0  0  0  0  0  0  0  0  0
   -0.6583    0.3539   -0.3066 H   0  0  0  0  0  0  0  0  0  0  0  0
   -0.6504   -2.4626    1.0005 H   0  0  0  0  0  0  0  0  0  0  0  0
    1.6629   -2.3957    1.0242 H   0  0  0  0  0  0  0  0  0  0  0  0
    1.5151    0.3788   -0.3724 H   0  0  0  0  0  0  0  0  0  0  0  0
    7.4337   -1.9822    1.0297 H   0  0  0  0  0  0  0  0  0  0  0  0
    9.2300   -0.4282    0.2983 H   0  0  0  0  0  0  0  0  0  0  0  0
    8.6636    1.7148   -0.8175 H   0  0  0  0  0  0  0  0  0  0  0  0
    6.2737    2.3262   -1.2143 H   0  0  0  0  0  0  0  0  0  0  0  0
   -5.7516    1.0686   -1.4677 H   0  0  0  0  0  0  0  0  0  0  0  0
   -7.9692    1.0042   -0.4589 H   0  0  0  0  0  0  0  0  0  0  0  0
   -8.3015    0.0591    1.8113 H   0  0  0  0  0  0  0  0  0  0  0  0
   -6.3518   -0.8034    3.0801 H   0  0  0  0  0  0  0  0  0  0  0  0
   -4.1090   -0.7139    2.1221 H   0  0  0  0  0  0  0  0  0  0  0  0
  1  2  1  0
  2  3  2  0
  2  4  1  0
  4  5  1  0
  5  6  2  3
  6  7  1  0
  7  8  2  3
  8  9  1  0
  9 10  2  3
 10 11  1  0
 11 12  1  0
 12 13  2  0
 13 14  1  0
 14 15  2  0
 15 16  1  0
 16 17  2  0
 17 18  1  0
 18 19  2  0
  4 20  1  0
 20 21  2  0
 21 22  1  0
 22 23  2  0
 23 24  1  0
 24 25  2  0
 18 10  1  0
 25 20  1  0
 17 12  1  0
  1 26  1  0
  1 27  1  0
  1 28  1  0
  5 29  1  0
  6 30  1  0
  7 31  1  0
  8 32  1  0
  9 33  1  0
 13 34  1  0
 14 35  1  0
 15 36  1  0
 16 37  1  0
 21 38  1  0
 22 39  1  0
 23 40  1  0
 24 41  1  0
 25 42  1  0
M  END
$$$$
