
     RDKit          3D

 73 75  0  0  0  0  0  0  0  0999 V2000
   -1.8733   -2.8100   -0.7608 C   0  0  0  0  0  0  0  0  0  0  0  0
   -2.0001   -1.4224   -1.3826 C   0  0  0  0  0  0  0  0  0  0  0  0
   -2.9128   -0.4366   -0.6312 C   0  0  0  0  0  0  0  0  0  0  0  0
   -2.4211   -0.1090    1.0985 S   0  0  0  0  0  0  0  0  0  0  0  0
   -0.9545    0.8274    0.8969 C   0  0  0  0  0  0  0  0  0  0  0  0
   -0.7376    1.3727   -0.2552 N   0  0  0  0  0  0  0  0  0  0  0  0
    0.4372    2.1064   -0.4415 C   0  0  0  0  0  0  0  0  0  0  0  0
    0.7137    2.6250   -1.7091 C   0  0  0  0  0  0  0  0  0  0  0  0
    1.8906    3.3465   -1.9471 C   0  0  0  0  0  0  0  0  0  0  0  0
    2.2384    3.8841   -3.1623 O   0  0  0  0  0  0  0  0  0  0  0  0
    1.3684    3.6526   -4.2604 C   0  0  0  0  0  0  0  0  0  0  0  0
    2.8063    3.5555   -0.8942 C   0  0  0  0  0  0  0  0  0  0  0  0
    3.9379    4.2652   -1.2094 O   0  0  0  0  0  0  0  0  0  0  0  0
    4.9344    4.3961   -0.2048 C   0  0  0  0  0  0  0  0  0  0  0  0
    2.5226    3.0483    0.3756 C   0  0  0  0  0  0  0  0  0  0  0  0
    1.3410    2.3290    0.5873 C   0  0  0  0  0  0  0  0  0  0  0  0
    1.0213    1.7688    1.9090 C   0  0  0  0  0  0  0  0  0  0  0  0
    1.7474    2.0501    2.8600 O   0  0  0  0  0  0  0  0  0  0  0  0
   -0.1116    0.9571    1.9904 N   0  0  0  0  0  0  0  0  0  0  0  0
   -0.3073    0.2504    3.2682 C   0  0  0  0  0  0  0  0  0  0  0  0
    0.1494   -1.2209    3.2247 C   0  0  0  0  0  0  0  0  0  0  0  0
    1.5711   -1.4098    2.7476 C   0  0  0  0  0  0  0  0  0  0  0  0
    1.8273   -1.9422    1.4803 C   0  0  0  0  0  0  0  0  0  0  0  0
    3.1393   -2.0858    1.0213 C   0  0  0  0  0  0  0  0  0  0  0  0
    4.2172   -1.6923    1.8212 C   0  0  0  0  0  0  0  0  0  0  0  0
    5.5362   -1.7941    1.4519 O   0  0  0  0  0  0  0  0  0  0  0  0
    5.8194   -2.2602    0.1410 C   0  0  0  0  0  0  0  0  0  0  0  0
    3.9702   -1.1468    3.0962 C   0  0  0  0  0  0  0  0  0  0  0  0
    5.0754   -0.7773    3.8252 O   0  0  0  0  0  0  0  0  0  0  0  0
    4.8546    0.0424    4.9652 C   0  0  0  0  0  0  0  0  0  0  0  0
    2.6518   -1.0221    3.5531 C   0  0  0  0  0  0  0  0  0  0  0  0
   -4.3646   -0.9403   -0.6663 C   0  0  0  0  0  0  0  0  0  0  0  0
   -4.8502   -1.6950    0.1708 O   0  0  0  0  0  0  0  0  0  0  0  0
   -5.0773   -0.5205   -1.7765 N   0  0  0  0  0  0  0  0  0  0  0  0
   -6.4844   -0.8468   -1.9344 C   0  0  0  0  0  0  0  0  0  0  0  0
   -6.7397   -2.3235   -2.2569 C   0  0  0  0  0  0  0  0  0  0  0  0
   -8.1057   -2.5365   -2.6260 O   0  0  0  0  0  0  0  0  0  0  0  0
   -8.3287   -2.3899   -4.0221 C   0  0  0  0  0  0  0  0  0  0  0  0
   -2.8449   -3.3111   -0.6937 H   0  0  0  0  0  0  0  0  0  0  0  0
   -1.2225   -3.4357   -1.3823 H   0  0  0  0  0  0  0  0  0  0  0  0
   -1.4341   -2.7707    0.2403 H   0  0  0  0  0  0  0  0  0  0  0  0
   -0.9942   -0.9981   -1.4858 H   0  0  0  0  0  0  0  0  0  0  0  0
   -2.3814   -1.5452   -2.4055 H   0  0  0  0  0  0  0  0  0  0  0  0
   -2.9046    0.5244   -1.1595 H   0  0  0  0  0  0  0  0  0  0  0  0
   -0.0107    2.4434   -2.4953 H   0  0  0  0  0  0  0  0  0  0  0  0
    1.2745    2.5819   -4.4702 H   0  0  0  0  0  0  0  0  0  0  0  0
    1.8101    4.1261   -5.1425 H   0  0  0  0  0  0  0  0  0  0  0  0
    0.3888    4.1116   -4.0913 H   0  0  0  0  0  0  0  0  0  0  0  0
    5.7809    4.9331   -0.6424 H   0  0  0  0  0  0  0  0  0  0  0  0
    4.5661    4.9880    0.6388 H   0  0  0  0  0  0  0  0  0  0  0  0
    5.2957    3.4175    0.1264 H   0  0  0  0  0  0  0  0  0  0  0  0
    3.1982    3.1891    1.2135 H   0  0  0  0  0  0  0  0  0  0  0  0
   -1.3619    0.2984    3.5595 H   0  0  0  0  0  0  0  0  0  0  0  0
    0.2386    0.7682    4.0654 H   0  0  0  0  0  0  0  0  0  0  0  0
   -0.5234   -1.8066    2.5884 H   0  0  0  0  0  0  0  0  0  0  0  0
    0.0537   -1.6572    4.2276 H   0  0  0  0  0  0  0  0  0  0  0  0
    1.0075   -2.2500    0.8349 H   0  0  0  0  0  0  0  0  0  0  0  0
    3.2862   -2.5086    0.0332 H   0  0  0  0  0  0  0  0  0  0  0  0
    5.4786   -3.2922    0.0051 H   0  0  0  0  0  0  0  0  0  0  0  0
    6.9061   -2.2516    0.0110 H   0  0  0  0  0  0  0  0  0  0  0  0
    5.3891   -1.5967   -0.6171 H   0  0  0  0  0  0  0  0  0  0  0  0
    4.2880    0.9445    4.7079 H   0  0  0  0  0  0  0  0  0  0  0  0
    5.8319    0.3606    5.3422 H   0  0  0  0  0  0  0  0  0  0  0  0
    4.3617   -0.5238    5.7625 H   0  0  0  0  0  0  0  0  0  0  0  0
    2.4397   -0.6085    4.5340 H   0  0  0  0  0  0  0  0  0  0  0  0
   -4.7087    0.2421   -2.3299 H   0  0  0  0  0  0  0  0  0  0  0  0
   -6.8729   -0.2059   -2.7324 H   0  0  0  0  0  0  0  0  0  0  0  0
   -7.0172   -0.5684   -1.0183 H   0  0  0  0  0  0  0  0  0  0  0  0
   -6.0653   -2.6843   -3.0434 H   0  0  0  0  0  0  0  0  0  0  0  0
   -6.5481   -2.9358   -1.3697 H   0  0  0  0  0  0  0  0  0  0  0  0
   -9.3975   -2.5118   -4.2135 H   0  0  0  0  0  0  0  0  0  0  0  0
   -7.7866   -3.1639   -4.5737 H   0  0  0  0  0  0  0  0  0  0  0  0
   -8.0239   -1.3983   -4.3678 H   0  0  0  0  0  0  0  0  0  0  0  0
  1  2  1  0
  2  3  1  0
  3  4  1  0
  4  5  1  0
  5  6  2  0
  6  7  1  0
  7  8  2  0
  8  9  1  0
  9 10  1  0
 10 11  1  0
  9 12  2  0
 12 13  1  0
 13 14  1  0
 12 15  1  0
 15 16  2  0
 16 17  1  0
 17 18  2  0
 17 19  1  0
 19 20  1  0
 20 21  1  0
 21 22  1  0
 22 23  2  0
 23 24  1  0
 24 25  2  0
 25 26  1  0
 26 27  1  0
 25 28  1  0
 28 29  1  0
 29 30  1  0
 28 31  2  0
  3 32  1  0
 32 33  2  0
 32 34  1  0
 34 35  1  0
 35 36  1  0
 36 37  1  0
 37 38  1  0
 19  5  1  0
 31 22  1  0
 16  7  1  0
  1 39  1  0
  1 40  1  0
  1 41  1  0
  2 42  1  0
  2 43  1  0
  3 44  1  0
  8 45  1  0
 11 46  1  0
 11 47  1  0
 11 48  1  0
 14 49  1  0
 14 50  1  0
 14 51  1  0
 15 52  1  0
 20 53  1  0
 20 54  1  0
 21 55  1  0
 21 56  1  0
 23 57  1  0
 24 58  1  0
 27 59  1  0
 27 60  1  0
 27 61  1  0
 30 62  1  0
 30 63  1  0
 30 64  1  0
 31 65  1  0
 34 66  1  0
 35 67  1  0
 35 68  1  0
 36 69  1  0
 36 70  1  0
 38 71  1  0
 38 72  1  0
 38 73  1  0
M  END
$$$$
