
     RDKit          3D

 40 42  0  0  0  0  0  0  0  0999 V2000
   -5.9545    1.0809   -0.0139 C   0  0  0  0  0  0  0  0  0  0  0  0
   -5.3509   -0.0656    0.8181 C   0  0  0  0  0  0  0  0  0  0  0  0
   -5.8436    0.0913    2.2730 C   0  0  0  0  0  0  0  0  0  0  0  0
   -5.8623   -1.4174    0.2871 C   0  0  0  0  0  0  0  0  0  0  0  0
   -3.8307   -0.0138    0.7799 C   0  0  0  0  0  0  0  0  0  0  0  0
   -3.0569    0.1457    1.8372 N   0  0  0  0  0  0  0  0  0  0  0  0
   -1.7162    0.1552    1.5142 N   0  0  0  0  0  0  0  0  0  0  0  0
   -1.5149    0.0035    0.2254 C   0  0  0  0  0  0  0  0  0  0  0  0
   -0.2588   -0.0178   -0.3194 N   0  0  0  0  0  0  0  0  0  0  0  0
    0.0806   -0.1689   -1.6431 C   0  0  0  0  0  0  0  0  0  0  0  0
   -0.6857   -0.3135   -2.5914 O   0  0  0  0  0  0  0  0  0  0  0  0
    1.5949   -0.1434   -1.8745 C   0  0  0  0  0  0  0  0  0  0  0  0
    2.3018    0.0356   -0.6497 O   0  0  0  0  0  0  0  0  0  0  0  0
    3.6684    0.0760   -0.7206 C   0  0  0  0  0  0  0  0  0  0  0  0
    4.4337   -0.0428   -1.8965 C   0  0  0  0  0  0  0  0  0  0  0  0
    5.8328    0.0142   -1.8462 C   0  0  0  0  0  0  0  0  0  0  0  0
    6.4274    0.1892   -0.6165 C   0  0  0  0  0  0  0  0  0  0  0  0
    5.6839    0.3052    0.5323 C   0  0  0  0  0  0  0  0  0  0  0  0
    4.3065    0.2527    0.5129 C   0  0  0  0  0  0  0  0  0  0  0  0
    6.4590    0.4710    1.6372 O   0  0  0  0  0  0  0  0  0  0  0  0
    7.7771    0.4463    1.0505 C   0  0  0  0  0  0  0  0  0  0  0  0
    7.7636    0.2672   -0.3815 O   0  0  0  0  0  0  0  0  0  0  0  0
   -2.9381   -0.1620   -0.6901 S   0  0  0  0  0  0  0  0  0  0  0  0
   -5.5841    2.0555    0.3253 H   0  0  0  0  0  0  0  0  0  0  0  0
   -5.7088    0.9878   -1.0777 H   0  0  0  0  0  0  0  0  0  0  0  0
   -7.0477    1.0930    0.0655 H   0  0  0  0  0  0  0  0  0  0  0  0
   -6.9379    0.0571    2.3277 H   0  0  0  0  0  0  0  0  0  0  0  0
   -5.5209    1.0467    2.7038 H   0  0  0  0  0  0  0  0  0  0  0  0
   -5.4556   -0.7084    2.9151 H   0  0  0  0  0  0  0  0  0  0  0  0
   -6.9523   -1.4900    0.3773 H   0  0  0  0  0  0  0  0  0  0  0  0
   -5.6153   -1.5617   -0.7707 H   0  0  0  0  0  0  0  0  0  0  0  0
   -5.4247   -2.2542    0.8443 H   0  0  0  0  0  0  0  0  0  0  0  0
    0.4944    0.0927    0.3507 H   0  0  0  0  0  0  0  0  0  0  0  0
    1.8005    0.6911   -2.5547 H   0  0  0  0  0  0  0  0  0  0  0  0
    1.8651   -1.1032   -2.3296 H   0  0  0  0  0  0  0  0  0  0  0  0
    3.9720   -0.1807   -2.8693 H   0  0  0  0  0  0  0  0  0  0  0  0
    6.4317   -0.0759   -2.7458 H   0  0  0  0  0  0  0  0  0  0  0  0
    3.7391    0.3467    1.4321 H   0  0  0  0  0  0  0  0  0  0  0  0
    8.3463   -0.3749    1.5012 H   0  0  0  0  0  0  0  0  0  0  0  0
    8.2812    1.3919    1.2807 H   0  0  0  0  0  0  0  0  0  0  0  0
  1  2  1  0
  2  3  1  0
  2  4  1  0
  2  5  1  0
  5  6  2  0
  6  7  1  0
  7  8  2  0
  8  9  1  0
  9 10  1  0
 10 11  2  0
 10 12  1  0
 12 13  1  0
 13 14  1  0
 14 15  2  0
 15 16  1  0
 16 17  2  0
 17 18  1  0
 18 19  2  0
 18 20  1  0
 20 21  1  0
 21 22  1  0
  8 23  1  0
 23  5  1  0
 19 14  1  0
 22 17  1  0
  1 24  1  0
  1 25  1  0
  1 26  1  0
  3 27  1  0
  3 28  1  0
  3 29  1  0
  4 30  1  0
  4 31  1  0
  4 32  1  0
  9 33  1  0
 12 34  1  0
 12 35  1  0
 15 36  1  0
 16 37  1  0
 19 38  1  0
 21 39  1  0
 21 40  1  0
M  END
$$$$
