
     RDKit          3D

 61 65  0  0  0  0  0  0  0  0999 V2000
   -8.4061    3.9227   -0.7060 C   0  0  0  0  0  0  0  0  0  0  0  0
   -7.4166    2.8097   -0.5394 C   0  0  0  0  0  0  0  0  0  0  0  0
   -7.8532    1.4841   -0.5135 C   0  0  0  0  0  0  0  0  0  0  0  0
   -6.9342    0.4363   -0.3766 C   0  0  0  0  0  0  0  0  0  0  0  0
   -5.5522    0.6760   -0.2621 C   0  0  0  0  0  0  0  0  0  0  0  0
   -4.5996   -0.4488   -0.1234 C   0  0  0  0  0  0  0  0  0  0  0  0
   -3.3859   -0.3399    0.5340 C   0  0  0  0  0  0  0  0  0  0  0  0
   -2.5499   -1.4555    0.5725 C   0  0  0  0  0  0  0  0  0  0  0  0
   -1.2336   -1.2717    1.2213 C   0  0  0  0  0  0  0  0  0  0  0  0
   -1.2087   -1.0078    2.4152 O   0  0  0  0  0  0  0  0  0  0  0  0
   -0.1695   -1.3598    0.3405 N   0  0  0  0  0  0  0  0  0  0  0  0
    1.1999   -1.2434    0.6486 C   0  0  0  0  0  0  0  0  0  0  0  0
    1.6990   -1.1467    1.9506 C   0  0  0  0  0  0  0  0  0  0  0  0
    3.0734   -1.0320    2.1825 C   0  0  0  0  0  0  0  0  0  0  0  0
    3.9525   -0.9974    1.0999 C   0  0  0  0  0  0  0  0  0  0  0  0
    5.7004   -0.8380    1.3902 S   0  0  0  0  0  6  0  0  0  0  0  0
    6.3776   -1.1762    0.1573 O   0  0  0  0  0  0  0  0  0  0  0  0
    5.9979   -1.5077    2.6366 O   0  0  0  0  0  0  0  0  0  0  0  0
    5.8026    0.8290    1.6990 N   0  0  0  0  0  0  0  0  0  0  0  0
    6.9529    1.4469    1.0497 C   0  0  0  0  0  0  0  0  0  0  0  0
    8.1254    1.7003    1.6844 O   0  0  0  0  0  0  0  0  0  0  0  0
    8.9924    2.3330    0.8150 N   0  0  0  0  0  0  0  0  0  0  0  0
    8.3230    2.4612   -0.3366 C   0  0  0  0  0  0  0  0  0  0  0  0
    8.9698    3.0967   -1.5086 C   0  0  0  0  0  0  0  0  0  0  0  0
    7.0038    1.9351   -0.2371 C   0  0  0  0  0  0  0  0  0  0  0  0
    5.9538    1.9118   -1.2764 C   0  0  0  0  0  0  0  0  0  0  0  0
    3.4727   -1.1136   -0.2080 C   0  0  0  0  0  0  0  0  0  0  0  0
    2.0987   -1.2385   -0.4281 C   0  0  0  0  0  0  0  0  0  0  0  0
   -2.9352   -2.6865    0.0046 C   0  0  0  0  0  0  0  0  0  0  0  0
   -2.1689   -3.8796    0.0510 C   0  0  0  0  0  0  0  0  0  0  0  0
   -2.6353   -5.0533   -0.5386 C   0  0  0  0  0  0  0  0  0  0  0  0
   -3.8650   -5.0516   -1.1811 C   0  0  0  0  0  0  0  0  0  0  0  0
   -4.6254   -3.8800   -1.2206 C   0  0  0  0  0  0  0  0  0  0  0  0
   -4.1880   -2.6999   -0.6326 C   0  0  0  0  0  0  0  0  0  0  0  0
   -4.9818   -1.6173   -0.7005 N   0  0  0  0  0  0  0  0  0  0  0  0
   -5.1302    2.0185   -0.3057 C   0  0  0  0  0  0  0  0  0  0  0  0
   -6.0469    3.0699   -0.4443 C   0  0  0  0  0  0  0  0  0  0  0  0
   -9.2232    3.8179    0.0159 H   0  0  0  0  0  0  0  0  0  0  0  0
   -7.9406    4.9013   -0.5379 H   0  0  0  0  0  0  0  0  0  0  0  0
   -8.8179    3.9080   -1.7210 H   0  0  0  0  0  0  0  0  0  0  0  0
   -8.9120    1.2509   -0.6026 H   0  0  0  0  0  0  0  0  0  0  0  0
   -7.3082   -0.5867   -0.3607 H   0  0  0  0  0  0  0  0  0  0  0  0
   -3.0803    0.5837    1.0159 H   0  0  0  0  0  0  0  0  0  0  0  0
   -0.3983   -1.4880   -0.6391 H   0  0  0  0  0  0  0  0  0  0  0  0
    1.0386   -1.1642    2.8137 H   0  0  0  0  0  0  0  0  0  0  0  0
    3.4395   -0.9650    3.2039 H   0  0  0  0  0  0  0  0  0  0  0  0
    5.8995    0.9258    2.7129 H   0  0  0  0  0  0  0  0  0  0  0  0
    9.1803    2.3456   -2.2768 H   0  0  0  0  0  0  0  0  0  0  0  0
    9.9138    3.5807   -1.2365 H   0  0  0  0  0  0  0  0  0  0  0  0
    8.3160    3.8587   -1.9438 H   0  0  0  0  0  0  0  0  0  0  0  0
    6.0928    1.0561   -1.9428 H   0  0  0  0  0  0  0  0  0  0  0  0
    4.9576    1.8410   -0.8329 H   0  0  0  0  0  0  0  0  0  0  0  0
    5.9791    2.8217   -1.8852 H   0  0  0  0  0  0  0  0  0  0  0  0
    4.1525   -1.1003   -1.0564 H   0  0  0  0  0  0  0  0  0  0  0  0
    1.7417   -1.3148   -1.4522 H   0  0  0  0  0  0  0  0  0  0  0  0
   -1.2090   -3.9082    0.5654 H   0  0  0  0  0  0  0  0  0  0  0  0
   -2.0443   -5.9653   -0.4876 H   0  0  0  0  0  0  0  0  0  0  0  0
   -4.2430   -5.9605   -1.6437 H   0  0  0  0  0  0  0  0  0  0  0  0
   -5.5931   -3.8903   -1.7203 H   0  0  0  0  0  0  0  0  0  0  0  0
   -4.0734    2.2723   -0.2549 H   0  0  0  0  0  0  0  0  0  0  0  0
   -5.6777    4.0936   -0.4836 H   0  0  0  0  0  0  0  0  0  0  0  0
  1  2  1  0
  2  3  2  0
  3  4  1  0
  4  5  2  0
  5  6  1  0
  6  7  2  0
  7  8  1  0
  8  9  1  0
  9 10  2  0
  9 11  1  0
 11 12  1  0
 12 13  2  0
 13 14  1  0
 14 15  2  0
 15 16  1  0
 16 17  2  0
 16 18  2  0
 16 19  1  0
 19 20  1  0
 20 21  1  0
 21 22  1  0
 22 23  2  0
 23 24  1  0
 23 25  1  0
 25 26  1  0
 15 27  1  0
 27 28  2  0
  8 29  2  0
 29 30  1  0
 30 31  2  0
 31 32  1  0
 32 33  2  0
 33 34  1  0
 34 35  2  0
  5 36  1  0
 36 37  2  0
 37  2  1  0
 35  6  1  0
 28 12  1  0
 34 29  1  0
 25 20  2  0
  1 38  1  0
  1 39  1  0
  1 40  1  0
  3 41  1  0
  4 42  1  0
  7 43  1  0
 11 44  1  0
 13 45  1  0
 14 46  1  0
 19 47  1  0
 24 48  1  0
 24 49  1  0
 24 50  1  0
 26 51  1  0
 26 52  1  0
 26 53  1  0
 27 54  1  0
 28 55  1  0
 30 56  1  0
 31 57  1  0
 32 58  1  0
 33 59  1  0
 36 60  1  0
 37 61  1  0
M  END
$$$$
