
     RDKit          3D

 37 38  0  0  0  0  0  0  0  0999 V2000
    5.1425   -0.9033   -1.0338 C   0  0  0  0  0  0  0  0  0  0  0  0
    3.8182   -1.4456   -0.5273 C   0  0  0  0  0  0  0  0  0  0  0  0
    3.0401   -0.4340    0.1601 N   0  0  0  0  0  0  0  0  0  0  0  0
    2.0368    0.3202   -0.3670 C   0  0  0  0  0  0  0  0  0  0  0  0
    1.5904    1.1442    0.6475 C   0  0  0  0  0  0  0  0  0  0  0  0
    0.5051    2.1571    0.5792 C   0  0  0  0  0  0  0  0  0  0  0  0
   -0.7621    1.4615    0.6310 N   0  0  0  0  0  0  0  0  0  0  0  0
   -1.4857    1.2131   -0.5144 C   0  0  0  0  0  0  0  0  0  0  0  0
   -1.1914    1.6468   -1.6215 O   0  0  0  0  0  0  0  0  0  0  0  0
   -2.6738    0.3296   -0.3636 C   0  0  0  0  0  0  0  0  0  0  0  0
   -3.4113    0.2798    0.8285 C   0  0  0  0  0  0  0  0  0  0  0  0
   -4.5273   -0.5551    0.9314 C   0  0  0  0  0  0  0  0  0  0  0  0
   -4.9169   -1.3396   -0.1551 C   0  0  0  0  0  0  0  0  0  0  0  0
   -4.1863   -1.2788   -1.3501 C   0  0  0  0  0  0  0  0  0  0  0  0
   -4.5976   -2.1022   -2.4935 N   0  0  0  0  0  4  0  0  0  0  0  0
   -3.8478   -2.1378   -3.4787 O   0  0  0  0  0  0  0  0  0  0  0  0
   -5.6685   -2.7191   -2.4014 O   0  0  0  0  0  1  0  0  0  0  0  0
   -3.0682   -0.4439   -1.4628 C   0  0  0  0  0  0  0  0  0  0  0  0
    2.4064    0.7974    1.7604 C   0  0  0  0  0  0  0  0  0  0  0  0
    2.3788    1.3681    3.1301 C   0  0  0  0  0  0  0  0  0  0  0  0
    3.2779   -0.1721    1.4571 N   0  0  0  0  0  0  0  0  0  0  0  0
    5.7599   -0.5328   -0.2087 H   0  0  0  0  0  0  0  0  0  0  0  0
    4.9873   -0.0743   -1.7326 H   0  0  0  0  0  0  0  0  0  0  0  0
    5.7013   -1.6881   -1.5527 H   0  0  0  0  0  0  0  0  0  0  0  0
    3.9778   -2.2737    0.1721 H   0  0  0  0  0  0  0  0  0  0  0  0
    3.2148   -1.8219   -1.3606 H   0  0  0  0  0  0  0  0  0  0  0  0
    1.7221    0.2220   -1.3976 H   0  0  0  0  0  0  0  0  0  0  0  0
    0.5870    2.7584   -0.3320 H   0  0  0  0  0  0  0  0  0  0  0  0
    0.5397    2.8327    1.4394 H   0  0  0  0  0  0  0  0  0  0  0  0
   -0.9210    0.8829    1.4431 H   0  0  0  0  0  0  0  0  0  0  0  0
   -3.1468    0.9065    1.6766 H   0  0  0  0  0  0  0  0  0  0  0  0
   -5.0994   -0.5873    1.8567 H   0  0  0  0  0  0  0  0  0  0  0  0
   -5.7891   -1.9840   -0.0584 H   0  0  0  0  0  0  0  0  0  0  0  0
   -2.4997   -0.3864   -2.3903 H   0  0  0  0  0  0  0  0  0  0  0  0
    2.6591    2.4259    3.1062 H   0  0  0  0  0  0  0  0  0  0  0  0
    3.0732    0.8484    3.7984 H   0  0  0  0  0  0  0  0  0  0  0  0
    1.3745    1.2854    3.5576 H   0  0  0  0  0  0  0  0  0  0  0  0
  1  2  1  0
  2  3  1  0
  3  4  1  0
  4  5  2  0
  5  6  1  0
  6  7  1  0
  7  8  1  0
  8  9  2  0
  8 10  1  0
 10 11  2  0
 11 12  1  0
 12 13  2  0
 13 14  1  0
 14 15  1  0
 15 16  2  0
 15 17  1  0
 14 18  2  0
  5 19  1  0
 19 20  1  0
 19 21  2  0
 21  3  1  0
 18 10  1  0
  1 22  1  0
  1 23  1  0
  1 24  1  0
  2 25  1  0
  2 26  1  0
  4 27  1  0
  6 28  1  0
  6 29  1  0
  7 30  1  0
 11 31  1  0
 12 32  1  0
 13 33  1  0
 18 34  1  0
 20 35  1  0
 20 36  1  0
 20 37  1  0
M  CHG  2  15   1  17  -1
M  END
$$$$
