
     RDKit          3D

 61 67  0  0  0  0  0  0  0  0999 V2000
    3.3690   -2.7025   -1.8850 O   0  0  0  0  0  0  0  0  0  0  0  0
    3.1517   -1.7072   -1.1980 C   0  0  0  0  0  0  0  0  0  0  0  0
    4.3078   -1.0586   -0.5480 C   0  0  0  0  0  0  0  0  0  0  0  0
    4.3785   -0.9851    0.8598 C   0  0  0  0  0  0  0  0  0  0  0  0
    5.4822   -0.3886    1.4756 C   0  0  0  0  0  0  0  0  0  0  0  0
    6.4835    0.0988    0.6602 C   0  0  0  0  0  0  0  0  0  0  0  0
    6.4183    0.0051   -0.7123 C   0  0  0  0  0  0  0  0  0  0  0  0
    5.3462   -0.5765   -1.3524 C   0  0  0  0  0  0  0  0  0  0  0  0
    7.5103    0.5417   -1.3205 O   0  0  0  0  0  0  0  0  0  0  0  0
    8.2832    0.9604   -0.1758 C   0  0  0  0  0  0  0  0  0  0  0  0
    7.6249    0.7052    1.0834 O   0  0  0  0  0  0  0  0  0  0  0  0
    1.8774   -1.1773   -1.0009 N   0  0  0  0  0  0  0  0  0  0  0  0
    0.7645   -1.9011   -1.5991 C   0  0  0  0  0  0  0  0  0  0  0  0
   -0.5880   -1.2384   -1.3407 C   0  0  0  0  0  0  0  0  0  0  0  0
   -0.7356   -0.8072    0.1394 C   0  0  0  0  0  0  0  0  0  0  0  0
    0.4674    0.0959    0.5642 C   0  0  0  0  0  0  0  0  0  0  0  0
    1.5871    0.1489   -0.4733 C   0  0  0  0  0  0  0  0  0  0  0  0
   -0.5834   -1.9915    0.9711 O   0  0  0  0  0  0  0  0  0  0  0  0
   -1.6694   -2.7972    1.1403 C   0  0  0  0  0  0  0  0  0  0  0  0
   -1.4179   -4.0553    1.6910 C   0  0  0  0  0  0  0  0  0  0  0  0
   -2.4663   -4.9579    1.8791 C   0  0  0  0  0  0  0  0  0  0  0  0
   -3.7598   -4.5938    1.5184 C   0  0  0  0  0  0  0  0  0  0  0  0
   -4.7618   -5.4644    1.6940 F   0  0  0  0  0  0  0  0  0  0  0  0
   -4.0273   -3.3419    0.9806 C   0  0  0  0  0  0  0  0  0  0  0  0
   -2.9726   -2.4423    0.8042 C   0  0  0  0  0  0  0  0  0  0  0  0
   -3.2185   -1.1040    0.2509 C   0  0  0  0  0  0  0  0  0  0  0  0
   -4.2835   -0.8625   -0.3107 O   0  0  0  0  0  0  0  0  0  0  0  0
   -2.0886   -0.0949    0.4156 C   0  0  0  0  0  0  0  0  0  0  0  0
   -2.3360    1.1509   -0.4250 C   0  0  0  0  0  0  0  0  0  0  0  0
   -2.9574    2.0139    0.6205 C   0  0  0  0  0  0  0  0  0  0  0  0
   -3.6458    3.2841    0.2884 C   0  0  0  0  0  0  0  0  0  0  0  0
   -3.6715    3.7855   -1.0192 C   0  0  0  0  0  0  0  0  0  0  0  0
   -4.3191    4.9952   -1.2929 C   0  0  0  0  0  0  0  0  0  0  0  0
   -4.9406    5.7020   -0.2641 C   0  0  0  0  0  0  0  0  0  0  0  0
   -5.7339    7.1888   -0.6068 Cl  0  0  0  0  0  0  0  0  0  0  0  0
   -4.9252    5.2083    1.0390 C   0  0  0  0  0  0  0  0  0  0  0  0
   -4.2768    4.0013    1.3154 C   0  0  0  0  0  0  0  0  0  0  0  0
   -2.8130    1.5875    1.8348 N   0  0  0  0  0  0  0  0  0  0  0  0
   -2.1217    0.3579    1.7798 O   0  0  0  0  0  0  0  0  0  0  0  0
    3.5770   -1.3995    1.4676 H   0  0  0  0  0  0  0  0  0  0  0  0
    5.5565   -0.3184    2.5549 H   0  0  0  0  0  0  0  0  0  0  0  0
    5.3121   -0.6614   -2.4326 H   0  0  0  0  0  0  0  0  0  0  0  0
    8.4776    2.0367   -0.2582 H   0  0  0  0  0  0  0  0  0  0  0  0
    9.2417    0.4274   -0.1863 H   0  0  0  0  0  0  0  0  0  0  0  0
    0.7770   -2.9234   -1.2014 H   0  0  0  0  0  0  0  0  0  0  0  0
    0.9387   -1.9752   -2.6796 H   0  0  0  0  0  0  0  0  0  0  0  0
   -1.3710   -1.9460   -1.6358 H   0  0  0  0  0  0  0  0  0  0  0  0
   -0.6906   -0.3669   -1.9987 H   0  0  0  0  0  0  0  0  0  0  0  0
    0.8895   -0.2735    1.5086 H   0  0  0  0  0  0  0  0  0  0  0  0
    0.1577    1.1279    0.7608 H   0  0  0  0  0  0  0  0  0  0  0  0
    1.2906    0.7761   -1.3235 H   0  0  0  0  0  0  0  0  0  0  0  0
    2.4686    0.6280   -0.0436 H   0  0  0  0  0  0  0  0  0  0  0  0
   -0.4041   -4.3379    1.9657 H   0  0  0  0  0  0  0  0  0  0  0  0
   -2.2819   -5.9416    2.3007 H   0  0  0  0  0  0  0  0  0  0  0  0
   -5.0462   -3.0759    0.7141 H   0  0  0  0  0  0  0  0  0  0  0  0
   -2.9903    0.9892   -1.2855 H   0  0  0  0  0  0  0  0  0  0  0  0
   -1.4156    1.6377   -0.7626 H   0  0  0  0  0  0  0  0  0  0  0  0
   -3.1979    3.2576   -1.8409 H   0  0  0  0  0  0  0  0  0  0  0  0
   -4.3356    5.3808   -2.3099 H   0  0  0  0  0  0  0  0  0  0  0  0
   -5.4184    5.7519    1.8430 H   0  0  0  0  0  0  0  0  0  0  0  0
   -4.2738    3.6228    2.3377 H   0  0  0  0  0  0  0  0  0  0  0  0
  1  2  2  0
  2  3  1  0
  3  4  2  0
  4  5  1  0
  5  6  2  0
  6  7  1  0
  7  8  2  0
  7  9  1  0
  9 10  1  0
 10 11  1  0
  2 12  1  0
 12 13  1  0
 13 14  1  0
 14 15  1  0
 15 16  1  0
 16 17  1  0
 15 18  1  0
 18 19  1  0
 19 20  2  0
 20 21  1  0
 21 22  2  0
 22 23  1  0
 22 24  1  0
 24 25  2  0
 25 26  1  0
 26 27  2  0
 26 28  1  0
 28 29  1  0
 29 30  1  0
 30 31  1  0
 31 32  2  0
 32 33  1  0
 33 34  2  0
 34 35  1  0
 34 36  1  0
 36 37  2  0
 30 38  2  0
 38 39  1  0
  8  3  1  0
 17 12  1  0
 25 19  1  0
 39 28  1  0
 11  6  1  0
 28 15  1  0
 37 31  1  0
  4 40  1  0
  5 41  1  0
  8 42  1  0
 10 43  1  0
 10 44  1  0
 13 45  1  0
 13 46  1  0
 14 47  1  0
 14 48  1  0
 16 49  1  0
 16 50  1  0
 17 51  1  0
 17 52  1  0
 20 53  1  0
 21 54  1  0
 24 55  1  0
 29 56  1  0
 29 57  1  0
 32 58  1  0
 33 59  1  0
 36 60  1  0
 37 61  1  0
M  END
$$$$
