
     RDKit          3D

 51 55  0  0  0  0  0  0  0  0999 V2000
   -7.9532    2.9579    0.4755 F   0  0  0  0  0  0  0  0  0  0  0  0
   -7.3828    1.7519    0.3541 C   0  0  0  0  0  0  0  0  0  0  0  0
   -8.1234    0.6130    0.6467 C   0  0  0  0  0  0  0  0  0  0  0  0
   -7.5290   -0.6414    0.5245 C   0  0  0  0  0  0  0  0  0  0  0  0
   -6.1984   -0.7458    0.1097 C   0  0  0  0  0  0  0  0  0  0  0  0
   -5.4518    0.4039   -0.1907 C   0  0  0  0  0  0  0  0  0  0  0  0
   -4.0074    0.2914   -0.6200 C   0  0  0  0  0  0  0  0  0  0  0  0
   -3.0575    0.2812    0.5896 C   0  0  0  0  0  0  0  0  0  0  0  0
   -1.6357    0.2976    0.2162 N   0  0  0  0  0  0  0  0  0  0  0  0
   -0.7821    0.6264    1.3830 C   0  0  0  0  0  0  0  0  0  0  0  0
    0.6015   -0.0665    1.4254 C   0  0  0  0  0  0  0  0  0  0  0  0
    1.1744   -0.1636    0.0820 N   0  0  0  0  0  0  0  0  0  0  0  0
    2.5529   -0.2155   -0.0906 C   0  0  0  0  0  0  0  0  0  0  0  0
    3.0704   -1.2205   -0.7526 N   0  0  0  0  0  0  0  0  0  0  0  0
    4.4651   -1.3327   -0.9154 C   0  0  0  0  0  0  0  0  0  0  0  0
    4.9645   -2.4336   -1.6141 C   0  0  0  0  0  0  0  0  0  0  0  0
    6.3403   -2.6011   -1.7939 C   0  0  0  0  0  0  0  0  0  0  0  0
    7.2336   -1.6641   -1.2732 C   0  0  0  0  0  0  0  0  0  0  0  0
    6.7572   -0.5557   -0.5720 C   0  0  0  0  0  0  0  0  0  0  0  0
    5.3783   -0.4023   -0.3998 C   0  0  0  0  0  0  0  0  0  0  0  0
    4.8128    0.6898    0.2774 N   0  0  0  0  0  0  0  0  0  0  0  0
    5.4284    1.7719    0.8612 C   0  0  0  0  0  0  0  0  0  0  0  0
    4.4503    2.6241    1.3261 C   0  0  0  0  0  0  0  0  0  0  0  0
    3.2021    2.0294    1.0297 C   0  0  0  0  0  0  0  0  0  0  0  0
    3.4486    0.8110    0.4212 C   0  0  0  0  0  0  0  0  0  0  0  0
    0.3073   -0.8724   -0.8794 C   0  0  0  0  0  0  0  0  0  0  0  0
   -1.1738   -0.9428   -0.4265 C   0  0  0  0  0  0  0  0  0  0  0  0
   -6.0576    1.6603   -0.0599 C   0  0  0  0  0  0  0  0  0  0  0  0
   -9.1554    0.7108    0.9673 H   0  0  0  0  0  0  0  0  0  0  0  0
   -8.1001   -1.5381    0.7515 H   0  0  0  0  0  0  0  0  0  0  0  0
   -5.7473   -1.7322    0.0199 H   0  0  0  0  0  0  0  0  0  0  0  0
   -3.7611    1.1284   -1.2862 H   0  0  0  0  0  0  0  0  0  0  0  0
   -3.8935   -0.6188   -1.2201 H   0  0  0  0  0  0  0  0  0  0  0  0
   -3.2715    1.1790    1.1859 H   0  0  0  0  0  0  0  0  0  0  0  0
   -3.2755   -0.5802    1.2352 H   0  0  0  0  0  0  0  0  0  0  0  0
   -0.6297    1.7126    1.3724 H   0  0  0  0  0  0  0  0  0  0  0  0
   -1.2890    0.3884    2.3274 H   0  0  0  0  0  0  0  0  0  0  0  0
    1.2474    0.4772    2.1208 H   0  0  0  0  0  0  0  0  0  0  0  0
    0.4944   -1.0792    1.8360 H   0  0  0  0  0  0  0  0  0  0  0  0
    4.2712   -3.1658   -2.0193 H   0  0  0  0  0  0  0  0  0  0  0  0
    6.7124   -3.4636   -2.3407 H   0  0  0  0  0  0  0  0  0  0  0  0
    8.3031   -1.7979   -1.4165 H   0  0  0  0  0  0  0  0  0  0  0  0
    7.4703    0.1615   -0.1798 H   0  0  0  0  0  0  0  0  0  0  0  0
    6.5037    1.8716    0.8850 H   0  0  0  0  0  0  0  0  0  0  0  0
    4.6194    3.5766    1.8118 H   0  0  0  0  0  0  0  0  0  0  0  0
    2.2254    2.4474    1.2340 H   0  0  0  0  0  0  0  0  0  0  0  0
    0.6573   -1.8989   -1.0408 H   0  0  0  0  0  0  0  0  0  0  0  0
    0.3631   -0.3431   -1.8383 H   0  0  0  0  0  0  0  0  0  0  0  0
   -1.2989   -1.7877    0.2643 H   0  0  0  0  0  0  0  0  0  0  0  0
   -1.7711   -1.1728   -1.3151 H   0  0  0  0  0  0  0  0  0  0  0  0
   -5.5097    2.5727   -0.2771 H   0  0  0  0  0  0  0  0  0  0  0  0
  1  2  1  0
  2  3  2  0
  3  4  1  0
  4  5  2  0
  5  6  1  0
  6  7  1  0
  7  8  1  0
  8  9  1  0
  9 10  1  0
 10 11  1  0
 11 12  1  0
 12 13  1  0
 13 14  2  0
 14 15  1  0
 15 16  2  0
 16 17  1  0
 17 18  2  0
 18 19  1  0
 19 20  2  0
 20 21  1  0
 21 22  1  0
 22 23  2  0
 23 24  1  0
 24 25  2  0
 12 26  1  0
 26 27  1  0
  6 28  2  0
 28  2  1  0
 27  9  1  0
 25 13  1  0
 20 15  1  0
 25 21  1  0
  3 29  1  0
  4 30  1  0
  5 31  1  0
  7 32  1  0
  7 33  1  0
  8 34  1  0
  8 35  1  0
 10 36  1  0
 10 37  1  0
 11 38  1  0
 11 39  1  0
 16 40  1  0
 17 41  1  0
 18 42  1  0
 19 43  1  0
 22 44  1  0
 23 45  1  0
 24 46  1  0
 26 47  1  0
 26 48  1  0
 27 49  1  0
 27 50  1  0
 28 51  1  0
M  END
$$$$
