
     RDKit          3D

 34 36  0  0  0  0  0  0  0  0999 V2000
    0.4380    1.1909   -2.5217 O   0  0  0  0  0  0  0  0  0  0  0  0
    0.3728    0.5626   -1.4688 C   0  0  0  0  0  0  0  0  0  0  0  0
    1.4959   -0.3274   -1.1607 C   0  0  0  0  0  0  0  0  0  0  0  0
    2.5939    0.1789   -0.4583 C   0  0  0  0  0  0  0  0  0  0  0  0
    3.6969   -0.6445   -0.2236 C   0  0  0  0  0  0  0  0  0  0  0  0
    3.7018   -1.9524   -0.7119 C   0  0  0  0  0  0  0  0  0  0  0  0
    5.0621   -2.9651   -0.4211 Cl  0  0  0  0  0  0  0  0  0  0  0  0
    2.6194   -2.4423   -1.4454 C   0  0  0  0  0  0  0  0  0  0  0  0
    1.5146   -1.6225   -1.6843 C   0  0  0  0  0  0  0  0  0  0  0  0
   -0.6796    0.6772   -0.5906 N   0  0  0  0  0  0  0  0  0  0  0  0
   -1.7334    1.6618   -0.8658 C   0  0  0  0  0  0  0  0  0  0  0  0
   -1.5494    2.7442    0.1714 C   0  0  0  0  0  0  0  0  0  0  0  0
   -1.9443    2.2498    1.3567 C   0  0  0  0  0  0  0  0  0  0  0  0
   -2.3146    0.7967    1.1095 C   0  0  0  0  0  0  0  0  0  0  0  0
   -2.9722    1.0004   -0.2677 C   0  0  0  0  0  0  0  0  0  0  0  0
   -1.0161   -0.0239    0.7365 C   0  0  0  0  0  0  0  0  0  0  0  0
   -1.3591   -1.5090    0.6409 C   0  0  0  0  0  0  0  0  0  0  0  0
   -0.2876   -2.2927    0.4100 F   0  0  0  0  0  0  0  0  0  0  0  0
   -1.9400   -1.9552    1.7789 F   0  0  0  0  0  0  0  0  0  0  0  0
   -2.2328   -1.7694   -0.3598 F   0  0  0  0  0  0  0  0  0  0  0  0
    0.0099    0.0644    1.8639 C   0  0  0  0  0  0  0  0  0  0  0  0
    1.0264   -0.8118    1.7311 F   0  0  0  0  0  0  0  0  0  0  0  0
   -0.5637   -0.1880    3.0656 F   0  0  0  0  0  0  0  0  0  0  0  0
    0.5782    1.2900    1.9567 F   0  0  0  0  0  0  0  0  0  0  0  0
    2.5947    1.2053   -0.0989 H   0  0  0  0  0  0  0  0  0  0  0  0
    4.5485   -0.2612    0.3324 H   0  0  0  0  0  0  0  0  0  0  0  0
    2.6348   -3.4557   -1.8383 H   0  0  0  0  0  0  0  0  0  0  0  0
    0.6805   -1.9926   -2.2752 H   0  0  0  0  0  0  0  0  0  0  0  0
   -1.8204    2.0038   -1.8978 H   0  0  0  0  0  0  0  0  0  0  0  0
   -1.1600    3.7322   -0.0248 H   0  0  0  0  0  0  0  0  0  0  0  0
   -1.9181    2.7560    2.3110 H   0  0  0  0  0  0  0  0  0  0  0  0
   -2.9681    0.3634    1.8687 H   0  0  0  0  0  0  0  0  0  0  0  0
   -3.2570    0.0783   -0.7774 H   0  0  0  0  0  0  0  0  0  0  0  0
   -3.8518    1.6580   -0.2410 H   0  0  0  0  0  0  0  0  0  0  0  0
  1  2  2  0
  2  3  1  0
  3  4  2  0
  4  5  1  0
  5  6  2  0
  6  7  1  0
  6  8  1  0
  8  9  2  0
  2 10  1  0
 10 11  1  0
 11 12  1  0
 12 13  2  0
 13 14  1  0
 14 15  1  0
 14 16  1  0
 16 17  1  0
 17 18  1  0
 17 19  1  0
 17 20  1  0
 16 21  1  0
 21 22  1  0
 21 23  1  0
 21 24  1  0
  9  3  1  0
 16 10  1  0
 15 11  1  0
  4 25  1  0
  5 26  1  0
  8 27  1  0
  9 28  1  0
 11 29  1  0
 12 30  1  0
 13 31  1  0
 14 32  1  0
 15 33  1  0
 15 34  1  0
M  END
$$$$
