
     RDKit          3D

 44 46  0  0  0  0  0  0  0  0999 V2000
    7.3201    4.7094    2.8851 C   0  0  0  0  0  0  0  0  0  0  0  0
    7.1165    4.1514    1.5930 O   0  0  0  0  0  0  0  0  0  0  0  0
    5.9361    3.4958    1.3818 C   0  0  0  0  0  0  0  0  0  0  0  0
    5.7861    2.9588    0.1030 C   0  0  0  0  0  0  0  0  0  0  0  0
    4.6252    2.2616   -0.2497 C   0  0  0  0  0  0  0  0  0  0  0  0
    3.5856    2.0869    0.6733 C   0  0  0  0  0  0  0  0  0  0  0  0
    2.3778    1.3584    0.2999 C   0  0  0  0  0  0  0  0  0  0  0  0
    1.9451    0.7109   -0.8334 C   0  0  0  0  0  0  0  0  0  0  0  0
    0.6578    0.2155   -0.5071 C   0  0  0  0  0  0  0  0  0  0  0  0
   -0.2464   -0.5559   -1.3691 C   0  0  0  0  0  0  0  0  0  0  0  0
    0.0737   -0.8483   -2.5157 O   0  0  0  0  0  0  0  0  0  0  0  0
   -1.4330   -0.8825   -0.7371 N   0  0  0  0  0  0  0  0  0  0  0  0
   -2.5250   -1.6092   -1.2466 C   0  0  0  0  0  0  0  0  0  0  0  0
   -2.5741   -2.1336   -2.5360 C   0  0  0  0  0  0  0  0  0  0  0  0
   -3.6978   -2.8457   -2.9712 C   0  0  0  0  0  0  0  0  0  0  0  0
   -4.7882   -3.0433   -2.1206 C   0  0  0  0  0  0  0  0  0  0  0  0
   -5.9276   -3.7272   -2.4632 O   0  0  0  0  0  0  0  0  0  0  0  0
   -6.0046   -4.2617   -3.7770 C   0  0  0  0  0  0  0  0  0  0  0  0
   -4.7473   -2.5187   -0.8150 C   0  0  0  0  0  0  0  0  0  0  0  0
   -5.8549   -2.7539   -0.0372 O   0  0  0  0  0  0  0  0  0  0  0  0
   -5.8480   -2.2618    1.2946 C   0  0  0  0  0  0  0  0  0  0  0  0
   -3.6174   -1.8062   -0.3903 C   0  0  0  0  0  0  0  0  0  0  0  0
    0.3274    0.5441    0.7547 N   0  0  0  0  0  0  0  0  0  0  0  0
    1.4042    1.2562    1.2509 O   0  0  0  0  0  0  0  0  0  0  0  0
    3.7466    2.6316    1.9562 C   0  0  0  0  0  0  0  0  0  0  0  0
    4.9102    3.3297    2.3090 C   0  0  0  0  0  0  0  0  0  0  0  0
    6.5708    5.4764    3.1068 H   0  0  0  0  0  0  0  0  0  0  0  0
    7.3288    3.9300    3.6542 H   0  0  0  0  0  0  0  0  0  0  0  0
    8.3020    5.1924    2.8897 H   0  0  0  0  0  0  0  0  0  0  0  0
    6.5812    3.0839   -0.6285 H   0  0  0  0  0  0  0  0  0  0  0  0
    4.5526    1.8612   -1.2579 H   0  0  0  0  0  0  0  0  0  0  0  0
    2.4661    0.5986   -1.7726 H   0  0  0  0  0  0  0  0  0  0  0  0
   -1.5018   -0.5447    0.2191 H   0  0  0  0  0  0  0  0  0  0  0  0
   -1.7545   -2.0094   -3.2370 H   0  0  0  0  0  0  0  0  0  0  0  0
   -3.6846   -3.2328   -3.9847 H   0  0  0  0  0  0  0  0  0  0  0  0
   -5.9620   -3.4679   -4.5301 H   0  0  0  0  0  0  0  0  0  0  0  0
   -5.2239   -5.0108   -3.9449 H   0  0  0  0  0  0  0  0  0  0  0  0
   -6.9722   -4.7627   -3.8778 H   0  0  0  0  0  0  0  0  0  0  0  0
   -5.0391   -2.7129    1.8786 H   0  0  0  0  0  0  0  0  0  0  0  0
   -6.7948   -2.5486    1.7623 H   0  0  0  0  0  0  0  0  0  0  0  0
   -5.7875   -1.1687    1.3112 H   0  0  0  0  0  0  0  0  0  0  0  0
   -3.5732   -1.3952    0.6121 H   0  0  0  0  0  0  0  0  0  0  0  0
    2.9658    2.5205    2.7065 H   0  0  0  0  0  0  0  0  0  0  0  0
    4.9780    3.7285    3.3158 H   0  0  0  0  0  0  0  0  0  0  0  0
  1  2  1  0
  2  3  1  0
  3  4  2  0
  4  5  1  0
  5  6  2  0
  6  7  1  0
  7  8  2  0
  8  9  1  0
  9 10  1  0
 10 11  2  0
 10 12  1  0
 12 13  1  0
 13 14  2  0
 14 15  1  0
 15 16  2  0
 16 17  1  0
 17 18  1  0
 16 19  1  0
 19 20  1  0
 20 21  1  0
 19 22  2  0
  9 23  2  0
 23 24  1  0
  6 25  1  0
 25 26  2  0
 26  3  1  0
 24  7  1  0
 22 13  1  0
  1 27  1  0
  1 28  1  0
  1 29  1  0
  4 30  1  0
  5 31  1  0
  8 32  1  0
 12 33  1  0
 14 34  1  0
 15 35  1  0
 18 36  1  0
 18 37  1  0
 18 38  1  0
 21 39  1  0
 21 40  1  0
 21 41  1  0
 22 42  1  0
 25 43  1  0
 26 44  1  0
M  END
$$$$
