
     RDKit          3D

 43 45  0  0  0  0  0  0  0  0999 V2000
   -2.1462    0.2852   -2.0626 C   0  0  0  0  0  0  0  0  0  0  0  0
   -2.2448   -0.5556   -0.7720 C   0  0  0  0  0  0  0  0  0  0  0  0
   -2.2434   -2.0333   -1.2142 C   0  0  0  0  0  0  0  0  0  0  0  0
   -3.4434   -0.1819    0.1455 C   0  0  0  0  0  0  0  0  0  0  0  0
   -3.1996   -1.0460    1.4030 C   0  0  0  0  0  0  0  0  0  0  0  0
   -1.6628   -1.0294    1.5473 C   0  0  0  0  0  0  0  0  0  0  0  0
   -1.1953   -0.1974    0.3280 C   0  0  0  0  0  0  0  0  0  0  0  0
    0.2623   -0.2609   -0.0872 C   0  0  0  0  0  0  0  0  0  0  0  0
    1.4059   -0.4047    1.2917 S   0  0  0  0  0  6  0  0  0  0  0  0
    1.0371    0.5150    2.3427 O   0  0  0  0  0  0  0  0  0  0  0  0
    1.5598   -1.8187    1.5663 O   0  0  0  0  0  0  0  0  0  0  0  0
    2.8542    0.1371    0.6305 N   0  0  0  0  0  0  0  0  0  0  0  0
    3.0388    1.6077    0.4849 C   0  0  0  0  0  0  0  0  0  0  0  0
    4.3631    1.8949   -0.2295 C   0  0  0  0  0  0  0  0  0  0  0  0
    4.4157    1.3517   -1.5574 O   0  0  0  0  0  0  0  0  0  0  0  0
    3.6705    0.1374   -1.7129 C   0  0  0  0  0  0  0  0  0  0  0  0
    3.5215   -0.6730   -0.4210 C   0  0  0  0  0  0  0  0  0  0  0  0
   -1.6652    1.2285    0.6318 C   0  0  0  0  0  0  0  0  0  0  0  0
   -0.9417    2.1899    0.8387 O   0  0  0  0  0  0  0  0  0  0  0  0
   -3.1766    1.2893    0.5428 C   0  0  0  0  0  0  0  0  0  0  0  0
   -2.0552    1.3610   -1.8907 H   0  0  0  0  0  0  0  0  0  0  0  0
   -1.2692   -0.0091   -2.6507 H   0  0  0  0  0  0  0  0  0  0  0  0
   -3.0338    0.1308   -2.6866 H   0  0  0  0  0  0  0  0  0  0  0  0
   -2.2309   -2.7504   -0.3905 H   0  0  0  0  0  0  0  0  0  0  0  0
   -1.3653   -2.2548   -1.8312 H   0  0  0  0  0  0  0  0  0  0  0  0
   -3.1337   -2.2503   -1.8156 H   0  0  0  0  0  0  0  0  0  0  0  0
   -4.4337   -0.3325   -0.2910 H   0  0  0  0  0  0  0  0  0  0  0  0
   -3.6945   -0.6412    2.2923 H   0  0  0  0  0  0  0  0  0  0  0  0
   -3.5658   -2.0686    1.2640 H   0  0  0  0  0  0  0  0  0  0  0  0
   -1.2653   -2.0494    1.5324 H   0  0  0  0  0  0  0  0  0  0  0  0
   -1.3851   -0.5717    2.5030 H   0  0  0  0  0  0  0  0  0  0  0  0
    0.4549   -1.1299   -0.7246 H   0  0  0  0  0  0  0  0  0  0  0  0
    0.5351    0.6342   -0.6528 H   0  0  0  0  0  0  0  0  0  0  0  0
    3.0562    2.0713    1.4762 H   0  0  0  0  0  0  0  0  0  0  0  0
    2.2128    2.0297   -0.0960 H   0  0  0  0  0  0  0  0  0  0  0  0
    5.2060    1.4803    0.3359 H   0  0  0  0  0  0  0  0  0  0  0  0
    4.5228    2.9747   -0.3109 H   0  0  0  0  0  0  0  0  0  0  0  0
    4.1757   -0.4618   -2.4771 H   0  0  0  0  0  0  0  0  0  0  0  0
    2.6845    0.4049   -2.1100 H   0  0  0  0  0  0  0  0  0  0  0  0
    2.9678   -1.5934   -0.6292 H   0  0  0  0  0  0  0  0  0  0  0  0
    4.5079   -0.9600   -0.0388 H   0  0  0  0  0  0  0  0  0  0  0  0
   -3.4810    1.9860   -0.2416 H   0  0  0  0  0  0  0  0  0  0  0  0
   -3.6198    1.5644    1.5023 H   0  0  0  0  0  0  0  0  0  0  0  0
  1  2  1  0
  2  3  1  0
  2  4  1  0
  4  5  1  0
  5  6  1  0
  6  7  1  0
  7  8  1  0
  8  9  1  0
  9 10  2  0
  9 11  2  0
  9 12  1  0
 12 13  1  0
 13 14  1  0
 14 15  1  0
 15 16  1  0
 16 17  1  0
  7 18  1  0
 18 19  2  0
 18 20  1  0
  7  2  1  0
 17 12  1  0
 20  4  1  0
  1 21  1  0
  1 22  1  0
  1 23  1  0
  3 24  1  0
  3 25  1  0
  3 26  1  0
  4 27  1  0
  5 28  1  0
  5 29  1  0
  6 30  1  0
  6 31  1  0
  8 32  1  0
  8 33  1  0
 13 34  1  0
 13 35  1  0
 14 36  1  0
 14 37  1  0
 16 38  1  0
 16 39  1  0
 17 40  1  0
 17 41  1  0
 20 42  1  0
 20 43  1  0
M  END
$$$$
