
     RDKit          3D

 43 46  0  0  0  0  0  0  0  0999 V2000
    5.9418    1.6288   -1.9254 C   0  0  0  0  0  0  0  0  0  0  0  0
    4.6179    1.2997   -1.2987 C   0  0  0  0  0  0  0  0  0  0  0  0
    3.4505    1.9333   -1.7336 C   0  0  0  0  0  0  0  0  0  0  0  0
    2.2128    1.6049   -1.1723 C   0  0  0  0  0  0  0  0  0  0  0  0
    2.1278    0.6256   -0.1760 C   0  0  0  0  0  0  0  0  0  0  0  0
    0.7327    0.2660    0.4496 C   0  0  0  0  0  0  0  0  0  0  0  0
   -0.4800    0.8842    0.1690 C   0  0  0  0  0  0  0  0  0  0  0  0
   -1.4828    0.2926    0.9421 N   0  0  0  0  0  4  0  0  0  0  0  0
   -2.8984    0.6494    0.9583 C   0  0  0  0  0  0  0  0  0  0  0  0
   -3.5123    0.3052   -0.3738 C   0  0  0  0  0  0  0  0  0  0  0  0
   -4.0939    1.3032   -1.1716 C   0  0  0  0  0  0  0  0  0  0  0  0
   -4.6615    0.9840   -2.4080 C   0  0  0  0  0  0  0  0  0  0  0  0
   -4.6563   -0.3344   -2.8620 C   0  0  0  0  0  0  0  0  0  0  0  0
   -4.0865   -1.3309   -2.0757 C   0  0  0  0  0  0  0  0  0  0  0  0
   -4.0721   -2.9593   -2.6272 Cl  0  0  0  0  0  0  0  0  0  0  0  0
   -3.5207   -1.0202   -0.8386 C   0  0  0  0  0  0  0  0  0  0  0  0
   -0.9074   -0.6551    1.6721 C   0  0  0  0  0  0  0  0  0  0  0  0
    0.3894   -0.6957    1.3841 N   0  0  0  0  0  0  0  0  0  0  0  0
    1.0801   -1.7411    2.1254 C   0  0  0  0  0  0  0  0  0  0  0  0
   -0.0781   -2.5816    2.7316 C   0  0  0  0  0  0  0  0  0  0  0  0
   -1.3143   -1.6619    2.6788 C   0  0  0  0  0  0  0  0  0  0  0  0
    3.2895   -0.0169    0.2527 C   0  0  0  0  0  0  0  0  0  0  0  0
    4.5260    0.3149   -0.3106 C   0  0  0  0  0  0  0  0  0  0  0  0
    6.1166    0.9824   -2.7909 H   0  0  0  0  0  0  0  0  0  0  0  0
    6.7581    1.4903   -1.2087 H   0  0  0  0  0  0  0  0  0  0  0  0
    5.9702    2.6738   -2.2517 H   0  0  0  0  0  0  0  0  0  0  0  0
    3.5000    2.6892   -2.5161 H   0  0  0  0  0  0  0  0  0  0  0  0
    1.3372    2.1275   -1.5458 H   0  0  0  0  0  0  0  0  0  0  0  0
   -0.7642    1.6871   -0.4900 H   0  0  0  0  0  0  0  0  0  0  0  0
   -2.9746    1.7206    1.1762 H   0  0  0  0  0  0  0  0  0  0  0  0
   -3.4119    0.1077    1.7596 H   0  0  0  0  0  0  0  0  0  0  0  0
   -4.1178    2.3412   -0.8422 H   0  0  0  0  0  0  0  0  0  0  0  0
   -5.1132    1.7631   -3.0196 H   0  0  0  0  0  0  0  0  0  0  0  0
   -5.1005   -0.5767   -3.8248 H   0  0  0  0  0  0  0  0  0  0  0  0
   -3.0850   -1.8179   -0.2429 H   0  0  0  0  0  0  0  0  0  0  0  0
    1.6993   -2.3492    1.4623 H   0  0  0  0  0  0  0  0  0  0  0  0
    1.6841   -1.2768    2.9103 H   0  0  0  0  0  0  0  0  0  0  0  0
   -0.2544   -3.4557    2.0935 H   0  0  0  0  0  0  0  0  0  0  0  0
    0.1425   -2.9417    3.7401 H   0  0  0  0  0  0  0  0  0  0  0  0
   -1.4768   -1.1211    3.6134 H   0  0  0  0  0  0  0  0  0  0  0  0
   -2.2170   -2.1675    2.3342 H   0  0  0  0  0  0  0  0  0  0  0  0
    3.2793   -0.7721    1.0274 H   0  0  0  0  0  0  0  0  0  0  0  0
    5.4239   -0.1991    0.0297 H   0  0  0  0  0  0  0  0  0  0  0  0
  1  2  1  0
  2  3  2  0
  3  4  1  0
  4  5  2  0
  5  6  1  0
  6  7  2  0
  7  8  1  0
  8  9  1  0
  9 10  1  0
 10 11  2  0
 11 12  1  0
 12 13  2  0
 13 14  1  0
 14 15  1  0
 14 16  2  0
  8 17  2  0
 17 18  1  0
 18 19  1  0
 19 20  1  0
 20 21  1  0
  5 22  1  0
 22 23  2  0
 23  2  1  0
 18  6  1  0
 16 10  1  0
 21 17  1  0
  1 24  1  0
  1 25  1  0
  1 26  1  0
  3 27  1  0
  4 28  1  0
  7 29  1  0
  9 30  1  0
  9 31  1  0
 11 32  1  0
 12 33  1  0
 13 34  1  0
 16 35  1  0
 19 36  1  0
 19 37  1  0
 20 38  1  0
 20 39  1  0
 21 40  1  0
 21 41  1  0
 22 42  1  0
 23 43  1  0
M  CHG  1   8   1
M  END
$$$$
