
     RDKit          3D

 34 35  0  0  0  0  0  0  0  0999 V2000
    6.0125   -0.4055    1.6744 C   0  0  0  0  0  0  0  0  0  0  0  0
    5.2073    0.4463    0.8698 O   0  0  0  0  0  0  0  0  0  0  0  0
    4.1094   -0.1163    0.2800 C   0  0  0  0  0  0  0  0  0  0  0  0
    3.3735    0.7505   -0.5317 C   0  0  0  0  0  0  0  0  0  0  0  0
    2.2276    0.3037   -1.1946 C   0  0  0  0  0  0  0  0  0  0  0  0
    1.7934   -1.0135   -1.0385 C   0  0  0  0  0  0  0  0  0  0  0  0
    0.6578   -1.4826   -1.7074 N   0  0  0  0  0  0  0  0  0  0  0  0
   -0.5247   -1.1880   -1.2585 C   0  0  0  0  0  0  0  0  0  0  0  0
   -0.8843   -0.4061   -0.0248 C   0  0  0  0  0  0  0  0  0  0  0  0
   -1.6719    0.8368   -0.3625 C   0  0  0  0  0  0  0  0  0  0  0  0
   -1.1161    1.8378   -0.8128 O   0  0  0  0  0  0  0  0  0  0  0  0
   -3.1519    0.8617   -0.1631 C   0  0  0  0  0  0  0  0  0  0  0  0
   -3.7861    2.1122   -0.0997 C   0  0  0  0  0  0  0  0  0  0  0  0
   -5.1693    2.1989    0.0804 C   0  0  0  0  0  0  0  0  0  0  0  0
   -5.9248    1.0349    0.1911 C   0  0  0  0  0  0  0  0  0  0  0  0
   -7.6270    1.1358    0.4125 Cl  0  0  0  0  0  0  0  0  0  0  0  0
   -5.3086   -0.2136    0.1186 C   0  0  0  0  0  0  0  0  0  0  0  0
   -3.9232   -0.3031   -0.0615 C   0  0  0  0  0  0  0  0  0  0  0  0
    2.5383   -1.8838   -0.2412 C   0  0  0  0  0  0  0  0  0  0  0  0
    3.6889   -1.4392    0.4210 C   0  0  0  0  0  0  0  0  0  0  0  0
    6.4303   -1.2279    1.0844 H   0  0  0  0  0  0  0  0  0  0  0  0
    5.4504   -0.7816    2.5356 H   0  0  0  0  0  0  0  0  0  0  0  0
    6.8487    0.1880    2.0567 H   0  0  0  0  0  0  0  0  0  0  0  0
    3.6956    1.7815   -0.6542 H   0  0  0  0  0  0  0  0  0  0  0  0
    1.6693    0.9880   -1.8285 H   0  0  0  0  0  0  0  0  0  0  0  0
   -1.3769   -1.5753   -1.8439 H   0  0  0  0  0  0  0  0  0  0  0  0
   -0.0072   -0.0956    0.5484 H   0  0  0  0  0  0  0  0  0  0  0  0
   -1.4499   -1.0620    0.6423 H   0  0  0  0  0  0  0  0  0  0  0  0
   -3.2038    3.0286   -0.1902 H   0  0  0  0  0  0  0  0  0  0  0  0
   -5.6460    3.1747    0.1299 H   0  0  0  0  0  0  0  0  0  0  0  0
   -5.9027   -1.1214    0.1958 H   0  0  0  0  0  0  0  0  0  0  0  0
   -3.4839   -1.2932   -0.1345 H   0  0  0  0  0  0  0  0  0  0  0  0
    2.2230   -2.9186   -0.1405 H   0  0  0  0  0  0  0  0  0  0  0  0
    4.2327   -2.1521    1.0309 H   0  0  0  0  0  0  0  0  0  0  0  0
  1  2  1  0
  2  3  1  0
  3  4  2  0
  4  5  1  0
  5  6  2  0
  6  7  1  0
  7  8  2  3
  8  9  1  0
  9 10  1  0
 10 11  2  0
 10 12  1  0
 12 13  2  0
 13 14  1  0
 14 15  2  0
 15 16  1  0
 15 17  1  0
 17 18  2  0
  6 19  1  0
 19 20  2  0
 20  3  1  0
 18 12  1  0
  1 21  1  0
  1 22  1  0
  1 23  1  0
  4 24  1  0
  5 25  1  0
  8 26  1  0
  9 27  1  0
  9 28  1  0
 13 29  1  0
 14 30  1  0
 17 31  1  0
 18 32  1  0
 19 33  1  0
 20 34  1  0
M  END
$$$$
