
     RDKit          3D

102102  0  0  0  0  0  0  0  0999 V2000
   -2.9835    2.5625    2.8418 C   0  0  0  0  0  0  0  0  0  0  0  0
   -2.6414    1.2211    2.1868 C   0  0  0  0  0  0  0  0  0  0  0  0
   -1.3600    0.6580    2.8112 C   0  0  0  0  0  0  0  0  0  0  0  0
   -2.5371    1.3835    0.6498 C   0  0  0  0  0  0  0  0  0  0  0  0
   -1.5012    2.3388    0.3799 O   0  0  0  0  0  0  0  0  0  0  0  0
   -1.3814    2.7203   -0.9170 C   0  0  0  0  0  0  0  0  0  0  0  0
   -2.0948    2.3137   -1.8320 O   0  0  0  0  0  0  0  0  0  0  0  0
   -0.2401    3.7345   -1.1366 C   0  0  0  0  0  0  0  0  0  0  0  0
   -0.1827    4.9112   -0.1196 C   0  0  0  0  0  0  0  0  0  0  0  0
    0.4532    6.1558   -0.7640 C   0  0  0  0  0  0  0  0  0  0  0  0
    0.4935    4.6547    1.2239 C   0  0  0  0  0  0  0  0  0  0  0  0
    1.0378    3.1423   -1.5966 N   0  0  0  0  0  0  0  0  0  0  0  0
    1.1875    3.0619   -3.0465 C   0  0  0  0  0  0  0  0  0  0  0  0
    1.7467    2.3171   -0.7265 C   0  0  0  0  0  0  0  0  0  0  0  0
    1.3265    2.0835    0.4092 O   0  0  0  0  0  0  0  0  0  0  0  0
    3.0991    1.6898   -1.1617 C   0  0  0  0  0  0  0  0  0  0  0  0
    4.3190    2.5996   -0.8870 C   0  0  0  0  0  0  0  0  0  0  0  0
    4.4903    2.9465    0.5959 C   0  0  0  0  0  0  0  0  0  0  0  0
    4.3219    3.8719   -1.7276 C   0  0  0  0  0  0  0  0  0  0  0  0
    3.2952    0.4761   -0.3995 O   0  0  0  0  0  0  0  0  0  0  0  0
    2.4856   -0.5578   -0.7820 C   0  0  0  0  0  0  0  0  0  0  0  0
    1.8727   -0.5700   -1.8412 O   0  0  0  0  0  0  0  0  0  0  0  0
    2.5014   -1.6681    0.2966 C   0  0  0  0  0  0  0  0  0  0  0  0
    3.9154   -2.3056    0.4335 C   0  0  0  0  0  0  0  0  0  0  0  0
    4.0254   -3.1833    1.6834 C   0  0  0  0  0  0  0  0  0  0  0  0
    4.3729   -3.0953   -0.7947 C   0  0  0  0  0  0  0  0  0  0  0  0
    1.4008   -2.6669    0.1986 N   0  0  0  0  0  0  0  0  0  0  0  0
    1.0400   -3.1611   -1.1244 C   0  0  0  0  0  0  0  0  0  0  0  0
    0.5984   -2.8719    1.3292 C   0  0  0  0  0  0  0  0  0  0  0  0
    0.9249   -2.4144    2.4295 O   0  0  0  0  0  0  0  0  0  0  0  0
   -0.7064   -3.7037    1.1843 C   0  0  0  0  0  0  0  0  0  0  0  0
   -1.1863   -4.2700    2.5487 C   0  0  0  0  0  0  0  0  0  0  0  0
   -0.2021   -5.3159    3.0917 C   0  0  0  0  0  0  0  0  0  0  0  0
   -2.5819   -4.8995    2.4391 C   0  0  0  0  0  0  0  0  0  0  0  0
   -1.7288   -2.8137    0.6864 O   0  0  0  0  0  0  0  0  0  0  0  0
   -2.2575   -3.0971   -0.5342 C   0  0  0  0  0  0  0  0  0  0  0  0
   -1.9800   -4.1018   -1.1872 O   0  0  0  0  0  0  0  0  0  0  0  0
   -3.3548   -2.0899   -0.9661 C   0  0  0  0  0  0  0  0  0  0  0  0
   -3.4293   -1.9302   -2.5162 C   0  0  0  0  0  0  0  0  0  0  0  0
   -4.7075   -1.2187   -2.9635 C   0  0  0  0  0  0  0  0  0  0  0  0
   -2.2240   -1.2510   -3.1613 C   0  0  0  0  0  0  0  0  0  0  0  0
   -3.4747   -0.8305   -0.1902 N   0  0  0  0  0  0  0  0  0  0  0  0
   -4.8087   -0.4685    0.2706 C   0  0  0  0  0  0  0  0  0  0  0  0
   -2.3606    0.0080   -0.0719 C   0  0  0  0  0  0  0  0  0  0  0  0
   -1.2600   -0.3346   -0.5119 O   0  0  0  0  0  0  0  0  0  0  0  0
   -3.3158    2.4253    3.8795 H   0  0  0  0  0  0  0  0  0  0  0  0
   -3.7979    3.0577    2.2989 H   0  0  0  0  0  0  0  0  0  0  0  0
   -2.1237    3.2403    2.8487 H   0  0  0  0  0  0  0  0  0  0  0  0
   -3.4525    0.5293    2.4310 H   0  0  0  0  0  0  0  0  0  0  0  0
   -1.1609   -0.3593    2.4577 H   0  0  0  0  0  0  0  0  0  0  0  0
   -0.4883    1.2772    2.5819 H   0  0  0  0  0  0  0  0  0  0  0  0
   -1.4565    0.6157    3.9013 H   0  0  0  0  0  0  0  0  0  0  0  0
   -3.4642    1.8371    0.2829 H   0  0  0  0  0  0  0  0  0  0  0  0
   -0.6287    4.2518   -2.0279 H   0  0  0  0  0  0  0  0  0  0  0  0
   -1.2260    5.1770    0.1099 H   0  0  0  0  0  0  0  0  0  0  0  0
    0.4203    7.0070   -0.0766 H   0  0  0  0  0  0  0  0  0  0  0  0
    1.5012    5.9790   -1.0286 H   0  0  0  0  0  0  0  0  0  0  0  0
   -0.0913    6.4441   -1.6703 H   0  0  0  0  0  0  0  0  0  0  0  0
    0.0845    3.7805    1.7349 H   0  0  0  0  0  0  0  0  0  0  0  0
    1.5760    4.5341    1.1177 H   0  0  0  0  0  0  0  0  0  0  0  0
    0.3396    5.5119    1.8912 H   0  0  0  0  0  0  0  0  0  0  0  0
    0.4225    2.3831   -3.4433 H   0  0  0  0  0  0  0  0  0  0  0  0
    1.0502    4.0632   -3.4698 H   0  0  0  0  0  0  0  0  0  0  0  0
    2.1611    2.6973   -3.3644 H   0  0  0  0  0  0  0  0  0  0  0  0
    3.0931    1.4183   -2.2158 H   0  0  0  0  0  0  0  0  0  0  0  0
    5.2124    2.0267   -1.1716 H   0  0  0  0  0  0  0  0  0  0  0  0
    4.5770    2.0454    1.2099 H   0  0  0  0  0  0  0  0  0  0  0  0
    3.6500    3.5372    0.9681 H   0  0  0  0  0  0  0  0  0  0  0  0
    5.4057    3.5274    0.7521 H   0  0  0  0  0  0  0  0  0  0  0  0
    5.2504    4.4332   -1.5751 H   0  0  0  0  0  0  0  0  0  0  0  0
    3.4911    4.5334   -1.4690 H   0  0  0  0  0  0  0  0  0  0  0  0
    4.2530    3.6334   -2.7915 H   0  0  0  0  0  0  0  0  0  0  0  0
    2.3277   -1.1026    1.2238 H   0  0  0  0  0  0  0  0  0  0  0  0
    4.6391   -1.4883    0.5599 H   0  0  0  0  0  0  0  0  0  0  0  0
    3.3827   -4.0672    1.6117 H   0  0  0  0  0  0  0  0  0  0  0  0
    5.0554   -3.5330    1.8230 H   0  0  0  0  0  0  0  0  0  0  0  0
    3.7446   -2.6256    2.5837 H   0  0  0  0  0  0  0  0  0  0  0  0
    4.2810   -2.4955   -1.7059 H   0  0  0  0  0  0  0  0  0  0  0  0
    3.8074   -4.0224   -0.9214 H   0  0  0  0  0  0  0  0  0  0  0  0
    5.4281   -3.3763   -0.6934 H   0  0  0  0  0  0  0  0  0  0  0  0
    0.7026   -4.1960   -1.0680 H   0  0  0  0  0  0  0  0  0  0  0  0
    1.8983   -3.1394   -1.8003 H   0  0  0  0  0  0  0  0  0  0  0  0
    0.2521   -2.5274   -1.5261 H   0  0  0  0  0  0  0  0  0  0  0  0
   -0.5247   -4.5582    0.5244 H   0  0  0  0  0  0  0  0  0  0  0  0
   -1.2613   -3.4535    3.2776 H   0  0  0  0  0  0  0  0  0  0  0  0
   -0.0988   -6.1550    2.3995 H   0  0  0  0  0  0  0  0  0  0  0  0
   -0.5497   -5.7146    4.0496 H   0  0  0  0  0  0  0  0  0  0  0  0
    0.7899   -4.8878    3.2593 H   0  0  0  0  0  0  0  0  0  0  0  0
   -3.3405   -4.1470    2.1942 H   0  0  0  0  0  0  0  0  0  0  0  0
   -2.6036   -5.6740    1.6636 H   0  0  0  0  0  0  0  0  0  0  0  0
   -2.8774   -5.3575    3.3907 H   0  0  0  0  0  0  0  0  0  0  0  0
   -4.2533   -2.6638   -0.6892 H   0  0  0  0  0  0  0  0  0  0  0  0
   -3.4728   -2.9433   -2.9417 H   0  0  0  0  0  0  0  0  0  0  0  0
   -4.7086   -0.1693   -2.6527 H   0  0  0  0  0  0  0  0  0  0  0  0
   -5.5955   -1.7075   -2.5509 H   0  0  0  0  0  0  0  0  0  0  0  0
   -4.7968   -1.2420   -4.0565 H   0  0  0  0  0  0  0  0  0  0  0  0
   -1.2911   -1.7477   -2.8840 H   0  0  0  0  0  0  0  0  0  0  0  0
   -2.3057   -1.2954   -4.2540 H   0  0  0  0  0  0  0  0  0  0  0  0
   -2.1544   -0.1942   -2.8924 H   0  0  0  0  0  0  0  0  0  0  0  0
   -4.8681   -0.6382    1.3507 H   0  0  0  0  0  0  0  0  0  0  0  0
   -5.0413    0.5746    0.0433 H   0  0  0  0  0  0  0  0  0  0  0  0
   -5.5711   -1.0909   -0.2112 H   0  0  0  0  0  0  0  0  0  0  0  0
  1  2  1  0
  2  3  1  0
  2  4  1  0
  4  5  1  0
  5  6  1  0
  6  7  2  0
  6  8  1  0
  8  9  1  0
  9 10  1  0
  9 11  1  0
  8 12  1  0
 12 13  1  0
 12 14  1  0
 14 15  2  0
 14 16  1  0
 16 17  1  0
 17 18  1  0
 17 19  1  0
 16 20  1  0
 20 21  1  0
 21 22  2  0
 21 23  1  0
 23 24  1  0
 24 25  1  0
 24 26  1  0
 23 27  1  0
 27 28  1  0
 27 29  1  0
 29 30  2  0
 29 31  1  0
 31 32  1  0
 32 33  1  0
 32 34  1  0
 31 35  1  0
 35 36  1  0
 36 37  2  0
 36 38  1  0
 38 39  1  0
 39 40  1  0
 39 41  1  0
 38 42  1  0
 42 43  1  0
 42 44  1  0
 44 45  2  0
 44  4  1  0
  1 46  1  0
  1 47  1  0
  1 48  1  0
  2 49  1  0
  3 50  1  0
  3 51  1  0
  3 52  1  0
  4 53  1  0
  8 54  1  0
  9 55  1  0
 10 56  1  0
 10 57  1  0
 10 58  1  0
 11 59  1  0
 11 60  1  0
 11 61  1  0
 13 62  1  0
 13 63  1  0
 13 64  1  0
 16 65  1  0
 17 66  1  0
 18 67  1  0
 18 68  1  0
 18 69  1  0
 19 70  1  0
 19 71  1  0
 19 72  1  0
 23 73  1  0
 24 74  1  0
 25 75  1  0
 25 76  1  0
 25 77  1  0
 26 78  1  0
 26 79  1  0
 26 80  1  0
 28 81  1  0
 28 82  1  0
 28 83  1  0
 31 84  1  0
 32 85  1  0
 33 86  1  0
 33 87  1  0
 33 88  1  0
 34 89  1  0
 34 90  1  0
 34 91  1  0
 38 92  1  0
 39 93  1  0
 40 94  1  0
 40 95  1  0
 40 96  1  0
 41 97  1  0
 41 98  1  0
 41 99  1  0
 43100  1  0
 43101  1  0
 43102  1  0
M  END
$$$$
