
     RDKit          3D

 58 59  0  0  0  0  0  0  0  0999 V2000
    8.5767   -2.0074   -0.6882 C   0  0  0  0  0  0  0  0  0  0  0  0
    9.3266   -0.8638   -0.0246 C   0  0  0  0  0  0  0  0  0  0  0  0
    8.9298    0.5304   -0.5235 C   0  0  0  0  0  0  0  0  0  0  0  0
    7.4931    0.9353   -0.1895 C   0  0  0  0  0  0  0  0  0  0  0  0
    6.5977    0.2564   -1.0678 O   0  0  0  0  0  0  0  0  0  0  0  0
    5.2608    0.4860   -0.9004 C   0  0  0  0  0  0  0  0  0  0  0  0
    4.4345   -0.2474   -1.7569 C   0  0  0  0  0  0  0  0  0  0  0  0
    3.0441   -0.1133   -1.6997 C   0  0  0  0  0  0  0  0  0  0  0  0
    2.4674    0.7601   -0.7721 C   0  0  0  0  0  0  0  0  0  0  0  0
    0.9931    0.9460   -0.6739 C   0  0  0  0  0  0  0  0  0  0  0  0
    0.5250    1.9849   -0.2225 O   0  0  0  0  0  0  0  0  0  0  0  0
    0.2123   -0.1192   -1.0760 N   0  0  0  0  0  0  0  0  0  0  0  0
   -1.2212   -0.0947   -0.8292 C   0  0  0  0  0  0  0  0  0  0  0  0
   -1.5391   -0.6609    0.5482 C   0  0  0  0  0  0  0  0  0  0  0  0
   -0.8208   -1.4398    1.1647 O   0  0  0  0  0  0  0  0  0  0  0  0
   -2.7646   -0.2317    0.9625 O   0  0  0  0  0  0  0  0  0  0  0  0
   -3.1736   -0.7921    2.2090 C   0  0  0  0  0  0  0  0  0  0  0  0
   -4.6051   -0.4009    2.5509 C   0  0  0  0  0  0  0  0  0  0  0  0
   -4.9497   -0.2084    3.7223 O   0  0  0  0  0  0  0  0  0  0  0  0
   -5.5971   -0.2437    1.4421 C   0  0  0  0  0  0  0  0  0  0  0  0
   -6.5051    0.7557    1.4846 C   0  0  0  0  0  0  0  0  0  0  0  0
   -6.5704    1.6420    2.5566 N   0  0  0  0  0  0  0  0  0  0  0  0
   -7.3949    0.9058    0.4236 N   0  0  0  0  0  0  0  0  0  0  0  0
   -8.3582    2.0057    0.4432 C   0  0  0  0  0  0  0  0  0  0  0  0
   -7.4080    0.0791   -0.6987 C   0  0  0  0  0  0  0  0  0  0  0  0
   -8.2443    0.1959   -1.5966 O   0  0  0  0  0  0  0  0  0  0  0  0
   -6.4277   -0.8971   -0.7471 N   0  0  0  0  0  0  0  0  0  0  0  0
   -6.4213   -1.7926   -1.8893 C   0  0  0  0  0  0  0  0  0  0  0  0
   -5.5819   -1.1794    0.3007 C   0  0  0  0  0  0  0  0  0  0  0  0
   -4.8526   -2.1708    0.3285 O   0  0  0  0  0  0  0  0  0  0  0  0
    3.2940    1.5072    0.0754 C   0  0  0  0  0  0  0  0  0  0  0  0
    4.6858    1.3674    0.0150 C   0  0  0  0  0  0  0  0  0  0  0  0
    8.6217   -1.9300   -1.7789 H   0  0  0  0  0  0  0  0  0  0  0  0
    7.5276   -2.0303   -0.3803 H   0  0  0  0  0  0  0  0  0  0  0  0
    9.0220   -2.9651   -0.3985 H   0  0  0  0  0  0  0  0  0  0  0  0
   10.3987   -1.0005   -0.2143 H   0  0  0  0  0  0  0  0  0  0  0  0
    9.1905   -0.9225    1.0616 H   0  0  0  0  0  0  0  0  0  0  0  0
    9.0883    0.5827   -1.6075 H   0  0  0  0  0  0  0  0  0  0  0  0
    9.6085    1.2555   -0.0580 H   0  0  0  0  0  0  0  0  0  0  0  0
    7.3977    2.0170   -0.3442 H   0  0  0  0  0  0  0  0  0  0  0  0
    7.2712    0.6917    0.8565 H   0  0  0  0  0  0  0  0  0  0  0  0
    4.8815   -0.9249   -2.4813 H   0  0  0  0  0  0  0  0  0  0  0  0
    2.4349   -0.6759   -2.4008 H   0  0  0  0  0  0  0  0  0  0  0  0
    0.6482   -1.0334   -1.0744 H   0  0  0  0  0  0  0  0  0  0  0  0
   -1.5937    0.9313   -0.9056 H   0  0  0  0  0  0  0  0  0  0  0  0
   -1.7015   -0.7236   -1.5838 H   0  0  0  0  0  0  0  0  0  0  0  0
   -3.1074   -1.8859    2.2008 H   0  0  0  0  0  0  0  0  0  0  0  0
   -2.5261   -0.3896    2.9969 H   0  0  0  0  0  0  0  0  0  0  0  0
   -7.5260    1.8685    2.8145 H   0  0  0  0  0  0  0  0  0  0  0  0
   -6.0782    1.2869    3.3871 H   0  0  0  0  0  0  0  0  0  0  0  0
   -8.8816    2.1198   -0.5100 H   0  0  0  0  0  0  0  0  0  0  0  0
   -7.8399    2.9485    0.6475 H   0  0  0  0  0  0  0  0  0  0  0  0
   -9.1047    1.8102    1.2197 H   0  0  0  0  0  0  0  0  0  0  0  0
   -5.4254   -2.2169   -2.0483 H   0  0  0  0  0  0  0  0  0  0  0  0
   -7.1269   -2.6059   -1.6934 H   0  0  0  0  0  0  0  0  0  0  0  0
   -6.7273   -1.2685   -2.7999 H   0  0  0  0  0  0  0  0  0  0  0  0
    2.8555    2.2014    0.7902 H   0  0  0  0  0  0  0  0  0  0  0  0
    5.2870    1.9649    0.6925 H   0  0  0  0  0  0  0  0  0  0  0  0
  1  2  1  0
  2  3  1  0
  3  4  1  0
  4  5  1  0
  5  6  1  0
  6  7  2  0
  7  8  1  0
  8  9  2  0
  9 10  1  0
 10 11  2  0
 10 12  1  0
 12 13  1  0
 13 14  1  0
 14 15  2  0
 14 16  1  0
 16 17  1  0
 17 18  1  0
 18 19  2  0
 18 20  1  0
 20 21  2  0
 21 22  1  0
 21 23  1  0
 23 24  1  0
 23 25  1  0
 25 26  2  0
 25 27  1  0
 27 28  1  0
 27 29  1  0
 29 30  2  0
  9 31  1  0
 31 32  2  0
 32  6  1  0
 29 20  1  0
  1 33  1  0
  1 34  1  0
  1 35  1  0
  2 36  1  0
  2 37  1  0
  3 38  1  0
  3 39  1  0
  4 40  1  0
  4 41  1  0
  7 42  1  0
  8 43  1  0
 12 44  1  0
 13 45  1  0
 13 46  1  0
 17 47  1  0
 17 48  1  0
 22 49  1  0
 22 50  1  0
 24 51  1  0
 24 52  1  0
 24 53  1  0
 28 54  1  0
 28 55  1  0
 28 56  1  0
 31 57  1  0
 32 58  1  0
M  END
$$$$
