
     RDKit          3D

 46 48  0  0  0  0  0  0  0  0999 V2000
    3.0888   -1.3027   -3.0743 C   0  0  0  0  0  0  0  0  0  0  0  0
    2.0715   -0.7447   -2.0909 C   0  0  0  0  0  0  0  0  0  0  0  0
    2.6141    0.4060   -1.2161 N   0  0  0  0  0  4  0  0  0  0  0  0
    3.0020    1.6176   -2.0554 C   0  0  0  0  0  0  0  0  0  0  0  0
    3.8478   -0.0608   -0.4313 C   0  0  0  0  0  0  0  0  0  0  0  0
    1.5423    0.7983   -0.1566 C   0  0  0  0  0  0  0  0  0  0  0  0
    0.2916    1.4726   -0.7444 C   0  0  0  0  0  0  0  0  0  0  0  0
   -0.8050    1.5995    0.2823 C   0  0  0  0  0  0  0  0  0  0  0  0
   -1.6381    0.6396    0.7488 C   0  0  0  0  0  0  0  0  0  0  0  0
   -2.4690    0.9775    1.9365 C   0  0  0  0  0  0  0  0  0  0  0  0
   -3.2767    2.1235    1.9819 C   0  0  0  0  0  0  0  0  0  0  0  0
   -4.0396    2.4031    3.1171 C   0  0  0  0  0  0  0  0  0  0  0  0
   -4.0080    1.5402    4.2110 C   0  0  0  0  0  0  0  0  0  0  0  0
   -3.2212    0.3881    4.1716 C   0  0  0  0  0  0  0  0  0  0  0  0
   -2.4588    0.0941    3.0355 C   0  0  0  0  0  0  0  0  0  0  0  0
   -1.4748   -1.4087    3.0277 S   0  0  0  0  0  0  0  0  0  0  0  0
   -1.4579   -1.7866    1.2758 C   0  0  0  0  0  0  0  0  0  0  0  0
   -1.3503   -3.1269    0.8833 C   0  0  0  0  0  0  0  0  0  0  0  0
   -1.3709   -3.4680   -0.4703 C   0  0  0  0  0  0  0  0  0  0  0  0
   -1.5248   -2.4710   -1.4292 C   0  0  0  0  0  0  0  0  0  0  0  0
   -1.5355   -2.8809   -3.0987 Cl  0  0  0  0  0  0  0  0  0  0  0  0
   -1.6416   -1.1338   -1.0515 C   0  0  0  0  0  0  0  0  0  0  0  0
   -1.5599   -0.7743    0.2999 C   0  0  0  0  0  0  0  0  0  0  0  0
    3.4614   -0.5378   -3.7609 H   0  0  0  0  0  0  0  0  0  0  0  0
    2.6149   -2.0810   -3.6827 H   0  0  0  0  0  0  0  0  0  0  0  0
    3.9393   -1.7678   -2.5688 H   0  0  0  0  0  0  0  0  0  0  0  0
    1.2115   -0.3596   -2.6452 H   0  0  0  0  0  0  0  0  0  0  0  0
    1.7320   -1.5341   -1.4111 H   0  0  0  0  0  0  0  0  0  0  0  0
    3.2205    2.4491   -1.3787 H   0  0  0  0  0  0  0  0  0  0  0  0
    3.8924    1.3737   -2.6408 H   0  0  0  0  0  0  0  0  0  0  0  0
    2.1709    1.8660   -2.7206 H   0  0  0  0  0  0  0  0  0  0  0  0
    4.6657   -0.2504   -1.1310 H   0  0  0  0  0  0  0  0  0  0  0  0
    3.5836   -0.9694    0.1171 H   0  0  0  0  0  0  0  0  0  0  0  0
    4.1398    0.7358    0.2598 H   0  0  0  0  0  0  0  0  0  0  0  0
    1.2973   -0.1234    0.3834 H   0  0  0  0  0  0  0  0  0  0  0  0
    2.0293    1.4839    0.5485 H   0  0  0  0  0  0  0  0  0  0  0  0
    0.5495    2.4859   -1.0770 H   0  0  0  0  0  0  0  0  0  0  0  0
   -0.0793    0.9680   -1.6362 H   0  0  0  0  0  0  0  0  0  0  0  0
   -0.8564    2.5929    0.7337 H   0  0  0  0  0  0  0  0  0  0  0  0
   -3.3306    2.8015    1.1336 H   0  0  0  0  0  0  0  0  0  0  0  0
   -4.6660    3.2920    3.1471 H   0  0  0  0  0  0  0  0  0  0  0  0
   -4.6048    1.7595    5.0939 H   0  0  0  0  0  0  0  0  0  0  0  0
   -3.2164   -0.2791    5.0308 H   0  0  0  0  0  0  0  0  0  0  0  0
   -1.2683   -3.9164    1.6288 H   0  0  0  0  0  0  0  0  0  0  0  0
   -1.2926   -4.5126   -0.7639 H   0  0  0  0  0  0  0  0  0  0  0  0
   -1.8195   -0.3784   -1.8126 H   0  0  0  0  0  0  0  0  0  0  0  0
  1  2  1  0
  2  3  1  0
  3  4  1  0
  3  5  1  0
  3  6  1  0
  6  7  1  0
  7  8  1  0
  8  9  2  3
  9 10  1  0
 10 11  2  0
 11 12  1  0
 12 13  2  0
 13 14  1  0
 14 15  2  0
 15 16  1  0
 16 17  1  0
 17 18  2  0
 18 19  1  0
 19 20  2  0
 20 21  1  0
 20 22  1  0
 22 23  2  0
 23  9  1  0
 15 10  1  0
 23 17  1  0
  1 24  1  0
  1 25  1  0
  1 26  1  0
  2 27  1  0
  2 28  1  0
  4 29  1  0
  4 30  1  0
  4 31  1  0
  5 32  1  0
  5 33  1  0
  5 34  1  0
  6 35  1  0
  6 36  1  0
  7 37  1  0
  7 38  1  0
  8 39  1  0
 11 40  1  0
 12 41  1  0
 13 42  1  0
 14 43  1  0
 18 44  1  0
 19 45  1  0
 22 46  1  0
M  CHG  1   3   1
M  END
$$$$
