
     RDKit          3D

 30 32  0  0  0  0  0  0  0  0999 V2000
   -0.1780    2.1241    0.2265 C   0  0  0  0  0  0  0  0  0  0  0  0
   -0.6113    0.7414    0.2504 N   0  0  0  0  0  0  0  0  0  0  0  0
    0.2310   -0.3529    0.2088 C   0  0  0  0  0  0  0  0  0  0  0  0
    1.6881   -0.2696    0.1327 C   0  0  0  0  0  0  0  0  0  0  0  0
    2.4280   -0.1275    1.3135 C   0  0  0  0  0  0  0  0  0  0  0  0
    3.8211   -0.0320    1.2681 C   0  0  0  0  0  0  0  0  0  0  0  0
    4.4852   -0.0785    0.0424 C   0  0  0  0  0  0  0  0  0  0  0  0
    3.7587   -0.2240   -1.1391 C   0  0  0  0  0  0  0  0  0  0  0  0
    2.3702   -0.3225   -1.0915 C   0  0  0  0  0  0  0  0  0  0  0  0
    1.7240   -0.4630   -2.2902 O   0  0  0  0  0  0  0  0  0  0  0  0
   -0.5671   -1.4804    0.2454 C   0  0  0  0  0  0  0  0  0  0  0  0
   -1.9222   -1.0671    0.3203 C   0  0  0  0  0  0  0  0  0  0  0  0
   -3.1463   -1.7613    0.3870 C   0  0  0  0  0  0  0  0  0  0  0  0
   -4.3429   -1.0421    0.4630 C   0  0  0  0  0  0  0  0  0  0  0  0
   -4.3308    0.3490    0.4757 C   0  0  0  0  0  0  0  0  0  0  0  0
   -3.1279    1.0594    0.4104 C   0  0  0  0  0  0  0  0  0  0  0  0
   -1.9297    0.3297    0.3289 C   0  0  0  0  0  0  0  0  0  0  0  0
    0.6982    2.2228   -0.4185 H   0  0  0  0  0  0  0  0  0  0  0  0
   -0.9738    2.7544   -0.1760 H   0  0  0  0  0  0  0  0  0  0  0  0
    0.0617    2.4206    1.2506 H   0  0  0  0  0  0  0  0  0  0  0  0
    1.9215   -0.0941    2.2756 H   0  0  0  0  0  0  0  0  0  0  0  0
    4.3879    0.0759    2.1894 H   0  0  0  0  0  0  0  0  0  0  0  0
    5.5690   -0.0053    0.0063 H   0  0  0  0  0  0  0  0  0  0  0  0
    4.2720   -0.2640   -2.0957 H   0  0  0  0  0  0  0  0  0  0  0  0
    0.7787   -0.6056   -2.1045 H   0  0  0  0  0  0  0  0  0  0  0  0
   -0.2084   -2.5019    0.2281 H   0  0  0  0  0  0  0  0  0  0  0  0
   -3.1625   -2.8473    0.3823 H   0  0  0  0  0  0  0  0  0  0  0  0
   -5.2883   -1.5761    0.5155 H   0  0  0  0  0  0  0  0  0  0  0  0
   -5.2702    0.8936    0.5384 H   0  0  0  0  0  0  0  0  0  0  0  0
   -3.1358    2.1442    0.4250 H   0  0  0  0  0  0  0  0  0  0  0  0
  1  2  1  0
  2  3  1  0
  3  4  1  0
  4  5  2  0
  5  6  1  0
  6  7  2  0
  7  8  1  0
  8  9  2  0
  9 10  1  0
  3 11  2  0
 11 12  1  0
 12 13  2  0
 13 14  1  0
 14 15  2  0
 15 16  1  0
 16 17  2  0
 17  2  1  0
  9  4  1  0
 17 12  1  0
  1 18  1  0
  1 19  1  0
  1 20  1  0
  5 21  1  0
  6 22  1  0
  7 23  1  0
  8 24  1  0
 10 25  1  0
 11 26  1  0
 13 27  1  0
 14 28  1  0
 15 29  1  0
 16 30  1  0
M  END
$$$$
