
     RDKit          3D

 38 40  0  0  0  0  0  0  0  0999 V2000
   -2.1199   -2.0220   -1.1710 C   0  0  0  0  0  0  0  0  0  0  0  0
   -1.3971   -0.6935   -0.9272 C   0  0  0  0  0  0  0  0  0  0  0  0
   -1.5003    0.2223   -2.1715 C   0  0  0  0  0  0  0  0  0  0  0  0
   -1.4479    1.6502   -1.6197 C   0  0  0  0  0  0  0  0  0  0  0  0
   -1.2638    1.4698   -0.1061 C   0  0  0  0  0  0  0  0  0  0  0  0
    0.2367    1.3847    0.1481 C   0  0  0  0  0  0  0  0  0  0  0  0
    0.8048    2.3830    0.5934 O   0  0  0  0  0  0  0  0  0  0  0  0
    0.8554    0.1860   -0.2561 N   0  0  0  0  0  0  0  0  0  0  0  0
    2.2932    0.0475   -0.1297 C   0  0  0  0  0  0  0  0  0  0  0  0
    3.0172   -0.7540   -1.0327 C   0  0  0  0  0  0  0  0  0  0  0  0
    4.4064   -0.8949   -0.9384 C   0  0  0  0  0  0  0  0  0  0  0  0
    5.1053   -0.2345    0.0654 C   0  0  0  0  0  0  0  0  0  0  0  0
    4.4096    0.5617    0.9682 C   0  0  0  0  0  0  0  0  0  0  0  0
    5.2692    1.3693    2.2232 Cl  0  0  0  0  0  0  0  0  0  0  0  0
    3.0218    0.7054    0.8747 C   0  0  0  0  0  0  0  0  0  0  0  0
    0.1068   -0.9415   -0.6640 C   0  0  0  0  0  0  0  0  0  0  0  0
    0.5655   -2.0803   -0.7788 O   0  0  0  0  0  0  0  0  0  0  0  0
   -1.9818    0.1548    0.2267 C   0  0  0  0  0  0  0  0  0  0  0  0
   -1.6857   -0.3740    1.6428 C   0  0  0  0  0  0  0  0  0  0  0  0
   -3.5164    0.3384    0.1416 C   0  0  0  0  0  0  0  0  0  0  0  0
   -1.6665   -2.5700   -2.0053 H   0  0  0  0  0  0  0  0  0  0  0  0
   -3.1753   -1.8751   -1.4219 H   0  0  0  0  0  0  0  0  0  0  0  0
   -2.0695   -2.6692   -0.2887 H   0  0  0  0  0  0  0  0  0  0  0  0
   -0.6843    0.0486   -2.8828 H   0  0  0  0  0  0  0  0  0  0  0  0
   -2.4404    0.0720   -2.7151 H   0  0  0  0  0  0  0  0  0  0  0  0
   -2.3863    2.1726   -1.8374 H   0  0  0  0  0  0  0  0  0  0  0  0
   -0.6397    2.2261   -2.0842 H   0  0  0  0  0  0  0  0  0  0  0  0
   -1.6675    2.3185    0.4572 H   0  0  0  0  0  0  0  0  0  0  0  0
    2.5177   -1.2719   -1.8493 H   0  0  0  0  0  0  0  0  0  0  0  0
    4.9369   -1.5205   -1.6521 H   0  0  0  0  0  0  0  0  0  0  0  0
    6.1834   -0.3456    0.1405 H   0  0  0  0  0  0  0  0  0  0  0  0
    2.5260    1.3135    1.6261 H   0  0  0  0  0  0  0  0  0  0  0  0
   -0.6234   -0.5377    1.8415 H   0  0  0  0  0  0  0  0  0  0  0  0
   -2.0440    0.3340    2.3992 H   0  0  0  0  0  0  0  0  0  0  0  0
   -2.1933   -1.3294    1.8162 H   0  0  0  0  0  0  0  0  0  0  0  0
   -3.8514    1.1095    0.8451 H   0  0  0  0  0  0  0  0  0  0  0  0
   -3.8617    0.6352   -0.8529 H   0  0  0  0  0  0  0  0  0  0  0  0
   -4.0400   -0.5887    0.4010 H   0  0  0  0  0  0  0  0  0  0  0  0
  1  2  1  0
  2  3  1  0
  3  4  1  0
  4  5  1  0
  5  6  1  0
  6  7  2  0
  6  8  1  0
  8  9  1  0
  9 10  2  0
 10 11  1  0
 11 12  2  0
 12 13  1  0
 13 14  1  0
 13 15  2  0
  8 16  1  0
 16 17  2  0
  5 18  1  0
 18 19  1  0
 18 20  1  0
 16  2  1  0
 18  2  1  0
 15  9  1  0
  1 21  1  0
  1 22  1  0
  1 23  1  0
  3 24  1  0
  3 25  1  0
  4 26  1  0
  4 27  1  0
  5 28  1  0
 10 29  1  0
 11 30  1  0
 12 31  1  0
 15 32  1  0
 19 33  1  0
 19 34  1  0
 19 35  1  0
 20 36  1  0
 20 37  1  0
 20 38  1  0
M  END
$$$$
