
     RDKit          3D

 39 41  0  0  0  0  0  0  0  0999 V2000
    5.0277    0.2118   -0.0176 C   0  0  0  0  0  0  0  0  0  0  0  0
    3.8708   -0.6720   -0.1911 N   0  0  0  0  0  0  0  0  0  0  0  0
    3.7772   -1.5853    0.9506 C   0  0  0  0  0  0  0  0  0  0  0  0
    2.6455    0.1345   -0.3559 C   0  0  0  0  0  0  0  0  0  0  0  0
    1.4176   -0.6948   -0.7833 C   0  0  0  0  0  0  0  0  0  0  0  0
    0.2435    0.1968   -1.1153 C   0  0  0  0  0  0  0  0  0  0  0  0
   -1.0129    0.1873   -0.6130 C   0  0  0  0  0  0  0  0  0  0  0  0
   -1.9057    1.3236   -0.9794 C   0  0  0  0  0  0  0  0  0  0  0  0
   -2.0613    1.7532   -2.3070 C   0  0  0  0  0  0  0  0  0  0  0  0
   -2.9075    2.8209   -2.6125 C   0  0  0  0  0  0  0  0  0  0  0  0
   -3.6128    3.4647   -1.5986 C   0  0  0  0  0  0  0  0  0  0  0  0
   -3.4837    3.0351   -0.2771 C   0  0  0  0  0  0  0  0  0  0  0  0
   -2.6436    1.9597    0.0387 C   0  0  0  0  0  0  0  0  0  0  0  0
   -2.5397    1.4359    1.7523 S   0  0  0  0  0  0  0  0  0  0  0  0
   -2.1619   -0.3045    1.5439 C   0  0  0  0  0  0  0  0  0  0  0  0
   -2.6027   -1.2003    2.5271 C   0  0  0  0  0  0  0  0  0  0  0  0
   -2.3878   -2.5713    2.3777 C   0  0  0  0  0  0  0  0  0  0  0  0
   -1.7456   -3.0486    1.2383 C   0  0  0  0  0  0  0  0  0  0  0  0
   -1.5084   -4.7411    1.0394 Cl  0  0  0  0  0  0  0  0  0  0  0  0
   -1.2964   -2.1674    0.2556 C   0  0  0  0  0  0  0  0  0  0  0  0
   -1.4645   -0.7840    0.4168 C   0  0  0  0  0  0  0  0  0  0  0  0
    5.1490    0.8646   -0.8892 H   0  0  0  0  0  0  0  0  0  0  0  0
    4.9376    0.8403    0.8759 H   0  0  0  0  0  0  0  0  0  0  0  0
    5.9511   -0.3729    0.0626 H   0  0  0  0  0  0  0  0  0  0  0  0
    3.0029   -2.3421    0.7918 H   0  0  0  0  0  0  0  0  0  0  0  0
    4.7148   -2.1390    1.0774 H   0  0  0  0  0  0  0  0  0  0  0  0
    3.5634   -1.0569    1.8867 H   0  0  0  0  0  0  0  0  0  0  0  0
    2.4183    0.6887    0.5651 H   0  0  0  0  0  0  0  0  0  0  0  0
    2.8282    0.8847   -1.1373 H   0  0  0  0  0  0  0  0  0  0  0  0
    1.6625   -1.2822   -1.6765 H   0  0  0  0  0  0  0  0  0  0  0  0
    1.1731   -1.3980    0.0140 H   0  0  0  0  0  0  0  0  0  0  0  0
    0.5090    0.9774   -1.8296 H   0  0  0  0  0  0  0  0  0  0  0  0
   -1.5323    1.2535   -3.1151 H   0  0  0  0  0  0  0  0  0  0  0  0
   -3.0182    3.1475   -3.6437 H   0  0  0  0  0  0  0  0  0  0  0  0
   -4.2708    4.2968   -1.8367 H   0  0  0  0  0  0  0  0  0  0  0  0
   -4.0491    3.5401    0.5025 H   0  0  0  0  0  0  0  0  0  0  0  0
   -3.1296   -0.8379    3.4071 H   0  0  0  0  0  0  0  0  0  0  0  0
   -2.7382   -3.2589    3.1430 H   0  0  0  0  0  0  0  0  0  0  0  0
   -0.8193   -2.5601   -0.6389 H   0  0  0  0  0  0  0  0  0  0  0  0
  1  2  1  0
  2  3  1  0
  2  4  1  0
  4  5  1  0
  5  6  1  0
  6  7  2  3
  7  8  1  0
  8  9  2  0
  9 10  1  0
 10 11  2  0
 11 12  1  0
 12 13  2  0
 13 14  1  0
 14 15  1  0
 15 16  2  0
 16 17  1  0
 17 18  2  0
 18 19  1  0
 18 20  1  0
 20 21  2  0
 21  7  1  0
 13  8  1  0
 21 15  1  0
  1 22  1  0
  1 23  1  0
  1 24  1  0
  3 25  1  0
  3 26  1  0
  3 27  1  0
  4 28  1  0
  4 29  1  0
  5 30  1  0
  5 31  1  0
  6 32  1  0
  9 33  1  0
 10 34  1  0
 11 35  1  0
 12 36  1  0
 16 37  1  0
 17 38  1  0
 20 39  1  0
M  END
$$$$
