
     RDKit          3D

 60 65  0  0  0  0  0  0  0  0999 V2000
    0.9343   -1.4304   -3.2946 O   0  0  0  0  0  0  0  0  0  0  0  0
    1.4636   -1.2181   -2.2092 C   0  0  0  0  0  0  0  0  0  0  0  0
    0.8197   -0.4975   -1.2083 N   0  0  0  0  0  0  0  0  0  0  0  0
    1.3617   -0.2505    0.0488 C   0  0  0  0  0  0  0  0  0  0  0  0
    0.5091    0.5575    1.0182 C   0  0  0  0  0  0  0  0  0  0  0  0
    0.2582    1.9819    0.5018 C   0  0  0  0  0  0  0  0  0  0  0  0
   -1.2004    2.2213    0.1244 C   0  0  0  0  0  0  0  0  0  0  0  0
   -2.0698    1.9398    1.2812 N   0  0  0  0  0  0  0  0  0  0  0  0
   -3.6885    2.4474    1.1995 S   0  0  0  0  0  6  0  0  0  0  0  0
   -4.3074    2.1974    2.4826 O   0  0  0  0  0  0  0  0  0  0  0  0
   -3.7171    3.7611    0.5929 O   0  0  0  0  0  0  0  0  0  0  0  0
   -4.3955    1.3085    0.0254 C   0  0  0  0  0  0  0  0  0  0  0  0
   -4.4685    1.6674   -1.3264 C   0  0  0  0  0  0  0  0  0  0  0  0
   -5.0654    0.7961   -2.2398 C   0  0  0  0  0  0  0  0  0  0  0  0
   -5.5970   -0.4157   -1.7985 C   0  0  0  0  0  0  0  0  0  0  0  0
   -5.5068   -0.7758   -0.4485 C   0  0  0  0  0  0  0  0  0  0  0  0
   -4.9289    0.0960    0.4724 C   0  0  0  0  0  0  0  0  0  0  0  0
   -5.9807   -1.9640    0.0460 O   0  0  0  0  0  0  0  0  0  0  0  0
   -6.2989   -2.8885   -1.0025 C   0  0  0  0  0  0  0  0  0  0  0  0
   -7.0415   -2.1925   -2.1332 C   0  0  0  0  0  0  0  0  0  0  0  0
   -6.2031   -1.2036   -2.7443 O   0  0  0  0  0  0  0  0  0  0  0  0
   -1.7528    0.7447    2.0946 C   0  0  0  0  0  0  0  0  0  0  0  0
   -0.7866   -0.1798    1.3682 C   0  0  0  0  0  0  0  0  0  0  0  0
    2.5418   -0.6615    0.4297 N   0  0  0  0  0  0  0  0  0  0  0  0
    3.1990   -1.3484   -0.5370 C   0  0  0  0  0  0  0  0  0  0  0  0
    2.7706   -1.6598   -1.8047 C   0  0  0  0  0  0  0  0  0  0  0  0
    3.7206   -2.3699   -2.4716 N   0  0  0  0  0  0  0  0  0  0  0  0
    4.7591   -2.5130   -1.6473 N   0  0  0  0  0  0  0  0  0  0  0  0
    4.4542   -1.8832   -0.4849 N   0  0  0  0  0  0  0  0  0  0  0  0
    5.3821   -1.8812    0.6263 C   0  0  0  0  0  0  0  0  0  0  0  0
    6.2008   -0.6152    0.6619 C   0  0  0  0  0  0  0  0  0  0  0  0
    7.3220   -0.4656   -0.1717 C   0  0  0  0  0  0  0  0  0  0  0  0
    8.0779    0.7095   -0.1430 C   0  0  0  0  0  0  0  0  0  0  0  0
    7.7195    1.7476    0.7156 C   0  0  0  0  0  0  0  0  0  0  0  0
    6.6051    1.6053    1.5333 C   0  0  0  0  0  0  0  0  0  0  0  0
    6.2611    2.6019    2.3586 F   0  0  0  0  0  0  0  0  0  0  0  0
    5.8432    0.4414    1.5123 C   0  0  0  0  0  0  0  0  0  0  0  0
   -0.1033   -0.1794   -1.4612 H   0  0  0  0  0  0  0  0  0  0  0  0
    1.0976    0.6508    1.9418 H   0  0  0  0  0  0  0  0  0  0  0  0
    0.9066    2.2238   -0.3477 H   0  0  0  0  0  0  0  0  0  0  0  0
    0.5255    2.6875    1.2986 H   0  0  0  0  0  0  0  0  0  0  0  0
   -1.4819    1.5903   -0.7245 H   0  0  0  0  0  0  0  0  0  0  0  0
   -1.3092    3.2672   -0.1787 H   0  0  0  0  0  0  0  0  0  0  0  0
   -4.0845    2.6261   -1.6702 H   0  0  0  0  0  0  0  0  0  0  0  0
   -5.1426    1.0719   -3.2877 H   0  0  0  0  0  0  0  0  0  0  0  0
   -4.9053   -0.1722    1.5258 H   0  0  0  0  0  0  0  0  0  0  0  0
   -6.9228   -3.6769   -0.5698 H   0  0  0  0  0  0  0  0  0  0  0  0
   -5.3674   -3.3458   -1.3583 H   0  0  0  0  0  0  0  0  0  0  0  0
   -7.9571   -1.7020   -1.7720 H   0  0  0  0  0  0  0  0  0  0  0  0
   -7.3235   -2.9170   -2.9078 H   0  0  0  0  0  0  0  0  0  0  0  0
   -2.6512    0.1803    2.3543 H   0  0  0  0  0  0  0  0  0  0  0  0
   -1.3087    1.0885    3.0356 H   0  0  0  0  0  0  0  0  0  0  0  0
   -1.2728   -0.5796    0.4701 H   0  0  0  0  0  0  0  0  0  0  0  0
   -0.5560   -1.0469    1.9987 H   0  0  0  0  0  0  0  0  0  0  0  0
    4.8038   -2.0061    1.5488 H   0  0  0  0  0  0  0  0  0  0  0  0
    6.0318   -2.7595    0.5360 H   0  0  0  0  0  0  0  0  0  0  0  0
    7.6103   -1.2638   -0.8542 H   0  0  0  0  0  0  0  0  0  0  0  0
    8.9437    0.8144   -0.7915 H   0  0  0  0  0  0  0  0  0  0  0  0
    8.2986    2.6646    0.7503 H   0  0  0  0  0  0  0  0  0  0  0  0
    4.9736    0.3735    2.1610 H   0  0  0  0  0  0  0  0  0  0  0  0
  1  2  2  0
  2  3  1  0
  3  4  1  0
  4  5  1  0
  5  6  1  0
  6  7  1  0
  7  8  1  0
  8  9  1  0
  9 10  2  0
  9 11  2  0
  9 12  1  0
 12 13  2  0
 13 14  1  0
 14 15  2  0
 15 16  1  0
 16 17  2  0
 16 18  1  0
 18 19  1  0
 19 20  1  0
 20 21  1  0
  8 22  1  0
 22 23  1  0
  4 24  2  0
 24 25  1  0
 25 26  2  0
 26 27  1  0
 27 28  2  0
 28 29  1  0
 29 30  1  0
 30 31  1  0
 31 32  2  0
 32 33  1  0
 33 34  2  0
 34 35  1  0
 35 36  1  0
 35 37  2  0
 26  2  1  0
 37 31  1  0
 23  5  1  0
 29 25  1  0
 17 12  1  0
 21 15  1  0
  3 38  1  0
  5 39  1  0
  6 40  1  0
  6 41  1  0
  7 42  1  0
  7 43  1  0
 13 44  1  0
 14 45  1  0
 17 46  1  0
 19 47  1  0
 19 48  1  0
 20 49  1  0
 20 50  1  0
 22 51  1  0
 22 52  1  0
 23 53  1  0
 23 54  1  0
 30 55  1  0
 30 56  1  0
 32 57  1  0
 33 58  1  0
 34 59  1  0
 37 60  1  0
M  END
$$$$
