
     RDKit          3D

 49 50  0  0  0  0  0  0  0  0999 V2000
    6.4986    0.1695    0.9345 C   0  0  0  0  0  0  0  0  0  0  0  0
    6.1636   -0.5782   -0.3425 C   0  0  0  0  0  0  0  0  0  0  0  0
    4.8326   -0.2581   -0.7682 O   0  0  0  0  0  0  0  0  0  0  0  0
    3.8316   -1.0139   -0.2275 C   0  0  0  0  0  0  0  0  0  0  0  0
    4.0280   -1.9160    0.5801 O   0  0  0  0  0  0  0  0  0  0  0  0
    2.4962   -0.6243   -0.7083 C   0  0  0  0  0  0  0  0  0  0  0  0
    2.1454    0.2861   -1.7694 C   0  0  0  0  0  0  0  0  0  0  0  0
    3.0966    1.0430   -2.6365 C   0  0  0  0  0  0  0  0  0  0  0  0
    0.7595    0.3279   -1.8450 C   0  0  0  0  0  0  0  0  0  0  0  0
   -0.1212    1.1249   -2.7506 C   0  0  0  0  0  0  0  0  0  0  0  0
    0.2569   -0.5548   -0.9089 N   0  0  0  0  0  0  0  0  0  0  0  0
   -1.1635   -0.8979   -0.7548 C   0  0  0  0  0  0  0  0  0  0  0  0
   -1.9316   -0.0376    0.2286 C   0  0  0  0  0  0  0  0  0  0  0  0
   -1.3347    0.9706    1.0001 C   0  0  0  0  0  0  0  0  0  0  0  0
   -2.0896    1.7189    1.9023 C   0  0  0  0  0  0  0  0  0  0  0  0
   -3.4514    1.4644    2.0653 C   0  0  0  0  0  0  0  0  0  0  0  0
   -4.0777    0.4617    1.3210 C   0  0  0  0  0  0  0  0  0  0  0  0
   -5.3987    0.1213    1.4516 O   0  0  0  0  0  0  0  0  0  0  0  0
   -6.1270    0.7065    2.5229 C   0  0  0  0  0  0  0  0  0  0  0  0
   -3.3169   -0.2641    0.3813 C   0  0  0  0  0  0  0  0  0  0  0  0
   -3.8448   -1.2790   -0.3867 O   0  0  0  0  0  0  0  0  0  0  0  0
   -4.9871   -0.8830   -1.1451 C   0  0  0  0  0  0  0  0  0  0  0  0
    1.2962   -1.1058   -0.1845 C   0  0  0  0  0  0  0  0  0  0  0  0
    1.0813   -2.0581    0.9491 C   0  0  0  0  0  0  0  0  0  0  0  0
    5.8358   -0.1313    1.7521 H   0  0  0  0  0  0  0  0  0  0  0  0
    6.3635    1.2471    0.7952 H   0  0  0  0  0  0  0  0  0  0  0  0
    7.5327   -0.0208    1.2353 H   0  0  0  0  0  0  0  0  0  0  0  0
    6.2979   -1.6593   -0.2234 H   0  0  0  0  0  0  0  0  0  0  0  0
    6.8396   -0.2587   -1.1424 H   0  0  0  0  0  0  0  0  0  0  0  0
    3.8363    0.3674   -3.0780 H   0  0  0  0  0  0  0  0  0  0  0  0
    2.5890    1.5428   -3.4660 H   0  0  0  0  0  0  0  0  0  0  0  0
    3.6171    1.8085   -2.0526 H   0  0  0  0  0  0  0  0  0  0  0  0
    0.4062    1.9897   -3.1631 H   0  0  0  0  0  0  0  0  0  0  0  0
   -0.4643    0.5055   -3.5851 H   0  0  0  0  0  0  0  0  0  0  0  0
   -0.9954    1.5136   -2.2197 H   0  0  0  0  0  0  0  0  0  0  0  0
   -1.6156   -0.8261   -1.7507 H   0  0  0  0  0  0  0  0  0  0  0  0
   -1.2109   -1.9513   -0.4564 H   0  0  0  0  0  0  0  0  0  0  0  0
   -0.2722    1.1904    0.9149 H   0  0  0  0  0  0  0  0  0  0  0  0
   -1.6092    2.4977    2.4902 H   0  0  0  0  0  0  0  0  0  0  0  0
   -3.9927    2.0656    2.7880 H   0  0  0  0  0  0  0  0  0  0  0  0
   -6.2484    1.7840    2.3718 H   0  0  0  0  0  0  0  0  0  0  0  0
   -5.6581    0.4906    3.4888 H   0  0  0  0  0  0  0  0  0  0  0  0
   -7.1255    0.2585    2.5314 H   0  0  0  0  0  0  0  0  0  0  0  0
   -4.9893    0.1860   -1.3882 H   0  0  0  0  0  0  0  0  0  0  0  0
   -5.9044   -1.1638   -0.6197 H   0  0  0  0  0  0  0  0  0  0  0  0
   -4.9649   -1.4373   -2.0886 H   0  0  0  0  0  0  0  0  0  0  0  0
    1.1987   -3.0888    0.6009 H   0  0  0  0  0  0  0  0  0  0  0  0
    0.0908   -1.9572    1.4003 H   0  0  0  0  0  0  0  0  0  0  0  0
    1.8010   -1.8769    1.7530 H   0  0  0  0  0  0  0  0  0  0  0  0
  1  2  1  0
  2  3  1  0
  3  4  1  0
  4  5  2  0
  4  6  1  0
  6  7  1  0
  7  8  1  0
  7  9  2  0
  9 10  1  0
  9 11  1  0
 11 12  1  0
 12 13  1  0
 13 14  2  0
 14 15  1  0
 15 16  2  0
 16 17  1  0
 17 18  1  0
 18 19  1  0
 17 20  2  0
 20 21  1  0
 21 22  1  0
 11 23  1  0
 23 24  1  0
 23  6  2  0
 20 13  1  0
  1 25  1  0
  1 26  1  0
  1 27  1  0
  2 28  1  0
  2 29  1  0
  8 30  1  0
  8 31  1  0
  8 32  1  0
 10 33  1  0
 10 34  1  0
 10 35  1  0
 12 36  1  0
 12 37  1  0
 14 38  1  0
 15 39  1  0
 16 40  1  0
 19 41  1  0
 19 42  1  0
 19 43  1  0
 22 44  1  0
 22 45  1  0
 22 46  1  0
 24 47  1  0
 24 48  1  0
 24 49  1  0
M  END
$$$$
