
     RDKit          3D

 60 64  0  0  0  0  0  0  0  0999 V2000
   -7.6601    2.5468    2.7856 C   0  0  0  0  0  0  0  0  0  0  0  0
   -6.9309    2.1036    1.5505 C   0  0  0  0  0  0  0  0  0  0  0  0
   -6.1438    0.9461    1.5719 C   0  0  0  0  0  0  0  0  0  0  0  0
   -5.4362    0.5471    0.4343 C   0  0  0  0  0  0  0  0  0  0  0  0
   -5.4985    1.3030   -0.7441 C   0  0  0  0  0  0  0  0  0  0  0  0
   -4.7246    0.8814   -1.9690 C   0  0  0  0  0  0  0  0  0  0  0  0
   -3.4271    1.5233   -2.0246 N   0  0  0  0  0  0  0  0  0  0  0  0
   -3.2580    2.6957   -2.6894 N   0  0  0  0  0  0  0  0  0  0  0  0
   -1.9748    3.0445   -2.5786 N   0  0  0  0  0  0  0  0  0  0  0  0
   -1.3508    2.0667   -1.8656 C   0  0  0  0  0  0  0  0  0  0  0  0
    0.0197    1.9303   -1.4527 C   0  0  0  0  0  0  0  0  0  0  0  0
    0.9225    2.7292   -1.6755 O   0  0  0  0  0  0  0  0  0  0  0  0
    0.2379    0.7542   -0.7427 N   0  0  0  0  0  0  0  0  0  0  0  0
   -0.7494   -0.1828   -0.4562 C   0  0  0  0  0  0  0  0  0  0  0  0
   -0.3171   -1.4264    0.3138 C   0  0  0  0  0  0  0  0  0  0  0  0
    0.5836   -2.3254   -0.5444 C   0  0  0  0  0  0  0  0  0  0  0  0
    2.0757   -2.0243   -0.4309 C   0  0  0  0  0  0  0  0  0  0  0  0
    2.5223   -1.7930    0.9730 N   0  0  0  0  0  0  0  0  0  0  0  0
    4.0208   -2.5331    1.3956 S   0  0  0  0  0  6  0  0  0  0  0  0
    3.9295   -3.9282    1.0126 O   0  0  0  0  0  0  0  0  0  0  0  0
    4.3465   -2.1488    2.7527 O   0  0  0  0  0  0  0  0  0  0  0  0
    5.1663   -1.7075    0.3183 C   0  0  0  0  0  0  0  0  0  0  0  0
    5.5089   -0.3762    0.5848 C   0  0  0  0  0  0  0  0  0  0  0  0
    6.4312    0.2759   -0.2355 C   0  0  0  0  0  0  0  0  0  0  0  0
    7.0124   -0.3934   -1.3211 C   0  0  0  0  0  0  0  0  0  0  0  0
    8.0373    0.2966   -2.1770 C   0  0  0  0  0  0  0  0  0  0  0  0
    6.6776   -1.7366   -1.5609 C   0  0  0  0  0  0  0  0  0  0  0  0
    5.7543   -2.3958   -0.7445 C   0  0  0  0  0  0  0  0  0  0  0  0
    1.4720   -1.9869    2.0054 C   0  0  0  0  0  0  0  0  0  0  0  0
    0.2945   -1.0805    1.6753 C   0  0  0  0  0  0  0  0  0  0  0  0
   -1.9965   -0.0678   -0.8281 N   0  0  0  0  0  0  0  0  0  0  0  0
   -2.2388    1.0759   -1.5179 C   0  0  0  0  0  0  0  0  0  0  0  0
   -6.2670    2.4765   -0.7556 C   0  0  0  0  0  0  0  0  0  0  0  0
   -6.9747    2.8736    0.3824 C   0  0  0  0  0  0  0  0  0  0  0  0
   -8.5295    3.1634    2.5290 H   0  0  0  0  0  0  0  0  0  0  0  0
   -8.0294    1.6832    3.3516 H   0  0  0  0  0  0  0  0  0  0  0  0
   -6.9888    3.1302    3.4255 H   0  0  0  0  0  0  0  0  0  0  0  0
   -6.0729    0.3474    2.4779 H   0  0  0  0  0  0  0  0  0  0  0  0
   -4.8270   -0.3543    0.4792 H   0  0  0  0  0  0  0  0  0  0  0  0
   -4.5711   -0.2044   -1.9841 H   0  0  0  0  0  0  0  0  0  0  0  0
   -5.2723    1.1379   -2.8842 H   0  0  0  0  0  0  0  0  0  0  0  0
    1.1816    0.6501   -0.3952 H   0  0  0  0  0  0  0  0  0  0  0  0
   -1.2370   -2.0008    0.5020 H   0  0  0  0  0  0  0  0  0  0  0  0
    0.4235   -3.3667   -0.2295 H   0  0  0  0  0  0  0  0  0  0  0  0
    0.2851   -2.2827   -1.5996 H   0  0  0  0  0  0  0  0  0  0  0  0
    2.6229   -2.8503   -0.8988 H   0  0  0  0  0  0  0  0  0  0  0  0
    2.3238   -1.1251   -1.0063 H   0  0  0  0  0  0  0  0  0  0  0  0
    5.0703    0.1478    1.4314 H   0  0  0  0  0  0  0  0  0  0  0  0
    6.7053    1.3086   -0.0173 H   0  0  0  0  0  0  0  0  0  0  0  0
    7.9069    1.3861   -2.1481 H   0  0  0  0  0  0  0  0  0  0  0  0
    9.0466    0.0536   -1.8224 H   0  0  0  0  0  0  0  0  0  0  0  0
    7.9403   -0.0150   -3.2218 H   0  0  0  0  0  0  0  0  0  0  0  0
    7.1434   -2.2771   -2.3825 H   0  0  0  0  0  0  0  0  0  0  0  0
    5.5146   -3.4408   -0.9346 H   0  0  0  0  0  0  0  0  0  0  0  0
    1.8521   -1.6944    2.9894 H   0  0  0  0  0  0  0  0  0  0  0  0
    1.1667   -3.0386    2.0576 H   0  0  0  0  0  0  0  0  0  0  0  0
    0.6235   -0.0338    1.7166 H   0  0  0  0  0  0  0  0  0  0  0  0
   -0.4734   -1.1794    2.4545 H   0  0  0  0  0  0  0  0  0  0  0  0
   -6.3114    3.0989   -1.6482 H   0  0  0  0  0  0  0  0  0  0  0  0
   -7.5586    3.7928    0.3509 H   0  0  0  0  0  0  0  0  0  0  0  0
  1  2  1  0
  2  3  2  0
  3  4  1  0
  4  5  2  0
  5  6  1  0
  6  7  1  0
  7  8  1  0
  8  9  2  0
  9 10  1  0
 10 11  1  0
 11 12  2  0
 11 13  1  0
 13 14  1  0
 14 15  1  0
 15 16  1  0
 16 17  1  0
 17 18  1  0
 18 19  1  0
 19 20  2  0
 19 21  2  0
 19 22  1  0
 22 23  2  0
 23 24  1  0
 24 25  2  0
 25 26  1  0
 25 27  1  0
 27 28  2  0
 18 29  1  0
 29 30  1  0
 14 31  2  0
 31 32  1  0
  5 33  1  0
 33 34  2  0
 34  2  1  0
 32  7  1  0
 32 10  2  0
 30 15  1  0
 28 22  1  0
  1 35  1  0
  1 36  1  0
  1 37  1  0
  3 38  1  0
  4 39  1  0
  6 40  1  0
  6 41  1  0
 13 42  1  0
 15 43  1  0
 16 44  1  0
 16 45  1  0
 17 46  1  0
 17 47  1  0
 23 48  1  0
 24 49  1  0
 26 50  1  0
 26 51  1  0
 26 52  1  0
 27 53  1  0
 28 54  1  0
 29 55  1  0
 29 56  1  0
 30 57  1  0
 30 58  1  0
 33 59  1  0
 34 60  1  0
M  END
$$$$
