
     RDKit          3D

 53 54  0  0  0  0  0  0  0  0999 V2000
   -4.5212   -2.1912   -2.1815 C   0  0  0  0  0  0  0  0  0  0  0  0
   -5.0334   -2.2925   -0.7536 C   0  0  0  0  0  0  0  0  0  0  0  0
   -5.6764   -1.0084   -0.3574 N   0  0  0  0  0  0  0  0  0  0  0  0
   -7.0678   -0.8675   -0.8751 C   0  0  0  0  0  0  0  0  0  0  0  0
   -7.1689    0.4121   -1.6871 C   0  0  0  0  0  0  0  0  0  0  0  0
   -5.5178   -0.5969    1.2988 S   0  0  0  0  0  6  0  0  0  0  0  0
   -6.1733    0.6734    1.5233 O   0  0  0  0  0  0  0  0  0  0  0  0
   -5.8665   -1.7732    2.0680 O   0  0  0  0  0  0  0  0  0  0  0  0
   -3.7715   -0.3099    1.4594 C   0  0  0  0  0  0  0  0  0  0  0  0
   -3.0100   -1.0798    2.3413 C   0  0  0  0  0  0  0  0  0  0  0  0
   -1.6366   -0.8447    2.4436 C   0  0  0  0  0  0  0  0  0  0  0  0
   -1.0268    0.1585    1.6734 C   0  0  0  0  0  0  0  0  0  0  0  0
    0.4410    0.3583    1.8183 C   0  0  0  0  0  0  0  0  0  0  0  0
    1.1556   -0.3604    2.4995 O   0  0  0  0  0  0  0  0  0  0  0  0
    0.8489    1.4419    1.1128 O   0  0  0  0  0  0  0  0  0  0  0  0
    2.2628    1.6300    1.1121 C   0  0  0  0  0  0  0  0  0  0  0  0
    2.9924    0.6329    0.2067 C   0  0  0  0  0  0  0  0  0  0  0  0
    2.4359    0.0107   -0.6952 O   0  0  0  0  0  0  0  0  0  0  0  0
    4.3386    0.5167    0.4757 N   0  0  0  0  0  0  0  0  0  0  0  0
    5.1769   -0.4199   -0.2524 C   0  0  0  0  0  0  0  0  0  0  0  0
    6.6464   -0.3669    0.1785 C   0  0  0  0  0  0  0  0  0  0  0  0
    7.2679    0.9176   -0.1037 N   0  0  0  0  0  0  0  0  0  0  0  0
    7.9907    1.1817   -1.2403 C   0  0  0  0  0  0  0  0  0  0  0  0
    8.1874    0.1828   -2.1448 O   0  0  0  0  0  0  0  0  0  0  0  0
    8.4306    2.4417   -1.3388 C   0  0  0  0  0  0  0  0  0  0  0  0
    7.9307    3.3921    0.0285 S   0  0  0  0  0  0  0  0  0  0  0  0
    7.0697    2.0095    0.7257 C   0  0  0  0  0  0  0  0  0  0  0  0
    6.3991    2.0626    1.7459 O   0  0  0  0  0  0  0  0  0  0  0  0
   -1.8058    0.9269    0.7946 C   0  0  0  0  0  0  0  0  0  0  0  0
   -3.1795    0.6955    0.6886 C   0  0  0  0  0  0  0  0  0  0  0  0
   -3.8165   -1.3595   -2.2855 H   0  0  0  0  0  0  0  0  0  0  0  0
   -4.0061   -3.1141   -2.4657 H   0  0  0  0  0  0  0  0  0  0  0  0
   -5.3378   -2.0286   -2.8917 H   0  0  0  0  0  0  0  0  0  0  0  0
   -5.7420   -3.1224   -0.6553 H   0  0  0  0  0  0  0  0  0  0  0  0
   -4.1799   -2.5188   -0.1075 H   0  0  0  0  0  0  0  0  0  0  0  0
   -7.3399   -1.7186   -1.5092 H   0  0  0  0  0  0  0  0  0  0  0  0
   -7.7954   -0.8556   -0.0560 H   0  0  0  0  0  0  0  0  0  0  0  0
   -6.4695    0.3984   -2.5295 H   0  0  0  0  0  0  0  0  0  0  0  0
   -8.1812    0.5306   -2.0856 H   0  0  0  0  0  0  0  0  0  0  0  0
   -6.9377    1.2911   -1.0774 H   0  0  0  0  0  0  0  0  0  0  0  0
   -3.4708   -1.8582    2.9457 H   0  0  0  0  0  0  0  0  0  0  0  0
   -1.0406   -1.4476    3.1274 H   0  0  0  0  0  0  0  0  0  0  0  0
    2.4582    2.6331    0.7180 H   0  0  0  0  0  0  0  0  0  0  0  0
    2.6593    1.5950    2.1339 H   0  0  0  0  0  0  0  0  0  0  0  0
    4.7250    0.9839    1.2955 H   0  0  0  0  0  0  0  0  0  0  0  0
    5.0758   -0.2032   -1.3220 H   0  0  0  0  0  0  0  0  0  0  0  0
    4.7757   -1.4243   -0.0763 H   0  0  0  0  0  0  0  0  0  0  0  0
    6.7108   -0.5383    1.2604 H   0  0  0  0  0  0  0  0  0  0  0  0
    7.2129   -1.1684   -0.3081 H   0  0  0  0  0  0  0  0  0  0  0  0
    8.7046    0.5383   -2.8878 H   0  0  0  0  0  0  0  0  0  0  0  0
    9.0128    2.8555   -2.1488 H   0  0  0  0  0  0  0  0  0  0  0  0
   -1.3549    1.7049    0.1826 H   0  0  0  0  0  0  0  0  0  0  0  0
   -3.7817    1.2933    0.0070 H   0  0  0  0  0  0  0  0  0  0  0  0
  1  2  1  0
  2  3  1  0
  3  4  1  0
  4  5  1  0
  3  6  1  0
  6  7  2  0
  6  8  2  0
  6  9  1  0
  9 10  2  0
 10 11  1  0
 11 12  2  0
 12 13  1  0
 13 14  2  0
 13 15  1  0
 15 16  1  0
 16 17  1  0
 17 18  2  0
 17 19  1  0
 19 20  1  0
 20 21  1  0
 21 22  1  0
 22 23  1  0
 23 24  1  0
 23 25  2  0
 25 26  1  0
 26 27  1  0
 27 28  2  0
 12 29  1  0
 29 30  2  0
 30  9  1  0
 27 22  1  0
  1 31  1  0
  1 32  1  0
  1 33  1  0
  2 34  1  0
  2 35  1  0
  4 36  1  0
  4 37  1  0
  5 38  1  0
  5 39  1  0
  5 40  1  0
 10 41  1  0
 11 42  1  0
 16 43  1  0
 16 44  1  0
 19 45  1  0
 20 46  1  0
 20 47  1  0
 21 48  1  0
 21 49  1  0
 24 50  1  0
 25 51  1  0
 29 52  1  0
 30 53  1  0
M  END
$$$$
