
     RDKit          3D

 61 65  0  0  0  0  0  0  0  0999 V2000
   -7.7339    3.5894   -2.5264 C   0  0  0  0  0  0  0  0  0  0  0  0
   -6.9242    2.4717   -1.9421 C   0  0  0  0  0  0  0  0  0  0  0  0
   -5.6208    2.2340   -2.3853 C   0  0  0  0  0  0  0  0  0  0  0  0
   -4.8509    1.2152   -1.8141 C   0  0  0  0  0  0  0  0  0  0  0  0
   -5.3527    0.4113   -0.7730 C   0  0  0  0  0  0  0  0  0  0  0  0
   -4.5442   -0.6527   -0.1388 C   0  0  0  0  0  0  0  0  0  0  0  0
   -3.1696   -0.5655    0.0013 C   0  0  0  0  0  0  0  0  0  0  0  0
   -2.4912   -1.6145    0.6274 C   0  0  0  0  0  0  0  0  0  0  0  0
   -1.0191   -1.4860    0.7621 C   0  0  0  0  0  0  0  0  0  0  0  0
   -0.5266   -1.5096    1.8820 O   0  0  0  0  0  0  0  0  0  0  0  0
   -0.3644   -1.3257   -0.4459 N   0  0  0  0  0  0  0  0  0  0  0  0
    1.0156   -1.1184   -0.6505 C   0  0  0  0  0  0  0  0  0  0  0  0
    1.9618   -1.0871    0.3784 C   0  0  0  0  0  0  0  0  0  0  0  0
    3.3153   -0.8654    0.0967 C   0  0  0  0  0  0  0  0  0  0  0  0
    3.7234   -0.6541   -1.2212 C   0  0  0  0  0  0  0  0  0  0  0  0
    5.4436   -0.3726   -1.5734 S   0  0  0  0  0  6  0  0  0  0  0  0
    6.2100   -1.4234   -0.9433 O   0  0  0  0  0  0  0  0  0  0  0  0
    5.5608   -0.1182   -2.9980 O   0  0  0  0  0  0  0  0  0  0  0  0
    5.7129    1.1277   -0.8539 N   0  0  0  0  0  0  0  0  0  0  0  0
    6.4560    1.1249    0.3979 C   0  0  0  0  0  0  0  0  0  0  0  0
    6.3949    0.1518    1.3509 O   0  0  0  0  0  0  0  0  0  0  0  0
    7.1855    0.4952    2.4271 N   0  0  0  0  0  0  0  0  0  0  0  0
    7.7173    1.6848    2.1175 C   0  0  0  0  0  0  0  0  0  0  0  0
    8.6365    2.3476    3.0718 C   0  0  0  0  0  0  0  0  0  0  0  0
    7.2694    2.1483    0.8452 C   0  0  0  0  0  0  0  0  0  0  0  0
    7.6161    3.4254    0.1736 C   0  0  0  0  0  0  0  0  0  0  0  0
    2.7929   -0.6932   -2.2601 C   0  0  0  0  0  0  0  0  0  0  0  0
    1.4439   -0.9282   -1.9726 C   0  0  0  0  0  0  0  0  0  0  0  0
   -3.1845   -2.7350    1.1305 C   0  0  0  0  0  0  0  0  0  0  0  0
   -2.5803   -3.8389    1.7859 C   0  0  0  0  0  0  0  0  0  0  0  0
   -3.3458   -4.9128    2.2402 C   0  0  0  0  0  0  0  0  0  0  0  0
   -4.7202   -4.9002    2.0498 C   0  0  0  0  0  0  0  0  0  0  0  0
   -5.3187   -3.8127    1.4059 C   0  0  0  0  0  0  0  0  0  0  0  0
   -4.5787   -2.7312    0.9414 C   0  0  0  0  0  0  0  0  0  0  0  0
   -5.2303   -1.7272    0.3247 N   0  0  0  0  0  0  0  0  0  0  0  0
   -6.6692    0.6649   -0.3428 C   0  0  0  0  0  0  0  0  0  0  0  0
   -7.4416    1.6834   -0.9103 C   0  0  0  0  0  0  0  0  0  0  0  0
   -8.8052    3.3772   -2.4504 H   0  0  0  0  0  0  0  0  0  0  0  0
   -7.5035    3.7244   -3.5903 H   0  0  0  0  0  0  0  0  0  0  0  0
   -7.5202    4.5236   -1.9963 H   0  0  0  0  0  0  0  0  0  0  0  0
   -5.1946    2.8398   -3.1831 H   0  0  0  0  0  0  0  0  0  0  0  0
   -3.8506    1.0539   -2.2091 H   0  0  0  0  0  0  0  0  0  0  0  0
   -2.6302    0.3164   -0.3276 H   0  0  0  0  0  0  0  0  0  0  0  0
   -0.9332   -1.3611   -1.2822 H   0  0  0  0  0  0  0  0  0  0  0  0
    1.6823   -1.2443    1.4172 H   0  0  0  0  0  0  0  0  0  0  0  0
    4.0334   -0.8714    0.9136 H   0  0  0  0  0  0  0  0  0  0  0  0
    5.9823    1.8254   -1.5468 H   0  0  0  0  0  0  0  0  0  0  0  0
    9.1252    1.6165    3.7264 H   0  0  0  0  0  0  0  0  0  0  0  0
    8.0873    3.0555    3.7008 H   0  0  0  0  0  0  0  0  0  0  0  0
    9.4227    2.8964    2.5431 H   0  0  0  0  0  0  0  0  0  0  0  0
    8.4722    3.2788   -0.4997 H   0  0  0  0  0  0  0  0  0  0  0  0
    7.8838    4.1984    0.9048 H   0  0  0  0  0  0  0  0  0  0  0  0
    6.7722    3.8105   -0.4103 H   0  0  0  0  0  0  0  0  0  0  0  0
    3.1009   -0.5458   -3.2931 H   0  0  0  0  0  0  0  0  0  0  0  0
    0.7370   -0.9617   -2.7970 H   0  0  0  0  0  0  0  0  0  0  0  0
   -1.5038   -3.8656    1.9564 H   0  0  0  0  0  0  0  0  0  0  0  0
   -2.8680   -5.7495    2.7437 H   0  0  0  0  0  0  0  0  0  0  0  0
   -5.3309   -5.7291    2.4000 H   0  0  0  0  0  0  0  0  0  0  0  0
   -6.3973   -3.8109    1.2632 H   0  0  0  0  0  0  0  0  0  0  0  0
   -7.1000    0.0655    0.4593 H   0  0  0  0  0  0  0  0  0  0  0  0
   -8.4508    1.8542   -0.5382 H   0  0  0  0  0  0  0  0  0  0  0  0
  1  2  1  0
  2  3  2  0
  3  4  1  0
  4  5  2  0
  5  6  1  0
  6  7  2  0
  7  8  1  0
  8  9  1  0
  9 10  2  0
  9 11  1  0
 11 12  1  0
 12 13  2  0
 13 14  1  0
 14 15  2  0
 15 16  1  0
 16 17  2  0
 16 18  2  0
 16 19  1  0
 19 20  1  0
 20 21  1  0
 21 22  1  0
 22 23  2  0
 23 24  1  0
 23 25  1  0
 25 26  1  0
 15 27  1  0
 27 28  2  0
  8 29  2  0
 29 30  1  0
 30 31  2  0
 31 32  1  0
 32 33  2  0
 33 34  1  0
 34 35  2  0
  5 36  1  0
 36 37  2  0
 37  2  1  0
 35  6  1  0
 28 12  1  0
 34 29  1  0
 25 20  2  0
  1 38  1  0
  1 39  1  0
  1 40  1  0
  3 41  1  0
  4 42  1  0
  7 43  1  0
 11 44  1  0
 13 45  1  0
 14 46  1  0
 19 47  1  0
 24 48  1  0
 24 49  1  0
 24 50  1  0
 26 51  1  0
 26 52  1  0
 26 53  1  0
 27 54  1  0
 28 55  1  0
 30 56  1  0
 31 57  1  0
 32 58  1  0
 33 59  1  0
 36 60  1  0
 37 61  1  0
M  END
$$$$
