
     RDKit          3D

 58 61  0  0  0  0  0  0  0  0999 V2000
   -3.7742    6.4618    1.6081 C   0  0  0  0  0  0  0  0  0  0  0  0
   -2.9033    5.4046    1.2270 O   0  0  0  0  0  0  0  0  0  0  0  0
   -3.4546    4.1579    1.1094 C   0  0  0  0  0  0  0  0  0  0  0  0
   -4.7825    3.8271    1.3421 C   0  0  0  0  0  0  0  0  0  0  0  0
   -5.2269    2.5092    1.1859 C   0  0  0  0  0  0  0  0  0  0  0  0
   -4.3121    1.5157    0.7876 C   0  0  0  0  0  0  0  0  0  0  0  0
   -4.6445   -0.1508    0.5392 S   0  0  0  0  0  0  0  0  0  0  0  0
   -3.0257   -0.4995    0.1135 C   0  0  0  0  0  0  0  0  0  0  0  0
   -2.6853   -1.8800   -0.2543 C   0  0  0  0  0  0  0  0  0  0  0  0
   -2.5779   -2.2110   -1.6145 C   0  0  0  0  0  0  0  0  0  0  0  0
   -2.2533   -3.5098   -2.0051 C   0  0  0  0  0  0  0  0  0  0  0  0
   -2.0257   -4.4879   -1.0407 C   0  0  0  0  0  0  0  0  0  0  0  0
   -2.1235   -4.1718    0.3166 C   0  0  0  0  0  0  0  0  0  0  0  0
   -2.4629   -2.8743    0.7176 C   0  0  0  0  0  0  0  0  0  0  0  0
   -2.5322   -2.4945    2.0358 O   0  0  0  0  0  0  0  0  0  0  0  0
   -3.0138   -3.4902    2.9312 C   0  0  0  0  0  0  0  0  0  0  0  0
   -2.2311    0.6349    0.1473 C   0  0  0  0  0  0  0  0  0  0  0  0
   -0.8144    0.5867   -0.1968 C   0  0  0  0  0  0  0  0  0  0  0  0
   -0.3541    1.2132   -1.3581 C   0  0  0  0  0  0  0  0  0  0  0  0
    1.0032    1.1658   -1.6854 C   0  0  0  0  0  0  0  0  0  0  0  0
    1.9124    0.4957   -0.8624 C   0  0  0  0  0  0  0  0  0  0  0  0
    3.2080    0.5231   -1.3010 O   0  0  0  0  0  0  0  0  0  0  0  0
    4.1607   -0.2416   -0.5546 C   0  0  0  0  0  0  0  0  0  0  0  0
    5.5215   -0.1271   -1.2611 C   0  0  0  0  0  0  0  0  0  0  0  0
    6.6318   -0.7917   -0.5508 N   0  0  0  0  0  0  0  0  0  0  0  0
    6.4907   -2.2487   -0.5602 C   0  0  0  0  0  0  0  0  0  0  0  0
    7.9093   -0.4165   -1.1631 C   0  0  0  0  0  0  0  0  0  0  0  0
    1.4542   -0.1213    0.3023 C   0  0  0  0  0  0  0  0  0  0  0  0
    0.0956   -0.0748    0.6345 C   0  0  0  0  0  0  0  0  0  0  0  0
   -2.9709    1.8135    0.5428 C   0  0  0  0  0  0  0  0  0  0  0  0
   -2.5549    3.1600    0.7158 C   0  0  0  0  0  0  0  0  0  0  0  0
   -4.1832    6.2934    2.6095 H   0  0  0  0  0  0  0  0  0  0  0  0
   -3.1869    7.3841    1.6383 H   0  0  0  0  0  0  0  0  0  0  0  0
   -4.5733    6.6006    0.8727 H   0  0  0  0  0  0  0  0  0  0  0  0
   -5.5108    4.5698    1.6507 H   0  0  0  0  0  0  0  0  0  0  0  0
   -6.2674    2.2568    1.3714 H   0  0  0  0  0  0  0  0  0  0  0  0
   -2.7481   -1.4523   -2.3746 H   0  0  0  0  0  0  0  0  0  0  0  0
   -2.1720   -3.7543   -3.0608 H   0  0  0  0  0  0  0  0  0  0  0  0
   -1.7604   -5.4974   -1.3445 H   0  0  0  0  0  0  0  0  0  0  0  0
   -1.9104   -4.9492    1.0434 H   0  0  0  0  0  0  0  0  0  0  0  0
   -2.2178   -4.1971    3.1882 H   0  0  0  0  0  0  0  0  0  0  0  0
   -3.8890   -4.0144    2.5278 H   0  0  0  0  0  0  0  0  0  0  0  0
   -3.3223   -2.9865    3.8526 H   0  0  0  0  0  0  0  0  0  0  0  0
   -1.0446    1.7366   -2.0150 H   0  0  0  0  0  0  0  0  0  0  0  0
    1.3544    1.6537   -2.5911 H   0  0  0  0  0  0  0  0  0  0  0  0
    4.2456    0.1609    0.4621 H   0  0  0  0  0  0  0  0  0  0  0  0
    3.8409   -1.2887   -0.5221 H   0  0  0  0  0  0  0  0  0  0  0  0
    5.4316   -0.4978   -2.2914 H   0  0  0  0  0  0  0  0  0  0  0  0
    5.7419    0.9452   -1.3537 H   0  0  0  0  0  0  0  0  0  0  0  0
    6.4374   -2.6534   -1.5767 H   0  0  0  0  0  0  0  0  0  0  0  0
    5.5972   -2.5635   -0.0131 H   0  0  0  0  0  0  0  0  0  0  0  0
    7.3377   -2.7187   -0.0483 H   0  0  0  0  0  0  0  0  0  0  0  0
    7.9713   -0.7244   -2.2135 H   0  0  0  0  0  0  0  0  0  0  0  0
    8.7453   -0.8710   -0.6194 H   0  0  0  0  0  0  0  0  0  0  0  0
    8.0582    0.6680   -1.1110 H   0  0  0  0  0  0  0  0  0  0  0  0
    2.1232   -0.6436    0.9777 H   0  0  0  0  0  0  0  0  0  0  0  0
   -0.2481   -0.5598    1.5462 H   0  0  0  0  0  0  0  0  0  0  0  0
   -1.5139    3.4251    0.5429 H   0  0  0  0  0  0  0  0  0  0  0  0
  1  2  1  0
  2  3  1  0
  3  4  2  0
  4  5  1  0
  5  6  2  0
  6  7  1  0
  7  8  1  0
  8  9  1  0
  9 10  2  0
 10 11  1  0
 11 12  2  0
 12 13  1  0
 13 14  2  0
 14 15  1  0
 15 16  1  0
  8 17  2  0
 17 18  1  0
 18 19  2  0
 19 20  1  0
 20 21  2  0
 21 22  1  0
 22 23  1  0
 23 24  1  0
 24 25  1  0
 25 26  1  0
 25 27  1  0
 21 28  1  0
 28 29  2  0
 17 30  1  0
 30 31  2  0
 31  3  1  0
 30  6  1  0
 14  9  1  0
 29 18  1  0
  1 32  1  0
  1 33  1  0
  1 34  1  0
  4 35  1  0
  5 36  1  0
 10 37  1  0
 11 38  1  0
 12 39  1  0
 13 40  1  0
 16 41  1  0
 16 42  1  0
 16 43  1  0
 19 44  1  0
 20 45  1  0
 23 46  1  0
 23 47  1  0
 24 48  1  0
 24 49  1  0
 26 50  1  0
 26 51  1  0
 26 52  1  0
 27 53  1  0
 27 54  1  0
 27 55  1  0
 28 56  1  0
 29 57  1  0
 31 58  1  0
M  END
$$$$
