
     RDKit          3D

 58 61  0  0  0  0  0  0  0  0999 V2000
   -3.5355    6.5203    1.2506 C   0  0  0  0  0  0  0  0  0  0  0  0
   -2.6876    5.3858    1.1260 O   0  0  0  0  0  0  0  0  0  0  0  0
   -3.2872    4.1563    1.1594 C   0  0  0  0  0  0  0  0  0  0  0  0
   -4.6457    3.9141    1.3106 C   0  0  0  0  0  0  0  0  0  0  0  0
   -5.1391    2.6045    1.3280 C   0  0  0  0  0  0  0  0  0  0  0  0
   -4.2416    1.5279    1.1922 C   0  0  0  0  0  0  0  0  0  0  0  0
   -4.6323   -0.1449    1.1874 S   0  0  0  0  0  0  0  0  0  0  0  0
   -3.0012   -0.6134    0.9816 C   0  0  0  0  0  0  0  0  0  0  0  0
   -2.6904   -2.0484    0.9274 C   0  0  0  0  0  0  0  0  0  0  0  0
   -2.2435   -2.6829    2.0981 C   0  0  0  0  0  0  0  0  0  0  0  0
   -1.9283   -4.0403    2.0927 C   0  0  0  0  0  0  0  0  0  0  0  0
   -2.0543   -4.7739    0.9169 C   0  0  0  0  0  0  0  0  0  0  0  0
   -2.4926   -4.1541   -0.2571 C   0  0  0  0  0  0  0  0  0  0  0  0
   -2.8132   -2.7912   -0.2653 C   0  0  0  0  0  0  0  0  0  0  0  0
   -3.2297   -2.1005   -1.3761 O   0  0  0  0  0  0  0  0  0  0  0  0
   -3.4643   -2.8448   -2.5629 C   0  0  0  0  0  0  0  0  0  0  0  0
   -2.1561    0.4827    0.9223 C   0  0  0  0  0  0  0  0  0  0  0  0
   -0.7137    0.3296    0.7684 C   0  0  0  0  0  0  0  0  0  0  0  0
   -0.1731   -0.1246   -0.4390 C   0  0  0  0  0  0  0  0  0  0  0  0
    1.2111   -0.2690   -0.5858 C   0  0  0  0  0  0  0  0  0  0  0  0
    2.0646    0.0452    0.4724 C   0  0  0  0  0  0  0  0  0  0  0  0
    3.4290   -0.0499    0.4617 O   0  0  0  0  0  0  0  0  0  0  0  0
    4.0394   -0.5019   -0.7520 C   0  0  0  0  0  0  0  0  0  0  0  0
    5.5606   -0.5424   -0.5316 C   0  0  0  0  0  0  0  0  0  0  0  0
    6.3246   -1.0836   -1.6728 N   0  0  0  0  0  0  0  0  0  0  0  0
    7.7149   -1.3191   -1.2719 C   0  0  0  0  0  0  0  0  0  0  0  0
    6.2917   -0.1814   -2.8260 C   0  0  0  0  0  0  0  0  0  0  0  0
    1.5223    0.5043    1.6759 C   0  0  0  0  0  0  0  0  0  0  0  0
    0.1410    0.6484    1.8268 C   0  0  0  0  0  0  0  0  0  0  0  0
   -2.8699    1.7350    1.0419 C   0  0  0  0  0  0  0  0  0  0  0  0
   -2.4058    3.0769    1.0246 C   0  0  0  0  0  0  0  0  0  0  0  0
   -4.0468    6.5263    2.2189 H   0  0  0  0  0  0  0  0  0  0  0  0
   -2.9067    7.4145    1.2010 H   0  0  0  0  0  0  0  0  0  0  0  0
   -4.2518    6.5708    0.4240 H   0  0  0  0  0  0  0  0  0  0  0  0
   -5.3619    4.7223    1.4175 H   0  0  0  0  0  0  0  0  0  0  0  0
   -6.2038    2.4219    1.4444 H   0  0  0  0  0  0  0  0  0  0  0  0
   -2.1385   -2.1147    3.0198 H   0  0  0  0  0  0  0  0  0  0  0  0
   -1.5825   -4.5218    3.0035 H   0  0  0  0  0  0  0  0  0  0  0  0
   -1.8058   -5.8324    0.9102 H   0  0  0  0  0  0  0  0  0  0  0  0
   -2.5658   -4.7642   -1.1510 H   0  0  0  0  0  0  0  0  0  0  0  0
   -3.8426   -2.1528   -3.3216 H   0  0  0  0  0  0  0  0  0  0  0  0
   -4.2273   -3.6142   -2.4053 H   0  0  0  0  0  0  0  0  0  0  0  0
   -2.5347   -3.2792   -2.9444 H   0  0  0  0  0  0  0  0  0  0  0  0
   -0.8273   -0.3717   -1.2727 H   0  0  0  0  0  0  0  0  0  0  0  0
    1.5848   -0.6303   -1.5377 H   0  0  0  0  0  0  0  0  0  0  0  0
    3.6830   -1.5098   -0.9975 H   0  0  0  0  0  0  0  0  0  0  0  0
    3.7939    0.1944   -1.5614 H   0  0  0  0  0  0  0  0  0  0  0  0
    5.7363   -1.1713    0.3521 H   0  0  0  0  0  0  0  0  0  0  0  0
    5.9181    0.4586   -0.2540 H   0  0  0  0  0  0  0  0  0  0  0  0
    7.7617   -2.0360   -0.4445 H   0  0  0  0  0  0  0  0  0  0  0  0
    8.2845   -1.7607   -2.0975 H   0  0  0  0  0  0  0  0  0  0  0  0
    8.2173   -0.3963   -0.9595 H   0  0  0  0  0  0  0  0  0  0  0  0
    5.2750   -0.0766   -3.2174 H   0  0  0  0  0  0  0  0  0  0  0  0
    6.8910   -0.5880   -3.6488 H   0  0  0  0  0  0  0  0  0  0  0  0
    6.6766    0.8155   -2.5827 H   0  0  0  0  0  0  0  0  0  0  0  0
    2.1816    0.7513    2.5042 H   0  0  0  0  0  0  0  0  0  0  0  0
   -0.2595    1.0055    2.7724 H   0  0  0  0  0  0  0  0  0  0  0  0
   -1.3432    3.2742    0.9005 H   0  0  0  0  0  0  0  0  0  0  0  0
  1  2  1  0
  2  3  1  0
  3  4  2  0
  4  5  1  0
  5  6  2  0
  6  7  1  0
  7  8  1  0
  8  9  1  0
  9 10  2  0
 10 11  1  0
 11 12  2  0
 12 13  1  0
 13 14  2  0
 14 15  1  0
 15 16  1  0
  8 17  2  0
 17 18  1  0
 18 19  2  0
 19 20  1  0
 20 21  2  0
 21 22  1  0
 22 23  1  0
 23 24  1  0
 24 25  1  0
 25 26  1  0
 25 27  1  0
 21 28  1  0
 28 29  2  0
 17 30  1  0
 30 31  2  0
 31  3  1  0
 30  6  1  0
 14  9  1  0
 29 18  1  0
  1 32  1  0
  1 33  1  0
  1 34  1  0
  4 35  1  0
  5 36  1  0
 10 37  1  0
 11 38  1  0
 12 39  1  0
 13 40  1  0
 16 41  1  0
 16 42  1  0
 16 43  1  0
 19 44  1  0
 20 45  1  0
 23 46  1  0
 23 47  1  0
 24 48  1  0
 24 49  1  0
 26 50  1  0
 26 51  1  0
 26 52  1  0
 27 53  1  0
 27 54  1  0
 27 55  1  0
 28 56  1  0
 29 57  1  0
 31 58  1  0
M  END
$$$$
