
     RDKit          3D

 45 48  0  0  0  0  0  0  0  0999 V2000
    0.4351   -3.7997   -0.2007 C   0  0  0  0  0  0  0  0  0  0  0  0
    1.6076   -3.0617   -0.8217 C   0  0  0  0  0  0  0  0  0  0  0  0
    1.5811   -1.7181   -0.3462 O   0  0  0  0  0  0  0  0  0  0  0  0
    2.5044   -0.8350   -0.8492 C   0  0  0  0  0  0  0  0  0  0  0  0
    3.5793   -1.2154   -1.6656 C   0  0  0  0  0  0  0  0  0  0  0  0
    4.5103   -0.2714   -2.1037 C   0  0  0  0  0  0  0  0  0  0  0  0
    4.3833    1.0594   -1.7264 C   0  0  0  0  0  0  0  0  0  0  0  0
    3.3183    1.4482   -0.9143 C   0  0  0  0  0  0  0  0  0  0  0  0
    2.3559    0.5179   -0.4669 C   0  0  0  0  0  0  0  0  0  0  0  0
    1.2420    0.9839    0.3720 C   0  0  0  0  0  0  0  0  0  0  0  0
    1.5538    1.7980    1.4082 N   0  0  0  0  0  0  0  0  0  0  0  0
    0.5115    2.2357    2.1576 C   0  0  0  0  0  0  0  0  0  0  0  0
    0.8357    3.1201    3.3111 C   0  0  0  0  0  0  0  0  0  0  0  0
    2.1661    3.3793    3.5018 N   0  0  0  0  0  0  0  0  0  0  0  0
   -0.0264    3.5844    4.0466 O   0  0  0  0  0  0  0  0  0  0  0  0
   -0.7772    1.8901    1.8773 C   0  0  0  0  0  0  0  0  0  0  0  0
   -1.9858    2.2085    2.4744 N   0  0  0  0  0  0  0  0  0  0  0  0
   -3.0162    1.5810    1.7619 C   0  0  0  0  0  0  0  0  0  0  0  0
   -4.1930    1.6834    2.0673 O   0  0  0  0  0  0  0  0  0  0  0  0
   -2.3943    0.8566    0.6979 N   0  0  0  0  0  0  0  0  0  0  0  0
   -3.0383    0.0601   -0.2898 C   0  0  0  0  0  0  0  0  0  0  0  0
   -4.4438    0.0109   -0.3601 C   0  0  0  0  0  0  0  0  0  0  0  0
   -5.1099   -0.7649   -1.3182 C   0  0  0  0  0  0  0  0  0  0  0  0
   -4.3775   -1.5093   -2.2260 C   0  0  0  0  0  0  0  0  0  0  0  0
   -5.0097   -2.2530   -3.1425 F   0  0  0  0  0  0  0  0  0  0  0  0
   -2.9941   -1.4908   -2.1904 C   0  0  0  0  0  0  0  0  0  0  0  0
   -2.3328   -0.7131   -1.2297 C   0  0  0  0  0  0  0  0  0  0  0  0
   -0.9947    1.0716    0.7959 C   0  0  0  0  0  0  0  0  0  0  0  0
   -0.0092    0.6199    0.0174 N   0  0  0  0  0  0  0  0  0  0  0  0
   -0.5108   -3.3210   -0.4732 H   0  0  0  0  0  0  0  0  0  0  0  0
    0.4109   -4.8418   -0.5314 H   0  0  0  0  0  0  0  0  0  0  0  0
    0.5002   -3.7765    0.8921 H   0  0  0  0  0  0  0  0  0  0  0  0
    1.5072   -3.0839   -1.9130 H   0  0  0  0  0  0  0  0  0  0  0  0
    2.5386   -3.5526   -0.5167 H   0  0  0  0  0  0  0  0  0  0  0  0
    3.7280   -2.2456   -1.9721 H   0  0  0  0  0  0  0  0  0  0  0  0
    5.3394   -0.5802   -2.7358 H   0  0  0  0  0  0  0  0  0  0  0  0
    5.1095    1.7951   -2.0633 H   0  0  0  0  0  0  0  0  0  0  0  0
    3.2298    2.4967   -0.6329 H   0  0  0  0  0  0  0  0  0  0  0  0
    2.8627    2.9413    2.9091 H   0  0  0  0  0  0  0  0  0  0  0  0
    2.4552    3.9371    4.2930 H   0  0  0  0  0  0  0  0  0  0  0  0
   -2.1094    2.7986    3.2890 H   0  0  0  0  0  0  0  0  0  0  0  0
   -5.0701    0.5791    0.3216 H   0  0  0  0  0  0  0  0  0  0  0  0
   -6.1946   -0.7853   -1.3528 H   0  0  0  0  0  0  0  0  0  0  0  0
   -2.4286   -2.0808   -2.9045 H   0  0  0  0  0  0  0  0  0  0  0  0
   -1.2497   -0.7566   -1.2471 H   0  0  0  0  0  0  0  0  0  0  0  0
  1  2  1  0
  2  3  1  0
  3  4  1  0
  4  5  2  0
  5  6  1  0
  6  7  2  0
  7  8  1  0
  8  9  2  0
  9 10  1  0
 10 11  2  0
 11 12  1  0
 12 13  1  0
 13 14  1  0
 13 15  2  0
 12 16  2  0
 16 17  1  0
 17 18  1  0
 18 19  2  0
 18 20  1  0
 20 21  1  0
 21 22  2  0
 22 23  1  0
 23 24  2  0
 24 25  1  0
 24 26  1  0
 26 27  2  0
 20 28  1  0
 28 29  2  0
  9  4  1  0
 29 10  1  0
 28 16  1  0
 27 21  1  0
  1 30  1  0
  1 31  1  0
  1 32  1  0
  2 33  1  0
  2 34  1  0
  5 35  1  0
  6 36  1  0
  7 37  1  0
  8 38  1  0
 14 39  1  0
 14 40  1  0
 17 41  1  0
 22 42  1  0
 23 43  1  0
 26 44  1  0
 27 45  1  0
M  END
$$$$
