
     RDKit          3D

 68 74  0  0  0  0  0  0  0  0999 V2000
   -4.3581   -4.0921   -3.1816 C   0  0  0  0  0  0  0  0  0  0  0  0
   -3.3909   -3.4930   -2.2055 C   0  0  0  0  0  0  0  0  0  0  0  0
   -3.0130   -4.1683   -1.0298 C   0  0  0  0  0  0  0  0  0  0  0  0
   -3.6396   -5.7382   -0.6540 Cl  0  0  0  0  0  0  0  0  0  0  0  0
   -2.1179   -3.5960   -0.1045 C   0  0  0  0  0  0  0  0  0  0  0  0
   -1.5744   -2.3294   -0.3241 C   0  0  0  0  0  0  0  0  0  0  0  0
   -1.9371   -1.6505   -1.4792 C   0  0  0  0  0  0  0  0  0  0  0  0
   -2.8408   -2.2281   -2.3865 C   0  0  0  0  0  0  0  0  0  0  0  0
   -3.0890   -1.3404   -3.4313 N   0  0  0  0  0  0  0  0  0  0  0  0
   -2.3998   -0.1366   -3.2694 C   0  0  0  0  0  0  0  0  0  0  0  0
   -2.4840    0.8117   -4.0366 O   0  0  0  0  0  0  0  0  0  0  0  0
   -1.5400   -0.2827   -1.9831 C   0  0  1  0  0  0  0  0  0  0  0  0
   -1.8652    0.7048   -0.9334 C   0  0  0  0  0  0  0  0  0  0  0  0
   -0.7468    1.4671   -0.6032 C   0  0  0  0  0  0  0  0  0  0  0  0
   -1.0872    2.3670    0.3675 C   0  0  0  0  0  0  0  0  0  0  0  0
   -0.3322    3.3310    0.8900 O   0  0  0  0  0  0  0  0  0  0  0  0
   -2.4433    2.1477    0.6708 N   0  0  0  0  0  0  0  0  0  0  0  0
   -3.2069    2.8634    1.6375 C   0  0  0  0  0  0  0  0  0  0  0  0
   -2.6329    3.2096    2.8682 C   0  0  0  0  0  0  0  0  0  0  0  0
   -3.3811    3.9190    3.8091 C   0  0  0  0  0  0  0  0  0  0  0  0
   -4.6957    4.2866    3.5250 C   0  0  0  0  0  0  0  0  0  0  0  0
   -5.2697    3.9418    2.3017 C   0  0  0  0  0  0  0  0  0  0  0  0
   -4.5302    3.2295    1.3554 C   0  0  0  0  0  0  0  0  0  0  0  0
   -2.9149    1.1011   -0.1451 C   0  0  0  0  0  0  0  0  0  0  0  0
   -4.1376    0.5747   -0.0775 O   0  0  0  0  0  0  0  0  0  0  0  0
    0.4254    1.1191   -1.4295 C   0  0  1  0  0  0  0  0  0  0  0  0
    1.6835    0.7689   -0.6124 C   0  0  0  0  0  0  0  0  0  0  0  0
    2.7206    0.1238   -1.4270 N   0  0  0  0  0  0  0  0  0  0  0  0
    4.0633    0.1698   -1.1162 C   0  0  0  0  0  0  0  0  0  0  0  0
    4.9317   -0.3844   -1.7802 O   0  0  0  0  0  0  0  0  0  0  0  0
    4.3036    0.8897    0.0100 O   0  0  0  0  0  0  0  0  0  0  0  0
    5.6663    0.9550    0.4421 C   0  0  0  0  0  0  0  0  0  0  0  0
    5.8716   -0.0123    1.5795 C   0  0  0  0  0  0  0  0  0  0  0  0
    5.7192    0.4019    2.9097 C   0  0  0  0  0  0  0  0  0  0  0  0
    5.8921   -0.5049    3.9568 C   0  0  0  0  0  0  0  0  0  0  0  0
    6.2067   -1.8345    3.6843 C   0  0  0  0  0  0  0  0  0  0  0  0
    6.3484   -2.2603    2.3656 C   0  0  0  0  0  0  0  0  0  0  0  0
    6.1796   -1.3547    1.3179 C   0  0  0  0  0  0  0  0  0  0  0  0
    2.2718   -0.6676   -2.5734 C   0  0  0  0  0  0  0  0  0  0  0  0
    0.8122   -1.1329   -2.4180 C   0  0  0  0  0  0  0  0  0  0  0  0
   -0.1004   -0.0001   -2.2864 N   0  0  0  0  0  0  0  0  0  0  0  0
   -4.0500   -5.1052   -3.4612 H   0  0  0  0  0  0  0  0  0  0  0  0
   -4.4171   -3.5210   -4.1128 H   0  0  0  0  0  0  0  0  0  0  0  0
   -5.3614   -4.1237   -2.7444 H   0  0  0  0  0  0  0  0  0  0  0  0
   -1.8479   -4.1416    0.7986 H   0  0  0  0  0  0  0  0  0  0  0  0
   -0.8947   -1.8875    0.3985 H   0  0  0  0  0  0  0  0  0  0  0  0
   -3.7290   -1.4799   -4.1975 H   0  0  0  0  0  0  0  0  0  0  0  0
   -0.9109    4.0283    1.2489 H   0  0  0  0  0  0  0  0  0  0  0  0
   -1.6228    2.8991    3.1343 H   0  0  0  0  0  0  0  0  0  0  0  0
   -2.9408    4.1808    4.7681 H   0  0  0  0  0  0  0  0  0  0  0  0
   -5.2738    4.8447    4.2581 H   0  0  0  0  0  0  0  0  0  0  0  0
   -6.2915    4.2433    2.0783 H   0  0  0  0  0  0  0  0  0  0  0  0
   -4.9869    3.0160    0.3900 H   0  0  0  0  0  0  0  0  0  0  0  0
   -4.5299    0.7898    0.7865 H   0  0  0  0  0  0  0  0  0  0  0  0
    0.6616    1.9501   -2.1061 H   0  0  0  0  0  0  0  0  0  0  0  0
    1.4413    0.0654    0.1954 H   0  0  0  0  0  0  0  0  0  0  0  0
    2.0834    1.6727   -0.1378 H   0  0  0  0  0  0  0  0  0  0  0  0
    6.3868    0.7771   -0.3649 H   0  0  0  0  0  0  0  0  0  0  0  0
    5.8485    1.9797    0.7864 H   0  0  0  0  0  0  0  0  0  0  0  0
    5.4653    1.4340    3.1394 H   0  0  0  0  0  0  0  0  0  0  0  0
    5.7768   -0.1743    4.9857 H   0  0  0  0  0  0  0  0  0  0  0  0
    6.3385   -2.5390    4.5005 H   0  0  0  0  0  0  0  0  0  0  0  0
    6.5879   -3.2974    2.1508 H   0  0  0  0  0  0  0  0  0  0  0  0
    6.2856   -1.7010    0.2914 H   0  0  0  0  0  0  0  0  0  0  0  0
    2.3789   -0.0368   -3.4637 H   0  0  0  0  0  0  0  0  0  0  0  0
    2.9288   -1.5338   -2.7039 H   0  0  0  0  0  0  0  0  0  0  0  0
    0.7739   -1.7786   -1.5324 H   0  0  0  0  0  0  0  0  0  0  0  0
    0.5320   -1.7376   -3.2890 H   0  0  0  0  0  0  0  0  0  0  0  0
  1  2  1  0
  2  3  2  0
  3  4  1  0
  3  5  1  0
  5  6  2  0
  6  7  1  0
  7  8  2  0
  8  9  1  0
  9 10  1  0
 10 11  2  0
 10 12  1  0
 12 13  1  0
 13 14  1  0
 14 15  2  0
 15 16  1  0
 15 17  1  0
 17 18  1  0
 18 19  2  0
 19 20  1  0
 20 21  2  0
 21 22  1  0
 22 23  2  0
 17 24  1  0
 24 25  1  0
 14 26  1  0
 26 27  1  0
 27 28  1  0
 28 29  1  0
 29 30  2  0
 29 31  1  0
 31 32  1  0
 32 33  1  0
 33 34  2  0
 34 35  1  0
 35 36  2  0
 36 37  1  0
 37 38  2  0
 28 39  1  0
 39 40  1  0
 40 41  1  0
  8  2  1  0
 12 41  1  6
 12  7  1  0
 24 13  2  0
 41 26  1  0
 23 18  1  0
 38 33  1  0
  1 42  1  0
  1 43  1  0
  1 44  1  0
  5 45  1  0
  6 46  1  0
  9 47  1  0
 16 48  1  0
 19 49  1  0
 20 50  1  0
 21 51  1  0
 22 52  1  0
 23 53  1  0
 25 54  1  0
 26 55  1  6
 27 56  1  0
 27 57  1  0
 32 58  1  0
 32 59  1  0
 34 60  1  0
 35 61  1  0
 36 62  1  0
 37 63  1  0
 38 64  1  0
 39 65  1  0
 39 66  1  0
 40 67  1  0
 40 68  1  0
M  END
$$$$
