
     RDKit          3D

 31 31  0  0  0  0  0  0  0  0999 V2000
    4.9166    1.1078    1.5039 C   0  0  0  0  0  0  0  0  0  0  0  0
    3.6020    1.6349    1.4225 O   0  0  0  0  0  0  0  0  0  0  0  0
    2.6440    0.6057    1.1702 C   0  0  0  0  0  0  0  0  0  0  0  0
    1.3727    1.1925    0.8885 O   0  0  0  0  0  0  0  0  0  0  0  0
    0.3560    0.2787    0.9796 C   0  0  0  0  0  0  0  0  0  0  0  0
   -0.6013    0.0951    0.0559 C   0  0  0  0  0  0  0  0  0  0  0  0
   -0.6424    0.6632   -1.1999 N   0  0  0  0  0  0  0  0  0  0  0  0
    0.4335    1.0192   -1.9938 C   0  0  0  0  0  0  0  0  0  0  0  0
    0.0128    1.7811   -3.2248 C   0  0  0  0  0  0  0  0  0  0  0  0
    1.6063    0.7049   -1.8185 O   0  0  0  0  0  0  0  0  0  0  0  0
   -1.7623   -0.7407    0.4173 C   0  0  0  0  0  0  0  0  0  0  0  0
   -1.9591   -1.9750   -0.2171 C   0  0  0  0  0  0  0  0  0  0  0  0
   -3.0615   -2.7674    0.1084 C   0  0  0  0  0  0  0  0  0  0  0  0
   -3.9756   -2.3310    1.0665 C   0  0  0  0  0  0  0  0  0  0  0  0
   -3.7898   -1.1031    1.7006 C   0  0  0  0  0  0  0  0  0  0  0  0
   -2.6877   -0.3092    1.3773 C   0  0  0  0  0  0  0  0  0  0  0  0
    4.9865    0.3702    2.3093 H   0  0  0  0  0  0  0  0  0  0  0  0
    5.2088    0.6547    0.5516 H   0  0  0  0  0  0  0  0  0  0  0  0
    5.6045    1.9290    1.7228 H   0  0  0  0  0  0  0  0  0  0  0  0
    2.9588    0.0030    0.3102 H   0  0  0  0  0  0  0  0  0  0  0  0
    2.5899   -0.0295    2.0638 H   0  0  0  0  0  0  0  0  0  0  0  0
    0.3291   -0.1986    1.9530 H   0  0  0  0  0  0  0  0  0  0  0  0
   -1.5391    0.6147   -1.6695 H   0  0  0  0  0  0  0  0  0  0  0  0
   -0.9233    2.3212   -3.0558 H   0  0  0  0  0  0  0  0  0  0  0  0
    0.7855    2.5129   -3.4768 H   0  0  0  0  0  0  0  0  0  0  0  0
   -0.1174    1.0815   -4.0545 H   0  0  0  0  0  0  0  0  0  0  0  0
   -1.2483   -2.3279   -0.9616 H   0  0  0  0  0  0  0  0  0  0  0  0
   -3.2055   -3.7261   -0.3835 H   0  0  0  0  0  0  0  0  0  0  0  0
   -4.8334   -2.9490    1.3204 H   0  0  0  0  0  0  0  0  0  0  0  0
   -4.5035   -0.7629    2.4469 H   0  0  0  0  0  0  0  0  0  0  0  0
   -2.5568    0.6499    1.8744 H   0  0  0  0  0  0  0  0  0  0  0  0
  1  2  1  0
  2  3  1  0
  3  4  1  0
  4  5  1  0
  5  6  2  3
  6  7  1  0
  7  8  1  0
  8  9  1  0
  8 10  2  0
  6 11  1  0
 11 12  2  0
 12 13  1  0
 13 14  2  0
 14 15  1  0
 15 16  2  0
 16 11  1  0
  1 17  1  0
  1 18  1  0
  1 19  1  0
  3 20  1  0
  3 21  1  0
  5 22  1  0
  7 23  1  0
  9 24  1  0
  9 25  1  0
  9 26  1  0
 12 27  1  0
 13 28  1  0
 14 29  1  0
 15 30  1  0
 16 31  1  0
M  END
$$$$
