
     RDKit          3D

 59 62  0  0  0  0  0  0  0  0999 V2000
    8.7847    2.1324    0.9018 C   0  0  0  0  0  0  0  0  0  0  0  0
    8.6368    1.6003   -0.4079 O   0  0  0  0  0  0  0  0  0  0  0  0
    7.3782    1.2218   -0.7845 C   0  0  0  0  0  0  0  0  0  0  0  0
    7.2914    0.6575   -2.0592 C   0  0  0  0  0  0  0  0  0  0  0  0
    6.0616    0.2327   -2.5688 C   0  0  0  0  0  0  0  0  0  0  0  0
    4.8952    0.3734   -1.8080 C   0  0  0  0  0  0  0  0  0  0  0  0
    3.6041   -0.0897   -2.4021 C   0  0  0  0  0  0  0  0  0  0  0  0
    3.6281   -0.8313   -3.3857 O   0  0  0  0  0  0  0  0  0  0  0  0
    2.2974    0.3649   -1.7900 C   0  0  0  0  0  0  0  0  0  0  0  0
    1.6970   -0.9079   -0.6405 S   0  0  0  0  0  0  0  0  0  0  0  0
    0.4850   -0.0078    0.1978 C   0  0  0  0  0  0  0  0  0  0  0  0
    0.5200    1.2849    0.4221 N   0  0  0  0  0  0  0  0  0  0  0  0
   -0.5972    1.6118    1.1428 N   0  0  0  0  0  0  0  0  0  0  0  0
   -1.2979    0.5083    1.3448 C   0  0  0  0  0  0  0  0  0  0  0  0
   -2.5901    0.4228    2.0911 C   0  0  0  0  0  0  0  0  0  0  0  0
   -3.6911   -0.2702    1.4215 N   0  0  0  0  0  0  0  0  0  0  0  0
   -4.4260    0.3282    0.3893 C   0  0  0  0  0  0  0  0  0  0  0  0
   -4.0021    1.4882   -0.2763 C   0  0  0  0  0  0  0  0  0  0  0  0
   -4.7217    2.0267   -1.3475 C   0  0  0  0  0  0  0  0  0  0  0  0
   -5.8856    1.4091   -1.8002 C   0  0  0  0  0  0  0  0  0  0  0  0
   -6.6365    1.9608   -2.9745 C   0  0  0  0  0  0  0  0  0  0  0  0
   -6.2973    0.2258   -1.1831 C   0  0  0  0  0  0  0  0  0  0  0  0
   -5.5786   -0.3240   -0.1046 C   0  0  0  0  0  0  0  0  0  0  0  0
   -6.0711   -1.6139    0.4980 C   0  0  0  0  0  0  0  0  0  0  0  0
   -0.6370   -0.5524    0.7620 N   0  0  0  0  0  0  0  0  0  0  0  0
   -1.0596   -1.9383    0.7332 C   0  0  0  0  0  0  0  0  0  0  0  0
   -0.6699   -2.6299    1.9874 C   0  0  0  0  0  0  0  0  0  0  0  0
    0.4938   -3.2351    2.4168 C   0  0  0  0  0  0  0  0  0  0  0  0
    0.2368   -3.7200    3.7206 C   0  0  0  0  0  0  0  0  0  0  0  0
   -1.0652   -3.3858    4.0020 C   0  0  0  0  0  0  0  0  0  0  0  0
   -1.6252   -2.7262    2.9559 O   0  0  0  0  0  0  0  0  0  0  0  0
    4.9822    0.9340   -0.5282 C   0  0  0  0  0  0  0  0  0  0  0  0
    6.2188    1.3572   -0.0212 C   0  0  0  0  0  0  0  0  0  0  0  0
    8.2179    3.0601    1.0166 H   0  0  0  0  0  0  0  0  0  0  0  0
    9.8434    2.3688    1.0438 H   0  0  0  0  0  0  0  0  0  0  0  0
    8.4987    1.3994    1.6636 H   0  0  0  0  0  0  0  0  0  0  0  0
    8.1888    0.5509   -2.6629 H   0  0  0  0  0  0  0  0  0  0  0  0
    6.0218   -0.2005   -3.5657 H   0  0  0  0  0  0  0  0  0  0  0  0
    2.4200    1.3430   -1.3142 H   0  0  0  0  0  0  0  0  0  0  0  0
    1.5695    0.4999   -2.5980 H   0  0  0  0  0  0  0  0  0  0  0  0
   -2.3889   -0.1083    3.0298 H   0  0  0  0  0  0  0  0  0  0  0  0
   -2.9116    1.4278    2.3951 H   0  0  0  0  0  0  0  0  0  0  0  0
   -4.3082   -0.7134    2.0954 H   0  0  0  0  0  0  0  0  0  0  0  0
   -3.1009    2.0149    0.0224 H   0  0  0  0  0  0  0  0  0  0  0  0
   -4.3559    2.9312   -1.8249 H   0  0  0  0  0  0  0  0  0  0  0  0
   -6.2265    1.5540   -3.9030 H   0  0  0  0  0  0  0  0  0  0  0  0
   -6.5679    3.0530   -3.0049 H   0  0  0  0  0  0  0  0  0  0  0  0
   -7.7000    1.7064   -2.9165 H   0  0  0  0  0  0  0  0  0  0  0  0
   -7.1855   -0.2826   -1.5518 H   0  0  0  0  0  0  0  0  0  0  0  0
   -6.3765   -1.4518    1.5376 H   0  0  0  0  0  0  0  0  0  0  0  0
   -5.2846   -2.3755    0.4573 H   0  0  0  0  0  0  0  0  0  0  0  0
   -6.9372   -2.0080   -0.0434 H   0  0  0  0  0  0  0  0  0  0  0  0
   -0.6085   -2.4332   -0.1323 H   0  0  0  0  0  0  0  0  0  0  0  0
   -2.1373   -1.9824    0.5677 H   0  0  0  0  0  0  0  0  0  0  0  0
    1.4164   -3.3155    1.8592 H   0  0  0  0  0  0  0  0  0  0  0  0
    0.9164   -4.2500    4.3741 H   0  0  0  0  0  0  0  0  0  0  0  0
   -1.7079   -3.5397    4.8561 H   0  0  0  0  0  0  0  0  0  0  0  0
    4.1086    1.0497    0.1078 H   0  0  0  0  0  0  0  0  0  0  0  0
    6.2374    1.7938    0.9740 H   0  0  0  0  0  0  0  0  0  0  0  0
  1  2  1  0
  2  3  1  0
  3  4  2  0
  4  5  1  0
  5  6  2  0
  6  7  1  0
  7  8  2  0
  7  9  1  0
  9 10  1  0
 10 11  1  0
 11 12  2  0
 12 13  1  0
 13 14  2  0
 14 15  1  0
 15 16  1  0
 16 17  1  0
 17 18  2  0
 18 19  1  0
 19 20  2  0
 20 21  1  0
 20 22  1  0
 22 23  2  0
 23 24  1  0
 14 25  1  0
 25 26  1  0
 26 27  1  0
 27 28  2  0
 28 29  1  0
 29 30  2  0
 30 31  1  0
  6 32  1  0
 32 33  2  0
 33  3  1  0
 25 11  1  0
 31 27  1  0
 23 17  1  0
  1 34  1  0
  1 35  1  0
  1 36  1  0
  4 37  1  0
  5 38  1  0
  9 39  1  0
  9 40  1  0
 15 41  1  0
 15 42  1  0
 16 43  1  0
 18 44  1  0
 19 45  1  0
 21 46  1  0
 21 47  1  0
 21 48  1  0
 22 49  1  0
 24 50  1  0
 24 51  1  0
 24 52  1  0
 26 53  1  0
 26 54  1  0
 28 55  1  0
 29 56  1  0
 30 57  1  0
 32 58  1  0
 33 59  1  0
M  END
$$$$
