
     RDKit          3D

 56 58  0  0  0  0  0  0  0  0999 V2000
   -6.5570    0.6224   -3.0195 C   0  0  0  0  0  0  0  0  0  0  0  0
   -5.7508   -0.6674   -3.0746 C   0  0  0  0  0  0  0  0  0  0  0  0
   -5.3275   -1.0854   -1.7297 N   0  0  0  0  0  0  0  0  0  0  0  0
   -6.2544   -1.9869   -1.0290 C   0  0  0  0  0  0  0  0  0  0  0  0
   -5.8833   -3.4434   -1.2687 C   0  0  0  0  0  0  0  0  0  0  0  0
   -4.1495   -0.6339   -1.1478 C   0  0  0  0  0  0  0  0  0  0  0  0
   -3.3361    0.3393   -1.7517 C   0  0  0  0  0  0  0  0  0  0  0  0
   -2.1425    0.7979   -1.1704 C   0  0  0  0  0  0  0  0  0  0  0  0
   -1.7012    0.2848    0.0471 C   0  0  0  0  0  0  0  0  0  0  0  0
   -0.4562    0.7983    0.6316 C   0  0  0  0  0  0  0  0  0  0  0  0
    0.4231    0.0219    1.2845 C   0  0  0  0  0  0  0  0  0  0  0  0
    1.6742    0.5559    1.8337 C   0  0  0  0  0  0  0  0  0  0  0  0
    1.5958    1.3604    2.9698 C   0  0  0  0  0  0  0  0  0  0  0  0
    2.7453    1.8812    3.5304 C   0  0  0  0  0  0  0  0  0  0  0  0
    3.9738    1.6041    2.9454 C   0  0  0  0  0  0  0  0  0  0  0  0
    5.1365    2.1407    3.5084 C   0  0  0  0  0  0  0  0  0  0  0  0
    6.3778    1.8884    2.9328 C   0  0  0  0  0  0  0  0  0  0  0  0
    6.4802    1.1040    1.7886 C   0  0  0  0  0  0  0  0  0  0  0  0
    7.7560    0.9483    1.3288 O   0  0  0  0  0  0  0  0  0  0  0  0
    7.9633    0.1607    0.1630 C   0  0  0  0  0  0  0  0  0  0  0  0
    5.3244    0.5611    1.2189 C   0  0  0  0  0  0  0  0  0  0  0  0
    4.0478    0.7873    1.7815 C   0  0  0  0  0  0  0  0  0  0  0  0
    2.8815    0.2677    1.2577 N   0  0  0  0  0  4  0  0  0  0  0  0
    2.9165   -0.6090    0.0461 C   0  0  0  0  0  0  0  0  0  0  0  0
    2.8926    0.2415   -1.2103 C   0  0  0  0  0  0  0  0  0  0  0  0
   -2.4951   -0.6684    0.6812 C   0  0  0  0  0  0  0  0  0  0  0  0
   -3.6876   -1.1160    0.0884 C   0  0  0  0  0  0  0  0  0  0  0  0
   -6.8806    0.9085   -4.0251 H   0  0  0  0  0  0  0  0  0  0  0  0
   -7.4502    0.5018   -2.3977 H   0  0  0  0  0  0  0  0  0  0  0  0
   -5.9733    1.4489   -2.6032 H   0  0  0  0  0  0  0  0  0  0  0  0
   -4.8988   -0.5689   -3.7566 H   0  0  0  0  0  0  0  0  0  0  0  0
   -6.3777   -1.4490   -3.5229 H   0  0  0  0  0  0  0  0  0  0  0  0
   -7.2761   -1.8261   -1.3964 H   0  0  0  0  0  0  0  0  0  0  0  0
   -6.3061   -1.7658    0.0429 H   0  0  0  0  0  0  0  0  0  0  0  0
   -4.8801   -3.6733   -0.8973 H   0  0  0  0  0  0  0  0  0  0  0  0
   -5.9042   -3.6835   -2.3369 H   0  0  0  0  0  0  0  0  0  0  0  0
   -6.5929   -4.1027   -0.7591 H   0  0  0  0  0  0  0  0  0  0  0  0
   -3.6171    0.7892   -2.6994 H   0  0  0  0  0  0  0  0  0  0  0  0
   -1.5733    1.5605   -1.6969 H   0  0  0  0  0  0  0  0  0  0  0  0
   -0.2720    1.8602    0.4729 H   0  0  0  0  0  0  0  0  0  0  0  0
    0.2484   -1.0414    1.4299 H   0  0  0  0  0  0  0  0  0  0  0  0
    0.6321    1.5811    3.4280 H   0  0  0  0  0  0  0  0  0  0  0  0
    2.6697    2.5058    4.4204 H   0  0  0  0  0  0  0  0  0  0  0  0
    5.0964    2.7653    4.4008 H   0  0  0  0  0  0  0  0  0  0  0  0
    7.2765    2.3131    3.3795 H   0  0  0  0  0  0  0  0  0  0  0  0
    7.6406   -0.8729    0.3252 H   0  0  0  0  0  0  0  0  0  0  0  0
    9.0369    0.1479   -0.0473 H   0  0  0  0  0  0  0  0  0  0  0  0
    7.4569    0.6005   -0.7024 H   0  0  0  0  0  0  0  0  0  0  0  0
    5.4379   -0.0322    0.3217 H   0  0  0  0  0  0  0  0  0  0  0  0
    3.8005   -1.2501    0.0970 H   0  0  0  0  0  0  0  0  0  0  0  0
    2.0726   -1.3030    0.0638 H   0  0  0  0  0  0  0  0  0  0  0  0
    2.9166   -0.3972   -2.0985 H   0  0  0  0  0  0  0  0  0  0  0  0
    1.9885    0.8556   -1.2584 H   0  0  0  0  0  0  0  0  0  0  0  0
    3.7508    0.9182   -1.2565 H   0  0  0  0  0  0  0  0  0  0  0  0
   -2.2218   -1.0775    1.6502 H   0  0  0  0  0  0  0  0  0  0  0  0
   -4.2477   -1.8684    0.6359 H   0  0  0  0  0  0  0  0  0  0  0  0
  1  2  1  0
  2  3  1  0
  3  4  1  0
  4  5  1  0
  3  6  1  0
  6  7  2  0
  7  8  1  0
  8  9  2  0
  9 10  1  0
 10 11  2  3
 11 12  1  0
 12 13  2  0
 13 14  1  0
 14 15  2  0
 15 16  1  0
 16 17  2  0
 17 18  1  0
 18 19  1  0
 19 20  1  0
 18 21  2  0
 21 22  1  0
 22 23  2  0
 23 24  1  0
 24 25  1  0
  9 26  1  0
 26 27  2  0
 27  6  1  0
 23 12  1  0
 22 15  1  0
  1 28  1  0
  1 29  1  0
  1 30  1  0
  2 31  1  0
  2 32  1  0
  4 33  1  0
  4 34  1  0
  5 35  1  0
  5 36  1  0
  5 37  1  0
  7 38  1  0
  8 39  1  0
 10 40  1  0
 11 41  1  0
 13 42  1  0
 14 43  1  0
 16 44  1  0
 17 45  1  0
 20 46  1  0
 20 47  1  0
 20 48  1  0
 21 49  1  0
 24 50  1  0
 24 51  1  0
 25 52  1  0
 25 53  1  0
 25 54  1  0
 26 55  1  0
 27 56  1  0
M  CHG  1  23   1
M  END
$$$$
