
     RDKit          3D

 68 71  0  0  0  0  0  0  0  0999 V2000
   -5.9651   -3.6674    2.1530 C   0  0  0  0  0  0  0  0  0  0  0  0
   -4.7960   -2.7630    1.8992 C   0  0  0  0  0  0  0  0  0  0  0  0
   -4.9008   -1.7103    0.9838 C   0  0  0  0  0  0  0  0  0  0  0  0
   -3.8224   -0.8491    0.7603 C   0  0  0  0  0  0  0  0  0  0  0  0
   -2.6149   -1.0216    1.4531 C   0  0  0  0  0  0  0  0  0  0  0  0
   -1.3892   -0.1359    1.2170 C   0  0  0  0  0  0  0  0  0  0  0  0
   -1.7330    1.2926    0.6900 C   0  0  0  0  0  0  0  0  0  0  0  0
   -2.3339    2.1109    1.3915 O   0  0  0  0  0  0  0  0  0  0  0  0
   -1.4582    1.5639   -0.6342 N   0  0  0  0  0  0  0  0  0  0  0  0
   -1.8565    2.8137   -1.2624 C   0  0  0  0  0  0  0  0  0  0  0  0
   -3.3205    2.7930   -1.6952 C   0  0  0  0  0  0  0  0  0  0  0  0
   -3.3144    2.0104   -3.0040 C   0  0  0  0  0  0  0  0  0  0  0  0
   -1.9360    2.2413   -3.6218 C   0  0  0  0  0  0  0  0  0  0  0  0
   -1.1231    3.0190   -2.5854 C   0  0  0  0  0  0  0  0  0  0  0  0
   -0.2391   -0.8467    0.5761 N   0  0  0  0  0  0  0  0  0  0  0  0
    0.9989   -0.7310    1.2242 C   0  0  0  0  0  0  0  0  0  0  0  0
    1.2014    0.0776    2.1323 O   0  0  0  0  0  0  0  0  0  0  0  0
    2.0583   -1.7766    0.8686 C   0  0  0  0  0  0  0  0  0  0  0  0
    3.3038   -1.6169    1.7384 C   0  0  0  0  0  0  0  0  0  0  0  0
    4.1551   -0.4394    1.2919 C   0  0  0  0  0  0  0  0  0  0  0  0
    4.0538    0.0537    0.1717 O   0  0  0  0  0  0  0  0  0  0  0  0
    5.0625   -0.0683    2.2573 N   0  0  0  0  0  0  0  0  0  0  0  0
    6.0020    0.9300    2.1298 C   0  0  0  0  0  0  0  0  0  0  0  0
    6.2749    1.7753    1.0333 C   0  0  0  0  0  0  0  0  0  0  0  0
    7.3102    2.5701    1.4603 C   0  0  0  0  0  0  0  0  0  0  0  0
    8.0902    3.6627    0.8536 C   0  0  0  0  0  0  0  0  0  0  0  0
    7.6445    2.2217    2.7304 O   0  0  0  0  0  0  0  0  0  0  0  0
    6.8232    1.1940    3.1535 N   0  0  0  0  0  0  0  0  0  0  0  0
   -0.3376   -1.3297   -0.7667 C   0  0  0  0  0  0  0  0  0  0  0  0
    0.5621   -0.8637   -1.7420 C   0  0  0  0  0  0  0  0  0  0  0  0
    0.4557   -1.2706   -3.0744 C   0  0  0  0  0  0  0  0  0  0  0  0
   -0.5533   -2.1490   -3.4534 C   0  0  0  0  0  0  0  0  0  0  0  0
   -1.4507   -2.6210   -2.4996 C   0  0  0  0  0  0  0  0  0  0  0  0
   -1.3432   -2.2130   -1.1657 C   0  0  0  0  0  0  0  0  0  0  0  0
   -2.5272   -2.0668    2.3908 C   0  0  0  0  0  0  0  0  0  0  0  0
   -3.6073   -2.9231    2.6150 C   0  0  0  0  0  0  0  0  0  0  0  0
   -6.6253   -3.2271    2.9062 H   0  0  0  0  0  0  0  0  0  0  0  0
   -5.6326   -4.6499    2.5057 H   0  0  0  0  0  0  0  0  0  0  0  0
   -6.5341   -3.8308    1.2317 H   0  0  0  0  0  0  0  0  0  0  0  0
   -5.8262   -1.5530    0.4349 H   0  0  0  0  0  0  0  0  0  0  0  0
   -3.9439   -0.0485    0.0343 H   0  0  0  0  0  0  0  0  0  0  0  0
   -1.0621    0.1002    2.2415 H   0  0  0  0  0  0  0  0  0  0  0  0
   -1.2891    0.7777   -1.2450 H   0  0  0  0  0  0  0  0  0  0  0  0
   -1.6576    3.6317   -0.5614 H   0  0  0  0  0  0  0  0  0  0  0  0
   -3.9924    2.3441   -0.9571 H   0  0  0  0  0  0  0  0  0  0  0  0
   -3.6649    3.8160   -1.8865 H   0  0  0  0  0  0  0  0  0  0  0  0
   -4.1216    2.3345   -3.6707 H   0  0  0  0  0  0  0  0  0  0  0  0
   -3.4603    0.9415   -2.8051 H   0  0  0  0  0  0  0  0  0  0  0  0
   -1.4577    1.2845   -3.8549 H   0  0  0  0  0  0  0  0  0  0  0  0
   -2.0091    2.8021   -4.5602 H   0  0  0  0  0  0  0  0  0  0  0  0
   -0.0787    2.6888   -2.5588 H   0  0  0  0  0  0  0  0  0  0  0  0
   -1.1323    4.0843   -2.8503 H   0  0  0  0  0  0  0  0  0  0  0  0
    1.6186   -2.7641    1.0608 H   0  0  0  0  0  0  0  0  0  0  0  0
    2.3422   -1.7308   -0.1836 H   0  0  0  0  0  0  0  0  0  0  0  0
    3.9262   -2.5144    1.6423 H   0  0  0  0  0  0  0  0  0  0  0  0
    3.0368   -1.5078    2.7960 H   0  0  0  0  0  0  0  0  0  0  0  0
    5.0494   -0.4991    3.1703 H   0  0  0  0  0  0  0  0  0  0  0  0
    5.7857    1.8109    0.0709 H   0  0  0  0  0  0  0  0  0  0  0  0
    8.1199    4.5323    1.5191 H   0  0  0  0  0  0  0  0  0  0  0  0
    9.1170    3.3359    0.6671 H   0  0  0  0  0  0  0  0  0  0  0  0
    7.6517    3.9779   -0.0991 H   0  0  0  0  0  0  0  0  0  0  0  0
    1.3379   -0.1416   -1.4864 H   0  0  0  0  0  0  0  0  0  0  0  0
    1.1584   -0.8930   -3.8138 H   0  0  0  0  0  0  0  0  0  0  0  0
   -0.6391   -2.4711   -4.4886 H   0  0  0  0  0  0  0  0  0  0  0  0
   -2.2334   -3.3186   -2.7886 H   0  0  0  0  0  0  0  0  0  0  0  0
   -2.0355   -2.6467   -0.4519 H   0  0  0  0  0  0  0  0  0  0  0  0
   -1.6100   -2.2167    2.9570 H   0  0  0  0  0  0  0  0  0  0  0  0
   -3.5122   -3.7160    3.3539 H   0  0  0  0  0  0  0  0  0  0  0  0
  1  2  1  0
  2  3  2  0
  3  4  1  0
  4  5  2  0
  5  6  1  0
  6  7  1  0
  7  8  2  0
  7  9  1  0
  9 10  1  0
 10 11  1  0
 11 12  1  0
 12 13  1  0
 13 14  1  0
  6 15  1  0
 15 16  1  0
 16 17  2  0
 16 18  1  0
 18 19  1  0
 19 20  1  0
 20 21  2  0
 20 22  1  0
 22 23  1  0
 23 24  1  0
 24 25  2  0
 25 26  1  0
 25 27  1  0
 27 28  1  0
 15 29  1  0
 29 30  2  0
 30 31  1  0
 31 32  2  0
 32 33  1  0
 33 34  2  0
  5 35  1  0
 35 36  2  0
 36  2  1  0
 14 10  1  0
 28 23  2  0
 34 29  1  0
  1 37  1  0
  1 38  1  0
  1 39  1  0
  3 40  1  0
  4 41  1  0
  6 42  1  0
  9 43  1  0
 10 44  1  0
 11 45  1  0
 11 46  1  0
 12 47  1  0
 12 48  1  0
 13 49  1  0
 13 50  1  0
 14 51  1  0
 14 52  1  0
 18 53  1  0
 18 54  1  0
 19 55  1  0
 19 56  1  0
 22 57  1  0
 24 58  1  0
 26 59  1  0
 26 60  1  0
 26 61  1  0
 30 62  1  0
 31 63  1  0
 32 64  1  0
 33 65  1  0
 34 66  1  0
 35 67  1  0
 36 68  1  0
M  END
$$$$
