
     RDKit          3D

 36 37  0  0  0  0  0  0  0  0999 V2000
   -1.4765    1.5553   -2.4411 O   0  0  0  0  0  0  0  0  0  0  0  0
   -0.9505    1.7212   -1.3446 C   0  0  0  0  0  0  0  0  0  0  0  0
    0.1731    2.7391   -1.1242 C   0  0  0  0  0  0  0  0  0  0  0  0
    1.4299    2.1614   -0.7645 O   0  0  0  0  0  0  0  0  0  0  0  0
    1.5761    1.8496    0.5437 C   0  0  0  0  0  0  0  0  0  0  0  0
    0.7146    1.9692    1.4015 O   0  0  0  0  0  0  0  0  0  0  0  0
    2.9356    1.3123    0.8129 C   0  0  0  0  0  0  0  0  0  0  0  0
    3.2470    0.9362    2.1264 C   0  0  0  0  0  0  0  0  0  0  0  0
    4.5104    0.4261    2.4217 C   0  0  0  0  0  0  0  0  0  0  0  0
    4.8859   -0.0346    4.0359 Cl  0  0  0  0  0  0  0  0  0  0  0  0
    5.4709    0.2851    1.4239 C   0  0  0  0  0  0  0  0  0  0  0  0
    5.1582    0.6603    0.1198 C   0  0  0  0  0  0  0  0  0  0  0  0
    6.3388    0.4889   -1.1202 Cl  0  0  0  0  0  0  0  0  0  0  0  0
    3.8992    1.1725   -0.1945 C   0  0  0  0  0  0  0  0  0  0  0  0
   -1.3229    1.0208   -0.2181 N   0  0  0  0  0  0  0  0  0  0  0  0
   -2.5007    0.1715   -0.1750 C   0  0  0  0  0  0  0  0  0  0  0  0
   -2.4999   -0.9669   -1.2069 C   0  0  0  0  0  0  0  0  0  0  0  0
   -3.3987   -2.0455   -0.8289 N   0  0  0  0  0  0  0  0  0  0  0  0
   -3.0578   -3.1401   -0.0693 C   0  0  0  0  0  0  0  0  0  0  0  0
   -1.7656   -3.3964    0.2754 O   0  0  0  0  0  0  0  0  0  0  0  0
   -4.0855   -3.9121    0.2940 C   0  0  0  0  0  0  0  0  0  0  0  0
   -5.5885   -3.2972   -0.3134 S   0  0  0  0  0  0  0  0  0  0  0  0
   -4.7671   -1.9093   -1.0488 C   0  0  0  0  0  0  0  0  0  0  0  0
   -5.3508   -0.9994   -1.6128 O   0  0  0  0  0  0  0  0  0  0  0  0
    0.3269    3.2752   -2.0673 H   0  0  0  0  0  0  0  0  0  0  0  0
   -0.1482    3.4871   -0.3889 H   0  0  0  0  0  0  0  0  0  0  0  0
    2.5069    1.0411    2.9179 H   0  0  0  0  0  0  0  0  0  0  0  0
    6.4542   -0.1130    1.6603 H   0  0  0  0  0  0  0  0  0  0  0  0
    3.6811    1.4576   -1.2210 H   0  0  0  0  0  0  0  0  0  0  0  0
   -0.9400    1.3427    0.6722 H   0  0  0  0  0  0  0  0  0  0  0  0
   -2.5405   -0.2362    0.8413 H   0  0  0  0  0  0  0  0  0  0  0  0
   -3.3827    0.8074   -0.3108 H   0  0  0  0  0  0  0  0  0  0  0  0
   -1.4894   -1.3575   -1.3609 H   0  0  0  0  0  0  0  0  0  0  0  0
   -2.8313   -0.5789   -2.1775 H   0  0  0  0  0  0  0  0  0  0  0  0
   -1.2017   -3.0833   -0.4486 H   0  0  0  0  0  0  0  0  0  0  0  0
   -4.0106   -4.8102    0.8905 H   0  0  0  0  0  0  0  0  0  0  0  0
  1  2  2  0
  2  3  1  0
  3  4  1  0
  4  5  1  0
  5  6  2  0
  5  7  1  0
  7  8  2  0
  8  9  1  0
  9 10  1  0
  9 11  2  0
 11 12  1  0
 12 13  1  0
 12 14  2  0
  2 15  1  0
 15 16  1  0
 16 17  1  0
 17 18  1  0
 18 19  1  0
 19 20  1  0
 19 21  2  0
 21 22  1  0
 22 23  1  0
 23 24  2  0
 14  7  1  0
 23 18  1  0
  3 25  1  0
  3 26  1  0
  8 27  1  0
 11 28  1  0
 14 29  1  0
 15 30  1  0
 16 31  1  0
 16 32  1  0
 17 33  1  0
 17 34  1  0
 20 35  1  0
 21 36  1  0
M  END
$$$$
