
     RDKit          3D

 68 70  0  0  0  0  0  0  0  0999 V2000
   -4.9165    6.1442    1.6360 C   0  0  0  0  0  0  0  0  0  0  0  0
   -3.9842    5.8698    0.5979 O   0  0  0  0  0  0  0  0  0  0  0  0
   -3.5936    4.5685    0.4488 C   0  0  0  0  0  0  0  0  0  0  0  0
   -2.7816    4.3256   -0.6584 C   0  0  0  0  0  0  0  0  0  0  0  0
   -2.3093    3.0387   -0.9266 C   0  0  0  0  0  0  0  0  0  0  0  0
   -2.6399    1.9573   -0.0897 C   0  0  0  0  0  0  0  0  0  0  0  0
   -2.0537    0.5839   -0.4156 C   0  0  0  0  0  0  0  0  0  0  0  0
   -2.8950   -0.6776   -0.0423 C   0  0  0  0  0  0  0  0  0  0  0  0
   -3.9097   -0.6606    0.6471 O   0  0  0  0  0  0  0  0  0  0  0  0
   -2.4117   -1.8474   -0.6181 N   0  0  0  0  0  0  0  0  0  0  0  0
   -3.0388   -3.1723   -0.5118 C   0  0  0  0  0  0  0  0  0  0  0  0
   -4.4292   -3.1722   -1.1655 C   0  0  0  0  0  0  0  0  0  0  0  0
   -3.1427   -3.6225    0.9540 C   0  0  0  0  0  0  0  0  0  0  0  0
   -2.1447   -4.1771   -1.2613 C   0  0  0  0  0  0  0  0  0  0  0  0
   -0.6324    0.4303    0.0145 N   0  0  0  0  0  0  0  0  0  0  0  0
    0.2390   -0.2138   -0.8646 C   0  0  0  0  0  0  0  0  0  0  0  0
   -0.1474   -0.6795   -1.9413 O   0  0  0  0  0  0  0  0  0  0  0  0
    1.7004   -0.3072   -0.4510 C   0  0  0  0  0  0  0  0  0  0  0  0
    2.5929   -0.5405   -1.6678 C   0  0  0  0  0  0  0  0  0  0  0  0
    4.0549   -0.6611   -1.2866 C   0  0  0  0  0  0  0  0  0  0  0  0
    4.4230   -0.7714   -0.1214 O   0  0  0  0  0  0  0  0  0  0  0  0
    4.8727   -0.6507   -2.3930 N   0  0  0  0  0  0  0  0  0  0  0  0
    6.2426   -0.7874   -2.3726 C   0  0  0  0  0  0  0  0  0  0  0  0
    7.1084   -1.0237   -1.2821 C   0  0  0  0  0  0  0  0  0  0  0  0
    8.3599   -1.0861   -1.8428 C   0  0  0  0  0  0  0  0  0  0  0  0
    9.7155   -1.3099   -1.3130 C   0  0  0  0  0  0  0  0  0  0  0  0
    8.2560   -0.8879   -3.1835 O   0  0  0  0  0  0  0  0  0  0  0  0
    6.9280   -0.7020   -3.5188 N   0  0  0  0  0  0  0  0  0  0  0  0
   -0.3794    0.4490    1.4168 C   0  0  0  0  0  0  0  0  0  0  0  0
   -0.3041    1.6704    2.0956 C   0  0  0  0  0  0  0  0  0  0  0  0
   -0.0613    1.7017    3.4716 C   0  0  0  0  0  0  0  0  0  0  0  0
    0.1109    0.5107    4.1733 C   0  0  0  0  0  0  0  0  0  0  0  0
    0.0393   -0.6997    3.4940 C   0  0  0  0  0  0  0  0  0  0  0  0
    0.2017   -1.8444    4.1708 F   0  0  0  0  0  0  0  0  0  0  0  0
   -0.2006   -0.7436    2.1247 C   0  0  0  0  0  0  0  0  0  0  0  0
   -3.4412    2.2189    1.0305 C   0  0  0  0  0  0  0  0  0  0  0  0
   -3.9199    3.5101    1.2937 C   0  0  0  0  0  0  0  0  0  0  0  0
   -5.1635    7.2093    1.5889 H   0  0  0  0  0  0  0  0  0  0  0  0
   -5.8432    5.5774    1.4944 H   0  0  0  0  0  0  0  0  0  0  0  0
   -4.4790    5.9484    2.6208 H   0  0  0  0  0  0  0  0  0  0  0  0
   -2.5137    5.1457   -1.3197 H   0  0  0  0  0  0  0  0  0  0  0  0
   -1.6728    2.8879   -1.7969 H   0  0  0  0  0  0  0  0  0  0  0  0
   -2.0655    0.5578   -1.5166 H   0  0  0  0  0  0  0  0  0  0  0  0
   -1.6974   -1.7281   -1.3374 H   0  0  0  0  0  0  0  0  0  0  0  0
   -4.3718   -2.8347   -2.2072 H   0  0  0  0  0  0  0  0  0  0  0  0
   -5.1274   -2.5080   -0.6458 H   0  0  0  0  0  0  0  0  0  0  0  0
   -4.8688   -4.1760   -1.1612 H   0  0  0  0  0  0  0  0  0  0  0  0
   -3.8352   -2.9981    1.5288 H   0  0  0  0  0  0  0  0  0  0  0  0
   -3.5057   -4.6541    1.0249 H   0  0  0  0  0  0  0  0  0  0  0  0
   -2.1662   -3.5728    1.4515 H   0  0  0  0  0  0  0  0  0  0  0  0
   -2.0401   -3.8997   -2.3166 H   0  0  0  0  0  0  0  0  0  0  0  0
   -1.1356   -4.2062   -0.8322 H   0  0  0  0  0  0  0  0  0  0  0  0
   -2.5573   -5.1911   -1.2190 H   0  0  0  0  0  0  0  0  0  0  0  0
    1.8142   -1.1385    0.2529 H   0  0  0  0  0  0  0  0  0  0  0  0
    2.0043    0.6207    0.0482 H   0  0  0  0  0  0  0  0  0  0  0  0
    2.3058   -1.4670   -2.1802 H   0  0  0  0  0  0  0  0  0  0  0  0
    2.4746    0.2880   -2.3778 H   0  0  0  0  0  0  0  0  0  0  0  0
    4.4918   -0.5009   -3.3192 H   0  0  0  0  0  0  0  0  0  0  0  0
    6.8613   -1.1399   -0.2372 H   0  0  0  0  0  0  0  0  0  0  0  0
   10.2816   -0.3734   -1.3002 H   0  0  0  0  0  0  0  0  0  0  0  0
    9.6770   -1.7013   -0.2906 H   0  0  0  0  0  0  0  0  0  0  0  0
   10.2570   -2.0340   -1.9301 H   0  0  0  0  0  0  0  0  0  0  0  0
   -0.4187    2.6109    1.5609 H   0  0  0  0  0  0  0  0  0  0  0  0
   -0.0055    2.6554    3.9917 H   0  0  0  0  0  0  0  0  0  0  0  0
    0.2990    0.5173    5.2420 H   0  0  0  0  0  0  0  0  0  0  0  0
   -0.2665   -1.7114    1.6383 H   0  0  0  0  0  0  0  0  0  0  0  0
   -3.7014    1.4265    1.7296 H   0  0  0  0  0  0  0  0  0  0  0  0
   -4.5393    3.6496    2.1736 H   0  0  0  0  0  0  0  0  0  0  0  0
  1  2  1  0
  2  3  1  0
  3  4  2  0
  4  5  1  0
  5  6  2  0
  6  7  1  0
  7  8  1  0
  8  9  2  0
  8 10  1  0
 10 11  1  0
 11 12  1  0
 11 13  1  0
 11 14  1  0
  7 15  1  0
 15 16  1  0
 16 17  2  0
 16 18  1  0
 18 19  1  0
 19 20  1  0
 20 21  2  0
 20 22  1  0
 22 23  1  0
 23 24  1  0
 24 25  2  0
 25 26  1  0
 25 27  1  0
 27 28  1  0
 15 29  1  0
 29 30  2  0
 30 31  1  0
 31 32  2  0
 32 33  1  0
 33 34  1  0
 33 35  2  0
  6 36  1  0
 36 37  2  0
 37  3  1  0
 28 23  2  0
 35 29  1  0
  1 38  1  0
  1 39  1  0
  1 40  1  0
  4 41  1  0
  5 42  1  0
  7 43  1  0
 10 44  1  0
 12 45  1  0
 12 46  1  0
 12 47  1  0
 13 48  1  0
 13 49  1  0
 13 50  1  0
 14 51  1  0
 14 52  1  0
 14 53  1  0
 18 54  1  0
 18 55  1  0
 19 56  1  0
 19 57  1  0
 22 58  1  0
 24 59  1  0
 26 60  1  0
 26 61  1  0
 26 62  1  0
 30 63  1  0
 31 64  1  0
 32 65  1  0
 35 66  1  0
 36 67  1  0
 37 68  1  0
M  END
$$$$
