
     RDKit          3D

 63 67  0  0  0  0  0  0  0  0999 V2000
   -1.4315    0.8349    5.5144 C   0  0  0  0  0  0  0  0  0  0  0  0
   -1.9841   -0.3091    4.8550 O   0  0  0  0  0  0  0  0  0  0  0  0
   -1.8562   -0.2929    3.5053 C   0  0  0  0  0  0  0  0  0  0  0  0
   -1.2705    0.5637    2.8620 O   0  0  0  0  0  0  0  0  0  0  0  0
   -2.5367   -1.4601    2.8774 C   0  0  0  0  0  0  0  0  0  0  0  0
   -3.4428   -2.2179    3.6372 C   0  0  0  0  0  0  0  0  0  0  0  0
   -4.1350   -3.2784    3.0600 C   0  0  0  0  0  0  0  0  0  0  0  0
   -3.9400   -3.5825    1.7175 C   0  0  0  0  0  0  0  0  0  0  0  0
   -3.0448   -2.8364    0.9534 C   0  0  0  0  0  0  0  0  0  0  0  0
   -2.3051   -1.7880    1.5188 C   0  0  0  0  0  0  0  0  0  0  0  0
   -1.4038   -1.0037    0.7414 N   0  0  0  0  0  0  0  0  0  0  0  0
   -0.7370   -1.2886   -0.4452 C   0  0  0  0  0  0  0  0  0  0  0  0
   -0.3250   -2.8552   -0.9247 S   0  0  0  0  0  0  0  0  0  0  0  0
   -0.4023   -0.1403   -1.2037 N   0  0  0  0  0  0  0  0  0  0  0  0
   -0.0074   -0.2569   -2.6249 C   0  0  0  0  0  0  0  0  0  0  0  0
   -1.1550   -0.6172   -3.5499 C   0  0  0  0  0  0  0  0  0  0  0  0
   -0.8924   -1.4056   -4.6977 C   0  0  0  0  0  0  0  0  0  0  0  0
   -1.9093   -1.7365   -5.5988 C   0  0  0  0  0  0  0  0  0  0  0  0
   -3.1748   -1.2597   -5.3375 C   0  0  0  0  0  0  0  0  0  0  0  0
   -3.4417   -0.4849   -4.2337 C   0  0  0  0  0  0  0  0  0  0  0  0
   -2.4590   -0.1396   -3.3291 C   0  0  0  0  0  0  0  0  0  0  0  0
   -4.7506   -0.1207   -4.1579 O   0  0  0  0  0  0  0  0  0  0  0  0
   -5.2740   -0.7550   -5.3449 C   0  0  0  0  0  0  0  0  0  0  0  0
   -4.2799   -1.4752   -6.0988 O   0  0  0  0  0  0  0  0  0  0  0  0
   -0.3102    1.2285   -0.6583 C   0  0  0  0  0  0  0  0  0  0  0  0
    1.1021    1.4968   -0.2085 C   0  0  0  0  0  0  0  0  0  0  0  0
    1.6167    1.0565    0.9551 C   0  0  0  0  0  0  0  0  0  0  0  0
    3.0045    1.3268    1.3270 C   0  0  0  0  0  0  0  0  0  0  0  0
    3.5456    0.8637    2.5254 C   0  0  0  0  0  0  0  0  0  0  0  0
    4.8830    1.1291    2.8330 C   0  0  0  0  0  0  0  0  0  0  0  0
    5.6924    1.8405    1.9447 C   0  0  0  0  0  0  0  0  0  0  0  0
    6.9815    2.0241    2.3650 O   0  0  0  0  0  0  0  0  0  0  0  0
    7.9373    2.3311    1.3566 C   0  0  0  0  0  0  0  0  0  0  0  0
    5.1514    2.3183    0.7510 C   0  0  0  0  0  0  0  0  0  0  0  0
    3.8110    2.0591    0.4522 C   0  0  0  0  0  0  0  0  0  0  0  0
    3.2526    2.5398   -0.7351 N   0  0  0  0  0  0  0  0  0  0  0  0
    1.9549    2.3263   -1.1121 C   0  0  0  0  0  0  0  0  0  0  0  0
    1.5285    2.7949   -2.1637 O   0  0  0  0  0  0  0  0  0  0  0  0
   -1.8771    1.7608    5.1160 H   0  0  0  0  0  0  0  0  0  0  0  0
   -1.6971    0.7612    6.5770 H   0  0  0  0  0  0  0  0  0  0  0  0
   -0.3414    0.8478    5.4206 H   0  0  0  0  0  0  0  0  0  0  0  0
   -3.6353   -1.9806    4.6811 H   0  0  0  0  0  0  0  0  0  0  0  0
   -4.8380   -3.8565    3.6509 H   0  0  0  0  0  0  0  0  0  0  0  0
   -4.4918   -4.3921    1.2508 H   0  0  0  0  0  0  0  0  0  0  0  0
   -2.9703   -3.0788   -0.1041 H   0  0  0  0  0  0  0  0  0  0  0  0
   -1.0809   -0.1724    1.2340 H   0  0  0  0  0  0  0  0  0  0  0  0
    0.8110   -0.9823   -2.7083 H   0  0  0  0  0  0  0  0  0  0  0  0
    0.3936    0.6967   -2.9828 H   0  0  0  0  0  0  0  0  0  0  0  0
    0.1163   -1.7717   -4.8860 H   0  0  0  0  0  0  0  0  0  0  0  0
   -1.7094   -2.3478   -6.4704 H   0  0  0  0  0  0  0  0  0  0  0  0
   -2.7047    0.4764   -2.4690 H   0  0  0  0  0  0  0  0  0  0  0  0
   -6.0628   -1.4576   -5.0509 H   0  0  0  0  0  0  0  0  0  0  0  0
   -5.7139    0.0150   -5.9893 H   0  0  0  0  0  0  0  0  0  0  0  0
   -1.0023    1.3771    0.1740 H   0  0  0  0  0  0  0  0  0  0  0  0
   -0.6479    1.9360   -1.4239 H   0  0  0  0  0  0  0  0  0  0  0  0
    1.0269    0.4685    1.6472 H   0  0  0  0  0  0  0  0  0  0  0  0
    2.9415    0.2922    3.2241 H   0  0  0  0  0  0  0  0  0  0  0  0
    5.3026    0.7664    3.7678 H   0  0  0  0  0  0  0  0  0  0  0  0
    7.9010    1.6048    0.5367 H   0  0  0  0  0  0  0  0  0  0  0  0
    8.9296    2.2681    1.8108 H   0  0  0  0  0  0  0  0  0  0  0  0
    7.8020    3.3523    0.9830 H   0  0  0  0  0  0  0  0  0  0  0  0
    5.7494    2.8933    0.0575 H   0  0  0  0  0  0  0  0  0  0  0  0
    3.8070    3.0936   -1.3747 H   0  0  0  0  0  0  0  0  0  0  0  0
  1  2  1  0
  2  3  1  0
  3  4  2  0
  3  5  1  0
  5  6  2  0
  6  7  1  0
  7  8  2  0
  8  9  1  0
  9 10  2  0
 10 11  1  0
 11 12  1  0
 12 13  2  0
 12 14  1  0
 14 15  1  0
 15 16  1  0
 16 17  2  0
 17 18  1  0
 18 19  2  0
 19 20  1  0
 20 21  2  0
 20 22  1  0
 22 23  1  0
 23 24  1  0
 14 25  1  0
 25 26  1  0
 26 27  2  0
 27 28  1  0
 28 29  2  0
 29 30  1  0
 30 31  2  0
 31 32  1  0
 32 33  1  0
 31 34  1  0
 34 35  2  0
 35 36  1  0
 36 37  1  0
 37 38  2  0
 10  5  1  0
 21 16  1  0
 37 26  1  0
 24 19  1  0
 35 28  1  0
  1 39  1  0
  1 40  1  0
  1 41  1  0
  6 42  1  0
  7 43  1  0
  8 44  1  0
  9 45  1  0
 11 46  1  0
 15 47  1  0
 15 48  1  0
 17 49  1  0
 18 50  1  0
 21 51  1  0
 23 52  1  0
 23 53  1  0
 25 54  1  0
 25 55  1  0
 27 56  1  0
 29 57  1  0
 30 58  1  0
 33 59  1  0
 33 60  1  0
 33 61  1  0
 34 62  1  0
 36 63  1  0
M  END
$$$$
