
     RDKit          3D

 42 45  0  0  0  0  0  0  0  0999 V2000
    2.4609    2.3024    0.0627 O   0  0  0  0  0  0  0  0  0  0  0  0
    2.7445    1.1623   -0.2966 C   0  0  0  0  0  0  0  0  0  0  0  0
    4.0728    0.6248    0.0793 C   0  0  0  0  0  0  0  0  0  0  0  0
    4.5406    0.8265    1.3845 C   0  0  0  0  0  0  0  0  0  0  0  0
    5.8007    0.3522    1.7550 C   0  0  0  0  0  0  0  0  0  0  0  0
    6.5951   -0.3080    0.8177 C   0  0  0  0  0  0  0  0  0  0  0  0
    6.1291   -0.4801   -0.4828 C   0  0  0  0  0  0  0  0  0  0  0  0
    6.9020   -1.1043   -1.3809 F   0  0  0  0  0  0  0  0  0  0  0  0
    4.8781   -0.0145   -0.8671 C   0  0  0  0  0  0  0  0  0  0  0  0
    1.8874    0.3640   -1.0577 N   0  0  0  0  0  0  0  0  0  0  0  0
    0.6171    0.9640   -1.4736 C   0  0  0  0  0  0  0  0  0  0  0  0
   -0.4783    0.6959   -0.4316 C   0  0  0  0  0  0  0  0  0  0  0  0
   -0.5890   -0.7437   -0.1220 N   0  0  0  0  0  0  0  0  0  0  0  0
   -1.7366   -1.2927    0.4736 C   0  0  0  0  0  0  0  0  0  0  0  0
   -1.6490   -2.2293    1.2704 O   0  0  0  0  0  0  0  0  0  0  0  0
   -3.0676   -0.7615    0.1119 C   0  0  0  0  0  0  0  0  0  0  0  0
   -4.2393   -0.8980    0.8998 C   0  0  0  0  0  0  0  0  0  0  0  0
   -5.2524   -0.3174    0.1784 C   0  0  0  0  0  0  0  0  0  0  0  0
   -6.5826   -0.1475    0.4466 N   0  0  0  0  0  0  0  0  0  0  0  0
   -7.2725    0.4463   -0.4839 C   0  0  0  0  0  0  0  0  0  0  0  0
   -6.7433    0.9473   -1.7895 C   0  0  0  0  0  0  0  0  0  0  0  0
   -7.8864    1.7684   -2.9867 Br  0  0  0  0  0  0  0  0  0  0  0  0
   -5.4337    0.7493   -1.9857 C   0  0  0  0  0  0  0  0  0  0  0  0
   -4.6697    0.1179   -1.0122 N   0  0  0  0  0  0  0  0  0  0  0  0
   -3.3453   -0.1562   -1.0585 N   0  0  0  0  0  0  0  0  0  0  0  0
    0.6865   -1.3990    0.1956 C   0  0  0  0  0  0  0  0  0  0  0  0
    1.7811   -1.0857   -0.8404 C   0  0  0  0  0  0  0  0  0  0  0  0
    3.9252    1.3572    2.1085 H   0  0  0  0  0  0  0  0  0  0  0  0
    6.1642    0.5051    2.7684 H   0  0  0  0  0  0  0  0  0  0  0  0
    7.5789   -0.6795    1.0884 H   0  0  0  0  0  0  0  0  0  0  0  0
    4.5492   -0.1436   -1.8930 H   0  0  0  0  0  0  0  0  0  0  0  0
    0.3421    0.5122   -2.4342 H   0  0  0  0  0  0  0  0  0  0  0  0
    0.7356    2.0408   -1.6345 H   0  0  0  0  0  0  0  0  0  0  0  0
   -1.4164    1.1257   -0.7767 H   0  0  0  0  0  0  0  0  0  0  0  0
   -0.2343    1.1971    0.5137 H   0  0  0  0  0  0  0  0  0  0  0  0
   -4.3258   -1.3656    1.8705 H   0  0  0  0  0  0  0  0  0  0  0  0
   -8.3507    0.6047   -0.3117 H   0  0  0  0  0  0  0  0  0  0  0  0
   -4.9045    1.0532   -2.8783 H   0  0  0  0  0  0  0  0  0  0  0  0
    0.9919   -1.0481    1.1894 H   0  0  0  0  0  0  0  0  0  0  0  0
    0.5441   -2.4839    0.2538 H   0  0  0  0  0  0  0  0  0  0  0  0
    1.5259   -1.5386   -1.8056 H   0  0  0  0  0  0  0  0  0  0  0  0
    2.7243   -1.5200   -0.5040 H   0  0  0  0  0  0  0  0  0  0  0  0
  1  2  2  0
  2  3  1  0
  3  4  2  0
  4  5  1  0
  5  6  2  0
  6  7  1  0
  7  8  1  0
  7  9  2  0
  2 10  1  0
 10 11  1  0
 11 12  1  0
 12 13  1  0
 13 14  1  0
 14 15  2  0
 14 16  1  0
 16 17  1  0
 17 18  2  0
 18 19  1  0
 19 20  2  0
 20 21  1  0
 21 22  1  0
 21 23  2  0
 23 24  1  0
 24 25  1  0
 13 26  1  0
 26 27  1  0
  9  3  1  0
 27 10  1  0
 25 16  2  0
 24 18  1  0
  4 28  1  0
  5 29  1  0
  6 30  1  0
  9 31  1  0
 11 32  1  0
 11 33  1  0
 12 34  1  0
 12 35  1  0
 17 36  1  0
 20 37  1  0
 23 38  1  0
 26 39  1  0
 26 40  1  0
 27 41  1  0
 27 42  1  0
M  END
$$$$
