
     RDKit          3D

 36 37  0  0  0  0  0  0  0  0999 V2000
   -3.6601    0.6759    1.6773 C   0  0  0  0  0  0  0  0  0  0  0  0
   -3.2725    1.1914    0.2935 C   0  0  0  0  0  0  0  0  0  0  0  0
   -1.9646    0.7618   -0.2290 N   0  0  0  0  0  0  0  0  0  0  0  0
   -1.8598   -0.7013   -0.4355 C   0  0  0  0  0  0  0  0  0  0  0  0
   -2.8775   -1.2847   -1.4319 C   0  0  0  0  0  0  0  0  0  0  0  0
   -4.1207   -1.5704   -0.7960 O   0  0  0  0  0  0  0  0  0  0  0  0
   -0.8644    1.2663    0.6107 C   0  0  0  0  0  0  0  0  0  0  0  0
    0.4215    1.2934   -0.1756 C   0  0  0  0  0  0  0  0  0  0  0  0
    0.6200    2.0937   -1.2859 C   0  0  0  0  0  0  0  0  0  0  0  0
    2.1708    1.9267   -1.9602 S   0  0  0  0  0  0  0  0  0  0  0  0
    2.6389    0.7677   -0.7789 C   0  0  0  0  0  0  0  0  0  0  0  0
    3.8898    0.1223   -0.6846 C   0  0  0  0  0  0  0  0  0  0  0  0
    4.1116   -0.8112    0.3363 C   0  0  0  0  0  0  0  0  0  0  0  0
    5.4488   -1.4801    0.4662 C   0  0  0  0  0  0  0  0  0  0  0  0
    3.1020   -1.0687    1.2589 C   0  0  0  0  0  0  0  0  0  0  0  0
    1.8628   -0.4249    1.1616 C   0  0  0  0  0  0  0  0  0  0  0  0
    1.6069    0.5136    0.1291 C   0  0  0  0  0  0  0  0  0  0  0  0
   -2.9498    1.0004    2.4437 H   0  0  0  0  0  0  0  0  0  0  0  0
   -3.7257   -0.4152    1.7061 H   0  0  0  0  0  0  0  0  0  0  0  0
   -4.6433    1.0707    1.9547 H   0  0  0  0  0  0  0  0  0  0  0  0
   -4.0610    0.9335   -0.4220 H   0  0  0  0  0  0  0  0  0  0  0  0
   -3.2888    2.2891    0.3212 H   0  0  0  0  0  0  0  0  0  0  0  0
   -1.9242   -1.2352    0.5201 H   0  0  0  0  0  0  0  0  0  0  0  0
   -0.8736   -0.9188   -0.8615 H   0  0  0  0  0  0  0  0  0  0  0  0
   -2.4928   -2.2290   -1.8318 H   0  0  0  0  0  0  0  0  0  0  0  0
   -3.0483   -0.6030   -2.2720 H   0  0  0  0  0  0  0  0  0  0  0  0
   -4.7266   -1.8722   -1.4941 H   0  0  0  0  0  0  0  0  0  0  0  0
   -0.7628    0.6824    1.5320 H   0  0  0  0  0  0  0  0  0  0  0  0
   -1.0647    2.3020    0.9181 H   0  0  0  0  0  0  0  0  0  0  0  0
   -0.0951    2.7695   -1.7355 H   0  0  0  0  0  0  0  0  0  0  0  0
    4.6716    0.3508   -1.4045 H   0  0  0  0  0  0  0  0  0  0  0  0
    5.3469   -2.4743    0.9140 H   0  0  0  0  0  0  0  0  0  0  0  0
    6.1101   -0.8751    1.0941 H   0  0  0  0  0  0  0  0  0  0  0  0
    5.9159   -1.6133   -0.5154 H   0  0  0  0  0  0  0  0  0  0  0  0
    3.2651   -1.7775    2.0682 H   0  0  0  0  0  0  0  0  0  0  0  0
    1.0937   -0.6563    1.8937 H   0  0  0  0  0  0  0  0  0  0  0  0
  1  2  1  0
  2  3  1  0
  3  4  1  0
  4  5  1  0
  5  6  1  0
  3  7  1  0
  7  8  1  0
  8  9  2  0
  9 10  1  0
 10 11  1  0
 11 12  2  0
 12 13  1  0
 13 14  1  0
 13 15  2  0
 15 16  1  0
 16 17  2  0
 17  8  1  0
 17 11  1  0
  1 18  1  0
  1 19  1  0
  1 20  1  0
  2 21  1  0
  2 22  1  0
  4 23  1  0
  4 24  1  0
  5 25  1  0
  5 26  1  0
  6 27  1  0
  7 28  1  0
  7 29  1  0
  9 30  1  0
 12 31  1  0
 14 32  1  0
 14 33  1  0
 14 34  1  0
 15 35  1  0
 16 36  1  0
M  END
$$$$
