
     RDKit          3D

 54 57  0  0  0  0  0  0  0  0999 V2000
   -3.1350   -5.6998    1.4068 C   0  0  0  0  0  0  0  0  0  0  0  0
   -2.5949   -4.8006    2.3670 O   0  0  0  0  0  0  0  0  0  0  0  0
   -2.4983   -3.4865    2.0003 C   0  0  0  0  0  0  0  0  0  0  0  0
   -2.8857   -2.9472    0.7704 C   0  0  0  0  0  0  0  0  0  0  0  0
   -2.7304   -1.5798    0.5230 C   0  0  0  0  0  0  0  0  0  0  0  0
   -2.1741   -0.7604    1.5066 C   0  0  0  0  0  0  0  0  0  0  0  0
   -2.0122    0.6831    1.2449 C   0  0  0  0  0  0  0  0  0  0  0  0
   -3.0268    1.4497    1.4884 N   0  0  0  0  0  0  0  0  0  0  0  0
   -2.9019    2.8234    1.2603 C   0  0  0  0  0  0  0  0  0  0  0  0
   -3.9859    3.6560    1.5483 C   0  0  0  0  0  0  0  0  0  0  0  0
   -3.9033    5.0345    1.3321 C   0  0  0  0  0  0  0  0  0  0  0  0
   -2.7312    5.5928    0.8230 C   0  0  0  0  0  0  0  0  0  0  0  0
   -1.6426    4.7719    0.5312 C   0  0  0  0  0  0  0  0  0  0  0  0
   -1.7373    3.3927    0.7542 C   0  0  0  0  0  0  0  0  0  0  0  0
   -0.6112    2.4937    0.4547 C   0  0  0  0  0  0  0  0  0  0  0  0
    0.4120    2.9494   -0.0524 O   0  0  0  0  0  0  0  0  0  0  0  0
   -0.7937    1.1433    0.7545 N   0  0  0  0  0  0  0  0  0  0  0  0
    0.3343    0.2595    0.4351 C   0  0  0  0  0  0  0  0  0  0  0  0
    0.3904   -0.0924   -1.0559 C   0  0  0  0  0  0  0  0  0  0  0  0
    1.4093   -1.0571   -1.3187 O   0  0  0  0  0  0  0  0  0  0  0  0
    2.6984   -0.6316   -1.5041 C   0  0  0  0  0  0  0  0  0  0  0  0
    3.1233    0.7012   -1.4697 C   0  0  0  0  0  0  0  0  0  0  0  0
    4.4735    1.0327   -1.6605 C   0  0  0  0  0  0  0  0  0  0  0  0
    4.9061    2.4697   -1.6498 C   0  0  0  0  0  0  0  0  0  0  0  0
    5.3969    0.0166   -1.9156 C   0  0  0  0  0  0  0  0  0  0  0  0
    4.9837   -1.3146   -1.9528 C   0  0  0  0  0  0  0  0  0  0  0  0
    3.6384   -1.6502   -1.7442 C   0  0  0  0  0  0  0  0  0  0  0  0
    3.2158   -3.0929   -1.7911 C   0  0  0  0  0  0  0  0  0  0  0  0
   -1.8025   -1.2814    2.7460 C   0  0  0  0  0  0  0  0  0  0  0  0
   -1.9617   -2.6471    2.9840 C   0  0  0  0  0  0  0  0  0  0  0  0
   -4.1685   -5.4379    1.1576 H   0  0  0  0  0  0  0  0  0  0  0  0
   -3.1433   -6.6992    1.8524 H   0  0  0  0  0  0  0  0  0  0  0  0
   -2.5092   -5.7406    0.5093 H   0  0  0  0  0  0  0  0  0  0  0  0
   -3.3165   -3.5617   -0.0132 H   0  0  0  0  0  0  0  0  0  0  0  0
   -3.0477   -1.1599   -0.4279 H   0  0  0  0  0  0  0  0  0  0  0  0
   -4.9009    3.2227    1.9447 H   0  0  0  0  0  0  0  0  0  0  0  0
   -4.7552    5.6700    1.5616 H   0  0  0  0  0  0  0  0  0  0  0  0
   -2.6660    6.6649    0.6539 H   0  0  0  0  0  0  0  0  0  0  0  0
   -0.7269    5.2032    0.1335 H   0  0  0  0  0  0  0  0  0  0  0  0
    1.2629    0.7557    0.7409 H   0  0  0  0  0  0  0  0  0  0  0  0
    0.2979   -0.6604    1.0253 H   0  0  0  0  0  0  0  0  0  0  0  0
    0.4698    0.7836   -1.7093 H   0  0  0  0  0  0  0  0  0  0  0  0
   -0.5550   -0.5687   -1.3403 H   0  0  0  0  0  0  0  0  0  0  0  0
    2.4271    1.5157   -1.2916 H   0  0  0  0  0  0  0  0  0  0  0  0
    5.9543    2.5613   -1.3462 H   0  0  0  0  0  0  0  0  0  0  0  0
    4.7886    2.9030   -2.6478 H   0  0  0  0  0  0  0  0  0  0  0  0
    4.3107    3.0506   -0.9375 H   0  0  0  0  0  0  0  0  0  0  0  0
    6.4442    0.2541   -2.0863 H   0  0  0  0  0  0  0  0  0  0  0  0
    5.7200   -2.0906   -2.1486 H   0  0  0  0  0  0  0  0  0  0  0  0
    2.5108   -3.2539   -2.6131 H   0  0  0  0  0  0  0  0  0  0  0  0
    4.0713   -3.7577   -1.9508 H   0  0  0  0  0  0  0  0  0  0  0  0
    2.7456   -3.3824   -0.8456 H   0  0  0  0  0  0  0  0  0  0  0  0
   -1.3961   -0.6361    3.5198 H   0  0  0  0  0  0  0  0  0  0  0  0
   -1.6708   -3.0643    3.9455 H   0  0  0  0  0  0  0  0  0  0  0  0
  1  2  1  0
  2  3  1  0
  3  4  2  0
  4  5  1  0
  5  6  2  0
  6  7  1  0
  7  8  2  0
  8  9  1  0
  9 10  2  0
 10 11  1  0
 11 12  2  0
 12 13  1  0
 13 14  2  0
 14 15  1  0
 15 16  2  0
 15 17  1  0
 17 18  1  0
 18 19  1  0
 19 20  1  0
 20 21  1  0
 21 22  2  0
 22 23  1  0
 23 24  1  0
 23 25  2  0
 25 26  1  0
 26 27  2  0
 27 28  1  0
  6 29  1  0
 29 30  2  0
 30  3  1  0
 17  7  1  0
 27 21  1  0
 14  9  1  0
  1 31  1  0
  1 32  1  0
  1 33  1  0
  4 34  1  0
  5 35  1  0
 10 36  1  0
 11 37  1  0
 12 38  1  0
 13 39  1  0
 18 40  1  0
 18 41  1  0
 19 42  1  0
 19 43  1  0
 22 44  1  0
 24 45  1  0
 24 46  1  0
 24 47  1  0
 25 48  1  0
 26 49  1  0
 28 50  1  0
 28 51  1  0
 28 52  1  0
 29 53  1  0
 30 54  1  0
M  END
$$$$
