
     RDKit          3D

 33 34  0  0  0  0  0  0  0  0999 V2000
   -3.6040   -1.1744   -0.5048 C   0  0  0  0  0  0  0  0  0  0  0  0
   -2.1628   -1.1379   -0.0112 C   0  0  0  0  0  0  0  0  0  0  0  0
   -1.6205    0.2278   -0.1719 N   0  0  0  0  0  0  0  0  0  0  0  0
   -1.8955    1.1170    0.9794 C   0  0  0  0  0  0  0  0  0  0  0  0
   -1.8209    2.5834    0.5739 C   0  0  0  0  0  0  0  0  0  0  0  0
   -0.2207    0.1910   -0.4887 C   0  0  0  0  0  0  0  0  0  0  0  0
    0.1251    0.8184   -1.7017 C   0  0  0  0  0  0  0  0  0  0  0  0
    1.4404    0.8552   -2.1302 C   0  0  0  0  0  0  0  0  0  0  0  0
    2.4133    0.2497   -1.3340 C   0  0  0  0  0  0  0  0  0  0  0  0
    3.7765    0.3031   -1.8288 N   0  0  0  0  0  4  0  0  0  0  0  0
    4.3290   -0.7730   -2.0926 O   0  0  0  0  0  0  0  0  0  0  0  0
    4.2800    1.4257   -1.9674 O   0  0  0  0  0  1  0  0  0  0  0  0
    2.1194   -0.3910   -0.1019 C   0  0  0  0  0  0  0  0  0  0  0  0
    3.0858   -0.9954    0.7423 C   0  0  0  0  0  0  0  0  0  0  0  0
    2.7152   -1.6034    1.9330 C   0  0  0  0  0  0  0  0  0  0  0  0
    1.3817   -1.5940    2.2621 C   0  0  0  0  0  0  0  0  0  0  0  0
    0.4304   -1.0255    1.4940 N   0  0  0  0  0  0  0  0  0  0  0  0
    0.7712   -0.4238    0.3274 C   0  0  0  0  0  0  0  0  0  0  0  0
   -4.0056   -2.1895   -0.4263 H   0  0  0  0  0  0  0  0  0  0  0  0
   -3.6653   -0.8619   -1.5527 H   0  0  0  0  0  0  0  0  0  0  0  0
   -4.2475   -0.5100    0.0801 H   0  0  0  0  0  0  0  0  0  0  0  0
   -2.1258   -1.4633    1.0354 H   0  0  0  0  0  0  0  0  0  0  0  0
   -1.5958   -1.8647   -0.6079 H   0  0  0  0  0  0  0  0  0  0  0  0
   -1.2296    0.9255    1.8283 H   0  0  0  0  0  0  0  0  0  0  0  0
   -2.9140    0.9325    1.3418 H   0  0  0  0  0  0  0  0  0  0  0  0
   -0.8016    2.8762    0.3039 H   0  0  0  0  0  0  0  0  0  0  0  0
   -2.4710    2.7874   -0.2834 H   0  0  0  0  0  0  0  0  0  0  0  0
   -2.1405    3.2207    1.4046 H   0  0  0  0  0  0  0  0  0  0  0  0
   -0.6568    1.2778   -2.3036 H   0  0  0  0  0  0  0  0  0  0  0  0
    1.6947    1.3447   -3.0671 H   0  0  0  0  0  0  0  0  0  0  0  0
    4.1424   -1.0033    0.4802 H   0  0  0  0  0  0  0  0  0  0  0  0
    3.4486   -2.0709    2.5800 H   0  0  0  0  0  0  0  0  0  0  0  0
    1.0241   -2.0541    3.1787 H   0  0  0  0  0  0  0  0  0  0  0  0
  1  2  1  0
  2  3  1  0
  3  4  1  0
  4  5  1  0
  3  6  1  0
  6  7  2  0
  7  8  1  0
  8  9  2  0
  9 10  1  0
 10 11  2  0
 10 12  1  0
  9 13  1  0
 13 14  2  0
 14 15  1  0
 15 16  2  0
 16 17  1  0
 17 18  2  0
 18  6  1  0
 18 13  1  0
  1 19  1  0
  1 20  1  0
  1 21  1  0
  2 22  1  0
  2 23  1  0
  4 24  1  0
  4 25  1  0
  5 26  1  0
  5 27  1  0
  5 28  1  0
  7 29  1  0
  8 30  1  0
 14 31  1  0
 15 32  1  0
 16 33  1  0
M  CHG  2  10   1  12  -1
M  END
$$$$
