
     RDKit          3D

 85 88  0  0  0  0  0  0  0  0999 V2000
    9.7608   -5.6734    0.4543 C   0  0  0  0  0  0  0  0  0  0  0  0
    8.5509   -5.6634    1.2017 O   0  0  0  0  0  0  0  0  0  0  0  0
    7.7228   -4.5906    1.0164 C   0  0  0  0  0  0  0  0  0  0  0  0
    6.5520   -4.6173    1.7764 C   0  0  0  0  0  0  0  0  0  0  0  0
    5.6178   -3.5809    1.6796 C   0  0  0  0  0  0  0  0  0  0  0  0
    5.8497   -2.4932    0.8313 C   0  0  0  0  0  0  0  0  0  0  0  0
    4.8579   -1.4942    0.7735 N   0  0  0  0  0  0  0  0  0  0  0  0
    4.9471   -0.2510    0.1645 C   0  0  0  0  0  0  0  0  0  0  0  0
    5.9668    0.2236   -0.3184 O   0  0  0  0  0  0  0  0  0  0  0  0
    3.7141    0.3767    0.1863 N   0  0  0  0  0  0  0  0  0  0  0  0
    3.3839    1.6892   -0.2291 C   0  0  0  0  0  0  0  0  0  0  0  0
    4.3529    2.6472   -0.5366 C   0  0  0  0  0  0  0  0  0  0  0  0
    3.9721    3.9288   -0.9176 C   0  0  0  0  0  0  0  0  0  0  0  0
    2.6213    4.2612   -0.9709 C   0  0  0  0  0  0  0  0  0  0  0  0
    1.6246    3.3221   -0.6416 C   0  0  0  0  0  0  0  0  0  0  0  0
    1.9996    2.0124   -0.2923 C   0  0  0  0  0  0  0  0  0  0  0  0
    1.2094    0.9299    0.0208 O   0  0  0  0  0  0  0  0  0  0  0  0
   -0.2157    0.9978   -0.0615 C   0  0  0  0  0  0  0  0  0  0  0  0
   -0.7224   -0.4124   -0.4484 C   0  0  0  0  0  0  0  0  0  0  0  0
   -2.1142   -0.4222   -0.9085 N   0  0  0  0  0  0  0  0  0  0  0  0
   -2.3598   -0.0081   -2.2867 C   0  0  0  0  0  0  0  0  0  0  0  0
   -3.0987   -0.8436   -0.0293 C   0  0  0  0  0  0  0  0  0  0  0  0
   -2.8671   -1.1073    1.1465 O   0  0  0  0  0  0  0  0  0  0  0  0
   -4.3590   -0.9217   -0.5624 N   0  0  0  0  0  0  0  0  0  0  0  0
   -5.4843   -1.4392    0.2130 C   0  0  0  0  0  0  0  0  0  0  0  0
   -5.5030   -2.9800    0.1956 C   0  0  0  0  0  0  0  0  0  0  0  0
   -6.3361   -3.5198   -0.9626 C   0  0  0  0  0  0  0  0  0  0  0  0
   -7.7957   -3.0707   -0.8724 C   0  0  0  0  0  0  0  0  0  0  0  0
   -7.9833   -1.7532   -0.1188 C   0  0  0  0  0  0  0  0  0  0  0  0
   -6.7930   -0.8240   -0.3134 C   0  0  0  0  0  0  0  0  0  0  0  0
   -0.7851    1.5342    1.2761 C   0  0  0  0  0  0  0  0  0  0  0  0
   -0.3479    0.7120    2.4956 C   0  0  0  0  0  0  0  0  0  0  0  0
   -0.3567    2.9949    1.5107 C   0  0  0  0  0  0  0  0  0  0  0  0
   -0.6271    3.8267    0.3394 N   0  0  0  0  0  0  0  0  0  0  0  0
   -1.9874    4.4213    0.2377 C   0  0  0  0  0  0  0  0  0  0  0  0
   -1.9273    5.9434    0.0799 C   0  0  0  0  0  0  0  0  0  0  0  0
   -2.8877    3.7467   -0.8238 C   0  0  0  0  0  0  0  0  0  0  0  0
   -2.6491    4.1715   -2.1586 O   0  0  0  0  0  0  0  0  0  0  0  0
    0.2487    3.8755   -0.7476 C   0  0  0  0  0  0  0  0  0  0  0  0
   -0.0627    4.3949   -1.8198 O   0  0  0  0  0  0  0  0  0  0  0  0
    7.0200   -2.4708    0.0710 C   0  0  0  0  0  0  0  0  0  0  0  0
    7.9533   -3.5130    0.1646 C   0  0  0  0  0  0  0  0  0  0  0  0
   10.3198   -6.5712    0.7363 H   0  0  0  0  0  0  0  0  0  0  0  0
    9.5579   -5.7333   -0.6210 H   0  0  0  0  0  0  0  0  0  0  0  0
   10.3835   -4.8039    0.6929 H   0  0  0  0  0  0  0  0  0  0  0  0
    6.3607   -5.4544    2.4429 H   0  0  0  0  0  0  0  0  0  0  0  0
    4.7169   -3.6383    2.2859 H   0  0  0  0  0  0  0  0  0  0  0  0
    4.0469   -1.6406    1.3534 H   0  0  0  0  0  0  0  0  0  0  0  0
    2.9077   -0.2062    0.3634 H   0  0  0  0  0  0  0  0  0  0  0  0
    5.4147    2.4242   -0.4861 H   0  0  0  0  0  0  0  0  0  0  0  0
    4.7272    4.6671   -1.1726 H   0  0  0  0  0  0  0  0  0  0  0  0
    2.3416    5.2703   -1.2711 H   0  0  0  0  0  0  0  0  0  0  0  0
   -0.5089    1.6298   -0.9016 H   0  0  0  0  0  0  0  0  0  0  0  0
   -0.5839   -1.1166    0.3791 H   0  0  0  0  0  0  0  0  0  0  0  0
   -0.1060   -0.8149   -1.2638 H   0  0  0  0  0  0  0  0  0  0  0  0
   -2.4183   -0.9049   -2.9098 H   0  0  0  0  0  0  0  0  0  0  0  0
   -3.2987    0.5476   -2.3605 H   0  0  0  0  0  0  0  0  0  0  0  0
   -1.5498    0.6321   -2.6478 H   0  0  0  0  0  0  0  0  0  0  0  0
   -4.3976   -1.0971   -1.5543 H   0  0  0  0  0  0  0  0  0  0  0  0
   -5.3408   -1.1210    1.2539 H   0  0  0  0  0  0  0  0  0  0  0  0
   -4.4872   -3.3898    0.1441 H   0  0  0  0  0  0  0  0  0  0  0  0
   -5.9372   -3.3443    1.1363 H   0  0  0  0  0  0  0  0  0  0  0  0
   -5.9054   -3.1717   -1.9104 H   0  0  0  0  0  0  0  0  0  0  0  0
   -6.2908   -4.6157   -0.9853 H   0  0  0  0  0  0  0  0  0  0  0  0
   -8.3940   -3.8454   -0.3781 H   0  0  0  0  0  0  0  0  0  0  0  0
   -8.1979   -2.9779   -1.8894 H   0  0  0  0  0  0  0  0  0  0  0  0
   -8.1111   -1.9588    0.9519 H   0  0  0  0  0  0  0  0  0  0  0  0
   -8.9052   -1.2649   -0.4545 H   0  0  0  0  0  0  0  0  0  0  0  0
   -6.9758    0.1328    0.1943 H   0  0  0  0  0  0  0  0  0  0  0  0
   -6.7061   -0.5875   -1.3831 H   0  0  0  0  0  0  0  0  0  0  0  0
   -1.8804    1.5120    1.2225 H   0  0  0  0  0  0  0  0  0  0  0  0
   -0.7038   -0.3199    2.4397 H   0  0  0  0  0  0  0  0  0  0  0  0
   -0.7559    1.1426    3.4165 H   0  0  0  0  0  0  0  0  0  0  0  0
    0.7414    0.6851    2.5955 H   0  0  0  0  0  0  0  0  0  0  0  0
    0.7056    3.0624    1.7691 H   0  0  0  0  0  0  0  0  0  0  0  0
   -0.8864    3.4179    2.3741 H   0  0  0  0  0  0  0  0  0  0  0  0
   -2.4751    4.2329    1.2025 H   0  0  0  0  0  0  0  0  0  0  0  0
   -1.3465    6.3906    0.8946 H   0  0  0  0  0  0  0  0  0  0  0  0
   -1.4634    6.2521   -0.8610 H   0  0  0  0  0  0  0  0  0  0  0  0
   -2.9342    6.3737    0.1105 H   0  0  0  0  0  0  0  0  0  0  0  0
   -3.9353    3.9772   -0.6073 H   0  0  0  0  0  0  0  0  0  0  0  0
   -2.7823    2.6594   -0.7886 H   0  0  0  0  0  0  0  0  0  0  0  0
   -1.6803    4.3177   -2.2504 H   0  0  0  0  0  0  0  0  0  0  0  0
    7.2319   -1.6591   -0.6195 H   0  0  0  0  0  0  0  0  0  0  0  0
    8.8404   -3.4503   -0.4580 H   0  0  0  0  0  0  0  0  0  0  0  0
  1  2  1  0
  2  3  1  0
  3  4  2  0
  4  5  1  0
  5  6  2  0
  6  7  1  0
  7  8  1  0
  8  9  2  0
  8 10  1  0
 10 11  1  0
 11 12  2  0
 12 13  1  0
 13 14  2  0
 14 15  1  0
 15 16  2  0
 16 17  1  0
 17 18  1  0
 18 19  1  0
 19 20  1  0
 20 21  1  0
 20 22  1  0
 22 23  2  0
 22 24  1  0
 24 25  1  0
 25 26  1  0
 26 27  1  0
 27 28  1  0
 28 29  1  0
 29 30  1  0
 18 31  1  0
 31 32  1  0
 31 33  1  0
 33 34  1  0
 34 35  1  0
 35 36  1  0
 35 37  1  0
 37 38  1  0
 34 39  1  0
 39 40  2  0
  6 41  1  0
 41 42  2  0
 42  3  1  0
 16 11  1  0
 30 25  1  0
 39 15  1  0
  1 43  1  0
  1 44  1  0
  1 45  1  0
  4 46  1  0
  5 47  1  0
  7 48  1  0
 10 49  1  0
 12 50  1  0
 13 51  1  0
 14 52  1  0
 18 53  1  0
 19 54  1  0
 19 55  1  0
 21 56  1  0
 21 57  1  0
 21 58  1  0
 24 59  1  0
 25 60  1  0
 26 61  1  0
 26 62  1  0
 27 63  1  0
 27 64  1  0
 28 65  1  0
 28 66  1  0
 29 67  1  0
 29 68  1  0
 30 69  1  0
 30 70  1  0
 31 71  1  0
 32 72  1  0
 32 73  1  0
 32 74  1  0
 33 75  1  0
 33 76  1  0
 35 77  1  0
 36 78  1  0
 36 79  1  0
 36 80  1  0
 37 81  1  0
 37 82  1  0
 38 83  1  0
 41 84  1  0
 42 85  1  0
M  END
$$$$
