
     RDKit          3D

 54 56  0  0  0  0  0  0  0  0999 V2000
    8.3596    2.7020   -1.8262 C   0  0  0  0  0  0  0  0  0  0  0  0
    7.5305    1.7591   -2.4937 O   0  0  0  0  0  0  0  0  0  0  0  0
    6.3887    1.3749   -1.8460 C   0  0  0  0  0  0  0  0  0  0  0  0
    5.9682    1.8145   -0.5912 C   0  0  0  0  0  0  0  0  0  0  0  0
    4.7727    1.3371   -0.0425 C   0  0  0  0  0  0  0  0  0  0  0  0
    3.9812    0.4181   -0.7427 C   0  0  0  0  0  0  0  0  0  0  0  0
    2.7045   -0.1059   -0.1354 C   0  0  0  0  0  0  0  0  0  0  0  0
    2.9697   -1.3132    0.7702 C   0  0  0  0  0  0  0  0  0  0  0  0
    1.6921   -1.8784    1.3919 C   0  0  0  0  0  0  0  0  0  0  0  0
    1.0798   -0.9744    2.3954 C   0  0  0  0  0  0  0  0  0  0  0  0
    1.6327   -0.0576    3.1579 N   0  0  0  0  0  0  0  0  0  0  0  0
    0.6155    0.4746    3.9219 N   0  0  0  0  0  0  0  0  0  0  0  0
   -0.4865   -0.1623    3.5880 C   0  0  0  0  0  0  0  0  0  0  0  0
   -2.0396    0.1564    4.2905 S   0  0  0  0  0  0  0  0  0  0  0  0
   -2.9499   -1.3473    3.8527 C   0  0  0  0  0  0  0  0  0  0  0  0
   -3.9439   -1.0860    2.7319 C   0  0  0  0  0  0  0  0  0  0  0  0
   -5.1460   -1.2496    2.9247 O   0  0  0  0  0  0  0  0  0  0  0  0
   -3.3550   -0.7202    1.5344 N   0  0  0  0  0  0  0  0  0  0  0  0
   -3.9863   -0.4357    0.2985 C   0  0  0  0  0  0  0  0  0  0  0  0
   -5.3603   -0.5830    0.0882 C   0  0  0  0  0  0  0  0  0  0  0  0
   -5.9511   -0.2926   -1.1582 C   0  0  0  0  0  0  0  0  0  0  0  0
   -7.4377   -0.4695   -1.3213 C   0  0  0  0  0  0  0  0  0  0  0  0
   -5.1465    0.1517   -2.2235 C   0  0  0  0  0  0  0  0  0  0  0  0
   -5.7330    0.4772   -3.5700 C   0  0  0  0  0  0  0  0  0  0  0  0
   -3.7691    0.3025   -2.0176 C   0  0  0  0  0  0  0  0  0  0  0  0
   -3.1986    0.0118   -0.7744 C   0  0  0  0  0  0  0  0  0  0  0  0
   -1.3200    0.2557   -0.5934 Br  0  0  0  0  0  0  0  0  0  0  0  0
   -0.2685   -1.0957    2.6056 O   0  0  0  0  0  0  0  0  0  0  0  0
    4.4095   -0.0243   -1.9984 C   0  0  0  0  0  0  0  0  0  0  0  0
    5.6034    0.4543   -2.5433 C   0  0  0  0  0  0  0  0  0  0  0  0
    9.2197    2.9060   -2.4712 H   0  0  0  0  0  0  0  0  0  0  0  0
    7.8322    3.6482   -1.6659 H   0  0  0  0  0  0  0  0  0  0  0  0
    8.7399    2.2955   -0.8832 H   0  0  0  0  0  0  0  0  0  0  0  0
    6.5448    2.5264   -0.0105 H   0  0  0  0  0  0  0  0  0  0  0  0
    4.4625    1.6887    0.9401 H   0  0  0  0  0  0  0  0  0  0  0  0
    2.0086   -0.3847   -0.9364 H   0  0  0  0  0  0  0  0  0  0  0  0
    2.2172    0.7038    0.4212 H   0  0  0  0  0  0  0  0  0  0  0  0
    3.4455   -2.1066    0.1791 H   0  0  0  0  0  0  0  0  0  0  0  0
    3.6855   -1.0453    1.5583 H   0  0  0  0  0  0  0  0  0  0  0  0
    0.9668   -2.1103    0.6035 H   0  0  0  0  0  0  0  0  0  0  0  0
    1.9322   -2.8249    1.8908 H   0  0  0  0  0  0  0  0  0  0  0  0
   -2.2996   -2.1837    3.5790 H   0  0  0  0  0  0  0  0  0  0  0  0
   -3.5146   -1.6592    4.7381 H   0  0  0  0  0  0  0  0  0  0  0  0
   -2.3513   -0.5707    1.5387 H   0  0  0  0  0  0  0  0  0  0  0  0
   -6.0096   -0.9297    0.8869 H   0  0  0  0  0  0  0  0  0  0  0  0
   -7.9032    0.4764   -1.6158 H   0  0  0  0  0  0  0  0  0  0  0  0
   -7.6477   -1.2323   -2.0777 H   0  0  0  0  0  0  0  0  0  0  0  0
   -7.9115   -0.7909   -0.3876 H   0  0  0  0  0  0  0  0  0  0  0  0
   -6.4326    1.3147   -3.4864 H   0  0  0  0  0  0  0  0  0  0  0  0
   -6.2523   -0.3943   -3.9809 H   0  0  0  0  0  0  0  0  0  0  0  0
   -4.9571    0.7638   -4.2878 H   0  0  0  0  0  0  0  0  0  0  0  0
   -3.1380    0.6514   -2.8324 H   0  0  0  0  0  0  0  0  0  0  0  0
    3.8202   -0.7425   -2.5630 H   0  0  0  0  0  0  0  0  0  0  0  0
    5.9260    0.1059   -3.5213 H   0  0  0  0  0  0  0  0  0  0  0  0
  1  2  1  0
  2  3  1  0
  3  4  2  0
  4  5  1  0
  5  6  2  0
  6  7  1  0
  7  8  1  0
  8  9  1  0
  9 10  1  0
 10 11  2  0
 11 12  1  0
 12 13  2  0
 13 14  1  0
 14 15  1  0
 15 16  1  0
 16 17  2  0
 16 18  1  0
 18 19  1  0
 19 20  2  0
 20 21  1  0
 21 22  1  0
 21 23  2  0
 23 24  1  0
 23 25  1  0
 25 26  2  0
 26 27  1  0
 13 28  1  0
  6 29  1  0
 29 30  2  0
 30  3  1  0
 28 10  1  0
 26 19  1  0
  1 31  1  0
  1 32  1  0
  1 33  1  0
  4 34  1  0
  5 35  1  0
  7 36  1  0
  7 37  1  0
  8 38  1  0
  8 39  1  0
  9 40  1  0
  9 41  1  0
 15 42  1  0
 15 43  1  0
 18 44  1  0
 20 45  1  0
 22 46  1  0
 22 47  1  0
 22 48  1  0
 24 49  1  0
 24 50  1  0
 24 51  1  0
 25 52  1  0
 29 53  1  0
 30 54  1  0
M  END
$$$$
