
     RDKit          3D

 36 35  0  0  0  0  0  0  0  0999 V2000
    3.7283    1.4968   -0.7996 C   0  0  0  0  0  0  0  0  0  0  0  0
    3.5822    0.5007   -1.9426 C   0  0  0  0  0  0  0  0  0  0  0  0
    2.5423   -0.5157   -1.6880 N   0  0  0  0  0  0  0  0  0  0  0  0
    3.0549   -1.8477   -1.3100 C   0  0  0  0  0  0  0  0  0  0  0  0
    3.7196   -1.8779    0.0579 C   0  0  0  0  0  0  0  0  0  0  0  0
    1.1756   -0.2235   -1.8867 C   0  0  0  0  0  0  0  0  0  0  0  0
    0.5711    1.1670   -2.6332 S   0  0  0  0  0  0  0  0  0  0  0  0
   -0.0193   -1.4289   -1.3692 S   0  0  0  0  0  0  0  0  0  0  0  0
   -0.0117   -1.2047    0.6838 S   0  0  0  0  0  0  0  0  0  0  0  0
   -0.9417    0.2913    0.9036 C   0  0  0  0  0  0  0  0  0  0  0  0
   -0.0876    1.6302    1.4809 S   0  0  0  0  0  0  0  0  0  0  0  0
   -2.3258    0.2676    0.6156 N   0  0  0  0  0  0  0  0  0  0  0  0
   -3.0766   -0.9709    0.3186 C   0  0  0  0  0  0  0  0  0  0  0  0
   -4.4192   -1.0826    1.0286 C   0  0  0  0  0  0  0  0  0  0  0  0
   -3.0497    1.5309    0.3722 C   0  0  0  0  0  0  0  0  0  0  0  0
   -3.6709    2.1324    1.6267 C   0  0  0  0  0  0  0  0  0  0  0  0
    4.5296    2.2085   -1.0222 H   0  0  0  0  0  0  0  0  0  0  0  0
    2.8098    2.0667   -0.6361 H   0  0  0  0  0  0  0  0  0  0  0  0
    3.9735    0.9951    0.1407 H   0  0  0  0  0  0  0  0  0  0  0  0
    3.3601    1.0331   -2.8727 H   0  0  0  0  0  0  0  0  0  0  0  0
    4.5409   -0.0043   -2.1091 H   0  0  0  0  0  0  0  0  0  0  0  0
    2.2742   -2.6088   -1.3443 H   0  0  0  0  0  0  0  0  0  0  0  0
    3.7809   -2.1451   -2.0769 H   0  0  0  0  0  0  0  0  0  0  0  0
    3.0607   -1.4835    0.8358 H   0  0  0  0  0  0  0  0  0  0  0  0
    4.6398   -1.2859    0.0654 H   0  0  0  0  0  0  0  0  0  0  0  0
    3.9888   -2.9053    0.3229 H   0  0  0  0  0  0  0  0  0  0  0  0
   -2.5049   -1.8556    0.6020 H   0  0  0  0  0  0  0  0  0  0  0  0
   -3.2264   -1.0083   -0.7664 H   0  0  0  0  0  0  0  0  0  0  0  0
   -4.2980   -0.9832    2.1119 H   0  0  0  0  0  0  0  0  0  0  0  0
   -5.1256   -0.3206    0.6871 H   0  0  0  0  0  0  0  0  0  0  0  0
   -4.8701   -2.0593    0.8249 H   0  0  0  0  0  0  0  0  0  0  0  0
   -2.3689    2.2595   -0.0811 H   0  0  0  0  0  0  0  0  0  0  0  0
   -3.8265    1.3496   -0.3799 H   0  0  0  0  0  0  0  0  0  0  0  0
   -4.4144    1.4667    2.0719 H   0  0  0  0  0  0  0  0  0  0  0  0
   -4.1723    3.0737    1.3798 H   0  0  0  0  0  0  0  0  0  0  0  0
   -2.9227    2.3420    2.3955 H   0  0  0  0  0  0  0  0  0  0  0  0
  1  2  1  0
  2  3  1  0
  3  4  1  0
  4  5  1  0
  3  6  1  0
  6  7  2  0
  6  8  1  0
  8  9  1  0
  9 10  1  0
 10 11  2  0
 10 12  1  0
 12 13  1  0
 13 14  1  0
 12 15  1  0
 15 16  1  0
  1 17  1  0
  1 18  1  0
  1 19  1  0
  2 20  1  0
  2 21  1  0
  4 22  1  0
  4 23  1  0
  5 24  1  0
  5 25  1  0
  5 26  1  0
 13 27  1  0
 13 28  1  0
 14 29  1  0
 14 30  1  0
 14 31  1  0
 15 32  1  0
 15 33  1  0
 16 34  1  0
 16 35  1  0
 16 36  1  0
M  END
$$$$
