
     RDKit          3D

 56 58  0  0  0  0  0  0  0  0999 V2000
    1.2606    3.7162    1.9056 C   0  0  0  0  0  0  0  0  0  0  0  0
    1.9383    2.6515    1.2497 O   0  0  0  0  0  0  0  0  0  0  0  0
    1.1844    1.8572    0.4313 C   0  0  0  0  0  0  0  0  0  0  0  0
   -0.2141    1.7923    0.4433 C   0  0  0  0  0  0  0  0  0  0  0  0
   -0.8958    0.9335   -0.4359 C   0  0  0  0  0  0  0  0  0  0  0  0
   -2.3590    0.8536   -0.4368 C   0  0  0  0  0  0  0  0  0  0  0  0
   -3.1170    1.9186   -0.7369 C   0  0  0  0  0  0  0  0  0  0  0  0
   -4.6024    1.9381   -0.7793 C   0  0  0  0  0  0  0  0  0  0  0  0
   -5.2030    2.9732   -1.0491 O   0  0  0  0  0  0  0  0  0  0  0  0
   -5.3672    0.7250   -0.4524 C   0  0  0  0  0  0  0  0  0  0  0  0
   -5.4868   -0.3232   -1.3861 C   0  0  0  0  0  0  0  0  0  0  0  0
   -4.8100   -0.1709   -2.5666 O   0  0  0  0  0  0  0  0  0  0  0  0
   -5.0767   -1.0984   -3.6105 C   0  0  0  0  0  0  0  0  0  0  0  0
   -6.2583   -1.4495   -1.0562 C   0  0  0  0  0  0  0  0  0  0  0  0
   -6.9160   -1.5275    0.1758 C   0  0  0  0  0  0  0  0  0  0  0  0
   -6.7892   -0.4751    1.0695 C   0  0  0  0  0  0  0  0  0  0  0  0
   -7.4321   -0.5235    2.3033 O   0  0  0  0  0  0  0  0  0  0  0  0
   -7.1199    0.6511    2.9815 C   0  0  0  0  0  0  0  0  0  0  0  0
   -7.5428    0.8933    4.1027 O   0  0  0  0  0  0  0  0  0  0  0  0
   -6.0565    1.7674    2.1234 S   0  0  0  0  0  0  0  0  0  0  0  0
   -6.0246    0.6460    0.7709 C   0  0  0  0  0  0  0  0  0  0  0  0
   -0.1720    0.1223   -1.3186 C   0  0  0  0  0  0  0  0  0  0  0  0
    1.2205    0.1841   -1.3426 C   0  0  0  0  0  0  0  0  0  0  0  0
    1.8890    1.0363   -0.4630 C   0  0  0  0  0  0  0  0  0  0  0  0
    3.2559    1.1032   -0.5743 O   0  0  0  0  0  0  0  0  0  0  0  0
    3.8862    0.2249    0.3736 C   0  0  0  0  0  0  0  0  0  0  0  0
    5.1608   -0.3024   -0.2870 C   0  0  0  0  0  0  0  0  0  0  0  0
    5.9136   -1.2803    0.6194 C   0  0  0  0  0  0  0  0  0  0  0  0
    7.1737   -1.7594    0.0140 N   0  0  0  0  0  0  0  0  0  0  0  0
    7.9797   -2.4752    1.0091 C   0  0  0  0  0  0  0  0  0  0  0  0
    6.9337   -2.6314   -1.1433 C   0  0  0  0  0  0  0  0  0  0  0  0
    0.5977    3.3322    2.6892 H   0  0  0  0  0  0  0  0  0  0  0  0
    2.0145    4.3462    2.3882 H   0  0  0  0  0  0  0  0  0  0  0  0
    0.7122    4.3400    1.1927 H   0  0  0  0  0  0  0  0  0  0  0  0
   -0.7952    2.3949    1.1340 H   0  0  0  0  0  0  0  0  0  0  0  0
   -2.7739   -0.1245   -0.2166 H   0  0  0  0  0  0  0  0  0  0  0  0
   -2.6686    2.8779   -0.9827 H   0  0  0  0  0  0  0  0  0  0  0  0
   -4.6986   -2.0942   -3.3546 H   0  0  0  0  0  0  0  0  0  0  0  0
   -4.5417   -0.7575   -4.5006 H   0  0  0  0  0  0  0  0  0  0  0  0
   -6.1431   -1.1296   -3.8529 H   0  0  0  0  0  0  0  0  0  0  0  0
   -6.3665   -2.2859   -1.7407 H   0  0  0  0  0  0  0  0  0  0  0  0
   -7.5165   -2.3974    0.4265 H   0  0  0  0  0  0  0  0  0  0  0  0
   -0.6851   -0.5466   -2.0068 H   0  0  0  0  0  0  0  0  0  0  0  0
    1.7869   -0.4243   -2.0451 H   0  0  0  0  0  0  0  0  0  0  0  0
    3.2367   -0.6186    0.6455 H   0  0  0  0  0  0  0  0  0  0  0  0
    4.1252    0.7953    1.2813 H   0  0  0  0  0  0  0  0  0  0  0  0
    4.8724   -0.7795   -1.2331 H   0  0  0  0  0  0  0  0  0  0  0  0
    5.8082    0.5423   -0.5599 H   0  0  0  0  0  0  0  0  0  0  0  0
    5.2619   -2.1265    0.8814 H   0  0  0  0  0  0  0  0  0  0  0  0
    6.1441   -0.7535    1.5568 H   0  0  0  0  0  0  0  0  0  0  0  0
    7.4550   -3.3493    1.4143 H   0  0  0  0  0  0  0  0  0  0  0  0
    8.9284   -2.8140    0.5681 H   0  0  0  0  0  0  0  0  0  0  0  0
    8.2479   -1.8127    1.8428 H   0  0  0  0  0  0  0  0  0  0  0  0
    6.4320   -2.0921   -1.9531 H   0  0  0  0  0  0  0  0  0  0  0  0
    6.3267   -3.5073   -0.8799 H   0  0  0  0  0  0  0  0  0  0  0  0
    7.8862   -2.9861   -1.5625 H   0  0  0  0  0  0  0  0  0  0  0  0
  1  2  1  0
  2  3  1  0
  3  4  2  0
  4  5  1  0
  5  6  1  0
  6  7  2  0
  7  8  1  0
  8  9  2  0
  8 10  1  0
 10 11  2  0
 11 12  1  0
 12 13  1  0
 11 14  1  0
 14 15  2  0
 15 16  1  0
 16 17  1  0
 17 18  1  0
 18 19  2  0
 18 20  1  0
 20 21  1  0
  5 22  2  0
 22 23  1  0
 23 24  2  0
 24 25  1  0
 25 26  1  0
 26 27  1  0
 27 28  1  0
 28 29  1  0
 29 30  1  0
 29 31  1  0
 24  3  1  0
 21 10  1  0
 21 16  2  0
  1 32  1  0
  1 33  1  0
  1 34  1  0
  4 35  1  0
  6 36  1  0
  7 37  1  0
 13 38  1  0
 13 39  1  0
 13 40  1  0
 14 41  1  0
 15 42  1  0
 22 43  1  0
 23 44  1  0
 26 45  1  0
 26 46  1  0
 27 47  1  0
 27 48  1  0
 28 49  1  0
 28 50  1  0
 30 51  1  0
 30 52  1  0
 30 53  1  0
 31 54  1  0
 31 55  1  0
 31 56  1  0
M  END
$$$$
