
     RDKit          3D

 32 34  0  0  0  0  0  0  0  0999 V2000
    0.2503    2.4316    0.7975 O   0  0  0  0  0  0  0  0  0  0  0  0
   -0.2692    1.4131    0.3500 C   0  0  0  0  0  0  0  0  0  0  0  0
   -1.7932    1.3240    0.2200 C   0  0  0  0  0  0  0  0  0  0  0  0
   -2.1902    0.0667   -0.3169 O   0  0  0  0  0  0  0  0  0  0  0  0
   -3.5296   -0.1510   -0.4878 C   0  0  0  0  0  0  0  0  0  0  0  0
   -4.5496    0.7521   -0.1823 C   0  0  0  0  0  0  0  0  0  0  0  0
   -5.8866    0.4007   -0.4076 C   0  0  0  0  0  0  0  0  0  0  0  0
   -6.2032   -0.8509   -0.9372 C   0  0  0  0  0  0  0  0  0  0  0  0
   -8.0108   -1.3127   -1.2364 Br  0  0  0  0  0  0  0  0  0  0  0  0
   -5.1977   -1.7593   -1.2459 C   0  0  0  0  0  0  0  0  0  0  0  0
   -3.8729   -1.4007   -1.0184 C   0  0  0  0  0  0  0  0  0  0  0  0
   -2.9080   -2.2836   -1.3190 F   0  0  0  0  0  0  0  0  0  0  0  0
    0.3720    0.2735   -0.0758 N   0  0  0  0  0  0  0  0  0  0  0  0
    1.7202    0.0300   -0.0922 C   0  0  0  0  0  0  0  0  0  0  0  0
    2.2230   -1.1061   -0.5255 N   0  0  0  0  0  0  0  0  0  0  0  0
    3.6032   -1.1277   -0.4501 N   0  0  0  0  0  0  0  0  0  0  0  0
    4.0727   -0.0048    0.0451 C   0  0  0  0  0  0  0  0  0  0  0  0
    5.5998    0.2478    0.2340 C   0  0  0  0  0  0  0  0  0  0  0  0
    6.1734    0.2989    1.6275 C   0  0  0  0  0  0  0  0  0  0  0  0
    6.4733   -0.8727    0.7389 C   0  0  0  0  0  0  0  0  0  0  0  0
    2.8847    1.1571    0.4378 S   0  0  0  0  0  0  0  0  0  0  0  0
   -2.2093    1.4541    1.2257 H   0  0  0  0  0  0  0  0  0  0  0  0
   -2.1066    2.1357   -0.4466 H   0  0  0  0  0  0  0  0  0  0  0  0
   -4.3465    1.7352    0.2310 H   0  0  0  0  0  0  0  0  0  0  0  0
   -6.6738    1.1119   -0.1660 H   0  0  0  0  0  0  0  0  0  0  0  0
   -5.4207   -2.7377   -1.6584 H   0  0  0  0  0  0  0  0  0  0  0  0
   -0.1994   -0.4908   -0.4226 H   0  0  0  0  0  0  0  0  0  0  0  0
    6.0312    0.9076   -0.5111 H   0  0  0  0  0  0  0  0  0  0  0  0
    5.5138    0.1339    2.4721 H   0  0  0  0  0  0  0  0  0  0  0  0
    6.9697    1.0084    1.8203 H   0  0  0  0  0  0  0  0  0  0  0  0
    6.0087   -1.8243    0.9740 H   0  0  0  0  0  0  0  0  0  0  0  0
    7.4711   -0.9598    0.3252 H   0  0  0  0  0  0  0  0  0  0  0  0
  1  2  2  0
  2  3  1  0
  3  4  1  0
  4  5  1  0
  5  6  2  0
  6  7  1  0
  7  8  2  0
  8  9  1  0
  8 10  1  0
 10 11  2  0
 11 12  1  0
  2 13  1  0
 13 14  1  0
 14 15  2  0
 15 16  1  0
 16 17  2  0
 17 18  1  0
 18 19  1  0
 19 20  1  0
 17 21  1  0
 11  5  1  0
 21 14  1  0
 20 18  1  0
  3 22  1  0
  3 23  1  0
  6 24  1  0
  7 25  1  0
 10 26  1  0
 13 27  1  0
 18 28  1  0
 19 29  1  0
 19 30  1  0
 20 31  1  0
 20 32  1  0
M  END
$$$$
