
     RDKit          3D

 62 65  0  0  0  0  0  0  0  0999 V2000
   -4.1935   -3.0661   -0.0489 C   0  0  0  0  0  0  0  0  0  0  0  0
   -4.2149   -1.7943   -0.8834 C   0  0  0  0  0  0  0  0  0  0  0  0
   -3.8158   -0.6403   -0.0857 N   0  0  0  0  0  0  0  0  0  0  0  0
   -2.5182   -0.1519    0.1661 C   0  0  0  0  0  0  0  0  0  0  0  0
   -1.3907   -0.6695   -0.3666 C   0  0  0  0  0  0  0  0  0  0  0  0
   -0.0214   -0.2318   -0.1799 C   0  0  0  0  0  0  0  0  0  0  0  0
    1.0141   -0.8587   -0.7568 C   0  0  0  0  0  0  0  0  0  0  0  0
    2.4462   -0.4732   -0.6329 C   0  0  0  0  0  0  0  0  0  0  0  0
    3.4284   -1.1601   -1.1493 N   0  0  0  0  0  4  0  0  0  0  0  0
    3.4126   -2.4443   -1.8825 C   0  0  0  0  0  0  0  0  0  0  0  0
    3.3144   -2.1862   -3.3744 C   0  0  0  0  0  0  0  0  0  0  0  0
    4.7097   -0.4798   -0.8928 C   0  0  0  0  0  0  0  0  0  0  0  0
    5.9852   -0.8475   -1.2877 C   0  0  0  0  0  0  0  0  0  0  0  0
    7.0441   -0.0138   -0.9190 C   0  0  0  0  0  0  0  0  0  0  0  0
    6.8094    1.1543   -0.1770 C   0  0  0  0  0  0  0  0  0  0  0  0
    5.5143    1.5088    0.2063 C   0  0  0  0  0  0  0  0  0  0  0  0
    4.4686    0.6757   -0.1636 C   0  0  0  0  0  0  0  0  0  0  0  0
    2.9864    0.7992    0.0989 C   0  0  0  0  0  0  0  0  0  0  0  0
    2.7406    0.7446    1.6108 C   0  0  0  0  0  0  0  0  0  0  0  0
    2.4609    2.0926   -0.5317 C   0  0  0  0  0  0  0  0  0  0  0  0
   -2.6426    1.0576    1.1570 C   0  0  0  0  0  0  0  0  0  0  0  0
   -1.9295    0.8045    2.4942 C   0  0  0  0  0  0  0  0  0  0  0  0
   -2.2109    2.3865    0.5201 C   0  0  0  0  0  0  0  0  0  0  0  0
   -4.1476    1.0910    1.4023 C   0  0  0  0  0  0  0  0  0  0  0  0
   -4.8813    1.9459    2.2183 C   0  0  0  0  0  0  0  0  0  0  0  0
   -6.2620    1.7710    2.2907 C   0  0  0  0  0  0  0  0  0  0  0  0
   -6.8855    0.7545    1.5564 C   0  0  0  0  0  0  0  0  0  0  0  0
   -6.1368   -0.0986    0.7374 C   0  0  0  0  0  0  0  0  0  0  0  0
   -4.7635    0.0727    0.6581 C   0  0  0  0  0  0  0  0  0  0  0  0
   -4.8903   -3.0024    0.7930 H   0  0  0  0  0  0  0  0  0  0  0  0
   -4.4802   -3.9260   -0.6623 H   0  0  0  0  0  0  0  0  0  0  0  0
   -3.1948   -3.2566    0.3576 H   0  0  0  0  0  0  0  0  0  0  0  0
   -5.2078   -1.6530   -1.3254 H   0  0  0  0  0  0  0  0  0  0  0  0
   -3.5439   -1.9137   -1.7418 H   0  0  0  0  0  0  0  0  0  0  0  0
   -1.5069   -1.5255   -1.0281 H   0  0  0  0  0  0  0  0  0  0  0  0
    0.1221    0.6347    0.4463 H   0  0  0  0  0  0  0  0  0  0  0  0
    0.7974   -1.7213   -1.3829 H   0  0  0  0  0  0  0  0  0  0  0  0
    2.5589   -3.0343   -1.5349 H   0  0  0  0  0  0  0  0  0  0  0  0
    4.3103   -3.0166   -1.6285 H   0  0  0  0  0  0  0  0  0  0  0  0
    4.1708   -1.6123   -3.7442 H   0  0  0  0  0  0  0  0  0  0  0  0
    2.4057   -1.6286   -3.6265 H   0  0  0  0  0  0  0  0  0  0  0  0
    3.2874   -3.1358   -3.9184 H   0  0  0  0  0  0  0  0  0  0  0  0
    6.1950   -1.7401   -1.8668 H   0  0  0  0  0  0  0  0  0  0  0  0
    8.0642   -0.2656   -1.2082 H   0  0  0  0  0  0  0  0  0  0  0  0
    7.6489    1.7919    0.1006 H   0  0  0  0  0  0  0  0  0  0  0  0
    5.3470    2.4181    0.7790 H   0  0  0  0  0  0  0  0  0  0  0  0
    3.2949    1.5304    2.1372 H   0  0  0  0  0  0  0  0  0  0  0  0
    3.0550   -0.2183    2.0315 H   0  0  0  0  0  0  0  0  0  0  0  0
    1.6872    0.8775    1.8669 H   0  0  0  0  0  0  0  0  0  0  0  0
    2.5996    2.0904   -1.6197 H   0  0  0  0  0  0  0  0  0  0  0  0
    1.3945    2.2410   -0.3447 H   0  0  0  0  0  0  0  0  0  0  0  0
    2.9793    2.9734   -0.1353 H   0  0  0  0  0  0  0  0  0  0  0  0
   -2.1582    1.5899    3.2243 H   0  0  0  0  0  0  0  0  0  0  0  0
   -0.8421    0.7822    2.3889 H   0  0  0  0  0  0  0  0  0  0  0  0
   -2.2372   -0.1502    2.9383 H   0  0  0  0  0  0  0  0  0  0  0  0
   -2.7250    2.5607   -0.4331 H   0  0  0  0  0  0  0  0  0  0  0  0
   -2.4426    3.2363    1.1731 H   0  0  0  0  0  0  0  0  0  0  0  0
   -1.1360    2.4225    0.3246 H   0  0  0  0  0  0  0  0  0  0  0  0
   -4.4003    2.7323    2.7905 H   0  0  0  0  0  0  0  0  0  0  0  0
   -6.8601    2.4248    2.9212 H   0  0  0  0  0  0  0  0  0  0  0  0
   -7.9637    0.6276    1.6235 H   0  0  0  0  0  0  0  0  0  0  0  0
   -6.6496   -0.8762    0.1837 H   0  0  0  0  0  0  0  0  0  0  0  0
  1  2  1  0
  2  3  1  0
  3  4  1  0
  4  5  2  3
  5  6  1  0
  6  7  2  3
  7  8  1  0
  8  9  2  0
  9 10  1  0
 10 11  1  0
  9 12  1  0
 12 13  2  0
 13 14  1  0
 14 15  2  0
 15 16  1  0
 16 17  2  0
 17 18  1  0
 18 19  1  0
 18 20  1  0
  4 21  1  0
 21 22  1  0
 21 23  1  0
 21 24  1  0
 24 25  2  0
 25 26  1  0
 26 27  2  0
 27 28  1  0
 28 29  2  0
 29  3  1  0
 18  8  1  0
 29 24  1  0
 17 12  1  0
  1 30  1  0
  1 31  1  0
  1 32  1  0
  2 33  1  0
  2 34  1  0
  5 35  1  0
  6 36  1  0
  7 37  1  0
 10 38  1  0
 10 39  1  0
 11 40  1  0
 11 41  1  0
 11 42  1  0
 13 43  1  0
 14 44  1  0
 15 45  1  0
 16 46  1  0
 19 47  1  0
 19 48  1  0
 19 49  1  0
 20 50  1  0
 20 51  1  0
 20 52  1  0
 22 53  1  0
 22 54  1  0
 22 55  1  0
 23 56  1  0
 23 57  1  0
 23 58  1  0
 25 59  1  0
 26 60  1  0
 27 61  1  0
 28 62  1  0
M  CHG  1   9   1
M  END
$$$$
