
     RDKit          3D

 40 41  0  0  0  0  0  0  0  0999 V2000
    6.3690   -0.5341   -5.1294 C   0  0  0  0  0  0  0  0  0  0  0  0
    5.0007   -0.8924   -4.5729 C   0  0  0  0  0  0  0  0  0  0  0  0
    4.5148    0.1473   -3.5660 C   0  0  0  0  0  0  0  0  0  0  0  0
    3.1538   -0.2032   -2.9807 C   0  0  0  0  0  0  0  0  0  0  0  0
    2.5769   -1.2505   -3.2475 O   0  0  0  0  0  0  0  0  0  0  0  0
    2.6975    0.7954   -2.1340 N   0  0  0  0  0  0  0  0  0  0  0  0
    1.4933    0.8175   -1.4012 C   0  0  0  0  0  0  0  0  0  0  0  0
    1.2407    1.9520   -0.6202 C   0  0  0  0  0  0  0  0  0  0  0  0
    0.0692    2.0511    0.1379 C   0  0  0  0  0  0  0  0  0  0  0  0
   -0.8648    1.0098    0.1336 C   0  0  0  0  0  0  0  0  0  0  0  0
   -2.0960    1.1606    0.9572 C   0  0  0  0  0  0  0  0  0  0  0  0
   -2.4754    2.2705    1.3244 O   0  0  0  0  0  0  0  0  0  0  0  0
   -2.7534   -0.0037    1.3092 N   0  0  0  0  0  0  0  0  0  0  0  0
   -3.7716    0.1123    2.2726 N   0  0  0  0  0  0  0  0  0  0  0  0
   -3.8596   -0.8612    3.2539 C   0  0  0  0  0  0  0  0  0  0  0  0
   -3.2146   -1.9076    3.1552 O   0  0  0  0  0  0  0  0  0  0  0  0
   -4.7329   -0.5661    4.3806 C   0  0  0  0  0  0  0  0  0  0  0  0
   -4.9889   -1.3892    5.4636 C   0  0  0  0  0  0  0  0  0  0  0  0
   -5.8961   -0.8066    6.3951 C   0  0  0  0  0  0  0  0  0  0  0  0
   -6.3020    0.4473    5.9997 C   0  0  0  0  0  0  0  0  0  0  0  0
   -5.5905    0.9124    4.5171 S   0  0  0  0  0  0  0  0  0  0  0  0
   -0.6226   -0.1197   -0.6536 C   0  0  0  0  0  0  0  0  0  0  0  0
    0.5520   -0.2132   -1.4130 C   0  0  0  0  0  0  0  0  0  0  0  0
    6.6854   -1.2790   -5.8657 H   0  0  0  0  0  0  0  0  0  0  0  0
    6.3507    0.4444   -5.6209 H   0  0  0  0  0  0  0  0  0  0  0  0
    7.1199   -0.5037   -4.3329 H   0  0  0  0  0  0  0  0  0  0  0  0
    4.2835   -0.9747   -5.3984 H   0  0  0  0  0  0  0  0  0  0  0  0
    5.0526   -1.8798   -4.0981 H   0  0  0  0  0  0  0  0  0  0  0  0
    5.2302    0.2274   -2.7385 H   0  0  0  0  0  0  0  0  0  0  0  0
    4.4416    1.1278   -4.0518 H   0  0  0  0  0  0  0  0  0  0  0  0
    3.2916    1.6083   -2.0336 H   0  0  0  0  0  0  0  0  0  0  0  0
    1.9473    2.7780   -0.5888 H   0  0  0  0  0  0  0  0  0  0  0  0
   -0.1100    2.9439    0.7341 H   0  0  0  0  0  0  0  0  0  0  0  0
   -2.2756   -0.9044    1.2989 H   0  0  0  0  0  0  0  0  0  0  0  0
   -4.1199    1.0550    2.4462 H   0  0  0  0  0  0  0  0  0  0  0  0
   -4.5405   -2.3706    5.5746 H   0  0  0  0  0  0  0  0  0  0  0  0
   -6.2314   -1.2844    7.3079 H   0  0  0  0  0  0  0  0  0  0  0  0
   -6.9829    1.1150    6.5103 H   0  0  0  0  0  0  0  0  0  0  0  0
   -1.3379   -0.9351   -0.7153 H   0  0  0  0  0  0  0  0  0  0  0  0
    0.6957   -1.1095   -2.0097 H   0  0  0  0  0  0  0  0  0  0  0  0
  1  2  1  0
  2  3  1  0
  3  4  1  0
  4  5  2  0
  4  6  1  0
  6  7  1  0
  7  8  2  0
  8  9  1  0
  9 10  2  0
 10 11  1  0
 11 12  2  0
 11 13  1  0
 13 14  1  0
 14 15  1  0
 15 16  2  0
 15 17  1  0
 17 18  2  0
 18 19  1  0
 19 20  2  0
 20 21  1  0
 10 22  1  0
 22 23  2  0
 23  7  1  0
 21 17  1  0
  1 24  1  0
  1 25  1  0
  1 26  1  0
  2 27  1  0
  2 28  1  0
  3 29  1  0
  3 30  1  0
  6 31  1  0
  8 32  1  0
  9 33  1  0
 13 34  1  0
 14 35  1  0
 18 36  1  0
 19 37  1  0
 20 38  1  0
 22 39  1  0
 23 40  1  0
M  END
$$$$
