
     RDKit          3D

 49 52  0  0  0  0  0  0  0  0999 V2000
    3.7687   -3.0196    0.1149 C   0  0  0  0  0  0  0  0  0  0  0  0
    4.8742   -2.1079    0.5770 C   0  0  0  0  0  0  0  0  0  0  0  0
    6.2045   -2.5266    0.3826 C   0  0  0  0  0  0  0  0  0  0  0  0
    7.2674   -1.7207    0.7831 C   0  0  0  0  0  0  0  0  0  0  0  0
    8.8850   -2.2491    0.5364 Cl  0  0  0  0  0  0  0  0  0  0  0  0
    7.0239   -0.4931    1.3831 C   0  0  0  0  0  0  0  0  0  0  0  0
    5.7074   -0.0626    1.5783 C   0  0  0  0  0  0  0  0  0  0  0  0
    4.6225   -0.8534    1.1785 C   0  0  0  0  0  0  0  0  0  0  0  0
    3.2825   -0.4482    1.3664 N   0  0  0  0  0  0  0  0  0  0  0  0
    2.8113    0.7737    1.8278 C   0  0  0  0  0  0  0  0  0  0  0  0
    3.4929    1.7435    2.1478 O   0  0  0  0  0  0  0  0  0  0  0  0
    1.2967    0.8118    1.9640 C   0  0  0  0  0  0  0  0  0  0  0  0
    0.5058    0.4915    0.3529 S   0  0  0  0  0  0  0  0  0  0  0  0
   -1.1570    0.5403    0.8246 C   0  0  0  0  0  0  0  0  0  0  0  0
   -1.5992    0.5376    2.0585 N   0  0  0  0  0  0  0  0  0  0  0  0
   -2.9679    0.5854    2.0119 N   0  0  0  0  0  0  0  0  0  0  0  0
   -3.3380    0.6186    0.7448 C   0  0  0  0  0  0  0  0  0  0  0  0
   -4.7494    0.6866    0.2583 C   0  0  0  0  0  0  0  0  0  0  0  0
   -5.1447    2.0665   -0.1940 C   0  0  0  0  0  0  0  0  0  0  0  0
   -4.9023    3.2819    0.4195 C   0  0  0  0  0  0  0  0  0  0  0  0
   -5.4390    4.3787   -0.3129 C   0  0  0  0  0  0  0  0  0  0  0  0
   -6.0862    3.9667   -1.4553 C   0  0  0  0  0  0  0  0  0  0  0  0
   -6.0486    2.2675   -1.6373 S   0  0  0  0  0  0  0  0  0  0  0  0
   -2.2103    0.5788   -0.0486 N   0  0  0  0  0  0  0  0  0  0  0  0
   -2.1600    0.6193   -1.4980 C   0  0  0  0  0  0  0  0  0  0  0  0
   -2.2033   -0.7515   -2.0628 C   0  0  0  0  0  0  0  0  0  0  0  0
   -1.2402   -1.7006   -2.3476 C   0  0  0  0  0  0  0  0  0  0  0  0
   -1.9269   -2.8233   -2.8700 C   0  0  0  0  0  0  0  0  0  0  0  0
   -3.2603   -2.4849   -2.8827 C   0  0  0  0  0  0  0  0  0  0  0  0
   -3.4367   -1.2280   -2.3993 O   0  0  0  0  0  0  0  0  0  0  0  0
    3.1143   -3.2802    0.9521 H   0  0  0  0  0  0  0  0  0  0  0  0
    3.1845   -2.5369   -0.6738 H   0  0  0  0  0  0  0  0  0  0  0  0
    4.1605   -3.9573   -0.2935 H   0  0  0  0  0  0  0  0  0  0  0  0
    6.4134   -3.4856   -0.0857 H   0  0  0  0  0  0  0  0  0  0  0  0
    7.8467    0.1404    1.7042 H   0  0  0  0  0  0  0  0  0  0  0  0
    5.5673    0.9014    2.0579 H   0  0  0  0  0  0  0  0  0  0  0  0
    2.5652   -1.0967    1.0669 H   0  0  0  0  0  0  0  0  0  0  0  0
    1.0015    1.8034    2.3230 H   0  0  0  0  0  0  0  0  0  0  0  0
    0.9959    0.0611    2.7025 H   0  0  0  0  0  0  0  0  0  0  0  0
   -5.4192    0.3914    1.0772 H   0  0  0  0  0  0  0  0  0  0  0  0
   -4.9006   -0.0523   -0.5362 H   0  0  0  0  0  0  0  0  0  0  0  0
   -4.3610    3.3808    1.3548 H   0  0  0  0  0  0  0  0  0  0  0  0
   -5.3612    5.4164   -0.0122 H   0  0  0  0  0  0  0  0  0  0  0  0
   -6.5896    4.5821   -2.1895 H   0  0  0  0  0  0  0  0  0  0  0  0
   -2.9983    1.2187   -1.8610 H   0  0  0  0  0  0  0  0  0  0  0  0
   -1.2519    1.1452   -1.8071 H   0  0  0  0  0  0  0  0  0  0  0  0
   -0.1744   -1.5999   -2.1935 H   0  0  0  0  0  0  0  0  0  0  0  0
   -1.5047   -3.7641   -3.1988 H   0  0  0  0  0  0  0  0  0  0  0  0
   -4.1612   -2.9992   -3.1890 H   0  0  0  0  0  0  0  0  0  0  0  0
  1  2  1  0
  2  3  2  0
  3  4  1  0
  4  5  1  0
  4  6  2  0
  6  7  1  0
  7  8  2  0
  8  9  1  0
  9 10  1  0
 10 11  2  0
 10 12  1  0
 12 13  1  0
 13 14  1  0
 14 15  2  0
 15 16  1  0
 16 17  2  0
 17 18  1  0
 18 19  1  0
 19 20  2  0
 20 21  1  0
 21 22  2  0
 22 23  1  0
 17 24  1  0
 24 25  1  0
 25 26  1  0
 26 27  2  0
 27 28  1  0
 28 29  2  0
 29 30  1  0
  8  2  1  0
 24 14  1  0
 30 26  1  0
 23 19  1  0
  1 31  1  0
  1 32  1  0
  1 33  1  0
  3 34  1  0
  6 35  1  0
  7 36  1  0
  9 37  1  0
 12 38  1  0
 12 39  1  0
 18 40  1  0
 18 41  1  0
 20 42  1  0
 21 43  1  0
 22 44  1  0
 25 45  1  0
 25 46  1  0
 27 47  1  0
 28 48  1  0
 29 49  1  0
M  END
$$$$
