
     RDKit          3D

 59 64  0  0  0  0  0  0  0  0999 V2000
   -4.5805    2.4052   -2.3544 C   0  0  0  0  0  0  0  0  0  0  0  0
   -5.4242    1.6013   -1.4339 C   0  0  0  0  0  0  0  0  0  0  0  0
   -6.6968    1.3171   -1.6235 N   0  0  0  0  0  0  0  0  0  0  0  0
   -7.0812    0.5703   -0.5395 C   0  0  0  0  0  0  0  0  0  0  0  0
   -8.3328    0.0127   -0.2397 C   0  0  0  0  0  0  0  0  0  0  0  0
   -8.4789   -0.7207    0.9439 C   0  0  0  0  0  0  0  0  0  0  0  0
   -7.3995   -0.8962    1.8114 C   0  0  0  0  0  0  0  0  0  0  0  0
   -6.1431   -0.3475    1.5284 C   0  0  0  0  0  0  0  0  0  0  0  0
   -6.0194    0.3840    0.3401 C   0  0  0  0  0  0  0  0  0  0  0  0
   -4.9716    1.0490   -0.2551 N   0  0  0  0  0  0  0  0  0  0  0  0
   -3.6249    1.1429    0.2792 C   0  0  0  0  0  0  0  0  0  0  0  0
   -2.7650   -0.0463   -0.1341 C   0  0  0  0  0  0  0  0  0  0  0  0
   -1.3866    0.0258    0.4156 C   0  0  0  0  0  0  0  0  0  0  0  0
   -0.8632    1.1747    0.9600 N   0  0  0  0  0  0  0  0  0  0  0  0
    0.3580    0.8126    1.2896 C   0  0  0  0  0  0  0  0  0  0  0  0
    1.4502    1.5311    1.9091 C   0  0  0  0  0  0  0  0  0  0  0  0
    1.3563    2.8737    2.2784 C   0  0  0  0  0  0  0  0  0  0  0  0
    2.4523    3.4998    2.8719 C   0  0  0  0  0  0  0  0  0  0  0  0
    3.6324    2.7864    3.0937 C   0  0  0  0  0  0  0  0  0  0  0  0
    3.7239    1.4416    2.7238 C   0  0  0  0  0  0  0  0  0  0  0  0
    2.6386    0.7986    2.1293 C   0  0  0  0  0  0  0  0  0  0  0  0
    2.7695   -0.5684    1.7661 N   0  0  0  0  0  0  0  0  0  0  0  0
    1.7615   -1.1725    1.1964 C   0  0  0  0  0  0  0  0  0  0  0  0
    1.9835   -2.8607    0.7499 S   0  0  0  0  0  0  0  0  0  0  0  0
    1.9517   -2.6853   -1.0570 C   0  0  0  0  0  0  0  0  0  0  0  0
    2.8659   -1.5576   -1.4979 C   0  0  0  0  0  0  0  0  0  0  0  0
    2.4422   -0.4225   -1.7008 O   0  0  0  0  0  0  0  0  0  0  0  0
    4.1909   -1.9059   -1.6101 N   0  0  0  0  0  0  0  0  0  0  0  0
    5.1906   -0.8837   -1.8181 C   0  0  0  0  0  0  0  0  0  0  0  0
    6.4862   -1.5425   -2.1060 C   0  0  0  0  0  0  0  0  0  0  0  0
    7.3535   -1.5044   -3.1788 C   0  0  0  0  0  0  0  0  0  0  0  0
    8.4311   -2.3629   -2.8529 C   0  0  0  0  0  0  0  0  0  0  0  0
    8.1529   -2.8719   -1.6063 C   0  0  0  0  0  0  0  0  0  0  0  0
    6.9733   -2.3828   -1.1450 O   0  0  0  0  0  0  0  0  0  0  0  0
    0.5555   -0.5002    0.9587 N   0  0  0  0  0  0  0  0  0  0  0  0
   -0.5615   -1.0310    0.4055 N   0  0  0  0  0  0  0  0  0  0  0  0
   -3.6808    1.8546   -2.6440 H   0  0  0  0  0  0  0  0  0  0  0  0
   -4.2849    3.3466   -1.8816 H   0  0  0  0  0  0  0  0  0  0  0  0
   -5.1350    2.6469   -3.2667 H   0  0  0  0  0  0  0  0  0  0  0  0
   -9.1651    0.1544   -0.9199 H   0  0  0  0  0  0  0  0  0  0  0  0
   -9.4450   -1.1564    1.1867 H   0  0  0  0  0  0  0  0  0  0  0  0
   -7.5370   -1.4699    2.7258 H   0  0  0  0  0  0  0  0  0  0  0  0
   -5.3099   -0.4884    2.2084 H   0  0  0  0  0  0  0  0  0  0  0  0
   -3.7051    1.2156    1.3705 H   0  0  0  0  0  0  0  0  0  0  0  0
   -3.1913    2.0889   -0.0642 H   0  0  0  0  0  0  0  0  0  0  0  0
   -3.2363   -0.9791    0.2002 H   0  0  0  0  0  0  0  0  0  0  0  0
   -2.7048   -0.1019   -1.2280 H   0  0  0  0  0  0  0  0  0  0  0  0
    0.4382    3.4303    2.1045 H   0  0  0  0  0  0  0  0  0  0  0  0
    2.3880    4.5462    3.1617 H   0  0  0  0  0  0  0  0  0  0  0  0
    4.4851    3.2783    3.5560 H   0  0  0  0  0  0  0  0  0  0  0  0
    4.6453    0.8917    2.8987 H   0  0  0  0  0  0  0  0  0  0  0  0
    0.9370   -2.4864   -1.4137 H   0  0  0  0  0  0  0  0  0  0  0  0
    2.2787   -3.6249   -1.5141 H   0  0  0  0  0  0  0  0  0  0  0  0
    4.5049   -2.7298   -1.1081 H   0  0  0  0  0  0  0  0  0  0  0  0
    4.8787   -0.2356   -2.6438 H   0  0  0  0  0  0  0  0  0  0  0  0
    5.2571   -0.2767   -0.9090 H   0  0  0  0  0  0  0  0  0  0  0  0
    7.2225   -0.9265   -4.0831 H   0  0  0  0  0  0  0  0  0  0  0  0
    9.3037   -2.5842   -3.4515 H   0  0  0  0  0  0  0  0  0  0  0  0
    8.6654   -3.5572   -0.9454 H   0  0  0  0  0  0  0  0  0  0  0  0
  1  2  1  0
  2  3  2  0
  3  4  1  0
  4  5  2  0
  5  6  1  0
  6  7  2  0
  7  8  1  0
  8  9  2  0
  9 10  1  0
 10 11  1  0
 11 12  1  0
 12 13  1  0
 13 14  1  0
 14 15  2  0
 15 16  1  0
 16 17  2  0
 17 18  1  0
 18 19  2  0
 19 20  1  0
 20 21  2  0
 21 22  1  0
 22 23  2  0
 23 24  1  0
 24 25  1  0
 25 26  1  0
 26 27  2  0
 26 28  1  0
 28 29  1  0
 29 30  1  0
 30 31  2  0
 31 32  1  0
 32 33  2  0
 33 34  1  0
 23 35  1  0
 35 36  1  0
 10  2  1  0
 36 13  2  0
  9  4  1  0
 35 15  1  0
 21 16  1  0
 34 30  1  0
  1 37  1  0
  1 38  1  0
  1 39  1  0
  5 40  1  0
  6 41  1  0
  7 42  1  0
  8 43  1  0
 11 44  1  0
 11 45  1  0
 12 46  1  0
 12 47  1  0
 17 48  1  0
 18 49  1  0
 19 50  1  0
 20 51  1  0
 25 52  1  0
 25 53  1  0
 28 54  1  0
 29 55  1  0
 29 56  1  0
 31 57  1  0
 32 58  1  0
 33 59  1  0
M  END
$$$$
