
     RDKit          3D

 64 69  0  0  0  0  0  0  0  0999 V2000
   -8.9004    3.3577    0.2190 C   0  0  0  0  0  0  0  0  0  0  0  0
   -8.5250    2.0280    0.5569 O   0  0  0  0  0  0  0  0  0  0  0  0
   -7.1957    1.7202    0.4704 C   0  0  0  0  0  0  0  0  0  0  0  0
   -6.8755    0.4045    0.8082 C   0  0  0  0  0  0  0  0  0  0  0  0
   -5.5520   -0.0488    0.7610 C   0  0  0  0  0  0  0  0  0  0  0  0
   -4.5210    0.8189    0.3820 C   0  0  0  0  0  0  0  0  0  0  0  0
   -3.1613    0.3630    0.3259 N   0  0  0  0  0  0  0  0  0  0  0  0
   -2.0009    1.1314    0.5133 C   0  0  0  0  0  0  0  0  0  0  0  0
   -2.0163    2.4293    0.9253 N   0  0  0  0  0  0  0  0  0  0  0  0
   -0.8815    0.3454    0.2641 C   0  0  0  0  0  0  0  0  0  0  0  0
    0.5116    0.7940    0.3471 C   0  0  0  0  0  0  0  0  0  0  0  0
    0.7865    1.9074    0.7775 O   0  0  0  0  0  0  0  0  0  0  0  0
    1.4251   -0.1708   -0.0303 N   0  0  0  0  0  0  0  0  0  0  0  0
    2.7831   -0.0511   -0.1549 C   0  0  0  0  0  0  0  0  0  0  0  0
    3.6582   -1.0677   -0.2734 C   0  0  0  0  0  0  0  0  0  0  0  0
    3.3486   -2.5320   -0.2446 C   0  0  0  0  0  0  0  0  0  0  0  0
    4.9881   -0.6451   -0.4189 N   0  0  0  0  0  0  0  0  0  0  0  0
    5.7316   -1.1385   -1.5936 C   0  0  0  0  0  0  0  0  0  0  0  0
    4.9454    0.7759   -0.3322 N   0  0  0  0  0  0  0  0  0  0  0  0
    6.0906    1.5369    0.0226 C   0  0  0  0  0  0  0  0  0  0  0  0
    6.0795    2.9369   -0.0412 C   0  0  0  0  0  0  0  0  0  0  0  0
    7.2108    3.6850    0.3037 C   0  0  0  0  0  0  0  0  0  0  0  0
    8.3711    3.0447    0.7281 C   0  0  0  0  0  0  0  0  0  0  0  0
    8.3988    1.6566    0.8130 C   0  0  0  0  0  0  0  0  0  0  0  0
    7.2676    0.9111    0.4647 C   0  0  0  0  0  0  0  0  0  0  0  0
    3.6075    1.2034   -0.2602 C   0  0  0  0  0  0  0  0  0  0  0  0
    3.1752    2.3425   -0.2910 O   0  0  0  0  0  0  0  0  0  0  0  0
   -1.3663   -0.9493   -0.0282 C   0  0  0  0  0  0  0  0  0  0  0  0
   -0.6636   -2.0782   -0.3259 N   0  0  0  0  0  0  0  0  0  0  0  0
   -1.4246   -3.1601   -0.5626 C   0  0  0  0  0  0  0  0  0  0  0  0
   -0.7933   -4.3560   -0.8829 C   0  0  0  0  0  0  0  0  0  0  0  0
   -1.5197   -5.5188   -1.1439 C   0  0  0  0  0  0  0  0  0  0  0  0
   -2.9055   -5.4873   -1.0838 C   0  0  0  0  0  0  0  0  0  0  0  0
   -3.5519   -4.2932   -0.7632 C   0  0  0  0  0  0  0  0  0  0  0  0
   -2.8412   -3.1296   -0.5008 C   0  0  0  0  0  0  0  0  0  0  0  0
   -3.5307   -2.0204   -0.2000 N   0  0  0  0  0  0  0  0  0  0  0  0
   -2.7524   -0.9387    0.0413 C   0  0  0  0  0  0  0  0  0  0  0  0
   -4.8479    2.1369    0.0329 C   0  0  0  0  0  0  0  0  0  0  0  0
   -6.1756    2.5846    0.0792 C   0  0  0  0  0  0  0  0  0  0  0  0
   -8.6606    3.5831   -0.8256 H   0  0  0  0  0  0  0  0  0  0  0  0
   -8.4375    4.0827    0.8973 H   0  0  0  0  0  0  0  0  0  0  0  0
   -9.9858    3.4386    0.3353 H   0  0  0  0  0  0  0  0  0  0  0  0
   -7.6647   -0.2788    1.1136 H   0  0  0  0  0  0  0  0  0  0  0  0
   -5.3585   -1.0766    1.0564 H   0  0  0  0  0  0  0  0  0  0  0  0
   -2.7399    2.7468    1.5684 H   0  0  0  0  0  0  0  0  0  0  0  0
   -1.1049    2.8426    1.1651 H   0  0  0  0  0  0  0  0  0  0  0  0
    1.0364   -1.0987   -0.1754 H   0  0  0  0  0  0  0  0  0  0  0  0
    4.0631   -3.0579    0.3978 H   0  0  0  0  0  0  0  0  0  0  0  0
    2.3510   -2.7431    0.1503 H   0  0  0  0  0  0  0  0  0  0  0  0
    3.4117   -2.9566   -1.2512 H   0  0  0  0  0  0  0  0  0  0  0  0
    5.8601   -2.2240   -1.5295 H   0  0  0  0  0  0  0  0  0  0  0  0
    5.1946   -0.9038   -2.5192 H   0  0  0  0  0  0  0  0  0  0  0  0
    6.7316   -0.7011   -1.6649 H   0  0  0  0  0  0  0  0  0  0  0  0
    5.1980    3.4781   -0.3764 H   0  0  0  0  0  0  0  0  0  0  0  0
    7.1778    4.7698    0.2398 H   0  0  0  0  0  0  0  0  0  0  0  0
    9.2471    3.6276    0.9995 H   0  0  0  0  0  0  0  0  0  0  0  0
    9.2954    1.1504    1.1606 H   0  0  0  0  0  0  0  0  0  0  0  0
    7.3112   -0.1686    0.5782 H   0  0  0  0  0  0  0  0  0  0  0  0
    0.2924   -4.3865   -0.9328 H   0  0  0  0  0  0  0  0  0  0  0  0
   -1.0027   -6.4421   -1.3938 H   0  0  0  0  0  0  0  0  0  0  0  0
   -3.4864   -6.3838   -1.2858 H   0  0  0  0  0  0  0  0  0  0  0  0
   -4.6387   -4.2681   -0.7186 H   0  0  0  0  0  0  0  0  0  0  0  0
   -4.0928    2.8304   -0.3312 H   0  0  0  0  0  0  0  0  0  0  0  0
   -6.3749    3.6110   -0.2107 H   0  0  0  0  0  0  0  0  0  0  0  0
  1  2  1  0
  2  3  1  0
  3  4  2  0
  4  5  1  0
  5  6  2  0
  6  7  1  0
  7  8  1  0
  8  9  1  0
  8 10  2  0
 10 11  1  0
 11 12  2  0
 11 13  1  0
 13 14  1  0
 14 15  2  0
 15 16  1  0
 15 17  1  0
 17 18  1  0
 17 19  1  0
 19 20  1  0
 20 21  2  0
 21 22  1  0
 22 23  2  0
 23 24  1  0
 24 25  2  0
 19 26  1  0
 26 27  2  0
 10 28  1  0
 28 29  2  0
 29 30  1  0
 30 31  2  0
 31 32  1  0
 32 33  2  0
 33 34  1  0
 34 35  2  0
 35 36  1  0
 36 37  2  0
  6 38  1  0
 38 39  2  0
 39  3  1  0
 37  7  1  0
 26 14  1  0
 37 28  1  0
 25 20  1  0
 35 30  1  0
  1 40  1  0
  1 41  1  0
  1 42  1  0
  4 43  1  0
  5 44  1  0
  9 45  1  0
  9 46  1  0
 13 47  1  0
 16 48  1  0
 16 49  1  0
 16 50  1  0
 18 51  1  0
 18 52  1  0
 18 53  1  0
 21 54  1  0
 22 55  1  0
 23 56  1  0
 24 57  1  0
 25 58  1  0
 31 59  1  0
 32 60  1  0
 33 61  1  0
 34 62  1  0
 38 63  1  0
 39 64  1  0
M  END
$$$$
