
     RDKit          3D

 53 55  0  0  0  0  0  0  0  0999 V2000
    5.5648   -1.5164    4.9181 C   0  0  0  0  0  0  0  0  0  0  0  0
    5.9900   -2.0168    3.6570 O   0  0  0  0  0  0  0  0  0  0  0  0
    5.7353   -1.2336    2.5651 C   0  0  0  0  0  0  0  0  0  0  0  0
    5.1147    0.0152    2.5764 C   0  0  0  0  0  0  0  0  0  0  0  0
    4.9153    0.7122    1.3795 C   0  0  0  0  0  0  0  0  0  0  0  0
    5.3376    0.1736    0.1562 C   0  0  0  0  0  0  0  0  0  0  0  0
    5.0934    0.9188   -1.1296 C   0  0  0  0  0  0  0  0  0  0  0  0
    3.7660    0.6649   -1.6251 N   0  0  0  0  0  0  0  0  0  0  0  0
    2.7119    1.5092   -1.3730 C   0  0  0  0  0  0  0  0  0  0  0  0
    2.7700    2.6084   -0.8393 O   0  0  0  0  0  0  0  0  0  0  0  0
    1.3476    0.9390   -1.8235 C   0  0  0  0  0  0  0  0  0  0  0  0
    1.2674   -0.2034   -2.2514 O   0  0  0  0  0  0  0  0  0  0  0  0
    0.3010    1.8176   -1.6683 N   0  0  0  0  0  0  0  0  0  0  0  0
   -1.0796    1.3952   -1.8430 C   0  0  0  0  0  0  0  0  0  0  0  0
   -1.5868    0.4821   -0.6947 C   0  0  0  0  0  0  0  0  0  0  0  0
   -1.3425    1.1467    0.5679 O   0  0  0  0  0  0  0  0  0  0  0  0
   -2.5287    1.8895    0.8560 C   0  0  0  0  0  0  0  0  0  0  0  0
   -3.6545    1.0092    0.3632 C   0  0  0  0  0  0  0  0  0  0  0  0
   -3.0354    0.1929   -0.6918 N   0  0  0  0  0  0  0  0  0  0  0  0
   -3.8222    0.0289   -2.1601 S   0  0  0  0  0  6  0  0  0  0  0  0
   -4.1167    1.3654   -2.6335 O   0  0  0  0  0  0  0  0  0  0  0  0
   -3.0794   -0.9083   -2.9714 O   0  0  0  0  0  0  0  0  0  0  0  0
   -5.3440   -0.7558   -1.6962 C   0  0  0  0  0  0  0  0  0  0  0  0
   -6.5588   -0.0838   -1.8548 C   0  0  0  0  0  0  0  0  0  0  0  0
   -7.7437   -0.7177   -1.4810 C   0  0  0  0  0  0  0  0  0  0  0  0
   -7.7101   -2.0124   -0.9584 C   0  0  0  0  0  0  0  0  0  0  0  0
   -6.4934   -2.6808   -0.8090 C   0  0  0  0  0  0  0  0  0  0  0  0
   -5.3042   -2.0548   -1.1800 C   0  0  0  0  0  0  0  0  0  0  0  0
    5.9510   -1.0844    0.1503 C   0  0  0  0  0  0  0  0  0  0  0  0
    6.1507   -1.7770    1.3474 C   0  0  0  0  0  0  0  0  0  0  0  0
    4.4772   -1.3916    4.9473 H   0  0  0  0  0  0  0  0  0  0  0  0
    5.8357   -2.2552    5.6789 H   0  0  0  0  0  0  0  0  0  0  0  0
    6.0778   -0.5809    5.1653 H   0  0  0  0  0  0  0  0  0  0  0  0
    4.7701    0.4760    3.4958 H   0  0  0  0  0  0  0  0  0  0  0  0
    4.4199    1.6822    1.4052 H   0  0  0  0  0  0  0  0  0  0  0  0
    5.2471    1.9937   -0.9799 H   0  0  0  0  0  0  0  0  0  0  0  0
    5.8000    0.5933   -1.9011 H   0  0  0  0  0  0  0  0  0  0  0  0
    3.5254   -0.2649   -1.9574 H   0  0  0  0  0  0  0  0  0  0  0  0
    0.5048    2.6531   -1.1251 H   0  0  0  0  0  0  0  0  0  0  0  0
   -1.6671    2.3171   -1.8997 H   0  0  0  0  0  0  0  0  0  0  0  0
   -1.1498    0.8815   -2.8067 H   0  0  0  0  0  0  0  0  0  0  0  0
   -1.0259   -0.4579   -0.6758 H   0  0  0  0  0  0  0  0  0  0  0  0
   -2.4910    2.8416    0.3159 H   0  0  0  0  0  0  0  0  0  0  0  0
   -2.5923    2.0974    1.9275 H   0  0  0  0  0  0  0  0  0  0  0  0
   -4.5081    1.6059    0.0319 H   0  0  0  0  0  0  0  0  0  0  0  0
   -3.9927    0.3348    1.1573 H   0  0  0  0  0  0  0  0  0  0  0  0
   -6.5929    0.9211   -2.2692 H   0  0  0  0  0  0  0  0  0  0  0  0
   -8.6960   -0.2063   -1.6021 H   0  0  0  0  0  0  0  0  0  0  0  0
   -8.6371   -2.5054   -0.6735 H   0  0  0  0  0  0  0  0  0  0  0  0
   -6.4745   -3.6926   -0.4102 H   0  0  0  0  0  0  0  0  0  0  0  0
   -4.3563   -2.5774   -1.0710 H   0  0  0  0  0  0  0  0  0  0  0  0
    6.2777   -1.5370   -0.7832 H   0  0  0  0  0  0  0  0  0  0  0  0
    6.6312   -2.7523    1.3310 H   0  0  0  0  0  0  0  0  0  0  0  0
  1  2  1  0
  2  3  1  0
  3  4  2  0
  4  5  1  0
  5  6  2  0
  6  7  1  0
  7  8  1  0
  8  9  1  0
  9 10  2  0
  9 11  1  0
 11 12  2  0
 11 13  1  0
 13 14  1  0
 14 15  1  0
 15 16  1  0
 16 17  1  0
 17 18  1  0
 18 19  1  0
 19 20  1  0
 20 21  2  0
 20 22  2  0
 20 23  1  0
 23 24  2  0
 24 25  1  0
 25 26  2  0
 26 27  1  0
 27 28  2  0
  6 29  1  0
 29 30  2  0
 30  3  1  0
 19 15  1  0
 28 23  1  0
  1 31  1  0
  1 32  1  0
  1 33  1  0
  4 34  1  0
  5 35  1  0
  7 36  1  0
  7 37  1  0
  8 38  1  0
 13 39  1  0
 14 40  1  0
 14 41  1  0
 15 42  1  0
 17 43  1  0
 17 44  1  0
 18 45  1  0
 18 46  1  0
 24 47  1  0
 25 48  1  0
 26 49  1  0
 27 50  1  0
 28 51  1  0
 29 52  1  0
 30 53  1  0
M  END
$$$$
