
     RDKit          3D

 34 35  0  0  0  0  0  0  0  0999 V2000
   -4.8574    0.2870   -0.8190 O   0  0  0  0  0  0  0  0  0  0  0  0
   -4.0882    0.1124    0.1317 C   0  0  0  0  0  0  0  0  0  0  0  0
   -4.5954   -0.2703    1.5287 C   0  0  0  0  0  0  0  0  0  0  0  0
   -4.7873   -2.0355    1.6006 Cl  0  0  0  0  0  0  0  0  0  0  0  0
   -6.1410    0.5400    1.8719 Cl  0  0  0  0  0  0  0  0  0  0  0  0
   -2.7107    0.2544   -0.0431 N   0  0  0  0  0  0  0  0  0  0  0  0
   -1.6927   -0.0769    0.9601 C   0  0  0  0  0  0  0  0  0  0  0  0
   -0.3106   -0.3328    0.3310 C   0  0  0  0  0  0  0  0  0  0  0  0
    0.1887    0.8149   -0.4515 N   0  0  0  0  0  0  0  0  0  0  0  0
    1.3097    0.4338   -1.3268 C   0  0  0  0  0  0  0  0  0  0  0  0
    2.5280   -0.0522   -0.5703 C   0  0  0  0  0  0  0  0  0  0  0  0
    3.0180   -1.3521   -0.7614 C   0  0  0  0  0  0  0  0  0  0  0  0
    4.1451   -1.7929   -0.0653 C   0  0  0  0  0  0  0  0  0  0  0  0
    4.7940   -0.9403    0.8262 C   0  0  0  0  0  0  0  0  0  0  0  0
    4.3176    0.3543    1.0235 C   0  0  0  0  0  0  0  0  0  0  0  0
    3.1914    0.7970    0.3285 C   0  0  0  0  0  0  0  0  0  0  0  0
   -0.8866    1.4867   -1.2127 C   0  0  0  0  0  0  0  0  0  0  0  0
   -2.2026    0.6973   -1.3435 C   0  0  0  0  0  0  0  0  0  0  0  0
   -3.9021    0.0419    2.3114 H   0  0  0  0  0  0  0  0  0  0  0  0
   -1.6428    0.7642    1.6616 H   0  0  0  0  0  0  0  0  0  0  0  0
   -2.0045   -0.9637    1.5190 H   0  0  0  0  0  0  0  0  0  0  0  0
   -0.3869   -1.2246   -0.3061 H   0  0  0  0  0  0  0  0  0  0  0  0
    0.3937   -0.5647    1.1379 H   0  0  0  0  0  0  0  0  0  0  0  0
    1.6373    1.3049   -1.9104 H   0  0  0  0  0  0  0  0  0  0  0  0
    0.9862   -0.3206   -2.0563 H   0  0  0  0  0  0  0  0  0  0  0  0
    2.5251   -2.0307   -1.4535 H   0  0  0  0  0  0  0  0  0  0  0  0
    4.5183   -2.8020   -0.2194 H   0  0  0  0  0  0  0  0  0  0  0  0
    5.6716   -1.2845    1.3670 H   0  0  0  0  0  0  0  0  0  0  0  0
    4.8220    1.0200    1.7188 H   0  0  0  0  0  0  0  0  0  0  0  0
    2.8225    1.8075    0.4922 H   0  0  0  0  0  0  0  0  0  0  0  0
   -0.5522    1.7915   -2.2120 H   0  0  0  0  0  0  0  0  0  0  0  0
   -1.1077    2.4189   -0.6767 H   0  0  0  0  0  0  0  0  0  0  0  0
   -2.0493   -0.1999   -1.9553 H   0  0  0  0  0  0  0  0  0  0  0  0
   -2.9508    1.3172   -1.8493 H   0  0  0  0  0  0  0  0  0  0  0  0
  1  2  2  0
  2  3  1  0
  3  4  1  0
  3  5  1  0
  2  6  1  0
  6  7  1  0
  7  8  1  0
  8  9  1  0
  9 10  1  0
 10 11  1  0
 11 12  2  0
 12 13  1  0
 13 14  2  0
 14 15  1  0
 15 16  2  0
  9 17  1  0
 17 18  1  0
 18  6  1  0
 16 11  1  0
  3 19  1  0
  7 20  1  0
  7 21  1  0
  8 22  1  0
  8 23  1  0
 10 24  1  0
 10 25  1  0
 12 26  1  0
 13 27  1  0
 14 28  1  0
 15 29  1  0
 16 30  1  0
 17 31  1  0
 17 32  1  0
 18 33  1  0
 18 34  1  0
M  END
$$$$
