
     RDKit          3D

 37 38  0  0  0  0  0  0  0  0999 V2000
   -5.6076   -0.9019   -2.3667 C   0  0  0  0  0  0  0  0  0  0  0  0
   -5.0134   -0.0293   -1.3546 N   0  0  0  0  0  0  0  0  0  0  0  0
   -5.9282    0.4447   -0.3167 C   0  0  0  0  0  0  0  0  0  0  0  0
   -3.6507   -0.1454   -1.0643 C   0  0  0  0  0  0  0  0  0  0  0  0
   -2.7648   -0.8503   -1.8967 C   0  0  0  0  0  0  0  0  0  0  0  0
   -1.3915   -0.9507   -1.6216 C   0  0  0  0  0  0  0  0  0  0  0  0
   -0.8416   -0.3251   -0.5043 C   0  0  0  0  0  0  0  0  0  0  0  0
    0.5958   -0.4682   -0.2357 C   0  0  0  0  0  0  0  0  0  0  0  0
    1.3656    0.5382    0.2097 C   0  0  0  0  0  0  0  0  0  0  0  0
    2.8034    0.4147    0.4757 C   0  0  0  0  0  0  0  0  0  0  0  0
    3.3567    1.1115    1.5486 C   0  0  0  0  0  0  0  0  0  0  0  0
    4.7220    1.0267    1.7980 C   0  0  0  0  0  0  0  0  0  0  0  0
    5.5214    0.2798    1.0045 N   0  0  0  0  0  4  0  0  0  0  0  0
    6.9664    0.2138    1.2810 C   0  0  0  0  0  0  0  0  0  0  0  0
    5.0127   -0.3845   -0.0568 C   0  0  0  0  0  0  0  0  0  0  0  0
    3.6529   -0.3295   -0.3418 C   0  0  0  0  0  0  0  0  0  0  0  0
   -1.6975    0.3781    0.3419 C   0  0  0  0  0  0  0  0  0  0  0  0
   -3.0696    0.4703    0.0575 C   0  0  0  0  0  0  0  0  0  0  0  0
   -5.5046   -1.9559   -2.0862 H   0  0  0  0  0  0  0  0  0  0  0  0
   -5.1531   -0.7356   -3.3493 H   0  0  0  0  0  0  0  0  0  0  0  0
   -6.6766   -0.6962   -2.4926 H   0  0  0  0  0  0  0  0  0  0  0  0
   -6.9616    0.4776   -0.6800 H   0  0  0  0  0  0  0  0  0  0  0  0
   -5.9066   -0.2154    0.5575 H   0  0  0  0  0  0  0  0  0  0  0  0
   -5.6852    1.4682   -0.0118 H   0  0  0  0  0  0  0  0  0  0  0  0
   -3.1200   -1.3460   -2.7953 H   0  0  0  0  0  0  0  0  0  0  0  0
   -0.7653   -1.5154   -2.3080 H   0  0  0  0  0  0  0  0  0  0  0  0
    1.0025   -1.4563   -0.4351 H   0  0  0  0  0  0  0  0  0  0  0  0
    0.9282    1.5177    0.3986 H   0  0  0  0  0  0  0  0  0  0  0  0
    2.7298    1.7174    2.2008 H   0  0  0  0  0  0  0  0  0  0  0  0
    5.1837    1.5551    2.6274 H   0  0  0  0  0  0  0  0  0  0  0  0
    7.1306    0.3188    2.3565 H   0  0  0  0  0  0  0  0  0  0  0  0
    7.3506   -0.7545    0.9498 H   0  0  0  0  0  0  0  0  0  0  0  0
    7.4421    1.0304    0.7324 H   0  0  0  0  0  0  0  0  0  0  0  0
    5.7019   -0.9519   -0.6760 H   0  0  0  0  0  0  0  0  0  0  0  0
    3.2696   -0.8595   -1.2115 H   0  0  0  0  0  0  0  0  0  0  0  0
   -1.3236    0.8622    1.2400 H   0  0  0  0  0  0  0  0  0  0  0  0
   -3.6745    1.0465    0.7514 H   0  0  0  0  0  0  0  0  0  0  0  0
  1  2  1  0
  2  3  1  0
  2  4  1  0
  4  5  2  0
  5  6  1  0
  6  7  2  0
  7  8  1  0
  8  9  2  3
  9 10  1  0
 10 11  2  0
 11 12  1  0
 12 13  2  0
 13 14  1  0
 13 15  1  0
 15 16  2  0
  7 17  1  0
 17 18  2  0
 18  4  1  0
 16 10  1  0
  1 19  1  0
  1 20  1  0
  1 21  1  0
  3 22  1  0
  3 23  1  0
  3 24  1  0
  5 25  1  0
  6 26  1  0
  8 27  1  0
  9 28  1  0
 11 29  1  0
 12 30  1  0
 14 31  1  0
 14 32  1  0
 14 33  1  0
 15 34  1  0
 16 35  1  0
 17 36  1  0
 18 37  1  0
M  CHG  1  13   1
M  END
$$$$
