
     RDKit          3D

 52 57  0  0  0  0  0  0  0  0999 V2000
    4.8914   -2.4780   -0.5595 C   0  0  0  0  0  0  0  0  0  0  0  0
    3.8284   -1.7250    0.1835 C   0  0  0  0  0  0  0  0  0  0  0  0
    3.6870   -1.8355    1.5796 C   0  0  0  0  0  0  0  0  0  0  0  0
    4.7427   -2.8410    2.5116 Cl  0  0  0  0  0  0  0  0  0  0  0  0
    2.6774   -1.1432    2.2760 C   0  0  0  0  0  0  0  0  0  0  0  0
    1.7796   -0.3165    1.6000 C   0  0  0  0  0  0  0  0  0  0  0  0
    1.9097   -0.1934    0.2245 C   0  0  0  0  0  0  0  0  0  0  0  0
    2.9114   -0.9008   -0.4590 C   0  0  0  0  0  0  0  0  0  0  0  0
    2.8041   -0.6581   -1.8256 N   0  0  0  0  0  0  0  0  0  0  0  0
    1.7505    0.2087   -2.1252 C   0  0  0  0  0  0  0  0  0  0  0  0
    1.4479    0.5499   -3.2582 O   0  0  0  0  0  0  0  0  0  0  0  0
    1.0990    0.6023   -0.7720 C   0  0  1  0  0  0  0  0  0  0  0  0
   -0.3101    0.1702   -0.6289 C   0  0  0  0  0  0  0  0  0  0  0  0
   -1.1297    1.2555   -0.3220 C   0  0  0  0  0  0  0  0  0  0  0  0
   -2.4214    0.8180   -0.2011 C   0  0  0  0  0  0  0  0  0  0  0  0
   -3.5328    1.5209    0.0030 O   0  0  0  0  0  0  0  0  0  0  0  0
   -2.4181   -0.5809   -0.4037 N   0  0  0  0  0  0  0  0  0  0  0  0
   -3.5615   -1.4528   -0.3460 C   0  0  0  0  0  0  0  0  0  0  0  0
   -3.5653   -2.6812   -1.0234 C   0  0  0  0  0  0  0  0  0  0  0  0
   -4.6778   -3.5278   -0.9652 C   0  0  0  0  0  0  0  0  0  0  0  0
   -5.8001   -3.1607   -0.2294 C   0  0  0  0  0  0  0  0  0  0  0  0
   -5.8116   -1.9455    0.4479 C   0  0  0  0  0  0  0  0  0  0  0  0
   -4.7013   -1.0961    0.3901 C   0  0  0  0  0  0  0  0  0  0  0  0
   -1.0831   -0.9636   -0.6733 C   0  0  0  0  0  0  0  0  0  0  0  0
   -0.7181   -2.2303   -0.8599 O   0  0  0  0  0  0  0  0  0  0  0  0
   -0.3663    2.5215   -0.2642 C   0  0  1  0  0  0  0  0  0  0  0  0
   -0.4168    3.2301    1.1097 C   0  0  0  0  0  0  0  0  0  0  0  0
    0.4844    4.3945    1.2243 N   0  0  0  0  0  0  0  0  0  0  0  0
    1.6901    4.2430    0.3878 C   0  0  0  0  0  0  0  0  0  0  0  0
    2.0789    2.7773    0.0840 C   0  0  0  0  0  0  0  0  0  0  0  0
    1.0164    2.0823   -0.6334 N   0  0  0  0  0  0  0  0  0  0  0  0
    5.8791   -2.2642   -0.1379 H   0  0  0  0  0  0  0  0  0  0  0  0
    4.9374   -2.2026   -1.6167 H   0  0  0  0  0  0  0  0  0  0  0  0
    4.6982   -3.5544   -0.5070 H   0  0  0  0  0  0  0  0  0  0  0  0
    2.5870   -1.2554    3.3549 H   0  0  0  0  0  0  0  0  0  0  0  0
    0.9961    0.2058    2.1411 H   0  0  0  0  0  0  0  0  0  0  0  0
    3.3887   -1.0434   -2.5524 H   0  0  0  0  0  0  0  0  0  0  0  0
   -3.3111    2.4656   -0.0655 H   0  0  0  0  0  0  0  0  0  0  0  0
   -2.7298   -2.9958   -1.6408 H   0  0  0  0  0  0  0  0  0  0  0  0
   -4.6653   -4.4717   -1.5040 H   0  0  0  0  0  0  0  0  0  0  0  0
   -6.6634   -3.8188   -0.1855 H   0  0  0  0  0  0  0  0  0  0  0  0
   -6.6832   -1.6548    1.0285 H   0  0  0  0  0  0  0  0  0  0  0  0
   -4.7466   -0.1748    0.9622 H   0  0  0  0  0  0  0  0  0  0  0  0
    0.2462   -2.2595   -0.9809 H   0  0  0  0  0  0  0  0  0  0  0  0
   -0.7264    3.2054   -1.0430 H   0  0  0  0  0  0  0  0  0  0  0  0
   -0.1593    2.5145    1.9023 H   0  0  0  0  0  0  0  0  0  0  0  0
   -1.4395    3.5627    1.3215 H   0  0  0  0  0  0  0  0  0  0  0  0
    0.7534    4.5061    2.2013 H   0  0  0  0  0  0  0  0  0  0  0  0
    1.5212    4.7755   -0.5565 H   0  0  0  0  0  0  0  0  0  0  0  0
    2.5279    4.7486    0.8815 H   0  0  0  0  0  0  0  0  0  0  0  0
    2.9944    2.7654   -0.5179 H   0  0  0  0  0  0  0  0  0  0  0  0
    2.3101    2.3023    1.0429 H   0  0  0  0  0  0  0  0  0  0  0  0
  1  2  1  0
  2  3  2  0
  3  4  1  0
  3  5  1  0
  5  6  2  0
  6  7  1  0
  7  8  2  0
  8  9  1  0
  9 10  1  0
 10 11  2  0
 10 12  1  0
 12 13  1  0
 13 14  1  0
 14 15  2  0
 15 16  1  0
 15 17  1  0
 17 18  1  0
 18 19  2  0
 19 20  1  0
 20 21  2  0
 21 22  1  0
 22 23  2  0
 17 24  1  0
 24 25  1  0
 14 26  1  0
 26 27  1  0
 27 28  1  0
 28 29  1  0
 29 30  1  0
 30 31  1  0
  8  2  1  0
 12 31  1  1
 12  7  1  0
 24 13  2  0
 31 26  1  0
 23 18  1  0
  1 32  1  0
  1 33  1  0
  1 34  1  0
  5 35  1  0
  6 36  1  0
  9 37  1  0
 16 38  1  0
 19 39  1  0
 20 40  1  0
 21 41  1  0
 22 42  1  0
 23 43  1  0
 25 44  1  0
 26 45  1  6
 27 46  1  0
 27 47  1  0
 28 48  1  0
 29 49  1  0
 29 50  1  0
 30 51  1  0
 30 52  1  0
M  END
$$$$
