
     RDKit          3D

 64 69  0  0  0  0  0  0  0  0999 V2000
   -2.5613    5.2505    2.4063 C   0  0  0  0  0  0  0  0  0  0  0  0
   -3.4291    4.1860    2.7756 O   0  0  0  0  0  0  0  0  0  0  0  0
   -3.5100    3.1282    1.9129 C   0  0  0  0  0  0  0  0  0  0  0  0
   -2.8538    3.0153    0.6877 C   0  0  0  0  0  0  0  0  0  0  0  0
   -3.0267    1.8707   -0.1006 C   0  0  0  0  0  0  0  0  0  0  0  0
   -3.8559    0.8248    0.3245 C   0  0  0  0  0  0  0  0  0  0  0  0
   -4.0159   -0.3804   -0.5005 C   0  0  0  0  0  0  0  0  0  0  0  0
   -5.5769   -0.7544   -1.0932 S   0  0  0  0  0  0  0  0  0  0  0  0
   -5.0340   -2.1583   -1.9205 C   0  0  0  0  0  0  0  0  0  0  0  0
   -5.8325   -3.0393   -2.6832 C   0  0  0  0  0  0  0  0  0  0  0  0
   -5.1892   -4.1148   -3.2594 C   0  0  0  0  0  0  0  0  0  0  0  0
   -3.8474   -4.3301   -3.1070 C   0  0  0  0  0  0  0  0  0  0  0  0
   -3.0483   -3.4813   -2.3664 C   0  0  0  0  0  0  0  0  0  0  0  0
   -3.6538   -2.3491   -1.7516 C   0  0  0  0  0  0  0  0  0  0  0  0
   -3.0743   -1.3035   -0.9316 C   0  0  0  0  0  0  0  0  0  0  0  0
   -1.6631   -1.1952   -0.5690 C   0  0  0  0  0  0  0  0  0  0  0  0
   -1.2536   -1.3412    0.7590 C   0  0  0  0  0  0  0  0  0  0  0  0
    0.1005   -1.2392    1.0871 C   0  0  0  0  0  0  0  0  0  0  0  0
    1.0592   -0.9972    0.0998 C   0  0  0  0  0  0  0  0  0  0  0  0
    2.3441   -0.9277    0.5599 O   0  0  0  0  0  0  0  0  0  0  0  0
    3.3695   -0.6560   -0.3966 C   0  0  0  0  0  0  0  0  0  0  0  0
    4.7401   -0.6226    0.3101 C   0  0  0  0  0  0  0  0  0  0  0  0
    4.9237    0.4526    1.3049 N   0  0  0  0  0  0  0  0  0  0  0  0
    6.1928    0.3132    2.0347 C   0  0  0  0  0  0  0  0  0  0  0  0
    7.2828    1.2659    1.5495 C   0  0  0  0  0  0  0  0  0  0  0  0
    6.8509    2.7251    1.6862 C   0  0  0  0  0  0  0  0  0  0  0  0
    5.3351    2.8922    1.5943 C   0  0  0  0  0  0  0  0  0  0  0  0
    4.7055    1.7920    0.7418 C   0  0  0  0  0  0  0  0  0  0  0  0
    0.6518   -0.8558   -1.2268 C   0  0  0  0  0  0  0  0  0  0  0  0
   -0.7042   -0.9545   -1.5600 C   0  0  0  0  0  0  0  0  0  0  0  0
   -3.4213   -5.4477   -3.7554 O   0  0  0  0  0  0  0  0  0  0  0  0
   -4.6583   -5.9157   -4.3304 C   0  0  0  0  0  0  0  0  0  0  0  0
   -5.7854   -5.0695   -4.0248 O   0  0  0  0  0  0  0  0  0  0  0  0
   -4.5115    0.9448    1.5558 C   0  0  0  0  0  0  0  0  0  0  0  0
   -4.3394    2.0891    2.3398 C   0  0  0  0  0  0  0  0  0  0  0  0
   -2.5951    6.0007    3.2022 H   0  0  0  0  0  0  0  0  0  0  0  0
   -2.8980    5.7312    1.4817 H   0  0  0  0  0  0  0  0  0  0  0  0
   -1.5258    4.9045    2.3187 H   0  0  0  0  0  0  0  0  0  0  0  0
   -2.1997    3.7954    0.3138 H   0  0  0  0  0  0  0  0  0  0  0  0
   -2.5055    1.8031   -1.0530 H   0  0  0  0  0  0  0  0  0  0  0  0
   -6.8972   -2.8801   -2.8074 H   0  0  0  0  0  0  0  0  0  0  0  0
   -1.9876   -3.6817   -2.2560 H   0  0  0  0  0  0  0  0  0  0  0  0
   -1.9786   -1.5326    1.5463 H   0  0  0  0  0  0  0  0  0  0  0  0
    0.4126   -1.3483    2.1233 H   0  0  0  0  0  0  0  0  0  0  0  0
    3.1790    0.2923   -0.9116 H   0  0  0  0  0  0  0  0  0  0  0  0
    3.3955   -1.4642   -1.1382 H   0  0  0  0  0  0  0  0  0  0  0  0
    4.8555   -1.5857    0.8241 H   0  0  0  0  0  0  0  0  0  0  0  0
    5.5265   -0.5593   -0.4528 H   0  0  0  0  0  0  0  0  0  0  0  0
    5.9929    0.5195    3.0941 H   0  0  0  0  0  0  0  0  0  0  0  0
    6.5659   -0.7180    2.0057 H   0  0  0  0  0  0  0  0  0  0  0  0
    8.2086    1.1024    2.1128 H   0  0  0  0  0  0  0  0  0  0  0  0
    7.5157    1.0490    0.4990 H   0  0  0  0  0  0  0  0  0  0  0  0
    7.3431    3.3159    0.9042 H   0  0  0  0  0  0  0  0  0  0  0  0
    7.1965    3.1329    2.6438 H   0  0  0  0  0  0  0  0  0  0  0  0
    4.9011    2.8667    2.6023 H   0  0  0  0  0  0  0  0  0  0  0  0
    5.0969    3.8783    1.1794 H   0  0  0  0  0  0  0  0  0  0  0  0
    3.6284    1.9810    0.6694 H   0  0  0  0  0  0  0  0  0  0  0  0
    5.1201    1.8617   -0.2728 H   0  0  0  0  0  0  0  0  0  0  0  0
    1.3599   -0.6696   -2.0267 H   0  0  0  0  0  0  0  0  0  0  0  0
   -1.0058   -0.8386   -2.5988 H   0  0  0  0  0  0  0  0  0  0  0  0
   -4.5424   -5.9662   -5.4192 H   0  0  0  0  0  0  0  0  0  0  0  0
   -4.8628   -6.9236   -3.9511 H   0  0  0  0  0  0  0  0  0  0  0  0
   -5.1555    0.1476    1.9195 H   0  0  0  0  0  0  0  0  0  0  0  0
   -4.8540    2.1689    3.2943 H   0  0  0  0  0  0  0  0  0  0  0  0
  1  2  1  0
  2  3  1  0
  3  4  2  0
  4  5  1  0
  5  6  2  0
  6  7  1  0
  7  8  1  0
  8  9  1  0
  9 10  2  0
 10 11  1  0
 11 12  2  0
 12 13  1  0
 13 14  2  0
 14 15  1  0
 15 16  1  0
 16 17  2  0
 17 18  1  0
 18 19  2  0
 19 20  1  0
 20 21  1  0
 21 22  1  0
 22 23  1  0
 23 24  1  0
 24 25  1  0
 25 26  1  0
 26 27  1  0
 27 28  1  0
 19 29  1  0
 29 30  2  0
 12 31  1  0
 31 32  1  0
 32 33  1  0
  6 34  1  0
 34 35  2  0
 35  3  1  0
 15  7  2  0
 30 16  1  0
 14  9  1  0
 28 23  1  0
 33 11  1  0
  1 36  1  0
  1 37  1  0
  1 38  1  0
  4 39  1  0
  5 40  1  0
 10 41  1  0
 13 42  1  0
 17 43  1  0
 18 44  1  0
 21 45  1  0
 21 46  1  0
 22 47  1  0
 22 48  1  0
 24 49  1  0
 24 50  1  0
 25 51  1  0
 25 52  1  0
 26 53  1  0
 26 54  1  0
 27 55  1  0
 27 56  1  0
 28 57  1  0
 28 58  1  0
 29 59  1  0
 30 60  1  0
 32 61  1  0
 32 62  1  0
 34 63  1  0
 35 64  1  0
M  END
$$$$
