
     RDKit          3D

 55 58  0  0  0  0  0  0  0  0999 V2000
    8.5059   -2.0552   -0.2473 C   0  0  0  0  0  0  0  0  0  0  0  0
    8.0286   -0.7237   -0.0834 O   0  0  0  0  0  0  0  0  0  0  0  0
    6.6697   -0.5314   -0.0804 C   0  0  0  0  0  0  0  0  0  0  0  0
    5.7244   -1.5590   -0.1470 C   0  0  0  0  0  0  0  0  0  0  0  0
    4.3590   -1.2624   -0.1286 C   0  0  0  0  0  0  0  0  0  0  0  0
    3.9233    0.0637   -0.0391 C   0  0  0  0  0  0  0  0  0  0  0  0
    2.4552    0.3297   -0.0436 C   0  0  0  0  0  0  0  0  0  0  0  0
    1.9728    1.4949    0.7651 C   0  0  0  0  0  0  0  0  0  0  0  0
    0.6475    1.7391    0.7356 C   0  0  0  0  0  0  0  0  0  0  0  0
   -0.0030    2.8513    1.4658 C   0  0  0  0  0  0  0  0  0  0  0  0
    0.9097    3.5816    2.1686 F   0  0  0  0  0  0  0  0  0  0  0  0
   -0.6225    3.7333    0.6411 F   0  0  0  0  0  0  0  0  0  0  0  0
   -0.9147    2.4268    2.3759 F   0  0  0  0  0  0  0  0  0  0  0  0
   -0.1876    0.9129   -0.0061 N   0  0  0  0  0  0  0  0  0  0  0  0
   -1.5296    0.9977   -0.1621 N   0  0  0  0  0  0  0  0  0  0  0  0
   -1.8777   -0.0431   -0.9385 C   0  0  0  0  0  0  0  0  0  0  0  0
   -3.2571   -0.3396   -1.3946 C   0  0  0  0  0  0  0  0  0  0  0  0
   -3.4174   -1.1041   -2.3493 O   0  0  0  0  0  0  0  0  0  0  0  0
   -4.3554    0.2447   -0.7497 N   0  0  0  0  0  0  0  0  0  0  0  0
   -4.2735    1.0235    0.4777 C   0  0  0  0  0  0  0  0  0  0  0  0
   -5.6810    0.0615   -1.3317 C   0  0  0  0  0  0  0  0  0  0  0  0
   -6.5129   -0.9496   -0.5763 C   0  0  0  0  0  0  0  0  0  0  0  0
   -7.6222   -0.5433    0.1788 C   0  0  0  0  0  0  0  0  0  0  0  0
   -8.3803   -1.4793    0.8846 C   0  0  0  0  0  0  0  0  0  0  0  0
   -8.0419   -2.8299    0.8389 C   0  0  0  0  0  0  0  0  0  0  0  0
   -6.9472   -3.2476    0.0842 C   0  0  0  0  0  0  0  0  0  0  0  0
   -6.1871   -2.3131   -0.6197 C   0  0  0  0  0  0  0  0  0  0  0  0
   -0.7289   -0.7860   -1.3134 C   0  0  0  0  0  0  0  0  0  0  0  0
    0.3380   -0.1716   -0.7080 C   0  0  0  0  0  0  0  0  0  0  0  0
    1.6711   -0.4606   -0.7205 N   0  0  0  0  0  0  0  0  0  0  0  0
    4.8647    1.0995    0.0121 C   0  0  0  0  0  0  0  0  0  0  0  0
    6.2346    0.8070    0.0067 C   0  0  0  0  0  0  0  0  0  0  0  0
    7.2202    1.7620    0.0443 O   0  0  0  0  0  0  0  0  0  0  0  0
    6.8589    3.0574    0.5020 C   0  0  0  0  0  0  0  0  0  0  0  0
    9.6010   -2.0225   -0.2577 H   0  0  0  0  0  0  0  0  0  0  0  0
    8.2000   -2.6896    0.5940 H   0  0  0  0  0  0  0  0  0  0  0  0
    8.1774   -2.4777   -1.2034 H   0  0  0  0  0  0  0  0  0  0  0  0
    6.0137   -2.6029   -0.2148 H   0  0  0  0  0  0  0  0  0  0  0  0
    3.6375   -2.0760   -0.1870 H   0  0  0  0  0  0  0  0  0  0  0  0
    2.6633    2.0861    1.3529 H   0  0  0  0  0  0  0  0  0  0  0  0
   -3.5880    0.5496    1.1845 H   0  0  0  0  0  0  0  0  0  0  0  0
   -3.9387    2.0349    0.2335 H   0  0  0  0  0  0  0  0  0  0  0  0
   -5.2527    1.0905    0.9589 H   0  0  0  0  0  0  0  0  0  0  0  0
   -5.6116   -0.2545   -2.3792 H   0  0  0  0  0  0  0  0  0  0  0  0
   -6.1756    1.0405   -1.3470 H   0  0  0  0  0  0  0  0  0  0  0  0
   -7.9009    0.5064    0.2266 H   0  0  0  0  0  0  0  0  0  0  0  0
   -9.2337   -1.1550    1.4757 H   0  0  0  0  0  0  0  0  0  0  0  0
   -8.6317   -3.5581    1.3893 H   0  0  0  0  0  0  0  0  0  0  0  0
   -6.6832   -4.3007    0.0452 H   0  0  0  0  0  0  0  0  0  0  0  0
   -5.3353   -2.6523   -1.2061 H   0  0  0  0  0  0  0  0  0  0  0  0
   -0.6922   -1.6592   -1.9495 H   0  0  0  0  0  0  0  0  0  0  0  0
    4.5293    2.1301    0.0138 H   0  0  0  0  0  0  0  0  0  0  0  0
    6.3449    3.0108    1.4679 H   0  0  0  0  0  0  0  0  0  0  0  0
    6.2531    3.5809   -0.2441 H   0  0  0  0  0  0  0  0  0  0  0  0
    7.7794    3.6313    0.6433 H   0  0  0  0  0  0  0  0  0  0  0  0
  1  2  1  0
  2  3  1  0
  3  4  2  0
  4  5  1  0
  5  6  2  0
  6  7  1  0
  7  8  1  0
  8  9  2  0
  9 10  1  0
 10 11  1  0
 10 12  1  0
 10 13  1  0
  9 14  1  0
 14 15  1  0
 15 16  2  0
 16 17  1  0
 17 18  2  0
 17 19  1  0
 19 20  1  0
 19 21  1  0
 21 22  1  0
 22 23  2  0
 23 24  1  0
 24 25  2  0
 25 26  1  0
 26 27  2  0
 16 28  1  0
 28 29  2  0
 29 30  1  0
  6 31  1  0
 31 32  2  0
 32 33  1  0
 33 34  1  0
 32  3  1  0
 30  7  2  0
 29 14  1  0
 27 22  1  0
  1 35  1  0
  1 36  1  0
  1 37  1  0
  4 38  1  0
  5 39  1  0
  8 40  1  0
 20 41  1  0
 20 42  1  0
 20 43  1  0
 21 44  1  0
 21 45  1  0
 23 46  1  0
 24 47  1  0
 25 48  1  0
 26 49  1  0
 27 50  1  0
 28 51  1  0
 31 52  1  0
 34 53  1  0
 34 54  1  0
 34 55  1  0
M  END
$$$$
