
     RDKit          3D

 48 51  0  0  0  0  0  0  0  0999 V2000
    3.0530   -1.7419   -3.0430 C   0  0  0  0  0  0  0  0  0  0  0  0
    2.9336   -0.3182   -2.5200 C   0  0  0  0  0  0  0  0  0  0  0  0
    2.6976   -0.3050   -1.0780 N   0  0  0  0  0  0  0  0  0  0  0  0
    1.4692   -0.4163   -0.4162 C   0  0  0  0  0  0  0  0  0  0  0  0
    0.2517   -0.4118   -0.9938 C   0  0  0  0  0  0  0  0  0  0  0  0
   -1.0454   -0.5399   -0.3074 C   0  0  0  0  0  0  0  0  0  0  0  0
   -1.3972   -1.8119    0.1312 C   0  0  0  0  0  0  0  0  0  0  0  0
   -2.5948   -2.0072    0.7759 C   0  0  0  0  0  0  0  0  0  0  0  0
   -3.4750   -0.9460    0.9091 C   0  0  0  0  0  0  0  0  0  0  0  0
   -4.6840   -1.2097    1.5605 C   0  0  0  0  0  0  0  0  0  0  0  0
   -5.6370   -0.2189    1.7047 C   0  0  0  0  0  0  0  0  0  0  0  0
   -5.4023    1.0314    1.1565 C   0  0  0  0  0  0  0  0  0  0  0  0
   -4.1995    1.3382    0.4725 C   0  0  0  0  0  0  0  0  0  0  0  0
   -4.2127    2.7009   -0.1742 C   0  0  0  0  0  0  0  0  0  0  0  0
   -3.1612    0.3603    0.3892 C   0  0  0  0  0  0  0  0  0  0  0  0
   -1.8854    0.5348   -0.1412 N   0  0  0  0  0  4  0  0  0  0  0  0
   -1.3169    1.8919   -0.4042 C   0  0  0  0  0  0  0  0  0  0  0  0
   -0.9331    2.5621    0.9033 C   0  0  0  0  0  0  0  0  0  0  0  0
    1.6183   -0.5463    1.3594 S   0  0  0  0  0  0  0  0  0  0  0  0
    3.3944   -0.5064    1.1756 C   0  0  0  0  0  0  0  0  0  0  0  0
    4.3159   -0.5941    2.2101 C   0  0  0  0  0  0  0  0  0  0  0  0
    5.6719   -0.5618    1.8927 C   0  0  0  0  0  0  0  0  0  0  0  0
    6.0810   -0.4457    0.5591 C   0  0  0  0  0  0  0  0  0  0  0  0
    5.1410   -0.3582   -0.4765 C   0  0  0  0  0  0  0  0  0  0  0  0
    3.7826   -0.3863   -0.1774 C   0  0  0  0  0  0  0  0  0  0  0  0
    3.8944   -2.2687   -2.5818 H   0  0  0  0  0  0  0  0  0  0  0  0
    3.2103   -1.7348   -4.1261 H   0  0  0  0  0  0  0  0  0  0  0  0
    2.1446   -2.3171   -2.8358 H   0  0  0  0  0  0  0  0  0  0  0  0
    2.1111    0.1862   -3.0405 H   0  0  0  0  0  0  0  0  0  0  0  0
    3.8251    0.2599   -2.7875 H   0  0  0  0  0  0  0  0  0  0  0  0
    0.1636   -0.3250   -2.0726 H   0  0  0  0  0  0  0  0  0  0  0  0
   -0.7200   -2.6553   -0.0007 H   0  0  0  0  0  0  0  0  0  0  0  0
   -2.8373   -3.0016    1.1507 H   0  0  0  0  0  0  0  0  0  0  0  0
   -4.9039   -2.1969    1.9681 H   0  0  0  0  0  0  0  0  0  0  0  0
   -6.5749   -0.4277    2.2166 H   0  0  0  0  0  0  0  0  0  0  0  0
   -6.1951    1.7765    1.2485 H   0  0  0  0  0  0  0  0  0  0  0  0
   -5.1941    3.1835   -0.0895 H   0  0  0  0  0  0  0  0  0  0  0  0
   -4.0292    2.6121   -1.2491 H   0  0  0  0  0  0  0  0  0  0  0  0
   -3.5046    3.3811    0.3022 H   0  0  0  0  0  0  0  0  0  0  0  0
   -0.4318    1.8259   -1.0399 H   0  0  0  0  0  0  0  0  0  0  0  0
   -2.0090    2.4663   -1.0102 H   0  0  0  0  0  0  0  0  0  0  0  0
   -0.5619    3.5738    0.7129 H   0  0  0  0  0  0  0  0  0  0  0  0
   -1.7729    2.6327    1.5994 H   0  0  0  0  0  0  0  0  0  0  0  0
   -0.1418    2.0051    1.4115 H   0  0  0  0  0  0  0  0  0  0  0  0
    3.9954   -0.6895    3.2425 H   0  0  0  0  0  0  0  0  0  0  0  0
    6.4170   -0.6303    2.6826 H   0  0  0  0  0  0  0  0  0  0  0  0
    7.1439   -0.4245    0.3248 H   0  0  0  0  0  0  0  0  0  0  0  0
    5.5050   -0.2723   -1.4942 H   0  0  0  0  0  0  0  0  0  0  0  0
  1  2  1  0
  2  3  1  0
  3  4  1  0
  4  5  2  3
  5  6  1  0
  6  7  2  0
  7  8  1  0
  8  9  2  0
  9 10  1  0
 10 11  2  0
 11 12  1  0
 12 13  2  0
 13 14  1  0
 13 15  1  0
 15 16  2  0
 16 17  1  0
 17 18  1  0
  4 19  1  0
 19 20  1  0
 20 21  2  0
 21 22  1  0
 22 23  2  0
 23 24  1  0
 24 25  2  0
 25  3  1  0
 16  6  1  0
 25 20  1  0
 15  9  1  0
  1 26  1  0
  1 27  1  0
  1 28  1  0
  2 29  1  0
  2 30  1  0
  5 31  1  0
  7 32  1  0
  8 33  1  0
 10 34  1  0
 11 35  1  0
 12 36  1  0
 14 37  1  0
 14 38  1  0
 14 39  1  0
 17 40  1  0
 17 41  1  0
 18 42  1  0
 18 43  1  0
 18 44  1  0
 21 45  1  0
 22 46  1  0
 23 47  1  0
 24 48  1  0
M  CHG  1  16   1
M  END
$$$$
