
     RDKit          3D

 34 35  0  0  0  0  0  0  0  0999 V2000
   -4.0479   -0.0505    2.2419 O   0  0  0  0  0  0  0  0  0  0  0  0
   -3.8219   -0.3293    1.0601 C   0  0  0  0  0  0  0  0  0  0  0  0
   -4.9504   -0.4776    0.0311 C   0  0  0  0  0  0  0  0  0  0  0  0
   -5.5673   -2.1421    0.0944 Cl  0  0  0  0  0  0  0  0  0  0  0  0
   -6.2536    0.6859    0.3631 Cl  0  0  0  0  0  0  0  0  0  0  0  0
   -2.5110   -0.5223    0.6195 N   0  0  0  0  0  0  0  0  0  0  0  0
   -1.4089   -0.3133    1.5658 C   0  0  0  0  0  0  0  0  0  0  0  0
   -0.1251    0.1316    0.8437 C   0  0  0  0  0  0  0  0  0  0  0  0
    0.3582   -0.8358   -0.1674 N   0  0  0  0  0  0  0  0  0  0  0  0
    1.1460   -0.1768   -1.2212 C   0  0  0  0  0  0  0  0  0  0  0  0
    2.4067    0.4862   -0.7075 C   0  0  0  0  0  0  0  0  0  0  0  0
    2.6123    1.8628   -0.8782 C   0  0  0  0  0  0  0  0  0  0  0  0
    3.7807    2.4674   -0.4103 C   0  0  0  0  0  0  0  0  0  0  0  0
    4.7549    1.7036    0.2302 C   0  0  0  0  0  0  0  0  0  0  0  0
    4.5632    0.3345    0.4040 C   0  0  0  0  0  0  0  0  0  0  0  0
    3.3964   -0.2717   -0.0633 C   0  0  0  0  0  0  0  0  0  0  0  0
   -0.7312   -1.6568   -0.7255 C   0  0  0  0  0  0  0  0  0  0  0  0
   -2.1241   -0.9980   -0.7133 C   0  0  0  0  0  0  0  0  0  0  0  0
   -4.6025   -0.2683   -0.9818 H   0  0  0  0  0  0  0  0  0  0  0  0
   -1.6913    0.4400    2.3093 H   0  0  0  0  0  0  0  0  0  0  0  0
   -1.2474   -1.2589    2.0972 H   0  0  0  0  0  0  0  0  0  0  0  0
    0.6614    0.2942    1.5893 H   0  0  0  0  0  0  0  0  0  0  0  0
   -0.3377    1.1008    0.3719 H   0  0  0  0  0  0  0  0  0  0  0  0
    1.4701   -0.9199   -1.9623 H   0  0  0  0  0  0  0  0  0  0  0  0
    0.5263    0.5479   -1.7657 H   0  0  0  0  0  0  0  0  0  0  0  0
    1.8635    2.4749   -1.3749 H   0  0  0  0  0  0  0  0  0  0  0  0
    3.9312    3.5353   -0.5450 H   0  0  0  0  0  0  0  0  0  0  0  0
    5.6633    2.1755    0.5951 H   0  0  0  0  0  0  0  0  0  0  0  0
    5.3205   -0.2621    0.9057 H   0  0  0  0  0  0  0  0  0  0  0  0
    3.2516   -1.3402    0.0831 H   0  0  0  0  0  0  0  0  0  0  0  0
   -0.4977   -2.0042   -1.7394 H   0  0  0  0  0  0  0  0  0  0  0  0
   -0.7859   -2.5665   -0.1127 H   0  0  0  0  0  0  0  0  0  0  0  0
   -2.1387   -0.1297   -1.3823 H   0  0  0  0  0  0  0  0  0  0  0  0
   -2.8638   -1.7164   -1.0770 H   0  0  0  0  0  0  0  0  0  0  0  0
  1  2  2  0
  2  3  1  0
  3  4  1  0
  3  5  1  0
  2  6  1  0
  6  7  1  0
  7  8  1  0
  8  9  1  0
  9 10  1  0
 10 11  1  0
 11 12  2  0
 12 13  1  0
 13 14  2  0
 14 15  1  0
 15 16  2  0
  9 17  1  0
 17 18  1  0
 18  6  1  0
 16 11  1  0
  3 19  1  0
  7 20  1  0
  7 21  1  0
  8 22  1  0
  8 23  1  0
 10 24  1  0
 10 25  1  0
 12 26  1  0
 13 27  1  0
 14 28  1  0
 15 29  1  0
 16 30  1  0
 17 31  1  0
 17 32  1  0
 18 33  1  0
 18 34  1  0
M  END
$$$$
