
     RDKit          3D

 68 70  0  0  0  0  0  0  0  0999 V2000
   -5.4617    3.5250    3.4092 C   0  0  0  0  0  0  0  0  0  0  0  0
   -5.5339    3.0058    2.0866 O   0  0  0  0  0  0  0  0  0  0  0  0
   -4.5533    2.1278    1.7150 C   0  0  0  0  0  0  0  0  0  0  0  0
   -3.4954    1.6925    2.5113 C   0  0  0  0  0  0  0  0  0  0  0  0
   -2.5516    0.7961    1.9984 C   0  0  0  0  0  0  0  0  0  0  0  0
   -2.6476    0.3165    0.6807 C   0  0  0  0  0  0  0  0  0  0  0  0
   -1.5720   -0.6348    0.1649 C   0  0  0  0  0  0  0  0  0  0  0  0
   -2.0409   -1.5179   -1.0296 C   0  0  0  0  0  0  0  0  0  0  0  0
   -1.7192   -1.2882   -2.1949 O   0  0  0  0  0  0  0  0  0  0  0  0
   -2.8952   -2.5480   -0.6676 N   0  0  0  0  0  0  0  0  0  0  0  0
   -3.4824   -3.5264   -1.5949 C   0  0  0  0  0  0  0  0  0  0  0  0
   -4.3687   -2.8311   -2.6407 C   0  0  0  0  0  0  0  0  0  0  0  0
   -4.3658   -4.4862   -0.7769 C   0  0  0  0  0  0  0  0  0  0  0  0
   -2.3874   -4.3497   -2.2907 C   0  0  0  0  0  0  0  0  0  0  0  0
   -0.2952    0.0290   -0.1679 N   0  0  0  0  0  0  0  0  0  0  0  0
   -0.3274    1.2331   -1.0064 C   0  0  0  0  0  0  0  0  0  0  0  0
   -0.3568    2.4639   -0.1652 C   0  0  0  0  0  0  0  0  0  0  0  0
   -1.1933    3.5626   -0.1372 C   0  0  0  0  0  0  0  0  0  0  0  0
   -0.7136    4.4080    0.8913 C   0  0  0  0  0  0  0  0  0  0  0  0
    0.3865    3.7785    1.4213 C   0  0  0  0  0  0  0  0  0  0  0  0
    0.6148    2.6023    0.7854 O   0  0  0  0  0  0  0  0  0  0  0  0
    0.8684   -0.6696    0.1252 C   0  0  0  0  0  0  0  0  0  0  0  0
    0.8396   -1.7423    0.7337 O   0  0  0  0  0  0  0  0  0  0  0  0
    2.1921   -0.0973   -0.3536 C   0  0  0  0  0  0  0  0  0  0  0  0
    3.3724   -0.8310    0.2764 C   0  0  0  0  0  0  0  0  0  0  0  0
    4.6999   -0.2480   -0.1646 C   0  0  0  0  0  0  0  0  0  0  0  0
    4.7948    0.5452   -1.0957 O   0  0  0  0  0  0  0  0  0  0  0  0
    5.7451   -0.7380    0.5858 N   0  0  0  0  0  0  0  0  0  0  0  0
    7.0711   -0.4101    0.4154 C   0  0  0  0  0  0  0  0  0  0  0  0
    7.6729    0.4408   -0.5373 C   0  0  0  0  0  0  0  0  0  0  0  0
    9.0130    0.3888   -0.2488 C   0  0  0  0  0  0  0  0  0  0  0  0
   10.2157    1.0130   -0.8247 C   0  0  0  0  0  0  0  0  0  0  0  0
    9.2072   -0.4340    0.8148 O   0  0  0  0  0  0  0  0  0  0  0  0
    7.9896   -0.9366    1.2340 N   0  0  0  0  0  0  0  0  0  0  0  0
   -3.7147    0.7625   -0.1123 C   0  0  0  0  0  0  0  0  0  0  0  0
   -4.6577    1.6555    0.4054 C   0  0  0  0  0  0  0  0  0  0  0  0
   -4.5364    4.0899    3.5639 H   0  0  0  0  0  0  0  0  0  0  0  0
   -6.2986    4.2164    3.5429 H   0  0  0  0  0  0  0  0  0  0  0  0
   -5.5675    2.7268    4.1513 H   0  0  0  0  0  0  0  0  0  0  0  0
   -3.3641    2.0371    3.5314 H   0  0  0  0  0  0  0  0  0  0  0  0
   -1.7172    0.4892    2.6292 H   0  0  0  0  0  0  0  0  0  0  0  0
   -1.3875   -1.3450    0.9827 H   0  0  0  0  0  0  0  0  0  0  0  0
   -3.0755   -2.6753    0.3218 H   0  0  0  0  0  0  0  0  0  0  0  0
   -5.1322   -2.2103   -2.1580 H   0  0  0  0  0  0  0  0  0  0  0  0
   -3.7888   -2.1803   -3.3016 H   0  0  0  0  0  0  0  0  0  0  0  0
   -4.8817   -3.5629   -3.2746 H   0  0  0  0  0  0  0  0  0  0  0  0
   -3.7777   -5.0138   -0.0172 H   0  0  0  0  0  0  0  0  0  0  0  0
   -4.8395   -5.2382   -1.4173 H   0  0  0  0  0  0  0  0  0  0  0  0
   -5.1597   -3.9417   -0.2526 H   0  0  0  0  0  0  0  0  0  0  0  0
   -1.7479   -3.7286   -2.9263 H   0  0  0  0  0  0  0  0  0  0  0  0
   -1.7379   -4.8397   -1.5559 H   0  0  0  0  0  0  0  0  0  0  0  0
   -2.8211   -5.1292   -2.9277 H   0  0  0  0  0  0  0  0  0  0  0  0
    0.5467    1.2715   -1.6612 H   0  0  0  0  0  0  0  0  0  0  0  0
   -1.2004    1.1987   -1.6657 H   0  0  0  0  0  0  0  0  0  0  0  0
   -2.0544    3.7214   -0.7722 H   0  0  0  0  0  0  0  0  0  0  0  0
   -1.1220    5.3571    1.2101 H   0  0  0  0  0  0  0  0  0  0  0  0
    1.0826    4.0246    2.2114 H   0  0  0  0  0  0  0  0  0  0  0  0
    2.2605    0.9623   -0.0975 H   0  0  0  0  0  0  0  0  0  0  0  0
    2.2335   -0.1991   -1.4442 H   0  0  0  0  0  0  0  0  0  0  0  0
    3.3046   -0.7696    1.3694 H   0  0  0  0  0  0  0  0  0  0  0  0
    3.3600   -1.8909   -0.0048 H   0  0  0  0  0  0  0  0  0  0  0  0
    5.5778   -1.3909    1.3397 H   0  0  0  0  0  0  0  0  0  0  0  0
    7.2020    1.0068   -1.3271 H   0  0  0  0  0  0  0  0  0  0  0  0
    9.9567    1.6579   -1.6703 H   0  0  0  0  0  0  0  0  0  0  0  0
   10.9101    0.2462   -1.1822 H   0  0  0  0  0  0  0  0  0  0  0  0
   10.7301    1.6230   -0.0754 H   0  0  0  0  0  0  0  0  0  0  0  0
   -3.8253    0.4358   -1.1444 H   0  0  0  0  0  0  0  0  0  0  0  0
   -5.4784    1.9937   -0.2232 H   0  0  0  0  0  0  0  0  0  0  0  0
  1  2  1  0
  2  3  1  0
  3  4  2  0
  4  5  1  0
  5  6  2  0
  6  7  1  0
  7  8  1  0
  8  9  2  0
  8 10  1  0
 10 11  1  0
 11 12  1  0
 11 13  1  0
 11 14  1  0
  7 15  1  0
 15 16  1  0
 16 17  1  0
 17 18  2  0
 18 19  1  0
 19 20  2  0
 20 21  1  0
 15 22  1  0
 22 23  2  0
 22 24  1  0
 24 25  1  0
 25 26  1  0
 26 27  2  0
 26 28  1  0
 28 29  1  0
 29 30  1  0
 30 31  2  0
 31 32  1  0
 31 33  1  0
 33 34  1  0
  6 35  1  0
 35 36  2  0
 36  3  1  0
 21 17  1  0
 34 29  2  0
  1 37  1  0
  1 38  1  0
  1 39  1  0
  4 40  1  0
  5 41  1  0
  7 42  1  0
 10 43  1  0
 12 44  1  0
 12 45  1  0
 12 46  1  0
 13 47  1  0
 13 48  1  0
 13 49  1  0
 14 50  1  0
 14 51  1  0
 14 52  1  0
 16 53  1  0
 16 54  1  0
 18 55  1  0
 19 56  1  0
 20 57  1  0
 24 58  1  0
 24 59  1  0
 25 60  1  0
 25 61  1  0
 28 62  1  0
 30 63  1  0
 32 64  1  0
 32 65  1  0
 32 66  1  0
 35 67  1  0
 36 68  1  0
M  END
$$$$
