
     RDKit          3D

 58 60  0  0  0  0  0  0  0  0999 V2000
    9.0678   -3.7031   -3.0574 C   0  0  0  0  0  0  0  0  0  0  0  0
    7.8128   -2.9806   -2.6603 C   0  0  0  0  0  0  0  0  0  0  0  0
    6.9753   -3.5117   -1.6738 C   0  0  0  0  0  0  0  0  0  0  0  0
    5.7907   -2.8616   -1.3218 C   0  0  0  0  0  0  0  0  0  0  0  0
    5.4155   -1.6773   -1.9616 C   0  0  0  0  0  0  0  0  0  0  0  0
    4.1443   -0.9731   -1.5648 C   0  0  0  0  0  0  0  0  0  0  0  0
    4.3556   -0.0748   -0.3430 C   0  0  0  0  0  0  0  0  0  0  0  0
    3.1496    0.6383    0.0383 N   0  0  0  0  0  0  0  0  0  0  0  0
    2.1360    0.0213    0.7400 C   0  0  0  0  0  0  0  0  0  0  0  0
    2.1576   -1.1650    1.0555 O   0  0  0  0  0  0  0  0  0  0  0  0
    0.9764    0.9457    1.0500 C   0  0  0  0  0  0  0  0  0  0  0  0
   -0.0024    0.3254    2.0414 C   0  0  0  0  0  0  0  0  0  0  0  0
   -0.7331   -0.7870    1.4081 N   0  0  0  0  0  0  0  0  0  0  0  0
   -2.0701   -1.4106    2.2216 S   0  0  0  0  0  6  0  0  0  0  0  0
   -2.2485   -2.7642    1.7420 O   0  0  0  0  0  0  0  0  0  0  0  0
   -1.9533   -1.1052    3.6304 O   0  0  0  0  0  0  0  0  0  0  0  0
   -3.3874   -0.4321    1.5379 C   0  0  0  0  0  0  0  0  0  0  0  0
   -4.0493   -0.8665    0.3896 C   0  0  0  0  0  0  0  0  0  0  0  0
   -5.1136   -0.1187   -0.1234 C   0  0  0  0  0  0  0  0  0  0  0  0
   -5.5319    1.0668    0.5033 C   0  0  0  0  0  0  0  0  0  0  0  0
   -4.8599    1.4766    1.6551 C   0  0  0  0  0  0  0  0  0  0  0  0
   -3.7947    0.7322    2.1845 C   0  0  0  0  0  0  0  0  0  0  0  0
   -5.2770    2.7160    2.3258 C   0  0  0  0  0  0  0  0  0  0  0  0
   -4.6086    3.1412    3.2646 O   0  0  0  0  0  0  0  0  0  0  0  0
   -6.4102    3.3411    1.8308 N   0  0  0  0  0  0  0  0  0  0  0  0
   -6.8727    4.5370    2.5083 C   0  0  0  0  0  0  0  0  0  0  0  0
   -7.0591    2.9944    0.6521 C   0  0  0  0  0  0  0  0  0  0  0  0
   -7.9875    3.6752    0.2057 O   0  0  0  0  0  0  0  0  0  0  0  0
   -6.6026    1.8514    0.0004 N   0  0  0  0  0  0  0  0  0  0  0  0
   -7.2760    1.4503   -1.2287 C   0  0  0  0  0  0  0  0  0  0  0  0
    6.2489   -1.1496   -2.9548 C   0  0  0  0  0  0  0  0  0  0  0  0
    7.4349   -1.7991   -3.3047 C   0  0  0  0  0  0  0  0  0  0  0  0
    9.5648   -4.1279   -2.1783 H   0  0  0  0  0  0  0  0  0  0  0  0
    9.7793   -3.0233   -3.5335 H   0  0  0  0  0  0  0  0  0  0  0  0
    8.8301   -4.5105   -3.7583 H   0  0  0  0  0  0  0  0  0  0  0  0
    7.2392   -4.4387   -1.1727 H   0  0  0  0  0  0  0  0  0  0  0  0
    5.1585   -3.2894   -0.5465 H   0  0  0  0  0  0  0  0  0  0  0  0
    3.3639   -1.7204   -1.3680 H   0  0  0  0  0  0  0  0  0  0  0  0
    3.7727   -0.3736   -2.4079 H   0  0  0  0  0  0  0  0  0  0  0  0
    4.6919   -0.6636    0.5179 H   0  0  0  0  0  0  0  0  0  0  0  0
    5.1228    0.6801   -0.5483 H   0  0  0  0  0  0  0  0  0  0  0  0
    3.0516    1.6065   -0.2433 H   0  0  0  0  0  0  0  0  0  0  0  0
    0.4692    1.1939    0.1077 H   0  0  0  0  0  0  0  0  0  0  0  0
    1.3801    1.8708    1.4822 H   0  0  0  0  0  0  0  0  0  0  0  0
    0.5329   -0.0471    2.9230 H   0  0  0  0  0  0  0  0  0  0  0  0
   -0.7113    1.0983    2.3590 H   0  0  0  0  0  0  0  0  0  0  0  0
   -0.1323   -1.5474    1.0607 H   0  0  0  0  0  0  0  0  0  0  0  0
   -3.7474   -1.7873   -0.1071 H   0  0  0  0  0  0  0  0  0  0  0  0
   -5.6037   -0.4986   -1.0162 H   0  0  0  0  0  0  0  0  0  0  0  0
   -3.2948    1.0604    3.0952 H   0  0  0  0  0  0  0  0  0  0  0  0
   -6.5193    5.4109    1.9473 H   0  0  0  0  0  0  0  0  0  0  0  0
   -7.9694    4.5558    2.5345 H   0  0  0  0  0  0  0  0  0  0  0  0
   -6.4972    4.5940    3.5358 H   0  0  0  0  0  0  0  0  0  0  0  0
   -6.5439    1.3639   -2.0321 H   0  0  0  0  0  0  0  0  0  0  0  0
   -8.0262    2.1744   -1.5453 H   0  0  0  0  0  0  0  0  0  0  0  0
   -7.7819    0.4954   -1.0706 H   0  0  0  0  0  0  0  0  0  0  0  0
    5.9795   -0.2333   -3.4685 H   0  0  0  0  0  0  0  0  0  0  0  0
    8.0629   -1.3763   -4.0853 H   0  0  0  0  0  0  0  0  0  0  0  0
  1  2  1  0
  2  3  2  0
  3  4  1  0
  4  5  2  0
  5  6  1  0
  6  7  1  0
  7  8  1  0
  8  9  1  0
  9 10  2  0
  9 11  1  0
 11 12  1  0
 12 13  1  0
 13 14  1  0
 14 15  2  0
 14 16  2  0
 14 17  1  0
 17 18  2  0
 18 19  1  0
 19 20  2  0
 20 21  1  0
 21 22  2  0
 21 23  1  0
 23 24  2  0
 23 25  1  0
 25 26  1  0
 25 27  1  0
 27 28  2  0
 27 29  1  0
 29 30  1  0
  5 31  1  0
 31 32  2  0
 32  2  1  0
 22 17  1  0
 29 20  1  0
  1 33  1  0
  1 34  1  0
  1 35  1  0
  3 36  1  0
  4 37  1  0
  6 38  1  0
  6 39  1  0
  7 40  1  0
  7 41  1  0
  8 42  1  0
 11 43  1  0
 11 44  1  0
 12 45  1  0
 12 46  1  0
 13 47  1  0
 18 48  1  0
 19 49  1  0
 22 50  1  0
 26 51  1  0
 26 52  1  0
 26 53  1  0
 30 54  1  0
 30 55  1  0
 30 56  1  0
 31 57  1  0
 32 58  1  0
M  END
$$$$
