
     RDKit          3D

 59 62  0  0  0  0  0  0  0  0999 V2000
   -6.3089    1.5950    0.2456 C   0  0  0  0  0  0  0  0  0  0  0  0
   -6.1433    1.2195   -1.2173 C   0  0  0  0  0  0  0  0  0  0  0  0
   -5.2433    0.0899   -1.3989 N   0  0  0  0  0  0  0  0  0  0  0  0
   -5.6382   -1.2348   -1.4021 C   0  0  0  0  0  0  0  0  0  0  0  0
   -6.8990   -1.8289   -1.2241 C   0  0  0  0  0  0  0  0  0  0  0  0
   -6.9874   -3.2233   -1.2787 C   0  0  0  0  0  0  0  0  0  0  0  0
   -5.8585   -4.0039   -1.5041 C   0  0  0  0  0  0  0  0  0  0  0  0
   -4.6086   -3.4051   -1.6781 C   0  0  0  0  0  0  0  0  0  0  0  0
   -4.4915   -1.9990   -1.6261 C   0  0  0  0  0  0  0  0  0  0  0  0
   -3.3868   -1.0994   -1.7491 C   0  0  0  0  0  0  0  0  0  0  0  0
   -2.0013   -1.2887   -1.9697 C   0  0  0  0  0  0  0  0  0  0  0  0
   -1.1407   -0.1881   -2.0160 C   0  0  0  0  0  0  0  0  0  0  0  0
    0.2528   -0.2867   -2.2059 N   0  0  0  0  0  0  0  0  0  0  0  0
    1.0137   -1.4326   -2.3914 C   0  0  0  0  0  0  0  0  0  0  0  0
    0.5785   -2.5765   -2.4921 O   0  0  0  0  0  0  0  0  0  0  0  0
    2.5273   -1.1257   -2.5017 C   0  0  0  0  0  0  0  0  0  0  0  0
    3.3014   -2.3663   -2.9329 C   0  0  0  0  0  0  0  0  0  0  0  0
    3.1001   -0.7030   -1.2536 O   0  0  0  0  0  0  0  0  0  0  0  0
    2.9369    0.5989   -0.9249 C   0  0  0  0  0  0  0  0  0  0  0  0
    2.3028    1.4168   -1.5760 O   0  0  0  0  0  0  0  0  0  0  0  0
    3.6470    0.9182    0.3413 C   0  0  0  0  0  0  0  0  0  0  0  0
    4.2135   -0.0690    1.1533 C   0  0  0  0  0  0  0  0  0  0  0  0
    4.8832    0.2824    2.3335 C   0  0  0  0  0  0  0  0  0  0  0  0
    4.9956    1.6202    2.7187 C   0  0  0  0  0  0  0  0  0  0  0  0
    5.6754    2.0571    3.8767 N   0  0  0  0  0  0  0  0  0  0  0  0
    6.2579    1.2626    4.8556 C   0  0  0  0  0  0  0  0  0  0  0  0
    6.2182    0.0376    4.9116 O   0  0  0  0  0  0  0  0  0  0  0  0
    6.9970    2.0553    5.9098 C   0  0  0  0  0  0  0  0  0  0  0  0
    6.0639    2.5649    6.9114 C   0  0  0  0  0  0  0  0  0  0  0  0
    5.3401    3.0152    7.6991 N   0  0  0  0  0  0  0  0  0  0  0  0
    4.4209    2.6052    1.9060 C   0  0  0  0  0  0  0  0  0  0  0  0
    3.7490    2.2581    0.7272 C   0  0  0  0  0  0  0  0  0  0  0  0
   -1.6650    1.0970   -1.8511 C   0  0  0  0  0  0  0  0  0  0  0  0
   -3.0332    1.3145   -1.6423 C   0  0  0  0  0  0  0  0  0  0  0  0
   -3.8785    0.1964   -1.5942 C   0  0  0  0  0  0  0  0  0  0  0  0
   -5.3506    1.8817    0.6924 H   0  0  0  0  0  0  0  0  0  0  0  0
   -6.7106    0.7568    0.8268 H   0  0  0  0  0  0  0  0  0  0  0  0
   -6.9978    2.4410    0.3451 H   0  0  0  0  0  0  0  0  0  0  0  0
   -7.1092    0.9597   -1.6625 H   0  0  0  0  0  0  0  0  0  0  0  0
   -5.7515    2.0663   -1.7907 H   0  0  0  0  0  0  0  0  0  0  0  0
   -7.7878   -1.2340   -1.0428 H   0  0  0  0  0  0  0  0  0  0  0  0
   -7.9526   -3.7040   -1.1406 H   0  0  0  0  0  0  0  0  0  0  0  0
   -5.9455   -5.0872   -1.5421 H   0  0  0  0  0  0  0  0  0  0  0  0
   -3.7284   -4.0188   -1.8482 H   0  0  0  0  0  0  0  0  0  0  0  0
   -1.6399   -2.3040   -2.0856 H   0  0  0  0  0  0  0  0  0  0  0  0
    0.7698    0.5927   -2.1662 H   0  0  0  0  0  0  0  0  0  0  0  0
    2.6745   -0.3558   -3.2713 H   0  0  0  0  0  0  0  0  0  0  0  0
    3.2282   -3.1586   -2.1790 H   0  0  0  0  0  0  0  0  0  0  0  0
    2.9281   -2.7604   -3.8834 H   0  0  0  0  0  0  0  0  0  0  0  0
    4.3656   -2.1333   -3.0445 H   0  0  0  0  0  0  0  0  0  0  0  0
    4.1447   -1.1223    0.8886 H   0  0  0  0  0  0  0  0  0  0  0  0
    5.3112   -0.5227    2.9241 H   0  0  0  0  0  0  0  0  0  0  0  0
    5.7019    3.0619    4.0135 H   0  0  0  0  0  0  0  0  0  0  0  0
    7.5432    2.8764    5.4316 H   0  0  0  0  0  0  0  0  0  0  0  0
    7.7469    1.4032    6.3727 H   0  0  0  0  0  0  0  0  0  0  0  0
    4.4813    3.6573    2.1747 H   0  0  0  0  0  0  0  0  0  0  0  0
    3.3094    3.0419    0.1128 H   0  0  0  0  0  0  0  0  0  0  0  0
   -1.0092    1.9648   -1.8821 H   0  0  0  0  0  0  0  0  0  0  0  0
   -3.4124    2.3233   -1.5156 H   0  0  0  0  0  0  0  0  0  0  0  0
  1  2  1  0
  2  3  1  0
  3  4  1  0
  4  5  2  0
  5  6  1  0
  6  7  2  0
  7  8  1  0
  8  9  2  0
  9 10  1  0
 10 11  2  0
 11 12  1  0
 12 13  1  0
 13 14  1  0
 14 15  2  0
 14 16  1  0
 16 17  1  0
 16 18  1  0
 18 19  1  0
 19 20  2  0
 19 21  1  0
 21 22  2  0
 22 23  1  0
 23 24  2  0
 24 25  1  0
 25 26  1  0
 26 27  2  0
 26 28  1  0
 28 29  1  0
 29 30  3  0
 24 31  1  0
 31 32  2  0
 12 33  2  0
 33 34  1  0
 34 35  2  0
 35  3  1  0
  9  4  1  0
 35 10  1  0
 32 21  1  0
  1 36  1  0
  1 37  1  0
  1 38  1  0
  2 39  1  0
  2 40  1  0
  5 41  1  0
  6 42  1  0
  7 43  1  0
  8 44  1  0
 11 45  1  0
 13 46  1  0
 16 47  1  0
 17 48  1  0
 17 49  1  0
 17 50  1  0
 22 51  1  0
 23 52  1  0
 25 53  1  0
 28 54  1  0
 28 55  1  0
 31 56  1  0
 32 57  1  0
 33 58  1  0
 34 59  1  0
M  END
$$$$
