
     RDKit          3D

 54 56  0  0  0  0  0  0  0  0999 V2000
    7.4072   -3.1563    1.3829 C   0  0  0  0  0  0  0  0  0  0  0  0
    7.1374   -2.8556    0.0182 O   0  0  0  0  0  0  0  0  0  0  0  0
    6.5612   -1.6430   -0.2433 C   0  0  0  0  0  0  0  0  0  0  0  0
    6.3495   -1.3771   -1.5970 C   0  0  0  0  0  0  0  0  0  0  0  0
    5.7725   -0.1730   -2.0070 C   0  0  0  0  0  0  0  0  0  0  0  0
    5.3971    0.7900   -1.0623 C   0  0  0  0  0  0  0  0  0  0  0  0
    4.8025    2.1020   -1.5060 C   0  0  0  0  0  0  0  0  0  0  0  0
    3.3789    2.3550   -1.0042 C   0  0  0  0  0  0  0  0  0  0  0  0
    2.3598    1.3541   -1.5492 C   0  0  0  0  0  0  0  0  0  0  0  0
    0.9916    1.7325   -1.1247 C   0  0  0  0  0  0  0  0  0  0  0  0
    0.3711    1.4981    0.0075 N   0  0  0  0  0  0  0  0  0  0  0  0
   -0.8619    2.1064   -0.0967 N   0  0  0  0  0  0  0  0  0  0  0  0
   -0.9012    2.6867   -1.2788 C   0  0  0  0  0  0  0  0  0  0  0  0
   -2.2283    3.6356   -1.8672 S   0  0  0  0  0  0  0  0  0  0  0  0
   -3.3170    3.6199   -0.4158 C   0  0  0  0  0  0  0  0  0  0  0  0
   -4.2215    2.4011   -0.4360 C   0  0  0  0  0  0  0  0  0  0  0  0
   -5.2778    2.4321   -1.0639 O   0  0  0  0  0  0  0  0  0  0  0  0
   -3.7421    1.3266    0.2955 N   0  0  0  0  0  0  0  0  0  0  0  0
   -4.4103    0.1025    0.5683 C   0  0  0  0  0  0  0  0  0  0  0  0
   -5.7559   -0.1134    0.2510 C   0  0  0  0  0  0  0  0  0  0  0  0
   -6.4040   -1.3302    0.5460 C   0  0  0  0  0  0  0  0  0  0  0  0
   -7.8507   -1.4973    0.1663 C   0  0  0  0  0  0  0  0  0  0  0  0
   -5.6851   -2.3662    1.1662 C   0  0  0  0  0  0  0  0  0  0  0  0
   -6.3265   -3.6845    1.4928 C   0  0  0  0  0  0  0  0  0  0  0  0
   -4.3421   -2.1520    1.5023 C   0  0  0  0  0  0  0  0  0  0  0  0
   -3.7161   -0.9331    1.2130 C   0  0  0  0  0  0  0  0  0  0  0  0
   -1.9016   -0.7457    1.7433 Br  0  0  0  0  0  0  0  0  0  0  0  0
    0.2478    2.4795   -1.9970 O   0  0  0  0  0  0  0  0  0  0  0  0
    5.6113    0.5193    0.2951 C   0  0  0  0  0  0  0  0  0  0  0  0
    6.1869   -0.6894    0.7031 C   0  0  0  0  0  0  0  0  0  0  0  0
    7.8807   -4.1425    1.4222 H   0  0  0  0  0  0  0  0  0  0  0  0
    8.1083   -2.4337    1.8146 H   0  0  0  0  0  0  0  0  0  0  0  0
    6.4823   -3.2095    1.9654 H   0  0  0  0  0  0  0  0  0  0  0  0
    6.6409   -2.1157   -2.3422 H   0  0  0  0  0  0  0  0  0  0  0  0
    5.6304    0.0051   -3.0700 H   0  0  0  0  0  0  0  0  0  0  0  0
    5.4550    2.9068   -1.1432 H   0  0  0  0  0  0  0  0  0  0  0  0
    4.8173    2.1757   -2.6002 H   0  0  0  0  0  0  0  0  0  0  0  0
    3.0883    3.3667   -1.3126 H   0  0  0  0  0  0  0  0  0  0  0  0
    3.3540    2.3541    0.0924 H   0  0  0  0  0  0  0  0  0  0  0  0
    2.5762    0.3437   -1.1855 H   0  0  0  0  0  0  0  0  0  0  0  0
    2.4140    1.3246   -2.6443 H   0  0  0  0  0  0  0  0  0  0  0  0
   -2.7606    3.6905    0.5238 H   0  0  0  0  0  0  0  0  0  0  0  0
   -3.9589    4.5078   -0.4578 H   0  0  0  0  0  0  0  0  0  0  0  0
   -2.7697    1.3662    0.6025 H   0  0  0  0  0  0  0  0  0  0  0  0
   -6.3436    0.6648   -0.2274 H   0  0  0  0  0  0  0  0  0  0  0  0
   -7.9458   -2.2326   -0.6341 H   0  0  0  0  0  0  0  0  0  0  0  0
   -8.2889   -0.5590   -0.1891 H   0  0  0  0  0  0  0  0  0  0  0  0
   -8.4400   -1.8187    1.0279 H   0  0  0  0  0  0  0  0  0  0  0  0
   -6.7914   -4.1159    0.5996 H   0  0  0  0  0  0  0  0  0  0  0  0
   -7.0846   -3.5551    2.2731 H   0  0  0  0  0  0  0  0  0  0  0  0
   -5.5901   -4.4122    1.8561 H   0  0  0  0  0  0  0  0  0  0  0  0
   -3.7804   -2.9410    1.9967 H   0  0  0  0  0  0  0  0  0  0  0  0
    5.3404    1.2538    1.0517 H   0  0  0  0  0  0  0  0  0  0  0  0
    6.3339   -0.8484    1.7679 H   0  0  0  0  0  0  0  0  0  0  0  0
  1  2  1  0
  2  3  1  0
  3  4  2  0
  4  5  1  0
  5  6  2  0
  6  7  1  0
  7  8  1  0
  8  9  1  0
  9 10  1  0
 10 11  2  0
 11 12  1  0
 12 13  2  0
 13 14  1  0
 14 15  1  0
 15 16  1  0
 16 17  2  0
 16 18  1  0
 18 19  1  0
 19 20  2  0
 20 21  1  0
 21 22  1  0
 21 23  2  0
 23 24  1  0
 23 25  1  0
 25 26  2  0
 26 27  1  0
 13 28  1  0
  6 29  1  0
 29 30  2  0
 30  3  1  0
 28 10  1  0
 26 19  1  0
  1 31  1  0
  1 32  1  0
  1 33  1  0
  4 34  1  0
  5 35  1  0
  7 36  1  0
  7 37  1  0
  8 38  1  0
  8 39  1  0
  9 40  1  0
  9 41  1  0
 15 42  1  0
 15 43  1  0
 18 44  1  0
 20 45  1  0
 22 46  1  0
 22 47  1  0
 22 48  1  0
 24 49  1  0
 24 50  1  0
 24 51  1  0
 25 52  1  0
 29 53  1  0
 30 54  1  0
M  END
$$$$
