
     RDKit          3D

 46 49  0  0  0  0  0  0  0  0999 V2000
    2.2879    1.2104   -3.5594 O   0  0  0  0  0  0  0  0  0  0  0  0
    2.4003    1.3883   -2.3504 C   0  0  0  0  0  0  0  0  0  0  0  0
    1.1995    1.7536   -1.4946 C   0  0  0  0  0  0  0  0  0  0  0  0
    0.4944    0.2353   -0.7850 S   0  0  0  0  0  0  0  0  0  0  0  0
   -0.7696    0.9175    0.1755 C   0  0  0  0  0  0  0  0  0  0  0  0
   -0.8604    2.1772    0.5249 N   0  0  0  0  0  0  0  0  0  0  0  0
   -1.9815    2.3141    1.2998 N   0  0  0  0  0  0  0  0  0  0  0  0
   -2.5604    1.1319    1.4096 C   0  0  0  0  0  0  0  0  0  0  0  0
   -3.7925    0.8516    2.2091 C   0  0  0  0  0  0  0  0  0  0  0  0
   -4.9845    0.4283    1.3959 C   0  0  0  0  0  0  0  0  0  0  0  0
   -5.7250   -0.7330    1.5196 C   0  0  0  0  0  0  0  0  0  0  0  0
   -6.7948   -0.7987    0.5821 C   0  0  0  0  0  0  0  0  0  0  0  0
   -6.8448    0.3169   -0.2211 C   0  0  0  0  0  0  0  0  0  0  0  0
   -5.6176    1.4419    0.1655 S   0  0  0  0  0  0  0  0  0  0  0  0
   -1.8134    0.2079    0.7060 N   0  0  0  0  0  0  0  0  0  0  0  0
   -2.0937   -1.2043    0.5413 C   0  0  0  0  0  0  0  0  0  0  0  0
   -1.6628   -1.9701    1.7359 C   0  0  0  0  0  0  0  0  0  0  0  0
   -0.4327   -2.3633    2.2227 C   0  0  0  0  0  0  0  0  0  0  0  0
   -0.6867   -3.0804    3.4165 C   0  0  0  0  0  0  0  0  0  0  0  0
   -2.0516   -3.0863    3.5781 C   0  0  0  0  0  0  0  0  0  0  0  0
   -2.6531   -2.4170    2.5619 O   0  0  0  0  0  0  0  0  0  0  0  0
    3.5704    1.2805   -1.6173 N   0  0  0  0  0  0  0  0  0  0  0  0
    4.8694    0.9688   -2.0837 C   0  0  0  0  0  0  0  0  0  0  0  0
    5.1703    0.7518   -3.4311 C   0  0  0  0  0  0  0  0  0  0  0  0
    6.4793    0.4516   -3.8279 C   0  0  0  0  0  0  0  0  0  0  0  0
    7.4952    0.3645   -2.8806 C   0  0  0  0  0  0  0  0  0  0  0  0
    9.1005   -0.0037   -3.3776 Cl  0  0  0  0  0  0  0  0  0  0  0  0
    7.2202    0.5765   -1.5347 C   0  0  0  0  0  0  0  0  0  0  0  0
    5.9136    0.8763   -1.1423 C   0  0  0  0  0  0  0  0  0  0  0  0
    5.6117    1.1337    0.5441 Cl  0  0  0  0  0  0  0  0  0  0  0  0
    1.5092    2.4463   -0.7051 H   0  0  0  0  0  0  0  0  0  0  0  0
    0.4603    2.2601   -2.1237 H   0  0  0  0  0  0  0  0  0  0  0  0
   -3.5651    0.0869    2.9612 H   0  0  0  0  0  0  0  0  0  0  0  0
   -4.0613    1.7532    2.7754 H   0  0  0  0  0  0  0  0  0  0  0  0
   -5.5065   -1.5045    2.2497 H   0  0  0  0  0  0  0  0  0  0  0  0
   -7.4950   -1.6213    0.5022 H   0  0  0  0  0  0  0  0  0  0  0  0
   -7.5504    0.5345   -1.0110 H   0  0  0  0  0  0  0  0  0  0  0  0
   -3.1620   -1.3234    0.3488 H   0  0  0  0  0  0  0  0  0  0  0  0
   -1.5853   -1.5762   -0.3526 H   0  0  0  0  0  0  0  0  0  0  0  0
    0.5298   -2.1551    1.7753 H   0  0  0  0  0  0  0  0  0  0  0  0
    0.0357   -3.5384    4.0778 H   0  0  0  0  0  0  0  0  0  0  0  0
   -2.7152   -3.5018    4.3239 H   0  0  0  0  0  0  0  0  0  0  0  0
    3.4982    1.4077   -0.6120 H   0  0  0  0  0  0  0  0  0  0  0  0
    4.4115    0.8120   -4.2044 H   0  0  0  0  0  0  0  0  0  0  0  0
    6.6928    0.2869   -4.8809 H   0  0  0  0  0  0  0  0  0  0  0  0
    8.0157    0.5114   -0.7977 H   0  0  0  0  0  0  0  0  0  0  0  0
  1  2  2  0
  2  3  1  0
  3  4  1  0
  4  5  1  0
  5  6  2  0
  6  7  1  0
  7  8  2  0
  8  9  1  0
  9 10  1  0
 10 11  2  0
 11 12  1  0
 12 13  2  0
 13 14  1  0
  8 15  1  0
 15 16  1  0
 16 17  1  0
 17 18  2  0
 18 19  1  0
 19 20  2  0
 20 21  1  0
  2 22  1  0
 22 23  1  0
 23 24  2  0
 24 25  1  0
 25 26  2  0
 26 27  1  0
 26 28  1  0
 28 29  2  0
 29 30  1  0
 15  5  1  0
 21 17  1  0
 29 23  1  0
 14 10  1  0
  3 31  1  0
  3 32  1  0
  9 33  1  0
  9 34  1  0
 11 35  1  0
 12 36  1  0
 13 37  1  0
 16 38  1  0
 16 39  1  0
 18 40  1  0
 19 41  1  0
 20 42  1  0
 22 43  1  0
 24 44  1  0
 25 45  1  0
 28 46  1  0
M  END
$$$$
