
     RDKit          3D

 44 44  0  0  0  0  0  0  0  0999 V2000
   -4.1702   -0.3656   -2.2327 C   0  0  0  0  0  0  0  0  0  0  0  0
   -4.1484   -0.9487   -0.8280 C   0  0  0  0  0  0  0  0  0  0  0  0
   -3.9718    0.0990    0.1875 N   0  0  0  0  0  0  0  0  0  0  0  0
   -5.1936    0.7570    0.6703 C   0  0  0  0  0  0  0  0  0  0  0  0
   -5.3117    2.1835    0.1500 C   0  0  0  0  0  0  0  0  0  0  0  0
   -2.7089    0.4326    0.6712 C   0  0  0  0  0  0  0  0  0  0  0  0
   -2.5307    1.2042    1.8312 C   0  0  0  0  0  0  0  0  0  0  0  0
   -1.2619    1.5390    2.3219 C   0  0  0  0  0  0  0  0  0  0  0  0
   -0.1159    1.1091    1.6615 C   0  0  0  0  0  0  0  0  0  0  0  0
   -0.2432    0.3446    0.5090 C   0  0  0  0  0  0  0  0  0  0  0  0
    0.7851   -0.1468   -0.2489 O   0  0  0  0  0  0  0  0  0  0  0  0
    2.1074    0.1527    0.1776 C   0  0  0  0  0  0  0  0  0  0  0  0
    3.1463   -0.4625   -0.7718 C   0  0  0  0  0  0  0  0  0  0  0  0
    2.8248   -1.0898   -1.7834 O   0  0  0  0  0  0  0  0  0  0  0  0
    4.4951   -0.2850   -0.4394 N   0  0  0  0  0  0  0  0  0  0  0  0
    4.9422    0.2439    0.8438 C   0  0  0  0  0  0  0  0  0  0  0  0
    5.4945   -0.9475   -1.2879 C   0  0  0  0  0  0  0  0  0  0  0  0
    5.6233   -2.4546   -1.0529 C   0  0  0  0  0  0  0  0  0  0  0  0
    6.3428   -2.7379    0.1933 C   0  0  0  0  0  0  0  0  0  0  0  0
    6.9170   -2.9388    1.1818 N   0  0  0  0  0  0  0  0  0  0  0  0
   -1.5242    0.0193    0.0335 C   0  0  0  0  0  0  0  0  0  0  0  0
   -3.2630    0.2058   -2.4505 H   0  0  0  0  0  0  0  0  0  0  0  0
   -5.0263    0.3025   -2.3680 H   0  0  0  0  0  0  0  0  0  0  0  0
   -4.2536   -1.1681   -2.9724 H   0  0  0  0  0  0  0  0  0  0  0  0
   -5.0940   -1.4777   -0.6535 H   0  0  0  0  0  0  0  0  0  0  0  0
   -3.3816   -1.7276   -0.7457 H   0  0  0  0  0  0  0  0  0  0  0  0
   -5.2506    0.7336    1.7642 H   0  0  0  0  0  0  0  0  0  0  0  0
   -6.0785    0.2045    0.3304 H   0  0  0  0  0  0  0  0  0  0  0  0
   -6.2514    2.6302    0.4903 H   0  0  0  0  0  0  0  0  0  0  0  0
   -5.3029    2.2087   -0.9439 H   0  0  0  0  0  0  0  0  0  0  0  0
   -4.4936    2.8183    0.5023 H   0  0  0  0  0  0  0  0  0  0  0  0
   -3.3831    1.5619    2.3999 H   0  0  0  0  0  0  0  0  0  0  0  0
   -1.1775    2.1362    3.2261 H   0  0  0  0  0  0  0  0  0  0  0  0
    0.8474    1.3879    2.0714 H   0  0  0  0  0  0  0  0  0  0  0  0
    2.2741   -0.2710    1.1745 H   0  0  0  0  0  0  0  0  0  0  0  0
    2.2588    1.2382    0.1705 H   0  0  0  0  0  0  0  0  0  0  0  0
    5.9451    0.6673    0.7416 H   0  0  0  0  0  0  0  0  0  0  0  0
    4.9503   -0.5670    1.5767 H   0  0  0  0  0  0  0  0  0  0  0  0
    4.2740    1.0313    1.1988 H   0  0  0  0  0  0  0  0  0  0  0  0
    5.1923   -0.7908   -2.3312 H   0  0  0  0  0  0  0  0  0  0  0  0
    6.4569   -0.4361   -1.1656 H   0  0  0  0  0  0  0  0  0  0  0  0
    4.6405   -2.9371   -1.0344 H   0  0  0  0  0  0  0  0  0  0  0  0
    6.1823   -2.8942   -1.8872 H   0  0  0  0  0  0  0  0  0  0  0  0
   -1.5635   -0.5645   -0.8817 H   0  0  0  0  0  0  0  0  0  0  0  0
  1  2  1  0
  2  3  1  0
  3  4  1  0
  4  5  1  0
  3  6  1  0
  6  7  2  0
  7  8  1  0
  8  9  2  0
  9 10  1  0
 10 11  1  0
 11 12  1  0
 12 13  1  0
 13 14  2  0
 13 15  1  0
 15 16  1  0
 15 17  1  0
 17 18  1  0
 18 19  1  0
 19 20  3  0
 10 21  2  0
 21  6  1  0
  1 22  1  0
  1 23  1  0
  1 24  1  0
  2 25  1  0
  2 26  1  0
  4 27  1  0
  4 28  1  0
  5 29  1  0
  5 30  1  0
  5 31  1  0
  7 32  1  0
  8 33  1  0
  9 34  1  0
 12 35  1  0
 12 36  1  0
 16 37  1  0
 16 38  1  0
 16 39  1  0
 17 40  1  0
 17 41  1  0
 18 42  1  0
 18 43  1  0
 21 44  1  0
M  END
$$$$
