
     RDKit          3D

 32 32  0  0  0  0  0  0  0  0999 V2000
   -3.4344    2.8311   -3.0723 C   0  0  0  0  0  0  0  0  0  0  0  0
   -2.8282    1.8243   -2.8227 C   0  0  0  0  0  0  0  0  0  0  0  0
   -2.0767    0.5926   -2.5220 C   0  0  0  0  0  0  0  0  0  0  0  0
   -2.3370    0.1070   -1.1544 N   0  0  0  0  0  0  0  0  0  0  0  0
   -3.7221   -0.3671   -1.0304 C   0  0  0  0  0  0  0  0  0  0  0  0
   -1.4140   -0.9770   -0.7727 C   0  0  0  0  0  0  0  0  0  0  0  0
    0.0226   -0.4943   -0.5466 C   0  0  0  0  0  0  0  0  0  0  0  0
    0.8887   -1.6088    0.0417 C   0  0  0  0  0  0  0  0  0  0  0  0
    2.2626   -1.2021    0.1058 O   0  0  0  0  0  0  0  0  0  0  0  0
    2.5771   -0.5139    1.2483 C   0  0  0  0  0  0  0  0  0  0  0  0
    2.5400   -1.1537    2.4904 C   0  0  0  0  0  0  0  0  0  0  0  0
    2.9063   -0.4570    3.6437 C   0  0  0  0  0  0  0  0  0  0  0  0
    3.3270    0.8694    3.5487 C   0  0  0  0  0  0  0  0  0  0  0  0
    3.7784    1.7222    4.9734 Cl  0  0  0  0  0  0  0  0  0  0  0  0
    3.3960    1.5060    2.3115 C   0  0  0  0  0  0  0  0  0  0  0  0
    3.0308    0.8087    1.1589 C   0  0  0  0  0  0  0  0  0  0  0  0
    3.1449    1.6188   -0.3618 Cl  0  0  0  0  0  0  0  0  0  0  0  0
   -3.9702    3.7270   -3.2851 H   0  0  0  0  0  0  0  0  0  0  0  0
   -1.0171    0.8395   -2.6460 H   0  0  0  0  0  0  0  0  0  0  0  0
   -2.3089   -0.1820   -3.2637 H   0  0  0  0  0  0  0  0  0  0  0  0
   -4.4420    0.4344   -1.2262 H   0  0  0  0  0  0  0  0  0  0  0  0
   -3.9218   -0.7039   -0.0065 H   0  0  0  0  0  0  0  0  0  0  0  0
   -3.9346   -1.1991   -1.7119 H   0  0  0  0  0  0  0  0  0  0  0  0
   -1.7583   -1.4160    0.1732 H   0  0  0  0  0  0  0  0  0  0  0  0
   -1.4288   -1.7828   -1.5183 H   0  0  0  0  0  0  0  0  0  0  0  0
    0.0265    0.3681    0.1312 H   0  0  0  0  0  0  0  0  0  0  0  0
    0.4808   -0.1535   -1.4814 H   0  0  0  0  0  0  0  0  0  0  0  0
    0.5021   -1.9396    1.0131 H   0  0  0  0  0  0  0  0  0  0  0  0
    0.8577   -2.4813   -0.6210 H   0  0  0  0  0  0  0  0  0  0  0  0
    2.2447   -2.1966    2.5658 H   0  0  0  0  0  0  0  0  0  0  0  0
    2.8716   -0.9557    4.6091 H   0  0  0  0  0  0  0  0  0  0  0  0
    3.7365    2.5354    2.2436 H   0  0  0  0  0  0  0  0  0  0  0  0
  1  2  3  0
  2  3  1  0
  3  4  1  0
  4  5  1  0
  4  6  1  0
  6  7  1  0
  7  8  1  0
  8  9  1  0
  9 10  1  0
 10 11  2  0
 11 12  1  0
 12 13  2  0
 13 14  1  0
 13 15  1  0
 15 16  2  0
 16 17  1  0
 16 10  1  0
  1 18  1  0
  3 19  1  0
  3 20  1  0
  5 21  1  0
  5 22  1  0
  5 23  1  0
  6 24  1  0
  6 25  1  0
  7 26  1  0
  7 27  1  0
  8 28  1  0
  8 29  1  0
 11 30  1  0
 12 31  1  0
 15 32  1  0
M  END
$$$$
