
     RDKit          3D

 41 42  0  0  0  0  0  0  0  0999 V2000
    2.3921    3.7638    1.2427 C   0  0  0  0  0  0  0  0  0  0  0  0
    2.4748    2.5151    2.0997 C   0  0  0  0  0  0  0  0  0  0  0  0
    1.9888    1.3827    1.3664 O   0  0  0  0  0  0  0  0  0  0  0  0
    0.6556    1.1368    1.4228 C   0  0  0  0  0  0  0  0  0  0  0  0
   -0.1485    1.8528    2.0237 O   0  0  0  0  0  0  0  0  0  0  0  0
    0.2077   -0.1087    0.6278 C   0  0  0  0  0  0  0  0  0  0  0  0
   -1.0899    0.3287    0.0378 N   0  0  0  0  0  0  0  0  0  0  0  0
   -1.8855   -0.5342   -0.6743 C   0  0  0  0  0  0  0  0  0  0  0  0
   -1.4656   -1.6076   -1.0883 O   0  0  0  0  0  0  0  0  0  0  0  0
   -3.2893   -0.1139   -0.9266 C   0  0  0  0  0  0  0  0  0  0  0  0
   -3.6710    1.2351   -0.9487 C   0  0  0  0  0  0  0  0  0  0  0  0
   -5.0025    1.5803   -1.1929 C   0  0  0  0  0  0  0  0  0  0  0  0
   -5.9514    0.5835   -1.4219 C   0  0  0  0  0  0  0  0  0  0  0  0
   -5.5664   -0.7565   -1.4138 C   0  0  0  0  0  0  0  0  0  0  0  0
   -6.7393   -1.9808   -1.7059 Cl  0  0  0  0  0  0  0  0  0  0  0  0
   -4.2412   -1.1112   -1.1716 C   0  0  0  0  0  0  0  0  0  0  0  0
    1.0421   -0.4066   -0.5566 N   0  0  0  0  0  0  0  0  0  0  0  0
    2.2067   -1.0833   -0.3967 C   0  0  0  0  0  0  0  0  0  0  0  0
    2.9201   -1.1729    0.7029 N   0  0  0  0  0  0  0  0  0  0  0  0
    4.0461   -1.9540    0.5540 N   0  0  0  0  0  0  0  0  0  0  0  0
    4.1514   -2.4370   -0.6641 C   0  0  0  0  0  0  0  0  0  0  0  0
    5.2485   -3.3147   -1.1401 C   0  0  0  0  0  0  0  0  0  0  0  0
    2.8801   -1.9671   -1.7151 S   0  0  0  0  0  0  0  0  0  0  0  0
    0.0452   -1.2248    1.7081 C   0  0  0  0  0  0  0  0  0  0  0  0
    1.0184   -1.2173    2.6467 F   0  0  0  0  0  0  0  0  0  0  0  0
   -1.1300   -1.0683    2.3813 F   0  0  0  0  0  0  0  0  0  0  0  0
    0.0117   -2.4688    1.1717 F   0  0  0  0  0  0  0  0  0  0  0  0
    2.8115    4.6251    1.7702 H   0  0  0  0  0  0  0  0  0  0  0  0
    1.3548    3.9885    0.9752 H   0  0  0  0  0  0  0  0  0  0  0  0
    2.9392    3.6230    0.3047 H   0  0  0  0  0  0  0  0  0  0  0  0
    3.5200    2.3091    2.3523 H   0  0  0  0  0  0  0  0  0  0  0  0
    1.9328    2.6398    3.0440 H   0  0  0  0  0  0  0  0  0  0  0  0
   -1.5542    1.0525    0.5799 H   0  0  0  0  0  0  0  0  0  0  0  0
   -2.9461    2.0320   -0.8045 H   0  0  0  0  0  0  0  0  0  0  0  0
   -5.3002    2.6266   -1.2127 H   0  0  0  0  0  0  0  0  0  0  0  0
   -6.9864    0.8568   -1.6129 H   0  0  0  0  0  0  0  0  0  0  0  0
   -3.9490   -2.1593   -1.1697 H   0  0  0  0  0  0  0  0  0  0  0  0
    0.4562   -0.8135   -1.2863 H   0  0  0  0  0  0  0  0  0  0  0  0
    5.9648   -3.5041   -0.3342 H   0  0  0  0  0  0  0  0  0  0  0  0
    4.8574   -4.2803   -1.4761 H   0  0  0  0  0  0  0  0  0  0  0  0
    5.7902   -2.8475   -1.9685 H   0  0  0  0  0  0  0  0  0  0  0  0
  1  2  1  0
  2  3  1  0
  3  4  1  0
  4  5  2  0
  4  6  1  0
  6  7  1  0
  7  8  1  0
  8  9  2  0
  8 10  1  0
 10 11  2  0
 11 12  1  0
 12 13  2  0
 13 14  1  0
 14 15  1  0
 14 16  2  0
  6 17  1  0
 17 18  1  0
 18 19  2  0
 19 20  1  0
 20 21  2  0
 21 22  1  0
 21 23  1  0
  6 24  1  0
 24 25  1  0
 24 26  1  0
 24 27  1  0
 16 10  1  0
 23 18  1  0
  1 28  1  0
  1 29  1  0
  1 30  1  0
  2 31  1  0
  2 32  1  0
  7 33  1  0
 11 34  1  0
 12 35  1  0
 13 36  1  0
 16 37  1  0
 17 38  1  0
 22 39  1  0
 22 40  1  0
 22 41  1  0
M  END
$$$$
