
     RDKit          3D

 49 52  0  0  0  0  0  0  0  0999 V2000
   -4.2202    1.6858   -1.0681 O   0  0  0  0  0  0  0  0  0  0  0  0
   -4.0903    1.0833   -0.0042 C   0  0  0  0  0  0  0  0  0  0  0  0
   -2.7868    0.8472    0.5938 C   0  0  0  0  0  0  0  0  0  0  0  0
   -2.4183    0.3461    1.8533 C   0  0  0  0  0  0  0  0  0  0  0  0
   -1.0981    0.2968    2.0240 N   0  0  0  0  0  0  0  0  0  0  0  0
   -0.5726    0.7774    0.8791 N   0  0  0  0  0  0  0  0  0  0  0  0
    0.8380    0.8680    0.6914 C   0  0  0  0  0  0  0  0  0  0  0  0
    1.3457    1.3479   -0.5320 C   0  0  0  0  0  0  0  0  0  0  0  0
    2.7264    1.4251   -0.7591 C   0  0  0  0  0  0  0  0  0  0  0  0
    3.6212    1.0139    0.2303 C   0  0  0  0  0  0  0  0  0  0  0  0
    5.3757    1.0979   -0.0626 S   0  0  0  0  0  6  0  0  0  0  0  0
    6.0085    1.3223    1.2197 O   0  0  0  0  0  0  0  0  0  0  0  0
    5.5968    1.9921   -1.1776 O   0  0  0  0  0  0  0  0  0  0  0  0
    5.7561   -0.4826   -0.5111 N   0  0  0  0  0  0  0  0  0  0  0  0
    5.0403   -1.1013   -1.5728 C   0  0  0  0  0  0  0  0  0  0  0  0
    4.2341   -2.2059   -1.2916 C   0  0  0  0  0  0  0  0  0  0  0  0
    3.4857   -2.7988   -2.3103 C   0  0  0  0  0  0  0  0  0  0  0  0
    3.5462   -2.2900   -3.6075 C   0  0  0  0  0  0  0  0  0  0  0  0
    4.3575   -1.1911   -3.8887 C   0  0  0  0  0  0  0  0  0  0  0  0
    5.1055   -0.5967   -2.8713 C   0  0  0  0  0  0  0  0  0  0  0  0
    3.1535    0.5608    1.4619 C   0  0  0  0  0  0  0  0  0  0  0  0
    1.7670    0.4875    1.6786 C   0  0  0  0  0  0  0  0  0  0  0  0
    1.3795   -0.0166    2.9831 N   0  0  0  0  0  4  0  0  0  0  0  0
    1.2427    0.8199    3.8863 O   0  0  0  0  0  0  0  0  0  0  0  0
    1.3512   -1.2494    3.1118 O   0  0  0  0  0  1  0  0  0  0  0  0
   -1.5710    1.1252   -0.0042 C   0  0  0  0  0  0  0  0  0  0  0  0
   -5.3142    0.6564    0.7087 C   0  0  0  0  0  0  0  0  0  0  0  0
   -6.2987    1.6242    0.9394 C   0  0  0  0  0  0  0  0  0  0  0  0
   -7.4646    1.2627    1.6013 C   0  0  0  0  0  0  0  0  0  0  0  0
   -8.4057    2.1861    1.8331 F   0  0  0  0  0  0  0  0  0  0  0  0
   -7.6738   -0.0456    2.0264 C   0  0  0  0  0  0  0  0  0  0  0  0
   -6.7060   -1.0201    1.7759 C   0  0  0  0  0  0  0  0  0  0  0  0
   -5.5308   -0.6686    1.1089 C   0  0  0  0  0  0  0  0  0  0  0  0
   -4.6015   -1.6288    0.8280 O   0  0  0  0  0  0  0  0  0  0  0  0
   -3.0522    0.0110    2.6648 H   0  0  0  0  0  0  0  0  0  0  0  0
    0.6976    1.6687   -1.3443 H   0  0  0  0  0  0  0  0  0  0  0  0
    3.0915    1.7962   -1.7165 H   0  0  0  0  0  0  0  0  0  0  0  0
    6.0346   -1.0594    0.2806 H   0  0  0  0  0  0  0  0  0  0  0  0
    4.1719   -2.6109   -0.2854 H   0  0  0  0  0  0  0  0  0  0  0  0
    2.8531   -3.6575   -2.0942 H   0  0  0  0  0  0  0  0  0  0  0  0
    2.9643   -2.7529   -4.4018 H   0  0  0  0  0  0  0  0  0  0  0  0
    4.4097   -0.7974   -4.9007 H   0  0  0  0  0  0  0  0  0  0  0  0
    5.7420    0.2536   -3.1054 H   0  0  0  0  0  0  0  0  0  0  0  0
    3.8508    0.2657    2.2449 H   0  0  0  0  0  0  0  0  0  0  0  0
   -1.3733    1.5391   -0.9816 H   0  0  0  0  0  0  0  0  0  0  0  0
   -6.1635    2.6513    0.6107 H   0  0  0  0  0  0  0  0  0  0  0  0
   -8.5964   -0.2996    2.5399 H   0  0  0  0  0  0  0  0  0  0  0  0
   -6.8888   -2.0411    2.0990 H   0  0  0  0  0  0  0  0  0  0  0  0
   -4.9205   -2.4980    1.1277 H   0  0  0  0  0  0  0  0  0  0  0  0
  1  2  2  0
  2  3  1  0
  3  4  1  0
  4  5  2  0
  5  6  1  0
  6  7  1  0
  7  8  2  0
  8  9  1  0
  9 10  2  0
 10 11  1  0
 11 12  2  0
 11 13  2  0
 11 14  1  0
 14 15  1  0
 15 16  2  0
 16 17  1  0
 17 18  2  0
 18 19  1  0
 19 20  2  0
 10 21  1  0
 21 22  2  0
 22 23  1  0
 23 24  2  0
 23 25  1  0
  6 26  1  0
  2 27  1  0
 27 28  2  0
 28 29  1  0
 29 30  1  0
 29 31  2  0
 31 32  1  0
 32 33  2  0
 33 34  1  0
 26  3  2  0
 33 27  1  0
 22  7  1  0
 20 15  1  0
  4 35  1  0
  8 36  1  0
  9 37  1  0
 14 38  1  0
 16 39  1  0
 17 40  1  0
 18 41  1  0
 19 42  1  0
 20 43  1  0
 21 44  1  0
 26 45  1  0
 28 46  1  0
 31 47  1  0
 32 48  1  0
 34 49  1  0
M  CHG  2  23   1  25  -1
M  END
$$$$
