
     RDKit          3D

 53 56  0  0  0  0  0  0  0  0999 V2000
   -9.2341   -0.9201    1.5785 C   0  0  0  0  0  0  0  0  0  0  0  0
   -8.8432   -0.6873    0.2301 O   0  0  0  0  0  0  0  0  0  0  0  0
   -7.5581   -0.2682    0.0219 C   0  0  0  0  0  0  0  0  0  0  0  0
   -7.2305   -0.0367   -1.3159 C   0  0  0  0  0  0  0  0  0  0  0  0
   -5.9525    0.3943   -1.6712 C   0  0  0  0  0  0  0  0  0  0  0  0
   -4.9861    0.5982   -0.6857 C   0  0  0  0  0  0  0  0  0  0  0  0
   -5.2975    0.3643    0.6591 C   0  0  0  0  0  0  0  0  0  0  0  0
   -4.3063    0.5699    1.7605 C   0  0  0  0  0  0  0  0  0  0  0  0
   -4.6948    0.5495    2.9295 O   0  0  0  0  0  0  0  0  0  0  0  0
   -2.8476    0.8438    1.4246 C   0  0  0  0  0  0  0  0  0  0  0  0
   -2.3291   -0.1932    0.6028 O   0  0  0  0  0  0  0  0  0  0  0  0
   -1.0327   -0.0728    0.1911 C   0  0  0  0  0  0  0  0  0  0  0  0
   -0.5910   -1.0914   -0.6536 C   0  0  0  0  0  0  0  0  0  0  0  0
    0.7181   -1.0954   -1.1545 C   0  0  0  0  0  0  0  0  0  0  0  0
    1.6192   -0.0750   -0.8235 C   0  0  0  0  0  0  0  0  0  0  0  0
    3.0140   -0.0145   -1.3075 C   0  0  0  0  0  0  0  0  0  0  0  0
    3.4614   -1.1250   -2.2247 C   0  0  0  0  0  0  0  0  0  0  0  0
    3.8110    1.0005   -0.8989 C   0  0  0  0  0  0  0  0  0  0  0  0
    5.2647    1.1872   -1.2920 C   0  0  0  0  0  0  0  0  0  0  0  0
    6.2365    0.5177   -0.3408 C   0  0  0  0  0  0  0  0  0  0  0  0
    6.5895    1.1359    0.8693 C   0  0  0  0  0  0  0  0  0  0  0  0
    7.4722    0.5156    1.7557 C   0  0  0  0  0  0  0  0  0  0  0  0
    8.0156   -0.7291    1.4432 C   0  0  0  0  0  0  0  0  0  0  0  0
    7.6786   -1.3529    0.2430 C   0  0  0  0  0  0  0  0  0  0  0  0
    6.7949   -0.7340   -0.6443 C   0  0  0  0  0  0  0  0  0  0  0  0
    3.2859    2.0928   -0.0282 C   0  0  0  0  0  0  0  0  0  0  0  0
    3.9668    3.0643    0.2874 O   0  0  0  0  0  0  0  0  0  0  0  0
    1.9785    1.9891    0.4118 O   0  0  0  0  0  0  0  0  0  0  0  0
    1.1527    0.9253    0.0230 C   0  0  0  0  0  0  0  0  0  0  0  0
   -0.1509    0.9450    0.5338 C   0  0  0  0  0  0  0  0  0  0  0  0
   -6.5903   -0.0655    1.0069 C   0  0  0  0  0  0  0  0  0  0  0  0
  -10.2768   -1.2511    1.5706 H   0  0  0  0  0  0  0  0  0  0  0  0
   -9.1812    0.0024    2.1668 H   0  0  0  0  0  0  0  0  0  0  0  0
   -8.6354   -1.7169    2.0334 H   0  0  0  0  0  0  0  0  0  0  0  0
   -7.9808   -0.1931   -2.0883 H   0  0  0  0  0  0  0  0  0  0  0  0
   -5.7117    0.5680   -2.7177 H   0  0  0  0  0  0  0  0  0  0  0  0
   -4.0026    0.9378   -0.9968 H   0  0  0  0  0  0  0  0  0  0  0  0
   -2.2948    0.8753    2.3718 H   0  0  0  0  0  0  0  0  0  0  0  0
   -2.7890    1.8225    0.9331 H   0  0  0  0  0  0  0  0  0  0  0  0
   -1.2701   -1.8978   -0.9262 H   0  0  0  0  0  0  0  0  0  0  0  0
    1.0040   -1.9196   -1.8030 H   0  0  0  0  0  0  0  0  0  0  0  0
    3.4420   -2.0860   -1.6995 H   0  0  0  0  0  0  0  0  0  0  0  0
    2.8101   -1.1871   -3.1033 H   0  0  0  0  0  0  0  0  0  0  0  0
    4.4720   -0.9980   -2.6138 H   0  0  0  0  0  0  0  0  0  0  0  0
    5.4434    0.8256   -2.3118 H   0  0  0  0  0  0  0  0  0  0  0  0
    5.5214    2.2523   -1.3665 H   0  0  0  0  0  0  0  0  0  0  0  0
    6.1830    2.1120    1.1317 H   0  0  0  0  0  0  0  0  0  0  0  0
    7.7348    1.0072    2.6899 H   0  0  0  0  0  0  0  0  0  0  0  0
    8.7032   -1.2106    2.1332 H   0  0  0  0  0  0  0  0  0  0  0  0
    8.1058   -2.3227   -0.0032 H   0  0  0  0  0  0  0  0  0  0  0  0
    6.5550   -1.2384   -1.5777 H   0  0  0  0  0  0  0  0  0  0  0  0
   -0.4319    1.7608    1.1906 H   0  0  0  0  0  0  0  0  0  0  0  0
   -6.8150   -0.2378    2.0554 H   0  0  0  0  0  0  0  0  0  0  0  0
  1  2  1  0
  2  3  1  0
  3  4  2  0
  4  5  1  0
  5  6  2  0
  6  7  1  0
  7  8  1  0
  8  9  2  0
  8 10  1  0
 10 11  1  0
 11 12  1  0
 12 13  2  0
 13 14  1  0
 14 15  2  0
 15 16  1  0
 16 17  1  0
 16 18  2  0
 18 19  1  0
 19 20  1  0
 20 21  2  0
 21 22  1  0
 22 23  2  0
 23 24  1  0
 24 25  2  0
 18 26  1  0
 26 27  2  0
 26 28  1  0
 28 29  1  0
 29 30  2  0
  7 31  2  0
 31  3  1  0
 30 12  1  0
 29 15  1  0
 25 20  1  0
  1 32  1  0
  1 33  1  0
  1 34  1  0
  4 35  1  0
  5 36  1  0
  6 37  1  0
 10 38  1  0
 10 39  1  0
 13 40  1  0
 14 41  1  0
 17 42  1  0
 17 43  1  0
 17 44  1  0
 19 45  1  0
 19 46  1  0
 21 47  1  0
 22 48  1  0
 23 49  1  0
 24 50  1  0
 25 51  1  0
 30 52  1  0
 31 53  1  0
M  END
$$$$
