
     RDKit          3D

 67 72  0  0  0  0  0  0  0  0999 V2000
   -4.1178    5.0994    0.3174 C   0  0  0  0  0  0  0  0  0  0  0  0
   -3.4826    3.9735   -0.4353 C   0  0  0  0  0  0  0  0  0  0  0  0
   -3.6536    3.8390   -1.8213 C   0  0  0  0  0  0  0  0  0  0  0  0
   -3.0486    2.7864   -2.5340 C   0  0  0  0  0  0  0  0  0  0  0  0
   -2.2584    1.8402   -1.8798 C   0  0  0  0  0  0  0  0  0  0  0  0
   -2.0927    1.9638   -0.5099 C   0  0  0  0  0  0  0  0  0  0  0  0
   -2.6929    3.0204    0.1875 C   0  0  0  0  0  0  0  0  0  0  0  0
   -2.3697    2.9451    1.5394 N   0  0  0  0  0  0  0  0  0  0  0  0
   -1.5396    1.8547    1.8109 C   0  0  0  0  0  0  0  0  0  0  0  0
   -1.0802    1.5848    2.9104 O   0  0  0  0  0  0  0  0  0  0  0  0
   -1.3261    1.1179    0.4613 C   0  0  1  0  0  0  0  0  0  0  0  0
   -1.8762   -0.2665    0.4566 C   0  0  0  0  0  0  0  0  0  0  0  0
   -0.8263   -1.1938    0.5539 C   0  0  0  0  0  0  0  0  0  0  0  0
   -1.3480   -2.4582    0.5605 C   0  0  0  0  0  0  0  0  0  0  0  0
   -0.7345   -3.6279    0.7228 O   0  0  0  0  0  0  0  0  0  0  0  0
   -2.7526   -2.3371    0.4316 N   0  0  0  0  0  0  0  0  0  0  0  0
   -3.6978   -3.4215    0.3773 C   0  0  0  0  0  0  0  0  0  0  0  0
   -5.0360   -3.2292    0.7513 C   0  0  0  0  0  0  0  0  0  0  0  0
   -5.9533   -4.2844    0.6980 C   0  0  0  0  0  0  0  0  0  0  0  0
   -5.5477   -5.5444    0.2693 C   0  0  0  0  0  0  0  0  0  0  0  0
   -4.2238   -5.7507   -0.1056 C   0  0  0  0  0  0  0  0  0  0  0  0
   -3.3039   -4.6978   -0.0516 C   0  0  0  0  0  0  0  0  0  0  0  0
   -3.0584   -0.9562    0.3658 C   0  0  0  0  0  0  0  0  0  0  0  0
   -4.2950   -0.4982    0.1803 O   0  0  0  0  0  0  0  0  0  0  0  0
    0.4634   -0.4812    0.6784 C   0  0  1  0  0  0  0  0  0  0  0  0
    1.6774   -1.0027   -0.0809 C   0  0  0  0  0  0  0  0  0  0  0  0
    2.7871   -0.0359   -0.0131 N   0  0  0  0  0  0  0  0  0  0  0  0
    4.0718   -0.5185   -0.1977 C   0  0  0  0  0  0  0  0  0  0  0  0
    4.3460   -1.7116   -0.2153 O   0  0  0  0  0  0  0  0  0  0  0  0
    4.9765    0.4816   -0.3515 O   0  0  0  0  0  0  0  0  0  0  0  0
    6.3838    0.1947   -0.5539 C   0  0  0  0  0  0  0  0  0  0  0  0
    7.0462    1.5755   -0.6790 C   0  0  0  0  0  0  0  0  0  0  0  0
    6.6142   -0.5771   -1.8578 C   0  0  0  0  0  0  0  0  0  0  0  0
    6.9861   -0.5279    0.6560 C   0  0  0  0  0  0  0  0  0  0  0  0
    2.4487    1.3798   -0.2582 C   0  0  0  0  0  0  0  0  0  0  0  0
    1.1156    1.8338    0.3924 C   0  0  0  0  0  0  0  0  0  0  0  0
    0.0845    0.8501    0.1068 N   0  0  0  0  0  0  0  0  0  0  0  0
   -4.7634    4.7097    1.1111 H   0  0  0  0  0  0  0  0  0  0  0  0
   -3.3487    5.7407    0.7596 H   0  0  0  0  0  0  0  0  0  0  0  0
   -4.7369    5.7213   -0.3377 H   0  0  0  0  0  0  0  0  0  0  0  0
   -4.2607    4.5575   -2.3701 H   0  0  0  0  0  0  0  0  0  0  0  0
   -3.1987    2.7109   -3.6094 H   0  0  0  0  0  0  0  0  0  0  0  0
   -1.7906    1.0273   -2.4283 H   0  0  0  0  0  0  0  0  0  0  0  0
   -2.6616    3.5946    2.2543 H   0  0  0  0  0  0  0  0  0  0  0  0
    0.2059   -3.4623    0.9056 H   0  0  0  0  0  0  0  0  0  0  0  0
   -5.3923   -2.2750    1.1267 H   0  0  0  0  0  0  0  0  0  0  0  0
   -6.9841   -4.1182    0.9996 H   0  0  0  0  0  0  0  0  0  0  0  0
   -6.2607   -6.3630    0.2284 H   0  0  0  0  0  0  0  0  0  0  0  0
   -3.9013   -6.7309   -0.4469 H   0  0  0  0  0  0  0  0  0  0  0  0
   -2.2915   -4.9002   -0.3867 H   0  0  0  0  0  0  0  0  0  0  0  0
   -4.2451    0.4600    0.0160 H   0  0  0  0  0  0  0  0  0  0  0  0
    0.7069   -0.3798    1.7459 H   0  0  0  0  0  0  0  0  0  0  0  0
    1.4505   -1.1670   -1.1424 H   0  0  0  0  0  0  0  0  0  0  0  0
    1.9960   -1.9666    0.3318 H   0  0  0  0  0  0  0  0  0  0  0  0
    6.6146    2.1406   -1.5134 H   0  0  0  0  0  0  0  0  0  0  0  0
    8.1269    1.4962   -0.8373 H   0  0  0  0  0  0  0  0  0  0  0  0
    6.8714    2.1746    0.2224 H   0  0  0  0  0  0  0  0  0  0  0  0
    7.6810   -0.6464   -2.0963 H   0  0  0  0  0  0  0  0  0  0  0  0
    6.1009   -0.0892   -2.6941 H   0  0  0  0  0  0  0  0  0  0  0  0
    6.2250   -1.5982   -1.8039 H   0  0  0  0  0  0  0  0  0  0  0  0
    8.0767   -0.5941    0.5781 H   0  0  0  0  0  0  0  0  0  0  0  0
    6.6037   -1.5481    0.7562 H   0  0  0  0  0  0  0  0  0  0  0  0
    6.7342   -0.0054    1.5857 H   0  0  0  0  0  0  0  0  0  0  0  0
    2.3886    1.5008   -1.3473 H   0  0  0  0  0  0  0  0  0  0  0  0
    3.2577    2.0253    0.0997 H   0  0  0  0  0  0  0  0  0  0  0  0
    0.8453    2.8144   -0.0146 H   0  0  0  0  0  0  0  0  0  0  0  0
    1.2641    1.9509    1.4725 H   0  0  0  0  0  0  0  0  0  0  0  0
  1  2  1  0
  2  3  2  0
  3  4  1  0
  4  5  2  0
  5  6  1  0
  6  7  2  0
  7  8  1  0
  8  9  1  0
  9 10  2  0
  9 11  1  0
 11 12  1  0
 12 13  1  0
 13 14  2  0
 14 15  1  0
 14 16  1  0
 16 17  1  0
 17 18  2  0
 18 19  1  0
 19 20  2  0
 20 21  1  0
 21 22  2  0
 16 23  1  0
 23 24  1  0
 13 25  1  0
 25 26  1  0
 26 27  1  0
 27 28  1  0
 28 29  2  0
 28 30  1  0
 30 31  1  0
 31 32  1  0
 31 33  1  0
 31 34  1  0
 27 35  1  0
 35 36  1  0
 36 37  1  0
  7  2  1  0
 11 37  1  6
 11  6  1  0
 23 12  2  0
 37 25  1  0
 22 17  1  0
  1 38  1  0
  1 39  1  0
  1 40  1  0
  3 41  1  0
  4 42  1  0
  5 43  1  0
  8 44  1  0
 15 45  1  0
 18 46  1  0
 19 47  1  0
 20 48  1  0
 21 49  1  0
 22 50  1  0
 24 51  1  0
 25 52  1  1
 26 53  1  0
 26 54  1  0
 32 55  1  0
 32 56  1  0
 32 57  1  0
 33 58  1  0
 33 59  1  0
 33 60  1  0
 34 61  1  0
 34 62  1  0
 34 63  1  0
 35 64  1  0
 35 65  1  0
 36 66  1  0
 36 67  1  0
M  END
$$$$
