
     RDKit          3D

 58 60  0  0  0  0  0  0  0  0999 V2000
    8.0863    3.8563   -1.0999 C   0  0  0  0  0  0  0  0  0  0  0  0
    6.9809    3.4223   -0.2274 C   0  0  0  0  0  0  0  0  0  0  0  0
    5.8080    2.7396   -0.4324 C   0  0  0  0  0  0  0  0  0  0  0  0
    5.2141    2.6609    0.8467 C   0  0  0  0  0  0  0  0  0  0  0  0
    4.0243    2.0822    1.2283 N   0  0  0  0  0  0  0  0  0  0  0  0
    3.1579    1.4200    0.3893 C   0  0  0  0  0  0  0  0  0  0  0  0
    3.3080    1.2554   -0.8176 O   0  0  0  0  0  0  0  0  0  0  0  0
    1.9429    0.8985    1.1298 C   0  0  0  0  0  0  0  0  0  0  0  0
    1.0576    0.0467    0.2243 C   0  0  0  0  0  0  0  0  0  0  0  0
   -0.0996   -0.5599    0.9922 C   0  0  0  0  0  0  0  0  0  0  0  0
   -0.3887   -0.1606    2.1233 O   0  0  0  0  0  0  0  0  0  0  0  0
   -0.8375   -1.5545    0.3701 N   0  0  0  0  0  0  0  0  0  0  0  0
   -1.9277   -2.1852    1.1307 C   0  0  0  0  0  0  0  0  0  0  0  0
   -3.2576   -1.4388    0.9812 C   0  0  0  0  0  0  0  0  0  0  0  0
   -4.2967   -2.0141    0.6684 O   0  0  0  0  0  0  0  0  0  0  0  0
   -3.1926   -0.0936    1.2942 N   0  0  0  0  0  0  0  0  0  0  0  0
   -4.3822    0.7239    1.3741 C   0  0  0  0  0  0  0  0  0  0  0  0
   -5.0732    0.9319    0.0180 C   0  0  0  0  0  0  0  0  0  0  0  0
   -5.4973    2.4006   -0.0276 C   0  0  0  0  0  0  0  0  0  0  0  0
   -5.2723    2.9352    1.3790 C   0  0  0  0  0  0  0  0  0  0  0  0
   -4.0783    2.1360    1.8690 C   0  0  0  0  0  0  0  0  0  0  0  0
   -0.8048   -1.8256   -1.0706 C   0  0  0  0  0  0  0  0  0  0  0  0
   -0.4519   -3.2611   -1.3872 C   0  0  0  0  0  0  0  0  0  0  0  0
    0.7805   -3.8028   -0.9860 C   0  0  0  0  0  0  0  0  0  0  0  0
    1.1028   -5.1274   -1.2863 C   0  0  0  0  0  0  0  0  0  0  0  0
    0.1969   -5.9112   -1.9885 C   0  0  0  0  0  0  0  0  0  0  0  0
    0.5086   -7.1817   -2.2775 F   0  0  0  0  0  0  0  0  0  0  0  0
   -1.0271   -5.3964   -2.3961 C   0  0  0  0  0  0  0  0  0  0  0  0
   -1.3527   -4.0722   -2.0965 C   0  0  0  0  0  0  0  0  0  0  0  0
    5.9790    3.2592    1.7662 N   0  0  0  0  0  0  0  0  0  0  0  0
    7.0897    3.7315    1.0912 O   0  0  0  0  0  0  0  0  0  0  0  0
    8.3171    4.9135   -0.9343 H   0  0  0  0  0  0  0  0  0  0  0  0
    8.9878    3.2687   -0.8962 H   0  0  0  0  0  0  0  0  0  0  0  0
    7.8263    3.7292   -2.1553 H   0  0  0  0  0  0  0  0  0  0  0  0
    5.4410    2.3555   -1.3726 H   0  0  0  0  0  0  0  0  0  0  0  0
    3.8264    2.1677    2.2164 H   0  0  0  0  0  0  0  0  0  0  0  0
    1.3793    1.7566    1.5160 H   0  0  0  0  0  0  0  0  0  0  0  0
    2.2851    0.3044    1.9863 H   0  0  0  0  0  0  0  0  0  0  0  0
    1.6570   -0.7575   -0.2148 H   0  0  0  0  0  0  0  0  0  0  0  0
    0.6524    0.6677   -0.5823 H   0  0  0  0  0  0  0  0  0  0  0  0
   -1.6757   -2.2147    2.1968 H   0  0  0  0  0  0  0  0  0  0  0  0
   -2.0577   -3.2191    0.7975 H   0  0  0  0  0  0  0  0  0  0  0  0
   -2.3642    0.1999    1.8129 H   0  0  0  0  0  0  0  0  0  0  0  0
   -5.0812    0.2331    2.0641 H   0  0  0  0  0  0  0  0  0  0  0  0
   -5.9458    0.2742   -0.0674 H   0  0  0  0  0  0  0  0  0  0  0  0
   -4.4140    0.7053   -0.8275 H   0  0  0  0  0  0  0  0  0  0  0  0
   -6.5355    2.5209   -0.3519 H   0  0  0  0  0  0  0  0  0  0  0  0
   -4.8626    2.9430   -0.7388 H   0  0  0  0  0  0  0  0  0  0  0  0
   -6.1486    2.7314    2.0057 H   0  0  0  0  0  0  0  0  0  0  0  0
   -5.0872    4.0131    1.3885 H   0  0  0  0  0  0  0  0  0  0  0  0
   -3.9667    2.1770    2.9572 H   0  0  0  0  0  0  0  0  0  0  0  0
   -3.1535    2.5224    1.4220 H   0  0  0  0  0  0  0  0  0  0  0  0
   -1.7934   -1.5703   -1.4720 H   0  0  0  0  0  0  0  0  0  0  0  0
   -0.0961   -1.1773   -1.5925 H   0  0  0  0  0  0  0  0  0  0  0  0
    1.4956   -3.1992   -0.4323 H   0  0  0  0  0  0  0  0  0  0  0  0
    2.0534   -5.5518   -0.9765 H   0  0  0  0  0  0  0  0  0  0  0  0
   -1.7200   -6.0273   -2.9418 H   0  0  0  0  0  0  0  0  0  0  0  0
   -2.3165   -3.6811   -2.4154 H   0  0  0  0  0  0  0  0  0  0  0  0
  1  2  1  0
  2  3  2  0
  3  4  1  0
  4  5  1  0
  5  6  1  0
  6  7  2  0
  6  8  1  0
  8  9  1  0
  9 10  1  0
 10 11  2  0
 10 12  1  0
 12 13  1  0
 13 14  1  0
 14 15  2  0
 14 16  1  0
 16 17  1  0
 17 18  1  0
 18 19  1  0
 19 20  1  0
 20 21  1  0
 12 22  1  0
 22 23  1  0
 23 24  2  0
 24 25  1  0
 25 26  2  0
 26 27  1  0
 26 28  1  0
 28 29  2  0
  4 30  2  0
 30 31  1  0
 31  2  1  0
 21 17  1  0
 29 23  1  0
  1 32  1  0
  1 33  1  0
  1 34  1  0
  3 35  1  0
  5 36  1  0
  8 37  1  0
  8 38  1  0
  9 39  1  0
  9 40  1  0
 13 41  1  0
 13 42  1  0
 16 43  1  0
 17 44  1  0
 18 45  1  0
 18 46  1  0
 19 47  1  0
 19 48  1  0
 20 49  1  0
 20 50  1  0
 21 51  1  0
 21 52  1  0
 22 53  1  0
 22 54  1  0
 24 55  1  0
 25 56  1  0
 28 57  1  0
 29 58  1  0
M  END
$$$$
