
     RDKit          3D

 69 75  0  0  0  0  0  0  0  0999 V2000
   -4.8654    5.0652    1.2248 C   0  0  0  0  0  0  0  0  0  0  0  0
   -4.0983    4.0891    0.3850 C   0  0  0  0  0  0  0  0  0  0  0  0
   -4.2638    4.0293   -1.0126 C   0  0  0  0  0  0  0  0  0  0  0  0
   -5.3709    5.0806   -1.8293 Cl  0  0  0  0  0  0  0  0  0  0  0  0
   -3.5354    3.1211   -1.8069 C   0  0  0  0  0  0  0  0  0  0  0  0
   -2.6211    2.2408   -1.2293 C   0  0  0  0  0  0  0  0  0  0  0  0
   -2.4570    2.2845    0.1454 C   0  0  0  0  0  0  0  0  0  0  0  0
   -3.1774    3.2009    0.9273 C   0  0  0  0  0  0  0  0  0  0  0  0
   -2.8038    3.0693    2.2655 N   0  0  0  0  0  0  0  0  0  0  0  0
   -1.8371    2.0754    2.4404 C   0  0  0  0  0  0  0  0  0  0  0  0
   -1.3231    1.7835    3.5106 O   0  0  0  0  0  0  0  0  0  0  0  0
   -1.5580    1.4830    1.0389 C   0  0  1  0  0  0  0  0  0  0  0  0
   -1.9010    0.0410    0.9387 C   0  0  0  0  0  0  0  0  0  0  0  0
   -0.7312   -0.7290    0.8455 C   0  0  0  0  0  0  0  0  0  0  0  0
   -1.0680   -2.0491    0.7590 C   0  0  0  0  0  0  0  0  0  0  0  0
   -0.2556   -3.1047    0.7520 O   0  0  0  0  0  0  0  0  0  0  0  0
   -2.4757   -2.1105    0.7688 N   0  0  0  0  0  0  0  0  0  0  0  0
   -3.2558   -3.3002    0.6813 C   0  0  0  0  0  0  0  0  0  0  0  0
   -2.8720   -4.3271   -0.1917 C   0  0  0  0  0  0  0  0  0  0  0  0
   -3.6416   -5.4884   -0.2795 C   0  0  0  0  0  0  0  0  0  0  0  0
   -4.7872   -5.6302    0.5027 C   0  0  0  0  0  0  0  0  0  0  0  0
   -5.1684   -4.6118    1.3758 C   0  0  0  0  0  0  0  0  0  0  0  0
   -4.4072   -3.4453    1.4667 C   0  0  0  0  0  0  0  0  0  0  0  0
   -2.9810   -0.7993    0.8825 C   0  0  0  0  0  0  0  0  0  0  0  0
   -4.2732   -0.4767    0.8601 O   0  0  0  0  0  0  0  0  0  0  0  0
    0.4649    0.1296    0.9488 C   0  0  1  0  0  0  0  0  0  0  0  0
    1.6066   -0.1164   -0.0406 C   0  0  0  0  0  0  0  0  0  0  0  0
    2.4904    1.0650   -0.1873 N   0  0  0  0  0  0  0  0  0  0  0  0
    3.5128    1.1755   -1.1093 C   0  0  0  0  0  0  0  0  0  0  0  0
    4.1994    2.1875   -1.2240 O   0  0  0  0  0  0  0  0  0  0  0  0
    3.6903    0.0786   -1.9104 N   0  0  0  0  0  0  0  0  0  0  0  0
    4.7657    0.0213   -2.8748 C   0  0  0  0  0  0  0  0  0  0  0  0
    5.9559   -0.7162   -2.3159 C   0  0  0  0  0  0  0  0  0  0  0  0
    6.1254   -2.0882   -2.5510 C   0  0  0  0  0  0  0  0  0  0  0  0
    7.2186   -2.7683   -2.0110 C   0  0  0  0  0  0  0  0  0  0  0  0
    8.1479   -2.0863   -1.2269 C   0  0  0  0  0  0  0  0  0  0  0  0
    7.9837   -0.7249   -0.9783 C   0  0  0  0  0  0  0  0  0  0  0  0
    6.8914   -0.0437   -1.5165 C   0  0  0  0  0  0  0  0  0  0  0  0
    2.2512    2.1785    0.7477 C   0  0  0  0  0  0  0  0  0  0  0  0
    0.7526    2.5734    0.8797 C   0  0  0  0  0  0  0  0  0  0  0  0
   -0.1363    1.4524    0.6425 N   0  0  0  0  0  0  0  0  0  0  0  0
   -4.5989    6.0914    0.9513 H   0  0  0  0  0  0  0  0  0  0  0  0
   -4.6613    4.9503    2.2928 H   0  0  0  0  0  0  0  0  0  0  0  0
   -5.9426    4.9203    1.0905 H   0  0  0  0  0  0  0  0  0  0  0  0
   -3.6812    3.1023   -2.8849 H   0  0  0  0  0  0  0  0  0  0  0  0
   -2.0535    1.5427   -1.8371 H   0  0  0  0  0  0  0  0  0  0  0  0
   -3.1618    3.6062    3.0396 H   0  0  0  0  0  0  0  0  0  0  0  0
   -0.7459   -3.8799    1.0812 H   0  0  0  0  0  0  0  0  0  0  0  0
   -2.0069   -4.2240   -0.8444 H   0  0  0  0  0  0  0  0  0  0  0  0
   -3.3542   -6.2805   -0.9675 H   0  0  0  0  0  0  0  0  0  0  0  0
   -5.3839   -6.5368    0.4327 H   0  0  0  0  0  0  0  0  0  0  0  0
   -6.0547   -4.7322    1.9944 H   0  0  0  0  0  0  0  0  0  0  0  0
   -4.7020   -2.6850    2.1884 H   0  0  0  0  0  0  0  0  0  0  0  0
   -4.7755   -1.1980    0.4408 H   0  0  0  0  0  0  0  0  0  0  0  0
    0.8344    0.1127    1.9832 H   0  0  0  0  0  0  0  0  0  0  0  0
    2.2207   -0.9592    0.2975 H   0  0  0  0  0  0  0  0  0  0  0  0
    1.2197   -0.3679   -1.0363 H   0  0  0  0  0  0  0  0  0  0  0  0
    3.4032   -0.8065   -1.5310 H   0  0  0  0  0  0  0  0  0  0  0  0
    5.0557    1.0261   -3.2020 H   0  0  0  0  0  0  0  0  0  0  0  0
    4.3790   -0.5032   -3.7559 H   0  0  0  0  0  0  0  0  0  0  0  0
    5.4076   -2.6355   -3.1577 H   0  0  0  0  0  0  0  0  0  0  0  0
    7.3453   -3.8312   -2.2005 H   0  0  0  0  0  0  0  0  0  0  0  0
    8.9984   -2.6158   -0.8060 H   0  0  0  0  0  0  0  0  0  0  0  0
    8.7029   -0.1917   -0.3621 H   0  0  0  0  0  0  0  0  0  0  0  0
    6.7649    1.0180   -1.3065 H   0  0  0  0  0  0  0  0  0  0  0  0
    2.8372    3.0627    0.4773 H   0  0  0  0  0  0  0  0  0  0  0  0
    2.6220    1.8354    1.7221 H   0  0  0  0  0  0  0  0  0  0  0  0
    0.6100    3.0191    1.8700 H   0  0  0  0  0  0  0  0  0  0  0  0
    0.5300    3.3510    0.1400 H   0  0  0  0  0  0  0  0  0  0  0  0
  1  2  1  0
  2  3  2  0
  3  4  1  0
  3  5  1  0
  5  6  2  0
  6  7  1  0
  7  8  2  0
  8  9  1  0
  9 10  1  0
 10 11  2  0
 10 12  1  0
 12 13  1  0
 13 14  1  0
 14 15  2  0
 15 16  1  0
 15 17  1  0
 17 18  1  0
 18 19  2  0
 19 20  1  0
 20 21  2  0
 21 22  1  0
 22 23  2  0
 17 24  1  0
 24 25  1  0
 14 26  1  0
 26 27  1  0
 27 28  1  0
 28 29  1  0
 29 30  2  0
 29 31  1  0
 31 32  1  0
 32 33  1  0
 33 34  2  0
 34 35  1  0
 35 36  2  0
 36 37  1  0
 37 38  2  0
 28 39  1  0
 39 40  1  0
 40 41  1  0
  8  2  1  0
 12 41  1  6
 12  7  1  0
 24 13  2  0
 41 26  1  0
 23 18  1  0
 38 33  1  0
  1 42  1  0
  1 43  1  0
  1 44  1  0
  5 45  1  0
  6 46  1  0
  9 47  1  0
 16 48  1  0
 19 49  1  0
 20 50  1  0
 21 51  1  0
 22 52  1  0
 23 53  1  0
 25 54  1  0
 26 55  1  1
 27 56  1  0
 27 57  1  0
 31 58  1  0
 32 59  1  0
 32 60  1  0
 34 61  1  0
 35 62  1  0
 36 63  1  0
 37 64  1  0
 38 65  1  0
 39 66  1  0
 39 67  1  0
 40 68  1  0
 40 69  1  0
M  END
$$$$
