
     RDKit          3D

 46 48  0  0  0  0  0  0  0  0999 V2000
   -1.8945   -2.1929    1.9408 C   0  0  0  0  0  0  0  0  0  0  0  0
   -1.9744   -0.6777    1.9198 C   0  0  0  0  0  0  0  0  0  0  0  0
   -2.5581   -0.2154    0.6241 N   0  0  0  0  0  4  0  0  0  0  0  0
   -1.7187    0.1288   -0.3992 C   0  0  0  0  0  0  0  0  0  0  0  0
   -0.2651   -0.0456   -0.2811 C   0  0  0  0  0  0  0  0  0  0  0  0
    0.5732    1.0008   -0.2015 C   0  0  0  0  0  0  0  0  0  0  0  0
    2.0375    0.8827   -0.1042 C   0  0  0  0  0  0  0  0  0  0  0  0
    2.8252    1.9001   -0.6532 C   0  0  0  0  0  0  0  0  0  0  0  0
    4.2198    1.8604   -0.5541 C   0  0  0  0  0  0  0  0  0  0  0  0
    4.8510    0.8030    0.1035 C   0  0  0  0  0  0  0  0  0  0  0  0
    6.2086    0.6770    0.2506 O   0  0  0  0  0  0  0  0  0  0  0  0
    7.0322    1.7059   -0.2799 C   0  0  0  0  0  0  0  0  0  0  0  0
    4.0697   -0.2260    0.6626 C   0  0  0  0  0  0  0  0  0  0  0  0
    4.7579   -1.2202    1.3127 O   0  0  0  0  0  0  0  0  0  0  0  0
    4.0728   -2.4362    1.5740 C   0  0  0  0  0  0  0  0  0  0  0  0
    2.6718   -0.1728    0.5672 C   0  0  0  0  0  0  0  0  0  0  0  0
   -2.2233    0.6277   -1.6002 C   0  0  0  0  0  0  0  0  0  0  0  0
   -3.5860    0.7793   -1.7708 C   0  0  0  0  0  0  0  0  0  0  0  0
   -4.4463    0.4165   -0.7425 C   0  0  0  0  0  0  0  0  0  0  0  0
   -5.8309    0.5564   -0.9191 C   0  0  0  0  0  0  0  0  0  0  0  0
   -6.7162    0.1894    0.0899 C   0  0  0  0  0  0  0  0  0  0  0  0
   -6.2273   -0.3237    1.2831 C   0  0  0  0  0  0  0  0  0  0  0  0
   -4.8486   -0.4669    1.4744 C   0  0  0  0  0  0  0  0  0  0  0  0
   -3.9231   -0.0972    0.4772 C   0  0  0  0  0  0  0  0  0  0  0  0
   -1.4634   -2.5351    2.8867 H   0  0  0  0  0  0  0  0  0  0  0  0
   -2.8822   -2.6506    1.8332 H   0  0  0  0  0  0  0  0  0  0  0  0
   -1.2687   -2.5702    1.1264 H   0  0  0  0  0  0  0  0  0  0  0  0
   -0.9858   -0.2311    2.0584 H   0  0  0  0  0  0  0  0  0  0  0  0
   -2.5762   -0.2832    2.7431 H   0  0  0  0  0  0  0  0  0  0  0  0
    0.0944   -1.0709   -0.2902 H   0  0  0  0  0  0  0  0  0  0  0  0
    0.1958    2.0232   -0.2270 H   0  0  0  0  0  0  0  0  0  0  0  0
    2.3690    2.7417   -1.1715 H   0  0  0  0  0  0  0  0  0  0  0  0
    4.7849    2.6724   -1.0006 H   0  0  0  0  0  0  0  0  0  0  0  0
    6.8214    2.6671    0.2000 H   0  0  0  0  0  0  0  0  0  0  0  0
    6.9263    1.7742   -1.3674 H   0  0  0  0  0  0  0  0  0  0  0  0
    8.0731    1.4469   -0.0629 H   0  0  0  0  0  0  0  0  0  0  0  0
    4.8079   -3.1680    1.9234 H   0  0  0  0  0  0  0  0  0  0  0  0
    3.3333   -2.3022    2.3704 H   0  0  0  0  0  0  0  0  0  0  0  0
    3.6072   -2.8376    0.6675 H   0  0  0  0  0  0  0  0  0  0  0  0
    2.0727   -0.9420    1.0388 H   0  0  0  0  0  0  0  0  0  0  0  0
   -1.5521    0.8945   -2.4159 H   0  0  0  0  0  0  0  0  0  0  0  0
   -3.9661    1.1702   -2.7144 H   0  0  0  0  0  0  0  0  0  0  0  0
   -6.2404    0.9516   -1.8490 H   0  0  0  0  0  0  0  0  0  0  0  0
   -7.7895    0.3006   -0.0586 H   0  0  0  0  0  0  0  0  0  0  0  0
   -6.9233   -0.6169    2.0683 H   0  0  0  0  0  0  0  0  0  0  0  0
   -4.5456   -0.8880    2.4279 H   0  0  0  0  0  0  0  0  0  0  0  0
  1  2  1  0
  2  3  1  0
  3  4  2  0
  4  5  1  0
  5  6  2  3
  6  7  1  0
  7  8  2  0
  8  9  1  0
  9 10  2  0
 10 11  1  0
 11 12  1  0
 10 13  1  0
 13 14  1  0
 14 15  1  0
 13 16  2  0
  4 17  1  0
 17 18  2  0
 18 19  1  0
 19 20  2  0
 20 21  1  0
 21 22  2  0
 22 23  1  0
 23 24  2  0
 24  3  1  0
 16  7  1  0
 24 19  1  0
  1 25  1  0
  1 26  1  0
  1 27  1  0
  2 28  1  0
  2 29  1  0
  5 30  1  0
  6 31  1  0
  8 32  1  0
  9 33  1  0
 12 34  1  0
 12 35  1  0
 12 36  1  0
 15 37  1  0
 15 38  1  0
 15 39  1  0
 16 40  1  0
 17 41  1  0
 18 42  1  0
 20 43  1  0
 21 44  1  0
 22 45  1  0
 23 46  1  0
M  CHG  1   3   1
M  END
$$$$
