
     RDKit          3D

 53 56  0  0  0  0  0  0  0  0999 V2000
   -9.1939   -0.9339    1.6162 C   0  0  0  0  0  0  0  0  0  0  0  0
   -8.8272   -0.6562    0.2698 O   0  0  0  0  0  0  0  0  0  0  0  0
   -7.5466   -0.2278    0.0530 C   0  0  0  0  0  0  0  0  0  0  0  0
   -7.2362    0.0275   -1.2844 C   0  0  0  0  0  0  0  0  0  0  0  0
   -5.9657    0.4734   -1.6476 C   0  0  0  0  0  0  0  0  0  0  0  0
   -4.9887    0.6669   -0.6707 C   0  0  0  0  0  0  0  0  0  0  0  0
   -5.2828    0.4086    0.6733 C   0  0  0  0  0  0  0  0  0  0  0  0
   -4.2810    0.6081    1.7657 C   0  0  0  0  0  0  0  0  0  0  0  0
   -4.6634    0.6110    2.9370 O   0  0  0  0  0  0  0  0  0  0  0  0
   -2.8199    0.8524    1.4167 C   0  0  0  0  0  0  0  0  0  0  0  0
   -2.3320   -0.1846    0.5768 O   0  0  0  0  0  0  0  0  0  0  0  0
   -1.0367   -0.0869    0.1553 C   0  0  0  0  0  0  0  0  0  0  0  0
   -0.6198   -1.1105   -0.6961 C   0  0  0  0  0  0  0  0  0  0  0  0
    0.6853   -1.1363   -1.2068 C   0  0  0  0  0  0  0  0  0  0  0  0
    1.6077   -0.1345   -0.8784 C   0  0  0  0  0  0  0  0  0  0  0  0
    3.0026   -0.1026   -1.3657 C   0  0  0  0  0  0  0  0  0  0  0  0
    3.4298   -1.2330   -2.2679 C   0  0  0  0  0  0  0  0  0  0  0  0
    3.8151    0.9058   -0.9719 C   0  0  0  0  0  0  0  0  0  0  0  0
    5.2711    1.0674   -1.3647 C   0  0  0  0  0  0  0  0  0  0  0  0
    6.2334    0.4948   -0.3437 C   0  0  0  0  0  0  0  0  0  0  0  0
    6.6539   -0.8410   -0.4187 C   0  0  0  0  0  0  0  0  0  0  0  0
    7.5272   -1.3669    0.5359 C   0  0  0  0  0  0  0  0  0  0  0  0
    7.9891   -0.5655    1.5773 C   0  0  0  0  0  0  0  0  0  0  0  0
    7.5795    0.7626    1.6644 C   0  0  0  0  0  0  0  0  0  0  0  0
    6.7073    1.2898    0.7104 C   0  0  0  0  0  0  0  0  0  0  0  0
    3.3061    2.0213   -0.1207 C   0  0  0  0  0  0  0  0  0  0  0  0
    3.9897    3.0038    0.1492 O   0  0  0  0  0  0  0  0  0  0  0  0
    2.0098    1.9249    0.3523 O   0  0  0  0  0  0  0  0  0  0  0  0
    1.1649    0.8726   -0.0272 C   0  0  0  0  0  0  0  0  0  0  0  0
   -0.1339    0.9135    0.4943 C   0  0  0  0  0  0  0  0  0  0  0  0
   -6.5686   -0.0346    1.0294 C   0  0  0  0  0  0  0  0  0  0  0  0
   -9.1313   -0.0333    2.2359 H   0  0  0  0  0  0  0  0  0  0  0  0
  -10.2362   -1.2664    1.6163 H   0  0  0  0  0  0  0  0  0  0  0  0
   -8.5862   -1.7444    2.0316 H   0  0  0  0  0  0  0  0  0  0  0  0
   -7.9948   -0.1215   -2.0497 H   0  0  0  0  0  0  0  0  0  0  0  0
   -5.7399    0.6700   -2.6929 H   0  0  0  0  0  0  0  0  0  0  0  0
   -4.0113    1.0200   -0.9862 H   0  0  0  0  0  0  0  0  0  0  0  0
   -2.7450    1.8356    0.9371 H   0  0  0  0  0  0  0  0  0  0  0  0
   -2.2567    0.8587    2.3581 H   0  0  0  0  0  0  0  0  0  0  0  0
   -1.3150   -1.9034   -0.9652 H   0  0  0  0  0  0  0  0  0  0  0  0
    0.9514   -1.9630   -1.8599 H   0  0  0  0  0  0  0  0  0  0  0  0
    2.7973   -1.2715   -3.1621 H   0  0  0  0  0  0  0  0  0  0  0  0
    3.3602   -2.1919   -1.7422 H   0  0  0  0  0  0  0  0  0  0  0  0
    4.4554   -1.1496   -2.6293 H   0  0  0  0  0  0  0  0  0  0  0  0
    5.4765    0.6155   -2.3417 H   0  0  0  0  0  0  0  0  0  0  0  0
    5.5126    2.1254   -1.5349 H   0  0  0  0  0  0  0  0  0  0  0  0
    6.3109   -1.4857   -1.2228 H   0  0  0  0  0  0  0  0  0  0  0  0
    7.8472   -2.4032    0.4669 H   0  0  0  0  0  0  0  0  0  0  0  0
    8.6677   -0.9751    2.3207 H   0  0  0  0  0  0  0  0  0  0  0  0
    7.9367    1.3910    2.4762 H   0  0  0  0  0  0  0  0  0  0  0  0
    6.3986    2.3304    0.7978 H   0  0  0  0  0  0  0  0  0  0  0  0
   -0.3950    1.7322    1.1559 H   0  0  0  0  0  0  0  0  0  0  0  0
   -6.7797   -0.2230    2.0780 H   0  0  0  0  0  0  0  0  0  0  0  0
  1  2  1  0
  2  3  1  0
  3  4  2  0
  4  5  1  0
  5  6  2  0
  6  7  1  0
  7  8  1  0
  8  9  2  0
  8 10  1  0
 10 11  1  0
 11 12  1  0
 12 13  2  0
 13 14  1  0
 14 15  2  0
 15 16  1  0
 16 17  1  0
 16 18  2  0
 18 19  1  0
 19 20  1  0
 20 21  2  0
 21 22  1  0
 22 23  2  0
 23 24  1  0
 24 25  2  0
 18 26  1  0
 26 27  2  0
 26 28  1  0
 28 29  1  0
 29 30  2  0
  7 31  2  0
 31  3  1  0
 30 12  1  0
 29 15  1  0
 25 20  1  0
  1 32  1  0
  1 33  1  0
  1 34  1  0
  4 35  1  0
  5 36  1  0
  6 37  1  0
 10 38  1  0
 10 39  1  0
 13 40  1  0
 14 41  1  0
 17 42  1  0
 17 43  1  0
 17 44  1  0
 19 45  1  0
 19 46  1  0
 21 47  1  0
 22 48  1  0
 23 49  1  0
 24 50  1  0
 25 51  1  0
 30 52  1  0
 31 53  1  0
M  END
$$$$
