
     RDKit          3D

 48 50  0  0  0  0  0  0  0  0999 V2000
   -1.9616    1.2424    3.8146 C   0  0  0  0  0  0  0  0  0  0  0  0
   -2.0425    1.4128    2.3987 O   0  0  0  0  0  0  0  0  0  0  0  0
   -3.2984    1.7083    1.9452 C   0  0  0  0  0  0  0  0  0  0  0  0
   -4.2844    1.8268    2.6634 O   0  0  0  0  0  0  0  0  0  0  0  0
   -3.3249    1.8459    0.4160 C   0  0  0  0  0  0  0  0  0  0  0  0
   -4.3353    0.8510   -0.1866 C   0  0  0  0  0  0  0  0  0  0  0  0
   -3.9207   -0.6002   -0.0579 C   0  0  0  0  0  0  0  0  0  0  0  0
   -4.2485   -1.3380    1.0880 C   0  0  0  0  0  0  0  0  0  0  0  0
   -3.8356   -2.6649    1.2164 C   0  0  0  0  0  0  0  0  0  0  0  0
   -3.0955   -3.2679    0.2013 C   0  0  0  0  0  0  0  0  0  0  0  0
   -2.7721   -2.5469   -0.9462 C   0  0  0  0  0  0  0  0  0  0  0  0
   -3.1839   -1.2202   -1.0771 C   0  0  0  0  0  0  0  0  0  0  0  0
   -1.9885    1.7154   -0.1720 N   0  0  0  0  0  0  0  0  0  0  0  0
   -1.6946    2.1896   -1.4336 C   0  0  0  0  0  0  0  0  0  0  0  0
   -2.5279    2.8103   -2.0896 O   0  0  0  0  0  0  0  0  0  0  0  0
   -0.3435    1.8810   -1.9226 C   0  0  0  0  0  0  0  0  0  0  0  0
    0.7356    1.2436   -1.2505 C   0  0  0  0  0  0  0  0  0  0  0  0
    1.7562    1.2060   -2.1701 C   0  0  0  0  0  0  0  0  0  0  0  0
    3.1503    0.7017   -2.1740 C   0  0  0  0  0  0  0  0  0  0  0  0
    3.3660    0.0691   -0.9130 O   0  0  0  0  0  0  0  0  0  0  0  0
    4.5979   -0.4793   -0.6818 C   0  0  0  0  0  0  0  0  0  0  0  0
    4.7570   -1.0854    0.5682 C   0  0  0  0  0  0  0  0  0  0  0  0
    3.7373   -1.0971    1.4410 F   0  0  0  0  0  0  0  0  0  0  0  0
    5.9577   -1.6872    0.9449 C   0  0  0  0  0  0  0  0  0  0  0  0
    7.0349   -1.6911    0.0625 C   0  0  0  0  0  0  0  0  0  0  0  0
    6.8979   -1.0920   -1.1886 C   0  0  0  0  0  0  0  0  0  0  0  0
    5.6890   -0.4935   -1.5522 C   0  0  0  0  0  0  0  0  0  0  0  0
    5.6187    0.0656   -2.7686 F   0  0  0  0  0  0  0  0  0  0  0  0
    1.3296    1.7828   -3.3227 O   0  0  0  0  0  0  0  0  0  0  0  0
    0.0250    2.2040   -3.1749 N   0  0  0  0  0  0  0  0  0  0  0  0
   -2.5828    0.3997    4.1339 H   0  0  0  0  0  0  0  0  0  0  0  0
   -2.2577    2.1614    4.3298 H   0  0  0  0  0  0  0  0  0  0  0  0
   -0.9215    1.0222    4.0699 H   0  0  0  0  0  0  0  0  0  0  0  0
   -3.6645    2.8687    0.2097 H   0  0  0  0  0  0  0  0  0  0  0  0
   -5.3188    0.9802    0.2840 H   0  0  0  0  0  0  0  0  0  0  0  0
   -4.4893    1.0769   -1.2497 H   0  0  0  0  0  0  0  0  0  0  0  0
   -4.8336   -0.8877    1.8883 H   0  0  0  0  0  0  0  0  0  0  0  0
   -4.0969   -3.2303    2.1073 H   0  0  0  0  0  0  0  0  0  0  0  0
   -2.7786   -4.3027    0.3005 H   0  0  0  0  0  0  0  0  0  0  0  0
   -2.2042   -3.0198   -1.7436 H   0  0  0  0  0  0  0  0  0  0  0  0
   -2.9314   -0.6748   -1.9847 H   0  0  0  0  0  0  0  0  0  0  0  0
   -1.3406    1.1145    0.3202 H   0  0  0  0  0  0  0  0  0  0  0  0
    0.7798    0.8633   -0.2410 H   0  0  0  0  0  0  0  0  0  0  0  0
    3.2666   -0.0218   -2.9888 H   0  0  0  0  0  0  0  0  0  0  0  0
    3.8352    1.5480   -2.2998 H   0  0  0  0  0  0  0  0  0  0  0  0
    6.0403   -2.1476    1.9250 H   0  0  0  0  0  0  0  0  0  0  0  0
    7.9750   -2.1574    0.3471 H   0  0  0  0  0  0  0  0  0  0  0  0
    7.7278   -1.0852   -1.8902 H   0  0  0  0  0  0  0  0  0  0  0  0
  1  2  1  0
  2  3  1  0
  3  4  2  0
  3  5  1  0
  5  6  1  0
  6  7  1  0
  7  8  2  0
  8  9  1  0
  9 10  2  0
 10 11  1  0
 11 12  2  0
  5 13  1  0
 13 14  1  0
 14 15  2  0
 14 16  1  0
 16 17  1  0
 17 18  2  0
 18 19  1  0
 19 20  1  0
 20 21  1  0
 21 22  2  0
 22 23  1  0
 22 24  1  0
 24 25  2  0
 25 26  1  0
 26 27  2  0
 27 28  1  0
 18 29  1  0
 29 30  1  0
 12  7  1  0
 30 16  2  0
 27 21  1  0
  1 31  1  0
  1 32  1  0
  1 33  1  0
  5 34  1  0
  6 35  1  0
  6 36  1  0
  8 37  1  0
  9 38  1  0
 10 39  1  0
 11 40  1  0
 12 41  1  0
 13 42  1  0
 17 43  1  0
 19 44  1  0
 19 45  1  0
 24 46  1  0
 25 47  1  0
 26 48  1  0
M  END
$$$$
