
     RDKit          3D

 61 65  0  0  0  0  0  0  0  0999 V2000
   -6.0948   -3.3953   -4.1322 C   0  0  0  0  0  0  0  0  0  0  0  0
   -5.2720   -2.6308   -3.1385 C   0  0  0  0  0  0  0  0  0  0  0  0
   -5.8769   -1.6998   -2.2898 C   0  0  0  0  0  0  0  0  0  0  0  0
   -5.1219   -1.0103   -1.3359 C   0  0  0  0  0  0  0  0  0  0  0  0
   -3.7441   -1.2378   -1.2070 C   0  0  0  0  0  0  0  0  0  0  0  0
   -2.9702   -0.5484   -0.2114 N   0  0  0  0  0  0  0  0  0  0  0  0
   -3.0275    0.8329   -0.0179 C   0  0  0  0  0  0  0  0  0  0  0  0
   -3.7925    1.8764   -1.2128 S   0  0  0  0  0  0  0  0  0  0  0  0
   -2.4850    1.8830   -2.4763 C   0  0  0  0  0  0  0  0  0  0  0  0
   -1.1372    2.2830   -1.8878 C   0  0  0  0  0  0  0  0  0  0  0  0
   -0.8586    3.4631   -1.6889 O   0  0  0  0  0  0  0  0  0  0  0  0
   -0.3348    1.1859   -1.6028 N   0  0  0  0  0  0  0  0  0  0  0  0
    0.9053    1.1858   -0.9329 C   0  0  0  0  0  0  0  0  0  0  0  0
    1.5641    2.3318   -0.5021 C   0  0  0  0  0  0  0  0  0  0  0  0
    2.8039    2.2344    0.1436 C   0  0  0  0  0  0  0  0  0  0  0  0
    3.4231    0.9984    0.3745 C   0  0  0  0  0  0  0  0  0  0  0  0
    4.6888    0.9766    0.9728 N   0  0  0  0  0  0  0  0  0  0  0  0
    5.5611   -0.1844    0.7074 C   0  0  0  0  0  0  0  0  0  0  0  0
    6.9740    0.1139    1.2348 C   0  0  0  0  0  0  0  0  0  0  0  0
    6.9502    0.4045    2.6460 O   0  0  0  0  0  0  0  0  0  0  0  0
    6.1219    1.5556    2.8962 C   0  0  0  0  0  0  0  0  0  0  0  0
    4.6766    1.3409    2.4099 C   0  0  0  0  0  0  0  0  0  0  0  0
    2.7368   -0.1455   -0.0391 C   0  0  0  0  0  0  0  0  0  0  0  0
    1.4942   -0.0560   -0.6821 C   0  0  0  0  0  0  0  0  0  0  0  0
   -2.4545    1.4630    0.9537 N   0  0  0  0  0  0  0  0  0  0  0  0
   -1.6817    0.7414    1.8613 C   0  0  0  0  0  0  0  0  0  0  0  0
   -1.0488    1.4238    2.9019 C   0  0  0  0  0  0  0  0  0  0  0  0
   -0.2520    0.7385    3.8220 C   0  0  0  0  0  0  0  0  0  0  0  0
   -0.0824   -0.6407    3.7058 C   0  0  0  0  0  0  0  0  0  0  0  0
   -0.6987   -1.3279    2.6621 C   0  0  0  0  0  0  0  0  0  0  0  0
   -1.4896   -0.6288    1.7413 C   0  0  0  0  0  0  0  0  0  0  0  0
   -2.1432   -1.3219    0.6169 C   0  0  0  0  0  0  0  0  0  0  0  0
   -1.9204   -2.5258    0.4885 O   0  0  0  0  0  0  0  0  0  0  0  0
   -3.1500   -2.1929   -2.0443 C   0  0  0  0  0  0  0  0  0  0  0  0
   -3.9056   -2.8787   -3.0015 C   0  0  0  0  0  0  0  0  0  0  0  0
   -6.8308   -2.7400   -4.6130 H   0  0  0  0  0  0  0  0  0  0  0  0
   -5.4651   -3.8157   -4.9237 H   0  0  0  0  0  0  0  0  0  0  0  0
   -6.6191   -4.2171   -3.6305 H   0  0  0  0  0  0  0  0  0  0  0  0
   -6.9459   -1.5147   -2.3519 H   0  0  0  0  0  0  0  0  0  0  0  0
   -5.6420   -0.3204   -0.6738 H   0  0  0  0  0  0  0  0  0  0  0  0
   -2.7437    2.6030   -3.2598 H   0  0  0  0  0  0  0  0  0  0  0  0
   -2.4257    0.8997   -2.9537 H   0  0  0  0  0  0  0  0  0  0  0  0
   -0.6914    0.2737   -1.8530 H   0  0  0  0  0  0  0  0  0  0  0  0
    1.1588    3.3235   -0.6649 H   0  0  0  0  0  0  0  0  0  0  0  0
    3.3112    3.1519    0.4328 H   0  0  0  0  0  0  0  0  0  0  0  0
    5.1727   -1.0753    1.2202 H   0  0  0  0  0  0  0  0  0  0  0  0
    5.6162   -0.3834   -0.3712 H   0  0  0  0  0  0  0  0  0  0  0  0
    7.4237    0.9620    0.7015 H   0  0  0  0  0  0  0  0  0  0  0  0
    7.6230   -0.7569    1.0875 H   0  0  0  0  0  0  0  0  0  0  0  0
    6.1274    1.7329    3.9782 H   0  0  0  0  0  0  0  0  0  0  0  0
    6.5699    2.4306    2.4065 H   0  0  0  0  0  0  0  0  0  0  0  0
    4.2198    0.5255    2.9856 H   0  0  0  0  0  0  0  0  0  0  0  0
    4.1060    2.2584    2.5930 H   0  0  0  0  0  0  0  0  0  0  0  0
    3.1470   -1.1342    0.1348 H   0  0  0  0  0  0  0  0  0  0  0  0
    1.0038   -0.9788   -0.9813 H   0  0  0  0  0  0  0  0  0  0  0  0
   -1.1709    2.5018    2.9871 H   0  0  0  0  0  0  0  0  0  0  0  0
    0.2357    1.2822    4.6262 H   0  0  0  0  0  0  0  0  0  0  0  0
    0.5332   -1.1767    4.4220 H   0  0  0  0  0  0  0  0  0  0  0  0
   -0.5659   -2.4034    2.5689 H   0  0  0  0  0  0  0  0  0  0  0  0
   -2.0881   -2.4184   -1.9738 H   0  0  0  0  0  0  0  0  0  0  0  0
   -3.4171   -3.6181   -3.6293 H   0  0  0  0  0  0  0  0  0  0  0  0
  1  2  1  0
  2  3  2  0
  3  4  1  0
  4  5  2  0
  5  6  1  0
  6  7  1  0
  7  8  1  0
  8  9  1  0
  9 10  1  0
 10 11  2  0
 10 12  1  0
 12 13  1  0
 13 14  2  0
 14 15  1  0
 15 16  2  0
 16 17  1  0
 17 18  1  0
 18 19  1  0
 19 20  1  0
 20 21  1  0
 21 22  1  0
 16 23  1  0
 23 24  2  0
  7 25  2  0
 25 26  1  0
 26 27  2  0
 27 28  1  0
 28 29  2  0
 29 30  1  0
 30 31  2  0
 31 32  1  0
 32 33  2  0
  5 34  1  0
 34 35  2  0
 35  2  1  0
 32  6  1  0
 24 13  1  0
 31 26  1  0
 22 17  1  0
  1 36  1  0
  1 37  1  0
  1 38  1  0
  3 39  1  0
  4 40  1  0
  9 41  1  0
  9 42  1  0
 12 43  1  0
 14 44  1  0
 15 45  1  0
 18 46  1  0
 18 47  1  0
 19 48  1  0
 19 49  1  0
 21 50  1  0
 21 51  1  0
 22 52  1  0
 22 53  1  0
 23 54  1  0
 24 55  1  0
 27 56  1  0
 28 57  1  0
 29 58  1  0
 30 59  1  0
 34 60  1  0
 35 61  1  0
M  END
$$$$
