
     RDKit          3D

114117  0  0  0  0  0  0  0  0999 V2000
   -1.1268   -3.7363   -3.5556 C   0  0  0  0  0  0  0  0  0  0  0  0
   -0.5476   -4.7241   -2.5380 C   0  0  0  0  0  0  0  0  0  0  0  0
    0.3975   -5.7144   -3.2189 C   0  0  0  0  0  0  0  0  0  0  0  0
    0.0925   -4.0582   -1.2992 C   0  0  0  0  0  0  0  0  0  0  0  0
   -0.8879   -3.2070   -0.6634 O   0  0  0  0  0  0  0  0  0  0  0  0
   -1.5908   -3.7417    0.3702 C   0  0  0  0  0  0  0  0  0  0  0  0
   -1.4871   -4.9082    0.7312 O   0  0  0  0  0  0  0  0  0  0  0  0
   -2.4059   -2.6689    1.1278 C   0  0  0  0  0  0  0  0  0  0  0  0
   -3.6579   -3.2626    1.8176 C   0  0  0  0  0  0  0  0  0  0  0  0
   -4.8103   -3.6143    0.9056 C   0  0  0  0  0  0  0  0  0  0  0  0
   -5.9098   -2.7515    0.7898 C   0  0  0  0  0  0  0  0  0  0  0  0
   -6.9562   -3.0469   -0.0843 C   0  0  0  0  0  0  0  0  0  0  0  0
   -6.9221   -4.2167   -0.8404 C   0  0  0  0  0  0  0  0  0  0  0  0
   -5.8452   -5.0920   -0.7169 C   0  0  0  0  0  0  0  0  0  0  0  0
   -4.7987   -4.7985    0.1561 C   0  0  0  0  0  0  0  0  0  0  0  0
   -2.6701   -1.3766    0.4367 N   0  0  0  0  0  0  0  0  0  0  0  0
   -3.2309   -1.4198   -0.9090 C   0  0  0  0  0  0  0  0  0  0  0  0
   -2.5610   -0.1972    1.1780 C   0  0  0  0  0  0  0  0  0  0  0  0
   -2.2064   -0.2307    2.3601 O   0  0  0  0  0  0  0  0  0  0  0  0
   -2.9165    1.1498    0.4904 C   0  0  0  0  0  0  0  0  0  0  0  0
   -3.9791    1.9559    1.2901 C   0  0  0  0  0  0  0  0  0  0  0  0
   -3.4772    2.5336    2.6146 C   0  0  0  0  0  0  0  0  0  0  0  0
   -5.2625    1.1542    1.5068 C   0  0  0  0  0  0  0  0  0  0  0  0
   -1.6957    1.9070    0.3521 O   0  0  0  0  0  0  0  0  0  0  0  0
   -1.7146    2.9048   -0.5714 C   0  0  0  0  0  0  0  0  0  0  0  0
   -2.6841    3.1561   -1.2768 O   0  0  0  0  0  0  0  0  0  0  0  0
   -0.4225    3.7430   -0.6029 C   0  0  0  0  0  0  0  0  0  0  0  0
   -0.7999    5.2260   -0.3827 C   0  0  0  0  0  0  0  0  0  0  0  0
    0.3560    6.2004   -0.4634 C   0  0  0  0  0  0  0  0  0  0  0  0
    0.5497    7.1429    0.5566 C   0  0  0  0  0  0  0  0  0  0  0  0
    1.5975    8.0619    0.4845 C   0  0  0  0  0  0  0  0  0  0  0  0
    2.4591    8.0558   -0.6093 C   0  0  0  0  0  0  0  0  0  0  0  0
    2.2698    7.1334   -1.6331 C   0  0  0  0  0  0  0  0  0  0  0  0
    1.2201    6.2161   -1.5672 C   0  0  0  0  0  0  0  0  0  0  0  0
    0.6913    3.2967    0.2770 N   0  0  0  0  0  0  0  0  0  0  0  0
    0.4825    3.2962    1.7195 C   0  0  0  0  0  0  0  0  0  0  0  0
    1.7176    2.5686   -0.3183 C   0  0  0  0  0  0  0  0  0  0  0  0
    1.6980    2.3015   -1.5255 O   0  0  0  0  0  0  0  0  0  0  0  0
    2.9149    2.0919    0.5481 C   0  0  0  0  0  0  0  0  0  0  0  0
    4.1268    3.0530    0.4904 C   0  0  0  0  0  0  0  0  0  0  0  0
    3.8751    4.3717    1.2177 C   0  0  0  0  0  0  0  0  0  0  0  0
    4.6214    3.3218   -0.9351 C   0  0  0  0  0  0  0  0  0  0  0  0
    3.3655    0.8204    0.0269 O   0  0  0  0  0  0  0  0  0  0  0  0
    2.4670   -0.1925    0.1789 C   0  0  0  0  0  0  0  0  0  0  0  0
    1.4608   -0.0980    0.8731 O   0  0  0  0  0  0  0  0  0  0  0  0
    2.8129   -1.3938   -0.7183 C   0  0  0  0  0  0  0  0  0  0  0  0
    4.3137   -1.7382   -0.7990 C   0  0  0  0  0  0  0  0  0  0  0  0
    4.9222   -2.3575    0.4373 C   0  0  0  0  0  0  0  0  0  0  0  0
    5.3063   -1.5674    1.5284 C   0  0  0  0  0  0  0  0  0  0  0  0
    5.8212   -2.1578    2.6845 C   0  0  0  0  0  0  0  0  0  0  0  0
    5.9738   -3.5427    2.7524 C   0  0  0  0  0  0  0  0  0  0  0  0
    5.6111   -4.3351    1.6682 C   0  0  0  0  0  0  0  0  0  0  0  0
    5.0848   -3.7480    0.5171 C   0  0  0  0  0  0  0  0  0  0  0  0
    1.9493   -2.5783   -0.4733 N   0  0  0  0  0  0  0  0  0  0  0  0
    1.6784   -2.9659    0.9089 C   0  0  0  0  0  0  0  0  0  0  0  0
    1.3163   -3.1570   -1.5749 C   0  0  0  0  0  0  0  0  0  0  0  0
    1.7276   -2.9361   -2.7152 O   0  0  0  0  0  0  0  0  0  0  0  0
   -0.3632   -3.1006   -4.0077 H   0  0  0  0  0  0  0  0  0  0  0  0
   -1.6193   -4.2777   -4.3693 H   0  0  0  0  0  0  0  0  0  0  0  0
   -1.8790   -3.0889   -3.0998 H   0  0  0  0  0  0  0  0  0  0  0  0
   -1.4048   -5.3060   -2.1741 H   0  0  0  0  0  0  0  0  0  0  0  0
    0.8051   -6.4274   -2.4939 H   0  0  0  0  0  0  0  0  0  0  0  0
    1.2345   -5.2137   -3.7110 H   0  0  0  0  0  0  0  0  0  0  0  0
   -0.1346   -6.2877   -3.9861 H   0  0  0  0  0  0  0  0  0  0  0  0
    0.4309   -4.8562   -0.6278 H   0  0  0  0  0  0  0  0  0  0  0  0
   -1.7169   -2.4279    1.9502 H   0  0  0  0  0  0  0  0  0  0  0  0
   -4.0134   -2.5488    2.5739 H   0  0  0  0  0  0  0  0  0  0  0  0
   -3.3827   -4.1628    2.3823 H   0  0  0  0  0  0  0  0  0  0  0  0
   -5.9558   -1.8373    1.3766 H   0  0  0  0  0  0  0  0  0  0  0  0
   -7.8024   -2.3698   -0.1697 H   0  0  0  0  0  0  0  0  0  0  0  0
   -7.7367   -4.4512   -1.5161 H   0  0  0  0  0  0  0  0  0  0  0  0
   -5.8234   -6.0123   -1.2949 H   0  0  0  0  0  0  0  0  0  0  0  0
   -3.9756   -5.5033    0.2453 H   0  0  0  0  0  0  0  0  0  0  0  0
   -2.5831   -0.8494   -1.5843 H   0  0  0  0  0  0  0  0  0  0  0  0
   -3.3089   -2.4441   -1.2804 H   0  0  0  0  0  0  0  0  0  0  0  0
   -4.2294   -0.9743   -0.9026 H   0  0  0  0  0  0  0  0  0  0  0  0
   -3.3173    0.9631   -0.5086 H   0  0  0  0  0  0  0  0  0  0  0  0
   -4.2518    2.8247    0.6796 H   0  0  0  0  0  0  0  0  0  0  0  0
   -3.2664    1.7556    3.3516 H   0  0  0  0  0  0  0  0  0  0  0  0
   -2.5718    3.1290    2.4747 H   0  0  0  0  0  0  0  0  0  0  0  0
   -4.2352    3.1932    3.0517 H   0  0  0  0  0  0  0  0  0  0  0  0
   -5.6376    0.7555    0.5595 H   0  0  0  0  0  0  0  0  0  0  0  0
   -6.0467    1.7905    1.9318 H   0  0  0  0  0  0  0  0  0  0  0  0
   -5.1064    0.3194    2.1966 H   0  0  0  0  0  0  0  0  0  0  0  0
   -0.0847    3.6471   -1.6416 H   0  0  0  0  0  0  0  0  0  0  0  0
   -1.3096    5.3346    0.5833 H   0  0  0  0  0  0  0  0  0  0  0  0
   -1.5422    5.5335   -1.1321 H   0  0  0  0  0  0  0  0  0  0  0  0
   -0.1134    7.1721    1.4173 H   0  0  0  0  0  0  0  0  0  0  0  0
    1.7402    8.7857    1.2794 H   0  0  0  0  0  0  0  0  0  0  0  0
    3.2734    8.7724   -0.6681 H   0  0  0  0  0  0  0  0  0  0  0  0
    2.9334    7.1309   -2.4923 H   0  0  0  0  0  0  0  0  0  0  0  0
    1.0875    5.5134   -2.3875 H   0  0  0  0  0  0  0  0  0  0  0  0
    1.3677    3.6835    2.2251 H   0  0  0  0  0  0  0  0  0  0  0  0
   -0.3642    3.9273    1.9950 H   0  0  0  0  0  0  0  0  0  0  0  0
    0.3020    2.2737    2.0642 H   0  0  0  0  0  0  0  0  0  0  0  0
    2.6343    1.9461    1.5954 H   0  0  0  0  0  0  0  0  0  0  0  0
    4.9536    2.5489    1.0108 H   0  0  0  0  0  0  0  0  0  0  0  0
    3.0538    4.9332    0.7634 H   0  0  0  0  0  0  0  0  0  0  0  0
    4.7674    5.0051    1.1877 H   0  0  0  0  0  0  0  0  0  0  0  0
    3.6378    4.1966    2.2728 H   0  0  0  0  0  0  0  0  0  0  0  0
    3.8879    3.8910   -1.5147 H   0  0  0  0  0  0  0  0  0  0  0  0
    4.8329    2.3863   -1.4641 H   0  0  0  0  0  0  0  0  0  0  0  0
    5.5503    3.9015   -0.9132 H   0  0  0  0  0  0  0  0  0  0  0  0
    2.5500   -1.0127   -1.7166 H   0  0  0  0  0  0  0  0  0  0  0  0
    4.4663   -2.4268   -1.6403 H   0  0  0  0  0  0  0  0  0  0  0  0
    4.8991   -0.8469   -1.0574 H   0  0  0  0  0  0  0  0  0  0  0  0
    5.2059   -0.4853    1.4943 H   0  0  0  0  0  0  0  0  0  0  0  0
    6.1129   -1.5386    3.5276 H   0  0  0  0  0  0  0  0  0  0  0  0
    6.3780   -4.0006    3.6510 H   0  0  0  0  0  0  0  0  0  0  0  0
    5.7355   -5.4138    1.7177 H   0  0  0  0  0  0  0  0  0  0  0  0
    4.8031   -4.3822   -0.3211 H   0  0  0  0  0  0  0  0  0  0  0  0
    0.7578   -2.4874    1.2495 H   0  0  0  0  0  0  0  0  0  0  0  0
    2.4906   -2.6593    1.5700 H   0  0  0  0  0  0  0  0  0  0  0  0
    1.5706   -4.0498    0.9845 H   0  0  0  0  0  0  0  0  0  0  0  0
  1  2  1  0
  2  3  1  0
  2  4  1  0
  4  5  1  0
  5  6  1  0
  6  7  2  0
  6  8  1  0
  8  9  1  0
  9 10  1  0
 10 11  2  0
 11 12  1  0
 12 13  2  0
 13 14  1  0
 14 15  2  0
  8 16  1  0
 16 17  1  0
 16 18  1  0
 18 19  2  0
 18 20  1  0
 20 21  1  0
 21 22  1  0
 21 23  1  0
 20 24  1  0
 24 25  1  0
 25 26  2  0
 25 27  1  0
 27 28  1  0
 28 29  1  0
 29 30  2  0
 30 31  1  0
 31 32  2  0
 32 33  1  0
 33 34  2  0
 27 35  1  0
 35 36  1  0
 35 37  1  0
 37 38  2  0
 37 39  1  0
 39 40  1  0
 40 41  1  0
 40 42  1  0
 39 43  1  0
 43 44  1  0
 44 45  2  0
 44 46  1  0
 46 47  1  0
 47 48  1  0
 48 49  2  0
 49 50  1  0
 50 51  2  0
 51 52  1  0
 52 53  2  0
 46 54  1  0
 54 55  1  0
 54 56  1  0
 56 57  2  0
 56  4  1  0
 15 10  1  0
 34 29  1  0
 53 48  1  0
  1 58  1  0
  1 59  1  0
  1 60  1  0
  2 61  1  0
  3 62  1  0
  3 63  1  0
  3 64  1  0
  4 65  1  0
  8 66  1  0
  9 67  1  0
  9 68  1  0
 11 69  1  0
 12 70  1  0
 13 71  1  0
 14 72  1  0
 15 73  1  0
 17 74  1  0
 17 75  1  0
 17 76  1  0
 20 77  1  0
 21 78  1  0
 22 79  1  0
 22 80  1  0
 22 81  1  0
 23 82  1  0
 23 83  1  0
 23 84  1  0
 27 85  1  0
 28 86  1  0
 28 87  1  0
 30 88  1  0
 31 89  1  0
 32 90  1  0
 33 91  1  0
 34 92  1  0
 36 93  1  0
 36 94  1  0
 36 95  1  0
 39 96  1  0
 40 97  1  0
 41 98  1  0
 41 99  1  0
 41100  1  0
 42101  1  0
 42102  1  0
 42103  1  0
 46104  1  0
 47105  1  0
 47106  1  0
 49107  1  0
 50108  1  0
 51109  1  0
 52110  1  0
 53111  1  0
 55112  1  0
 55113  1  0
 55114  1  0
M  END
$$$$
