
     RDKit          3D

 61 67  0  0  0  0  0  0  0  0999 V2000
    3.1679    1.3059    2.6522 O   0  0  0  0  0  0  0  0  0  0  0  0
    3.0913    0.7508    1.5583 C   0  0  0  0  0  0  0  0  0  0  0  0
    4.3558    0.3765    0.8873 C   0  0  0  0  0  0  0  0  0  0  0  0
    4.6208    0.8229   -0.4259 C   0  0  0  0  0  0  0  0  0  0  0  0
    5.8242    0.4872   -1.0520 C   0  0  0  0  0  0  0  0  0  0  0  0
    6.7260   -0.2734   -0.3373 C   0  0  0  0  0  0  0  0  0  0  0  0
    6.4715   -0.6902    0.9507 C   0  0  0  0  0  0  0  0  0  0  0  0
    5.2983   -0.3742    1.5995 C   0  0  0  0  0  0  0  0  0  0  0  0
    7.4936   -1.4225    1.4687 O   0  0  0  0  0  0  0  0  0  0  0  0
    8.4224   -1.4145    0.3650 C   0  0  0  0  0  0  0  0  0  0  0  0
    7.9395   -0.6910   -0.7867 O   0  0  0  0  0  0  0  0  0  0  0  0
    1.8782    0.4763    0.9079 N   0  0  0  0  0  0  0  0  0  0  0  0
    0.6755    0.9082    1.6085 C   0  0  0  0  0  0  0  0  0  0  0  0
   -0.5287    1.0212    0.6760 C   0  0  0  0  0  0  0  0  0  0  0  0
   -0.7888   -0.2904   -0.1069 C   0  0  0  0  0  0  0  0  0  0  0  0
    0.5314   -0.6200   -0.8580 C   0  0  0  0  0  0  0  0  0  0  0  0
    1.7240   -0.7234    0.0877 C   0  0  0  0  0  0  0  0  0  0  0  0
   -1.0636   -1.2964    0.8980 O   0  0  0  0  0  0  0  0  0  0  0  0
   -1.5122   -2.4992    0.4330 C   0  0  0  0  0  0  0  0  0  0  0  0
   -1.3822   -3.5807    1.3047 C   0  0  0  0  0  0  0  0  0  0  0  0
   -1.7906   -4.8521    0.9001 C   0  0  0  0  0  0  0  0  0  0  0  0
   -2.3347   -5.0295   -0.3688 C   0  0  0  0  0  0  0  0  0  0  0  0
   -2.7185   -6.2526   -0.7531 F   0  0  0  0  0  0  0  0  0  0  0  0
   -2.4868   -3.9586   -1.2400 C   0  0  0  0  0  0  0  0  0  0  0  0
   -2.0798   -2.6875   -0.8278 C   0  0  0  0  0  0  0  0  0  0  0  0
   -2.2542   -1.5210   -1.7142 C   0  0  0  0  0  0  0  0  0  0  0  0
   -2.6307   -1.6913   -2.8692 O   0  0  0  0  0  0  0  0  0  0  0  0
   -1.9979   -0.1594   -1.0762 C   0  0  0  0  0  0  0  0  0  0  0  0
   -3.3072    0.3064   -0.4489 C   0  0  0  0  0  0  0  0  0  0  0  0
   -3.3209    1.7134   -0.9374 C   0  0  0  0  0  0  0  0  0  0  0  0
   -4.2797    2.7188   -0.4217 C   0  0  0  0  0  0  0  0  0  0  0  0
   -5.2732    2.3781    0.5040 C   0  0  0  0  0  0  0  0  0  0  0  0
   -6.1559    3.3565    0.9749 C   0  0  0  0  0  0  0  0  0  0  0  0
   -6.0493    4.6697    0.5197 C   0  0  0  0  0  0  0  0  0  0  0  0
   -7.1373    5.8661    1.1027 Cl  0  0  0  0  0  0  0  0  0  0  0  0
   -5.0678    5.0158   -0.4055 C   0  0  0  0  0  0  0  0  0  0  0  0
   -4.1842    4.0407   -0.8767 C   0  0  0  0  0  0  0  0  0  0  0  0
   -2.4368    1.9824   -1.8425 N   0  0  0  0  0  0  0  0  0  0  0  0
   -1.7167    0.7945   -2.1061 O   0  0  0  0  0  0  0  0  0  0  0  0
    3.8919    1.4368   -0.9504 H   0  0  0  0  0  0  0  0  0  0  0  0
    6.0478    0.8184   -2.0602 H   0  0  0  0  0  0  0  0  0  0  0  0
    5.1150   -0.6918    2.6194 H   0  0  0  0  0  0  0  0  0  0  0  0
    8.6221   -2.4502    0.0682 H   0  0  0  0  0  0  0  0  0  0  0  0
    9.3604   -0.9572    0.6991 H   0  0  0  0  0  0  0  0  0  0  0  0
    0.8558    1.8835    2.0757 H   0  0  0  0  0  0  0  0  0  0  0  0
    0.4827    0.1954    2.4192 H   0  0  0  0  0  0  0  0  0  0  0  0
   -1.3940    1.2856    1.2941 H   0  0  0  0  0  0  0  0  0  0  0  0
   -0.3531    1.8487   -0.0220 H   0  0  0  0  0  0  0  0  0  0  0  0
    0.7390    0.1593   -1.6024 H   0  0  0  0  0  0  0  0  0  0  0  0
    0.4581   -1.5676   -1.4023 H   0  0  0  0  0  0  0  0  0  0  0  0
    1.6084   -1.5731    0.7715 H   0  0  0  0  0  0  0  0  0  0  0  0
    2.6242   -0.9218   -0.4982 H   0  0  0  0  0  0  0  0  0  0  0  0
   -0.9492   -3.4389    2.2928 H   0  0  0  0  0  0  0  0  0  0  0  0
   -1.6846   -5.7057    1.5626 H   0  0  0  0  0  0  0  0  0  0  0  0
   -2.9218   -4.1220   -2.2223 H   0  0  0  0  0  0  0  0  0  0  0  0
   -4.1866   -0.2097   -0.8506 H   0  0  0  0  0  0  0  0  0  0  0  0
   -3.3185    0.2369    0.6413 H   0  0  0  0  0  0  0  0  0  0  0  0
   -5.3878    1.3624    0.8708 H   0  0  0  0  0  0  0  0  0  0  0  0
   -6.9257    3.0884    1.6946 H   0  0  0  0  0  0  0  0  0  0  0  0
   -4.9846    6.0374   -0.7670 H   0  0  0  0  0  0  0  0  0  0  0  0
   -3.4221    4.3219   -1.6019 H   0  0  0  0  0  0  0  0  0  0  0  0
  1  2  2  0
  2  3  1  0
  3  4  2  0
  4  5  1  0
  5  6  2  0
  6  7  1  0
  7  8  2  0
  7  9  1  0
  9 10  1  0
 10 11  1  0
  2 12  1  0
 12 13  1  0
 13 14  1  0
 14 15  1  0
 15 16  1  0
 16 17  1  0
 15 18  1  0
 18 19  1  0
 19 20  2  0
 20 21  1  0
 21 22  2  0
 22 23  1  0
 22 24  1  0
 24 25  2  0
 25 26  1  0
 26 27  2  0
 26 28  1  0
 28 29  1  0
 29 30  1  0
 30 31  1  0
 31 32  2  0
 32 33  1  0
 33 34  2  0
 34 35  1  0
 34 36  1  0
 36 37  2  0
 30 38  2  0
 38 39  1  0
  8  3  1  0
 17 12  1  0
 25 19  1  0
 39 28  1  0
 11  6  1  0
 28 15  1  0
 37 31  1  0
  4 40  1  0
  5 41  1  0
  8 42  1  0
 10 43  1  0
 10 44  1  0
 13 45  1  0
 13 46  1  0
 14 47  1  0
 14 48  1  0
 16 49  1  0
 16 50  1  0
 17 51  1  0
 17 52  1  0
 20 53  1  0
 21 54  1  0
 24 55  1  0
 29 56  1  0
 29 57  1  0
 32 58  1  0
 33 59  1  0
 36 60  1  0
 37 61  1  0
M  END
$$$$
