
     RDKit          3D

 44 46  0  0  0  0  0  0  0  0999 V2000
   -3.0721   -1.0471    3.5865 C   0  0  0  0  0  0  0  0  0  0  0  0
   -2.5610   -1.2413    2.1892 C   0  0  0  0  0  0  0  0  0  0  0  0
   -1.6119   -2.2232    1.9093 C   0  0  0  0  0  0  0  0  0  0  0  0
   -1.1357   -2.4359    0.6016 C   0  0  0  0  0  0  0  0  0  0  0  0
   -0.1284   -3.5426    0.4254 C   0  0  0  0  0  0  0  0  0  0  0  0
   -1.6499   -1.6417   -0.4591 C   0  0  0  0  0  0  0  0  0  0  0  0
   -1.0232   -1.9016   -2.1365 S   0  0  0  0  0  6  0  0  0  0  0  0
   -1.8105   -1.1542   -3.0931 O   0  0  0  0  0  0  0  0  0  0  0  0
   -0.8288   -3.3240   -2.3288 O   0  0  0  0  0  0  0  0  0  0  0  0
    0.5233   -1.2139   -2.0817 N   0  0  0  0  0  0  0  0  0  0  0  0
    0.6614    0.1374   -1.6636 C   0  0  0  0  0  0  0  0  0  0  0  0
    0.2500    1.1741   -2.4987 C   0  0  0  0  0  0  0  0  0  0  0  0
    0.3517    2.4978   -2.0701 C   0  0  0  0  0  0  0  0  0  0  0  0
    0.8613    2.7759   -0.8009 C   0  0  0  0  0  0  0  0  0  0  0  0
    0.9513    4.0760   -0.3828 O   0  0  0  0  0  0  0  0  0  0  0  0
    1.2764    1.7396    0.0478 C   0  0  0  0  0  0  0  0  0  0  0  0
    1.9091    2.0550    1.6877 S   0  0  0  0  0  0  0  0  0  0  0  0
    3.6299    2.1022    1.4000 C   0  0  0  0  0  0  0  0  0  0  0  0
    4.2404    1.6010    0.2770 N   0  0  0  0  0  0  0  0  0  0  0  0
    5.5118    1.8365    0.4976 C   0  0  0  0  0  0  0  0  0  0  0  0
    5.6567    2.4361    1.7070 N   0  0  0  0  0  0  0  0  0  0  0  0
    4.4727    2.5981    2.3142 N   0  0  0  0  0  0  0  0  0  0  0  0
    1.1679    0.4143   -0.3938 C   0  0  0  0  0  0  0  0  0  0  0  0
   -2.6429   -0.6665   -0.1910 C   0  0  0  0  0  0  0  0  0  0  0  0
   -3.2961    0.2009   -1.2333 C   0  0  0  0  0  0  0  0  0  0  0  0
   -3.0779   -0.4855    1.1368 C   0  0  0  0  0  0  0  0  0  0  0  0
   -2.3190   -1.3417    4.3252 H   0  0  0  0  0  0  0  0  0  0  0  0
   -3.9728   -1.6492    3.7420 H   0  0  0  0  0  0  0  0  0  0  0  0
   -3.3116    0.0055    3.7699 H   0  0  0  0  0  0  0  0  0  0  0  0
   -1.2359   -2.8372    2.7275 H   0  0  0  0  0  0  0  0  0  0  0  0
    0.7362   -3.2121   -0.1533 H   0  0  0  0  0  0  0  0  0  0  0  0
    0.2688   -3.8767    1.3910 H   0  0  0  0  0  0  0  0  0  0  0  0
   -0.5958   -4.4111   -0.0475 H   0  0  0  0  0  0  0  0  0  0  0  0
    1.2354   -1.8771   -1.7842 H   0  0  0  0  0  0  0  0  0  0  0  0
   -0.1501    0.9564   -3.4865 H   0  0  0  0  0  0  0  0  0  0  0  0
    0.0264    3.2924   -2.7347 H   0  0  0  0  0  0  0  0  0  0  0  0
    0.6463    4.6636   -1.0924 H   0  0  0  0  0  0  0  0  0  0  0  0
    6.3394    1.6035   -0.1567 H   0  0  0  0  0  0  0  0  0  0  0  0
    6.5017    2.7471    2.1730 H   0  0  0  0  0  0  0  0  0  0  0  0
    1.4792   -0.3961    0.2591 H   0  0  0  0  0  0  0  0  0  0  0  0
   -2.5567    0.8131   -1.7542 H   0  0  0  0  0  0  0  0  0  0  0  0
   -3.8668   -0.4107   -1.9383 H   0  0  0  0  0  0  0  0  0  0  0  0
   -4.0092    0.9019   -0.7840 H   0  0  0  0  0  0  0  0  0  0  0  0
   -3.8413    0.2609    1.3563 H   0  0  0  0  0  0  0  0  0  0  0  0
  1  2  1  0
  2  3  2  0
  3  4  1  0
  4  5  1  0
  4  6  2  0
  6  7  1  0
  7  8  2  0
  7  9  2  0
  7 10  1  0
 10 11  1  0
 11 12  2  0
 12 13  1  0
 13 14  2  0
 14 15  1  0
 14 16  1  0
 16 17  1  0
 17 18  1  0
 18 19  1  0
 19 20  2  0
 20 21  1  0
 21 22  1  0
 16 23  2  0
  6 24  1  0
 24 25  1  0
 24 26  2  0
 26  2  1  0
 23 11  1  0
 22 18  2  0
  1 27  1  0
  1 28  1  0
  1 29  1  0
  3 30  1  0
  5 31  1  0
  5 32  1  0
  5 33  1  0
 10 34  1  0
 12 35  1  0
 13 36  1  0
 15 37  1  0
 20 38  1  0
 21 39  1  0
 23 40  1  0
 25 41  1  0
 25 42  1  0
 25 43  1  0
 26 44  1  0
M  END
$$$$
