
     RDKit          3D

 48 50  0  0  0  0  0  0  0  0999 V2000
   -4.9297    0.3500    2.3923 C   0  0  0  0  0  0  0  0  0  0  0  0
   -5.2388    0.7142    1.0541 O   0  0  0  0  0  0  0  0  0  0  0  0
   -4.2564    0.5480    0.1125 C   0  0  0  0  0  0  0  0  0  0  0  0
   -3.0715   -0.1626    0.3147 C   0  0  0  0  0  0  0  0  0  0  0  0
   -2.1317   -0.2758   -0.7186 C   0  0  0  0  0  0  0  0  0  0  0  0
   -0.8879   -1.0210   -0.4952 C   0  0  0  0  0  0  0  0  0  0  0  0
    0.2526   -0.4820   -0.0197 C   0  0  0  0  0  0  0  0  0  0  0  0
    0.3626    0.8934    0.3193 C   0  0  0  0  0  0  0  0  0  0  0  0
    0.5495    1.9977    0.6221 N   0  0  0  0  0  0  0  0  0  0  0  0
    1.4387   -1.3996    0.1474 C   0  0  0  0  0  0  0  0  0  0  0  0
    1.3287   -2.5862   -0.1482 O   0  0  0  0  0  0  0  0  0  0  0  0
    2.5848   -0.7924    0.6375 N   0  0  0  0  0  0  0  0  0  0  0  0
    3.8530   -1.3868    0.9015 C   0  0  0  0  0  0  0  0  0  0  0  0
    4.0865   -2.7475    0.6761 C   0  0  0  0  0  0  0  0  0  0  0  0
    5.3318   -3.3070    0.9409 C   0  0  0  0  0  0  0  0  0  0  0  0
    6.3583   -2.5097    1.4347 C   0  0  0  0  0  0  0  0  0  0  0  0
    6.1788   -1.1594    1.6746 C   0  0  0  0  0  0  0  0  0  0  0  0
    7.2354   -0.4792    2.1521 N   0  0  0  0  0  0  0  0  0  0  0  0
    7.0951    0.8376    2.3968 C   0  0  0  0  0  0  0  0  0  0  0  0
    5.9238    1.5276    2.1837 C   0  0  0  0  0  0  0  0  0  0  0  0
    4.8314    0.8203    1.6891 C   0  0  0  0  0  0  0  0  0  0  0  0
    4.9176   -0.5686    1.4118 C   0  0  0  0  0  0  0  0  0  0  0  0
   -2.3702    0.3244   -1.9622 C   0  0  0  0  0  0  0  0  0  0  0  0
   -3.5491    1.0391   -2.1833 C   0  0  0  0  0  0  0  0  0  0  0  0
   -3.8786    1.6588   -3.3609 O   0  0  0  0  0  0  0  0  0  0  0  0
   -2.8566    1.7887   -4.3395 C   0  0  0  0  0  0  0  0  0  0  0  0
   -4.4948    1.1260   -1.1467 C   0  0  0  0  0  0  0  0  0  0  0  0
   -5.6430    1.8625   -1.3428 O   0  0  0  0  0  0  0  0  0  0  0  0
   -6.6788    1.0188   -1.8427 C   0  0  0  0  0  0  0  0  0  0  0  0
   -4.8204   -0.7352    2.4865 H   0  0  0  0  0  0  0  0  0  0  0  0
   -5.7692    0.6552    3.0244 H   0  0  0  0  0  0  0  0  0  0  0  0
   -4.0357    0.8706    2.7517 H   0  0  0  0  0  0  0  0  0  0  0  0
   -2.8638   -0.6433    1.2654 H   0  0  0  0  0  0  0  0  0  0  0  0
   -0.9472   -2.0790   -0.7486 H   0  0  0  0  0  0  0  0  0  0  0  0
    2.5380    0.1954    0.8399 H   0  0  0  0  0  0  0  0  0  0  0  0
    3.3214   -3.4136    0.2924 H   0  0  0  0  0  0  0  0  0  0  0  0
    5.5029   -4.3656    0.7622 H   0  0  0  0  0  0  0  0  0  0  0  0
    7.3292   -2.9561    1.6389 H   0  0  0  0  0  0  0  0  0  0  0  0
    7.9806    1.3353    2.7812 H   0  0  0  0  0  0  0  0  0  0  0  0
    5.8572    2.5889    2.3953 H   0  0  0  0  0  0  0  0  0  0  0  0
    3.9190    1.3851    1.5290 H   0  0  0  0  0  0  0  0  0  0  0  0
   -1.6278    0.2149   -2.7464 H   0  0  0  0  0  0  0  0  0  0  0  0
   -3.2503    2.4033   -5.1548 H   0  0  0  0  0  0  0  0  0  0  0  0
   -1.9768    2.2985   -3.9328 H   0  0  0  0  0  0  0  0  0  0  0  0
   -2.5902    0.8128   -4.7580 H   0  0  0  0  0  0  0  0  0  0  0  0
   -7.5717    1.6347   -1.9859 H   0  0  0  0  0  0  0  0  0  0  0  0
   -6.4091    0.5856   -2.8120 H   0  0  0  0  0  0  0  0  0  0  0  0
   -6.9274    0.2252   -1.1296 H   0  0  0  0  0  0  0  0  0  0  0  0
  1  2  1  0
  2  3  1  0
  3  4  2  0
  4  5  1  0
  5  6  1  0
  6  7  2  3
  7  8  1  0
  8  9  3  0
  7 10  1  0
 10 11  2  0
 10 12  1  0
 12 13  1  0
 13 14  2  0
 14 15  1  0
 15 16  2  0
 16 17  1  0
 17 18  2  0
 18 19  1  0
 19 20  2  0
 20 21  1  0
 21 22  2  0
  5 23  2  0
 23 24  1  0
 24 25  1  0
 25 26  1  0
 24 27  2  0
 27 28  1  0
 28 29  1  0
 27  3  1  0
 22 13  1  0
 22 17  1  0
  1 30  1  0
  1 31  1  0
  1 32  1  0
  4 33  1  0
  6 34  1  0
 12 35  1  0
 14 36  1  0
 15 37  1  0
 16 38  1  0
 19 39  1  0
 20 40  1  0
 21 41  1  0
 23 42  1  0
 26 43  1  0
 26 44  1  0
 26 45  1  0
 29 46  1  0
 29 47  1  0
 29 48  1  0
M  END
$$$$
