
     RDKit          3D

 55 57  0  0  0  0  0  0  0  0999 V2000
   -3.3334   -1.6924   -1.2113 C   0  0  0  0  0  0  0  0  0  0  0  0
   -2.9410   -0.8894   -0.1034 O   0  0  0  0  0  0  0  0  0  0  0  0
   -3.9361   -0.2574    0.5985 C   0  0  0  0  0  0  0  0  0  0  0  0
   -5.3088   -0.4193    0.3830 C   0  0  0  0  0  0  0  0  0  0  0  0
   -6.2366    0.2773    1.1759 C   0  0  0  0  0  0  0  0  0  0  0  0
   -7.7126    0.1362    0.9842 C   0  0  0  0  0  0  0  0  0  0  0  0
   -8.2291   -0.8014   -0.0755 C   0  0  0  0  0  0  0  0  0  0  0  0
   -8.4841    0.7837    1.6889 O   0  0  0  0  0  0  0  0  0  0  0  0
   -5.7821    1.1336    2.1899 C   0  0  0  0  0  0  0  0  0  0  0  0
   -4.4168    1.2985    2.4131 C   0  0  0  0  0  0  0  0  0  0  0  0
   -3.5069    0.6156    1.6099 C   0  0  0  0  0  0  0  0  0  0  0  0
   -2.1674    0.7624    1.8600 O   0  0  0  0  0  0  0  0  0  0  0  0
   -1.6473    1.9109    1.1805 C   0  0  0  0  0  0  0  0  0  0  0  0
   -0.2864    1.5865    0.5616 C   0  0  0  0  0  0  0  0  0  0  0  0
    0.5660    2.4568    0.4080 O   0  0  0  0  0  0  0  0  0  0  0  0
   -0.1731    0.2569    0.1925 N   0  0  0  0  0  0  0  0  0  0  0  0
    0.9066   -0.3737   -0.4457 C   0  0  0  0  0  0  0  0  0  0  0  0
    0.8812   -1.7665   -0.5185 C   0  0  0  0  0  0  0  0  0  0  0  0
    1.9360   -2.4624   -1.1143 C   0  0  0  0  0  0  0  0  0  0  0  0
    3.0315   -1.7801   -1.6590 C   0  0  0  0  0  0  0  0  0  0  0  0
    4.2822   -2.7769   -2.3026 Cl  0  0  0  0  0  0  0  0  0  0  0  0
    3.0534   -0.3857   -1.6087 C   0  0  0  0  0  0  0  0  0  0  0  0
    4.3404    0.6043   -2.3387 S   0  0  0  0  0  6  0  0  0  0  0  0
    5.0074   -0.1526   -3.3740 O   0  0  0  0  0  0  0  0  0  0  0  0
    3.7563    1.8905   -2.6631 O   0  0  0  0  0  0  0  0  0  0  0  0
    5.4376    0.8554   -1.0709 N   0  0  0  0  0  0  0  0  0  0  0  0
    6.2348   -0.3144   -0.6121 C   0  0  0  0  0  0  0  0  0  0  0  0
    7.3847    0.1716    0.2786 C   0  0  0  0  0  0  0  0  0  0  0  0
    6.8901    0.9235    1.3984 O   0  0  0  0  0  0  0  0  0  0  0  0
    6.1733    2.0820    0.9407 C   0  0  0  0  0  0  0  0  0  0  0  0
    4.9695    1.6808    0.0800 C   0  0  0  0  0  0  0  0  0  0  0  0
    1.9822    0.3106   -1.0110 C   0  0  0  0  0  0  0  0  0  0  0  0
   -3.9237   -2.5536   -0.8816 H   0  0  0  0  0  0  0  0  0  0  0  0
   -2.4238   -2.0737   -1.6851 H   0  0  0  0  0  0  0  0  0  0  0  0
   -3.8749   -1.1008   -1.9569 H   0  0  0  0  0  0  0  0  0  0  0  0
   -5.6632   -1.0875   -0.3923 H   0  0  0  0  0  0  0  0  0  0  0  0
   -7.9029   -1.8240    0.1310 H   0  0  0  0  0  0  0  0  0  0  0  0
   -7.8964   -0.4759   -1.0644 H   0  0  0  0  0  0  0  0  0  0  0  0
   -9.3236   -0.7872   -0.0645 H   0  0  0  0  0  0  0  0  0  0  0  0
   -6.4930    1.6710    2.8163 H   0  0  0  0  0  0  0  0  0  0  0  0
   -4.0695    1.9492    3.2110 H   0  0  0  0  0  0  0  0  0  0  0  0
   -1.5084    2.7064    1.9206 H   0  0  0  0  0  0  0  0  0  0  0  0
   -2.2985    2.2722    0.3735 H   0  0  0  0  0  0  0  0  0  0  0  0
   -0.9503   -0.3315    0.4940 H   0  0  0  0  0  0  0  0  0  0  0  0
    0.0528   -2.3310   -0.0961 H   0  0  0  0  0  0  0  0  0  0  0  0
    1.8988   -3.5501   -1.1425 H   0  0  0  0  0  0  0  0  0  0  0  0
    6.6553   -0.8539   -1.4654 H   0  0  0  0  0  0  0  0  0  0  0  0
    5.5887   -0.9858   -0.0363 H   0  0  0  0  0  0  0  0  0  0  0  0
    8.0896    0.7931   -0.2865 H   0  0  0  0  0  0  0  0  0  0  0  0
    7.9369   -0.6866    0.6741 H   0  0  0  0  0  0  0  0  0  0  0  0
    6.8603    2.7318    0.3856 H   0  0  0  0  0  0  0  0  0  0  0  0
    5.8326    2.6309    1.8243 H   0  0  0  0  0  0  0  0  0  0  0  0
    4.4665    2.5863   -0.2711 H   0  0  0  0  0  0  0  0  0  0  0  0
    4.2732    1.0907    0.6857 H   0  0  0  0  0  0  0  0  0  0  0  0
    2.0019    1.3978   -1.0079 H   0  0  0  0  0  0  0  0  0  0  0  0
  1  2  1  0
  2  3  1  0
  3  4  2  0
  4  5  1  0
  5  6  1  0
  6  7  1  0
  6  8  2  0
  5  9  2  0
  9 10  1  0
 10 11  2  0
 11 12  1  0
 12 13  1  0
 13 14  1  0
 14 15  2  0
 14 16  1  0
 16 17  1  0
 17 18  2  0
 18 19  1  0
 19 20  2  0
 20 21  1  0
 20 22  1  0
 22 23  1  0
 23 24  2  0
 23 25  2  0
 23 26  1  0
 26 27  1  0
 27 28  1  0
 28 29  1  0
 29 30  1  0
 30 31  1  0
 22 32  2  0
 11  3  1  0
 32 17  1  0
 31 26  1  0
  1 33  1  0
  1 34  1  0
  1 35  1  0
  4 36  1  0
  7 37  1  0
  7 38  1  0
  7 39  1  0
  9 40  1  0
 10 41  1  0
 13 42  1  0
 13 43  1  0
 16 44  1  0
 18 45  1  0
 19 46  1  0
 27 47  1  0
 27 48  1  0
 28 49  1  0
 28 50  1  0
 30 51  1  0
 30 52  1  0
 31 53  1  0
 31 54  1  0
 32 55  1  0
M  END
$$$$
