
     RDKit          3D

 33 35  0  0  0  0  0  0  0  0999 V2000
    4.8332   -1.3278   -1.8660 C   0  0  0  0  0  0  0  0  0  0  0  0
    4.3647   -0.4288   -0.7387 C   0  0  0  0  0  0  0  0  0  0  0  0
    2.9213   -0.3804   -0.6660 N   0  0  0  0  0  0  0  0  0  0  0  0
    2.2609    0.6007    0.0263 C   0  0  0  0  0  0  0  0  0  0  0  0
    2.8404    1.5705    0.5182 O   0  0  0  0  0  0  0  0  0  0  0  0
    0.7766    0.4442    0.1639 C   0  0  0  0  0  0  0  0  0  0  0  0
    0.0807    1.4462    0.7637 C   0  0  0  0  0  0  0  0  0  0  0  0
    0.6349    2.6100    1.2689 O   0  0  0  0  0  0  0  0  0  0  0  0
   -1.3772    1.3605    0.9217 C   0  0  0  0  0  0  0  0  0  0  0  0
   -2.2163    2.3058    1.5110 C   0  0  0  0  0  0  0  0  0  0  0  0
   -3.6083    2.0763    1.5875 C   0  0  0  0  0  0  0  0  0  0  0  0
   -4.1840    0.9011    1.0778 C   0  0  0  0  0  0  0  0  0  0  0  0
   -3.3493   -0.0316    0.4960 C   0  0  0  0  0  0  0  0  0  0  0  0
   -1.9895    0.2260    0.4368 C   0  0  0  0  0  0  0  0  0  0  0  0
   -1.3014   -0.8053   -0.1720 N   0  0  0  0  0  0  0  0  0  0  0  0
    0.0565   -0.7881   -0.3403 C   0  0  0  0  0  0  0  0  0  0  0  0
    0.6670   -1.7189   -0.8658 O   0  0  0  0  0  0  0  0  0  0  0  0
   -2.2451   -1.8560   -0.5536 C   0  0  0  0  0  0  0  0  0  0  0  0
   -3.6506   -1.3592   -0.1290 C   0  0  0  0  0  0  0  0  0  0  0  0
    5.9264   -1.3561   -1.9040 H   0  0  0  0  0  0  0  0  0  0  0  0
    4.4639   -0.9679   -2.8320 H   0  0  0  0  0  0  0  0  0  0  0  0
    4.4676   -2.3510   -1.7297 H   0  0  0  0  0  0  0  0  0  0  0  0
    4.7528    0.5863   -0.8753 H   0  0  0  0  0  0  0  0  0  0  0  0
    4.7308   -0.8018    0.2237 H   0  0  0  0  0  0  0  0  0  0  0  0
    2.3930   -1.2149   -0.9274 H   0  0  0  0  0  0  0  0  0  0  0  0
    1.6103    2.5687    1.1399 H   0  0  0  0  0  0  0  0  0  0  0  0
   -1.8027    3.2270    1.9157 H   0  0  0  0  0  0  0  0  0  0  0  0
   -4.2443    2.8279    2.0515 H   0  0  0  0  0  0  0  0  0  0  0  0
   -5.2551    0.7384    1.1435 H   0  0  0  0  0  0  0  0  0  0  0  0
   -2.1778   -2.0237   -1.6340 H   0  0  0  0  0  0  0  0  0  0  0  0
   -1.9684   -2.7855   -0.0439 H   0  0  0  0  0  0  0  0  0  0  0  0
   -4.3044   -1.2476   -0.9993 H   0  0  0  0  0  0  0  0  0  0  0  0
   -4.1064   -2.0449    0.5916 H   0  0  0  0  0  0  0  0  0  0  0  0
  1  2  1  0
  2  3  1  0
  3  4  1  0
  4  5  2  0
  4  6  1  0
  6  7  2  0
  7  8  1  0
  7  9  1  0
  9 10  2  0
 10 11  1  0
 11 12  2  0
 12 13  1  0
 13 14  2  0
 14 15  1  0
 15 16  1  0
 16 17  2  0
 15 18  1  0
 18 19  1  0
 16  6  1  0
 14  9  1  0
 19 13  1  0
  1 20  1  0
  1 21  1  0
  1 22  1  0
  2 23  1  0
  2 24  1  0
  3 25  1  0
  8 26  1  0
 10 27  1  0
 11 28  1  0
 12 29  1  0
 18 30  1  0
 18 31  1  0
 19 32  1  0
 19 33  1  0
M  END
$$$$
