
     RDKit          3D

 44 46  0  0  0  0  0  0  0  0999 V2000
   -2.5839    1.6450   -3.8544 C   0  0  0  0  0  0  0  0  0  0  0  0
   -3.2187    2.0551   -2.5233 C   0  0  0  0  0  0  0  0  0  0  0  0
   -4.7350    2.2077   -2.6654 C   0  0  0  0  0  0  0  0  0  0  0  0
   -2.8570    1.0856   -1.4105 C   0  0  0  0  0  0  0  0  0  0  0  0
   -2.1384    1.5465   -0.2953 C   0  0  0  0  0  0  0  0  0  0  0  0
   -1.7956    0.6778    0.7422 C   0  0  0  0  0  0  0  0  0  0  0  0
   -2.1593   -0.6676    0.6612 C   0  0  0  0  0  0  0  0  0  0  0  0
   -1.7258   -1.7818    1.9779 S   0  0  0  0  0  6  0  0  0  0  0  0
   -2.7132   -2.8416    1.9941 O   0  0  0  0  0  0  0  0  0  0  0  0
   -1.4496   -0.9985    3.1623 O   0  0  0  0  0  0  0  0  0  0  0  0
   -0.2960   -2.4899    1.4213 N   0  0  0  0  0  0  0  0  0  0  0  0
    0.7829   -1.6611    1.0049 C   0  0  0  0  0  0  0  0  0  0  0  0
    1.1689   -1.6870   -0.3362 C   0  0  0  0  0  0  0  0  0  0  0  0
    2.1957   -0.8547   -0.7840 C   0  0  0  0  0  0  0  0  0  0  0  0
    2.8355   -0.0009    0.1153 C   0  0  0  0  0  0  0  0  0  0  0  0
    3.8314    0.8240   -0.3331 O   0  0  0  0  0  0  0  0  0  0  0  0
    2.4639    0.0243    1.4673 C   0  0  0  0  0  0  0  0  0  0  0  0
    3.2516    1.1072    2.6476 S   0  0  0  0  0  0  0  0  0  0  0  0
    4.6638    0.1832    3.0940 C   0  0  0  0  0  0  0  0  0  0  0  0
    4.8820   -1.1252    2.7390 N   0  0  0  0  0  0  0  0  0  0  0  0
    6.0297   -1.4026    3.3094 C   0  0  0  0  0  0  0  0  0  0  0  0
    6.4752   -0.3111    3.9819 N   0  0  0  0  0  0  0  0  0  0  0  0
    5.6196    0.7139    3.8676 N   0  0  0  0  0  0  0  0  0  0  0  0
    1.4270   -0.8111    1.9038 C   0  0  0  0  0  0  0  0  0  0  0  0
   -2.8906   -1.1428   -0.4293 C   0  0  0  0  0  0  0  0  0  0  0  0
   -3.2324   -0.2673   -1.4619 C   0  0  0  0  0  0  0  0  0  0  0  0
   -2.7834    2.3985   -4.6240 H   0  0  0  0  0  0  0  0  0  0  0  0
   -2.9744    0.6881   -4.2175 H   0  0  0  0  0  0  0  0  0  0  0  0
   -1.4971    1.5460   -3.7557 H   0  0  0  0  0  0  0  0  0  0  0  0
   -2.8178    3.0450   -2.2678 H   0  0  0  0  0  0  0  0  0  0  0  0
   -5.2138    1.2732   -2.9776 H   0  0  0  0  0  0  0  0  0  0  0  0
   -4.9765    2.9706   -3.4135 H   0  0  0  0  0  0  0  0  0  0  0  0
   -5.1883    2.5140   -1.7160 H   0  0  0  0  0  0  0  0  0  0  0  0
   -1.8418    2.5914   -0.2232 H   0  0  0  0  0  0  0  0  0  0  0  0
   -1.2435    1.0563    1.6001 H   0  0  0  0  0  0  0  0  0  0  0  0
   -0.4747   -3.3453    0.8990 H   0  0  0  0  0  0  0  0  0  0  0  0
    0.6682   -2.3394   -1.0460 H   0  0  0  0  0  0  0  0  0  0  0  0
    2.4768   -0.8785   -1.8324 H   0  0  0  0  0  0  0  0  0  0  0  0
    4.0204    0.6257   -1.2636 H   0  0  0  0  0  0  0  0  0  0  0  0
    6.5632   -2.3413    3.2732 H   0  0  0  0  0  0  0  0  0  0  0  0
    7.3215   -0.1935    4.5272 H   0  0  0  0  0  0  0  0  0  0  0  0
    1.1337   -0.8058    2.9513 H   0  0  0  0  0  0  0  0  0  0  0  0
   -3.2018   -2.1834   -0.4814 H   0  0  0  0  0  0  0  0  0  0  0  0
   -3.8026   -0.6487   -2.3065 H   0  0  0  0  0  0  0  0  0  0  0  0
  1  2  1  0
  2  3  1  0
  2  4  1  0
  4  5  2  0
  5  6  1  0
  6  7  2  0
  7  8  1  0
  8  9  2  0
  8 10  2  0
  8 11  1  0
 11 12  1  0
 12 13  2  0
 13 14  1  0
 14 15  2  0
 15 16  1  0
 15 17  1  0
 17 18  1  0
 18 19  1  0
 19 20  1  0
 20 21  2  0
 21 22  1  0
 22 23  1  0
 17 24  2  0
  7 25  1  0
 25 26  2  0
 26  4  1  0
 24 12  1  0
 23 19  2  0
  1 27  1  0
  1 28  1  0
  1 29  1  0
  2 30  1  0
  3 31  1  0
  3 32  1  0
  3 33  1  0
  5 34  1  0
  6 35  1  0
 11 36  1  0
 13 37  1  0
 14 38  1  0
 16 39  1  0
 21 40  1  0
 22 41  1  0
 24 42  1  0
 25 43  1  0
 26 44  1  0
M  END
$$$$
