
     RDKit          3D

 61 65  0  0  0  0  0  0  0  0999 V2000
    1.6150    4.9729    2.4375 C   0  0  0  0  0  0  0  0  0  0  0  0
    0.8548    3.7881    2.2323 O   0  0  0  0  0  0  0  0  0  0  0  0
    1.5590    2.6289    2.0531 C   0  0  0  0  0  0  0  0  0  0  0  0
    2.9433    2.4909    2.1374 C   0  0  0  0  0  0  0  0  0  0  0  0
    3.5408    1.2441    1.9264 C   0  0  0  0  0  0  0  0  0  0  0  0
    2.7611    0.1173    1.6355 C   0  0  0  0  0  0  0  0  0  0  0  0
    3.4088   -1.2190    1.3773 C   0  0  0  0  0  0  0  0  0  0  0  0
    3.8855   -1.3159    0.0133 N   0  0  0  0  0  0  0  0  0  0  0  0
    5.1746   -1.0295   -0.2932 N   0  0  0  0  0  0  0  0  0  0  0  0
    5.3203   -1.1742   -1.6105 N   0  0  0  0  0  0  0  0  0  0  0  0
    4.1167   -1.5628   -2.1108 C   0  0  0  0  0  0  0  0  0  0  0  0
    3.7004   -1.8369   -3.4586 C   0  0  0  0  0  0  0  0  0  0  0  0
    4.4106   -1.7770   -4.4569 O   0  0  0  0  0  0  0  0  0  0  0  0
    2.3578   -2.1905   -3.5283 N   0  0  0  0  0  0  0  0  0  0  0  0
    1.5140   -2.2968   -2.4228 C   0  0  0  0  0  0  0  0  0  0  0  0
    0.0692   -2.6501   -2.7590 C   0  0  0  0  0  0  0  0  0  0  0  0
   -0.7117   -1.3488   -2.9957 C   0  0  0  0  0  0  0  0  0  0  0  0
   -1.3136   -0.8072   -1.7015 C   0  0  0  0  0  0  0  0  0  0  0  0
   -2.2112   -1.7955   -1.0432 N   0  0  0  0  0  0  0  0  0  0  0  0
   -3.8388   -1.3110   -0.8316 S   0  0  0  0  0  6  0  0  0  0  0  0
   -4.5280   -2.3509   -0.1029 O   0  0  0  0  0  0  0  0  0  0  0  0
   -4.3165   -0.8521   -2.1187 O   0  0  0  0  0  0  0  0  0  0  0  0
   -3.6858    0.0802    0.2578 C   0  0  0  0  0  0  0  0  0  0  0  0
   -4.0300    1.3589   -0.1797 C   0  0  0  0  0  0  0  0  0  0  0  0
   -3.8927    2.4388    0.6934 C   0  0  0  0  0  0  0  0  0  0  0  0
   -3.4201    2.2458    1.9992 C   0  0  0  0  0  0  0  0  0  0  0  0
   -3.2276    3.4229    2.9059 C   0  0  0  0  0  0  0  0  0  0  0  0
   -3.0816    0.9552    2.4232 C   0  0  0  0  0  0  0  0  0  0  0  0
   -3.2250   -0.1302    1.5604 C   0  0  0  0  0  0  0  0  0  0  0  0
   -2.0684   -3.1930   -1.5146 C   0  0  0  0  0  0  0  0  0  0  0  0
   -0.5933   -3.5306   -1.6910 C   0  0  0  0  0  0  0  0  0  0  0  0
    1.8865   -2.0451   -1.1980 N   0  0  0  0  0  0  0  0  0  0  0  0
    3.1897   -1.6829   -1.1035 C   0  0  0  0  0  0  0  0  0  0  0  0
    1.3721    0.2624    1.5529 C   0  0  0  0  0  0  0  0  0  0  0  0
    0.7803    1.5090    1.7607 C   0  0  0  0  0  0  0  0  0  0  0  0
    2.1742    4.9262    3.3774 H   0  0  0  0  0  0  0  0  0  0  0  0
    0.9170    5.8148    2.5106 H   0  0  0  0  0  0  0  0  0  0  0  0
    2.2824    5.1650    1.5892 H   0  0  0  0  0  0  0  0  0  0  0  0
    3.5884    3.3328    2.3616 H   0  0  0  0  0  0  0  0  0  0  0  0
    4.6240    1.1641    1.9795 H   0  0  0  0  0  0  0  0  0  0  0  0
    2.7087   -2.0423    1.5536 H   0  0  0  0  0  0  0  0  0  0  0  0
    4.2579   -1.3712    2.0521 H   0  0  0  0  0  0  0  0  0  0  0  0
    2.0227   -2.3914   -4.4602 H   0  0  0  0  0  0  0  0  0  0  0  0
    0.0784   -3.2066   -3.7053 H   0  0  0  0  0  0  0  0  0  0  0  0
   -0.0705   -0.5806   -3.4480 H   0  0  0  0  0  0  0  0  0  0  0  0
   -1.5206   -1.5417   -3.7133 H   0  0  0  0  0  0  0  0  0  0  0  0
   -1.8421    0.1256   -1.9259 H   0  0  0  0  0  0  0  0  0  0  0  0
   -0.5243   -0.5497   -0.9877 H   0  0  0  0  0  0  0  0  0  0  0  0
   -4.4020    1.5270   -1.1878 H   0  0  0  0  0  0  0  0  0  0  0  0
   -4.1504    3.4369    0.3472 H   0  0  0  0  0  0  0  0  0  0  0  0
   -2.2917    3.9310    2.6648 H   0  0  0  0  0  0  0  0  0  0  0  0
   -3.1945    3.1178    3.9595 H   0  0  0  0  0  0  0  0  0  0  0  0
   -4.0570    4.1237    2.7920 H   0  0  0  0  0  0  0  0  0  0  0  0
   -2.6968    0.7918    3.4264 H   0  0  0  0  0  0  0  0  0  0  0  0
   -2.9689   -1.1305    1.9010 H   0  0  0  0  0  0  0  0  0  0  0  0
   -2.4956   -3.8704   -0.7664 H   0  0  0  0  0  0  0  0  0  0  0  0
   -2.6105   -3.3388   -2.4551 H   0  0  0  0  0  0  0  0  0  0  0  0
   -0.4933   -4.5796   -1.9866 H   0  0  0  0  0  0  0  0  0  0  0  0
   -0.0942   -3.4400   -0.7206 H   0  0  0  0  0  0  0  0  0  0  0  0
    0.7386   -0.5902    1.3144 H   0  0  0  0  0  0  0  0  0  0  0  0
   -0.2963    1.6104    1.6817 H   0  0  0  0  0  0  0  0  0  0  0  0
  1  2  1  0
  2  3  1  0
  3  4  2  0
  4  5  1  0
  5  6  2  0
  6  7  1  0
  7  8  1  0
  8  9  1  0
  9 10  2  0
 10 11  1  0
 11 12  1  0
 12 13  2  0
 12 14  1  0
 14 15  1  0
 15 16  1  0
 16 17  1  0
 17 18  1  0
 18 19  1  0
 19 20  1  0
 20 21  2  0
 20 22  2  0
 20 23  1  0
 23 24  2  0
 24 25  1  0
 25 26  2  0
 26 27  1  0
 26 28  1  0
 28 29  2  0
 19 30  1  0
 30 31  1  0
 15 32  2  0
 32 33  1  0
  6 34  1  0
 34 35  2  0
 35  3  1  0
 33  8  1  0
 33 11  2  0
 31 16  1  0
 29 23  1  0
  1 36  1  0
  1 37  1  0
  1 38  1  0
  4 39  1  0
  5 40  1  0
  7 41  1  0
  7 42  1  0
 14 43  1  0
 16 44  1  0
 17 45  1  0
 17 46  1  0
 18 47  1  0
 18 48  1  0
 24 49  1  0
 25 50  1  0
 27 51  1  0
 27 52  1  0
 27 53  1  0
 28 54  1  0
 29 55  1  0
 30 56  1  0
 30 57  1  0
 31 58  1  0
 31 59  1  0
 34 60  1  0
 35 61  1  0
M  END
$$$$
