
     RDKit          3D

 64 69  0  0  0  0  0  0  0  0999 V2000
   -2.7160    3.6203    4.2038 C   0  0  0  0  0  0  0  0  0  0  0  0
   -2.9106    2.2150    4.3021 O   0  0  0  0  0  0  0  0  0  0  0  0
   -3.0954    1.5336    3.1308 C   0  0  0  0  0  0  0  0  0  0  0  0
   -3.0998    2.0867    1.8508 C   0  0  0  0  0  0  0  0  0  0  0  0
   -3.3026    1.2694    0.7318 C   0  0  0  0  0  0  0  0  0  0  0  0
   -3.5024   -0.1095    0.8769 C   0  0  0  0  0  0  0  0  0  0  0  0
   -3.6961   -0.9605   -0.3045 C   0  0  0  0  0  0  0  0  0  0  0  0
   -5.1870   -1.7809   -0.4778 S   0  0  0  0  0  0  0  0  0  0  0  0
   -4.7326   -2.4939   -1.9734 C   0  0  0  0  0  0  0  0  0  0  0  0
   -5.5211   -3.3653   -2.7571 C   0  0  0  0  0  0  0  0  0  0  0  0
   -4.9542   -3.8287   -3.9261 C   0  0  0  0  0  0  0  0  0  0  0  0
   -3.6941   -3.4707   -4.3187 C   0  0  0  0  0  0  0  0  0  0  0  0
   -2.9066   -2.6195   -3.5684 C   0  0  0  0  0  0  0  0  0  0  0  0
   -3.4383   -2.1050   -2.3524 C   0  0  0  0  0  0  0  0  0  0  0  0
   -2.8512   -1.2103   -1.3755 C   0  0  0  0  0  0  0  0  0  0  0  0
   -1.5191   -0.6179   -1.4605 C   0  0  0  0  0  0  0  0  0  0  0  0
   -1.2335    0.3210   -2.4555 C   0  0  0  0  0  0  0  0  0  0  0  0
    0.0418    0.8855   -2.5375 C   0  0  0  0  0  0  0  0  0  0  0  0
    1.0462    0.5175   -1.6376 C   0  0  0  0  0  0  0  0  0  0  0  0
    2.2403    1.1536   -1.8316 O   0  0  0  0  0  0  0  0  0  0  0  0
    3.3763    0.7166   -1.0776 C   0  0  0  0  0  0  0  0  0  0  0  0
    3.4863    1.4958    0.2448 C   0  0  0  0  0  0  0  0  0  0  0  0
    4.5369    0.9949    1.1546 N   0  0  0  0  0  0  0  0  0  0  0  0
    4.3930    1.6316    2.4763 C   0  0  0  0  0  0  0  0  0  0  0  0
    5.4233    1.0973    3.4721 C   0  0  0  0  0  0  0  0  0  0  0  0
    6.8420    1.2765    2.9477 C   0  0  0  0  0  0  0  0  0  0  0  0
    6.9674    0.6831    1.5503 C   0  0  0  0  0  0  0  0  0  0  0  0
    5.8861    1.2248    0.6120 C   0  0  0  0  0  0  0  0  0  0  0  0
    0.7596   -0.4183   -0.6434 C   0  0  0  0  0  0  0  0  0  0  0  0
   -0.5167   -0.9867   -0.5572 C   0  0  0  0  0  0  0  0  0  0  0  0
   -3.3328   -4.0432   -5.4989 O   0  0  0  0  0  0  0  0  0  0  0  0
   -4.5144   -4.8131   -5.7995 C   0  0  0  0  0  0  0  0  0  0  0  0
   -5.5528   -4.6752   -4.8081 O   0  0  0  0  0  0  0  0  0  0  0  0
   -3.4939   -0.6588    2.1643 C   0  0  0  0  0  0  0  0  0  0  0  0
   -3.2929    0.1591    3.2800 C   0  0  0  0  0  0  0  0  0  0  0  0
   -2.5936    4.0128    5.2179 H   0  0  0  0  0  0  0  0  0  0  0  0
   -3.5892    4.1105    3.7607 H   0  0  0  0  0  0  0  0  0  0  0  0
   -1.8040    3.8533    3.6445 H   0  0  0  0  0  0  0  0  0  0  0  0
   -2.9485    3.1477    1.6838 H   0  0  0  0  0  0  0  0  0  0  0  0
   -3.3032    1.7211   -0.2578 H   0  0  0  0  0  0  0  0  0  0  0  0
   -6.5196   -3.6578   -2.4541 H   0  0  0  0  0  0  0  0  0  0  0  0
   -1.9074   -2.3579   -3.9014 H   0  0  0  0  0  0  0  0  0  0  0  0
   -1.9973    0.6235   -3.1679 H   0  0  0  0  0  0  0  0  0  0  0  0
    0.2558    1.6175   -3.3127 H   0  0  0  0  0  0  0  0  0  0  0  0
    3.3816   -0.3700   -0.9315 H   0  0  0  0  0  0  0  0  0  0  0  0
    4.2480    0.9386   -1.7031 H   0  0  0  0  0  0  0  0  0  0  0  0
    3.6292    2.5628    0.0253 H   0  0  0  0  0  0  0  0  0  0  0  0
    2.5159    1.4333    0.7530 H   0  0  0  0  0  0  0  0  0  0  0  0
    4.4909    2.7223    2.3948 H   0  0  0  0  0  0  0  0  0  0  0  0
    3.3952    1.4237    2.8816 H   0  0  0  0  0  0  0  0  0  0  0  0
    5.3154    1.6171    4.4311 H   0  0  0  0  0  0  0  0  0  0  0  0
    5.2343    0.0328    3.6618 H   0  0  0  0  0  0  0  0  0  0  0  0
    7.5581    0.7991    3.6257 H   0  0  0  0  0  0  0  0  0  0  0  0
    7.0896    2.3450    2.9162 H   0  0  0  0  0  0  0  0  0  0  0  0
    6.8883   -0.4102    1.6087 H   0  0  0  0  0  0  0  0  0  0  0  0
    7.9587    0.9095    1.1408 H   0  0  0  0  0  0  0  0  0  0  0  0
    6.0042    0.7111   -0.3482 H   0  0  0  0  0  0  0  0  0  0  0  0
    6.0558    2.2948    0.4337 H   0  0  0  0  0  0  0  0  0  0  0  0
    1.4984   -0.7248    0.0903 H   0  0  0  0  0  0  0  0  0  0  0  0
   -0.7204   -1.7157    0.2243 H   0  0  0  0  0  0  0  0  0  0  0  0
   -4.9089   -4.4872   -6.7686 H   0  0  0  0  0  0  0  0  0  0  0  0
   -4.2354   -5.8707   -5.8709 H   0  0  0  0  0  0  0  0  0  0  0  0
   -3.6372   -1.7268    2.3107 H   0  0  0  0  0  0  0  0  0  0  0  0
   -3.2897   -0.2802    4.2746 H   0  0  0  0  0  0  0  0  0  0  0  0
  1  2  1  0
  2  3  1  0
  3  4  2  0
  4  5  1  0
  5  6  2  0
  6  7  1  0
  7  8  1  0
  8  9  1  0
  9 10  2  0
 10 11  1  0
 11 12  2  0
 12 13  1  0
 13 14  2  0
 14 15  1  0
 15 16  1  0
 16 17  2  0
 17 18  1  0
 18 19  2  0
 19 20  1  0
 20 21  1  0
 21 22  1  0
 22 23  1  0
 23 24  1  0
 24 25  1  0
 25 26  1  0
 26 27  1  0
 27 28  1  0
 19 29  1  0
 29 30  2  0
 12 31  1  0
 31 32  1  0
 32 33  1  0
  6 34  1  0
 34 35  2  0
 35  3  1  0
 15  7  2  0
 30 16  1  0
 14  9  1  0
 28 23  1  0
 33 11  1  0
  1 36  1  0
  1 37  1  0
  1 38  1  0
  4 39  1  0
  5 40  1  0
 10 41  1  0
 13 42  1  0
 17 43  1  0
 18 44  1  0
 21 45  1  0
 21 46  1  0
 22 47  1  0
 22 48  1  0
 24 49  1  0
 24 50  1  0
 25 51  1  0
 25 52  1  0
 26 53  1  0
 26 54  1  0
 27 55  1  0
 27 56  1  0
 28 57  1  0
 28 58  1  0
 29 59  1  0
 30 60  1  0
 32 61  1  0
 32 62  1  0
 34 63  1  0
 35 64  1  0
M  END
$$$$
