
     RDKit          3D

 46 49  0  0  0  0  0  0  0  0999 V2000
    1.8262    1.7590   -0.4038 O   0  0  0  0  0  0  0  0  0  0  0  0
    1.7621    1.2927   -1.5345 C   0  0  0  0  0  0  0  0  0  0  0  0
    0.4689    0.8385   -2.1962 C   0  0  0  0  0  0  0  0  0  0  0  0
   -0.5810    0.5585   -1.1980 N   0  0  0  0  0  4  0  0  0  0  0  0
   -1.8449    1.1380   -1.1173 C   0  0  0  0  0  0  0  0  0  0  0  0
   -2.5065    0.6249   -0.0057 C   0  0  0  0  0  0  0  0  0  0  0  0
   -3.9482    1.0161    0.4874 C   0  0  0  0  0  0  0  0  0  0  0  0
   -4.7138    1.9343   -0.2404 C   0  0  0  0  0  0  0  0  0  0  0  0
   -5.9977    2.2821    0.1951 C   0  0  0  0  0  0  0  0  0  0  0  0
   -6.5267    1.7197    1.3588 C   0  0  0  0  0  0  0  0  0  0  0  0
   -8.1150    2.1933    1.8344 Cl  0  0  0  0  0  0  0  0  0  0  0  0
   -5.7615    0.8081    2.0897 C   0  0  0  0  0  0  0  0  0  0  0  0
   -6.3346    0.0708    3.5427 Cl  0  0  0  0  0  0  0  0  0  0  0  0
   -4.4752    0.4597    1.6543 C   0  0  0  0  0  0  0  0  0  0  0  0
   -1.5953   -0.2739    0.5208 N   0  0  0  0  0  0  0  0  0  0  0  0
   -0.4529   -0.2668   -0.1618 C   0  0  0  0  0  0  0  0  0  0  0  0
    0.5721   -1.1796    0.3999 C   0  0  0  0  0  0  0  0  0  0  0  0
   -0.2637   -2.0371    1.3688 C   0  0  0  0  0  0  0  0  0  0  0  0
   -1.5382   -1.1944    1.6502 C   0  0  0  0  0  0  0  0  0  0  0  0
    2.8162    1.0509   -2.3582 O   0  0  0  0  0  0  0  0  0  0  0  0
    4.1099    1.1861   -1.7489 C   0  0  0  0  0  0  0  0  0  0  0  0
    4.4209   -0.0729   -0.9792 C   0  0  0  0  0  0  0  0  0  0  0  0
    4.6209   -1.2850   -1.6547 C   0  0  0  0  0  0  0  0  0  0  0  0
    4.8869   -2.4561   -0.9428 C   0  0  0  0  0  0  0  0  0  0  0  0
    4.9507   -2.4272    0.4489 C   0  0  0  0  0  0  0  0  0  0  0  0
    4.7511   -1.2283    1.1306 C   0  0  0  0  0  0  0  0  0  0  0  0
    4.4853   -0.0562    0.4209 C   0  0  0  0  0  0  0  0  0  0  0  0
    0.6412   -0.0945   -2.7436 H   0  0  0  0  0  0  0  0  0  0  0  0
    0.1263    1.6162   -2.8840 H   0  0  0  0  0  0  0  0  0  0  0  0
   -2.1139    1.8643   -1.8662 H   0  0  0  0  0  0  0  0  0  0  0  0
   -4.3481    2.4003   -1.1514 H   0  0  0  0  0  0  0  0  0  0  0  0
   -6.5856    2.9969   -0.3793 H   0  0  0  0  0  0  0  0  0  0  0  0
   -3.9083   -0.2395    2.2548 H   0  0  0  0  0  0  0  0  0  0  0  0
    1.2979   -0.5561    0.9246 H   0  0  0  0  0  0  0  0  0  0  0  0
    1.0269   -1.7503   -0.4098 H   0  0  0  0  0  0  0  0  0  0  0  0
   -0.5567   -2.9654    0.8639 H   0  0  0  0  0  0  0  0  0  0  0  0
    0.2786   -2.3056    2.2792 H   0  0  0  0  0  0  0  0  0  0  0  0
   -1.4338   -0.6147    2.5720 H   0  0  0  0  0  0  0  0  0  0  0  0
   -2.4262   -1.8293    1.6841 H   0  0  0  0  0  0  0  0  0  0  0  0
    4.1640    2.0864   -1.1247 H   0  0  0  0  0  0  0  0  0  0  0  0
    4.8448    1.3151   -2.5510 H   0  0  0  0  0  0  0  0  0  0  0  0
    4.5868   -1.3223   -2.7418 H   0  0  0  0  0  0  0  0  0  0  0  0
    5.0612   -3.3893   -1.4745 H   0  0  0  0  0  0  0  0  0  0  0  0
    5.1751   -3.3365    1.0014 H   0  0  0  0  0  0  0  0  0  0  0  0
    4.8180   -1.2035    2.2158 H   0  0  0  0  0  0  0  0  0  0  0  0
    4.3358    0.8728    0.9693 H   0  0  0  0  0  0  0  0  0  0  0  0
  1  2  2  0
  2  3  1  0
  3  4  1  0
  4  5  1  0
  5  6  2  0
  6  7  1  0
  7  8  2  0
  8  9  1  0
  9 10  2  0
 10 11  1  0
 10 12  1  0
 12 13  1  0
 12 14  2  0
  6 15  1  0
 15 16  1  0
 16 17  1  0
 17 18  1  0
 18 19  1  0
  2 20  1  0
 20 21  1  0
 21 22  1  0
 22 23  2  0
 23 24  1  0
 24 25  2  0
 25 26  1  0
 26 27  2  0
 16  4  2  0
 27 22  1  0
 14  7  1  0
 19 15  1  0
  3 28  1  0
  3 29  1  0
  5 30  1  0
  8 31  1  0
  9 32  1  0
 14 33  1  0
 17 34  1  0
 17 35  1  0
 18 36  1  0
 18 37  1  0
 19 38  1  0
 19 39  1  0
 21 40  1  0
 21 41  1  0
 23 42  1  0
 24 43  1  0
 25 44  1  0
 26 45  1  0
 27 46  1  0
M  CHG  1   4   1
M  END
$$$$
