
     RDKit          3D

 39 40  0  0  0  0  0  0  0  0999 V2000
   -1.7508   -1.1772   -1.9650 C   0  0  0  0  0  0  0  0  0  0  0  0
   -2.5338   -0.2976   -1.0097 C   0  0  0  0  0  0  0  0  0  0  0  0
   -1.9405    0.5841   -0.1804 C   0  0  0  0  0  0  0  0  0  0  0  0
   -0.4634    0.7370   -0.0478 C   0  0  0  0  0  0  0  0  0  0  0  0
    0.3836   -0.2358   -0.1487 N   0  0  0  0  0  0  0  0  0  0  0  0
    1.6936    0.0912    0.0490 N   0  0  0  0  0  0  0  0  0  0  0  0
    2.6542   -0.9065   -0.0205 C   0  0  0  0  0  0  0  0  0  0  0  0
    2.4275   -2.0921   -0.2593 O   0  0  0  0  0  0  0  0  0  0  0  0
    4.0594   -0.5046    0.2644 C   0  0  0  0  0  0  0  0  0  0  0  0
    4.5055    0.8097    0.0637 C   0  0  0  0  0  0  0  0  0  0  0  0
    5.8290    1.1450    0.3598 C   0  0  0  0  0  0  0  0  0  0  0  0
    6.4224    2.9208    0.0920 Br  0  0  0  0  0  0  0  0  0  0  0  0
    6.7186    0.1881    0.8451 C   0  0  0  0  0  0  0  0  0  0  0  0
    6.2870   -1.1254    1.0234 C   0  0  0  0  0  0  0  0  0  0  0  0
    4.9700   -1.4705    0.7243 C   0  0  0  0  0  0  0  0  0  0  0  0
    4.6374   -2.7866    0.9070 O   0  0  0  0  0  0  0  0  0  0  0  0
   -2.7839    1.4951    0.6298 C   0  0  0  0  0  0  0  0  0  0  0  0
   -2.2462    2.3957    1.2756 O   0  0  0  0  0  0  0  0  0  0  0  0
   -4.1433    1.2817    0.6032 N   0  0  0  0  0  0  0  0  0  0  0  0
   -4.9919    2.1378    1.4113 C   0  0  0  0  0  0  0  0  0  0  0  0
   -4.7711    0.3866   -0.2483 C   0  0  0  0  0  0  0  0  0  0  0  0
   -5.9998    0.3172   -0.3170 O   0  0  0  0  0  0  0  0  0  0  0  0
   -3.9303   -0.4106   -1.0287 N   0  0  0  0  0  0  0  0  0  0  0  0
   -4.5827   -1.3916   -1.8966 C   0  0  0  0  0  0  0  0  0  0  0  0
   -2.2434   -1.2492   -2.9401 H   0  0  0  0  0  0  0  0  0  0  0  0
   -0.7589   -0.7840   -2.1995 H   0  0  0  0  0  0  0  0  0  0  0  0
   -1.6415   -2.1852   -1.5524 H   0  0  0  0  0  0  0  0  0  0  0  0
   -0.1267    1.7623    0.1924 H   0  0  0  0  0  0  0  0  0  0  0  0
    1.9172    1.0148    0.4015 H   0  0  0  0  0  0  0  0  0  0  0  0
    3.8497    1.5709   -0.3466 H   0  0  0  0  0  0  0  0  0  0  0  0
    7.7485    0.4487    1.0759 H   0  0  0  0  0  0  0  0  0  0  0  0
    6.9756   -1.8840    1.3874 H   0  0  0  0  0  0  0  0  0  0  0  0
    3.7461   -2.9332    0.5132 H   0  0  0  0  0  0  0  0  0  0  0  0
   -4.4398    2.5897    2.2401 H   0  0  0  0  0  0  0  0  0  0  0  0
   -5.8298    1.5642    1.8202 H   0  0  0  0  0  0  0  0  0  0  0  0
   -5.3894    2.9323    0.7716 H   0  0  0  0  0  0  0  0  0  0  0  0
   -4.5139   -1.0487   -2.9336 H   0  0  0  0  0  0  0  0  0  0  0  0
   -5.6410   -1.5210   -1.6527 H   0  0  0  0  0  0  0  0  0  0  0  0
   -4.1032   -2.3689   -1.7840 H   0  0  0  0  0  0  0  0  0  0  0  0
  1  2  1  0
  2  3  2  0
  3  4  1  0
  4  5  2  3
  5  6  1  0
  6  7  1  0
  7  8  2  0
  7  9  1  0
  9 10  2  0
 10 11  1  0
 11 12  1  0
 11 13  2  0
 13 14  1  0
 14 15  2  0
 15 16  1  0
  3 17  1  0
 17 18  2  0
 17 19  1  0
 19 20  1  0
 19 21  1  0
 21 22  2  0
 21 23  1  0
 23 24  1  0
 23  2  1  0
 15  9  1  0
  1 25  1  0
  1 26  1  0
  1 27  1  0
  4 28  1  0
  6 29  1  0
 10 30  1  0
 13 31  1  0
 14 32  1  0
 16 33  1  0
 20 34  1  0
 20 35  1  0
 20 36  1  0
 24 37  1  0
 24 38  1  0
 24 39  1  0
M  END
$$$$
