
     RDKit          3D

 37 38  0  0  0  0  0  0  0  0999 V2000
    0.8146   -0.2917   -2.1799 O   0  0  0  0  0  0  0  0  0  0  0  0
    0.4974    0.6015   -1.3950 C   0  0  0  0  0  0  0  0  0  0  0  0
   -0.5630    1.6451   -1.7378 C   0  0  0  0  0  0  0  0  0  0  0  0
   -1.8826    1.1412   -1.5262 O   0  0  0  0  0  0  0  0  0  0  0  0
   -2.2784    1.0786   -0.2326 C   0  0  0  0  0  0  0  0  0  0  0  0
   -1.6317    1.4680    0.7319 O   0  0  0  0  0  0  0  0  0  0  0  0
   -3.6383    0.4829   -0.1195 C   0  0  0  0  0  0  0  0  0  0  0  0
   -4.2997   -0.0472   -1.2432 C   0  0  0  0  0  0  0  0  0  0  0  0
   -5.5800   -0.5992   -1.1154 C   0  0  0  0  0  0  0  0  0  0  0  0
   -6.2053   -0.6164    0.1311 C   0  0  0  0  0  0  0  0  0  0  0  0
   -7.7854   -1.2841    0.2810 Cl  0  0  0  0  0  0  0  0  0  0  0  0
   -5.5619   -0.0915    1.2512 C   0  0  0  0  0  0  0  0  0  0  0  0
   -4.2817    0.4527    1.1265 C   0  0  0  0  0  0  0  0  0  0  0  0
   -3.7241    0.9394    2.2822 O   0  0  0  0  0  0  0  0  0  0  0  0
    1.0410    0.7411   -0.1289 N   0  0  0  0  0  0  0  0  0  0  0  0
    1.9672   -0.2475    0.4025 C   0  0  0  0  0  0  0  0  0  0  0  0
    3.3056   -0.2959   -0.3477 C   0  0  0  0  0  0  0  0  0  0  0  0
    4.3393   -0.9938    0.3998 N   0  0  0  0  0  0  0  0  0  0  0  0
    5.3938   -0.3678    1.0177 C   0  0  0  0  0  0  0  0  0  0  0  0
    5.4842    0.9916    0.9690 O   0  0  0  0  0  0  0  0  0  0  0  0
    6.2608   -1.1947    1.6138 C   0  0  0  0  0  0  0  0  0  0  0  0
    5.7667   -2.8520    1.4442 S   0  0  0  0  0  0  0  0  0  0  0  0
    4.3261   -2.3743    0.5218 C   0  0  0  0  0  0  0  0  0  0  0  0
    3.4937   -3.1652    0.1091 O   0  0  0  0  0  0  0  0  0  0  0  0
   -0.4633    1.8907   -2.8006 H   0  0  0  0  0  0  0  0  0  0  0  0
   -0.3988    2.5763   -1.1821 H   0  0  0  0  0  0  0  0  0  0  0  0
   -3.8303   -0.0359   -2.2268 H   0  0  0  0  0  0  0  0  0  0  0  0
   -6.0821   -1.0097   -1.9904 H   0  0  0  0  0  0  0  0  0  0  0  0
   -6.0481   -0.0941    2.2220 H   0  0  0  0  0  0  0  0  0  0  0  0
   -2.8254    1.2863    2.0911 H   0  0  0  0  0  0  0  0  0  0  0  0
    0.4597    1.2377    0.5498 H   0  0  0  0  0  0  0  0  0  0  0  0
    1.4779   -1.2267    0.3719 H   0  0  0  0  0  0  0  0  0  0  0  0
    2.1260    0.0112    1.4537 H   0  0  0  0  0  0  0  0  0  0  0  0
    3.6441    0.7192   -0.5946 H   0  0  0  0  0  0  0  0  0  0  0  0
    3.1764   -0.8221   -1.3031 H   0  0  0  0  0  0  0  0  0  0  0  0
    6.3381    1.2555    1.3556 H   0  0  0  0  0  0  0  0  0  0  0  0
    7.1674   -0.9094    2.1324 H   0  0  0  0  0  0  0  0  0  0  0  0
  1  2  2  0
  2  3  1  0
  3  4  1  0
  4  5  1  0
  5  6  2  0
  5  7  1  0
  7  8  2  0
  8  9  1  0
  9 10  2  0
 10 11  1  0
 10 12  1  0
 12 13  2  0
 13 14  1  0
  2 15  1  0
 15 16  1  0
 16 17  1  0
 17 18  1  0
 18 19  1  0
 19 20  1  0
 19 21  2  0
 21 22  1  0
 22 23  1  0
 23 24  2  0
 13  7  1  0
 23 18  1  0
  3 25  1  0
  3 26  1  0
  8 27  1  0
  9 28  1  0
 12 29  1  0
 14 30  1  0
 15 31  1  0
 16 32  1  0
 16 33  1  0
 17 34  1  0
 17 35  1  0
 20 36  1  0
 21 37  1  0
M  END
$$$$
