
     RDKit          3D

 61 65  0  0  0  0  0  0  0  0999 V2000
    6.2229    4.5553    2.2366 C   0  0  0  0  0  0  0  0  0  0  0  0
    4.9245    3.9792    2.3001 O   0  0  0  0  0  0  0  0  0  0  0  0
    4.8100    2.6713    1.9183 C   0  0  0  0  0  0  0  0  0  0  0  0
    3.5137    2.1583    1.9868 C   0  0  0  0  0  0  0  0  0  0  0  0
    3.2514    0.8334    1.6282 C   0  0  0  0  0  0  0  0  0  0  0  0
    4.2895   -0.0030    1.1944 C   0  0  0  0  0  0  0  0  0  0  0  0
    4.0068   -1.4322    0.7981 C   0  0  0  0  0  0  0  0  0  0  0  0
    3.9888   -1.5953   -0.6419 N   0  0  0  0  0  0  0  0  0  0  0  0
    5.0086   -2.2190   -1.2840 N   0  0  0  0  0  0  0  0  0  0  0  0
    4.6961   -2.2809   -2.5797 N   0  0  0  0  0  0  0  0  0  0  0  0
    3.4739   -1.7009   -2.7291 C   0  0  0  0  0  0  0  0  0  0  0  0
    2.6609   -1.5001   -3.8981 C   0  0  0  0  0  0  0  0  0  0  0  0
    2.9480   -1.8365   -5.0428 O   0  0  0  0  0  0  0  0  0  0  0  0
    1.4650   -0.8575   -3.5982 N   0  0  0  0  0  0  0  0  0  0  0  0
    1.1079   -0.4215   -2.3240 C   0  0  0  0  0  0  0  0  0  0  0  0
   -0.2443    0.2768   -2.2463 C   0  0  0  0  0  0  0  0  0  0  0  0
   -1.3486   -0.7810   -2.1132 C   0  0  0  0  0  0  0  0  0  0  0  0
   -2.5560   -0.2369   -1.3590 C   0  0  0  0  0  0  0  0  0  0  0  0
   -2.1815    0.1345    0.0336 N   0  0  0  0  0  0  0  0  0  0  0  0
   -3.3767    0.9939    0.9104 S   0  0  0  0  0  6  0  0  0  0  0  0
   -3.7472    2.1421    0.1109 O   0  0  0  0  0  0  0  0  0  0  0  0
   -2.9129    1.1438    2.2761 O   0  0  0  0  0  0  0  0  0  0  0  0
   -4.7392   -0.1441    0.9394 C   0  0  0  0  0  0  0  0  0  0  0  0
   -4.6510   -1.2837    1.7426 C   0  0  0  0  0  0  0  0  0  0  0  0
   -5.7246   -2.1740    1.7940 C   0  0  0  0  0  0  0  0  0  0  0  0
   -6.8819   -1.9334    1.0433 C   0  0  0  0  0  0  0  0  0  0  0  0
   -8.0502   -2.8739    1.1246 C   0  0  0  0  0  0  0  0  0  0  0  0
   -6.9653   -0.7714    0.2592 C   0  0  0  0  0  0  0  0  0  0  0  0
   -5.8963    0.1253    0.2047 C   0  0  0  0  0  0  0  0  0  0  0  0
   -0.8018    0.6823    0.1876 C   0  0  0  0  0  0  0  0  0  0  0  0
   -0.2969    1.3037   -1.1077 C   0  0  0  0  0  0  0  0  0  0  0  0
    1.8267   -0.6263   -1.2544 N   0  0  0  0  0  0  0  0  0  0  0  0
    2.9967   -1.2587   -1.5186 C   0  0  0  0  0  0  0  0  0  0  0  0
    5.5891    0.5190    1.1201 C   0  0  0  0  0  0  0  0  0  0  0  0
    5.8481    1.8458    1.4838 C   0  0  0  0  0  0  0  0  0  0  0  0
    6.9197    4.0390    2.9013 H   0  0  0  0  0  0  0  0  0  0  0  0
    6.5980    4.5711    1.2108 H   0  0  0  0  0  0  0  0  0  0  0  0
    6.1453    5.5879    2.5773 H   0  0  0  0  0  0  0  0  0  0  0  0
    2.6986    2.7982    2.3212 H   0  0  0  0  0  0  0  0  0  0  0  0
    2.2295    0.4648    1.6856 H   0  0  0  0  0  0  0  0  0  0  0  0
    4.7682   -2.1034    1.2159 H   0  0  0  0  0  0  0  0  0  0  0  0
    3.0357   -1.7706    1.1819 H   0  0  0  0  0  0  0  0  0  0  0  0
    0.8751   -0.6765   -4.3974 H   0  0  0  0  0  0  0  0  0  0  0  0
   -0.3864    0.8226   -3.1892 H   0  0  0  0  0  0  0  0  0  0  0  0
   -1.6544   -1.1164   -3.1104 H   0  0  0  0  0  0  0  0  0  0  0  0
   -0.9721   -1.6700   -1.5935 H   0  0  0  0  0  0  0  0  0  0  0  0
   -3.3190   -1.0216   -1.3246 H   0  0  0  0  0  0  0  0  0  0  0  0
   -2.9726    0.6245   -1.8949 H   0  0  0  0  0  0  0  0  0  0  0  0
   -3.7549   -1.4779    2.3318 H   0  0  0  0  0  0  0  0  0  0  0  0
   -5.6546   -3.0535    2.4289 H   0  0  0  0  0  0  0  0  0  0  0  0
   -8.5184   -2.9953    0.1395 H   0  0  0  0  0  0  0  0  0  0  0  0
   -8.7923   -2.4851    1.8309 H   0  0  0  0  0  0  0  0  0  0  0  0
   -7.7347   -3.8701    1.4593 H   0  0  0  0  0  0  0  0  0  0  0  0
   -7.8697   -0.5576   -0.3077 H   0  0  0  0  0  0  0  0  0  0  0  0
   -5.9772    1.0246   -0.4018 H   0  0  0  0  0  0  0  0  0  0  0  0
   -0.7580    1.4361    0.9807 H   0  0  0  0  0  0  0  0  0  0  0  0
   -0.1530   -0.1386    0.5136 H   0  0  0  0  0  0  0  0  0  0  0  0
   -0.9747    2.1185   -1.3960 H   0  0  0  0  0  0  0  0  0  0  0  0
    0.6847    1.7646   -0.9437 H   0  0  0  0  0  0  0  0  0  0  0  0
    6.4130   -0.1018    0.7720 H   0  0  0  0  0  0  0  0  0  0  0  0
    6.8702    2.2018    1.4130 H   0  0  0  0  0  0  0  0  0  0  0  0
  1  2  1  0
  2  3  1  0
  3  4  2  0
  4  5  1  0
  5  6  2  0
  6  7  1  0
  7  8  1  0
  8  9  1  0
  9 10  2  0
 10 11  1  0
 11 12  1  0
 12 13  2  0
 12 14  1  0
 14 15  1  0
 15 16  1  0
 16 17  1  0
 17 18  1  0
 18 19  1  0
 19 20  1  0
 20 21  2  0
 20 22  2  0
 20 23  1  0
 23 24  2  0
 24 25  1  0
 25 26  2  0
 26 27  1  0
 26 28  1  0
 28 29  2  0
 19 30  1  0
 30 31  1  0
 15 32  2  0
 32 33  1  0
  6 34  1  0
 34 35  2  0
 35  3  1  0
 33  8  1  0
 33 11  2  0
 31 16  1  0
 29 23  1  0
  1 36  1  0
  1 37  1  0
  1 38  1  0
  4 39  1  0
  5 40  1  0
  7 41  1  0
  7 42  1  0
 14 43  1  0
 16 44  1  0
 17 45  1  0
 17 46  1  0
 18 47  1  0
 18 48  1  0
 24 49  1  0
 25 50  1  0
 27 51  1  0
 27 52  1  0
 27 53  1  0
 28 54  1  0
 29 55  1  0
 30 56  1  0
 30 57  1  0
 31 58  1  0
 31 59  1  0
 34 60  1  0
 35 61  1  0
M  END
$$$$
