
     RDKit          3D

 38 38  0  0  0  0  0  0  0  0999 V2000
    4.9745   -1.8043   -2.6380 C   0  0  0  0  0  0  0  0  0  0  0  0
    4.7092   -0.3147   -2.5403 C   0  0  0  0  0  0  0  0  0  0  0  0
    3.3509   -0.1293   -2.1249 O   0  0  0  0  0  0  0  0  0  0  0  0
    2.9934    1.1728   -1.9499 C   0  0  0  0  0  0  0  0  0  0  0  0
    3.7029    2.1403   -2.1945 O   0  0  0  0  0  0  0  0  0  0  0  0
    1.5701    1.2752   -1.4904 C   0  0  0  0  0  0  0  0  0  0  0  0
    1.3251    0.6596   -0.1375 C   0  0  0  0  0  0  0  0  0  0  0  0
    2.2350    0.4130    0.6511 O   0  0  0  0  0  0  0  0  0  0  0  0
   -0.0813    0.3577    0.2696 C   0  0  0  0  0  0  0  0  0  0  0  0
   -1.1828    0.9095   -0.4004 C   0  0  0  0  0  0  0  0  0  0  0  0
   -2.4811    0.5992    0.0119 C   0  0  0  0  0  0  0  0  0  0  0  0
   -3.6235    1.0831   -0.5713 O   0  0  0  0  0  0  0  0  0  0  0  0
   -3.4940    1.7939   -1.7946 C   0  0  0  0  0  0  0  0  0  0  0  0
   -2.6620   -0.2512    1.1172 C   0  0  0  0  0  0  0  0  0  0  0  0
   -3.9419   -0.5942    1.4952 O   0  0  0  0  0  0  0  0  0  0  0  0
   -4.4082    0.3037    2.5010 C   0  0  0  0  0  0  0  0  0  0  0  0
   -1.5679   -0.8184    1.7917 C   0  0  0  0  0  0  0  0  0  0  0  0
   -1.8637   -1.6498    2.8400 O   0  0  0  0  0  0  0  0  0  0  0  0
   -0.7786   -2.2958    3.4930 C   0  0  0  0  0  0  0  0  0  0  0  0
   -0.2788   -0.4990    1.3648 C   0  0  0  0  0  0  0  0  0  0  0  0
    4.8040   -2.2902   -1.6716 H   0  0  0  0  0  0  0  0  0  0  0  0
    4.2905   -2.2715   -3.3543 H   0  0  0  0  0  0  0  0  0  0  0  0
    6.0033   -1.9976   -2.9542 H   0  0  0  0  0  0  0  0  0  0  0  0
    5.3870    0.1343   -1.8055 H   0  0  0  0  0  0  0  0  0  0  0  0
    4.8620    0.1536   -3.5190 H   0  0  0  0  0  0  0  0  0  0  0  0
    0.9472    0.7974   -2.2541 H   0  0  0  0  0  0  0  0  0  0  0  0
    1.3071    2.3375   -1.4371 H   0  0  0  0  0  0  0  0  0  0  0  0
   -1.0259    1.5904   -1.2279 H   0  0  0  0  0  0  0  0  0  0  0  0
   -2.9792    2.7476   -1.6398 H   0  0  0  0  0  0  0  0  0  0  0  0
   -4.5008    2.0152   -2.1615 H   0  0  0  0  0  0  0  0  0  0  0  0
   -2.9873    1.1897   -2.5545 H   0  0  0  0  0  0  0  0  0  0  0  0
   -4.4370    1.3353    2.1332 H   0  0  0  0  0  0  0  0  0  0  0  0
   -5.4293    0.0108    2.7632 H   0  0  0  0  0  0  0  0  0  0  0  0
   -3.7965    0.2423    3.4076 H   0  0  0  0  0  0  0  0  0  0  0  0
   -1.1947   -2.9442    4.2700 H   0  0  0  0  0  0  0  0  0  0  0  0
   -0.1248   -1.5671    3.9832 H   0  0  0  0  0  0  0  0  0  0  0  0
   -0.2173   -2.9282    2.7973 H   0  0  0  0  0  0  0  0  0  0  0  0
    0.5945   -0.9068    1.8665 H   0  0  0  0  0  0  0  0  0  0  0  0
  1  2  1  0
  2  3  1  0
  3  4  1  0
  4  5  2  0
  4  6  1  0
  6  7  1  0
  7  8  2  0
  7  9  1  0
  9 10  2  0
 10 11  1  0
 11 12  1  0
 12 13  1  0
 11 14  2  0
 14 15  1  0
 15 16  1  0
 14 17  1  0
 17 18  1  0
 18 19  1  0
 17 20  2  0
 20  9  1  0
  1 21  1  0
  1 22  1  0
  1 23  1  0
  2 24  1  0
  2 25  1  0
  6 26  1  0
  6 27  1  0
 10 28  1  0
 13 29  1  0
 13 30  1  0
 13 31  1  0
 16 32  1  0
 16 33  1  0
 16 34  1  0
 19 35  1  0
 19 36  1  0
 19 37  1  0
 20 38  1  0
M  END
$$$$
