
     RDKit          3D

 55 60  0  0  0  0  0  0  0  0999 V2000
    7.2615    2.1444   -1.2792 C   0  0  0  0  0  0  0  0  0  0  0  0
    5.9877    2.5496   -1.6795 C   0  0  0  0  0  0  0  0  0  0  0  0
    4.8706    1.7857   -1.3357 C   0  0  0  0  0  0  0  0  0  0  0  0
    5.0295    0.6192   -0.5785 C   0  0  0  0  0  0  0  0  0  0  0  0
    3.8632   -0.2259   -0.2097 C   0  0  0  0  0  0  0  0  0  0  0  0
    3.9564   -1.5135   -0.3681 N   0  0  0  0  0  0  0  0  0  0  0  0
    2.8620   -2.3309   -0.0224 C   0  0  0  0  0  0  0  0  0  0  0  0
    3.0251   -3.7148   -0.1310 C   0  0  0  0  0  0  0  0  0  0  0  0
    1.9964   -4.5862    0.2303 C   0  0  0  0  0  0  0  0  0  0  0  0
    0.7956   -4.0772    0.7201 C   0  0  0  0  0  0  0  0  0  0  0  0
    0.6128   -2.6976    0.8328 C   0  0  0  0  0  0  0  0  0  0  0  0
    1.6317   -1.8276    0.4346 C   0  0  0  0  0  0  0  0  0  0  0  0
    1.5306   -0.4177    0.5256 N   0  0  0  0  0  0  0  0  0  0  0  0
    0.4550    0.4192    0.8345 C   0  0  0  0  0  0  0  0  0  0  0  0
   -0.8580    0.0175    0.8376 N   0  0  0  0  0  0  0  0  0  0  0  0
   -1.8095    0.7349    1.7179 C   0  0  0  0  0  0  0  0  0  0  0  0
   -3.2535    0.2084    1.5591 C   0  0  0  0  0  0  0  0  0  0  0  0
   -3.7292    0.3540    0.1693 N   0  0  0  0  0  0  0  0  0  0  0  0
   -5.0663    0.5769   -0.1128 C   0  0  0  0  0  0  0  0  0  0  0  0
   -6.0824    0.1706    0.7687 C   0  0  0  0  0  0  0  0  0  0  0  0
   -7.4385    0.3859    0.4921 C   0  0  0  0  0  0  0  0  0  0  0  0
   -7.8171    1.0177   -0.6854 C   0  0  0  0  0  0  0  0  0  0  0  0
   -6.8387    1.4285   -1.5818 C   0  0  0  0  0  0  0  0  0  0  0  0
   -5.4852    1.2068   -1.2961 C   0  0  0  0  0  0  0  0  0  0  0  0
   -2.6854    0.4349   -0.8688 C   0  0  0  0  0  0  0  0  0  0  0  0
   -1.4351   -0.3870   -0.4779 C   0  0  0  0  0  0  0  0  0  0  0  0
    0.9894    1.6674    1.1016 C   0  0  0  0  0  0  0  0  0  0  0  0
    2.3591    1.6420    0.7590 C   0  0  0  0  0  0  0  0  0  0  0  0
    2.6515    0.3682    0.3130 C   0  0  0  0  0  0  0  0  0  0  0  0
    6.3108    0.2040   -0.1971 C   0  0  0  0  0  0  0  0  0  0  0  0
    7.4244    0.9710   -0.5425 C   0  0  0  0  0  0  0  0  0  0  0  0
    8.1306    2.7386   -1.5511 H   0  0  0  0  0  0  0  0  0  0  0  0
    5.8663    3.4557   -2.2679 H   0  0  0  0  0  0  0  0  0  0  0  0
    3.8873    2.0962   -1.6784 H   0  0  0  0  0  0  0  0  0  0  0  0
    3.9696   -4.1121   -0.4936 H   0  0  0  0  0  0  0  0  0  0  0  0
    2.1405   -5.6599    0.1447 H   0  0  0  0  0  0  0  0  0  0  0  0
    0.0029   -4.7551    1.0268 H   0  0  0  0  0  0  0  0  0  0  0  0
   -0.3140   -2.3335    1.2623 H   0  0  0  0  0  0  0  0  0  0  0  0
   -1.8041    1.8080    1.4875 H   0  0  0  0  0  0  0  0  0  0  0  0
   -1.4983    0.6117    2.7621 H   0  0  0  0  0  0  0  0  0  0  0  0
   -3.8849    0.7763    2.2529 H   0  0  0  0  0  0  0  0  0  0  0  0
   -3.2976   -0.8502    1.8419 H   0  0  0  0  0  0  0  0  0  0  0  0
   -5.8357   -0.3522    1.6886 H   0  0  0  0  0  0  0  0  0  0  0  0
   -8.1935    0.0511    1.1981 H   0  0  0  0  0  0  0  0  0  0  0  0
   -8.8674    1.1865   -0.9043 H   0  0  0  0  0  0  0  0  0  0  0  0
   -7.1210    1.9258   -2.5058 H   0  0  0  0  0  0  0  0  0  0  0  0
   -4.7584    1.5635   -2.0200 H   0  0  0  0  0  0  0  0  0  0  0  0
   -3.0538    0.0337   -1.8204 H   0  0  0  0  0  0  0  0  0  0  0  0
   -2.4069    1.4845   -1.0232 H   0  0  0  0  0  0  0  0  0  0  0  0
   -1.7228   -1.4429   -0.4112 H   0  0  0  0  0  0  0  0  0  0  0  0
   -0.6937   -0.3036   -1.2825 H   0  0  0  0  0  0  0  0  0  0  0  0
    0.4361    2.5374    1.4275 H   0  0  0  0  0  0  0  0  0  0  0  0
    3.0445    2.4782    0.8091 H   0  0  0  0  0  0  0  0  0  0  0  0
    6.4414   -0.7155    0.3691 H   0  0  0  0  0  0  0  0  0  0  0  0
    8.4184    0.6496   -0.2419 H   0  0  0  0  0  0  0  0  0  0  0  0
  1  2  2  0
  2  3  1  0
  3  4  2  0
  4  5  1  0
  5  6  2  0
  6  7  1  0
  7  8  2  0
  8  9  1  0
  9 10  2  0
 10 11  1  0
 11 12  2  0
 12 13  1  0
 13 14  1  0
 14 15  1  0
 15 16  1  0
 16 17  1  0
 17 18  1  0
 18 19  1  0
 19 20  2  0
 20 21  1  0
 21 22  2  0
 22 23  1  0
 23 24  2  0
 18 25  1  0
 25 26  1  0
 14 27  2  0
 27 28  1  0
 28 29  2  0
  4 30  1  0
 30 31  2  0
 31  1  1  0
 29  5  1  0
 12  7  1  0
 29 13  1  0
 26 15  1  0
 24 19  1  0
  1 32  1  0
  2 33  1  0
  3 34  1  0
  8 35  1  0
  9 36  1  0
 10 37  1  0
 11 38  1  0
 16 39  1  0
 16 40  1  0
 17 41  1  0
 17 42  1  0
 20 43  1  0
 21 44  1  0
 22 45  1  0
 23 46  1  0
 24 47  1  0
 25 48  1  0
 25 49  1  0
 26 50  1  0
 26 51  1  0
 27 52  1  0
 28 53  1  0
 30 54  1  0
 31 55  1  0
M  END
$$$$
