
     RDKit          3D

 56 61  0  0  0  0  0  0  0  0999 V2000
   -5.9004   -2.3292    0.9932 C   0  0  0  0  0  0  0  0  0  0  0  0
   -4.5086   -1.9578    1.4096 C   0  0  0  0  0  0  0  0  0  0  0  0
   -4.2009   -1.6373    2.7453 C   0  0  0  0  0  0  0  0  0  0  0  0
   -5.4200   -1.6468    3.9736 Cl  0  0  0  0  0  0  0  0  0  0  0  0
   -2.8922   -1.2982    3.1399 C   0  0  0  0  0  0  0  0  0  0  0  0
   -1.8488   -1.2717    2.2136 C   0  0  0  0  0  0  0  0  0  0  0  0
   -2.1356   -1.5867    0.8958 C   0  0  0  0  0  0  0  0  0  0  0  0
   -3.4449   -1.9257    0.5151 C   0  0  0  0  0  0  0  0  0  0  0  0
   -3.4741   -2.2163   -0.8477 N   0  0  0  0  0  0  0  0  0  0  0  0
   -2.2080   -2.1243   -1.4225 C   0  0  0  0  0  0  0  0  0  0  0  0
   -1.9406   -2.4048   -2.5811 O   0  0  0  0  0  0  0  0  0  0  0  0
   -1.2385   -1.6471   -0.3102 C   0  0  0  0  0  0  0  0  0  0  0  0
   -0.0526   -2.5598   -0.1906 N   0  0  0  0  0  0  0  0  0  0  0  0
    1.2231   -1.7353   -0.2183 C   0  0  2  0  0  0  0  0  0  0  0  0
    1.9391   -1.8908    1.1351 C   0  0  0  0  0  0  0  0  0  0  0  0
    3.3781   -1.4255    1.1455 C   0  0  0  0  0  0  0  0  0  0  0  0
    3.7534   -0.2885    1.8739 C   0  0  0  0  0  0  0  0  0  0  0  0
    5.0840    0.1330    1.8945 C   0  0  0  0  0  0  0  0  0  0  0  0
    6.0528   -0.5790    1.1903 C   0  0  0  0  0  0  0  0  0  0  0  0
    5.6924   -1.7134    0.4659 C   0  0  0  0  0  0  0  0  0  0  0  0
    4.3624   -2.1365    0.4446 C   0  0  0  0  0  0  0  0  0  0  0  0
    0.7250   -0.3742   -0.5171 C   0  0  0  0  0  0  0  0  0  0  0  0
   -0.6653   -0.3154   -0.5437 C   0  0  0  0  0  0  0  0  0  0  0  0
   -1.0507    0.9788   -0.7904 C   0  0  0  0  0  0  0  0  0  0  0  0
   -2.2681    1.5043   -0.9065 O   0  0  0  0  0  0  0  0  0  0  0  0
    0.1241    1.7247   -1.0079 N   0  0  0  0  0  0  0  0  0  0  0  0
    0.1936    3.0925   -1.4243 C   0  0  0  0  0  0  0  0  0  0  0  0
    1.2356    3.5233   -2.2602 C   0  0  0  0  0  0  0  0  0  0  0  0
    1.3105    4.8588   -2.6636 C   0  0  0  0  0  0  0  0  0  0  0  0
    0.3461    5.7712   -2.2421 C   0  0  0  0  0  0  0  0  0  0  0  0
   -0.6999    5.3483   -1.4247 C   0  0  0  0  0  0  0  0  0  0  0  0
   -0.7815    4.0129   -1.0204 C   0  0  0  0  0  0  0  0  0  0  0  0
    1.2230    0.8741   -0.7729 C   0  0  0  0  0  0  0  0  0  0  0  0
    2.4951    1.2648   -0.7643 O   0  0  0  0  0  0  0  0  0  0  0  0
   -6.2022   -3.2651    1.4746 H   0  0  0  0  0  0  0  0  0  0  0  0
   -5.9900   -2.4731   -0.0869 H   0  0  0  0  0  0  0  0  0  0  0  0
   -6.6053   -1.5363    1.2643 H   0  0  0  0  0  0  0  0  0  0  0  0
   -2.6836   -1.0554    4.1801 H   0  0  0  0  0  0  0  0  0  0  0  0
   -0.8428   -1.0100    2.5243 H   0  0  0  0  0  0  0  0  0  0  0  0
   -4.2726   -2.5426   -1.3716 H   0  0  0  0  0  0  0  0  0  0  0  0
   -0.0392   -3.0937   -1.0644 H   0  0  0  0  0  0  0  0  0  0  0  0
    1.8475   -2.1007   -1.0422 H   0  0  0  0  0  0  0  0  0  0  0  0
    1.9489   -2.9506    1.4269 H   0  0  0  0  0  0  0  0  0  0  0  0
    1.3837   -1.3733    1.9272 H   0  0  0  0  0  0  0  0  0  0  0  0
    3.0083    0.2826    2.4223 H   0  0  0  0  0  0  0  0  0  0  0  0
    5.3633    1.0187    2.4582 H   0  0  0  0  0  0  0  0  0  0  0  0
    7.0881   -0.2495    1.2051 H   0  0  0  0  0  0  0  0  0  0  0  0
    6.4473   -2.2696   -0.0831 H   0  0  0  0  0  0  0  0  0  0  0  0
    4.1001   -3.0276   -0.1209 H   0  0  0  0  0  0  0  0  0  0  0  0
   -2.9225    0.8037   -0.7405 H   0  0  0  0  0  0  0  0  0  0  0  0
    1.9707    2.8261   -2.6575 H   0  0  0  0  0  0  0  0  0  0  0  0
    2.1130    5.1827   -3.3217 H   0  0  0  0  0  0  0  0  0  0  0  0
    0.4025    6.8092   -2.5597 H   0  0  0  0  0  0  0  0  0  0  0  0
   -1.4565    6.0580   -1.0996 H   0  0  0  0  0  0  0  0  0  0  0  0
   -1.5987    3.7240   -0.3651 H   0  0  0  0  0  0  0  0  0  0  0  0
    2.5325    2.2199   -0.5806 H   0  0  0  0  0  0  0  0  0  0  0  0
  1  2  1  0
  2  3  2  0
  3  4  1  0
  3  5  1  0
  5  6  2  0
  6  7  1  0
  7  8  2  0
  8  9  1  0
  9 10  1  0
 10 11  2  0
 10 12  1  0
 12 13  1  0
 13 14  1  0
 14 15  1  0
 15 16  1  0
 16 17  2  0
 17 18  1  0
 18 19  2  0
 19 20  1  0
 20 21  2  0
 14 22  1  0
 22 23  1  0
 23 24  2  0
 24 25  1  0
 24 26  1  0
 26 27  1  0
 27 28  2  0
 28 29  1  0
 29 30  2  0
 30 31  1  0
 31 32  2  0
 26 33  1  0
 33 34  1  0
  8  2  1  0
 23 12  1  0
 32 27  1  0
 12  7  1  0
 21 16  1  0
 33 22  2  0
  1 35  1  0
  1 36  1  0
  1 37  1  0
  5 38  1  0
  6 39  1  0
  9 40  1  0
 13 41  1  0
 14 42  1  6
 15 43  1  0
 15 44  1  0
 17 45  1  0
 18 46  1  0
 19 47  1  0
 20 48  1  0
 21 49  1  0
 25 50  1  0
 28 51  1  0
 29 52  1  0
 30 53  1  0
 31 54  1  0
 32 55  1  0
 34 56  1  0
M  END
$$$$
