
     RDKit          3D

 61 65  0  0  0  0  0  0  0  0999 V2000
   -8.4649    0.0351    2.3448 C   0  0  0  0  0  0  0  0  0  0  0  0
   -7.6963   -0.3668    1.2222 O   0  0  0  0  0  0  0  0  0  0  0  0
   -6.4479    0.1814    1.0706 C   0  0  0  0  0  0  0  0  0  0  0  0
   -5.8411    1.0267    2.0084 C   0  0  0  0  0  0  0  0  0  0  0  0
   -4.5589    1.5351    1.7730 C   0  0  0  0  0  0  0  0  0  0  0  0
   -3.8602    1.2097    0.6014 C   0  0  0  0  0  0  0  0  0  0  0  0
   -2.5259    1.7350    0.3270 C   0  0  0  0  0  0  0  0  0  0  0  0
   -1.7923    1.6163   -0.7650 N   0  0  0  0  0  0  0  0  0  0  0  0
   -0.6340    2.3159   -0.4876 C   0  0  0  0  0  0  0  0  0  0  0  0
    0.4036    2.4584   -1.5426 C   0  0  0  0  0  0  0  0  0  0  0  0
    1.7554    2.2221   -1.0619 N   0  0  0  0  0  0  0  0  0  0  0  0
    2.3811    1.0110   -0.8945 C   0  0  0  0  0  0  0  0  0  0  0  0
    1.5842   -0.5106   -1.1229 S   0  0  0  0  0  0  0  0  0  0  0  0
    2.8612   -1.4433   -2.0199 C   0  0  0  0  0  0  0  0  0  0  0  0
    3.6076   -2.4301   -1.1532 C   0  0  0  0  0  0  0  0  0  0  0  0
    4.7940   -2.0533   -0.4967 C   0  0  0  0  0  0  0  0  0  0  0  0
    5.5102   -2.9762    0.2726 C   0  0  0  0  0  0  0  0  0  0  0  0
    5.0568   -4.2955    0.3982 C   0  0  0  0  0  0  0  0  0  0  0  0
    5.8403   -5.2770    1.2213 C   0  0  0  0  0  0  0  0  0  0  0  0
    3.8570   -4.6667   -0.2247 C   0  0  0  0  0  0  0  0  0  0  0  0
    3.1383   -3.7423   -0.9917 C   0  0  0  0  0  0  0  0  0  0  0  0
    3.6372    1.1533   -0.5426 N   0  0  0  0  0  0  0  0  0  0  0  0
    3.8467    2.5053   -0.4692 C   0  0  0  0  0  0  0  0  0  0  0  0
    5.0025    3.2071   -0.1251 C   0  0  0  0  0  0  0  0  0  0  0  0
    4.8962    4.5885   -0.1547 C   0  0  0  0  0  0  0  0  0  0  0  0
    3.7806    5.2720   -0.4987 N   0  0  0  0  0  0  0  0  0  0  0  0
    2.6623    4.5914   -0.8358 C   0  0  0  0  0  0  0  0  0  0  0  0
    2.6922    3.2042   -0.8091 C   0  0  0  0  0  0  0  0  0  0  0  0
   -0.7200    2.8355    0.7935 C   0  0  0  0  0  0  0  0  0  0  0  0
    0.1381    3.6741    1.6536 C   0  0  0  0  0  0  0  0  0  0  0  0
   -1.9292    2.4680    1.3172 O   0  0  0  0  0  0  0  0  0  0  0  0
   -4.4732    0.3601   -0.3368 C   0  0  0  0  0  0  0  0  0  0  0  0
   -5.7553   -0.1579   -0.1143 C   0  0  0  0  0  0  0  0  0  0  0  0
   -6.4184   -0.9869   -0.9921 O   0  0  0  0  0  0  0  0  0  0  0  0
   -5.7076   -1.4429   -2.1353 C   0  0  0  0  0  0  0  0  0  0  0  0
   -9.4430   -0.4564    2.2780 H   0  0  0  0  0  0  0  0  0  0  0  0
   -7.9939   -0.2883    3.2774 H   0  0  0  0  0  0  0  0  0  0  0  0
   -8.6365    1.1134    2.3385 H   0  0  0  0  0  0  0  0  0  0  0  0
   -6.3349    1.3077    2.9400 H   0  0  0  0  0  0  0  0  0  0  0  0
   -4.1151    2.1958    2.5177 H   0  0  0  0  0  0  0  0  0  0  0  0
    0.2162    1.7664   -2.3717 H   0  0  0  0  0  0  0  0  0  0  0  0
    0.3601    3.4667   -1.9687 H   0  0  0  0  0  0  0  0  0  0  0  0
    2.3508   -1.9898   -2.8258 H   0  0  0  0  0  0  0  0  0  0  0  0
    3.5670   -0.7699   -2.5326 H   0  0  0  0  0  0  0  0  0  0  0  0
    5.1700   -1.0326   -0.5817 H   0  0  0  0  0  0  0  0  0  0  0  0
    6.4301   -2.6550    0.7759 H   0  0  0  0  0  0  0  0  0  0  0  0
    5.5114   -6.3057    1.0334 H   0  0  0  0  0  0  0  0  0  0  0  0
    6.9026   -5.2208    0.9598 H   0  0  0  0  0  0  0  0  0  0  0  0
    5.7179   -5.0616    2.2893 H   0  0  0  0  0  0  0  0  0  0  0  0
    3.4768   -5.6804   -0.1204 H   0  0  0  0  0  0  0  0  0  0  0  0
    2.2119   -4.0553   -1.4613 H   0  0  0  0  0  0  0  0  0  0  0  0
    5.9190    2.6992    0.1471 H   0  0  0  0  0  0  0  0  0  0  0  0
    5.7482    5.2101    0.1066 H   0  0  0  0  0  0  0  0  0  0  0  0
    1.7914    5.1824   -1.0961 H   0  0  0  0  0  0  0  0  0  0  0  0
    0.4396    4.5830    1.1234 H   0  0  0  0  0  0  0  0  0  0  0  0
   -0.3910    3.9830    2.5632 H   0  0  0  0  0  0  0  0  0  0  0  0
    1.0376    3.1246    1.9577 H   0  0  0  0  0  0  0  0  0  0  0  0
   -3.9220    0.1182   -1.2430 H   0  0  0  0  0  0  0  0  0  0  0  0
   -5.4634   -0.6091   -2.8047 H   0  0  0  0  0  0  0  0  0  0  0  0
   -4.8104   -2.0009   -1.8465 H   0  0  0  0  0  0  0  0  0  0  0  0
   -6.3610   -2.1270   -2.6850 H   0  0  0  0  0  0  0  0  0  0  0  0
  1  2  1  0
  2  3  1  0
  3  4  2  0
  4  5  1  0
  5  6  2  0
  6  7  1  0
  7  8  2  0
  8  9  1  0
  9 10  1  0
 10 11  1  0
 11 12  1  0
 12 13  1  0
 13 14  1  0
 14 15  1  0
 15 16  2  0
 16 17  1  0
 17 18  2  0
 18 19  1  0
 18 20  1  0
 20 21  2  0
 12 22  2  0
 22 23  1  0
 23 24  2  0
 24 25  1  0
 25 26  2  0
 26 27  1  0
 27 28  2  0
  9 29  2  0
 29 30  1  0
 29 31  1  0
  6 32  1  0
 32 33  2  0
 33 34  1  0
 34 35  1  0
 33  3  1  0
 31  7  1  0
 28 11  1  0
 21 15  1  0
 28 23  1  0
  1 36  1  0
  1 37  1  0
  1 38  1  0
  4 39  1  0
  5 40  1  0
 10 41  1  0
 10 42  1  0
 14 43  1  0
 14 44  1  0
 16 45  1  0
 17 46  1  0
 19 47  1  0
 19 48  1  0
 19 49  1  0
 20 50  1  0
 21 51  1  0
 24 52  1  0
 25 53  1  0
 27 54  1  0
 30 55  1  0
 30 56  1  0
 30 57  1  0
 32 58  1  0
 35 59  1  0
 35 60  1  0
 35 61  1  0
M  END
$$$$
