
     RDKit          3D

 53 55  0  0  0  0  0  0  0  0999 V2000
   -7.1327   -5.1124    3.2367 C   0  0  0  0  0  0  0  0  0  0  0  0
   -6.1575   -5.0499    2.2034 O   0  0  0  0  0  0  0  0  0  0  0  0
   -5.6305   -3.8202    1.9210 C   0  0  0  0  0  0  0  0  0  0  0  0
   -4.7146   -3.8094    0.8629 C   0  0  0  0  0  0  0  0  0  0  0  0
   -4.0974   -2.6223    0.4661 C   0  0  0  0  0  0  0  0  0  0  0  0
   -4.3963   -1.4387    1.1430 C   0  0  0  0  0  0  0  0  0  0  0  0
   -3.6077    0.0669    0.6368 S   0  0  0  0  0  6  0  0  0  0  0  0
   -4.1347    1.1541    1.4330 O   0  0  0  0  0  0  0  0  0  0  0  0
   -3.6383    0.1159   -0.8088 O   0  0  0  0  0  0  0  0  0  0  0  0
   -2.0103   -0.1874    1.1050 N   0  0  0  0  0  0  0  0  0  0  0  0
   -1.7237   -0.3409    2.5389 C   0  0  0  0  0  0  0  0  0  0  0  0
   -0.2567    0.0155    2.6025 C   0  0  0  0  0  0  0  0  0  0  0  0
   -0.1300    1.0940    1.6749 O   0  0  0  0  0  0  0  0  0  0  0  0
   -1.0672    0.8402    0.6079 C   0  0  0  0  0  0  0  0  0  0  0  0
   -0.3319    0.3190   -0.6494 C   0  0  0  0  0  0  0  0  0  0  0  0
    0.6690    1.2413   -1.1549 N   0  0  0  0  0  0  0  0  0  0  0  0
    1.9714    1.2168   -0.7094 C   0  0  0  0  0  0  0  0  0  0  0  0
    2.4835    0.3587   -0.0037 O   0  0  0  0  0  0  0  0  0  0  0  0
    2.8114    2.4201   -1.1953 C   0  0  0  0  0  0  0  0  0  0  0  0
    2.3016    3.2776   -1.9032 O   0  0  0  0  0  0  0  0  0  0  0  0
    4.1141    2.3888   -0.7596 N   0  0  0  0  0  0  0  0  0  0  0  0
    5.1056    3.3244   -1.2191 C   0  0  0  0  0  0  0  0  0  0  0  0
    5.8933    2.7505   -2.3691 C   0  0  0  0  0  0  0  0  0  0  0  0
    7.0921    2.0565   -2.1396 C   0  0  0  0  0  0  0  0  0  0  0  0
    7.8041    1.5080   -3.2076 C   0  0  0  0  0  0  0  0  0  0  0  0
    7.3156    1.6456   -4.5015 C   0  0  0  0  0  0  0  0  0  0  0  0
    8.0004    1.1171   -5.5243 F   0  0  0  0  0  0  0  0  0  0  0  0
    6.1262    2.3194   -4.7493 C   0  0  0  0  0  0  0  0  0  0  0  0
    5.4126    2.8691   -3.6837 C   0  0  0  0  0  0  0  0  0  0  0  0
   -5.3138   -1.4324    2.1960 C   0  0  0  0  0  0  0  0  0  0  0  0
   -5.9286   -2.6274    2.5849 C   0  0  0  0  0  0  0  0  0  0  0  0
   -7.4644   -6.1518    3.3210 H   0  0  0  0  0  0  0  0  0  0  0  0
   -8.0081   -4.5020    2.9916 H   0  0  0  0  0  0  0  0  0  0  0  0
   -6.7038   -4.8205    4.2010 H   0  0  0  0  0  0  0  0  0  0  0  0
   -4.4862   -4.7363    0.3410 H   0  0  0  0  0  0  0  0  0  0  0  0
   -3.3937   -2.6272   -0.3630 H   0  0  0  0  0  0  0  0  0  0  0  0
   -1.9101   -1.3574    2.8925 H   0  0  0  0  0  0  0  0  0  0  0  0
   -2.3064    0.3718    3.1318 H   0  0  0  0  0  0  0  0  0  0  0  0
    0.0631    0.3329    3.5983 H   0  0  0  0  0  0  0  0  0  0  0  0
    0.3798   -0.8109    2.2668 H   0  0  0  0  0  0  0  0  0  0  0  0
   -1.5592    1.7951    0.3933 H   0  0  0  0  0  0  0  0  0  0  0  0
   -1.0407    0.1407   -1.4637 H   0  0  0  0  0  0  0  0  0  0  0  0
    0.1639   -0.6323   -0.4223 H   0  0  0  0  0  0  0  0  0  0  0  0
    0.3874    2.0681   -1.6763 H   0  0  0  0  0  0  0  0  0  0  0  0
    4.4004    1.5498   -0.2635 H   0  0  0  0  0  0  0  0  0  0  0  0
    4.6324    4.2673   -1.5161 H   0  0  0  0  0  0  0  0  0  0  0  0
    5.7681    3.5447   -0.3749 H   0  0  0  0  0  0  0  0  0  0  0  0
    7.4770    1.9392   -1.1290 H   0  0  0  0  0  0  0  0  0  0  0  0
    8.7331    0.9726   -3.0396 H   0  0  0  0  0  0  0  0  0  0  0  0
    5.7600    2.4093   -5.7669 H   0  0  0  0  0  0  0  0  0  0  0  0
    4.4749    3.3879   -3.8788 H   0  0  0  0  0  0  0  0  0  0  0  0
   -5.5598   -0.5089    2.7159 H   0  0  0  0  0  0  0  0  0  0  0  0
   -6.6370   -2.5925    3.4065 H   0  0  0  0  0  0  0  0  0  0  0  0
  1  2  1  0
  2  3  1  0
  3  4  2  0
  4  5  1  0
  5  6  2  0
  6  7  1  0
  7  8  2  0
  7  9  2  0
  7 10  1  0
 10 11  1  0
 11 12  1  0
 12 13  1  0
 13 14  1  0
 14 15  1  0
 15 16  1  0
 16 17  1  0
 17 18  2  0
 17 19  1  0
 19 20  2  0
 19 21  1  0
 21 22  1  0
 22 23  1  0
 23 24  2  0
 24 25  1  0
 25 26  2  0
 26 27  1  0
 26 28  1  0
 28 29  2  0
  6 30  1  0
 30 31  2  0
 31  3  1  0
 14 10  1  0
 29 23  1  0
  1 32  1  0
  1 33  1  0
  1 34  1  0
  4 35  1  0
  5 36  1  0
 11 37  1  0
 11 38  1  0
 12 39  1  0
 12 40  1  0
 14 41  1  0
 15 42  1  0
 15 43  1  0
 16 44  1  0
 21 45  1  0
 22 46  1  0
 22 47  1  0
 24 48  1  0
 25 49  1  0
 28 50  1  0
 29 51  1  0
 30 52  1  0
 31 53  1  0
M  END
$$$$
