
     RDKit          3D

 46 49  0  0  0  0  0  0  0  0999 V2000
   -4.4669   -4.2279    1.4341 C   0  0  0  0  0  0  0  0  0  0  0  0
   -3.7358   -3.0270    1.6471 O   0  0  0  0  0  0  0  0  0  0  0  0
   -3.4204   -2.2919    0.5368 C   0  0  0  0  0  0  0  0  0  0  0  0
   -3.7959   -2.5845   -0.7746 C   0  0  0  0  0  0  0  0  0  0  0  0
   -3.4003   -1.7471   -1.8213 C   0  0  0  0  0  0  0  0  0  0  0  0
   -2.6330   -0.6113   -1.5625 C   0  0  0  0  0  0  0  0  0  0  0  0
   -2.2608   -0.3031   -0.2510 C   0  0  0  0  0  0  0  0  0  0  0  0
   -1.4556    0.8787    0.0276 C   0  0  0  0  0  0  0  0  0  0  0  0
   -0.0784    1.0482   -0.0121 C   0  0  0  0  0  0  0  0  0  0  0  0
    0.9558    0.0792   -0.3661 C   0  0  0  0  0  0  0  0  0  0  0  0
    0.7071   -1.0685   -0.7202 O   0  0  0  0  0  0  0  0  0  0  0  0
    2.2326    0.6176   -0.2567 N   0  0  0  0  0  0  0  0  0  0  0  0
    3.3244   -0.1204   -0.6038 N   0  0  0  0  0  0  0  0  0  0  0  0
    4.5217    0.3754   -0.4642 C   0  0  0  0  0  0  0  0  0  0  0  0
    4.7932    1.7478    0.1215 C   0  0  0  0  0  0  0  0  0  0  0  0
    5.6254   -0.4566   -0.9386 C   0  0  0  0  0  0  0  0  0  0  0  0
    5.5603   -1.7872   -1.3304 C   0  0  0  0  0  0  0  0  0  0  0  0
    6.8192   -2.3032   -1.7589 C   0  0  0  0  0  0  0  0  0  0  0  0
    7.7900   -1.3412   -1.6858 C   0  0  0  0  0  0  0  0  0  0  0  0
    9.4454   -1.5203   -2.1046 Cl  0  0  0  0  0  0  0  0  0  0  0  0
    7.2223    0.1473   -1.1239 S   0  0  0  0  0  0  0  0  0  0  0  0
    0.2318    2.3337    0.3527 N   0  0  0  0  0  0  0  0  0  0  0  0
   -0.8926    2.9748    0.6115 N   0  0  0  0  0  0  0  0  0  0  0  0
   -1.9495    2.1295    0.4082 N   0  0  0  0  0  0  0  0  0  0  0  0
   -3.2873    2.5643    0.5913 C   0  0  0  0  0  0  0  0  0  0  0  0
   -4.3173    1.7374    0.4109 N   0  0  0  0  0  0  0  0  0  0  0  0
   -5.4359    2.5175    0.6936 O   0  0  0  0  0  0  0  0  0  0  0  0
   -5.0720    3.8146    1.0402 N   0  0  0  0  0  0  0  0  0  0  0  0
   -3.7420    3.8426    0.9678 C   0  0  0  0  0  0  0  0  0  0  0  0
   -2.9932    4.9334    1.2194 N   0  0  0  0  0  0  0  0  0  0  0  0
   -2.6523   -1.1518    0.7921 C   0  0  0  0  0  0  0  0  0  0  0  0
   -5.4586   -4.0163    1.0210 H   0  0  0  0  0  0  0  0  0  0  0  0
   -3.9111   -4.9226    0.7954 H   0  0  0  0  0  0  0  0  0  0  0  0
   -4.6077   -4.7107    2.4062 H   0  0  0  0  0  0  0  0  0  0  0  0
   -4.3921   -3.4572   -1.0185 H   0  0  0  0  0  0  0  0  0  0  0  0
   -3.6876   -1.9845   -2.8424 H   0  0  0  0  0  0  0  0  0  0  0  0
   -2.3270    0.0221   -2.3913 H   0  0  0  0  0  0  0  0  0  0  0  0
    2.3189    1.5939    0.0056 H   0  0  0  0  0  0  0  0  0  0  0  0
    4.6486    2.5030   -0.6566 H   0  0  0  0  0  0  0  0  0  0  0  0
    5.8040    1.8359    0.5244 H   0  0  0  0  0  0  0  0  0  0  0  0
    4.1135    1.9543    0.9529 H   0  0  0  0  0  0  0  0  0  0  0  0
    4.6403   -2.3632   -1.3080 H   0  0  0  0  0  0  0  0  0  0  0  0
    6.9890   -3.3163   -2.1011 H   0  0  0  0  0  0  0  0  0  0  0  0
   -1.9849    4.8670    1.3440 H   0  0  0  0  0  0  0  0  0  0  0  0
   -3.4245    5.7309    1.6753 H   0  0  0  0  0  0  0  0  0  0  0  0
   -2.3608   -0.9362    1.8173 H   0  0  0  0  0  0  0  0  0  0  0  0
  1  2  1  0
  2  3  1  0
  3  4  2  0
  4  5  1  0
  5  6  2  0
  6  7  1  0
  7  8  1  0
  8  9  2  0
  9 10  1  0
 10 11  2  0
 10 12  1  0
 12 13  1  0
 13 14  2  3
 14 15  1  0
 14 16  1  0
 16 17  2  0
 17 18  1  0
 18 19  2  0
 19 20  1  0
 19 21  1  0
  9 22  1  0
 22 23  2  0
 23 24  1  0
 24 25  1  0
 25 26  2  0
 26 27  1  0
 27 28  1  0
 28 29  2  0
 29 30  1  0
  7 31  2  0
 31  3  1  0
 24  8  1  0
 29 25  1  0
 21 16  1  0
  1 32  1  0
  1 33  1  0
  1 34  1  0
  4 35  1  0
  5 36  1  0
  6 37  1  0
 12 38  1  0
 15 39  1  0
 15 40  1  0
 15 41  1  0
 17 42  1  0
 18 43  1  0
 30 44  1  0
 30 45  1  0
 31 46  1  0
M  END
$$$$
