
     RDKit          3D

 54 57  0  0  0  0  0  0  0  0999 V2000
   -1.5817    3.8800   -2.6734 C   0  0  0  0  0  0  0  0  0  0  0  0
   -2.8901    3.5852   -2.2044 O   0  0  0  0  0  0  0  0  0  0  0  0
   -3.0193    2.5866   -1.2733 C   0  0  0  0  0  0  0  0  0  0  0  0
   -2.0021    1.6976   -0.9102 C   0  0  0  0  0  0  0  0  0  0  0  0
   -2.2145    0.6930    0.0556 C   0  0  0  0  0  0  0  0  0  0  0  0
   -1.1454   -0.2496    0.4464 C   0  0  0  0  0  0  0  0  0  0  0  0
    0.1880    0.1097    0.5239 C   0  0  0  0  0  0  0  0  0  0  0  0
    1.1181   -0.8634    0.8912 C   0  0  0  0  0  0  0  0  0  0  0  0
    2.5364   -0.4385    0.9035 C   0  0  0  0  0  0  0  0  0  0  0  0
    2.8463    0.5034    1.6200 O   0  0  0  0  0  0  0  0  0  0  0  0
    3.3412   -1.1468    0.0324 N   0  0  0  0  0  0  0  0  0  0  0  0
    4.7268   -0.9876   -0.1719 C   0  0  0  0  0  0  0  0  0  0  0  0
    5.5202   -0.0812    0.5360 C   0  0  0  0  0  0  0  0  0  0  0  0
    6.8928    0.0145    0.2796 C   0  0  0  0  0  0  0  0  0  0  0  0
    7.4697   -0.8011   -0.6862 C   0  0  0  0  0  0  0  0  0  0  0  0
    8.8015   -0.7403   -0.9669 O   0  0  0  0  0  0  0  0  0  0  0  0
    6.6979   -1.7089   -1.3980 C   0  0  0  0  0  0  0  0  0  0  0  0
    5.3280   -1.8026   -1.1408 C   0  0  0  0  0  0  0  0  0  0  0  0
    0.7167   -2.1741    1.2261 C   0  0  0  0  0  0  0  0  0  0  0  0
    1.5819   -3.2047    1.6771 C   0  0  0  0  0  0  0  0  0  0  0  0
    1.0918   -4.4745    1.9760 C   0  0  0  0  0  0  0  0  0  0  0  0
   -0.2642   -4.7317    1.8383 C   0  0  0  0  0  0  0  0  0  0  0  0
   -1.1215   -3.7137    1.4145 C   0  0  0  0  0  0  0  0  0  0  0  0
   -0.6596   -2.4392    1.1142 C   0  0  0  0  0  0  0  0  0  0  0  0
   -1.5534   -1.5115    0.7309 N   0  0  0  0  0  0  0  0  0  0  0  0
   -3.4928    0.5990    0.6441 C   0  0  0  0  0  0  0  0  0  0  0  0
   -4.5261    1.4741    0.2982 C   0  0  0  0  0  0  0  0  0  0  0  0
   -5.7885    1.4475    0.8325 O   0  0  0  0  0  0  0  0  0  0  0  0
   -6.0255    0.5455    1.9044 C   0  0  0  0  0  0  0  0  0  0  0  0
   -4.2820    2.4541   -0.6755 C   0  0  0  0  0  0  0  0  0  0  0  0
   -5.2768    3.3519   -0.9970 O   0  0  0  0  0  0  0  0  0  0  0  0
   -6.0582    2.8411   -2.0756 C   0  0  0  0  0  0  0  0  0  0  0  0
   -1.6476    4.7647   -3.3140 H   0  0  0  0  0  0  0  0  0  0  0  0
   -0.9045    4.1175   -1.8460 H   0  0  0  0  0  0  0  0  0  0  0  0
   -1.1906    3.0583   -3.2820 H   0  0  0  0  0  0  0  0  0  0  0  0
   -1.0321    1.7588   -1.3923 H   0  0  0  0  0  0  0  0  0  0  0  0
    0.5161    1.1239    0.3176 H   0  0  0  0  0  0  0  0  0  0  0  0
    2.8883   -1.8489   -0.5419 H   0  0  0  0  0  0  0  0  0  0  0  0
    5.1011    0.5671    1.2996 H   0  0  0  0  0  0  0  0  0  0  0  0
    7.4848    0.7279    0.8443 H   0  0  0  0  0  0  0  0  0  0  0  0
    9.2059   -0.0629   -0.3996 H   0  0  0  0  0  0  0  0  0  0  0  0
    7.1598   -2.3423   -2.1501 H   0  0  0  0  0  0  0  0  0  0  0  0
    4.7435   -2.5202   -1.7107 H   0  0  0  0  0  0  0  0  0  0  0  0
    2.6456   -3.0207    1.8200 H   0  0  0  0  0  0  0  0  0  0  0  0
    1.7655   -5.2542    2.3231 H   0  0  0  0  0  0  0  0  0  0  0  0
   -0.6630   -5.7163    2.0700 H   0  0  0  0  0  0  0  0  0  0  0  0
   -2.1858   -3.9206    1.3221 H   0  0  0  0  0  0  0  0  0  0  0  0
   -3.6524   -0.1811    1.3840 H   0  0  0  0  0  0  0  0  0  0  0  0
   -7.0528    0.6990    2.2485 H   0  0  0  0  0  0  0  0  0  0  0  0
   -5.3585    0.7477    2.7490 H   0  0  0  0  0  0  0  0  0  0  0  0
   -5.9391   -0.4934    1.5702 H   0  0  0  0  0  0  0  0  0  0  0  0
   -5.4536    2.7118   -2.9802 H   0  0  0  0  0  0  0  0  0  0  0  0
   -6.8416    3.5727   -2.2961 H   0  0  0  0  0  0  0  0  0  0  0  0
   -6.5446    1.8967   -1.8076 H   0  0  0  0  0  0  0  0  0  0  0  0
  1  2  1  0
  2  3  1  0
  3  4  2  0
  4  5  1  0
  5  6  1  0
  6  7  2  0
  7  8  1  0
  8  9  1  0
  9 10  2  0
  9 11  1  0
 11 12  1  0
 12 13  2  0
 13 14  1  0
 14 15  2  0
 15 16  1  0
 15 17  1  0
 17 18  2  0
  8 19  2  0
 19 20  1  0
 20 21  2  0
 21 22  1  0
 22 23  2  0
 23 24  1  0
 24 25  2  0
  5 26  2  0
 26 27  1  0
 27 28  1  0
 28 29  1  0
 27 30  2  0
 30 31  1  0
 31 32  1  0
 30  3  1  0
 25  6  1  0
 18 12  1  0
 24 19  1  0
  1 33  1  0
  1 34  1  0
  1 35  1  0
  4 36  1  0
  7 37  1  0
 11 38  1  0
 13 39  1  0
 14 40  1  0
 16 41  1  0
 17 42  1  0
 18 43  1  0
 20 44  1  0
 21 45  1  0
 22 46  1  0
 23 47  1  0
 26 48  1  0
 29 49  1  0
 29 50  1  0
 29 51  1  0
 32 52  1  0
 32 53  1  0
 32 54  1  0
M  END
$$$$
