
     RDKit          3D

 54 57  0  0  0  0  0  0  0  0999 V2000
   -4.9844   -4.3953   -0.1956 C   0  0  0  0  0  0  0  0  0  0  0  0
   -5.2727   -3.0423   -0.5257 O   0  0  0  0  0  0  0  0  0  0  0  0
   -4.3460   -2.1050   -0.1611 C   0  0  0  0  0  0  0  0  0  0  0  0
   -4.7116   -0.7843   -0.4466 C   0  0  0  0  0  0  0  0  0  0  0  0
   -3.8598    0.2755   -0.1309 C   0  0  0  0  0  0  0  0  0  0  0  0
   -2.6226    0.0054    0.4546 C   0  0  0  0  0  0  0  0  0  0  0  0
   -1.7098    1.1120    0.8186 C   0  0  0  0  0  0  0  0  0  0  0  0
   -1.5677    1.3602    2.0819 N   0  0  0  0  0  0  0  0  0  0  0  0
   -0.7201    2.3997    2.4727 C   0  0  0  0  0  0  0  0  0  0  0  0
   -0.5581    2.6606    3.8358 C   0  0  0  0  0  0  0  0  0  0  0  0
    0.2781    3.6929    4.2702 C   0  0  0  0  0  0  0  0  0  0  0  0
    0.9611    4.4756    3.3403 C   0  0  0  0  0  0  0  0  0  0  0  0
    0.8060    4.2248    1.9776 C   0  0  0  0  0  0  0  0  0  0  0  0
   -0.0353    3.1876    1.5545 C   0  0  0  0  0  0  0  0  0  0  0  0
   -0.2165    2.8898    0.1244 C   0  0  0  0  0  0  0  0  0  0  0  0
    0.3605    3.5907   -0.7045 O   0  0  0  0  0  0  0  0  0  0  0  0
   -1.0571    1.8187   -0.1904 N   0  0  0  0  0  0  0  0  0  0  0  0
   -1.1007    1.4263   -1.6108 C   0  0  0  0  0  0  0  0  0  0  0  0
   -0.1554    0.2593   -1.9303 C   0  0  0  0  0  0  0  0  0  0  0  0
    1.1911    0.6683   -1.6968 O   0  0  0  0  0  0  0  0  0  0  0  0
    2.1427   -0.3140   -1.6426 C   0  0  0  0  0  0  0  0  0  0  0  0
    1.9917   -1.5925   -2.1844 C   0  0  0  0  0  0  0  0  0  0  0  0
    3.0253   -2.5284   -2.0852 C   0  0  0  0  0  0  0  0  0  0  0  0
    4.2288   -2.1940   -1.4584 C   0  0  0  0  0  0  0  0  0  0  0  0
    5.3258   -3.2076   -1.3213 C   0  0  0  0  0  0  0  0  0  0  0  0
    4.3775   -0.9127   -0.9146 C   0  0  0  0  0  0  0  0  0  0  0  0
    3.3482    0.0369   -1.0124 C   0  0  0  0  0  0  0  0  0  0  0  0
    3.5334    1.4073   -0.4200 C   0  0  0  0  0  0  0  0  0  0  0  0
   -2.2581   -1.3056    0.7707 C   0  0  0  0  0  0  0  0  0  0  0  0
   -3.1176   -2.3618    0.4532 C   0  0  0  0  0  0  0  0  0  0  0  0
   -5.8279   -5.0076   -0.5287 H   0  0  0  0  0  0  0  0  0  0  0  0
   -4.0901   -4.7467   -0.7207 H   0  0  0  0  0  0  0  0  0  0  0  0
   -4.8850   -4.5257    0.8871 H   0  0  0  0  0  0  0  0  0  0  0  0
   -5.6755   -0.5823   -0.9085 H   0  0  0  0  0  0  0  0  0  0  0  0
   -4.1667    1.2983   -0.3330 H   0  0  0  0  0  0  0  0  0  0  0  0
   -1.0906    2.0516    4.5620 H   0  0  0  0  0  0  0  0  0  0  0  0
    0.3944    3.8836    5.3341 H   0  0  0  0  0  0  0  0  0  0  0  0
    1.6124    5.2790    3.6756 H   0  0  0  0  0  0  0  0  0  0  0  0
    1.3380    4.8314    1.2482 H   0  0  0  0  0  0  0  0  0  0  0  0
   -0.8287    2.2852   -2.2346 H   0  0  0  0  0  0  0  0  0  0  0  0
   -2.1209    1.1519   -1.8875 H   0  0  0  0  0  0  0  0  0  0  0  0
   -0.2728   -0.0060   -2.9874 H   0  0  0  0  0  0  0  0  0  0  0  0
   -0.4053   -0.6066   -1.3090 H   0  0  0  0  0  0  0  0  0  0  0  0
    1.0851   -1.8884   -2.7010 H   0  0  0  0  0  0  0  0  0  0  0  0
    2.8850   -3.5205   -2.5085 H   0  0  0  0  0  0  0  0  0  0  0  0
    5.2317   -3.7336   -0.3663 H   0  0  0  0  0  0  0  0  0  0  0  0
    5.2863   -3.9413   -2.1333 H   0  0  0  0  0  0  0  0  0  0  0  0
    6.3083   -2.7261   -1.3668 H   0  0  0  0  0  0  0  0  0  0  0  0
    5.3060   -0.6486   -0.4117 H   0  0  0  0  0  0  0  0  0  0  0  0
    3.3597    2.1784   -1.1775 H   0  0  0  0  0  0  0  0  0  0  0  0
    2.8402    1.5535    0.4145 H   0  0  0  0  0  0  0  0  0  0  0  0
    4.5509    1.5457   -0.0392 H   0  0  0  0  0  0  0  0  0  0  0  0
   -1.3092   -1.5048    1.2641 H   0  0  0  0  0  0  0  0  0  0  0  0
   -2.8019   -3.3688    0.7053 H   0  0  0  0  0  0  0  0  0  0  0  0
  1  2  1  0
  2  3  1  0
  3  4  2  0
  4  5  1  0
  5  6  2  0
  6  7  1  0
  7  8  2  0
  8  9  1  0
  9 10  2  0
 10 11  1  0
 11 12  2  0
 12 13  1  0
 13 14  2  0
 14 15  1  0
 15 16  2  0
 15 17  1  0
 17 18  1  0
 18 19  1  0
 19 20  1  0
 20 21  1  0
 21 22  2  0
 22 23  1  0
 23 24  2  0
 24 25  1  0
 24 26  1  0
 26 27  2  0
 27 28  1  0
  6 29  1  0
 29 30  2  0
 30  3  1  0
 17  7  1  0
 27 21  1  0
 14  9  1  0
  1 31  1  0
  1 32  1  0
  1 33  1  0
  4 34  1  0
  5 35  1  0
 10 36  1  0
 11 37  1  0
 12 38  1  0
 13 39  1  0
 18 40  1  0
 18 41  1  0
 19 42  1  0
 19 43  1  0
 22 44  1  0
 23 45  1  0
 25 46  1  0
 25 47  1  0
 25 48  1  0
 26 49  1  0
 28 50  1  0
 28 51  1  0
 28 52  1  0
 29 53  1  0
 30 54  1  0
M  END
$$$$
