
     RDKit          3D

 68 74  0  0  0  0  0  0  0  0999 V2000
   -4.6223   -2.8167   -4.5111 C   0  0  0  0  0  0  0  0  0  0  0  0
   -3.9601   -2.7064   -3.1697 C   0  0  0  0  0  0  0  0  0  0  0  0
   -4.3390   -3.5224   -2.0870 C   0  0  0  0  0  0  0  0  0  0  0  0
   -5.5886   -4.7087   -2.2511 Cl  0  0  0  0  0  0  0  0  0  0  0  0
   -3.7306   -3.4005   -0.8215 C   0  0  0  0  0  0  0  0  0  0  0  0
   -2.7248   -2.4581   -0.5992 C   0  0  0  0  0  0  0  0  0  0  0  0
   -2.3405   -1.6454   -1.6564 C   0  0  0  0  0  0  0  0  0  0  0  0
   -2.9681   -1.7672   -2.9074 C   0  0  0  0  0  0  0  0  0  0  0  0
   -2.4667   -0.8048   -3.7809 N   0  0  0  0  0  0  0  0  0  0  0  0
   -1.5217    0.0177   -3.1641 C   0  0  0  0  0  0  0  0  0  0  0  0
   -0.9803    0.9707   -3.7080 O   0  0  0  0  0  0  0  0  0  0  0  0
   -1.3200   -0.5332   -1.7232 C   0  0  1  0  0  0  0  0  0  0  0  0
   -1.6368    0.4448   -0.6639 C   0  0  0  0  0  0  0  0  0  0  0  0
   -0.5074    0.7460    0.0929 C   0  0  0  0  0  0  0  0  0  0  0  0
   -0.8548    1.6223    1.0842 C   0  0  0  0  0  0  0  0  0  0  0  0
   -0.1020    2.0619    2.0900 O   0  0  0  0  0  0  0  0  0  0  0  0
   -2.2147    1.9311    0.8970 N   0  0  0  0  0  0  0  0  0  0  0  0
   -2.9817    2.8309    1.6911 C   0  0  0  0  0  0  0  0  0  0  0  0
   -2.4217    4.0448    2.1106 C   0  0  0  0  0  0  0  0  0  0  0  0
   -3.1781    4.9281    2.8816 C   0  0  0  0  0  0  0  0  0  0  0  0
   -4.4859    4.6013    3.2388 C   0  0  0  0  0  0  0  0  0  0  0  0
   -5.0434    3.3910    2.8262 C   0  0  0  0  0  0  0  0  0  0  0  0
   -4.2960    2.5038    2.0505 C   0  0  0  0  0  0  0  0  0  0  0  0
   -2.6877    1.1935   -0.2037 C   0  0  0  0  0  0  0  0  0  0  0  0
   -3.9161    1.2866   -0.7125 O   0  0  0  0  0  0  0  0  0  0  0  0
    0.6856    0.0143   -0.3802 C   0  0  1  0  0  0  0  0  0  0  0  0
    1.4219   -0.7667    0.7261 C   0  0  0  0  0  0  0  0  0  0  0  0
    2.3868   -1.7258    0.1726 N   0  0  0  0  0  0  0  0  0  0  0  0
    3.6538   -1.9236    0.6806 C   0  0  0  0  0  0  0  0  0  0  0  0
    4.4847   -2.6532    0.1520 O   0  0  0  0  0  0  0  0  0  0  0  0
    3.8696   -1.2225    1.8232 O   0  0  0  0  0  0  0  0  0  0  0  0
    5.2039   -1.2703    2.3394 C   0  0  0  0  0  0  0  0  0  0  0  0
    5.9935   -0.1099    1.7905 C   0  0  0  0  0  0  0  0  0  0  0  0
    5.7871    1.1900    2.2770 C   0  0  0  0  0  0  0  0  0  0  0  0
    6.4971    2.2671    1.7412 C   0  0  0  0  0  0  0  0  0  0  0  0
    7.4125    2.0573    0.7111 C   0  0  0  0  0  0  0  0  0  0  0  0
    7.6169    0.7703    0.2129 C   0  0  0  0  0  0  0  0  0  0  0  0
    6.9087   -0.3077    0.7465 C   0  0  0  0  0  0  0  0  0  0  0  0
    2.0205   -2.3904   -1.0762 C   0  0  0  0  0  0  0  0  0  0  0  0
    0.5254   -2.2443   -1.4119 C   0  0  0  0  0  0  0  0  0  0  0  0
    0.1287   -0.8404   -1.4927 N   0  0  0  0  0  0  0  0  0  0  0  0
   -4.6418   -3.8574   -4.8513 H   0  0  0  0  0  0  0  0  0  0  0  0
   -5.6463   -2.4331   -4.4583 H   0  0  0  0  0  0  0  0  0  0  0  0
   -4.0910   -2.2528   -5.2835 H   0  0  0  0  0  0  0  0  0  0  0  0
   -4.0506   -4.0394   -0.0017 H   0  0  0  0  0  0  0  0  0  0  0  0
   -2.2683   -2.3570    0.3822 H   0  0  0  0  0  0  0  0  0  0  0  0
   -2.7759   -0.6326   -4.7248 H   0  0  0  0  0  0  0  0  0  0  0  0
   -0.6786    2.3859    2.8074 H   0  0  0  0  0  0  0  0  0  0  0  0
   -1.4193    4.3424    1.8059 H   0  0  0  0  0  0  0  0  0  0  0  0
   -2.7533    5.8789    3.1946 H   0  0  0  0  0  0  0  0  0  0  0  0
   -5.0721    5.2933    3.8381 H   0  0  0  0  0  0  0  0  0  0  0  0
   -6.0608    3.1376    3.1175 H   0  0  0  0  0  0  0  0  0  0  0  0
   -4.7379    1.5478    1.7739 H   0  0  0  0  0  0  0  0  0  0  0  0
   -4.3199    2.1260   -0.4223 H   0  0  0  0  0  0  0  0  0  0  0  0
    1.3882    0.7169   -0.8445 H   0  0  0  0  0  0  0  0  0  0  0  0
    1.9126   -0.0646    1.4082 H   0  0  0  0  0  0  0  0  0  0  0  0
    0.7144   -1.3521    1.3288 H   0  0  0  0  0  0  0  0  0  0  0  0
    5.6972   -2.2293    2.1405 H   0  0  0  0  0  0  0  0  0  0  0  0
    5.1387   -1.1843    3.4309 H   0  0  0  0  0  0  0  0  0  0  0  0
    5.0635    1.3704    3.0688 H   0  0  0  0  0  0  0  0  0  0  0  0
    6.3276    3.2734    2.1190 H   0  0  0  0  0  0  0  0  0  0  0  0
    7.9621    2.8963    0.2905 H   0  0  0  0  0  0  0  0  0  0  0  0
    8.3229    0.6048   -0.5971 H   0  0  0  0  0  0  0  0  0  0  0  0
    7.0658   -1.3049    0.3352 H   0  0  0  0  0  0  0  0  0  0  0  0
    2.6364   -1.9563   -1.8757 H   0  0  0  0  0  0  0  0  0  0  0  0
    2.2873   -3.4518   -0.9977 H   0  0  0  0  0  0  0  0  0  0  0  0
   -0.0362   -2.7704   -0.6324 H   0  0  0  0  0  0  0  0  0  0  0  0
    0.3271   -2.7425   -2.3678 H   0  0  0  0  0  0  0  0  0  0  0  0
  1  2  1  0
  2  3  2  0
  3  4  1  0
  3  5  1  0
  5  6  2  0
  6  7  1  0
  7  8  2  0
  8  9  1  0
  9 10  1  0
 10 11  2  0
 10 12  1  0
 12 13  1  0
 13 14  1  0
 14 15  2  0
 15 16  1  0
 15 17  1  0
 17 18  1  0
 18 19  2  0
 19 20  1  0
 20 21  2  0
 21 22  1  0
 22 23  2  0
 17 24  1  0
 24 25  1  0
 14 26  1  0
 26 27  1  0
 27 28  1  0
 28 29  1  0
 29 30  2  0
 29 31  1  0
 31 32  1  0
 32 33  1  0
 33 34  2  0
 34 35  1  0
 35 36  2  0
 36 37  1  0
 37 38  2  0
 28 39  1  0
 39 40  1  0
 40 41  1  0
  8  2  1  0
 12 41  1  6
 12  7  1  0
 24 13  2  0
 41 26  1  0
 23 18  1  0
 38 33  1  0
  1 42  1  0
  1 43  1  0
  1 44  1  0
  5 45  1  0
  6 46  1  0
  9 47  1  0
 16 48  1  0
 19 49  1  0
 20 50  1  0
 21 51  1  0
 22 52  1  0
 23 53  1  0
 25 54  1  0
 26 55  1  6
 27 56  1  0
 27 57  1  0
 32 58  1  0
 32 59  1  0
 34 60  1  0
 35 61  1  0
 36 62  1  0
 37 63  1  0
 38 64  1  0
 39 65  1  0
 39 66  1  0
 40 67  1  0
 40 68  1  0
M  END
$$$$
