
     RDKit          3D

 34 35  0  0  0  0  0  0  0  0999 V2000
    5.4116    0.7196    1.6864 C   0  0  0  0  0  0  0  0  0  0  0  0
    4.7854    1.2677    0.4165 C   0  0  0  0  0  0  0  0  0  0  0  0
    3.3462    1.0747    0.3875 N   0  0  0  0  0  0  0  0  0  0  0  0
    2.5609    2.0056    0.9633 N   0  0  0  0  0  0  0  0  0  0  0  0
    1.3253    1.5506    0.7560 C   0  0  0  0  0  0  0  0  0  0  0  0
    1.3085    0.3318    0.0468 C   0  0  0  0  0  0  0  0  0  0  0  0
    0.1936   -0.4545   -0.3722 C   0  0  0  0  0  0  0  0  0  0  0  0
   -1.0959   -0.1719   -0.1265 C   0  0  0  0  0  0  0  0  0  0  0  0
   -2.1567   -1.0932   -0.6188 C   0  0  0  0  0  0  0  0  0  0  0  0
   -1.8919   -2.2009   -1.0747 O   0  0  0  0  0  0  0  0  0  0  0  0
   -3.5725   -0.6505   -0.5071 C   0  0  0  0  0  0  0  0  0  0  0  0
   -4.5597   -1.6339   -0.3581 C   0  0  0  0  0  0  0  0  0  0  0  0
   -5.9037   -1.2721   -0.2531 C   0  0  0  0  0  0  0  0  0  0  0  0
   -6.2691    0.0720   -0.3071 C   0  0  0  0  0  0  0  0  0  0  0  0
   -5.2940    1.0551   -0.4740 C   0  0  0  0  0  0  0  0  0  0  0  0
   -3.9471    0.6976   -0.5788 C   0  0  0  0  0  0  0  0  0  0  0  0
    2.6421    0.0346   -0.1762 C   0  0  0  0  0  0  0  0  0  0  0  0
    3.3056   -1.1072   -0.8598 C   0  0  0  0  0  0  0  0  0  0  0  0
    5.0011    1.2129    2.5739 H   0  0  0  0  0  0  0  0  0  0  0  0
    5.2269   -0.3549    1.7878 H   0  0  0  0  0  0  0  0  0  0  0  0
    6.4938    0.8809    1.6764 H   0  0  0  0  0  0  0  0  0  0  0  0
    4.9760    2.3433    0.3272 H   0  0  0  0  0  0  0  0  0  0  0  0
    5.2145    0.7860   -0.4677 H   0  0  0  0  0  0  0  0  0  0  0  0
    0.4948    2.1335    1.1307 H   0  0  0  0  0  0  0  0  0  0  0  0
    0.4150   -1.3566   -0.9411 H   0  0  0  0  0  0  0  0  0  0  0  0
   -1.3944    0.6980    0.4421 H   0  0  0  0  0  0  0  0  0  0  0  0
   -4.2829   -2.6861   -0.3221 H   0  0  0  0  0  0  0  0  0  0  0  0
   -6.6643   -2.0398   -0.1339 H   0  0  0  0  0  0  0  0  0  0  0  0
   -7.3168    0.3529   -0.2289 H   0  0  0  0  0  0  0  0  0  0  0  0
   -5.5852    2.1014   -0.5320 H   0  0  0  0  0  0  0  0  0  0  0  0
   -3.2140    1.4824   -0.7409 H   0  0  0  0  0  0  0  0  0  0  0  0
    2.6166   -1.9406   -1.0228 H   0  0  0  0  0  0  0  0  0  0  0  0
    3.6911   -0.7929   -1.8350 H   0  0  0  0  0  0  0  0  0  0  0  0
    4.1392   -1.4921   -0.2639 H   0  0  0  0  0  0  0  0  0  0  0  0
  1  2  1  0
  2  3  1  0
  3  4  1  0
  4  5  2  0
  5  6  1  0
  6  7  1  0
  7  8  2  3
  8  9  1  0
  9 10  2  0
  9 11  1  0
 11 12  2  0
 12 13  1  0
 13 14  2  0
 14 15  1  0
 15 16  2  0
  6 17  2  0
 17 18  1  0
 17  3  1  0
 16 11  1  0
  1 19  1  0
  1 20  1  0
  1 21  1  0
  2 22  1  0
  2 23  1  0
  5 24  1  0
  7 25  1  0
  8 26  1  0
 12 27  1  0
 13 28  1  0
 14 29  1  0
 15 30  1  0
 16 31  1  0
 18 32  1  0
 18 33  1  0
 18 34  1  0
M  END
$$$$
