
     RDKit          3D

 53 54  0  0  0  0  0  0  0  0999 V2000
   -5.1617   -2.0017    2.1879 C   0  0  0  0  0  0  0  0  0  0  0  0
   -4.4698   -0.7911    1.5849 C   0  0  0  0  0  0  0  0  0  0  0  0
   -5.0256   -0.5260    0.2356 N   0  0  0  0  0  0  0  0  0  0  0  0
   -5.7385    0.7655    0.0933 C   0  0  0  0  0  0  0  0  0  0  0  0
   -7.0962    0.6989    0.7742 C   0  0  0  0  0  0  0  0  0  0  0  0
   -4.1171   -1.0642   -1.1004 S   0  0  0  0  0  6  0  0  0  0  0  0
   -3.5354   -2.3479   -0.7713 O   0  0  0  0  0  0  0  0  0  0  0  0
   -4.9152   -0.8907   -2.2956 O   0  0  0  0  0  0  0  0  0  0  0  0
   -2.7821    0.1171   -1.1847 C   0  0  0  0  0  0  0  0  0  0  0  0
   -2.9341    1.2726   -1.9586 C   0  0  0  0  0  0  0  0  0  0  0  0
   -1.8806    2.1798   -2.0575 C   0  0  0  0  0  0  0  0  0  0  0  0
   -0.6768    1.9249   -1.3966 C   0  0  0  0  0  0  0  0  0  0  0  0
   -0.5137    0.7561   -0.6375 C   0  0  0  0  0  0  0  0  0  0  0  0
    0.7956    0.5339    0.0328 C   0  0  0  0  0  0  0  0  0  0  0  0
    1.7751    1.2423   -0.1460 O   0  0  0  0  0  0  0  0  0  0  0  0
    0.7367   -0.5401    0.8539 O   0  0  0  0  0  0  0  0  0  0  0  0
    1.9225   -0.8104    1.6051 C   0  0  0  0  0  0  0  0  0  0  0  0
    3.0081   -1.5649    0.8322 C   0  0  0  0  0  0  0  0  0  0  0  0
    3.3882   -2.6895    1.1504 O   0  0  0  0  0  0  0  0  0  0  0  0
    3.5476   -0.8701   -0.2301 N   0  0  0  0  0  0  0  0  0  0  0  0
    4.7374   -1.3405   -0.9085 C   0  0  0  0  0  0  0  0  0  0  0  0
    6.0202   -1.0900   -0.0987 C   0  0  0  0  0  0  0  0  0  0  0  0
    6.2986    0.3287    0.0807 N   0  0  0  0  0  0  0  0  0  0  0  0
    6.8787    1.1448   -0.8624 C   0  0  0  0  0  0  0  0  0  0  0  0
    7.4041    0.6409   -2.0133 O   0  0  0  0  0  0  0  0  0  0  0  0
    6.8779    2.4449   -0.5571 C   0  0  0  0  0  0  0  0  0  0  0  0
    6.1330    2.7359    0.9807 S   0  0  0  0  0  0  0  0  0  0  0  0
    5.7769    1.0100    1.1789 C   0  0  0  0  0  0  0  0  0  0  0  0
    5.1552    0.5586    2.1266 O   0  0  0  0  0  0  0  0  0  0  0  0
   -1.5699   -0.1586   -0.5414 C   0  0  0  0  0  0  0  0  0  0  0  0
   -5.0113   -2.8934    1.5712 H   0  0  0  0  0  0  0  0  0  0  0  0
   -6.2403   -1.8379    2.2777 H   0  0  0  0  0  0  0  0  0  0  0  0
   -4.7645   -2.2076    3.1867 H   0  0  0  0  0  0  0  0  0  0  0  0
   -3.3914   -0.9679    1.5453 H   0  0  0  0  0  0  0  0  0  0  0  0
   -4.6083    0.0759    2.2404 H   0  0  0  0  0  0  0  0  0  0  0  0
   -5.9082    1.0027   -0.9615 H   0  0  0  0  0  0  0  0  0  0  0  0
   -5.1372    1.5777    0.5167 H   0  0  0  0  0  0  0  0  0  0  0  0
   -6.9981    0.5581    1.8548 H   0  0  0  0  0  0  0  0  0  0  0  0
   -7.6923   -0.1302    0.3788 H   0  0  0  0  0  0  0  0  0  0  0  0
   -7.6491    1.6286    0.6072 H   0  0  0  0  0  0  0  0  0  0  0  0
   -3.8616    1.4653   -2.4946 H   0  0  0  0  0  0  0  0  0  0  0  0
   -1.9909    3.0807   -2.6574 H   0  0  0  0  0  0  0  0  0  0  0  0
    0.1400    2.6403   -1.4844 H   0  0  0  0  0  0  0  0  0  0  0  0
    2.3425    0.1108    2.0266 H   0  0  0  0  0  0  0  0  0  0  0  0
    1.6251   -1.4350    2.4546 H   0  0  0  0  0  0  0  0  0  0  0  0
    3.2812    0.1105   -0.3295 H   0  0  0  0  0  0  0  0  0  0  0  0
    4.7794   -0.8303   -1.8764 H   0  0  0  0  0  0  0  0  0  0  0  0
    4.6296   -2.4150   -1.0931 H   0  0  0  0  0  0  0  0  0  0  0  0
    5.9307   -1.5515    0.8920 H   0  0  0  0  0  0  0  0  0  0  0  0
    6.8741   -1.5679   -0.5892 H   0  0  0  0  0  0  0  0  0  0  0  0
    7.7789   -0.2295   -1.8083 H   0  0  0  0  0  0  0  0  0  0  0  0
    7.2853    3.2311   -1.1766 H   0  0  0  0  0  0  0  0  0  0  0  0
   -1.4530   -1.0845    0.0179 H   0  0  0  0  0  0  0  0  0  0  0  0
  1  2  1  0
  2  3  1  0
  3  4  1  0
  4  5  1  0
  3  6  1  0
  6  7  2  0
  6  8  2  0
  6  9  1  0
  9 10  2  0
 10 11  1  0
 11 12  2  0
 12 13  1  0
 13 14  1  0
 14 15  2  0
 14 16  1  0
 16 17  1  0
 17 18  1  0
 18 19  2  0
 18 20  1  0
 20 21  1  0
 21 22  1  0
 22 23  1  0
 23 24  1  0
 24 25  1  0
 24 26  2  0
 26 27  1  0
 27 28  1  0
 28 29  2  0
 13 30  2  0
 30  9  1  0
 28 23  1  0
  1 31  1  0
  1 32  1  0
  1 33  1  0
  2 34  1  0
  2 35  1  0
  4 36  1  0
  4 37  1  0
  5 38  1  0
  5 39  1  0
  5 40  1  0
 10 41  1  0
 11 42  1  0
 12 43  1  0
 17 44  1  0
 17 45  1  0
 20 46  1  0
 21 47  1  0
 21 48  1  0
 22 49  1  0
 22 50  1  0
 25 51  1  0
 26 52  1  0
 30 53  1  0
M  END
$$$$
