
     RDKit          3D

 35 37  0  0  0  0  0  0  0  0999 V2000
   -0.2338    1.8138   -1.3608 O   0  0  0  0  0  0  0  0  0  0  0  0
   -0.2484    0.5965   -1.2340 C   0  0  0  0  0  0  0  0  0  0  0  0
   -1.4448   -0.1740   -0.7840 C   0  0  0  0  0  0  0  0  0  0  0  0
   -2.5860    0.4428   -0.4468 C   0  0  0  0  0  0  0  0  0  0  0  0
   -3.8226   -0.2099   -0.0064 C   0  0  0  0  0  0  0  0  0  0  0  0
   -3.8846   -0.9025    1.2108 C   0  0  0  0  0  0  0  0  0  0  0  0
   -5.0777   -1.5041    1.6163 C   0  0  0  0  0  0  0  0  0  0  0  0
   -6.2045   -1.4051    0.8087 C   0  0  0  0  0  0  0  0  0  0  0  0
   -7.3486   -1.9815    1.1991 F   0  0  0  0  0  0  0  0  0  0  0  0
   -6.1628   -0.7133   -0.3960 C   0  0  0  0  0  0  0  0  0  0  0  0
   -4.9708   -0.1111   -0.8037 C   0  0  0  0  0  0  0  0  0  0  0  0
   -1.1260   -1.8712   -0.8095 S   0  0  0  0  0  0  0  0  0  0  0  0
    0.5269   -1.6548   -1.3699 C   0  0  0  0  0  0  0  0  0  0  0  0
    1.5666   -2.9165   -1.7078 S   0  0  0  0  0  0  0  0  0  0  0  0
    0.7738   -0.3040   -1.4985 N   0  0  0  0  0  0  0  0  0  0  0  0
    2.0406    0.1925   -1.8891 N   0  0  0  0  0  0  0  0  0  0  0  0
    2.8954    0.4471   -0.7773 C   0  0  0  0  0  0  0  0  0  0  0  0
    2.3924    0.3767    0.4833 N   0  0  0  0  0  0  0  0  0  0  0  0
    3.2136    0.6692    1.5199 C   0  0  0  0  0  0  0  0  0  0  0  0
    4.5415    1.0401    1.3781 C   0  0  0  0  0  0  0  0  0  0  0  0
    5.3786    1.3216    2.5869 C   0  0  0  0  0  0  0  0  0  0  0  0
    5.9291    0.1908    3.1049 F   0  0  0  0  0  0  0  0  0  0  0  0
    4.6741    1.8949    3.6001 F   0  0  0  0  0  0  0  0  0  0  0  0
    6.4177    2.1625    2.3314 F   0  0  0  0  0  0  0  0  0  0  0  0
    5.0582    1.0984    0.0811 C   0  0  0  0  0  0  0  0  0  0  0  0
    4.2323    0.8076   -1.0047 C   0  0  0  0  0  0  0  0  0  0  0  0
    4.8996    0.8762   -2.5952 Cl  0  0  0  0  0  0  0  0  0  0  0  0
   -2.6472    1.5289   -0.5094 H   0  0  0  0  0  0  0  0  0  0  0  0
   -3.0090   -0.9774    1.8517 H   0  0  0  0  0  0  0  0  0  0  0  0
   -5.1349   -2.0458    2.5548 H   0  0  0  0  0  0  0  0  0  0  0  0
   -7.0563   -0.6466   -1.0084 H   0  0  0  0  0  0  0  0  0  0  0  0
   -4.9447    0.4297   -1.7473 H   0  0  0  0  0  0  0  0  0  0  0  0
    2.5160   -0.4393   -2.5353 H   0  0  0  0  0  0  0  0  0  0  0  0
    2.7473    0.5944    2.5013 H   0  0  0  0  0  0  0  0  0  0  0  0
    6.0988    1.3734   -0.0821 H   0  0  0  0  0  0  0  0  0  0  0  0
  1  2  2  0
  2  3  1  0
  3  4  2  3
  4  5  1  0
  5  6  2  0
  6  7  1  0
  7  8  2  0
  8  9  1  0
  8 10  1  0
 10 11  2  0
  3 12  1  0
 12 13  1  0
 13 14  2  0
 13 15  1  0
 15 16  1  0
 16 17  1  0
 17 18  2  0
 18 19  1  0
 19 20  2  0
 20 21  1  0
 21 22  1  0
 21 23  1  0
 21 24  1  0
 20 25  1  0
 25 26  2  0
 26 27  1  0
 15  2  1  0
 26 17  1  0
 11  5  1  0
  4 28  1  0
  6 29  1  0
  7 30  1  0
 10 31  1  0
 11 32  1  0
 16 33  1  0
 19 34  1  0
 25 35  1  0
M  END
$$$$
