
     RDKit          3D

 55 58  0  0  0  0  0  0  0  0999 V2000
    1.1778   -0.8831   -0.8310 O   0  0  0  0  0  0  0  0  0  0  0  0
    1.3444   -2.0320   -0.4162 C   0  0  0  0  0  0  0  0  0  0  0  0
    0.4434   -3.1691   -0.8492 C   0  0  0  0  0  0  0  0  0  0  0  0
   -0.9427   -3.4520    0.2872 S   0  0  0  0  0  0  0  0  0  0  0  0
   -1.2641   -1.8737    0.9154 C   0  0  0  0  0  0  0  0  0  0  0  0
   -1.0641   -1.5257    2.1628 N   0  0  0  0  0  0  0  0  0  0  0  0
   -1.3650   -0.1929    2.2761 N   0  0  0  0  0  0  0  0  0  0  0  0
   -1.7116    0.2586    1.0834 C   0  0  0  0  0  0  0  0  0  0  0  0
   -2.0738    1.6431    0.7991 C   0  0  0  0  0  0  0  0  0  0  0  0
   -1.4628    2.3449   -0.2500 C   0  0  0  0  0  0  0  0  0  0  0  0
   -1.8403    3.6576   -0.5440 C   0  0  0  0  0  0  0  0  0  0  0  0
   -2.8231    4.2879    0.2193 C   0  0  0  0  0  0  0  0  0  0  0  0
   -3.4064    3.6173    1.2930 C   0  0  0  0  0  0  0  0  0  0  0  0
   -3.0200    2.3118    1.5880 C   0  0  0  0  0  0  0  0  0  0  0  0
   -3.6064    1.7349    2.6845 O   0  0  0  0  0  0  0  0  0  0  0  0
   -1.7608   -0.8109    0.2094 N   0  0  0  0  0  0  0  0  0  0  0  0
   -2.2776   -0.8039   -1.1458 C   0  0  0  0  0  0  0  0  0  0  0  0
   -3.7820   -0.6871   -1.1830 C   0  0  0  0  0  0  0  0  0  0  0  0
   -4.3942    0.4502   -1.7323 C   0  0  0  0  0  0  0  0  0  0  0  0
   -5.7849    0.5553   -1.7767 C   0  0  0  0  0  0  0  0  0  0  0  0
   -6.5804   -0.4749   -1.2810 C   0  0  0  0  0  0  0  0  0  0  0  0
   -5.9851   -1.6119   -0.7368 C   0  0  0  0  0  0  0  0  0  0  0  0
   -4.5947   -1.7195   -0.6893 C   0  0  0  0  0  0  0  0  0  0  0  0
    2.3242   -2.3970    0.4847 N   0  0  0  0  0  0  0  0  0  0  0  0
    3.3245   -1.4653    0.7764 N   0  0  0  0  0  0  0  0  0  0  0  0
    4.6349   -1.8204    0.5412 C   0  0  0  0  0  0  0  0  0  0  0  0
    4.9506   -2.9649    0.2175 O   0  0  0  0  0  0  0  0  0  0  0  0
    5.6677   -0.7512    0.6985 C   0  0  0  0  0  0  0  0  0  0  0  0
    7.0134   -1.1435    0.6058 C   0  0  0  0  0  0  0  0  0  0  0  0
    8.0409   -0.2091    0.7516 C   0  0  0  0  0  0  0  0  0  0  0  0
    7.7357    1.1286    0.9884 C   0  0  0  0  0  0  0  0  0  0  0  0
    6.4045    1.5368    1.0769 C   0  0  0  0  0  0  0  0  0  0  0  0
    5.3754    0.6008    0.9321 C   0  0  0  0  0  0  0  0  0  0  0  0
    4.0777    1.0333    1.0135 O   0  0  0  0  0  0  0  0  0  0  0  0
    0.0590   -2.9430   -1.8486 H   0  0  0  0  0  0  0  0  0  0  0  0
    1.0261   -4.0911   -0.9358 H   0  0  0  0  0  0  0  0  0  0  0  0
   -0.6760    1.8804   -0.8414 H   0  0  0  0  0  0  0  0  0  0  0  0
   -1.3709    4.1855   -1.3693 H   0  0  0  0  0  0  0  0  0  0  0  0
   -3.1228    5.3072   -0.0086 H   0  0  0  0  0  0  0  0  0  0  0  0
   -4.1568    4.1085    1.9052 H   0  0  0  0  0  0  0  0  0  0  0  0
   -3.0969    0.9306    2.9080 H   0  0  0  0  0  0  0  0  0  0  0  0
   -1.7916    0.0119   -1.6899 H   0  0  0  0  0  0  0  0  0  0  0  0
   -1.9871   -1.7211   -1.6624 H   0  0  0  0  0  0  0  0  0  0  0  0
   -3.7959    1.2708   -2.1227 H   0  0  0  0  0  0  0  0  0  0  0  0
   -6.2498    1.4442   -2.1974 H   0  0  0  0  0  0  0  0  0  0  0  0
   -7.6638   -0.3948   -1.3210 H   0  0  0  0  0  0  0  0  0  0  0  0
   -6.6053   -2.4147   -0.3458 H   0  0  0  0  0  0  0  0  0  0  0  0
   -4.1555   -2.6172   -0.2574 H   0  0  0  0  0  0  0  0  0  0  0  0
    2.6157   -3.3695    0.5729 H   0  0  0  0  0  0  0  0  0  0  0  0
    3.0550   -0.4815    0.8557 H   0  0  0  0  0  0  0  0  0  0  0  0
    7.2678   -2.1860    0.4227 H   0  0  0  0  0  0  0  0  0  0  0  0
    9.0780   -0.5298    0.6824 H   0  0  0  0  0  0  0  0  0  0  0  0
    8.5365    1.8560    1.1040 H   0  0  0  0  0  0  0  0  0  0  0  0
    6.1903    2.5857    1.2608 H   0  0  0  0  0  0  0  0  0  0  0  0
    4.0690    1.9949    1.1676 H   0  0  0  0  0  0  0  0  0  0  0  0
  1  2  2  0
  2  3  1  0
  3  4  1  0
  4  5  1  0
  5  6  2  0
  6  7  1  0
  7  8  2  0
  8  9  1  0
  9 10  2  0
 10 11  1  0
 11 12  2  0
 12 13  1  0
 13 14  2  0
 14 15  1  0
  8 16  1  0
 16 17  1  0
 17 18  1  0
 18 19  2  0
 19 20  1  0
 20 21  2  0
 21 22  1  0
 22 23  2  0
  2 24  1  0
 24 25  1  0
 25 26  1  0
 26 27  2  0
 26 28  1  0
 28 29  2  0
 29 30  1  0
 30 31  2  0
 31 32  1  0
 32 33  2  0
 33 34  1  0
 16  5  1  0
 23 18  1  0
 33 28  1  0
 14  9  1  0
  3 35  1  0
  3 36  1  0
 10 37  1  0
 11 38  1  0
 12 39  1  0
 13 40  1  0
 15 41  1  0
 17 42  1  0
 17 43  1  0
 19 44  1  0
 20 45  1  0
 21 46  1  0
 22 47  1  0
 23 48  1  0
 24 49  1  0
 25 50  1  0
 29 51  1  0
 30 52  1  0
 31 53  1  0
 32 54  1  0
 34 55  1  0
M  END
$$$$
