
     RDKit          3D

 30 31  0  0  0  0  0  0  0  0999 V2000
    4.3188   -1.0625   -2.1533 C   0  0  0  0  0  0  0  0  0  0  0  0
    3.0638   -0.5427   -2.5734 O   0  0  0  0  0  0  0  0  0  0  0  0
    1.9833   -0.8249   -1.7837 C   0  0  0  0  0  0  0  0  0  0  0  0
    2.0004   -1.5682   -0.6035 C   0  0  0  0  0  0  0  0  0  0  0  0
    0.8155   -1.7827    0.1115 C   0  0  0  0  0  0  0  0  0  0  0  0
   -0.3993   -1.2538   -0.3443 C   0  0  0  0  0  0  0  0  0  0  0  0
   -1.6481   -1.5025    0.4003 C   0  0  0  0  0  0  0  0  0  0  0  0
   -2.1927   -2.8256    0.3419 C   0  0  0  0  0  0  0  0  0  0  0  0
   -2.6558   -3.8897    0.3132 N   0  0  0  0  0  0  0  0  0  0  0  0
   -2.3172   -0.5658    1.1067 C   0  0  0  0  0  0  0  0  0  0  0  0
   -1.9590    0.8387    1.3560 C   0  0  0  0  0  0  0  0  0  0  0  0
   -2.9478    1.7563    1.7015 C   0  0  0  0  0  0  0  0  0  0  0  0
   -2.5837    3.0772    1.9553 C   0  0  0  0  0  0  0  0  0  0  0  0
   -1.2474    3.4435    1.8647 C   0  0  0  0  0  0  0  0  0  0  0  0
   -0.3277    2.4668    1.5276 C   0  0  0  0  0  0  0  0  0  0  0  0
   -0.6559    1.1798    1.2821 N   0  0  0  0  0  0  0  0  0  0  0  0
   -0.4117   -0.5104   -1.5307 C   0  0  0  0  0  0  0  0  0  0  0  0
    0.7730   -0.2987   -2.2411 C   0  0  0  0  0  0  0  0  0  0  0  0
    4.6121   -0.6494   -1.1825 H   0  0  0  0  0  0  0  0  0  0  0  0
    5.0704   -0.7543   -2.8864 H   0  0  0  0  0  0  0  0  0  0  0  0
    4.3055   -2.1572   -2.1305 H   0  0  0  0  0  0  0  0  0  0  0  0
    2.9163   -1.9932   -0.2074 H   0  0  0  0  0  0  0  0  0  0  0  0
    0.8535   -2.3580    1.0341 H   0  0  0  0  0  0  0  0  0  0  0  0
   -3.2538   -0.8575    1.5812 H   0  0  0  0  0  0  0  0  0  0  0  0
   -3.9902    1.4624    1.7685 H   0  0  0  0  0  0  0  0  0  0  0  0
   -3.3379    3.8128    2.2205 H   0  0  0  0  0  0  0  0  0  0  0  0
   -0.9295    4.4626    2.0531 H   0  0  0  0  0  0  0  0  0  0  0  0
    0.7307    2.6965    1.4431 H   0  0  0  0  0  0  0  0  0  0  0  0
   -1.3379   -0.0840   -1.9077 H   0  0  0  0  0  0  0  0  0  0  0  0
    0.7525    0.2846   -3.1583 H   0  0  0  0  0  0  0  0  0  0  0  0
  1  2  1  0
  2  3  1  0
  3  4  2  0
  4  5  1  0
  5  6  2  0
  6  7  1  0
  7  8  1  0
  8  9  3  0
  7 10  2  3
 10 11  1  0
 11 12  2  0
 12 13  1  0
 13 14  2  0
 14 15  1  0
 15 16  2  0
  6 17  1  0
 17 18  2  0
 18  3  1  0
 16 11  1  0
  1 19  1  0
  1 20  1  0
  1 21  1  0
  4 22  1  0
  5 23  1  0
 10 24  1  0
 12 25  1  0
 13 26  1  0
 14 27  1  0
 15 28  1  0
 17 29  1  0
 18 30  1  0
M  END
$$$$
