
     RDKit          3D

 44 46  0  0  0  0  0  0  0  0999 V2000
   -6.4106    1.7257   -1.9389 C   0  0  0  0  0  0  0  0  0  0  0  0
   -5.2094    2.4945   -1.8533 O   0  0  0  0  0  0  0  0  0  0  0  0
   -4.1604    1.7508   -1.3742 C   0  0  0  0  0  0  0  0  0  0  0  0
   -3.0818    1.5942   -2.2465 C   0  0  0  0  0  0  0  0  0  0  0  0
   -1.9529    0.8824   -1.8437 C   0  0  0  0  0  0  0  0  0  0  0  0
   -1.8954    0.3301   -0.5599 C   0  0  0  0  0  0  0  0  0  0  0  0
   -0.7084   -0.4001   -0.0935 C   0  0  0  0  0  0  0  0  0  0  0  0
   -0.1893   -1.5051   -0.6644 C   0  0  0  0  0  0  0  0  0  0  0  0
   -0.7621   -2.1719   -1.7829 C   0  0  0  0  0  0  0  0  0  0  0  0
   -1.2260   -2.6701   -2.7233 N   0  0  0  0  0  0  0  0  0  0  0  0
    1.0085   -2.1347   -0.0337 C   0  0  0  0  0  0  0  0  0  0  0  0
    0.9887   -3.3292    0.2329 O   0  0  0  0  0  0  0  0  0  0  0  0
    2.0574   -1.2489    0.1520 N   0  0  0  0  0  0  0  0  0  0  0  0
    3.3279   -1.5076    0.7379 C   0  0  0  0  0  0  0  0  0  0  0  0
    3.6378   -2.7597    1.2792 C   0  0  0  0  0  0  0  0  0  0  0  0
    4.8826   -2.9956    1.8524 C   0  0  0  0  0  0  0  0  0  0  0  0
    5.8294   -1.9782    1.8938 C   0  0  0  0  0  0  0  0  0  0  0  0
    5.5705   -0.7222    1.3751 C   0  0  0  0  0  0  0  0  0  0  0  0
    6.5525    0.1916    1.4657 N   0  0  0  0  0  0  0  0  0  0  0  0
    6.3343    1.4230    0.9666 C   0  0  0  0  0  0  0  0  0  0  0  0
    5.1541    1.7994    0.3675 C   0  0  0  0  0  0  0  0  0  0  0  0
    4.1376    0.8519    0.2771 C   0  0  0  0  0  0  0  0  0  0  0  0
    4.3091   -0.4617    0.7840 C   0  0  0  0  0  0  0  0  0  0  0  0
   -2.9693    0.5209    0.3254 C   0  0  0  0  0  0  0  0  0  0  0  0
   -4.1079    1.2363   -0.0692 C   0  0  0  0  0  0  0  0  0  0  0  0
   -5.1857    1.4891    0.7363 O   0  0  0  0  0  0  0  0  0  0  0  0
   -5.1086    1.0786    2.0950 C   0  0  0  0  0  0  0  0  0  0  0  0
   -6.2213    0.6832   -2.2271 H   0  0  0  0  0  0  0  0  0  0  0  0
   -6.9679    1.7701   -0.9972 H   0  0  0  0  0  0  0  0  0  0  0  0
   -7.0348    2.1783   -2.7148 H   0  0  0  0  0  0  0  0  0  0  0  0
   -3.1289    2.0232   -3.2446 H   0  0  0  0  0  0  0  0  0  0  0  0
   -1.1293    0.7731   -2.5450 H   0  0  0  0  0  0  0  0  0  0  0  0
   -0.2714    0.0045    0.8188 H   0  0  0  0  0  0  0  0  0  0  0  0
    1.9212   -0.3165   -0.2081 H   0  0  0  0  0  0  0  0  0  0  0  0
    2.9325   -3.5845    1.2765 H   0  0  0  0  0  0  0  0  0  0  0  0
    5.1143   -3.9730    2.2683 H   0  0  0  0  0  0  0  0  0  0  0  0
    6.8010   -2.1719    2.3440 H   0  0  0  0  0  0  0  0  0  0  0  0
    7.1639    2.1175    1.0659 H   0  0  0  0  0  0  0  0  0  0  0  0
    5.0266    2.8030   -0.0225 H   0  0  0  0  0  0  0  0  0  0  0  0
    3.2173    1.1663   -0.2013 H   0  0  0  0  0  0  0  0  0  0  0  0
   -2.8993    0.0972    1.3225 H   0  0  0  0  0  0  0  0  0  0  0  0
   -4.2668    1.5575    2.6066 H   0  0  0  0  0  0  0  0  0  0  0  0
   -6.0273    1.4012    2.5944 H   0  0  0  0  0  0  0  0  0  0  0  0
   -5.0525   -0.0126    2.1746 H   0  0  0  0  0  0  0  0  0  0  0  0
  1  2  1  0
  2  3  1  0
  3  4  2  0
  4  5  1  0
  5  6  2  0
  6  7  1  0
  7  8  2  3
  8  9  1  0
  9 10  3  0
  8 11  1  0
 11 12  2  0
 11 13  1  0
 13 14  1  0
 14 15  2  0
 15 16  1  0
 16 17  2  0
 17 18  1  0
 18 19  2  0
 19 20  1  0
 20 21  2  0
 21 22  1  0
 22 23  2  0
  6 24  1  0
 24 25  2  0
 25 26  1  0
 26 27  1  0
 25  3  1  0
 23 14  1  0
 23 18  1  0
  1 28  1  0
  1 29  1  0
  1 30  1  0
  4 31  1  0
  5 32  1  0
  7 33  1  0
 13 34  1  0
 15 35  1  0
 16 36  1  0
 17 37  1  0
 20 38  1  0
 21 39  1  0
 22 40  1  0
 24 41  1  0
 27 42  1  0
 27 43  1  0
 27 44  1  0
M  END
$$$$
