
     RDKit          3D

 72 74  0  0  0  0  0  0  0  0999 V2000
   -3.1541    2.8181    6.1716 C   0  0  0  0  0  0  0  0  0  0  0  0
   -1.8868    2.8388    5.5268 O   0  0  0  0  0  0  0  0  0  0  0  0
   -1.7342    2.0247    4.4388 C   0  0  0  0  0  0  0  0  0  0  0  0
   -0.4522    2.0185    3.8886 C   0  0  0  0  0  0  0  0  0  0  0  0
   -0.1580    1.2310    2.7726 C   0  0  0  0  0  0  0  0  0  0  0  0
   -1.1471    0.4291    2.1800 C   0  0  0  0  0  0  0  0  0  0  0  0
   -0.7935   -0.3869    0.9416 C   0  0  0  0  0  0  0  0  0  0  0  0
   -1.6342   -1.6950    0.7666 C   0  0  0  0  0  0  0  0  0  0  0  0
   -1.8666   -2.4589    1.7013 O   0  0  0  0  0  0  0  0  0  0  0  0
   -2.0484   -1.9515   -0.5284 N   0  0  0  0  0  0  0  0  0  0  0  0
   -2.8007   -3.1329   -0.9711 C   0  0  0  0  0  0  0  0  0  0  0  0
   -4.1535   -3.2272   -0.2480 C   0  0  0  0  0  0  0  0  0  0  0  0
   -3.0675   -2.9864   -2.4808 C   0  0  0  0  0  0  0  0  0  0  0  0
   -1.9857   -4.4156   -0.7436 C   0  0  0  0  0  0  0  0  0  0  0  0
   -0.7773    0.4351   -0.3029 N   0  0  0  0  0  0  0  0  0  0  0  0
   -1.9482    1.2833   -0.6055 C   0  0  0  0  0  0  0  0  0  0  0  0
   -1.7579    2.7564   -0.2044 C   0  0  0  0  0  0  0  0  0  0  0  0
   -2.9890    3.6013   -0.4976 C   0  0  0  0  0  0  0  0  0  0  0  0
   -2.3898    4.9788   -0.6272 C   0  0  0  0  0  0  0  0  0  0  0  0
   -1.0840    4.6864   -1.3341 C   0  0  0  0  0  0  0  0  0  0  0  0
   -0.6757    3.3732   -0.9283 O   0  0  0  0  0  0  0  0  0  0  0  0
    0.2152    0.3370   -1.2768 C   0  0  0  0  0  0  0  0  0  0  0  0
    0.0452    0.7480   -2.4257 O   0  0  0  0  0  0  0  0  0  0  0  0
    1.5124   -0.3462   -0.8901 C   0  0  0  0  0  0  0  0  0  0  0  0
    2.5583   -0.2184   -1.9941 C   0  0  0  0  0  0  0  0  0  0  0  0
    3.8737   -0.8559   -1.5968 C   0  0  0  0  0  0  0  0  0  0  0  0
    4.0264   -1.4300   -0.5237 O   0  0  0  0  0  0  0  0  0  0  0  0
    4.8284   -0.7088   -2.5768 N   0  0  0  0  0  0  0  0  0  0  0  0
    6.1197   -1.1814   -2.5084 C   0  0  0  0  0  0  0  0  0  0  0  0
    6.7617   -1.8989   -1.4758 C   0  0  0  0  0  0  0  0  0  0  0  0
    8.0363   -2.1066   -1.9404 C   0  0  0  0  0  0  0  0  0  0  0  0
    9.2339   -2.7719   -1.4010 C   0  0  0  0  0  0  0  0  0  0  0  0
    8.1554   -1.5510   -3.1745 O   0  0  0  0  0  0  0  0  0  0  0  0
    6.9534   -0.9698   -3.5331 N   0  0  0  0  0  0  0  0  0  0  0  0
   -2.4354    0.4478    2.7367 C   0  0  0  0  0  0  0  0  0  0  0  0
   -2.7256    1.2363    3.8573 C   0  0  0  0  0  0  0  0  0  0  0  0
   -3.9400    3.1918    5.5071 H   0  0  0  0  0  0  0  0  0  0  0  0
   -3.1013    3.4894    7.0341 H   0  0  0  0  0  0  0  0  0  0  0  0
   -3.3932    1.8161    6.5435 H   0  0  0  0  0  0  0  0  0  0  0  0
    0.3271    2.6329    4.3335 H   0  0  0  0  0  0  0  0  0  0  0  0
    0.8502    1.2573    2.3633 H   0  0  0  0  0  0  0  0  0  0  0  0
    0.2128   -0.7803    1.1198 H   0  0  0  0  0  0  0  0  0  0  0  0
   -1.7698   -1.2778   -1.2342 H   0  0  0  0  0  0  0  0  0  0  0  0
   -4.0335   -3.4060    0.8255 H   0  0  0  0  0  0  0  0  0  0  0  0
   -4.7592   -4.0482   -0.6481 H   0  0  0  0  0  0  0  0  0  0  0  0
   -4.7258   -2.2989   -0.3623 H   0  0  0  0  0  0  0  0  0  0  0  0
   -2.1285   -2.9137   -3.0428 H   0  0  0  0  0  0  0  0  0  0  0  0
   -3.6435   -2.0778   -2.6934 H   0  0  0  0  0  0  0  0  0  0  0  0
   -3.6292   -3.8410   -2.8741 H   0  0  0  0  0  0  0  0  0  0  0  0
   -1.8101   -4.6059    0.3202 H   0  0  0  0  0  0  0  0  0  0  0  0
   -1.0049   -4.3491   -1.2290 H   0  0  0  0  0  0  0  0  0  0  0  0
   -2.5042   -5.2911   -1.1504 H   0  0  0  0  0  0  0  0  0  0  0  0
   -2.1365    1.2325   -1.6847 H   0  0  0  0  0  0  0  0  0  0  0  0
   -2.8323    0.8612   -0.1163 H   0  0  0  0  0  0  0  0  0  0  0  0
   -1.5056    2.8439    0.8556 H   0  0  0  0  0  0  0  0  0  0  0  0
   -3.7479    3.5300    0.2866 H   0  0  0  0  0  0  0  0  0  0  0  0
   -3.4492    3.3098   -1.4495 H   0  0  0  0  0  0  0  0  0  0  0  0
   -2.1920    5.3927    0.3687 H   0  0  0  0  0  0  0  0  0  0  0  0
   -3.0216    5.6850   -1.1723 H   0  0  0  0  0  0  0  0  0  0  0  0
   -1.2151    4.6736   -2.4214 H   0  0  0  0  0  0  0  0  0  0  0  0
   -0.3018    5.4093   -1.0853 H   0  0  0  0  0  0  0  0  0  0  0  0
    1.3101   -1.4064   -0.7010 H   0  0  0  0  0  0  0  0  0  0  0  0
    1.8955    0.1165    0.0265 H   0  0  0  0  0  0  0  0  0  0  0  0
    2.2027   -0.7050   -2.9105 H   0  0  0  0  0  0  0  0  0  0  0  0
    2.7395    0.8396   -2.2199 H   0  0  0  0  0  0  0  0  0  0  0  0
    4.6157   -0.2173   -3.4346 H   0  0  0  0  0  0  0  0  0  0  0  0
    6.3592   -2.2202   -0.5270 H   0  0  0  0  0  0  0  0  0  0  0  0
   10.0603   -2.0604   -1.3111 H   0  0  0  0  0  0  0  0  0  0  0  0
    9.5499   -3.5870   -2.0592 H   0  0  0  0  0  0  0  0  0  0  0  0
    9.0375   -3.1921   -0.4099 H   0  0  0  0  0  0  0  0  0  0  0  0
   -3.2339   -0.1601    2.3148 H   0  0  0  0  0  0  0  0  0  0  0  0
   -3.7362    1.2065    4.2512 H   0  0  0  0  0  0  0  0  0  0  0  0
  1  2  1  0
  2  3  1  0
  3  4  2  0
  4  5  1  0
  5  6  2  0
  6  7  1  0
  7  8  1  0
  8  9  2  0
  8 10  1  0
 10 11  1  0
 11 12  1  0
 11 13  1  0
 11 14  1  0
  7 15  1  0
 15 16  1  0
 16 17  1  0
 17 18  1  0
 18 19  1  0
 19 20  1  0
 20 21  1  0
 15 22  1  0
 22 23  2  0
 22 24  1  0
 24 25  1  0
 25 26  1  0
 26 27  2  0
 26 28  1  0
 28 29  1  0
 29 30  1  0
 30 31  2  0
 31 32  1  0
 31 33  1  0
 33 34  1  0
  6 35  1  0
 35 36  2  0
 36  3  1  0
 21 17  1  0
 34 29  2  0
  1 37  1  0
  1 38  1  0
  1 39  1  0
  4 40  1  0
  5 41  1  0
  7 42  1  0
 10 43  1  0
 12 44  1  0
 12 45  1  0
 12 46  1  0
 13 47  1  0
 13 48  1  0
 13 49  1  0
 14 50  1  0
 14 51  1  0
 14 52  1  0
 16 53  1  0
 16 54  1  0
 17 55  1  0
 18 56  1  0
 18 57  1  0
 19 58  1  0
 19 59  1  0
 20 60  1  0
 20 61  1  0
 24 62  1  0
 24 63  1  0
 25 64  1  0
 25 65  1  0
 28 66  1  0
 30 67  1  0
 32 68  1  0
 32 69  1  0
 32 70  1  0
 35 71  1  0
 36 72  1  0
M  END
$$$$
