
     RDKit          3D

 38 40  0  0  0  0  0  0  0  0999 V2000
   -3.4771   -1.1505    0.9719 C   0  0  0  0  0  0  0  0  0  0  0  0
   -3.2011   -0.0486   -0.0113 C   0  0  0  0  0  0  0  0  0  0  0  0
   -3.6070    1.2556    0.3245 C   0  0  0  0  0  0  0  0  0  0  0  0
   -3.3990    2.3147   -0.5550 C   0  0  0  0  0  0  0  0  0  0  0  0
   -3.7937    3.5461   -0.2070 F   0  0  0  0  0  0  0  0  0  0  0  0
   -2.7961    2.1129   -1.7874 C   0  0  0  0  0  0  0  0  0  0  0  0
   -2.3941    0.8284   -2.1490 C   0  0  0  0  0  0  0  0  0  0  0  0
   -2.5885   -0.2503   -1.2665 C   0  0  0  0  0  0  0  0  0  0  0  0
   -2.0462   -1.8685   -1.8172 S   0  0  0  0  0  6  0  0  0  0  0  0
   -3.0024   -2.8499   -1.3523 O   0  0  0  0  0  0  0  0  0  0  0  0
   -1.7116   -1.7756   -3.2233 O   0  0  0  0  0  0  0  0  0  0  0  0
   -0.6261   -2.1197   -0.9376 N   0  0  0  0  0  0  0  0  0  0  0  0
    0.3941   -1.1288   -0.9652 C   0  0  0  0  0  0  0  0  0  0  0  0
    1.0747   -0.8389   -2.1467 C   0  0  0  0  0  0  0  0  0  0  0  0
    2.0477    0.1613   -2.1655 C   0  0  0  0  0  0  0  0  0  0  0  0
    2.3342    0.8692   -0.9977 C   0  0  0  0  0  0  0  0  0  0  0  0
    3.2831    1.8545   -1.0235 O   0  0  0  0  0  0  0  0  0  0  0  0
    1.6584    0.5830    0.1971 C   0  0  0  0  0  0  0  0  0  0  0  0
    1.9778    1.4780    1.7094 S   0  0  0  0  0  0  0  0  0  0  0  0
    3.3509    0.6163    2.3588 C   0  0  0  0  0  0  0  0  0  0  0  0
    4.2574    1.2158    3.1958 N   0  0  0  0  0  0  0  0  0  0  0  0
    5.0952    0.2467    3.4751 C   0  0  0  0  0  0  0  0  0  0  0  0
    4.6959   -0.8891    2.8486 N   0  0  0  0  0  0  0  0  0  0  0  0
    3.5703   -0.6889    2.1470 N   0  0  0  0  0  0  0  0  0  0  0  0
    0.6810   -0.4209    0.2025 C   0  0  0  0  0  0  0  0  0  0  0  0
   -2.5918   -1.7718    1.1300 H   0  0  0  0  0  0  0  0  0  0  0  0
   -4.3126   -1.7671    0.6279 H   0  0  0  0  0  0  0  0  0  0  0  0
   -3.7487   -0.7463    1.9536 H   0  0  0  0  0  0  0  0  0  0  0  0
   -4.0926    1.4649    1.2747 H   0  0  0  0  0  0  0  0  0  0  0  0
   -2.6470    2.9529   -2.4586 H   0  0  0  0  0  0  0  0  0  0  0  0
   -1.9265    0.6774   -3.1204 H   0  0  0  0  0  0  0  0  0  0  0  0
   -0.7926   -2.6095   -0.0605 H   0  0  0  0  0  0  0  0  0  0  0  0
    0.8608   -1.3935   -3.0578 H   0  0  0  0  0  0  0  0  0  0  0  0
    2.5678    0.3723   -3.0951 H   0  0  0  0  0  0  0  0  0  0  0  0
    3.6637    1.9144   -1.9141 H   0  0  0  0  0  0  0  0  0  0  0  0
    5.9727    0.3076    4.1025 H   0  0  0  0  0  0  0  0  0  0  0  0
    5.1204   -1.8095    2.8580 H   0  0  0  0  0  0  0  0  0  0  0  0
    0.1486   -0.6445    1.1227 H   0  0  0  0  0  0  0  0  0  0  0  0
  1  2  1  0
  2  3  2  0
  3  4  1  0
  4  5  1  0
  4  6  2  0
  6  7  1  0
  7  8  2  0
  8  9  1  0
  9 10  2  0
  9 11  2  0
  9 12  1  0
 12 13  1  0
 13 14  2  0
 14 15  1  0
 15 16  2  0
 16 17  1  0
 16 18  1  0
 18 19  1  0
 19 20  1  0
 20 21  1  0
 21 22  2  0
 22 23  1  0
 23 24  1  0
 18 25  2  0
  8  2  1  0
 25 13  1  0
 24 20  2  0
  1 26  1  0
  1 27  1  0
  1 28  1  0
  3 29  1  0
  6 30  1  0
  7 31  1  0
 12 32  1  0
 14 33  1  0
 15 34  1  0
 17 35  1  0
 22 36  1  0
 23 37  1  0
 25 38  1  0
M  END
$$$$
