
     RDKit          3D

 55 60  0  0  0  0  0  0  0  0999 V2000
    4.9370    1.6765    0.8674 O   0  0  0  0  0  0  0  0  0  0  0  0
    4.1977    0.7657    1.2371 C   0  0  0  0  0  0  0  0  0  0  0  0
    4.6573   -0.1727    2.2502 C   0  0  0  0  0  0  0  0  0  0  0  0
    5.9931   -0.6306    2.4552 C   0  0  0  0  0  0  0  0  0  0  0  0
    5.9625   -1.4672    3.5449 C   0  0  0  0  0  0  0  0  0  0  0  0
    4.7049   -1.5370    4.0493 O   0  0  0  0  0  0  0  0  0  0  0  0
    3.9267   -0.7348    3.2785 C   0  0  0  0  0  0  0  0  0  0  0  0
    2.9095    0.6161    0.7088 N   0  0  0  0  0  0  0  0  0  0  0  0
    2.4220    1.6817   -0.1579 C   0  0  0  0  0  0  0  0  0  0  0  0
    0.9114    1.6014   -0.3401 C   0  0  0  0  0  0  0  0  0  0  0  0
    0.5140    0.2912   -1.0653 C   0  0  0  0  0  0  0  0  0  0  0  0
    1.4108   -0.8907   -0.5825 C   0  0  0  0  0  0  0  0  0  0  0  0
    2.1460   -0.6294    0.7314 C   0  0  0  0  0  0  0  0  0  0  0  0
    0.8838    0.4317   -2.4693 O   0  0  0  0  0  0  0  0  0  0  0  0
    0.0283    1.0978   -3.2967 C   0  0  0  0  0  0  0  0  0  0  0  0
    0.5268    1.4280   -4.5579 C   0  0  0  0  0  0  0  0  0  0  0  0
   -0.2701    2.1354   -5.4601 C   0  0  0  0  0  0  0  0  0  0  0  0
   -1.5607    2.5060   -5.0949 C   0  0  0  0  0  0  0  0  0  0  0  0
   -2.3188    3.1891   -5.9615 F   0  0  0  0  0  0  0  0  0  0  0  0
   -2.0747    2.1760   -3.8481 C   0  0  0  0  0  0  0  0  0  0  0  0
   -1.2733    1.4583   -2.9576 C   0  0  0  0  0  0  0  0  0  0  0  0
   -1.7841    1.0700   -1.6372 C   0  0  0  0  0  0  0  0  0  0  0  0
   -2.7714    1.6318   -1.1710 O   0  0  0  0  0  0  0  0  0  0  0  0
   -1.0023   -0.0271   -0.9245 C   0  0  0  0  0  0  0  0  0  0  0  0
   -1.5010   -0.2282    0.4978 C   0  0  0  0  0  0  0  0  0  0  0  0
   -2.4932   -1.3117    0.2387 C   0  0  0  0  0  0  0  0  0  0  0  0
   -3.5166   -1.7036    1.2364 C   0  0  0  0  0  0  0  0  0  0  0  0
   -3.5646   -1.1200    2.5081 C   0  0  0  0  0  0  0  0  0  0  0  0
   -4.5431   -1.5191    3.4252 C   0  0  0  0  0  0  0  0  0  0  0  0
   -5.4701   -2.4993    3.0737 C   0  0  0  0  0  0  0  0  0  0  0  0
   -6.6691   -2.9864    4.2062 Cl  0  0  0  0  0  0  0  0  0  0  0  0
   -5.4290   -3.0864    1.8115 C   0  0  0  0  0  0  0  0  0  0  0  0
   -4.4527   -2.6893    0.8937 C   0  0  0  0  0  0  0  0  0  0  0  0
   -2.3593   -1.9023   -0.9060 N   0  0  0  0  0  0  0  0  0  0  0  0
   -1.3049   -1.2636   -1.5943 O   0  0  0  0  0  0  0  0  0  0  0  0
    6.8645   -0.3725    1.8685 H   0  0  0  0  0  0  0  0  0  0  0  0
    6.7109   -2.0470    4.0674 H   0  0  0  0  0  0  0  0  0  0  0  0
    2.8954   -0.6604    3.5926 H   0  0  0  0  0  0  0  0  0  0  0  0
    2.6920    2.6485    0.2828 H   0  0  0  0  0  0  0  0  0  0  0  0
    2.9437    1.6034   -1.1193 H   0  0  0  0  0  0  0  0  0  0  0  0
    0.4339    1.6594    0.6454 H   0  0  0  0  0  0  0  0  0  0  0  0
    0.5887    2.4812   -0.9080 H   0  0  0  0  0  0  0  0  0  0  0  0
    2.1695   -1.1123   -1.3466 H   0  0  0  0  0  0  0  0  0  0  0  0
    0.8318   -1.8152   -0.4779 H   0  0  0  0  0  0  0  0  0  0  0  0
    1.4367   -0.5547    1.5613 H   0  0  0  0  0  0  0  0  0  0  0  0
    2.8075   -1.4779    0.9305 H   0  0  0  0  0  0  0  0  0  0  0  0
    1.5379    1.1410   -4.8372 H   0  0  0  0  0  0  0  0  0  0  0  0
    0.1074    2.4012   -6.4431 H   0  0  0  0  0  0  0  0  0  0  0  0
   -3.0878    2.4673   -3.5874 H   0  0  0  0  0  0  0  0  0  0  0  0
   -0.7424   -0.6347    1.1696 H   0  0  0  0  0  0  0  0  0  0  0  0
   -1.9458    0.6624    0.9466 H   0  0  0  0  0  0  0  0  0  0  0  0
   -2.8568   -0.3552    2.8125 H   0  0  0  0  0  0  0  0  0  0  0  0
   -4.5780   -1.0613    4.4109 H   0  0  0  0  0  0  0  0  0  0  0  0
   -6.1506   -3.8503    1.5333 H   0  0  0  0  0  0  0  0  0  0  0  0
   -4.4311   -3.1534   -0.0911 H   0  0  0  0  0  0  0  0  0  0  0  0
  1  2  2  0
  2  3  1  0
  3  4  1  0
  4  5  2  0
  5  6  1  0
  6  7  1  0
  2  8  1  0
  8  9  1  0
  9 10  1  0
 10 11  1  0
 11 12  1  0
 12 13  1  0
 11 14  1  0
 14 15  1  0
 15 16  2  0
 16 17  1  0
 17 18  2  0
 18 19  1  0
 18 20  1  0
 20 21  2  0
 21 22  1  0
 22 23  2  0
 22 24  1  0
 24 25  1  0
 25 26  1  0
 26 27  1  0
 27 28  2  0
 28 29  1  0
 29 30  2  0
 30 31  1  0
 30 32  1  0
 32 33  2  0
 26 34  2  0
 34 35  1  0
  7  3  2  0
 13  8  1  0
 21 15  1  0
 35 24  1  0
 24 11  1  0
 33 27  1  0
  4 36  1  0
  5 37  1  0
  7 38  1  0
  9 39  1  0
  9 40  1  0
 10 41  1  0
 10 42  1  0
 12 43  1  0
 12 44  1  0
 13 45  1  0
 13 46  1  0
 16 47  1  0
 17 48  1  0
 20 49  1  0
 25 50  1  0
 25 51  1  0
 28 52  1  0
 29 53  1  0
 32 54  1  0
 33 55  1  0
M  END
$$$$
