
     RDKit          3D

 39 40  0  0  0  0  0  0  0  0999 V2000
   -2.8577    4.4167    1.4302 C   0  0  0  0  0  0  0  0  0  0  0  0
   -1.9413    3.2266    1.3383 C   0  0  0  0  0  0  0  0  0  0  0  0
   -0.9859    3.0928    2.0948 O   0  0  0  0  0  0  0  0  0  0  0  0
   -2.3275    2.3217    0.3805 N   0  0  0  0  0  0  0  0  0  0  0  0
   -1.4061    1.6235   -0.2205 C   0  0  0  0  0  0  0  0  0  0  0  0
   -1.7858    0.6148   -1.2765 C   0  0  0  0  0  0  0  0  0  0  0  0
   -1.7858   -0.8015   -0.7616 C   0  0  0  0  0  0  0  0  0  0  0  0
   -0.7658   -1.6925   -1.1213 C   0  0  0  0  0  0  0  0  0  0  0  0
   -0.7644   -2.9994   -0.6315 C   0  0  0  0  0  0  0  0  0  0  0  0
   -1.7783   -3.4272    0.2229 C   0  0  0  0  0  0  0  0  0  0  0  0
   -2.7954   -2.5482    0.5895 C   0  0  0  0  0  0  0  0  0  0  0  0
   -2.7998   -1.2411    0.1008 C   0  0  0  0  0  0  0  0  0  0  0  0
    0.0830    1.7644    0.0167 C   0  0  0  0  0  0  0  0  0  0  0  0
    0.7349    2.6059   -0.5754 O   0  0  0  0  0  0  0  0  0  0  0  0
    0.4875    0.8311    0.8920 O   0  0  0  0  0  0  0  0  0  0  0  0
    1.8836    0.8460    1.1936 C   0  0  0  0  0  0  0  0  0  0  0  0
    2.5891   -0.1581    0.3192 C   0  0  0  0  0  0  0  0  0  0  0  0
    2.5629   -1.5220    0.6420 C   0  0  0  0  0  0  0  0  0  0  0  0
    3.1931   -2.4563   -0.1813 C   0  0  0  0  0  0  0  0  0  0  0  0
    3.8464   -2.0376   -1.3389 C   0  0  0  0  0  0  0  0  0  0  0  0
    3.8681   -0.6854   -1.6758 C   0  0  0  0  0  0  0  0  0  0  0  0
    3.2401    0.2506   -0.8527 C   0  0  0  0  0  0  0  0  0  0  0  0
   -2.9627    4.8805    0.4456 H   0  0  0  0  0  0  0  0  0  0  0  0
   -2.4362    5.1538    2.1194 H   0  0  0  0  0  0  0  0  0  0  0  0
   -3.8359    4.0988    1.8000 H   0  0  0  0  0  0  0  0  0  0  0  0
   -2.7839    0.8558   -1.6631 H   0  0  0  0  0  0  0  0  0  0  0  0
   -1.0978    0.7184   -2.1244 H   0  0  0  0  0  0  0  0  0  0  0  0
    0.0433   -1.3775   -1.7778 H   0  0  0  0  0  0  0  0  0  0  0  0
    0.0335   -3.6811   -0.9142 H   0  0  0  0  0  0  0  0  0  0  0  0
   -1.7746   -4.4444    0.6050 H   0  0  0  0  0  0  0  0  0  0  0  0
   -3.5851   -2.8797    1.2587 H   0  0  0  0  0  0  0  0  0  0  0  0
   -3.5988   -0.5653    0.4003 H   0  0  0  0  0  0  0  0  0  0  0  0
    2.3242    1.8465    1.0981 H   0  0  0  0  0  0  0  0  0  0  0  0
    1.9992    0.5645    2.2467 H   0  0  0  0  0  0  0  0  0  0  0  0
    2.0409   -1.8630    1.5339 H   0  0  0  0  0  0  0  0  0  0  0  0
    3.1702   -3.5111    0.0795 H   0  0  0  0  0  0  0  0  0  0  0  0
    4.3371   -2.7653   -1.9799 H   0  0  0  0  0  0  0  0  0  0  0  0
    4.3739   -0.3583   -2.5806 H   0  0  0  0  0  0  0  0  0  0  0  0
    3.2574    1.3028   -1.1324 H   0  0  0  0  0  0  0  0  0  0  0  0
  1  2  1  0
  2  3  2  0
  2  4  1  0
  4  5  2  3
  5  6  1  0
  6  7  1  0
  7  8  2  0
  8  9  1  0
  9 10  2  0
 10 11  1  0
 11 12  2  0
  5 13  1  0
 13 14  2  0
 13 15  1  0
 15 16  1  0
 16 17  1  0
 17 18  2  0
 18 19  1  0
 19 20  2  0
 20 21  1  0
 21 22  2  0
 12  7  1  0
 22 17  1  0
  1 23  1  0
  1 24  1  0
  1 25  1  0
  6 26  1  0
  6 27  1  0
  8 28  1  0
  9 29  1  0
 10 30  1  0
 11 31  1  0
 12 32  1  0
 16 33  1  0
 16 34  1  0
 18 35  1  0
 19 36  1  0
 20 37  1  0
 21 38  1  0
 22 39  1  0
M  END
$$$$
