
     RDKit          3D

 57 59  0  0  0  0  0  0  0  0999 V2000
   -9.7638   -1.6024   -0.2559 C   0  0  0  0  0  0  0  0  0  0  0  0
   -8.7171   -1.5648   -1.2178 O   0  0  0  0  0  0  0  0  0  0  0  0
   -7.4473   -1.3766   -0.7457 C   0  0  0  0  0  0  0  0  0  0  0  0
   -6.4512   -1.4086   -1.7280 C   0  0  0  0  0  0  0  0  0  0  0  0
   -5.1093   -1.2306   -1.3884 C   0  0  0  0  0  0  0  0  0  0  0  0
   -4.7668   -1.0115   -0.0533 C   0  0  0  0  0  0  0  0  0  0  0  0
   -3.0591   -0.7750    0.3703 S   0  0  0  0  0  6  0  0  0  0  0  0
   -2.9735   -0.4855    1.7862 O   0  0  0  0  0  0  0  0  0  0  0  0
   -2.3139   -1.8583   -0.2294 O   0  0  0  0  0  0  0  0  0  0  0  0
   -2.6770    0.6488   -0.4530 N   0  0  0  0  0  0  0  0  0  0  0  0
   -3.3711    1.8837   -0.0286 C   0  0  0  0  0  0  0  0  0  0  0  0
   -2.2536    2.7838    0.4473 C   0  0  0  0  0  0  0  0  0  0  0  0
   -1.1507    2.4037   -0.3762 O   0  0  0  0  0  0  0  0  0  0  0  0
   -1.2276    0.9632   -0.4478 C   0  0  0  0  0  0  0  0  0  0  0  0
   -0.5500    0.4898   -1.7484 C   0  0  0  0  0  0  0  0  0  0  0  0
    0.8242    0.9428   -1.8841 N   0  0  0  0  0  0  0  0  0  0  0  0
    1.8269    0.4496   -1.0826 C   0  0  0  0  0  0  0  0  0  0  0  0
    1.7218   -0.4832   -0.2997 O   0  0  0  0  0  0  0  0  0  0  0  0
    3.1629    1.2157   -1.2147 C   0  0  0  0  0  0  0  0  0  0  0  0
    3.2084    2.2631   -1.8451 O   0  0  0  0  0  0  0  0  0  0  0  0
    4.2090    0.6123   -0.5614 N   0  0  0  0  0  0  0  0  0  0  0  0
    5.4571    1.2988   -0.3496 C   0  0  0  0  0  0  0  0  0  0  0  0
    6.5480    0.3356    0.0424 C   0  0  0  0  0  0  0  0  0  0  0  0
    7.4583   -0.1037   -0.9342 C   0  0  0  0  0  0  0  0  0  0  0  0
    8.4691   -1.0056   -0.6085 C   0  0  0  0  0  0  0  0  0  0  0  0
    8.5768   -1.4826    0.6942 C   0  0  0  0  0  0  0  0  0  0  0  0
    7.6711   -1.0649    1.6728 C   0  0  0  0  0  0  0  0  0  0  0  0
    6.6508   -0.1619    1.3557 C   0  0  0  0  0  0  0  0  0  0  0  0
    5.7080    0.2933    2.2406 O   0  0  0  0  0  0  0  0  0  0  0  0
    5.7298   -0.2476    3.5560 C   0  0  0  0  0  0  0  0  0  0  0  0
   -5.7492   -0.9821    0.9391 C   0  0  0  0  0  0  0  0  0  0  0  0
   -7.0913   -1.1640    0.5888 C   0  0  0  0  0  0  0  0  0  0  0  0
  -10.7015   -1.7860   -0.7895 H   0  0  0  0  0  0  0  0  0  0  0  0
   -9.8575   -0.6416    0.2611 H   0  0  0  0  0  0  0  0  0  0  0  0
   -9.6191   -2.4231    0.4543 H   0  0  0  0  0  0  0  0  0  0  0  0
   -6.7261   -1.5803   -2.7665 H   0  0  0  0  0  0  0  0  0  0  0  0
   -4.3436   -1.2678   -2.1602 H   0  0  0  0  0  0  0  0  0  0  0  0
   -3.8596    2.3063   -0.9137 H   0  0  0  0  0  0  0  0  0  0  0  0
   -4.1313    1.7401    0.7426 H   0  0  0  0  0  0  0  0  0  0  0  0
   -2.4777    3.8458    0.3165 H   0  0  0  0  0  0  0  0  0  0  0  0
   -1.9945    2.5963    1.4954 H   0  0  0  0  0  0  0  0  0  0  0  0
   -0.7190    0.5662    0.4388 H   0  0  0  0  0  0  0  0  0  0  0  0
   -1.0855    0.8830   -2.6196 H   0  0  0  0  0  0  0  0  0  0  0  0
   -0.5586   -0.6032   -1.8091 H   0  0  0  0  0  0  0  0  0  0  0  0
    1.0086    1.8473   -2.3118 H   0  0  0  0  0  0  0  0  0  0  0  0
    3.9639   -0.1485    0.0670 H   0  0  0  0  0  0  0  0  0  0  0  0
    5.3067    2.0577    0.4272 H   0  0  0  0  0  0  0  0  0  0  0  0
    5.7268    1.8449   -1.2617 H   0  0  0  0  0  0  0  0  0  0  0  0
    7.3783    0.2562   -1.9584 H   0  0  0  0  0  0  0  0  0  0  0  0
    9.1690   -1.3375   -1.3712 H   0  0  0  0  0  0  0  0  0  0  0  0
    9.3645   -2.1869    0.9502 H   0  0  0  0  0  0  0  0  0  0  0  0
    7.7895   -1.4668    2.6737 H   0  0  0  0  0  0  0  0  0  0  0  0
    4.8964    0.1934    4.1121 H   0  0  0  0  0  0  0  0  0  0  0  0
    5.5820   -1.3326    3.5406 H   0  0  0  0  0  0  0  0  0  0  0  0
    6.6553    0.0208    4.0764 H   0  0  0  0  0  0  0  0  0  0  0  0
   -5.4832   -0.8231    1.9822 H   0  0  0  0  0  0  0  0  0  0  0  0
   -7.8332   -1.1354    1.3806 H   0  0  0  0  0  0  0  0  0  0  0  0
  1  2  1  0
  2  3  1  0
  3  4  2  0
  4  5  1  0
  5  6  2  0
  6  7  1  0
  7  8  2  0
  7  9  2  0
  7 10  1  0
 10 11  1  0
 11 12  1  0
 12 13  1  0
 13 14  1  0
 14 15  1  0
 15 16  1  0
 16 17  1  0
 17 18  2  0
 17 19  1  0
 19 20  2  0
 19 21  1  0
 21 22  1  0
 22 23  1  0
 23 24  2  0
 24 25  1  0
 25 26  2  0
 26 27  1  0
 27 28  2  0
 28 29  1  0
 29 30  1  0
  6 31  1  0
 31 32  2  0
 32  3  1  0
 14 10  1  0
 28 23  1  0
  1 33  1  0
  1 34  1  0
  1 35  1  0
  4 36  1  0
  5 37  1  0
 11 38  1  0
 11 39  1  0
 12 40  1  0
 12 41  1  0
 14 42  1  0
 15 43  1  0
 15 44  1  0
 16 45  1  0
 21 46  1  0
 22 47  1  0
 22 48  1  0
 24 49  1  0
 25 50  1  0
 26 51  1  0
 27 52  1  0
 30 53  1  0
 30 54  1  0
 30 55  1  0
 31 56  1  0
 32 57  1  0
M  END
$$$$
