
     RDKit          3D

 35 37  0  0  0  0  0  0  0  0999 V2000
    5.5062   -1.6913    0.6782 C   0  0  0  0  0  0  0  0  0  0  0  0
    4.4600   -0.7547    0.4174 O   0  0  0  0  0  0  0  0  0  0  0  0
    3.6332   -1.1207   -0.5939 C   0  0  0  0  0  0  0  0  0  0  0  0
    3.7257   -2.1416   -1.2574 O   0  0  0  0  0  0  0  0  0  0  0  0
    2.5722   -0.0978   -0.8035 C   0  0  0  0  0  0  0  0  0  0  0  0
    2.4920    1.0721   -0.0367 C   0  0  0  0  0  0  0  0  0  0  0  0
    1.4721    1.9999   -0.2725 C   0  0  0  0  0  0  0  0  0  0  0  0
    0.5224    1.7662   -1.2723 C   0  0  0  0  0  0  0  0  0  0  0  0
   -0.5466    2.7445   -1.5026 C   0  0  0  0  0  0  0  0  0  0  0  0
   -1.8477    2.6020   -1.1715 C   0  0  0  0  0  0  0  0  0  0  0  0
   -2.7569    3.6543   -1.4968 C   0  0  0  0  0  0  0  0  0  0  0  0
   -3.4825    4.5164   -1.7761 N   0  0  0  0  0  0  0  0  0  0  0  0
   -2.3213    1.4436   -0.4758 C   0  0  0  0  0  0  0  0  0  0  0  0
   -1.7792    0.9018    0.5991 N   0  0  0  0  0  0  0  0  0  0  0  0
   -2.4725   -0.2288    0.9926 C   0  0  0  0  0  0  0  0  0  0  0  0
   -2.1546   -1.0516    2.0917 C   0  0  0  0  0  0  0  0  0  0  0  0
   -2.9469   -2.1685    2.3762 C   0  0  0  0  0  0  0  0  0  0  0  0
   -4.0474   -2.4717    1.5809 C   0  0  0  0  0  0  0  0  0  0  0  0
   -4.3823   -1.6704    0.4848 C   0  0  0  0  0  0  0  0  0  0  0  0
   -3.5780   -0.5522    0.2087 C   0  0  0  0  0  0  0  0  0  0  0  0
   -3.7268    0.6058   -1.0516 S   0  0  0  0  0  0  0  0  0  0  0  0
    0.6045    0.6019   -2.0439 C   0  0  0  0  0  0  0  0  0  0  0  0
    1.6235   -0.3257   -1.8093 C   0  0  0  0  0  0  0  0  0  0  0  0
    6.1088   -1.3045    1.5046 H   0  0  0  0  0  0  0  0  0  0  0  0
    5.0896   -2.6585    0.9764 H   0  0  0  0  0  0  0  0  0  0  0  0
    6.1512   -1.8000   -0.1995 H   0  0  0  0  0  0  0  0  0  0  0  0
    3.2115    1.2741    0.7529 H   0  0  0  0  0  0  0  0  0  0  0  0
    1.4178    2.8959    0.3423 H   0  0  0  0  0  0  0  0  0  0  0  0
   -0.2073    3.6529   -1.9997 H   0  0  0  0  0  0  0  0  0  0  0  0
   -1.2946   -0.8111    2.7088 H   0  0  0  0  0  0  0  0  0  0  0  0
   -2.6985   -2.8016    3.2248 H   0  0  0  0  0  0  0  0  0  0  0  0
   -4.6561   -3.3434    1.8131 H   0  0  0  0  0  0  0  0  0  0  0  0
   -5.2414   -1.9088   -0.1351 H   0  0  0  0  0  0  0  0  0  0  0  0
   -0.1216    0.4016   -2.8285 H   0  0  0  0  0  0  0  0  0  0  0  0
    1.6716   -1.2303   -2.4132 H   0  0  0  0  0  0  0  0  0  0  0  0
  1  2  1  0
  2  3  1  0
  3  4  2  0
  3  5  1  0
  5  6  2  0
  6  7  1  0
  7  8  2  0
  8  9  1  0
  9 10  2  3
 10 11  1  0
 11 12  3  0
 10 13  1  0
 13 14  2  0
 14 15  1  0
 15 16  2  0
 16 17  1  0
 17 18  2  0
 18 19  1  0
 19 20  2  0
 20 21  1  0
  8 22  1  0
 22 23  2  0
 23  5  1  0
 21 13  1  0
 20 15  1  0
  1 24  1  0
  1 25  1  0
  1 26  1  0
  6 27  1  0
  7 28  1  0
  9 29  1  0
 16 30  1  0
 17 31  1  0
 18 32  1  0
 19 33  1  0
 22 34  1  0
 23 35  1  0
M  END
$$$$
