
     RDKit          3D

 58 63  0  0  0  0  0  0  0  0999 V2000
    7.1249    2.6868    2.2760 C   0  0  0  0  0  0  0  0  0  0  0  0
    6.0020    2.2723    1.3881 C   0  0  0  0  0  0  0  0  0  0  0  0
    4.8870    2.9943    1.0178 C   0  0  0  0  0  0  0  0  0  0  0  0
    4.0361    2.2585    0.1423 C   0  0  0  0  0  0  0  0  0  0  0  0
    4.5172    0.9882   -0.1147 C   0  0  0  0  0  0  0  0  0  0  0  0
    3.9590   -0.0614   -0.9546 C   0  0  0  0  0  0  0  0  0  0  0  0
    4.6400   -0.6705   -1.7804 O   0  0  0  0  0  0  0  0  0  0  0  0
    2.5902   -0.3487   -0.8157 N   0  0  0  0  0  0  0  0  0  0  0  0
    1.7968    0.0080    0.3578 C   0  0  0  0  0  0  0  0  0  0  0  0
    0.8076   -1.0903    0.7392 C   0  0  0  0  0  0  0  0  0  0  0  0
   -0.1370   -1.5122   -0.4212 C   0  0  0  0  0  0  0  0  0  0  0  0
    0.4808   -1.1513   -1.7984 C   0  0  0  0  0  0  0  0  0  0  0  0
    1.9983   -1.2833   -1.7682 C   0  0  0  0  0  0  0  0  0  0  0  0
   -0.1546   -2.9697   -0.4493 O   0  0  0  0  0  0  0  0  0  0  0  0
   -0.9998   -3.6184    0.3990 C   0  0  0  0  0  0  0  0  0  0  0  0
   -0.7983   -4.9924    0.5321 C   0  0  0  0  0  0  0  0  0  0  0  0
   -1.6025   -5.7395    1.3966 C   0  0  0  0  0  0  0  0  0  0  0  0
   -2.6106   -5.1087    2.1251 C   0  0  0  0  0  0  0  0  0  0  0  0
   -3.5940   -6.0292    3.1941 Cl  0  0  0  0  0  0  0  0  0  0  0  0
   -2.8269   -3.7401    1.9903 C   0  0  0  0  0  0  0  0  0  0  0  0
   -2.0215   -3.0052    1.1141 C   0  0  0  0  0  0  0  0  0  0  0  0
   -2.2371   -1.5648    0.9344 C   0  0  0  0  0  0  0  0  0  0  0  0
   -2.9038   -0.9417    1.7569 O   0  0  0  0  0  0  0  0  0  0  0  0
   -1.5742   -0.9339   -0.2866 C   0  0  0  0  0  0  0  0  0  0  0  0
   -1.6685    0.5848   -0.2265 C   0  0  0  0  0  0  0  0  0  0  0  0
   -2.9181    0.7643   -1.0219 C   0  0  0  0  0  0  0  0  0  0  0  0
   -3.6631    2.0454   -1.0471 C   0  0  0  0  0  0  0  0  0  0  0  0
   -4.8625    2.1164   -1.7696 C   0  0  0  0  0  0  0  0  0  0  0  0
   -5.5891    3.3093   -1.8177 C   0  0  0  0  0  0  0  0  0  0  0  0
   -5.1172    4.4331   -1.1443 C   0  0  0  0  0  0  0  0  0  0  0  0
   -6.0080    5.9031   -1.2017 Cl  0  0  0  0  0  0  0  0  0  0  0  0
   -3.9249    4.3740   -0.4241 C   0  0  0  0  0  0  0  0  0  0  0  0
   -3.1955    3.1809   -0.3747 C   0  0  0  0  0  0  0  0  0  0  0  0
   -3.2735   -0.2727   -1.7115 N   0  0  0  0  0  0  0  0  0  0  0  0
   -2.3511   -1.3053   -1.4370 O   0  0  0  0  0  0  0  0  0  0  0  0
    6.0148    0.7195    0.6696 S   0  0  0  0  0  0  0  0  0  0  0  0
    6.9729    3.7052    2.6486 H   0  0  0  0  0  0  0  0  0  0  0  0
    7.2008    2.0213    3.1422 H   0  0  0  0  0  0  0  0  0  0  0  0
    8.0764    2.6671    1.7346 H   0  0  0  0  0  0  0  0  0  0  0  0
    4.6960    4.0088    1.3477 H   0  0  0  0  0  0  0  0  0  0  0  0
    3.1229    2.6494   -0.2888 H   0  0  0  0  0  0  0  0  0  0  0  0
    1.2686    0.9376    0.1242 H   0  0  0  0  0  0  0  0  0  0  0  0
    2.4495    0.2010    1.2146 H   0  0  0  0  0  0  0  0  0  0  0  0
    1.3858   -1.9617    1.0770 H   0  0  0  0  0  0  0  0  0  0  0  0
    0.2359   -0.7607    1.6143 H   0  0  0  0  0  0  0  0  0  0  0  0
    0.0869   -1.8157   -2.5780 H   0  0  0  0  0  0  0  0  0  0  0  0
    0.2337   -0.1274   -2.0969 H   0  0  0  0  0  0  0  0  0  0  0  0
    2.4073   -1.0871   -2.7660 H   0  0  0  0  0  0  0  0  0  0  0  0
    2.3046   -2.2965   -1.4817 H   0  0  0  0  0  0  0  0  0  0  0  0
   -0.0095   -5.4842   -0.0330 H   0  0  0  0  0  0  0  0  0  0  0  0
   -1.4365   -6.8094    1.4973 H   0  0  0  0  0  0  0  0  0  0  0  0
   -3.6194   -3.2498    2.5509 H   0  0  0  0  0  0  0  0  0  0  0  0
   -1.7438    0.9886    0.7855 H   0  0  0  0  0  0  0  0  0  0  0  0
   -0.8651    1.1000   -0.7573 H   0  0  0  0  0  0  0  0  0  0  0  0
   -5.2415    1.2431   -2.2982 H   0  0  0  0  0  0  0  0  0  0  0  0
   -6.5186    3.3510   -2.3799 H   0  0  0  0  0  0  0  0  0  0  0  0
   -3.5591    5.2527    0.1015 H   0  0  0  0  0  0  0  0  0  0  0  0
   -2.2705    3.1672    0.1931 H   0  0  0  0  0  0  0  0  0  0  0  0
  1  2  1  0
  2  3  2  0
  3  4  1  0
  4  5  2  0
  5  6  1  0
  6  7  2  0
  6  8  1  0
  8  9  1  0
  9 10  1  0
 10 11  1  0
 11 12  1  0
 12 13  1  0
 11 14  1  0
 14 15  1  0
 15 16  2  0
 16 17  1  0
 17 18  2  0
 18 19  1  0
 18 20  1  0
 20 21  2  0
 21 22  1  0
 22 23  2  0
 22 24  1  0
 24 25  1  0
 25 26  1  0
 26 27  1  0
 27 28  2  0
 28 29  1  0
 29 30  2  0
 30 31  1  0
 30 32  1  0
 32 33  2  0
 26 34  2  0
 34 35  1  0
  5 36  1  0
 36  2  1  0
 13  8  1  0
 21 15  1  0
 35 24  1  0
 24 11  1  0
 33 27  1  0
  1 37  1  0
  1 38  1  0
  1 39  1  0
  3 40  1  0
  4 41  1  0
  9 42  1  0
  9 43  1  0
 10 44  1  0
 10 45  1  0
 12 46  1  0
 12 47  1  0
 13 48  1  0
 13 49  1  0
 16 50  1  0
 17 51  1  0
 20 52  1  0
 25 53  1  0
 25 54  1  0
 28 55  1  0
 29 56  1  0
 32 57  1  0
 33 58  1  0
M  END
$$$$
