
     RDKit          3D

 38 38  0  0  0  0  0  0  0  0999 V2000
    5.7174    0.0163   -2.3993 C   0  0  0  0  0  0  0  0  0  0  0  0
    4.3634    0.1623   -3.0671 C   0  0  0  0  0  0  0  0  0  0  0  0
    3.3169    0.0212   -2.0956 O   0  0  0  0  0  0  0  0  0  0  0  0
    2.8783   -1.2491   -1.8775 C   0  0  0  0  0  0  0  0  0  0  0  0
    3.3561   -2.2613   -2.3736 O   0  0  0  0  0  0  0  0  0  0  0  0
    1.7704   -1.2603   -0.8673 C   0  0  0  0  0  0  0  0  0  0  0  0
    0.5295   -0.5360   -1.3198 C   0  0  0  0  0  0  0  0  0  0  0  0
    0.3182   -0.2591   -2.4985 O   0  0  0  0  0  0  0  0  0  0  0  0
   -0.4946   -0.1596   -0.2975 C   0  0  0  0  0  0  0  0  0  0  0  0
   -1.4737    0.7790   -0.6625 C   0  0  0  0  0  0  0  0  0  0  0  0
   -2.4553    1.1703    0.2482 C   0  0  0  0  0  0  0  0  0  0  0  0
   -3.4434    2.0844   -0.0080 O   0  0  0  0  0  0  0  0  0  0  0  0
   -3.4243    2.7360   -1.2713 C   0  0  0  0  0  0  0  0  0  0  0  0
   -2.4563    0.5928    1.5289 C   0  0  0  0  0  0  0  0  0  0  0  0
   -3.3886    1.0039    2.4565 O   0  0  0  0  0  0  0  0  0  0  0  0
   -4.5618    0.1985    2.3556 C   0  0  0  0  0  0  0  0  0  0  0  0
   -1.4761   -0.3392    1.9134 C   0  0  0  0  0  0  0  0  0  0  0  0
   -1.5735   -0.8262    3.1913 O   0  0  0  0  0  0  0  0  0  0  0  0
   -0.4972   -1.6121    3.6848 C   0  0  0  0  0  0  0  0  0  0  0  0
   -0.5019   -0.7208    0.9876 C   0  0  0  0  0  0  0  0  0  0  0  0
    5.8330   -0.9791   -1.9590 H   0  0  0  0  0  0  0  0  0  0  0  0
    6.5246    0.1758   -3.1196 H   0  0  0  0  0  0  0  0  0  0  0  0
    5.8235    0.7394   -1.5839 H   0  0  0  0  0  0  0  0  0  0  0  0
    4.2696    1.1658   -3.4950 H   0  0  0  0  0  0  0  0  0  0  0  0
    4.2430   -0.5508   -3.8907 H   0  0  0  0  0  0  0  0  0  0  0  0
    1.5050   -2.3046   -0.6685 H   0  0  0  0  0  0  0  0  0  0  0  0
    2.1655   -0.8173    0.0531 H   0  0  0  0  0  0  0  0  0  0  0  0
   -1.4444    1.1928   -1.6667 H   0  0  0  0  0  0  0  0  0  0  0  0
   -2.4961    3.2994   -1.4126 H   0  0  0  0  0  0  0  0  0  0  0  0
   -4.2530    3.4503   -1.2911 H   0  0  0  0  0  0  0  0  0  0  0  0
   -3.5825    2.0209   -2.0853 H   0  0  0  0  0  0  0  0  0  0  0  0
   -5.2657    0.5358    3.1225 H   0  0  0  0  0  0  0  0  0  0  0  0
   -4.3392   -0.8576    2.5437 H   0  0  0  0  0  0  0  0  0  0  0  0
   -5.0448    0.3157    1.3795 H   0  0  0  0  0  0  0  0  0  0  0  0
   -0.6914   -1.8206    4.7414 H   0  0  0  0  0  0  0  0  0  0  0  0
   -0.4419   -2.5719    3.1610 H   0  0  0  0  0  0  0  0  0  0  0  0
    0.4530   -1.0709    3.6210 H   0  0  0  0  0  0  0  0  0  0  0  0
    0.2386   -1.4639    1.2568 H   0  0  0  0  0  0  0  0  0  0  0  0
  1  2  1  0
  2  3  1  0
  3  4  1  0
  4  5  2  0
  4  6  1  0
  6  7  1  0
  7  8  2  0
  7  9  1  0
  9 10  2  0
 10 11  1  0
 11 12  1  0
 12 13  1  0
 11 14  2  0
 14 15  1  0
 15 16  1  0
 14 17  1  0
 17 18  1  0
 18 19  1  0
 17 20  2  0
 20  9  1  0
  1 21  1  0
  1 22  1  0
  1 23  1  0
  2 24  1  0
  2 25  1  0
  6 26  1  0
  6 27  1  0
 10 28  1  0
 13 29  1  0
 13 30  1  0
 13 31  1  0
 16 32  1  0
 16 33  1  0
 16 34  1  0
 19 35  1  0
 19 36  1  0
 19 37  1  0
 20 38  1  0
M  END
$$$$
