
     RDKit          3D

 42 46  0  0  0  0  0  0  0  0999 V2000
    5.0795    2.0301    0.4618 C   0  0  0  0  0  0  0  0  0  0  0  0
    5.0207    1.6152   -0.8672 C   0  0  0  0  0  0  0  0  0  0  0  0
    3.9123    0.9000   -1.3444 C   0  0  0  0  0  0  0  0  0  0  0  0
    3.8445    0.4796   -2.6769 C   0  0  0  0  0  0  0  0  0  0  0  0
    2.7380   -0.2317   -3.1416 C   0  0  0  0  0  0  0  0  0  0  0  0
    1.6719   -0.5399   -2.2863 C   0  0  0  0  0  0  0  0  0  0  0  0
    0.5679   -1.2548   -2.7573 C   0  0  0  0  0  0  0  0  0  0  0  0
   -0.4903   -1.5628   -1.9065 C   0  0  0  0  0  0  0  0  0  0  0  0
   -0.4784   -1.1600   -0.5594 C   0  0  0  0  0  0  0  0  0  0  0  0
   -1.6671   -1.5499    0.3071 C   0  0  0  0  0  0  0  0  0  0  0  0
   -2.4647   -0.4091    0.7807 N   0  0  0  0  0  0  0  0  0  0  0  0
   -3.3955   -0.8394    1.8461 C   0  0  0  0  0  0  0  0  0  0  0  0
   -4.5826    0.1227    1.9915 C   0  0  0  0  0  0  0  0  0  0  0  0
   -5.4074    0.1530    0.8185 O   0  0  0  0  0  0  0  0  0  0  0  0
   -4.6753   -0.0933   -0.3902 C   0  0  0  0  0  0  0  0  0  0  0  0
   -3.1915    0.2963   -0.2958 C   0  0  0  0  0  0  0  0  0  0  0  0
    0.6368   -0.4321   -0.0571 C   0  0  0  0  0  0  0  0  0  0  0  0
    0.7407    0.0076    1.2790 C   0  0  0  0  0  0  0  0  0  0  0  0
    1.8519    0.7191    1.7395 C   0  0  0  0  0  0  0  0  0  0  0  0
    2.9098    1.0207    0.8797 C   0  0  0  0  0  0  0  0  0  0  0  0
    4.0304    1.7348    1.3299 C   0  0  0  0  0  0  0  0  0  0  0  0
    2.8435    0.5974   -0.4663 C   0  0  0  0  0  0  0  0  0  0  0  0
    1.7123   -0.1261   -0.9332 C   0  0  0  0  0  0  0  0  0  0  0  0
    5.9427    2.5841    0.8209 H   0  0  0  0  0  0  0  0  0  0  0  0
    5.8490    1.8553   -1.5300 H   0  0  0  0  0  0  0  0  0  0  0  0
    4.6543    0.7019   -3.3680 H   0  0  0  0  0  0  0  0  0  0  0  0
    2.7175   -0.5441   -4.1834 H   0  0  0  0  0  0  0  0  0  0  0  0
    0.5215   -1.5812   -3.7938 H   0  0  0  0  0  0  0  0  0  0  0  0
   -1.3339   -2.1221   -2.3055 H   0  0  0  0  0  0  0  0  0  0  0  0
   -2.3099   -2.2613   -0.2292 H   0  0  0  0  0  0  0  0  0  0  0  0
   -1.2642   -2.1094    1.1627 H   0  0  0  0  0  0  0  0  0  0  0  0
   -3.7945   -1.8382    1.6242 H   0  0  0  0  0  0  0  0  0  0  0  0
   -2.8494   -0.8974    2.7941 H   0  0  0  0  0  0  0  0  0  0  0  0
   -5.2169   -0.1857    2.8287 H   0  0  0  0  0  0  0  0  0  0  0  0
   -4.2404    1.1430    2.2012 H   0  0  0  0  0  0  0  0  0  0  0  0
   -4.7801   -1.1556   -0.6401 H   0  0  0  0  0  0  0  0  0  0  0  0
   -5.1628    0.4766   -1.1878 H   0  0  0  0  0  0  0  0  0  0  0  0
   -3.1345    1.3676   -0.0640 H   0  0  0  0  0  0  0  0  0  0  0  0
   -2.7163    0.1749   -1.2742 H   0  0  0  0  0  0  0  0  0  0  0  0
   -0.0579   -0.1903    1.9900 H   0  0  0  0  0  0  0  0  0  0  0  0
    1.8754    1.0372    2.7792 H   0  0  0  0  0  0  0  0  0  0  0  0
    4.0929    2.0671    2.3637 H   0  0  0  0  0  0  0  0  0  0  0  0
  1  2  2  0
  2  3  1  0
  3  4  2  0
  4  5  1  0
  5  6  2  0
  6  7  1  0
  7  8  2  0
  8  9  1  0
  9 10  1  0
 10 11  1  0
 11 12  1  0
 12 13  1  0
 13 14  1  0
 14 15  1  0
 15 16  1  0
  9 17  2  0
 17 18  1  0
 18 19  2  0
 19 20  1  0
 20 21  2  0
 20 22  1  0
 22 23  2  0
 21  1  1  0
 22  3  1  0
 23  6  1  0
 16 11  1  0
 23 17  1  0
  1 24  1  0
  2 25  1  0
  4 26  1  0
  5 27  1  0
  7 28  1  0
  8 29  1  0
 10 30  1  0
 10 31  1  0
 12 32  1  0
 12 33  1  0
 13 34  1  0
 13 35  1  0
 15 36  1  0
 15 37  1  0
 16 38  1  0
 16 39  1  0
 18 40  1  0
 19 41  1  0
 21 42  1  0
M  END
$$$$
