
     RDKit          3D

 59 64  0  0  0  0  0  0  0  0999 V2000
   -3.3928   -1.5115    2.5962 C   0  0  0  0  0  0  0  0  0  0  0  0
   -4.3133   -0.3989    2.2455 C   0  0  0  0  0  0  0  0  0  0  0  0
   -5.3124    0.0225    2.9919 N   0  0  0  0  0  0  0  0  0  0  0  0
   -5.8961    1.0496    2.2932 C   0  0  0  0  0  0  0  0  0  0  0  0
   -7.0000    1.8438    2.6338 C   0  0  0  0  0  0  0  0  0  0  0  0
   -7.4115    2.8460    1.7456 C   0  0  0  0  0  0  0  0  0  0  0  0
   -6.7370    3.0538    0.5415 C   0  0  0  0  0  0  0  0  0  0  0  0
   -5.6333    2.2707    0.1841 C   0  0  0  0  0  0  0  0  0  0  0  0
   -5.2388    1.2729    1.0876 C   0  0  0  0  0  0  0  0  0  0  0  0
   -4.2278    0.3377    1.0829 N   0  0  0  0  0  0  0  0  0  0  0  0
   -3.2420    0.1690    0.0306 C   0  0  0  0  0  0  0  0  0  0  0  0
   -2.0727    1.1360    0.1838 C   0  0  0  0  0  0  0  0  0  0  0  0
   -0.9850    0.8797   -0.7947 C   0  0  0  0  0  0  0  0  0  0  0  0
   -1.1307    0.0249   -1.8593 N   0  0  0  0  0  0  0  0  0  0  0  0
    0.0531    0.0701   -2.4358 C   0  0  0  0  0  0  0  0  0  0  0  0
    0.5801   -0.5826   -3.6154 C   0  0  0  0  0  0  0  0  0  0  0  0
   -0.1698   -1.4775   -4.3825 C   0  0  0  0  0  0  0  0  0  0  0  0
    0.4059   -2.0634   -5.5117 C   0  0  0  0  0  0  0  0  0  0  0  0
    1.7214   -1.7548   -5.8703 C   0  0  0  0  0  0  0  0  0  0  0  0
    2.4691   -0.8585   -5.0999 C   0  0  0  0  0  0  0  0  0  0  0  0
    1.9105   -0.2633   -3.9667 C   0  0  0  0  0  0  0  0  0  0  0  0
    2.7014    0.6390   -3.2084 N   0  0  0  0  0  0  0  0  0  0  0  0
    2.2013    1.1813   -2.1278 C   0  0  0  0  0  0  0  0  0  0  0  0
    3.2533    2.2809   -1.2441 S   0  0  0  0  0  0  0  0  0  0  0  0
    3.0553    1.7390    0.4719 C   0  0  0  0  0  0  0  0  0  0  0  0
    3.2184    0.2393    0.6776 C   0  0  0  0  0  0  0  0  0  0  0  0
    2.8843   -0.6067   -0.1465 O   0  0  0  0  0  0  0  0  0  0  0  0
    3.7164   -0.0953    1.9196 N   0  0  0  0  0  0  0  0  0  0  0  0
    4.0356   -1.4640    2.2651 C   0  0  0  0  0  0  0  0  0  0  0  0
    5.5021   -1.6575    2.1092 C   0  0  0  0  0  0  0  0  0  0  0  0
    6.2896   -2.1985    1.1073 C   0  0  0  0  0  0  0  0  0  0  0  0
    7.6312   -2.0936    1.5556 C   0  0  0  0  0  0  0  0  0  0  0  0
    7.5794   -1.4914    2.7957 C   0  0  0  0  0  0  0  0  0  0  0  0
    6.2912   -1.2171    3.1384 O   0  0  0  0  0  0  0  0  0  0  0  0
    0.8766    0.9177   -1.7421 N   0  0  0  0  0  0  0  0  0  0  0  0
    0.2138    1.4719   -0.6945 N   0  0  0  0  0  0  0  0  0  0  0  0
   -3.6421   -1.9173    3.5823 H   0  0  0  0  0  0  0  0  0  0  0  0
   -3.4772   -2.3248    1.8671 H   0  0  0  0  0  0  0  0  0  0  0  0
   -2.3520   -1.1630    2.6223 H   0  0  0  0  0  0  0  0  0  0  0  0
   -7.5169    1.6752    3.5714 H   0  0  0  0  0  0  0  0  0  0  0  0
   -8.2657    3.4680    1.9992 H   0  0  0  0  0  0  0  0  0  0  0  0
   -7.0764    3.8398   -0.1317 H   0  0  0  0  0  0  0  0  0  0  0  0
   -5.1155    2.4372   -0.7542 H   0  0  0  0  0  0  0  0  0  0  0  0
   -2.9012   -0.8722    0.0496 H   0  0  0  0  0  0  0  0  0  0  0  0
   -3.7538    0.3124   -0.9290 H   0  0  0  0  0  0  0  0  0  0  0  0
   -2.4233    2.1667    0.0614 H   0  0  0  0  0  0  0  0  0  0  0  0
   -1.6613    1.0641    1.1975 H   0  0  0  0  0  0  0  0  0  0  0  0
   -1.1940   -1.7192   -4.1047 H   0  0  0  0  0  0  0  0  0  0  0  0
   -0.1720   -2.7598   -6.1154 H   0  0  0  0  0  0  0  0  0  0  0  0
    2.1677   -2.2129   -6.7518 H   0  0  0  0  0  0  0  0  0  0  0  0
    3.4935   -0.6231   -5.3818 H   0  0  0  0  0  0  0  0  0  0  0  0
    3.8236    2.2627    1.0508 H   0  0  0  0  0  0  0  0  0  0  0  0
    2.0905    2.0509    0.8772 H   0  0  0  0  0  0  0  0  0  0  0  0
    4.1525    0.6139    2.4961 H   0  0  0  0  0  0  0  0  0  0  0  0
    3.4732   -2.1667    1.6374 H   0  0  0  0  0  0  0  0  0  0  0  0
    3.7354   -1.6186    3.3124 H   0  0  0  0  0  0  0  0  0  0  0  0
    5.9312   -2.6111    0.1696 H   0  0  0  0  0  0  0  0  0  0  0  0
    8.5272   -2.4121    1.0331 H   0  0  0  0  0  0  0  0  0  0  0  0
    8.3297   -1.2010    3.5212 H   0  0  0  0  0  0  0  0  0  0  0  0
  1  2  1  0
  2  3  2  0
  3  4  1  0
  4  5  2  0
  5  6  1  0
  6  7  2  0
  7  8  1  0
  8  9  2  0
  9 10  1  0
 10 11  1  0
 11 12  1  0
 12 13  1  0
 13 14  1  0
 14 15  2  0
 15 16  1  0
 16 17  2  0
 17 18  1  0
 18 19  2  0
 19 20  1  0
 20 21  2  0
 21 22  1  0
 22 23  2  0
 23 24  1  0
 24 25  1  0
 25 26  1  0
 26 27  2  0
 26 28  1  0
 28 29  1  0
 29 30  1  0
 30 31  2  0
 31 32  1  0
 32 33  2  0
 33 34  1  0
 23 35  1  0
 35 36  1  0
 10  2  1  0
 36 13  2  0
  9  4  1  0
 35 15  1  0
 21 16  1  0
 34 30  1  0
  1 37  1  0
  1 38  1  0
  1 39  1  0
  5 40  1  0
  6 41  1  0
  7 42  1  0
  8 43  1  0
 11 44  1  0
 11 45  1  0
 12 46  1  0
 12 47  1  0
 17 48  1  0
 18 49  1  0
 19 50  1  0
 20 51  1  0
 25 52  1  0
 25 53  1  0
 28 54  1  0
 29 55  1  0
 29 56  1  0
 31 57  1  0
 32 58  1  0
 33 59  1  0
M  END
$$$$
