
     RDKit          3D

 67 72  0  0  0  0  0  0  0  0999 V2000
    2.6130   -3.3529    0.8798 O   0  0  0  0  0  0  0  0  0  0  0  0
    2.1920   -2.2693    1.2941 C   0  0  0  0  0  0  0  0  0  0  0  0
    3.1048   -1.3658    2.1341 C   0  0  0  0  0  0  0  0  0  0  0  0
    3.9579   -0.4973    1.1921 C   0  0  0  0  0  0  0  0  0  0  0  0
    5.0370    0.2780    1.9119 C   0  0  0  0  0  0  0  0  0  0  0  0
    6.2337   -0.3489    2.2854 C   0  0  0  0  0  0  0  0  0  0  0  0
    7.2220    0.3646    2.9646 C   0  0  0  0  0  0  0  0  0  0  0  0
    7.0233    1.7081    3.2778 C   0  0  0  0  0  0  0  0  0  0  0  0
    5.8357    2.3397    2.9133 C   0  0  0  0  0  0  0  0  0  0  0  0
    4.8457    1.6288    2.2343 C   0  0  0  0  0  0  0  0  0  0  0  0
    2.3338   -0.5748    3.0904 N   0  0  0  0  0  0  0  0  0  0  0  0
    1.2231    0.0706    2.5558 C   0  0  0  0  0  0  0  0  0  0  0  0
    0.9250    1.2351    3.1496 N   0  0  0  0  0  0  0  0  0  0  0  0
   -0.1784    1.8414    2.7180 C   0  0  0  0  0  0  0  0  0  0  0  0
   -0.9875    1.3970    1.7540 N   0  0  0  0  0  0  0  0  0  0  0  0
   -0.6669    0.2270    1.1539 C   0  0  0  0  0  0  0  0  0  0  0  0
   -1.5277   -0.1994    0.1165 N   0  0  0  0  0  0  0  0  0  0  0  0
   -1.5698    0.8216   -0.9703 C   0  0  0  0  0  0  0  0  0  0  0  0
   -2.5028    0.3555   -2.1148 C   0  0  0  0  0  0  0  0  0  0  0  0
   -3.8726    0.0659   -1.6091 N   0  0  0  0  0  0  0  0  0  0  0  0
   -4.7802    1.1284   -1.6330 C   0  0  0  0  0  0  0  0  0  0  0  0
   -5.5507    1.5194   -0.5279 C   0  0  0  0  0  0  0  0  0  0  0  0
   -6.4543    2.5888   -0.5969 C   0  0  0  0  0  0  0  0  0  0  0  0
   -6.6248    3.2856   -1.7871 C   0  0  0  0  0  0  0  0  0  0  0  0
   -5.8986    2.9055   -2.9080 C   0  0  0  0  0  0  0  0  0  0  0  0
   -4.9956    1.8390   -2.8281 C   0  0  0  0  0  0  0  0  0  0  0  0
   -3.8505   -0.8864   -0.4748 C   0  0  0  0  0  0  0  0  0  0  0  0
   -2.8978   -0.4267    0.6553 C   0  0  0  0  0  0  0  0  0  0  0  0
    0.4718   -0.5085    1.5224 C   0  0  0  0  0  0  0  0  0  0  0  0
    0.9332   -1.7551    0.9535 N   0  0  0  0  0  0  0  0  0  0  0  0
    0.1066   -2.5663    0.0697 C   0  0  0  0  0  0  0  0  0  0  0  0
    0.2877   -2.3303   -1.4195 C   0  0  0  0  0  0  0  0  0  0  0  0
    1.2024   -1.4091   -1.9529 C   0  0  0  0  0  0  0  0  0  0  0  0
    1.3305   -1.2456   -3.3351 C   0  0  0  0  0  0  0  0  0  0  0  0
    0.5482   -2.0092   -4.1983 C   0  0  0  0  0  0  0  0  0  0  0  0
    0.7215   -1.7866   -6.0675 Br  0  0  0  0  0  0  0  0  0  0  0  0
   -0.3623   -2.9323   -3.6930 C   0  0  0  0  0  0  0  0  0  0  0  0
   -0.4899   -3.0915   -2.3107 C   0  0  0  0  0  0  0  0  0  0  0  0
    3.7526   -2.0304    2.7195 H   0  0  0  0  0  0  0  0  0  0  0  0
    3.3299    0.1999    0.6214 H   0  0  0  0  0  0  0  0  0  0  0  0
    4.4360   -1.1317    0.4331 H   0  0  0  0  0  0  0  0  0  0  0  0
    6.4065   -1.3971    2.0486 H   0  0  0  0  0  0  0  0  0  0  0  0
    8.1483   -0.1280    3.2491 H   0  0  0  0  0  0  0  0  0  0  0  0
    7.7939    2.2631    3.8061 H   0  0  0  0  0  0  0  0  0  0  0  0
    5.6802    3.3872    3.1586 H   0  0  0  0  0  0  0  0  0  0  0  0
    3.9214    2.1360    1.9632 H   0  0  0  0  0  0  0  0  0  0  0  0
    2.8600    0.0656    3.6791 H   0  0  0  0  0  0  0  0  0  0  0  0
   -0.4450    2.7797    3.1919 H   0  0  0  0  0  0  0  0  0  0  0  0
   -1.9319    1.7875   -0.5925 H   0  0  0  0  0  0  0  0  0  0  0  0
   -0.5629    0.9756   -1.3763 H   0  0  0  0  0  0  0  0  0  0  0  0
   -2.1087   -0.5682   -2.5516 H   0  0  0  0  0  0  0  0  0  0  0  0
   -2.4902    1.1009   -2.9164 H   0  0  0  0  0  0  0  0  0  0  0  0
   -5.4606    1.0148    0.4279 H   0  0  0  0  0  0  0  0  0  0  0  0
   -7.0247    2.8714    0.2839 H   0  0  0  0  0  0  0  0  0  0  0  0
   -7.3275    4.1118   -1.8432 H   0  0  0  0  0  0  0  0  0  0  0  0
   -6.0376    3.4260   -3.8517 H   0  0  0  0  0  0  0  0  0  0  0  0
   -4.4779    1.5428   -3.7374 H   0  0  0  0  0  0  0  0  0  0  0  0
   -4.8565   -1.0817   -0.0861 H   0  0  0  0  0  0  0  0  0  0  0  0
   -3.4908   -1.8493   -0.8616 H   0  0  0  0  0  0  0  0  0  0  0  0
   -3.2944    0.4841    1.1207 H   0  0  0  0  0  0  0  0  0  0  0  0
   -2.8670   -1.2094    1.4240 H   0  0  0  0  0  0  0  0  0  0  0  0
   -0.9439   -2.4984    0.3617 H   0  0  0  0  0  0  0  0  0  0  0  0
    0.3621   -3.6204    0.2452 H   0  0  0  0  0  0  0  0  0  0  0  0
    1.8246   -0.8003   -1.3029 H   0  0  0  0  0  0  0  0  0  0  0  0
    2.0458   -0.5254   -3.7246 H   0  0  0  0  0  0  0  0  0  0  0  0
   -0.9760   -3.5316   -4.3604 H   0  0  0  0  0  0  0  0  0  0  0  0
   -1.2043   -3.8185   -1.9287 H   0  0  0  0  0  0  0  0  0  0  0  0
  1  2  2  0
  2  3  1  0
  3  4  1  0
  4  5  1  0
  5  6  2  0
  6  7  1  0
  7  8  2  0
  8  9  1  0
  9 10  2  0
  3 11  1  0
 11 12  1  0
 12 13  2  0
 13 14  1  0
 14 15  2  0
 15 16  1  0
 16 17  1  0
 17 18  1  0
 18 19  1  0
 19 20  1  0
 20 21  1  0
 21 22  2  0
 22 23  1  0
 23 24  2  0
 24 25  1  0
 25 26  2  0
 20 27  1  0
 27 28  1  0
 16 29  2  0
 29 30  1  0
 30 31  1  0
 31 32  1  0
 32 33  2  0
 33 34  1  0
 34 35  2  0
 35 36  1  0
 35 37  1  0
 37 38  2  0
 30  2  1  0
 38 32  1  0
 10  5  1  0
 29 12  1  0
 28 17  1  0
 26 21  1  0
  3 39  1  0
  4 40  1  0
  4 41  1  0
  6 42  1  0
  7 43  1  0
  8 44  1  0
  9 45  1  0
 10 46  1  0
 11 47  1  0
 14 48  1  0
 18 49  1  0
 18 50  1  0
 19 51  1  0
 19 52  1  0
 22 53  1  0
 23 54  1  0
 24 55  1  0
 25 56  1  0
 26 57  1  0
 27 58  1  0
 27 59  1  0
 28 60  1  0
 28 61  1  0
 31 62  1  0
 31 63  1  0
 33 64  1  0
 34 65  1  0
 37 66  1  0
 38 67  1  0
M  END
$$$$
