
     RDKit          3D

 54 57  0  0  0  0  0  0  0  0999 V2000
   -4.3179   -0.9499   -4.4898 C   0  0  0  0  0  0  0  0  0  0  0  0
   -3.7371   -1.5692   -3.3491 O   0  0  0  0  0  0  0  0  0  0  0  0
   -3.2176   -0.7409   -2.3923 C   0  0  0  0  0  0  0  0  0  0  0  0
   -3.1826    0.6555   -2.4457 C   0  0  0  0  0  0  0  0  0  0  0  0
   -2.6203    1.3845   -1.3927 C   0  0  0  0  0  0  0  0  0  0  0  0
   -2.0735    0.7095   -0.2965 C   0  0  0  0  0  0  0  0  0  0  0  0
   -1.5299    1.4782    0.8428 C   0  0  0  0  0  0  0  0  0  0  0  0
   -2.2474    1.5088    1.9221 N   0  0  0  0  0  0  0  0  0  0  0  0
   -1.7962    2.2536    3.0139 C   0  0  0  0  0  0  0  0  0  0  0  0
   -2.5701    2.2831    4.1766 C   0  0  0  0  0  0  0  0  0  0  0  0
   -2.1601    3.0257    5.2874 C   0  0  0  0  0  0  0  0  0  0  0  0
   -0.9683    3.7481    5.2429 C   0  0  0  0  0  0  0  0  0  0  0  0
   -0.1873    3.7252    4.0880 C   0  0  0  0  0  0  0  0  0  0  0  0
   -0.6095    2.9772    2.9817 C   0  0  0  0  0  0  0  0  0  0  0  0
    0.1918    2.9192    1.7494 C   0  0  0  0  0  0  0  0  0  0  0  0
    1.2561    3.5338    1.6911 O   0  0  0  0  0  0  0  0  0  0  0  0
   -0.3134    2.1411    0.7053 N   0  0  0  0  0  0  0  0  0  0  0  0
    0.5645    2.0145   -0.4707 C   0  0  0  0  0  0  0  0  0  0  0  0
    1.7589    1.0831   -0.2170 C   0  0  0  0  0  0  0  0  0  0  0  0
    1.3097   -0.2769   -0.2582 O   0  0  0  0  0  0  0  0  0  0  0  0
    2.3172   -1.2047   -0.3505 C   0  0  0  0  0  0  0  0  0  0  0  0
    3.5184   -1.0970    0.3546 C   0  0  0  0  0  0  0  0  0  0  0  0
    4.4944   -2.0913    0.2463 C   0  0  0  0  0  0  0  0  0  0  0  0
    4.2801   -3.2092   -0.5628 C   0  0  0  0  0  0  0  0  0  0  0  0
    5.3091   -4.2972   -0.6481 C   0  0  0  0  0  0  0  0  0  0  0  0
    3.0610   -3.3317   -1.2403 C   0  0  0  0  0  0  0  0  0  0  0  0
    2.0776   -2.3325   -1.1500 C   0  0  0  0  0  0  0  0  0  0  0  0
    0.7732   -2.5156   -1.8722 C   0  0  0  0  0  0  0  0  0  0  0  0
   -2.1228   -0.6813   -0.2230 C   0  0  0  0  0  0  0  0  0  0  0  0
   -2.6924   -1.4007   -1.2754 C   0  0  0  0  0  0  0  0  0  0  0  0
   -3.5685   -0.3835   -5.0525 H   0  0  0  0  0  0  0  0  0  0  0  0
   -4.6970   -1.7411   -5.1436 H   0  0  0  0  0  0  0  0  0  0  0  0
   -5.1653   -0.3162   -4.2090 H   0  0  0  0  0  0  0  0  0  0  0  0
   -3.5938    1.2060   -3.2851 H   0  0  0  0  0  0  0  0  0  0  0  0
   -2.6220    2.4706   -1.4233 H   0  0  0  0  0  0  0  0  0  0  0  0
   -3.5007    1.7222    4.2115 H   0  0  0  0  0  0  0  0  0  0  0  0
   -2.7733    3.0387    6.1853 H   0  0  0  0  0  0  0  0  0  0  0  0
   -0.6482    4.3263    6.1059 H   0  0  0  0  0  0  0  0  0  0  0  0
    0.7443    4.2847    4.0501 H   0  0  0  0  0  0  0  0  0  0  0  0
    0.0101    1.6620   -1.3423 H   0  0  0  0  0  0  0  0  0  0  0  0
    0.9427    3.0161   -0.7096 H   0  0  0  0  0  0  0  0  0  0  0  0
    2.2139    1.2994    0.7544 H   0  0  0  0  0  0  0  0  0  0  0  0
    2.4977    1.2485   -1.0114 H   0  0  0  0  0  0  0  0  0  0  0  0
    3.7113   -0.2604    1.0171 H   0  0  0  0  0  0  0  0  0  0  0  0
    5.4176   -1.9915    0.8116 H   0  0  0  0  0  0  0  0  0  0  0  0
    6.3168   -3.8957   -0.4972 H   0  0  0  0  0  0  0  0  0  0  0  0
    5.2943   -4.7697   -1.6354 H   0  0  0  0  0  0  0  0  0  0  0  0
    5.1138   -5.0585    0.1135 H   0  0  0  0  0  0  0  0  0  0  0  0
    2.8724   -4.2173   -1.8448 H   0  0  0  0  0  0  0  0  0  0  0  0
    0.8718   -3.2322   -2.6932 H   0  0  0  0  0  0  0  0  0  0  0  0
    0.4320   -1.5738   -2.3112 H   0  0  0  0  0  0  0  0  0  0  0  0
    0.0170   -2.8893   -1.1766 H   0  0  0  0  0  0  0  0  0  0  0  0
   -1.7230   -1.2018    0.6430 H   0  0  0  0  0  0  0  0  0  0  0  0
   -2.7294   -2.4864   -1.2248 H   0  0  0  0  0  0  0  0  0  0  0  0
  1  2  1  0
  2  3  1  0
  3  4  2  0
  4  5  1  0
  5  6  2  0
  6  7  1  0
  7  8  2  0
  8  9  1  0
  9 10  2  0
 10 11  1  0
 11 12  2  0
 12 13  1  0
 13 14  2  0
 14 15  1  0
 15 16  2  0
 15 17  1  0
 17 18  1  0
 18 19  1  0
 19 20  1  0
 20 21  1  0
 21 22  2  0
 22 23  1  0
 23 24  2  0
 24 25  1  0
 24 26  1  0
 26 27  2  0
 27 28  1  0
  6 29  1  0
 29 30  2  0
 30  3  1  0
 17  7  1  0
 27 21  1  0
 14  9  1  0
  1 31  1  0
  1 32  1  0
  1 33  1  0
  4 34  1  0
  5 35  1  0
 10 36  1  0
 11 37  1  0
 12 38  1  0
 13 39  1  0
 18 40  1  0
 18 41  1  0
 19 42  1  0
 19 43  1  0
 22 44  1  0
 23 45  1  0
 25 46  1  0
 25 47  1  0
 25 48  1  0
 26 49  1  0
 28 50  1  0
 28 51  1  0
 28 52  1  0
 29 53  1  0
 30 54  1  0
M  END
$$$$
