
     RDKit          3D

 39 40  0  0  0  0  0  0  0  0999 V2000
   -1.2243   -3.0982    1.3001 C   0  0  0  0  0  0  0  0  0  0  0  0
   -1.5107   -1.6478    0.9265 C   0  0  0  0  0  0  0  0  0  0  0  0
   -1.7240   -1.5970   -0.4946 O   0  0  0  0  0  0  0  0  0  0  0  0
   -2.7199   -0.7103   -0.8171 C   0  0  0  0  0  0  0  0  0  0  0  0
   -2.4108    0.6484   -0.9212 C   0  0  0  0  0  0  0  0  0  0  0  0
   -3.4049    1.5614   -1.2793 C   0  0  0  0  0  0  0  0  0  0  0  0
   -4.7040    1.1028   -1.5441 C   0  0  0  0  0  0  0  0  0  0  0  0
   -5.7505    2.0624   -1.9191 N   0  0  0  0  0  4  0  0  0  0  0  0
   -5.4246    3.2513   -2.0397 O   0  0  0  0  0  0  0  0  0  0  0  0
   -6.8963    1.6244   -2.0911 O   0  0  0  0  0  1  0  0  0  0  0  0
   -5.0140   -0.2611   -1.4614 C   0  0  0  0  0  0  0  0  0  0  0  0
   -4.0131   -1.1664   -1.1055 C   0  0  0  0  0  0  0  0  0  0  0  0
   -4.4078   -2.8435   -1.0245 Cl  0  0  0  0  0  0  0  0  0  0  0  0
   -0.3037   -0.7790    1.3186 C   0  0  0  0  0  0  0  0  0  0  0  0
   -0.3119   -0.1247    2.3563 O   0  0  0  0  0  0  0  0  0  0  0  0
    0.7337   -0.8649    0.4031 N   0  0  0  0  0  0  0  0  0  0  0  0
    1.9913   -0.2372    0.4580 C   0  0  0  0  0  0  0  0  0  0  0  0
    2.4192    0.5588    1.5209 C   0  0  0  0  0  0  0  0  0  0  0  0
    3.6890    1.1487    1.4995 C   0  0  0  0  0  0  0  0  0  0  0  0
    4.5459    0.9537    0.4116 C   0  0  0  0  0  0  0  0  0  0  0  0
    5.8833    1.6045    0.4392 C   0  0  0  0  0  0  0  0  0  0  0  0
    6.5270    1.7812   -0.7551 N   0  0  0  0  0  0  0  0  0  0  0  0
    6.3829    2.0068    1.4826 O   0  0  0  0  0  0  0  0  0  0  0  0
    4.1291    0.1424   -0.6484 C   0  0  0  0  0  0  0  0  0  0  0  0
    2.8575   -0.4446   -0.6236 C   0  0  0  0  0  0  0  0  0  0  0  0
   -1.0000   -3.1935    2.3669 H   0  0  0  0  0  0  0  0  0  0  0  0
   -2.0843   -3.7329    1.0650 H   0  0  0  0  0  0  0  0  0  0  0  0
   -0.3737   -3.4943    0.7334 H   0  0  0  0  0  0  0  0  0  0  0  0
   -2.3906   -1.2996    1.4859 H   0  0  0  0  0  0  0  0  0  0  0  0
   -1.4010    1.0060   -0.7317 H   0  0  0  0  0  0  0  0  0  0  0  0
   -3.1519    2.6181   -1.3503 H   0  0  0  0  0  0  0  0  0  0  0  0
   -6.0168   -0.6229   -1.6776 H   0  0  0  0  0  0  0  0  0  0  0  0
    0.5328   -1.4172   -0.4255 H   0  0  0  0  0  0  0  0  0  0  0  0
    1.7950    0.7396    2.3907 H   0  0  0  0  0  0  0  0  0  0  0  0
    4.0059    1.7621    2.3415 H   0  0  0  0  0  0  0  0  0  0  0  0
    7.3632    2.3512   -0.7141 H   0  0  0  0  0  0  0  0  0  0  0  0
    6.0364    1.7524   -1.6373 H   0  0  0  0  0  0  0  0  0  0  0  0
    4.7864   -0.0675   -1.4870 H   0  0  0  0  0  0  0  0  0  0  0  0
    2.5602   -1.0734   -1.4593 H   0  0  0  0  0  0  0  0  0  0  0  0
  1  2  1  0
  2  3  1  0
  3  4  1  0
  4  5  2  0
  5  6  1  0
  6  7  2  0
  7  8  1  0
  8  9  2  0
  8 10  1  0
  7 11  1  0
 11 12  2  0
 12 13  1  0
  2 14  1  0
 14 15  2  0
 14 16  1  0
 16 17  1  0
 17 18  2  0
 18 19  1  0
 19 20  2  0
 20 21  1  0
 21 22  1  0
 21 23  2  0
 20 24  1  0
 24 25  2  0
 12  4  1  0
 25 17  1  0
  1 26  1  0
  1 27  1  0
  1 28  1  0
  2 29  1  0
  5 30  1  0
  6 31  1  0
 11 32  1  0
 16 33  1  0
 18 34  1  0
 19 35  1  0
 22 36  1  0
 22 37  1  0
 24 38  1  0
 25 39  1  0
M  CHG  2   8   1  10  -1
M  END
$$$$
