
     RDKit          3D

 31 33  0  0  0  0  0  0  0  0999 V2000
    0.6962   -0.9054   -2.9098 O   0  0  0  0  0  0  0  0  0  0  0  0
    0.9860    0.2662   -2.1082 S   0  0  0  0  0  6  0  0  0  0  0  0
    1.7678    1.3543   -2.6650 O   0  0  0  0  0  0  0  0  0  0  0  0
    1.8404   -0.2948   -0.6436 C   0  0  0  0  0  0  0  0  0  0  0  0
    2.8210    0.5142   -0.0588 C   0  0  0  0  0  0  0  0  0  0  0  0
    3.5070    0.0606    1.0681 C   0  0  0  0  0  0  0  0  0  0  0  0
    3.2266   -1.2006    1.5956 C   0  0  0  0  0  0  0  0  0  0  0  0
    2.2689   -2.0173    0.9928 C   0  0  0  0  0  0  0  0  0  0  0  0
    1.5799   -1.5710   -0.1351 C   0  0  0  0  0  0  0  0  0  0  0  0
   -0.4539    0.9324   -1.5110 N   0  0  0  0  0  0  0  0  0  0  0  0
   -0.3467    2.2164   -0.7544 C   0  0  0  0  0  0  0  0  0  0  0  0
   -1.5193    2.2365    0.2411 C   0  0  0  0  0  0  0  0  0  0  0  0
   -2.0406    0.8386    0.1691 C   0  0  0  0  0  0  0  0  0  0  0  0
   -3.0519    0.2781    0.9352 C   0  0  0  0  0  0  0  0  0  0  0  0
   -3.4542   -1.0269    0.6482 C   0  0  0  0  0  0  0  0  0  0  0  0
   -2.8645   -1.7362   -0.4079 C   0  0  0  0  0  0  0  0  0  0  0  0
   -1.8510   -1.1559   -1.1767 C   0  0  0  0  0  0  0  0  0  0  0  0
   -1.4188    0.1168   -0.8476 C   0  0  0  0  0  0  0  0  0  0  0  0
    3.0604    1.4899   -0.4756 H   0  0  0  0  0  0  0  0  0  0  0  0
    4.2680    0.6852    1.5299 H   0  0  0  0  0  0  0  0  0  0  0  0
    3.7660   -1.5542    2.4713 H   0  0  0  0  0  0  0  0  0  0  0  0
    2.0661   -3.0064    1.3967 H   0  0  0  0  0  0  0  0  0  0  0  0
    0.8523   -2.2231   -0.6113 H   0  0  0  0  0  0  0  0  0  0  0  0
   -0.4022    3.0659   -1.4428 H   0  0  0  0  0  0  0  0  0  0  0  0
    0.5953    2.2834   -0.2025 H   0  0  0  0  0  0  0  0  0  0  0  0
   -2.2883    2.9464   -0.0807 H   0  0  0  0  0  0  0  0  0  0  0  0
   -1.1800    2.4967    1.2482 H   0  0  0  0  0  0  0  0  0  0  0  0
   -3.5345    0.8417    1.7275 H   0  0  0  0  0  0  0  0  0  0  0  0
   -4.2485   -1.4894    1.2299 H   0  0  0  0  0  0  0  0  0  0  0  0
   -3.2104   -2.7402   -0.6431 H   0  0  0  0  0  0  0  0  0  0  0  0
   -1.4368   -1.7021   -2.0170 H   0  0  0  0  0  0  0  0  0  0  0  0
  1  2  2  0
  2  3  2  0
  2  4  1  0
  4  5  2  0
  5  6  1  0
  6  7  2  0
  7  8  1  0
  8  9  2  0
  2 10  1  0
 10 11  1  0
 11 12  1  0
 12 13  1  0
 13 14  2  0
 14 15  1  0
 15 16  2  0
 16 17  1  0
 17 18  2  0
  9  4  1  0
 18 10  1  0
 18 13  1  0
  5 19  1  0
  6 20  1  0
  7 21  1  0
  8 22  1  0
  9 23  1  0
 11 24  1  0
 11 25  1  0
 12 26  1  0
 12 27  1  0
 14 28  1  0
 15 29  1  0
 16 30  1  0
 17 31  1  0
M  END
$$$$
