
     RDKit          3D

 61 66  0  0  0  0  0  0  0  0999 V2000
    9.3971   -2.6619    0.1982 F   0  0  0  0  0  0  0  0  0  0  0  0
    8.3746   -1.7976    0.1708 C   0  0  0  0  0  0  0  0  0  0  0  0
    7.3890   -1.9356   -0.7997 C   0  0  0  0  0  0  0  0  0  0  0  0
    6.3191   -1.0403   -0.8272 C   0  0  0  0  0  0  0  0  0  0  0  0
    6.2401   -0.0019    0.1145 C   0  0  0  0  0  0  0  0  0  0  0  0
    5.0669    0.9541    0.1029 C   0  0  0  0  0  0  0  0  0  0  0  0
    3.9441    0.4771    1.0418 C   0  0  0  0  0  0  0  0  0  0  0  0
    2.7901    1.3920    1.0590 N   0  0  0  0  0  0  0  0  0  0  0  0
    1.9411    1.2757   -0.1516 C   0  0  0  0  0  0  0  0  0  0  0  0
    0.7111    0.3469   -0.0163 C   0  0  0  0  0  0  0  0  0  0  0  0
   -0.1653    0.7400    1.1198 N   0  0  0  0  0  0  0  0  0  0  0  0
   -1.4805    0.9942    0.8229 C   0  0  0  0  0  0  0  0  0  0  0  0
   -2.1592    2.2005    0.8301 C   0  0  0  0  0  0  0  0  0  0  0  0
   -3.4363    1.9890    0.2657 C   0  0  0  0  0  0  0  0  0  0  0  0
   -3.5330    0.6492   -0.0536 C   0  0  0  0  0  0  0  0  0  0  0  0
   -4.5815   -0.1240   -0.6811 C   0  0  0  0  0  0  0  0  0  0  0  0
   -5.7480    0.5474   -1.3097 C   0  0  0  0  0  0  0  0  0  0  0  0
   -7.0326    0.0574   -1.0435 C   0  0  0  0  0  0  0  0  0  0  0  0
   -8.1445    0.6625   -1.6320 C   0  0  0  0  0  0  0  0  0  0  0  0
   -7.9754    1.7425   -2.4963 C   0  0  0  0  0  0  0  0  0  0  0  0
   -6.6949    2.2180   -2.7803 C   0  0  0  0  0  0  0  0  0  0  0  0
   -5.5775    1.6198   -2.1920 C   0  0  0  0  0  0  0  0  0  0  0  0
   -4.5252   -1.4225   -0.7065 N   0  0  0  0  0  0  0  0  0  0  0  0
   -3.4299   -2.0764   -0.1095 C   0  0  0  0  0  0  0  0  0  0  0  0
   -3.4443   -3.4744   -0.0874 C   0  0  0  0  0  0  0  0  0  0  0  0
   -2.4135   -4.1889    0.5235 C   0  0  0  0  0  0  0  0  0  0  0  0
   -1.3618   -3.5070    1.1315 C   0  0  0  0  0  0  0  0  0  0  0  0
   -1.3290   -2.1111    1.1175 C   0  0  0  0  0  0  0  0  0  0  0  0
   -2.3457   -1.3986    0.4752 C   0  0  0  0  0  0  0  0  0  0  0  0
   -2.3972    0.0171    0.4273 N   0  0  0  0  0  0  0  0  0  0  0  0
    0.5032    1.5860    2.1330 C   0  0  0  0  0  0  0  0  0  0  0  0
    1.9805    1.1654    2.2843 C   0  0  0  0  0  0  0  0  0  0  0  0
    7.2450    0.1197    1.0878 C   0  0  0  0  0  0  0  0  0  0  0  0
    8.3122   -0.7788    1.1145 C   0  0  0  0  0  0  0  0  0  0  0  0
    7.4604   -2.7394   -1.5258 H   0  0  0  0  0  0  0  0  0  0  0  0
    5.5488   -1.1566   -1.5867 H   0  0  0  0  0  0  0  0  0  0  0  0
    4.7102    1.0590   -0.9270 H   0  0  0  0  0  0  0  0  0  0  0  0
    5.4124    1.9521    0.4044 H   0  0  0  0  0  0  0  0  0  0  0  0
    4.3678    0.4204    2.0535 H   0  0  0  0  0  0  0  0  0  0  0  0
    3.6281   -0.5418    0.7823 H   0  0  0  0  0  0  0  0  0  0  0  0
    1.5789    2.2859   -0.3845 H   0  0  0  0  0  0  0  0  0  0  0  0
    2.5238    0.9673   -1.0260 H   0  0  0  0  0  0  0  0  0  0  0  0
    0.1594    0.3550   -0.9645 H   0  0  0  0  0  0  0  0  0  0  0  0
    1.0592   -0.6793    0.1453 H   0  0  0  0  0  0  0  0  0  0  0  0
   -1.7508    3.1537    1.1363 H   0  0  0  0  0  0  0  0  0  0  0  0
   -4.1907    2.7454    0.0954 H   0  0  0  0  0  0  0  0  0  0  0  0
   -7.1667   -0.7904   -0.3775 H   0  0  0  0  0  0  0  0  0  0  0  0
   -9.1411    0.2881   -1.4203 H   0  0  0  0  0  0  0  0  0  0  0  0
   -8.8432    2.2085   -2.9592 H   0  0  0  0  0  0  0  0  0  0  0  0
   -6.5684    3.0465   -3.4692 H   0  0  0  0  0  0  0  0  0  0  0  0
   -4.5830    1.9827   -2.4427 H   0  0  0  0  0  0  0  0  0  0  0  0
   -4.2758   -4.0061   -0.5446 H   0  0  0  0  0  0  0  0  0  0  0  0
   -2.4434   -5.2757    0.5402 H   0  0  0  0  0  0  0  0  0  0  0  0
   -0.5732   -4.0626    1.6324 H   0  0  0  0  0  0  0  0  0  0  0  0
   -0.5241   -1.6100    1.6442 H   0  0  0  0  0  0  0  0  0  0  0  0
   -0.0029    1.4591    3.0981 H   0  0  0  0  0  0  0  0  0  0  0  0
    0.4523    2.6490    1.8623 H   0  0  0  0  0  0  0  0  0  0  0  0
    1.9989    0.1011    2.5658 H   0  0  0  0  0  0  0  0  0  0  0  0
    2.4335    1.7294    3.1088 H   0  0  0  0  0  0  0  0  0  0  0  0
    7.1986    0.9142    1.8304 H   0  0  0  0  0  0  0  0  0  0  0  0
    9.0926   -0.6910    1.8641 H   0  0  0  0  0  0  0  0  0  0  0  0
  1  2  1  0
  2  3  2  0
  3  4  1  0
  4  5  2  0
  5  6  1  0
  6  7  1  0
  7  8  1  0
  8  9  1  0
  9 10  1  0
 10 11  1  0
 11 12  1  0
 12 13  2  0
 13 14  1  0
 14 15  2  0
 15 16  1  0
 16 17  1  0
 17 18  2  0
 18 19  1  0
 19 20  2  0
 20 21  1  0
 21 22  2  0
 16 23  2  0
 23 24  1  0
 24 25  2  0
 25 26  1  0
 26 27  2  0
 27 28  1  0
 28 29  2  0
 29 30  1  0
 11 31  1  0
 31 32  1  0
  5 33  1  0
 33 34  2  0
 34  2  1  0
 32  8  1  0
 30 12  1  0
 30 15  1  0
 22 17  1  0
 29 24  1  0
  3 35  1  0
  4 36  1  0
  6 37  1  0
  6 38  1  0
  7 39  1  0
  7 40  1  0
  9 41  1  0
  9 42  1  0
 10 43  1  0
 10 44  1  0
 13 45  1  0
 14 46  1  0
 18 47  1  0
 19 48  1  0
 20 49  1  0
 21 50  1  0
 22 51  1  0
 25 52  1  0
 26 53  1  0
 27 54  1  0
 28 55  1  0
 31 56  1  0
 31 57  1  0
 32 58  1  0
 32 59  1  0
 33 60  1  0
 34 61  1  0
M  END
$$$$
