
     RDKit          3D

 46 49  0  0  0  0  0  0  0  0999 V2000
    0.3119    2.1340    3.6530 O   0  0  0  0  0  0  0  0  0  0  0  0
    0.9267    1.2890    3.0097 C   0  0  0  0  0  0  0  0  0  0  0  0
    0.2012    0.1356    2.3374 C   0  0  0  0  0  0  0  0  0  0  0  0
   -0.1335    0.5757    0.6059 S   0  0  0  0  0  0  0  0  0  0  0  0
   -0.7445   -0.9319    0.0245 C   0  0  0  0  0  0  0  0  0  0  0  0
   -0.6937   -2.0742    0.6659 N   0  0  0  0  0  0  0  0  0  0  0  0
   -1.2610   -3.0288   -0.1368 N   0  0  0  0  0  0  0  0  0  0  0  0
   -1.6528   -2.4497   -1.2569 C   0  0  0  0  0  0  0  0  0  0  0  0
   -2.3264   -3.1379   -2.3991 C   0  0  0  0  0  0  0  0  0  0  0  0
   -3.8216   -2.9672   -2.3781 C   0  0  0  0  0  0  0  0  0  0  0  0
   -4.6952   -3.1402   -1.3199 C   0  0  0  0  0  0  0  0  0  0  0  0
   -6.0498   -2.8950   -1.6862 C   0  0  0  0  0  0  0  0  0  0  0  0
   -6.1702   -2.5591   -3.0147 C   0  0  0  0  0  0  0  0  0  0  0  0
   -4.6580   -2.5350   -3.8111 S   0  0  0  0  0  0  0  0  0  0  0  0
   -1.3394   -1.1078   -1.1955 N   0  0  0  0  0  0  0  0  0  0  0  0
   -1.6305   -0.0956   -2.1916 C   0  0  0  0  0  0  0  0  0  0  0  0
   -0.4734    0.1002   -3.0988 C   0  0  0  0  0  0  0  0  0  0  0  0
    0.5369    1.0385   -3.1640 C   0  0  0  0  0  0  0  0  0  0  0  0
    1.3424    0.6820   -4.2717 C   0  0  0  0  0  0  0  0  0  0  0  0
    0.7710   -0.4444   -4.8154 C   0  0  0  0  0  0  0  0  0  0  0  0
   -0.3342   -0.8019   -4.1131 O   0  0  0  0  0  0  0  0  0  0  0  0
    2.2980    1.2547    2.7966 N   0  0  0  0  0  0  0  0  0  0  0  0
    3.2682    2.1565    3.2803 C   0  0  0  0  0  0  0  0  0  0  0  0
    2.9801    3.2456    4.1067 C   0  0  0  0  0  0  0  0  0  0  0  0
    4.0003    4.0961    4.5467 C   0  0  0  0  0  0  0  0  0  0  0  0
    5.3190    3.8655    4.1625 C   0  0  0  0  0  0  0  0  0  0  0  0
    5.6111    2.7809    3.3416 C   0  0  0  0  0  0  0  0  0  0  0  0
    7.2379    2.4868    2.8631 Cl  0  0  0  0  0  0  0  0  0  0  0  0
    4.5972    1.9281    2.9020 C   0  0  0  0  0  0  0  0  0  0  0  0
    0.8191   -0.7660    2.4006 H   0  0  0  0  0  0  0  0  0  0  0  0
   -0.7358   -0.0537    2.8708 H   0  0  0  0  0  0  0  0  0  0  0  0
   -1.8981   -2.7928   -3.3465 H   0  0  0  0  0  0  0  0  0  0  0  0
   -2.1048   -4.2118   -2.3421 H   0  0  0  0  0  0  0  0  0  0  0  0
   -4.3741   -3.4272   -0.3240 H   0  0  0  0  0  0  0  0  0  0  0  0
   -6.8924   -2.9679   -1.0100 H   0  0  0  0  0  0  0  0  0  0  0  0
   -7.0746   -2.3306   -3.5608 H   0  0  0  0  0  0  0  0  0  0  0  0
   -2.5153   -0.4003   -2.7560 H   0  0  0  0  0  0  0  0  0  0  0  0
   -1.8966    0.8343   -1.6784 H   0  0  0  0  0  0  0  0  0  0  0  0
    0.6782    1.8754   -2.4935 H   0  0  0  0  0  0  0  0  0  0  0  0
    2.2300    1.1835   -4.6323 H   0  0  0  0  0  0  0  0  0  0  0  0
    1.0168   -1.0769   -5.6570 H   0  0  0  0  0  0  0  0  0  0  0  0
    2.6408    0.5130    2.1976 H   0  0  0  0  0  0  0  0  0  0  0  0
    1.9672    3.4646    4.4313 H   0  0  0  0  0  0  0  0  0  0  0  0
    3.7593    4.9381    5.1901 H   0  0  0  0  0  0  0  0  0  0  0  0
    6.1075    4.5292    4.5063 H   0  0  0  0  0  0  0  0  0  0  0  0
    4.8549    1.0887    2.2625 H   0  0  0  0  0  0  0  0  0  0  0  0
  1  2  2  0
  2  3  1  0
  3  4  1  0
  4  5  1  0
  5  6  2  0
  6  7  1  0
  7  8  2  0
  8  9  1  0
  9 10  1  0
 10 11  2  0
 11 12  1  0
 12 13  2  0
 13 14  1  0
  8 15  1  0
 15 16  1  0
 16 17  1  0
 17 18  2  0
 18 19  1  0
 19 20  2  0
 20 21  1  0
  2 22  1  0
 22 23  1  0
 23 24  2  0
 24 25  1  0
 25 26  2  0
 26 27  1  0
 27 28  1  0
 27 29  2  0
 15  5  1  0
 21 17  1  0
 29 23  1  0
 14 10  1  0
  3 30  1  0
  3 31  1  0
  9 32  1  0
  9 33  1  0
 11 34  1  0
 12 35  1  0
 13 36  1  0
 16 37  1  0
 16 38  1  0
 18 39  1  0
 19 40  1  0
 20 41  1  0
 22 42  1  0
 24 43  1  0
 25 44  1  0
 26 45  1  0
 29 46  1  0
M  END
$$$$
