
     RDKit          3D

 54 57  0  0  0  0  0  0  0  0999 V2000
    8.8003   -1.6809   -0.6620 C   0  0  0  0  0  0  0  0  0  0  0  0
    7.9622   -0.4884   -1.1254 C   0  0  0  0  0  0  0  0  0  0  0  0
    8.7440    0.8197   -0.9755 C   0  0  0  0  0  0  0  0  0  0  0  0
    6.6293   -0.4340   -0.3997 C   0  0  0  0  0  0  0  0  0  0  0  0
    6.5463   -0.1970    0.9771 C   0  0  0  0  0  0  0  0  0  0  0  0
    5.3047   -0.1495    1.6205 C   0  0  0  0  0  0  0  0  0  0  0  0
    4.1171   -0.3383    0.9041 C   0  0  0  0  0  0  0  0  0  0  0  0
    2.9107   -0.2709    1.6314 N   0  0  0  0  0  0  0  0  0  0  0  0
    1.6162   -0.3848    1.1390 C   0  0  0  0  0  0  0  0  0  0  0  0
    1.2951   -0.5674   -0.0310 O   0  0  0  0  0  0  0  0  0  0  0  0
    0.5761   -0.2578    2.2555 C   0  0  0  0  0  0  0  0  0  0  0  0
   -0.7492   -0.1775    1.7334 O   0  0  0  0  0  0  0  0  0  0  0  0
   -1.7022   -0.0731    2.6863 C   0  0  0  0  0  0  0  0  0  0  0  0
   -1.5057   -0.0585    3.8911 O   0  0  0  0  0  0  0  0  0  0  0  0
   -3.0527    0.0282    2.0693 C   0  0  0  0  0  0  0  0  0  0  0  0
   -4.1671    0.0326    2.9164 C   0  0  0  0  0  0  0  0  0  0  0  0
   -5.4583    0.1404    2.3879 C   0  0  0  0  0  0  0  0  0  0  0  0
   -5.6625    0.2502    1.0030 C   0  0  0  0  0  0  0  0  0  0  0  0
   -4.5493    0.2455    0.1739 C   0  0  0  0  0  0  0  0  0  0  0  0
   -3.2465    0.1349    0.6884 C   0  0  0  0  0  0  0  0  0  0  0  0
   -4.7368    0.3915   -1.5593 S   0  0  0  0  0  6  0  0  0  0  0  0
   -4.0952    1.6368   -1.9305 O   0  0  0  0  0  0  0  0  0  0  0  0
   -4.3323   -0.8811   -2.1210 O   0  0  0  0  0  0  0  0  0  0  0  0
   -6.4339    0.5801   -1.9331 C   0  0  0  0  0  0  0  0  0  0  0  0
   -6.7972    0.7592   -3.2758 C   0  0  0  0  0  0  0  0  0  0  0  0
   -8.1403    0.9068   -3.6139 C   0  0  0  0  0  0  0  0  0  0  0  0
   -9.1106    0.8756   -2.6148 C   0  0  0  0  0  0  0  0  0  0  0  0
   -8.7365    0.6980   -1.2789 C   0  0  0  0  0  0  0  0  0  0  0  0
   -7.3858    0.5488   -0.9237 C   0  0  0  0  0  0  0  0  0  0  0  0
   -7.0550    0.3686    0.5093 C   0  0  0  0  0  0  0  0  0  0  0  0
   -7.9717    0.3211    1.3258 O   0  0  0  0  0  0  0  0  0  0  0  0
    4.1944   -0.5814   -0.4657 C   0  0  0  0  0  0  0  0  0  0  0  0
    5.4376   -0.6300   -1.1105 C   0  0  0  0  0  0  0  0  0  0  0  0
    9.0687   -1.6066    0.3975 H   0  0  0  0  0  0  0  0  0  0  0  0
    9.7299   -1.7455   -1.2378 H   0  0  0  0  0  0  0  0  0  0  0  0
    8.2523   -2.6196   -0.8018 H   0  0  0  0  0  0  0  0  0  0  0  0
    7.7699   -0.6224   -2.1975 H   0  0  0  0  0  0  0  0  0  0  0  0
    8.1442    1.6725   -1.3115 H   0  0  0  0  0  0  0  0  0  0  0  0
    9.6575    0.7931   -1.5796 H   0  0  0  0  0  0  0  0  0  0  0  0
    9.0391    1.0065    0.0633 H   0  0  0  0  0  0  0  0  0  0  0  0
    7.4480   -0.0483    1.5654 H   0  0  0  0  0  0  0  0  0  0  0  0
    5.2867    0.0402    2.6901 H   0  0  0  0  0  0  0  0  0  0  0  0
    3.0108   -0.1041    2.6258 H   0  0  0  0  0  0  0  0  0  0  0  0
    0.6687   -1.1439    2.8956 H   0  0  0  0  0  0  0  0  0  0  0  0
    0.7968    0.6510    2.8291 H   0  0  0  0  0  0  0  0  0  0  0  0
   -4.0386   -0.0462    3.9961 H   0  0  0  0  0  0  0  0  0  0  0  0
   -6.3066    0.1413    3.0732 H   0  0  0  0  0  0  0  0  0  0  0  0
   -2.3971    0.1383    0.0049 H   0  0  0  0  0  0  0  0  0  0  0  0
   -6.0375    0.7822   -4.0560 H   0  0  0  0  0  0  0  0  0  0  0  0
   -8.4308    1.0447   -4.6540 H   0  0  0  0  0  0  0  0  0  0  0  0
  -10.1612    0.9899   -2.8723 H   0  0  0  0  0  0  0  0  0  0  0  0
   -9.5126    0.6775   -0.5135 H   0  0  0  0  0  0  0  0  0  0  0  0
    3.3066   -0.7433   -1.0695 H   0  0  0  0  0  0  0  0  0  0  0  0
    5.4598   -0.8248   -2.1807 H   0  0  0  0  0  0  0  0  0  0  0  0
  1  2  1  0
  2  3  1  0
  2  4  1  0
  4  5  2  0
  5  6  1  0
  6  7  2  0
  7  8  1  0
  8  9  1  0
  9 10  2  0
  9 11  1  0
 11 12  1  0
 12 13  1  0
 13 14  2  0
 13 15  1  0
 15 16  2  0
 16 17  1  0
 17 18  2  0
 18 19  1  0
 19 20  2  0
 19 21  1  0
 21 22  2  0
 21 23  2  0
 21 24  1  0
 24 25  2  0
 25 26  1  0
 26 27  2  0
 27 28  1  0
 28 29  2  0
 29 30  1  0
 30 31  2  0
  7 32  1  0
 32 33  2  0
 33  4  1  0
 20 15  1  0
 29 24  1  0
 30 18  1  0
  1 34  1  0
  1 35  1  0
  1 36  1  0
  2 37  1  0
  3 38  1  0
  3 39  1  0
  3 40  1  0
  5 41  1  0
  6 42  1  0
  8 43  1  0
 11 44  1  0
 11 45  1  0
 16 46  1  0
 17 47  1  0
 20 48  1  0
 25 49  1  0
 26 50  1  0
 27 51  1  0
 28 52  1  0
 32 53  1  0
 33 54  1  0
M  END
$$$$
