
     RDKit          3D

 37 38  0  0  0  0  0  0  0  0999 V2000
   -3.8460    0.7796   -1.7587 C   0  0  0  0  0  0  0  0  0  0  0  0
   -4.5706    0.4436   -0.5139 N   0  0  0  0  0  0  0  0  0  0  0  0
   -6.0122    0.2188   -0.7666 C   0  0  0  0  0  0  0  0  0  0  0  0
   -3.8595   -0.7843    0.4396 S   0  0  0  0  0  6  0  0  0  0  0  0
   -4.6904   -1.0411    1.5944 O   0  0  0  0  0  0  0  0  0  0  0  0
   -3.5067   -1.8568   -0.4683 O   0  0  0  0  0  0  0  0  0  0  0  0
   -2.3581   -0.0405    1.0210 C   0  0  0  0  0  0  0  0  0  0  0  0
   -1.1370   -0.6376    0.6682 C   0  0  0  0  0  0  0  0  0  0  0  0
    0.0844   -0.0931    1.1042 C   0  0  0  0  0  0  0  0  0  0  0  0
    1.3181   -0.8024    0.6610 C   0  0  0  0  0  0  0  0  0  0  0  0
    1.2737   -2.0254    0.5784 O   0  0  0  0  0  0  0  0  0  0  0  0
    2.3821   -0.0062    0.3212 N   0  0  0  0  0  0  0  0  0  0  0  0
    3.5941   -0.4507   -0.1463 C   0  0  0  0  0  0  0  0  0  0  0  0
    4.0416   -1.7647   -0.4007 C   0  0  0  0  0  0  0  0  0  0  0  0
    5.3330   -1.6251   -0.8531 C   0  0  0  0  0  0  0  0  0  0  0  0
    5.5824   -0.2867   -0.8460 N   0  0  0  0  0  0  0  0  0  0  0  0
    6.8074    0.3700   -1.2318 C   0  0  0  0  0  0  0  0  0  0  0  0
    4.5388    0.4515   -0.4259 N   0  0  0  0  0  0  0  0  0  0  0  0
    0.0662    1.0412    1.9242 C   0  0  0  0  0  0  0  0  0  0  0  0
    1.4895    1.7636    2.5839 Cl  0  0  0  0  0  0  0  0  0  0  0  0
   -1.1559    1.6297    2.2762 C   0  0  0  0  0  0  0  0  0  0  0  0
   -2.3706    1.0967    1.8275 C   0  0  0  0  0  0  0  0  0  0  0  0
   -3.8019    1.9245    2.3194 Cl  0  0  0  0  0  0  0  0  0  0  0  0
   -2.7938    0.9947   -1.5551 H   0  0  0  0  0  0  0  0  0  0  0  0
   -4.2760    1.6847   -2.2000 H   0  0  0  0  0  0  0  0  0  0  0  0
   -3.9184   -0.0314   -2.4894 H   0  0  0  0  0  0  0  0  0  0  0  0
   -6.4279    1.0585   -1.3330 H   0  0  0  0  0  0  0  0  0  0  0  0
   -6.1712   -0.7000   -1.3391 H   0  0  0  0  0  0  0  0  0  0  0  0
   -6.5628    0.1660    0.1770 H   0  0  0  0  0  0  0  0  0  0  0  0
   -1.1270   -1.5370    0.0498 H   0  0  0  0  0  0  0  0  0  0  0  0
    2.3515    0.9983    0.4295 H   0  0  0  0  0  0  0  0  0  0  0  0
    3.5013   -2.6917   -0.2708 H   0  0  0  0  0  0  0  0  0  0  0  0
    6.0696   -2.3513   -1.1663 H   0  0  0  0  0  0  0  0  0  0  0  0
    7.5399   -0.3790   -1.5425 H   0  0  0  0  0  0  0  0  0  0  0  0
    6.5893    1.0458   -2.0625 H   0  0  0  0  0  0  0  0  0  0  0  0
    7.1854    0.9272   -0.3711 H   0  0  0  0  0  0  0  0  0  0  0  0
   -1.1624    2.5107    2.9173 H   0  0  0  0  0  0  0  0  0  0  0  0
  1  2  1  0
  2  3  1  0
  2  4  1  0
  4  5  2  0
  4  6  2  0
  4  7  1  0
  7  8  2  0
  8  9  1  0
  9 10  1  0
 10 11  2  0
 10 12  1  0
 12 13  1  0
 13 14  1  0
 14 15  2  0
 15 16  1  0
 16 17  1  0
 16 18  1  0
  9 19  2  0
 19 20  1  0
 19 21  1  0
 21 22  2  0
 22 23  1  0
 22  7  1  0
 18 13  2  0
  1 24  1  0
  1 25  1  0
  1 26  1  0
  3 27  1  0
  3 28  1  0
  3 29  1  0
  8 30  1  0
 12 31  1  0
 14 32  1  0
 15 33  1  0
 17 34  1  0
 17 35  1  0
 17 36  1  0
 21 37  1  0
M  END
$$$$
