
     RDKit          3D

 52 56  0  0  0  0  0  0  0  0999 V2000
    3.2862   -2.3536    1.2436 O   0  0  0  0  0  0  0  0  0  0  0  0
    2.4635   -1.8525    0.4810 C   0  0  0  0  0  0  0  0  0  0  0  0
    1.4097   -2.7165   -0.1890 C   0  0  0  0  0  0  0  0  0  0  0  0
   -0.1746   -2.6220    0.6866 S   0  0  0  0  0  0  0  0  0  0  0  0
   -0.9094   -1.2483   -0.0753 C   0  0  0  0  0  0  0  0  0  0  0  0
   -0.2509   -0.3868   -0.8179 N   0  0  0  0  0  0  0  0  0  0  0  0
   -1.1501    0.4804   -1.3530 N   0  0  0  0  0  0  0  0  0  0  0  0
   -2.3614    0.1317   -0.9440 C   0  0  0  0  0  0  0  0  0  0  0  0
   -3.5990    0.9401   -1.1941 C   0  0  0  0  0  0  0  0  0  0  0  0
   -4.1995    0.7134   -2.5559 C   0  0  0  0  0  0  0  0  0  0  0  0
   -3.5669    0.6572   -3.7824 C   0  0  0  0  0  0  0  0  0  0  0  0
   -4.4744    0.4487   -4.8569 C   0  0  0  0  0  0  0  0  0  0  0  0
   -5.7769    0.3601   -4.4216 C   0  0  0  0  0  0  0  0  0  0  0  0
   -5.8994    0.5475   -2.7287 S   0  0  0  0  0  0  0  0  0  0  0  0
   -2.2681   -0.9858   -0.1186 N   0  0  0  0  0  0  0  0  0  0  0  0
   -3.3231   -1.6704    0.5343 C   0  0  0  0  0  0  0  0  0  0  0  0
   -4.4813   -2.0037   -0.1791 C   0  0  0  0  0  0  0  0  0  0  0  0
   -5.5273   -2.6711    0.4613 C   0  0  0  0  0  0  0  0  0  0  0  0
   -5.4208   -3.0038    1.8109 C   0  0  0  0  0  0  0  0  0  0  0  0
   -4.2665   -2.6766    2.5229 C   0  0  0  0  0  0  0  0  0  0  0  0
   -3.2127   -2.0168    1.8872 C   0  0  0  0  0  0  0  0  0  0  0  0
    2.3880   -0.5189    0.1215 N   0  0  0  0  0  0  0  0  0  0  0  0
    3.2739    0.5187    0.4617 C   0  0  0  0  0  0  0  0  0  0  0  0
    2.9228    1.8104    0.0441 C   0  0  0  0  0  0  0  0  0  0  0  0
    3.7609    2.8973    0.3054 C   0  0  0  0  0  0  0  0  0  0  0  0
    4.9584    2.7002    0.9877 C   0  0  0  0  0  0  0  0  0  0  0  0
    5.3245    1.4135    1.3920 C   0  0  0  0  0  0  0  0  0  0  0  0
    4.4780    0.3285    1.1447 C   0  0  0  0  0  0  0  0  0  0  0  0
    6.5092    1.1404    2.0330 O   0  0  0  0  0  0  0  0  0  0  0  0
    7.4442    2.2138    1.8775 C   0  0  0  0  0  0  0  0  0  0  0  0
    6.7742    3.5489    2.1581 C   0  0  0  0  0  0  0  0  0  0  0  0
    5.7358    3.8099    1.2057 O   0  0  0  0  0  0  0  0  0  0  0  0
    1.3112   -2.4508   -1.2468 H   0  0  0  0  0  0  0  0  0  0  0  0
    1.7582   -3.7554   -0.1580 H   0  0  0  0  0  0  0  0  0  0  0  0
   -4.3318    0.7856   -0.3964 H   0  0  0  0  0  0  0  0  0  0  0  0
   -3.3230    2.0005   -1.1308 H   0  0  0  0  0  0  0  0  0  0  0  0
   -2.4929    0.7618   -3.9064 H   0  0  0  0  0  0  0  0  0  0  0  0
   -4.1882    0.3696   -5.8963 H   0  0  0  0  0  0  0  0  0  0  0  0
   -6.6637    0.2077   -5.0163 H   0  0  0  0  0  0  0  0  0  0  0  0
   -4.5657   -1.8117   -1.2464 H   0  0  0  0  0  0  0  0  0  0  0  0
   -6.4160   -2.9516   -0.0990 H   0  0  0  0  0  0  0  0  0  0  0  0
   -6.2352   -3.5285    2.3075 H   0  0  0  0  0  0  0  0  0  0  0  0
   -4.1864   -2.9405    3.5750 H   0  0  0  0  0  0  0  0  0  0  0  0
   -2.3344   -1.7627    2.4736 H   0  0  0  0  0  0  0  0  0  0  0  0
    1.5618   -0.2408   -0.4086 H   0  0  0  0  0  0  0  0  0  0  0  0
    1.9916    1.9866   -0.4903 H   0  0  0  0  0  0  0  0  0  0  0  0
    3.4788    3.8934   -0.0218 H   0  0  0  0  0  0  0  0  0  0  0  0
    4.8008   -0.6535    1.4705 H   0  0  0  0  0  0  0  0  0  0  0  0
    7.8575    2.1740    0.8605 H   0  0  0  0  0  0  0  0  0  0  0  0
    8.2628    2.0465    2.5853 H   0  0  0  0  0  0  0  0  0  0  0  0
    6.3406    3.5763    3.1656 H   0  0  0  0  0  0  0  0  0  0  0  0
    7.5072    4.3595    2.0799 H   0  0  0  0  0  0  0  0  0  0  0  0
  1  2  2  0
  2  3  1  0
  3  4  1  0
  4  5  1  0
  5  6  2  0
  6  7  1  0
  7  8  2  0
  8  9  1  0
  9 10  1  0
 10 11  2  0
 11 12  1  0
 12 13  2  0
 13 14  1  0
  8 15  1  0
 15 16  1  0
 16 17  2  0
 17 18  1  0
 18 19  2  0
 19 20  1  0
 20 21  2  0
  2 22  1  0
 22 23  1  0
 23 24  2  0
 24 25  1  0
 25 26  2  0
 26 27  1  0
 27 28  2  0
 27 29  1  0
 29 30  1  0
 30 31  1  0
 31 32  1  0
 15  5  1  0
 21 16  1  0
 28 23  1  0
 14 10  1  0
 32 26  1  0
  3 33  1  0
  3 34  1  0
  9 35  1  0
  9 36  1  0
 11 37  1  0
 12 38  1  0
 13 39  1  0
 17 40  1  0
 18 41  1  0
 19 42  1  0
 20 43  1  0
 21 44  1  0
 22 45  1  0
 24 46  1  0
 25 47  1  0
 28 48  1  0
 30 49  1  0
 30 50  1  0
 31 51  1  0
 31 52  1  0
M  END
$$$$
