
     RDKit          3D

 58 59  0  0  0  0  0  0  0  0999 V2000
    8.0780   -1.5619   -3.2568 C   0  0  0  0  0  0  0  0  0  0  0  0
    8.4928   -1.9318   -1.8412 C   0  0  0  0  0  0  0  0  0  0  0  0
    7.3152   -2.2892   -0.9359 C   0  0  0  0  0  0  0  0  0  0  0  0
    6.3705   -1.1190   -0.6684 C   0  0  0  0  0  0  0  0  0  0  0  0
    5.3793   -1.5642    0.2590 O   0  0  0  0  0  0  0  0  0  0  0  0
    4.4203   -0.6634    0.6306 C   0  0  0  0  0  0  0  0  0  0  0  0
    3.4708   -1.1610    1.5272 C   0  0  0  0  0  0  0  0  0  0  0  0
    2.4325   -0.3487    1.9894 C   0  0  0  0  0  0  0  0  0  0  0  0
    2.3304    0.9734    1.5478 C   0  0  0  0  0  0  0  0  0  0  0  0
    1.2082    1.8076    2.0564 C   0  0  0  0  0  0  0  0  0  0  0  0
    0.7132    1.5788    3.1531 O   0  0  0  0  0  0  0  0  0  0  0  0
    0.7542    2.7988    1.2088 N   0  0  0  0  0  0  0  0  0  0  0  0
   -0.4957    3.4860    1.5081 C   0  0  0  0  0  0  0  0  0  0  0  0
   -1.7169    2.8456    0.8520 C   0  0  0  0  0  0  0  0  0  0  0  0
   -2.8744    3.1619    1.1028 O   0  0  0  0  0  0  0  0  0  0  0  0
   -1.3625    1.9544   -0.1211 O   0  0  0  0  0  0  0  0  0  0  0  0
   -2.4740    1.2992   -0.7423 C   0  0  0  0  0  0  0  0  0  0  0  0
   -3.1017    0.2499    0.1750 C   0  0  0  0  0  0  0  0  0  0  0  0
   -2.4461   -0.3010    1.0661 O   0  0  0  0  0  0  0  0  0  0  0  0
   -4.5495   -0.0848   -0.0091 C   0  0  0  0  0  0  0  0  0  0  0  0
   -5.3219   -0.3530    1.0674 C   0  0  0  0  0  0  0  0  0  0  0  0
   -4.8122   -0.3423    2.3623 N   0  0  0  0  0  0  0  0  0  0  0  0
   -6.6743   -0.6275    0.8795 N   0  0  0  0  0  0  0  0  0  0  0  0
   -7.5345   -0.8119    2.0481 C   0  0  0  0  0  0  0  0  0  0  0  0
   -7.2851   -0.6916   -0.3702 C   0  0  0  0  0  0  0  0  0  0  0  0
   -8.4858   -0.9315   -0.5123 O   0  0  0  0  0  0  0  0  0  0  0  0
   -6.4640   -0.4646   -1.4618 N   0  0  0  0  0  0  0  0  0  0  0  0
   -7.0803   -0.5187   -2.7755 C   0  0  0  0  0  0  0  0  0  0  0  0
   -5.1384   -0.1116   -1.3630 C   0  0  0  0  0  0  0  0  0  0  0  0
   -4.4365    0.1595   -2.3370 O   0  0  0  0  0  0  0  0  0  0  0  0
    3.2879    1.4810    0.6613 C   0  0  0  0  0  0  0  0  0  0  0  0
    4.3282    0.6623    0.2030 C   0  0  0  0  0  0  0  0  0  0  0  0
    7.4958   -0.6359   -3.2754 H   0  0  0  0  0  0  0  0  0  0  0  0
    8.9648   -1.4078   -3.8800 H   0  0  0  0  0  0  0  0  0  0  0  0
    7.4789   -2.3574   -3.7113 H   0  0  0  0  0  0  0  0  0  0  0  0
    9.0645   -1.1064   -1.4013 H   0  0  0  0  0  0  0  0  0  0  0  0
    9.1682   -2.7943   -1.8901 H   0  0  0  0  0  0  0  0  0  0  0  0
    6.7485   -3.1256   -1.3645 H   0  0  0  0  0  0  0  0  0  0  0  0
    7.7021   -2.6582    0.0228 H   0  0  0  0  0  0  0  0  0  0  0  0
    5.8875   -0.8087   -1.6016 H   0  0  0  0  0  0  0  0  0  0  0  0
    6.9367   -0.2838   -0.2397 H   0  0  0  0  0  0  0  0  0  0  0  0
    3.5402   -2.1907    1.8708 H   0  0  0  0  0  0  0  0  0  0  0  0
    1.7020   -0.7517    2.6883 H   0  0  0  0  0  0  0  0  0  0  0  0
    0.9902    2.7103    0.2290 H   0  0  0  0  0  0  0  0  0  0  0  0
   -0.3988    4.5014    1.1131 H   0  0  0  0  0  0  0  0  0  0  0  0
   -0.6571    3.5210    2.5893 H   0  0  0  0  0  0  0  0  0  0  0  0
   -2.0815    0.7862   -1.6256 H   0  0  0  0  0  0  0  0  0  0  0  0
   -3.2102    2.0423   -1.0678 H   0  0  0  0  0  0  0  0  0  0  0  0
   -3.7829   -0.3489    2.3826 H   0  0  0  0  0  0  0  0  0  0  0  0
   -5.1568   -1.1147    2.9238 H   0  0  0  0  0  0  0  0  0  0  0  0
   -7.4179    0.0380    2.7286 H   0  0  0  0  0  0  0  0  0  0  0  0
   -8.5929   -0.8789    1.7820 H   0  0  0  0  0  0  0  0  0  0  0  0
   -7.2548   -1.7414    2.5541 H   0  0  0  0  0  0  0  0  0  0  0  0
   -7.6968   -1.4199   -2.8592 H   0  0  0  0  0  0  0  0  0  0  0  0
   -6.3398   -0.5242   -3.5797 H   0  0  0  0  0  0  0  0  0  0  0  0
   -7.7269    0.3573   -2.8914 H   0  0  0  0  0  0  0  0  0  0  0  0
    3.2555    2.5179    0.3385 H   0  0  0  0  0  0  0  0  0  0  0  0
    5.0537    1.0935   -0.4789 H   0  0  0  0  0  0  0  0  0  0  0  0
  1  2  1  0
  2  3  1  0
  3  4  1  0
  4  5  1  0
  5  6  1  0
  6  7  2  0
  7  8  1  0
  8  9  2  0
  9 10  1  0
 10 11  2  0
 10 12  1  0
 12 13  1  0
 13 14  1  0
 14 15  2  0
 14 16  1  0
 16 17  1  0
 17 18  1  0
 18 19  2  0
 18 20  1  0
 20 21  2  0
 21 22  1  0
 21 23  1  0
 23 24  1  0
 23 25  1  0
 25 26  2  0
 25 27  1  0
 27 28  1  0
 27 29  1  0
 29 30  2  0
  9 31  1  0
 31 32  2  0
 32  6  1  0
 29 20  1  0
  1 33  1  0
  1 34  1  0
  1 35  1  0
  2 36  1  0
  2 37  1  0
  3 38  1  0
  3 39  1  0
  4 40  1  0
  4 41  1  0
  7 42  1  0
  8 43  1  0
 12 44  1  0
 13 45  1  0
 13 46  1  0
 17 47  1  0
 17 48  1  0
 22 49  1  0
 22 50  1  0
 24 51  1  0
 24 52  1  0
 24 53  1  0
 28 54  1  0
 28 55  1  0
 28 56  1  0
 31 57  1  0
 32 58  1  0
M  END
$$$$
