
     RDKit          3D

 57 61  0  0  0  0  0  0  0  0999 V2000
   -0.0359    3.1447   -1.6217 O   0  0  0  0  0  0  0  0  0  0  0  0
    0.6673    2.1165   -0.9055 C   0  0  0  0  0  0  0  0  0  0  0  0
    1.1129    1.0041   -1.8738 C   0  0  0  0  0  0  0  0  0  0  0  0
    1.7310   -0.1269   -1.2042 N   0  0  0  0  0  0  0  0  0  0  0  0
    2.9540   -0.0414   -0.5789 C   0  0  0  0  0  0  0  0  0  0  0  0
    3.7422    0.9697   -0.8315 N   0  0  0  0  0  0  0  0  0  0  0  0
    4.9927    1.0721   -0.1873 C   0  0  0  0  0  0  0  0  0  0  0  0
    5.8067    2.1654   -0.4896 C   0  0  0  0  0  0  0  0  0  0  0  0
    7.0531    2.3179    0.1241 C   0  0  0  0  0  0  0  0  0  0  0  0
    7.4987    1.3737    1.0503 C   0  0  0  0  0  0  0  0  0  0  0  0
    6.7028    0.2725    1.3677 C   0  0  0  0  0  0  0  0  0  0  0  0
    5.4586    0.1330    0.7459 C   0  0  0  0  0  0  0  0  0  0  0  0
    4.5962   -0.9449    1.0050 N   0  0  0  0  0  0  0  0  0  0  0  0
    4.7552   -2.0145    1.8538 C   0  0  0  0  0  0  0  0  0  0  0  0
    3.6361   -2.8137    1.7538 C   0  0  0  0  0  0  0  0  0  0  0  0
    2.7676   -2.2072    0.8157 C   0  0  0  0  0  0  0  0  0  0  0  0
    3.3793   -1.0492    0.3708 C   0  0  0  0  0  0  0  0  0  0  0  0
   -0.1954    1.6147    0.2809 C   0  0  0  0  0  0  0  0  0  0  0  0
   -1.2519    0.6262   -0.0422 N   0  0  0  0  0  0  0  0  0  0  0  0
   -1.8385    0.0969    1.2150 C   0  0  0  0  0  0  0  0  0  0  0  0
   -2.9843   -0.9097    0.9645 C   0  0  0  0  0  0  0  0  0  0  0  0
   -4.0497   -0.2868    0.1561 N   0  0  0  0  0  0  0  0  0  0  0  0
   -5.2570   -0.9880    0.0012 C   0  0  0  0  0  0  0  0  0  0  0  0
   -5.4143   -2.3454    0.3188 C   0  0  0  0  0  0  0  0  0  0  0  0
   -6.6422   -2.9990    0.1544 C   0  0  0  0  0  0  0  0  0  0  0  0
   -7.7477   -2.3031   -0.3226 C   0  0  0  0  0  0  0  0  0  0  0  0
   -7.6259   -0.9531   -0.6296 C   0  0  0  0  0  0  0  0  0  0  0  0
   -6.3959   -0.3077   -0.4649 C   0  0  0  0  0  0  0  0  0  0  0  0
   -3.5271    0.2835   -1.1085 C   0  0  0  0  0  0  0  0  0  0  0  0
   -2.3446    1.2462   -0.8349 C   0  0  0  0  0  0  0  0  0  0  0  0
    0.6025    3.5416   -2.2403 H   0  0  0  0  0  0  0  0  0  0  0  0
    1.5519    2.6013   -0.4752 H   0  0  0  0  0  0  0  0  0  0  0  0
    0.2529    0.6445   -2.4511 H   0  0  0  0  0  0  0  0  0  0  0  0
    1.7943    1.4230   -2.6251 H   0  0  0  0  0  0  0  0  0  0  0  0
    1.0501   -0.7304   -0.7537 H   0  0  0  0  0  0  0  0  0  0  0  0
    5.4643    2.9020   -1.2114 H   0  0  0  0  0  0  0  0  0  0  0  0
    7.6757    3.1742   -0.1231 H   0  0  0  0  0  0  0  0  0  0  0  0
    8.4699    1.4969    1.5239 H   0  0  0  0  0  0  0  0  0  0  0  0
    7.0712   -0.4493    2.0890 H   0  0  0  0  0  0  0  0  0  0  0  0
    5.6422   -2.1353    2.4585 H   0  0  0  0  0  0  0  0  0  0  0  0
    3.4680   -3.7358    2.2957 H   0  0  0  0  0  0  0  0  0  0  0  0
    1.8033   -2.5812    0.4981 H   0  0  0  0  0  0  0  0  0  0  0  0
    0.4952    1.1427    0.9923 H   0  0  0  0  0  0  0  0  0  0  0  0
   -0.6354    2.4799    0.7948 H   0  0  0  0  0  0  0  0  0  0  0  0
   -1.0584   -0.4165    1.7904 H   0  0  0  0  0  0  0  0  0  0  0  0
   -2.2169    0.9212    1.8347 H   0  0  0  0  0  0  0  0  0  0  0  0
   -3.3793   -1.2217    1.9390 H   0  0  0  0  0  0  0  0  0  0  0  0
   -2.5796   -1.7932    0.4535 H   0  0  0  0  0  0  0  0  0  0  0  0
   -4.5806   -2.9349    0.6865 H   0  0  0  0  0  0  0  0  0  0  0  0
   -6.7295   -4.0537    0.4015 H   0  0  0  0  0  0  0  0  0  0  0  0
   -8.7010   -2.8088   -0.4472 H   0  0  0  0  0  0  0  0  0  0  0  0
   -8.4857   -0.3944   -0.9885 H   0  0  0  0  0  0  0  0  0  0  0  0
   -6.3384    0.7565   -0.6797 H   0  0  0  0  0  0  0  0  0  0  0  0
   -3.1923   -0.5289   -1.7676 H   0  0  0  0  0  0  0  0  0  0  0  0
   -4.2950    0.8507   -1.6467 H   0  0  0  0  0  0  0  0  0  0  0  0
   -2.7290    2.1357   -0.3179 H   0  0  0  0  0  0  0  0  0  0  0  0
   -1.9645    1.5673   -1.8097 H   0  0  0  0  0  0  0  0  0  0  0  0
  1  2  1  0
  2  3  1  0
  3  4  1  0
  4  5  1  0
  5  6  2  0
  6  7  1  0
  7  8  2  0
  8  9  1  0
  9 10  2  0
 10 11  1  0
 11 12  2  0
 12 13  1  0
 13 14  1  0
 14 15  2  0
 15 16  1  0
 16 17  2  0
  2 18  1  0
 18 19  1  0
 19 20  1  0
 20 21  1  0
 21 22  1  0
 22 23  1  0
 23 24  2  0
 24 25  1  0
 25 26  2  0
 26 27  1  0
 27 28  2  0
 22 29  1  0
 29 30  1  0
 17  5  1  0
 30 19  1  0
 12  7  1  0
 17 13  1  0
 28 23  1  0
  1 31  1  0
  2 32  1  0
  3 33  1  0
  3 34  1  0
  4 35  1  0
  8 36  1  0
  9 37  1  0
 10 38  1  0
 11 39  1  0
 14 40  1  0
 15 41  1  0
 16 42  1  0
 18 43  1  0
 18 44  1  0
 20 45  1  0
 20 46  1  0
 21 47  1  0
 21 48  1  0
 24 49  1  0
 25 50  1  0
 26 51  1  0
 27 52  1  0
 28 53  1  0
 29 54  1  0
 29 55  1  0
 30 56  1  0
 30 57  1  0
M  END
$$$$
