
     RDKit          3D

 42 44  0  0  0  0  0  0  0  0999 V2000
   -6.5641    2.1362    0.7922 C   0  0  0  0  0  0  0  0  0  0  0  0
   -5.4228    1.4320    0.3210 O   0  0  0  0  0  0  0  0  0  0  0  0
   -5.4911    0.0605    0.2852 C   0  0  0  0  0  0  0  0  0  0  0  0
   -6.6090   -0.6837    0.6820 C   0  0  0  0  0  0  0  0  0  0  0  0
   -6.5941   -2.0788    0.6112 C   0  0  0  0  0  0  0  0  0  0  0  0
   -5.4668   -2.7425    0.1392 C   0  0  0  0  0  0  0  0  0  0  0  0
   -4.3468   -2.0127   -0.2588 C   0  0  0  0  0  0  0  0  0  0  0  0
   -4.3384   -0.6101   -0.1790 C   0  0  0  0  0  0  0  0  0  0  0  0
   -3.1592    0.1535   -0.6309 C   0  0  0  0  0  0  0  0  0  0  0  0
   -1.8953   -0.1950   -0.3466 C   0  0  0  0  0  0  0  0  0  0  0  0
   -0.7342    0.5849   -0.7828 C   0  0  0  0  0  0  0  0  0  0  0  0
    0.5039    0.3080   -0.5400 N   0  0  0  0  0  0  0  0  0  0  0  0
    1.1668    1.3341   -1.1602 C   0  0  0  0  0  0  0  0  0  0  0  0
    2.4890    1.5371   -1.2174 C   0  0  0  0  0  0  0  0  0  0  0  0
    3.4714    0.6679   -0.6037 C   0  0  0  0  0  0  0  0  0  0  0  0
    4.7923    0.8945   -0.6795 C   0  0  0  0  0  0  0  0  0  0  0  0
    5.8116    0.0336   -0.0615 C   0  0  0  0  0  0  0  0  0  0  0  0
    6.9701    0.6243    0.4604 C   0  0  0  0  0  0  0  0  0  0  0  0
    7.9758   -0.1609    1.0302 C   0  0  0  0  0  0  0  0  0  0  0  0
    7.8386   -1.5465    1.0735 C   0  0  0  0  0  0  0  0  0  0  0  0
    6.6990   -2.1475    0.5435 C   0  0  0  0  0  0  0  0  0  0  0  0
    5.6929   -1.3622   -0.0258 C   0  0  0  0  0  0  0  0  0  0  0  0
    0.2003    2.2591   -1.8065 C   0  0  0  0  0  0  0  0  0  0  0  0
    0.4074    3.2705   -2.4458 O   0  0  0  0  0  0  0  0  0  0  0  0
   -1.0010    1.6944   -1.5104 O   0  0  0  0  0  0  0  0  0  0  0  0
   -6.7827    1.8816    1.8344 H   0  0  0  0  0  0  0  0  0  0  0  0
   -7.4318    1.9579    0.1487 H   0  0  0  0  0  0  0  0  0  0  0  0
   -6.3360    3.2057    0.7528 H   0  0  0  0  0  0  0  0  0  0  0  0
   -7.5117   -0.2084    1.0509 H   0  0  0  0  0  0  0  0  0  0  0  0
   -7.4683   -2.6466    0.9207 H   0  0  0  0  0  0  0  0  0  0  0  0
   -5.4600   -3.8277    0.0745 H   0  0  0  0  0  0  0  0  0  0  0  0
   -3.4847   -2.5523   -0.6440 H   0  0  0  0  0  0  0  0  0  0  0  0
   -3.3852    1.0573   -1.1930 H   0  0  0  0  0  0  0  0  0  0  0  0
   -1.6584   -1.0741    0.2428 H   0  0  0  0  0  0  0  0  0  0  0  0
    2.8632    2.4066   -1.7554 H   0  0  0  0  0  0  0  0  0  0  0  0
    3.0878   -0.1905   -0.0543 H   0  0  0  0  0  0  0  0  0  0  0  0
    5.1739    1.7671   -1.2049 H   0  0  0  0  0  0  0  0  0  0  0  0
    7.0962    1.7044    0.4367 H   0  0  0  0  0  0  0  0  0  0  0  0
    8.8657    0.3106    1.4388 H   0  0  0  0  0  0  0  0  0  0  0  0
    8.6209   -2.1577    1.5157 H   0  0  0  0  0  0  0  0  0  0  0  0
    6.5932   -3.2289    0.5675 H   0  0  0  0  0  0  0  0  0  0  0  0
    4.8216   -1.8554   -0.4497 H   0  0  0  0  0  0  0  0  0  0  0  0
  1  2  1  0
  2  3  1  0
  3  4  2  0
  4  5  1  0
  5  6  2  0
  6  7  1  0
  7  8  2  0
  8  9  1  0
  9 10  2  3
 10 11  1  0
 11 12  2  0
 12 13  1  0
 13 14  2  3
 14 15  1  0
 15 16  2  3
 16 17  1  0
 17 18  2  0
 18 19  1  0
 19 20  2  0
 20 21  1  0
 21 22  2  0
 13 23  1  0
 23 24  2  0
 23 25  1  0
  8  3  1  0
 25 11  1  0
 22 17  1  0
  1 26  1  0
  1 27  1  0
  1 28  1  0
  4 29  1  0
  5 30  1  0
  6 31  1  0
  7 32  1  0
  9 33  1  0
 10 34  1  0
 14 35  1  0
 15 36  1  0
 16 37  1  0
 18 38  1  0
 19 39  1  0
 20 40  1  0
 21 41  1  0
 22 42  1  0
M  END
$$$$
