
     RDKit          3D

 46 49  0  0  0  0  0  0  0  0999 V2000
   -6.1711    1.6891    2.8855 C   0  0  0  0  0  0  0  0  0  0  0  0
   -6.0932    0.7892    1.7866 O   0  0  0  0  0  0  0  0  0  0  0  0
   -4.8590    0.6001    1.2290 C   0  0  0  0  0  0  0  0  0  0  0  0
   -4.8368   -0.2809    0.1458 C   0  0  0  0  0  0  0  0  0  0  0  0
   -3.6413   -0.5696   -0.5186 C   0  0  0  0  0  0  0  0  0  0  0  0
   -2.4484    0.0311   -0.1022 C   0  0  0  0  0  0  0  0  0  0  0  0
   -1.2278   -0.2728   -0.7705 N   0  0  0  0  0  0  0  0  0  0  0  0
   -0.1984    0.5900   -1.1347 C   0  0  0  0  0  0  0  0  0  0  0  0
   -0.2675    2.3255   -1.0064 S   0  0  0  0  0  0  0  0  0  0  0  0
    1.3930    2.7983   -1.5660 C   0  0  0  0  0  0  0  0  0  0  0  0
    2.4399    2.4190   -0.5306 C   0  0  0  0  0  0  0  0  0  0  0  0
    2.6140    3.0893    0.4849 O   0  0  0  0  0  0  0  0  0  0  0  0
    3.1047    1.2480   -0.8381 N   0  0  0  0  0  0  0  0  0  0  0  0
    4.0885    0.6716   -0.0256 C   0  0  0  0  0  0  0  0  0  0  0  0
    3.9295   -0.6678    0.1210 N   0  0  0  0  0  0  0  0  0  0  0  0
    4.8080   -1.3165    0.9231 C   0  0  0  0  0  0  0  0  0  0  0  0
    5.8674   -0.6965    1.5636 C   0  0  0  0  0  0  0  0  0  0  0  0
    6.9416   -1.5911    2.5586 Cl  0  0  0  0  0  0  0  0  0  0  0  0
    6.0597    0.6627    1.3570 C   0  0  0  0  0  0  0  0  0  0  0  0
    5.1699    1.3643    0.5379 C   0  0  0  0  0  0  0  0  0  0  0  0
    5.5865    2.9959    0.1493 Cl  0  0  0  0  0  0  0  0  0  0  0  0
    0.8041   -0.0304   -1.7171 N   0  0  0  0  0  0  0  0  0  0  0  0
    0.4368   -1.3463   -1.7543 C   0  0  0  0  0  0  0  0  0  0  0  0
    1.1556   -2.4400   -2.2622 C   0  0  0  0  0  0  0  0  0  0  0  0
    0.5995   -3.7193   -2.1698 C   0  0  0  0  0  0  0  0  0  0  0  0
   -0.6431   -3.9089   -1.5695 C   0  0  0  0  0  0  0  0  0  0  0  0
   -1.3722   -2.8296   -1.0563 C   0  0  0  0  0  0  0  0  0  0  0  0
   -0.8197   -1.5426   -1.1833 C   0  0  0  0  0  0  0  0  0  0  0  0
   -2.4667    0.9144    0.9838 C   0  0  0  0  0  0  0  0  0  0  0  0
   -3.6687    1.1950    1.6464 C   0  0  0  0  0  0  0  0  0  0  0  0
   -5.5801    1.3274    3.7337 H   0  0  0  0  0  0  0  0  0  0  0  0
   -7.2167    1.7377    3.2046 H   0  0  0  0  0  0  0  0  0  0  0  0
   -5.8652    2.6986    2.5925 H   0  0  0  0  0  0  0  0  0  0  0  0
   -5.7637   -0.7417   -0.1887 H   0  0  0  0  0  0  0  0  0  0  0  0
   -3.6777   -1.2312   -1.3812 H   0  0  0  0  0  0  0  0  0  0  0  0
    1.6203    2.3559   -2.5417 H   0  0  0  0  0  0  0  0  0  0  0  0
    1.4290    3.8851   -1.6949 H   0  0  0  0  0  0  0  0  0  0  0  0
    2.5118    0.5448   -1.2831 H   0  0  0  0  0  0  0  0  0  0  0  0
    4.6255   -2.3819    1.0348 H   0  0  0  0  0  0  0  0  0  0  0  0
    6.9083    1.1705    1.8075 H   0  0  0  0  0  0  0  0  0  0  0  0
    2.1337   -2.2894   -2.7067 H   0  0  0  0  0  0  0  0  0  0  0  0
    1.1508   -4.5735   -2.5559 H   0  0  0  0  0  0  0  0  0  0  0  0
   -1.0497   -4.9149   -1.4857 H   0  0  0  0  0  0  0  0  0  0  0  0
   -2.3207   -3.0046   -0.5594 H   0  0  0  0  0  0  0  0  0  0  0  0
   -1.5550    1.3679    1.3673 H   0  0  0  0  0  0  0  0  0  0  0  0
   -3.6354    1.8779    2.4892 H   0  0  0  0  0  0  0  0  0  0  0  0
  1  2  1  0
  2  3  1  0
  3  4  2  0
  4  5  1  0
  5  6  2  0
  6  7  1  0
  7  8  1  0
  8  9  1  0
  9 10  1  0
 10 11  1  0
 11 12  2  0
 11 13  1  0
 13 14  1  0
 14 15  2  0
 15 16  1  0
 16 17  2  0
 17 18  1  0
 17 19  1  0
 19 20  2  0
 20 21  1  0
  8 22  2  0
 22 23  1  0
 23 24  2  0
 24 25  1  0
 25 26  2  0
 26 27  1  0
 27 28  2  0
  6 29  1  0
 29 30  2  0
 30  3  1  0
 28  7  1  0
 20 14  1  0
 28 23  1  0
  1 31  1  0
  1 32  1  0
  1 33  1  0
  4 34  1  0
  5 35  1  0
 10 36  1  0
 10 37  1  0
 13 38  1  0
 16 39  1  0
 19 40  1  0
 24 41  1  0
 25 42  1  0
 26 43  1  0
 27 44  1  0
 29 45  1  0
 30 46  1  0
M  END
$$$$
