
     RDKit          3D

 33 35  0  0  0  0  0  0  0  0999 V2000
   -2.6565    3.9562    1.2793 C   0  0  0  0  0  0  0  0  0  0  0  0
   -1.7121    2.9211    1.0472 O   0  0  0  0  0  0  0  0  0  0  0  0
   -2.0996    1.8694    0.2570 C   0  0  0  0  0  0  0  0  0  0  0  0
   -3.3614    1.7427   -0.3383 C   0  0  0  0  0  0  0  0  0  0  0  0
   -3.6799    0.6382   -1.1317 C   0  0  0  0  0  0  0  0  0  0  0  0
   -2.7553   -0.3862   -1.3656 C   0  0  0  0  0  0  0  0  0  0  0  0
   -2.9873   -1.4984   -2.1281 O   0  0  0  0  0  0  0  0  0  0  0  0
   -4.2672   -1.6273   -2.7321 C   0  0  0  0  0  0  0  0  0  0  0  0
   -1.4875   -0.2521   -0.7634 C   0  0  0  0  0  0  0  0  0  0  0  0
   -0.1281   -1.3182   -0.8433 S   0  0  0  0  0  0  0  0  0  0  0  0
    0.7645   -0.2756    0.1494 C   0  0  0  0  0  0  0  0  0  0  0  0
    2.0555   -0.5183    0.5352 N   0  0  0  0  0  0  0  0  0  0  0  0
    2.8498   -1.5954    0.2161 C   0  0  0  0  0  0  0  0  0  0  0  0
    2.5103   -2.5395   -0.4898 O   0  0  0  0  0  0  0  0  0  0  0  0
    4.1938   -1.5480    0.7976 C   0  0  0  0  0  0  0  0  0  0  0  0
    5.1935   -2.4959    0.6406 C   0  0  0  0  0  0  0  0  0  0  0  0
    6.3917   -2.1572    1.3368 C   0  0  0  0  0  0  0  0  0  0  0  0
    6.2553   -0.9638    1.9964 C   0  0  0  0  0  0  0  0  0  0  0  0
    7.6446   -0.1723    3.0428 Br  0  0  0  0  0  0  0  0  0  0  0  0
    4.7318   -0.2553    1.7943 S   0  0  0  0  0  0  0  0  0  0  0  0
    0.1508    0.8089    0.5472 N   0  0  0  0  0  0  0  0  0  0  0  0
   -1.1449    0.8431    0.0344 C   0  0  0  0  0  0  0  0  0  0  0  0
   -2.9365    4.4524    0.3442 H   0  0  0  0  0  0  0  0  0  0  0  0
   -2.1823    4.7037    1.9227 H   0  0  0  0  0  0  0  0  0  0  0  0
   -3.5380    3.5759    1.8058 H   0  0  0  0  0  0  0  0  0  0  0  0
   -4.1286    2.4987   -0.2006 H   0  0  0  0  0  0  0  0  0  0  0  0
   -4.6767    0.6041   -1.5624 H   0  0  0  0  0  0  0  0  0  0  0  0
   -4.4549   -0.8106   -3.4369 H   0  0  0  0  0  0  0  0  0  0  0  0
   -5.0564   -1.6871   -1.9755 H   0  0  0  0  0  0  0  0  0  0  0  0
   -4.2773   -2.5638   -3.2979 H   0  0  0  0  0  0  0  0  0  0  0  0
    2.4370    0.2067    1.1269 H   0  0  0  0  0  0  0  0  0  0  0  0
    5.0613   -3.3947    0.0472 H   0  0  0  0  0  0  0  0  0  0  0  0
    7.2906   -2.7615    1.3444 H   0  0  0  0  0  0  0  0  0  0  0  0
  1  2  1  0
  2  3  1  0
  3  4  2  0
  4  5  1  0
  5  6  2  0
  6  7  1  0
  7  8  1  0
  6  9  1  0
  9 10  1  0
 10 11  1  0
 11 12  1  0
 12 13  1  0
 13 14  2  0
 13 15  1  0
 15 16  2  0
 16 17  1  0
 17 18  2  0
 18 19  1  0
 18 20  1  0
 11 21  2  0
 21 22  1  0
 22  3  1  0
 22  9  2  0
 20 15  1  0
  1 23  1  0
  1 24  1  0
  1 25  1  0
  4 26  1  0
  5 27  1  0
  8 28  1  0
  8 29  1  0
  8 30  1  0
 12 31  1  0
 16 32  1  0
 17 33  1  0
M  END
$$$$
