
     RDKit          3D

 67 72  0  0  0  0  0  0  0  0999 V2000
    3.2871   -0.7022   -1.8971 O   0  0  0  0  0  0  0  0  0  0  0  0
    2.7460   -0.3173   -0.8569 C   0  0  0  0  0  0  0  0  0  0  0  0
    3.5584   -0.0656    0.4273 C   0  0  0  0  0  0  0  0  0  0  0  0
    5.0406    0.1713    0.0847 C   0  0  0  0  0  0  0  0  0  0  0  0
    5.9324    0.2293    1.3061 C   0  0  0  0  0  0  0  0  0  0  0  0
    6.3660    1.4623    1.8117 C   0  0  0  0  0  0  0  0  0  0  0  0
    7.1749    1.5155    2.9473 C   0  0  0  0  0  0  0  0  0  0  0  0
    7.5569    0.3383    3.5880 C   0  0  0  0  0  0  0  0  0  0  0  0
    7.1314   -0.8930    3.0932 C   0  0  0  0  0  0  0  0  0  0  0  0
    6.3223   -0.9490    1.9576 C   0  0  0  0  0  0  0  0  0  0  0  0
    3.0179    1.0720    1.1650 N   0  0  0  0  0  0  0  0  0  0  0  0
    1.6499    0.9443    1.4171 C   0  0  0  0  0  0  0  0  0  0  0  0
    1.2667    1.4390    2.6026 N   0  0  0  0  0  0  0  0  0  0  0  0
   -0.0421    1.4352    2.8355 C   0  0  0  0  0  0  0  0  0  0  0  0
   -0.9845    1.0341    1.9799 N   0  0  0  0  0  0  0  0  0  0  0  0
   -0.5858    0.5546    0.7802 C   0  0  0  0  0  0  0  0  0  0  0  0
   -1.6122    0.3315   -0.1609 N   0  0  0  0  0  0  0  0  0  0  0  0
   -1.8555    1.5814   -0.9458 C   0  0  0  0  0  0  0  0  0  0  0  0
   -3.2403    2.2174   -0.6802 C   0  0  0  0  0  0  0  0  0  0  0  0
   -4.3217    1.2489   -0.9399 N   0  0  0  0  0  0  0  0  0  0  0  0
   -5.6311    1.6556   -1.1516 C   0  0  0  0  0  0  0  0  0  0  0  0
   -6.0640    2.9654   -0.8895 C   0  0  0  0  0  0  0  0  0  0  0  0
   -7.3874    3.3679   -1.1118 C   0  0  0  0  0  0  0  0  0  0  0  0
   -8.3169    2.4652   -1.6135 C   0  0  0  0  0  0  0  0  0  0  0  0
   -7.9189    1.1649   -1.8960 C   0  0  0  0  0  0  0  0  0  0  0  0
   -6.5939    0.7719   -1.6693 C   0  0  0  0  0  0  0  0  0  0  0  0
   -4.0362   -0.1514   -0.5600 C   0  0  0  0  0  0  0  0  0  0  0  0
   -2.8530   -0.2328    0.4322 C   0  0  0  0  0  0  0  0  0  0  0  0
    0.7762    0.4118    0.4552 C   0  0  0  0  0  0  0  0  0  0  0  0
    1.3487   -0.2002   -0.7260 N   0  0  0  0  0  0  0  0  0  0  0  0
    0.5704   -0.8804   -1.7519 C   0  0  0  0  0  0  0  0  0  0  0  0
    0.5552   -2.3885   -1.5633 C   0  0  0  0  0  0  0  0  0  0  0  0
    1.2221   -3.2207   -2.4768 C   0  0  0  0  0  0  0  0  0  0  0  0
    1.2237   -4.6077   -2.3107 C   0  0  0  0  0  0  0  0  0  0  0  0
    0.5588   -5.1733   -1.2262 C   0  0  0  0  0  0  0  0  0  0  0  0
    0.5626   -7.0494   -0.9950 Br  0  0  0  0  0  0  0  0  0  0  0  0
   -0.1056   -4.3651   -0.3075 C   0  0  0  0  0  0  0  0  0  0  0  0
   -0.1059   -2.9784   -0.4766 C   0  0  0  0  0  0  0  0  0  0  0  0
    3.4701   -0.9751    1.0386 H   0  0  0  0  0  0  0  0  0  0  0  0
    5.4181   -0.6282   -0.5667 H   0  0  0  0  0  0  0  0  0  0  0  0
    5.1493    1.0976   -0.4957 H   0  0  0  0  0  0  0  0  0  0  0  0
    6.0743    2.3900    1.3232 H   0  0  0  0  0  0  0  0  0  0  0  0
    7.5078    2.4763    3.3315 H   0  0  0  0  0  0  0  0  0  0  0  0
    8.1884    0.3805    4.4713 H   0  0  0  0  0  0  0  0  0  0  0  0
    7.4323   -1.8112    3.5915 H   0  0  0  0  0  0  0  0  0  0  0  0
    6.0032   -1.9188    1.5819 H   0  0  0  0  0  0  0  0  0  0  0  0
    3.4806    1.2825    2.0473 H   0  0  0  0  0  0  0  0  0  0  0  0
   -0.3753    1.8086    3.7973 H   0  0  0  0  0  0  0  0  0  0  0  0
   -1.8042    1.3110   -2.0081 H   0  0  0  0  0  0  0  0  0  0  0  0
   -1.0757    2.3370   -0.7823 H   0  0  0  0  0  0  0  0  0  0  0  0
   -3.3345    3.0849   -1.3443 H   0  0  0  0  0  0  0  0  0  0  0  0
   -3.2990    2.5702    0.3567 H   0  0  0  0  0  0  0  0  0  0  0  0
   -5.3824    3.7044   -0.4800 H   0  0  0  0  0  0  0  0  0  0  0  0
   -7.6863    4.3883   -0.8869 H   0  0  0  0  0  0  0  0  0  0  0  0
   -9.3438    2.7751   -1.7868 H   0  0  0  0  0  0  0  0  0  0  0  0
   -8.6326    0.4522   -2.3003 H   0  0  0  0  0  0  0  0  0  0  0  0
   -6.3179   -0.2458   -1.9328 H   0  0  0  0  0  0  0  0  0  0  0  0
   -3.8024   -0.7227   -1.4662 H   0  0  0  0  0  0  0  0  0  0  0  0
   -4.9024   -0.6172   -0.0746 H   0  0  0  0  0  0  0  0  0  0  0  0
   -3.1519    0.2932    1.3484 H   0  0  0  0  0  0  0  0  0  0  0  0
   -2.6804   -1.2821    0.6964 H   0  0  0  0  0  0  0  0  0  0  0  0
    1.0286   -0.6506   -2.7235 H   0  0  0  0  0  0  0  0  0  0  0  0
   -0.4448   -0.5185   -1.8632 H   0  0  0  0  0  0  0  0  0  0  0  0
    1.7606   -2.7890   -3.3194 H   0  0  0  0  0  0  0  0  0  0  0  0
    1.7498   -5.2320   -3.0278 H   0  0  0  0  0  0  0  0  0  0  0  0
   -0.6216   -4.8015    0.5438 H   0  0  0  0  0  0  0  0  0  0  0  0
   -0.6212   -2.3618    0.2531 H   0  0  0  0  0  0  0  0  0  0  0  0
  1  2  2  0
  2  3  1  0
  3  4  1  0
  4  5  1  0
  5  6  2  0
  6  7  1  0
  7  8  2  0
  8  9  1  0
  9 10  2  0
  3 11  1  0
 11 12  1  0
 12 13  2  0
 13 14  1  0
 14 15  2  0
 15 16  1  0
 16 17  1  0
 17 18  1  0
 18 19  1  0
 19 20  1  0
 20 21  1  0
 21 22  2  0
 22 23  1  0
 23 24  2  0
 24 25  1  0
 25 26  2  0
 20 27  1  0
 27 28  1  0
 16 29  2  0
 29 30  1  0
 30 31  1  0
 31 32  1  0
 32 33  2  0
 33 34  1  0
 34 35  2  0
 35 36  1  0
 35 37  1  0
 37 38  2  0
 30  2  1  0
 38 32  1  0
 10  5  1  0
 29 12  1  0
 28 17  1  0
 26 21  1  0
  3 39  1  0
  4 40  1  0
  4 41  1  0
  6 42  1  0
  7 43  1  0
  8 44  1  0
  9 45  1  0
 10 46  1  0
 11 47  1  0
 14 48  1  0
 18 49  1  0
 18 50  1  0
 19 51  1  0
 19 52  1  0
 22 53  1  0
 23 54  1  0
 24 55  1  0
 25 56  1  0
 26 57  1  0
 27 58  1  0
 27 59  1  0
 28 60  1  0
 28 61  1  0
 31 62  1  0
 31 63  1  0
 33 64  1  0
 34 65  1  0
 37 66  1  0
 38 67  1  0
M  END
$$$$
