
     RDKit          3D

 39 40  0  0  0  0  0  0  0  0999 V2000
   -2.3462    1.1497    2.7132 C   0  0  0  0  0  0  0  0  0  0  0  0
   -2.5531    1.4465    1.2389 C   0  0  0  0  0  0  0  0  0  0  0  0
   -2.4451    0.2168    0.5214 O   0  0  0  0  0  0  0  0  0  0  0  0
   -2.7723    0.2340   -0.8123 C   0  0  0  0  0  0  0  0  0  0  0  0
   -3.0791    1.3770   -1.5532 C   0  0  0  0  0  0  0  0  0  0  0  0
   -3.4018    1.2698   -2.9100 C   0  0  0  0  0  0  0  0  0  0  0  0
   -3.4266    0.0224   -3.5319 C   0  0  0  0  0  0  0  0  0  0  0  0
   -3.1112   -1.1241   -2.8048 C   0  0  0  0  0  0  0  0  0  0  0  0
   -2.7575   -1.0143   -1.4583 C   0  0  0  0  0  0  0  0  0  0  0  0
   -2.4562   -2.1252   -0.7058 O   0  0  0  0  0  0  0  0  0  0  0  0
   -1.3224   -2.8445   -1.1833 C   0  0  0  0  0  0  0  0  0  0  0  0
    0.0486   -2.1831   -0.9703 C   0  0  0  0  0  0  0  0  0  0  0  0
    0.9991   -2.4918   -1.6840 O   0  0  0  0  0  0  0  0  0  0  0  0
    0.0614   -1.2995    0.0831 N   0  0  0  0  0  0  0  0  0  0  0  0
    1.1205   -0.5490    0.5241 C   0  0  0  0  0  0  0  0  0  0  0  0
    0.9896    0.3790    1.4465 N   0  0  0  0  0  0  0  0  0  0  0  0
    2.1863    1.0006    1.7403 N   0  0  0  0  0  0  0  0  0  0  0  0
    3.1843    0.4984    1.0394 C   0  0  0  0  0  0  0  0  0  0  0  0
    4.6009    0.9602    1.1174 C   0  0  0  0  0  0  0  0  0  0  0  0
    5.3885   -0.1090    1.6447 O   0  0  0  0  0  0  0  0  0  0  0  0
    6.7526    0.2664    1.7803 C   0  0  0  0  0  0  0  0  0  0  0  0
    2.7105   -0.7420   -0.0531 S   0  0  0  0  0  0  0  0  0  0  0  0
   -1.3795    0.6655    2.8821 H   0  0  0  0  0  0  0  0  0  0  0  0
   -2.3921    2.0681    3.3065 H   0  0  0  0  0  0  0  0  0  0  0  0
   -3.1137    0.4578    3.0749 H   0  0  0  0  0  0  0  0  0  0  0  0
   -3.5479    1.8876    1.1077 H   0  0  0  0  0  0  0  0  0  0  0  0
   -1.7817    2.1452    0.8957 H   0  0  0  0  0  0  0  0  0  0  0  0
   -3.0746    2.3665   -1.1083 H   0  0  0  0  0  0  0  0  0  0  0  0
   -3.6431    2.1637   -3.4807 H   0  0  0  0  0  0  0  0  0  0  0  0
   -3.6987   -0.0563   -4.5808 H   0  0  0  0  0  0  0  0  0  0  0  0
   -3.1634   -2.0925   -3.2916 H   0  0  0  0  0  0  0  0  0  0  0  0
   -1.4279   -3.1080   -2.2419 H   0  0  0  0  0  0  0  0  0  0  0  0
   -1.2949   -3.7900   -0.6283 H   0  0  0  0  0  0  0  0  0  0  0  0
   -0.8273   -1.0555    0.5129 H   0  0  0  0  0  0  0  0  0  0  0  0
    4.9683    1.2435    0.1238 H   0  0  0  0  0  0  0  0  0  0  0  0
    4.6712    1.8284    1.7820 H   0  0  0  0  0  0  0  0  0  0  0  0
    6.8529    1.1014    2.4806 H   0  0  0  0  0  0  0  0  0  0  0  0
    7.1743    0.5378    0.8070 H   0  0  0  0  0  0  0  0  0  0  0  0
    7.3071   -0.5880    2.1760 H   0  0  0  0  0  0  0  0  0  0  0  0
  1  2  1  0
  2  3  1  0
  3  4  1  0
  4  5  2  0
  5  6  1  0
  6  7  2  0
  7  8  1  0
  8  9  2  0
  9 10  1  0
 10 11  1  0
 11 12  1  0
 12 13  2  0
 12 14  1  0
 14 15  1  0
 15 16  2  0
 16 17  1  0
 17 18  2  0
 18 19  1  0
 19 20  1  0
 20 21  1  0
 18 22  1  0
  9  4  1  0
 22 15  1  0
  1 23  1  0
  1 24  1  0
  1 25  1  0
  2 26  1  0
  2 27  1  0
  5 28  1  0
  6 29  1  0
  7 30  1  0
  8 31  1  0
 11 32  1  0
 11 33  1  0
 14 34  1  0
 19 35  1  0
 19 36  1  0
 21 37  1  0
 21 38  1  0
 21 39  1  0
M  END
$$$$
