
     RDKit          3D

 47 49  0  0  0  0  0  0  0  0999 V2000
   -3.4525   -0.9433   -3.3711 O   0  0  0  0  0  0  0  0  0  0  0  0
   -3.6971   -0.1564   -2.4616 C   0  0  0  0  0  0  0  0  0  0  0  0
   -5.1449    0.2243   -2.1265 C   0  0  0  0  0  0  0  0  0  0  0  0
   -5.3355    0.7580   -0.8204 O   0  0  0  0  0  0  0  0  0  0  0  0
   -5.4627   -0.1225    0.2190 C   0  0  0  0  0  0  0  0  0  0  0  0
   -5.8389    0.4640    1.4315 C   0  0  0  0  0  0  0  0  0  0  0  0
   -5.9891   -0.3121    2.5828 C   0  0  0  0  0  0  0  0  0  0  0  0
   -5.7562   -1.6829    2.5211 C   0  0  0  0  0  0  0  0  0  0  0  0
   -5.9540   -2.7410    4.0741 Br  0  0  0  0  0  0  0  0  0  0  0  0
   -5.3750   -2.2780    1.3204 C   0  0  0  0  0  0  0  0  0  0  0  0
   -5.2266   -1.4976    0.1682 C   0  0  0  0  0  0  0  0  0  0  0  0
   -2.7770    0.4964   -1.6602 N   0  0  0  0  0  0  0  0  0  0  0  0
   -1.3742    0.4036   -1.6975 C   0  0  0  0  0  0  0  0  0  0  0  0
   -0.6615    1.1164   -0.7246 C   0  0  0  0  0  0  0  0  0  0  0  0
    0.7375    1.0784   -0.6870 C   0  0  0  0  0  0  0  0  0  0  0  0
    1.4425    0.3162   -1.6249 C   0  0  0  0  0  0  0  0  0  0  0  0
    2.9343    0.2417   -1.6353 C   0  0  0  0  0  0  0  0  0  0  0  0
    3.4989    0.0739   -2.7097 O   0  0  0  0  0  0  0  0  0  0  0  0
    3.5355    0.3424   -0.3956 N   0  0  0  0  0  0  0  0  0  0  0  0
    4.9203    0.3386   -0.0827 C   0  0  0  0  0  0  0  0  0  0  0  0
    5.9077    0.2856   -1.0745 C   0  0  0  0  0  0  0  0  0  0  0  0
    7.2662    0.2819   -0.7414 C   0  0  0  0  0  0  0  0  0  0  0  0
    7.6628    0.3340    0.5897 C   0  0  0  0  0  0  0  0  0  0  0  0
    6.6994    0.3927    1.5945 C   0  0  0  0  0  0  0  0  0  0  0  0
    5.3304    0.3972    1.2713 C   0  0  0  0  0  0  0  0  0  0  0  0
    4.3196    0.4715    2.3628 C   0  0  0  0  0  0  0  0  0  0  0  0
    3.1112    0.5372    2.2071 O   0  0  0  0  0  0  0  0  0  0  0  0
    4.8573    0.4574    3.5955 O   0  0  0  0  0  0  0  0  0  0  0  0
    0.7330   -0.3802   -2.6095 C   0  0  0  0  0  0  0  0  0  0  0  0
   -0.6664   -0.3404   -2.6421 C   0  0  0  0  0  0  0  0  0  0  0  0
   -5.8131   -0.6239   -2.3161 H   0  0  0  0  0  0  0  0  0  0  0  0
   -5.4279    1.0122   -2.8341 H   0  0  0  0  0  0  0  0  0  0  0  0
   -6.0227    1.5349    1.4809 H   0  0  0  0  0  0  0  0  0  0  0  0
   -6.2866    0.1608    3.5147 H   0  0  0  0  0  0  0  0  0  0  0  0
   -5.1873   -3.3479    1.2684 H   0  0  0  0  0  0  0  0  0  0  0  0
   -4.9174   -2.0014   -0.7427 H   0  0  0  0  0  0  0  0  0  0  0  0
   -3.1796    1.0686   -0.9236 H   0  0  0  0  0  0  0  0  0  0  0  0
   -1.1835    1.7157    0.0179 H   0  0  0  0  0  0  0  0  0  0  0  0
    1.2536    1.6674    0.0666 H   0  0  0  0  0  0  0  0  0  0  0  0
    2.9186    0.3648    0.4164 H   0  0  0  0  0  0  0  0  0  0  0  0
    5.6545    0.2471   -2.1298 H   0  0  0  0  0  0  0  0  0  0  0  0
    8.0122    0.2381   -1.5319 H   0  0  0  0  0  0  0  0  0  0  0  0
    8.7196    0.3306    0.8447 H   0  0  0  0  0  0  0  0  0  0  0  0
    7.0285    0.4367    2.6302 H   0  0  0  0  0  0  0  0  0  0  0  0
    4.0893    0.5007    4.2028 H   0  0  0  0  0  0  0  0  0  0  0  0
    1.2666   -0.9623   -3.3591 H   0  0  0  0  0  0  0  0  0  0  0  0
   -1.1695   -0.8993   -3.4253 H   0  0  0  0  0  0  0  0  0  0  0  0
  1  2  2  0
  2  3  1  0
  3  4  1  0
  4  5  1  0
  5  6  2  0
  6  7  1  0
  7  8  2  0
  8  9  1  0
  8 10  1  0
 10 11  2  0
  2 12  1  0
 12 13  1  0
 13 14  2  0
 14 15  1  0
 15 16  2  0
 16 17  1  0
 17 18  2  0
 17 19  1  0
 19 20  1  0
 20 21  2  0
 21 22  1  0
 22 23  2  0
 23 24  1  0
 24 25  2  0
 25 26  1  0
 26 27  2  0
 26 28  1  0
 16 29  1  0
 29 30  2  0
 11  5  1  0
 30 13  1  0
 25 20  1  0
  3 31  1  0
  3 32  1  0
  6 33  1  0
  7 34  1  0
 10 35  1  0
 11 36  1  0
 12 37  1  0
 14 38  1  0
 15 39  1  0
 19 40  1  0
 21 41  1  0
 22 42  1  0
 23 43  1  0
 24 44  1  0
 28 45  1  0
 29 46  1  0
 30 47  1  0
M  END
$$$$
