
     RDKit          3D

 54 58  0  0  0  0  0  0  0  0999 V2000
    3.2017    1.6914   -2.2409 O   0  0  0  0  0  0  0  0  0  0  0  0
    2.6916    0.6540   -1.8194 C   0  0  0  0  0  0  0  0  0  0  0  0
    1.5671   -0.0454   -2.5710 C   0  0  0  0  0  0  0  0  0  0  0  0
    0.4404   -0.9998   -1.5045 S   0  0  0  0  0  0  0  0  0  0  0  0
   -0.3703    0.2815   -0.6030 C   0  0  0  0  0  0  0  0  0  0  0  0
    0.1220    1.4739   -0.7220 N   0  0  0  0  0  0  0  0  0  0  0  0
   -0.5277    2.4682    0.0106 C   0  0  0  0  0  0  0  0  0  0  0  0
   -1.6309    2.2085    0.7612 C   0  0  0  0  0  0  0  0  0  0  0  0
   -2.2240    3.5917    1.5297 S   0  0  0  0  0  0  0  0  0  0  0  0
   -0.9673    4.5777    0.8586 C   0  0  0  0  0  0  0  0  0  0  0  0
   -0.7712    5.9578    1.0598 C   0  0  0  0  0  0  0  0  0  0  0  0
    0.3069    6.5852    0.4297 C   0  0  0  0  0  0  0  0  0  0  0  0
    1.1717    5.8628   -0.3818 C   0  0  0  0  0  0  0  0  0  0  0  0
    0.9750    4.4933   -0.5804 C   0  0  0  0  0  0  0  0  0  0  0  0
   -0.1081    3.8288    0.0439 C   0  0  0  0  0  0  0  0  0  0  0  0
   -2.2026    0.9006    0.8701 C   0  0  0  0  0  0  0  0  0  0  0  0
   -3.2333    0.6480    1.4918 O   0  0  0  0  0  0  0  0  0  0  0  0
   -1.4733   -0.0789    0.1766 N   0  0  0  0  0  0  0  0  0  0  0  0
   -2.0055   -1.4462    0.2671 C   0  0  0  0  0  0  0  0  0  0  0  0
   -3.0582   -1.7190   -0.8140 C   0  0  0  0  0  0  0  0  0  0  0  0
   -3.5625   -3.1378   -0.7482 C   0  0  0  0  0  0  0  0  0  0  0  0
   -2.9395   -4.1489   -1.4920 C   0  0  0  0  0  0  0  0  0  0  0  0
   -3.3941   -5.4658   -1.4115 C   0  0  0  0  0  0  0  0  0  0  0  0
   -4.4705   -5.7839   -0.5853 C   0  0  0  0  0  0  0  0  0  0  0  0
   -5.0930   -4.7859    0.1622 C   0  0  0  0  0  0  0  0  0  0  0  0
   -4.6405   -3.4683    0.0837 C   0  0  0  0  0  0  0  0  0  0  0  0
    3.1595    0.0054   -0.6998 N   0  0  0  0  0  0  0  0  0  0  0  0
    4.0752    0.6737    0.1928 C   0  0  0  0  0  0  0  0  0  0  0  0
    4.4779   -0.2792    1.2536 C   0  0  0  0  0  0  0  0  0  0  0  0
    5.6893   -0.8167    1.6367 C   0  0  0  0  0  0  0  0  0  0  0  0
    5.4180   -1.6769    2.7280 C   0  0  0  0  0  0  0  0  0  0  0  0
    4.0612   -1.6118    2.9406 C   0  0  0  0  0  0  0  0  0  0  0  0
    3.4794   -0.7689    2.0491 O   0  0  0  0  0  0  0  0  0  0  0  0
    0.9937    0.6961   -3.1366 H   0  0  0  0  0  0  0  0  0  0  0  0
    2.0270   -0.7351   -3.2859 H   0  0  0  0  0  0  0  0  0  0  0  0
   -1.4450    6.5268    1.6938 H   0  0  0  0  0  0  0  0  0  0  0  0
    0.4687    7.6505    0.5775 H   0  0  0  0  0  0  0  0  0  0  0  0
    2.0078    6.3603   -0.8677 H   0  0  0  0  0  0  0  0  0  0  0  0
    1.6574    3.9326   -1.2171 H   0  0  0  0  0  0  0  0  0  0  0  0
   -2.4524   -1.5906    1.2593 H   0  0  0  0  0  0  0  0  0  0  0  0
   -1.1913   -2.1758    0.2143 H   0  0  0  0  0  0  0  0  0  0  0  0
   -2.6486   -1.5233   -1.8126 H   0  0  0  0  0  0  0  0  0  0  0  0
   -3.9024   -1.0258   -0.7077 H   0  0  0  0  0  0  0  0  0  0  0  0
   -2.0969   -3.9180   -2.1402 H   0  0  0  0  0  0  0  0  0  0  0  0
   -2.9087   -6.2446   -1.9938 H   0  0  0  0  0  0  0  0  0  0  0  0
   -4.8246   -6.8096   -0.5239 H   0  0  0  0  0  0  0  0  0  0  0  0
   -5.9320   -5.0337    0.8074 H   0  0  0  0  0  0  0  0  0  0  0  0
   -5.1352   -2.7005    0.6758 H   0  0  0  0  0  0  0  0  0  0  0  0
    2.5480   -0.6867   -0.2824 H   0  0  0  0  0  0  0  0  0  0  0  0
    4.9397    1.0282   -0.3782 H   0  0  0  0  0  0  0  0  0  0  0  0
    3.5671    1.5427    0.6245 H   0  0  0  0  0  0  0  0  0  0  0  0
    6.6488   -0.6116    1.1820 H   0  0  0  0  0  0  0  0  0  0  0  0
    6.1239   -2.2715    3.2910 H   0  0  0  0  0  0  0  0  0  0  0  0
    3.3908   -2.0793    3.6484 H   0  0  0  0  0  0  0  0  0  0  0  0
  1  2  2  0
  2  3  1  0
  3  4  1  0
  4  5  1  0
  5  6  2  0
  6  7  1  0
  7  8  2  0
  8  9  1  0
  9 10  1  0
 10 11  2  0
 11 12  1  0
 12 13  2  0
 13 14  1  0
 14 15  2  0
  8 16  1  0
 16 17  2  0
 16 18  1  0
 18 19  1  0
 19 20  1  0
 20 21  1  0
 21 22  2  0
 22 23  1  0
 23 24  2  0
 24 25  1  0
 25 26  2  0
  2 27  1  0
 27 28  1  0
 28 29  1  0
 29 30  2  0
 30 31  1  0
 31 32  2  0
 32 33  1  0
 18  5  1  0
 26 21  1  0
 33 29  1  0
 15  7  1  0
 15 10  1  0
  3 34  1  0
  3 35  1  0
 11 36  1  0
 12 37  1  0
 13 38  1  0
 14 39  1  0
 19 40  1  0
 19 41  1  0
 20 42  1  0
 20 43  1  0
 22 44  1  0
 23 45  1  0
 24 46  1  0
 25 47  1  0
 26 48  1  0
 27 49  1  0
 28 50  1  0
 28 51  1  0
 30 52  1  0
 31 53  1  0
 32 54  1  0
M  END
$$$$
