
     RDKit          3D

 50 53  0  0  0  0  0  0  0  0999 V2000
    7.8468    1.4086    1.9483 C   0  0  0  0  0  0  0  0  0  0  0  0
    7.6272    0.7936    0.5775 C   0  0  0  0  0  0  0  0  0  0  0  0
    6.7416   -0.3223    0.6668 O   0  0  0  0  0  0  0  0  0  0  0  0
    5.4067   -0.1442    0.4462 C   0  0  0  0  0  0  0  0  0  0  0  0
    4.7580    1.0926    0.4053 C   0  0  0  0  0  0  0  0  0  0  0  0
    3.3712    1.1674    0.1984 C   0  0  0  0  0  0  0  0  0  0  0  0
    2.6109    0.0013    0.0292 C   0  0  0  0  0  0  0  0  0  0  0  0
    1.1367    0.0481   -0.1788 C   0  0  0  0  0  0  0  0  0  0  0  0
    0.4630   -0.8602    0.2907 O   0  0  0  0  0  0  0  0  0  0  0  0
    0.6861    1.1117   -0.9385 N   0  0  0  0  0  0  0  0  0  0  0  0
   -0.6554    1.4346   -1.2376 C   0  0  0  0  0  0  0  0  0  0  0  0
   -0.8753    2.4650   -2.1586 C   0  0  0  0  0  0  0  0  0  0  0  0
   -2.1731    2.8446   -2.5024 C   0  0  0  0  0  0  0  0  0  0  0  0
   -3.2654    2.1985   -1.9254 C   0  0  0  0  0  0  0  0  0  0  0  0
   -3.0719    1.1700   -0.9950 C   0  0  0  0  0  0  0  0  0  0  0  0
   -4.2324    0.4880   -0.3779 C   0  0  0  0  0  0  0  0  0  0  0  0
   -4.3042   -0.8528   -0.4422 C   0  0  0  0  0  0  0  0  0  0  0  0
   -5.4244   -1.5701    0.1425 C   0  0  0  0  0  0  0  0  0  0  0  0
   -5.5184   -2.9630    0.1019 C   0  0  0  0  0  0  0  0  0  0  0  0
   -6.6174   -3.6075    0.6792 C   0  0  0  0  0  0  0  0  0  0  0  0
   -7.6248   -2.8640    1.2981 C   0  0  0  0  0  0  0  0  0  0  0  0
   -7.5361   -1.4740    1.3421 C   0  0  0  0  0  0  0  0  0  0  0  0
   -6.4354   -0.8468    0.7631 C   0  0  0  0  0  0  0  0  0  0  0  0
   -6.3796    0.5555    0.8273 O   0  0  0  0  0  0  0  0  0  0  0  0
   -5.3178    1.2738    0.2842 C   0  0  0  0  0  0  0  0  0  0  0  0
   -5.2941    2.4991    0.3524 O   0  0  0  0  0  0  0  0  0  0  0  0
   -1.7569    0.8009   -0.6551 C   0  0  0  0  0  0  0  0  0  0  0  0
    3.2356   -1.2448    0.0956 C   0  0  0  0  0  0  0  0  0  0  0  0
    4.6198   -1.2941    0.2954 C   0  0  0  0  0  0  0  0  0  0  0  0
    5.2452   -2.5981    0.3296 N   0  0  0  0  0  4  0  0  0  0  0  0
    5.9006   -2.9348   -0.6660 O   0  0  0  0  0  0  0  0  0  0  0  0
    5.0318   -3.2959    1.3299 O   0  0  0  0  0  1  0  0  0  0  0  0
    6.9139    1.7988    2.3658 H   0  0  0  0  0  0  0  0  0  0  0  0
    8.2165    0.6545    2.6511 H   0  0  0  0  0  0  0  0  0  0  0  0
    8.5733    2.2244    1.8943 H   0  0  0  0  0  0  0  0  0  0  0  0
    8.5846    0.4018    0.2155 H   0  0  0  0  0  0  0  0  0  0  0  0
    7.3037    1.5318   -0.1645 H   0  0  0  0  0  0  0  0  0  0  0  0
    5.2948    2.0246    0.5569 H   0  0  0  0  0  0  0  0  0  0  0  0
    2.8951    2.1459    0.2123 H   0  0  0  0  0  0  0  0  0  0  0  0
    1.3830    1.6777   -1.4046 H   0  0  0  0  0  0  0  0  0  0  0  0
   -0.0435    2.9860   -2.6250 H   0  0  0  0  0  0  0  0  0  0  0  0
   -2.3360    3.6473   -3.2173 H   0  0  0  0  0  0  0  0  0  0  0  0
   -4.2701    2.5140   -2.2014 H   0  0  0  0  0  0  0  0  0  0  0  0
   -3.5343   -1.4424   -0.9320 H   0  0  0  0  0  0  0  0  0  0  0  0
   -4.7429   -3.5592   -0.3732 H   0  0  0  0  0  0  0  0  0  0  0  0
   -6.6868   -4.6924    0.6474 H   0  0  0  0  0  0  0  0  0  0  0  0
   -8.4767   -3.3691    1.7464 H   0  0  0  0  0  0  0  0  0  0  0  0
   -8.3135   -0.8871    1.8221 H   0  0  0  0  0  0  0  0  0  0  0  0
   -1.6143    0.0222    0.0887 H   0  0  0  0  0  0  0  0  0  0  0  0
    2.6546   -2.1596   -0.0089 H   0  0  0  0  0  0  0  0  0  0  0  0
  1  2  1  0
  2  3  1  0
  3  4  1  0
  4  5  2  0
  5  6  1  0
  6  7  2  0
  7  8  1  0
  8  9  2  0
  8 10  1  0
 10 11  1  0
 11 12  2  0
 12 13  1  0
 13 14  2  0
 14 15  1  0
 15 16  1  0
 16 17  2  0
 17 18  1  0
 18 19  2  0
 19 20  1  0
 20 21  2  0
 21 22  1  0
 22 23  2  0
 23 24  1  0
 24 25  1  0
 25 26  2  0
 15 27  2  0
  7 28  1  0
 28 29  2  0
 29 30  1  0
 30 31  2  0
 30 32  1  0
 29  4  1  0
 27 11  1  0
 25 16  1  0
 23 18  1  0
  1 33  1  0
  1 34  1  0
  1 35  1  0
  2 36  1  0
  2 37  1  0
  5 38  1  0
  6 39  1  0
 10 40  1  0
 12 41  1  0
 13 42  1  0
 14 43  1  0
 17 44  1  0
 19 45  1  0
 20 46  1  0
 21 47  1  0
 22 48  1  0
 27 49  1  0
 28 50  1  0
M  CHG  2  30   1  32  -1
M  END
$$$$
