
     RDKit          3D

 58 62  0  0  0  0  0  0  0  0999 V2000
    8.7785   -0.5492    3.0306 C   0  0  0  0  0  0  0  0  0  0  0  0
    8.2333   -0.4659    1.7197 O   0  0  0  0  0  0  0  0  0  0  0  0
    6.8712   -0.3844    1.6199 C   0  0  0  0  0  0  0  0  0  0  0  0
    5.9710   -0.3693    2.6872 C   0  0  0  0  0  0  0  0  0  0  0  0
    4.5937   -0.2817    2.4468 C   0  0  0  0  0  0  0  0  0  0  0  0
    4.0963   -0.2088    1.1455 C   0  0  0  0  0  0  0  0  0  0  0  0
    2.7036   -0.1084    0.9654 N   0  0  0  0  0  0  0  0  0  0  0  0
    2.1894   -0.0195   -0.2365 C   0  0  0  0  0  0  0  0  0  0  0  0
    0.8129    0.1196   -0.3694 N   0  0  0  0  0  0  0  0  0  0  0  0
    0.2513    1.2417   -1.1231 C   0  0  0  0  0  0  0  0  0  0  0  0
   -1.1301    0.8680   -1.7139 C   0  0  0  0  0  0  0  0  0  0  0  0
   -1.9851    0.0026   -0.8654 N   0  0  0  0  0  0  0  0  0  0  0  0
   -3.4074    0.3252   -1.0492 C   0  0  0  0  0  0  0  0  0  0  0  0
   -4.3518   -0.7609   -0.5025 C   0  0  0  0  0  0  0  0  0  0  0  0
   -5.8084   -0.4208   -0.7585 C   0  0  0  0  0  0  0  0  0  0  0  0
   -6.3577   -0.7524   -2.0105 C   0  0  0  0  0  0  0  0  0  0  0  0
   -7.6848   -0.4529   -2.3136 C   0  0  0  0  0  0  0  0  0  0  0  0
   -8.4851    0.1834   -1.3721 C   0  0  0  0  0  0  0  0  0  0  0  0
   -7.9574    0.5218   -0.1262 C   0  0  0  0  0  0  0  0  0  0  0  0
   -6.6177    0.2327    0.1999 C   0  0  0  0  0  0  0  0  0  0  0  0
   -6.0996    0.6110    1.5714 C   0  0  0  0  0  0  0  0  0  0  0  0
   -4.9425    1.3304    1.5227 F   0  0  0  0  0  0  0  0  0  0  0  0
   -5.8330   -0.4745    2.3497 F   0  0  0  0  0  0  0  0  0  0  0  0
   -6.9698    1.3749    2.2923 F   0  0  0  0  0  0  0  0  0  0  0  0
   -1.5432    0.0707    0.5382 C   0  0  0  0  0  0  0  0  0  0  0  0
   -0.0621   -0.3496    0.7233 C   0  0  0  0  0  0  0  0  0  0  0  0
    3.0878   -0.0874   -1.3797 C   0  0  0  0  0  0  0  0  0  0  0  0
    2.8451   -0.1547   -2.7406 C   0  0  0  0  0  0  0  0  0  0  0  0
    4.0951   -0.2008   -3.4002 C   0  0  0  0  0  0  0  0  0  0  0  0
    5.0702   -0.1959   -2.4264 C   0  0  0  0  0  0  0  0  0  0  0  0
    4.4510   -0.1663   -1.1993 N   0  0  0  0  0  0  0  0  0  0  0  0
    5.0108   -0.2251    0.0864 C   0  0  0  0  0  0  0  0  0  0  0  0
    6.3878   -0.3126    0.3106 C   0  0  0  0  0  0  0  0  0  0  0  0
    9.8669   -0.6105    2.9365 H   0  0  0  0  0  0  0  0  0  0  0  0
    8.4372   -1.4546    3.5434 H   0  0  0  0  0  0  0  0  0  0  0  0
    8.5447    0.3481    3.6130 H   0  0  0  0  0  0  0  0  0  0  0  0
    6.3022   -0.4232    3.7187 H   0  0  0  0  0  0  0  0  0  0  0  0
    3.8982   -0.2684    3.2820 H   0  0  0  0  0  0  0  0  0  0  0  0
    0.1431    2.0998   -0.4468 H   0  0  0  0  0  0  0  0  0  0  0  0
    0.9047    1.5746   -1.9347 H   0  0  0  0  0  0  0  0  0  0  0  0
   -1.6378    1.8094   -1.9622 H   0  0  0  0  0  0  0  0  0  0  0  0
   -0.9740    0.3352   -2.6599 H   0  0  0  0  0  0  0  0  0  0  0  0
   -3.6415    1.3007   -0.6038 H   0  0  0  0  0  0  0  0  0  0  0  0
   -3.6072    0.4226   -2.1252 H   0  0  0  0  0  0  0  0  0  0  0  0
   -4.1234   -1.7235   -0.9796 H   0  0  0  0  0  0  0  0  0  0  0  0
   -4.1972   -0.9270    0.5673 H   0  0  0  0  0  0  0  0  0  0  0  0
   -5.7471   -1.2524   -2.7612 H   0  0  0  0  0  0  0  0  0  0  0  0
   -8.0935   -0.7189   -3.2852 H   0  0  0  0  0  0  0  0  0  0  0  0
   -9.5214    0.4150   -1.6059 H   0  0  0  0  0  0  0  0  0  0  0  0
   -8.6037    1.0171    0.5981 H   0  0  0  0  0  0  0  0  0  0  0  0
   -2.1456   -0.5843    1.1761 H   0  0  0  0  0  0  0  0  0  0  0  0
   -1.6781    1.0916    0.9208 H   0  0  0  0  0  0  0  0  0  0  0  0
   -0.0031   -1.4442    0.7572 H   0  0  0  0  0  0  0  0  0  0  0  0
    0.2791    0.0367    1.6911 H   0  0  0  0  0  0  0  0  0  0  0  0
    1.8698   -0.1733   -3.2082 H   0  0  0  0  0  0  0  0  0  0  0  0
    4.2677   -0.2478   -4.4677 H   0  0  0  0  0  0  0  0  0  0  0  0
    6.1458   -0.2344   -2.5212 H   0  0  0  0  0  0  0  0  0  0  0  0
    7.1007   -0.3290   -0.5073 H   0  0  0  0  0  0  0  0  0  0  0  0
  1  2  1  0
  2  3  1  0
  3  4  2  0
  4  5  1  0
  5  6  2  0
  6  7  1  0
  7  8  2  0
  8  9  1  0
  9 10  1  0
 10 11  1  0
 11 12  1  0
 12 13  1  0
 13 14  1  0
 14 15  1  0
 15 16  2  0
 16 17  1  0
 17 18  2  0
 18 19  1  0
 19 20  2  0
 20 21  1  0
 21 22  1  0
 21 23  1  0
 21 24  1  0
 12 25  1  0
 25 26  1  0
  8 27  1  0
 27 28  2  0
 28 29  1  0
 29 30  2  0
 30 31  1  0
 31 32  1  0
 32 33  2  0
 33  3  1  0
 32  6  1  0
 26  9  1  0
 31 27  1  0
 20 15  1  0
  1 34  1  0
  1 35  1  0
  1 36  1  0
  4 37  1  0
  5 38  1  0
 10 39  1  0
 10 40  1  0
 11 41  1  0
 11 42  1  0
 13 43  1  0
 13 44  1  0
 14 45  1  0
 14 46  1  0
 16 47  1  0
 17 48  1  0
 18 49  1  0
 19 50  1  0
 25 51  1  0
 25 52  1  0
 26 53  1  0
 26 54  1  0
 28 55  1  0
 29 56  1  0
 30 57  1  0
 33 58  1  0
M  END
$$$$
