
     RDKit          3D

 42 41  0  0  0  0  0  0  0  0999 V2000
   -4.4573   -1.0152    3.1422 C   0  0  0  0  0  0  0  0  0  0  0  0
   -5.0183   -0.5986    1.8104 C   0  0  0  0  0  0  0  0  0  0  0  0
   -6.4740   -0.9347    1.6178 C   0  0  0  0  0  0  0  0  0  0  0  0
   -4.3183    0.0135    0.8352 C   0  0  0  0  0  0  0  0  0  0  0  0
   -2.8788    0.4524    0.8794 C   0  0  0  0  0  0  0  0  0  0  0  0
   -1.9686   -0.5289    0.1319 C   0  0  0  0  0  0  0  0  0  0  0  0
   -0.5160   -0.0851    0.1219 C   0  0  0  0  0  0  0  0  0  0  0  0
    0.1994   -0.2016    1.4417 C   0  0  0  0  0  0  0  0  0  0  0  0
    0.0606    0.3368   -1.0215 C   0  0  0  0  0  0  0  0  0  0  0  0
    1.4693    0.8352   -1.2048 C   0  0  0  0  0  0  0  0  0  0  0  0
    2.3706   -0.2412   -1.8200 C   0  0  0  0  0  0  0  0  0  0  0  0
    3.8123    0.2148   -1.9581 C   0  0  0  0  0  0  0  0  0  0  0  0
    4.0871    1.1366   -3.1164 C   0  0  0  0  0  0  0  0  0  0  0  0
    4.7472   -0.2149   -1.0862 C   0  0  0  0  0  0  0  0  0  0  0  0
    6.2144    0.0824   -1.0924 C   0  0  0  0  0  0  0  0  0  0  0  0
    6.5041    1.0987   -0.1458 O   0  0  0  0  0  0  0  0  0  0  0  0
   -3.3715   -0.9099    3.2064 H   0  0  0  0  0  0  0  0  0  0  0  0
   -4.9040   -0.4170    3.9429 H   0  0  0  0  0  0  0  0  0  0  0  0
   -4.6838   -2.0699    3.3325 H   0  0  0  0  0  0  0  0  0  0  0  0
   -6.8513   -0.6064    0.6435 H   0  0  0  0  0  0  0  0  0  0  0  0
   -6.6261   -2.0169    1.6860 H   0  0  0  0  0  0  0  0  0  0  0  0
   -7.0796   -0.4486    2.3895 H   0  0  0  0  0  0  0  0  0  0  0  0
   -4.8263    0.2509   -0.0997 H   0  0  0  0  0  0  0  0  0  0  0  0
   -2.5406    0.5883    1.9117 H   0  0  0  0  0  0  0  0  0  0  0  0
   -2.8137    1.4454    0.4152 H   0  0  0  0  0  0  0  0  0  0  0  0
   -2.3354   -0.6499   -0.8965 H   0  0  0  0  0  0  0  0  0  0  0  0
   -2.0320   -1.5256    0.5886 H   0  0  0  0  0  0  0  0  0  0  0  0
   -0.1477    0.5699    2.1355 H   0  0  0  0  0  0  0  0  0  0  0  0
    1.2846   -0.1093    1.3506 H   0  0  0  0  0  0  0  0  0  0  0  0
    0.0071   -1.1822    1.8899 H   0  0  0  0  0  0  0  0  0  0  0  0
   -0.5390    0.3546   -1.9316 H   0  0  0  0  0  0  0  0  0  0  0  0
    1.8919    1.1917   -0.2591 H   0  0  0  0  0  0  0  0  0  0  0  0
    1.4289    1.7152   -1.8585 H   0  0  0  0  0  0  0  0  0  0  0  0
    1.9916   -0.5362   -2.8072 H   0  0  0  0  0  0  0  0  0  0  0  0
    2.3235   -1.1485   -1.2025 H   0  0  0  0  0  0  0  0  0  0  0  0
    3.4130    1.9981   -3.0915 H   0  0  0  0  0  0  0  0  0  0  0  0
    5.1037    1.5356   -3.1181 H   0  0  0  0  0  0  0  0  0  0  0  0
    3.9326    0.6063   -4.0613 H   0  0  0  0  0  0  0  0  0  0  0  0
    4.4368   -0.8787   -0.2798 H   0  0  0  0  0  0  0  0  0  0  0  0
    6.7689   -0.8180   -0.8095 H   0  0  0  0  0  0  0  0  0  0  0  0
    6.5898    0.3954   -2.0692 H   0  0  0  0  0  0  0  0  0  0  0  0
    5.7447    1.1753    0.4567 H   0  0  0  0  0  0  0  0  0  0  0  0
  1  2  1  0
  2  3  1  0
  2  4  2  3
  4  5  1  0
  5  6  1  0
  6  7  1  0
  7  8  1  0
  7  9  2  3
  9 10  1  0
 10 11  1  0
 11 12  1  0
 12 13  1  0
 12 14  2  3
 14 15  1  0
 15 16  1  0
  1 17  1  0
  1 18  1  0
  1 19  1  0
  3 20  1  0
  3 21  1  0
  3 22  1  0
  4 23  1  0
  5 24  1  0
  5 25  1  0
  6 26  1  0
  6 27  1  0
  8 28  1  0
  8 29  1  0
  8 30  1  0
  9 31  1  0
 10 32  1  0
 10 33  1  0
 11 34  1  0
 11 35  1  0
 13 36  1  0
 13 37  1  0
 13 38  1  0
 14 39  1  0
 15 40  1  0
 15 41  1  0
 16 42  1  0
M  END
$$$$
