
     RDKit          3D

 36 38  0  0  0  0  0  0  0  0999 V2000
   -5.7422    0.4945    0.0720 C   0  0  0  0  0  0  0  0  0  0  0  0
   -4.2618    0.7484    0.0274 C   0  0  0  0  0  0  0  0  0  0  0  0
   -3.7789    2.0386   -0.2557 C   0  0  0  0  0  0  0  0  0  0  0  0
   -2.4086    2.2866   -0.3289 C   0  0  0  0  0  0  0  0  0  0  0  0
   -1.5354    1.2283   -0.1285 C   0  0  0  0  0  0  0  0  0  0  0  0
   -1.9876   -0.0807    0.1414 C   0  0  0  0  0  0  0  0  0  0  0  0
   -3.3582   -0.3135    0.2138 C   0  0  0  0  0  0  0  0  0  0  0  0
   -0.9474   -1.0240    0.3027 N   0  0  0  0  0  0  0  0  0  0  0  0
   -1.2800   -2.3551    0.7814 C   0  0  0  0  0  0  0  0  0  0  0  0
    0.3110   -0.4238    0.2224 C   0  0  0  0  0  0  0  0  0  0  0  0
    1.5012   -1.0330    0.3822 C   0  0  0  0  0  0  0  0  0  0  0  0
    2.8097   -0.3784    0.2916 C   0  0  0  0  0  0  0  0  0  0  0  0
    3.4109    0.1169    1.4549 C   0  0  0  0  0  0  0  0  0  0  0  0
    4.6417    0.7553    1.3835 C   0  0  0  0  0  0  0  0  0  0  0  0
    5.2578    0.8962    0.1504 C   0  0  0  0  0  0  0  0  0  0  0  0
    4.6355    0.3927   -0.9850 C   0  0  0  0  0  0  0  0  0  0  0  0
    3.4405   -0.2407   -0.9076 N   0  0  0  0  0  4  0  0  0  0  0  0
    2.8288   -0.7505   -2.1520 C   0  0  0  0  0  0  0  0  0  0  0  0
    0.2484    1.3248   -0.1580 S   0  0  0  0  0  0  0  0  0  0  0  0
   -5.9782   -0.3145    0.7713 H   0  0  0  0  0  0  0  0  0  0  0  0
   -6.2814    1.3849    0.4123 H   0  0  0  0  0  0  0  0  0  0  0  0
   -6.1039    0.2200   -0.9236 H   0  0  0  0  0  0  0  0  0  0  0  0
   -4.4766    2.8591   -0.4164 H   0  0  0  0  0  0  0  0  0  0  0  0
   -2.0427    3.2870   -0.5361 H   0  0  0  0  0  0  0  0  0  0  0  0
   -3.7492   -1.3064    0.4122 H   0  0  0  0  0  0  0  0  0  0  0  0
   -2.0352   -2.8276    0.1435 H   0  0  0  0  0  0  0  0  0  0  0  0
   -0.4145   -3.0243    0.7723 H   0  0  0  0  0  0  0  0  0  0  0  0
   -1.6559   -2.3140    1.8096 H   0  0  0  0  0  0  0  0  0  0  0  0
    1.5528   -2.0912    0.6161 H   0  0  0  0  0  0  0  0  0  0  0  0
    2.9137    0.0182    2.4189 H   0  0  0  0  0  0  0  0  0  0  0  0
    5.1110    1.1489    2.2841 H   0  0  0  0  0  0  0  0  0  0  0  0
    6.2181    1.4021    0.0722 H   0  0  0  0  0  0  0  0  0  0  0  0
    5.0915    0.4962   -1.9660 H   0  0  0  0  0  0  0  0  0  0  0  0
    2.5015   -1.7805   -1.9893 H   0  0  0  0  0  0  0  0  0  0  0  0
    1.9946   -0.0969   -2.4152 H   0  0  0  0  0  0  0  0  0  0  0  0
    3.5689   -0.7439   -2.9566 H   0  0  0  0  0  0  0  0  0  0  0  0
  1  2  1  0
  2  3  2  0
  3  4  1  0
  4  5  2  0
  5  6  1  0
  6  7  2  0
  6  8  1  0
  8  9  1  0
  8 10  1  0
 10 11  2  3
 11 12  1  0
 12 13  2  0
 13 14  1  0
 14 15  2  0
 15 16  1  0
 16 17  2  0
 17 18  1  0
 10 19  1  0
  7  2  1  0
 17 12  1  0
 19  5  1  0
  1 20  1  0
  1 21  1  0
  1 22  1  0
  3 23  1  0
  4 24  1  0
  7 25  1  0
  9 26  1  0
  9 27  1  0
  9 28  1  0
 11 29  1  0
 13 30  1  0
 14 31  1  0
 15 32  1  0
 16 33  1  0
 18 34  1  0
 18 35  1  0
 18 36  1  0
M  CHG  1  17   1
M  END
$$$$
