
     RDKit          3D

 37 40  0  0  0  0  0  0  0  0999 V2000
   -1.3670   -2.9278    0.8455 C   0  0  0  0  0  0  0  0  0  0  0  0
   -0.5612   -1.7309    0.4243 C   0  0  0  0  0  0  0  0  0  0  0  0
    0.8433   -1.7916    0.4502 C   0  0  0  0  0  0  0  0  0  0  0  0
    1.6116   -0.6756    0.0542 C   0  0  0  0  0  0  0  0  0  0  0  0
    0.9493    0.4807   -0.3627 C   0  0  0  0  0  0  0  0  0  0  0  0
    1.9264    1.3955   -0.6875 N   0  0  0  0  0  0  0  0  0  0  0  0
    3.1842    0.8756   -0.4967 C   0  0  0  0  0  0  0  0  0  0  0  0
    4.4420    1.4556   -0.7001 C   0  0  0  0  0  0  0  0  0  0  0  0
    5.5671    0.6757   -0.4169 C   0  0  0  0  0  0  0  0  0  0  0  0
    5.4363   -0.6298    0.0504 C   0  0  0  0  0  0  0  0  0  0  0  0
    4.1701   -1.1926    0.2477 C   0  0  0  0  0  0  0  0  0  0  0  0
    3.0191   -0.4264   -0.0306 C   0  0  0  0  0  0  0  0  0  0  0  0
   -0.4527    0.5650   -0.3970 C   0  0  0  0  0  0  0  0  0  0  0  0
   -1.1949   -0.5531    0.0054 C   0  0  0  0  0  0  0  0  0  0  0  0
   -2.5653   -0.5659   -0.0059 O   0  0  0  0  0  0  0  0  0  0  0  0
   -3.2794    0.6556   -0.2818 C   0  0  0  0  0  0  0  0  0  0  0  0
   -4.3294    0.2982   -1.3408 C   0  0  0  0  0  0  0  0  0  0  0  0
   -3.9790    1.0629    1.0203 C   0  0  0  0  0  0  0  0  0  0  0  0
   -2.4423    1.8100   -0.7851 C   0  0  0  0  0  0  0  0  0  0  0  0
   -1.1081    1.7779   -0.8471 C   0  0  0  0  0  0  0  0  0  0  0  0
   -1.9889   -3.2773    0.0150 H   0  0  0  0  0  0  0  0  0  0  0  0
   -2.0062   -2.6739    1.6973 H   0  0  0  0  0  0  0  0  0  0  0  0
   -0.7227   -3.7591    1.1507 H   0  0  0  0  0  0  0  0  0  0  0  0
    1.3486   -2.6974    0.7740 H   0  0  0  0  0  0  0  0  0  0  0  0
    1.7460    2.3296   -1.0213 H   0  0  0  0  0  0  0  0  0  0  0  0
    4.5480    2.4723   -1.0641 H   0  0  0  0  0  0  0  0  0  0  0  0
    6.5596    1.0958   -0.5640 H   0  0  0  0  0  0  0  0  0  0  0  0
    6.3244   -1.2193    0.2645 H   0  0  0  0  0  0  0  0  0  0  0  0
    4.0770   -2.2112    0.6123 H   0  0  0  0  0  0  0  0  0  0  0  0
   -3.8494   -0.0365   -2.2685 H   0  0  0  0  0  0  0  0  0  0  0  0
   -4.9581   -0.5340   -1.0024 H   0  0  0  0  0  0  0  0  0  0  0  0
   -4.9809    1.1467   -1.5773 H   0  0  0  0  0  0  0  0  0  0  0  0
   -3.2460    1.2801    1.8066 H   0  0  0  0  0  0  0  0  0  0  0  0
   -4.6118    1.9473    0.8871 H   0  0  0  0  0  0  0  0  0  0  0  0
   -4.6038    0.2459    1.3999 H   0  0  0  0  0  0  0  0  0  0  0  0
   -2.9660    2.7089   -1.0998 H   0  0  0  0  0  0  0  0  0  0  0  0
   -0.5397    2.6231   -1.2103 H   0  0  0  0  0  0  0  0  0  0  0  0
  1  2  1  0
  2  3  2  0
  3  4  1  0
  4  5  2  0
  5  6  1  0
  6  7  1  0
  7  8  2  0
  8  9  1  0
  9 10  2  0
 10 11  1  0
 11 12  2  0
  5 13  1  0
 13 14  2  0
 14 15  1  0
 15 16  1  0
 16 17  1  0
 16 18  1  0
 16 19  1  0
 19 20  2  0
 14  2  1  0
 12  4  1  0
 20 13  1  0
 12  7  1  0
  1 21  1  0
  1 22  1  0
  1 23  1  0
  3 24  1  0
  6 25  1  0
  8 26  1  0
  9 27  1  0
 10 28  1  0
 11 29  1  0
 17 30  1  0
 17 31  1  0
 17 32  1  0
 18 33  1  0
 18 34  1  0
 18 35  1  0
 19 36  1  0
 20 37  1  0
M  END
$$$$
