
     RDKit          3D

 56 58  0  0  0  0  0  0  0  0999 V2000
    6.8042   -0.0883    0.4027 C   0  0  0  0  0  0  0  0  0  0  0  0
    5.5947   -0.6022    0.9433 O   0  0  0  0  0  0  0  0  0  0  0  0
    4.5193   -0.6869    0.1012 C   0  0  0  0  0  0  0  0  0  0  0  0
    4.4944   -0.2904   -1.2345 C   0  0  0  0  0  0  0  0  0  0  0  0
    3.3229   -0.4202   -1.9880 C   0  0  0  0  0  0  0  0  0  0  0  0
    2.1701   -0.9529   -1.4092 C   0  0  0  0  0  0  0  0  0  0  0  0
    0.9630   -1.1059   -2.0493 O   0  0  0  0  0  0  0  0  0  0  0  0
    0.9139   -0.7742   -3.4339 C   0  0  0  0  0  0  0  0  0  0  0  0
    2.1937   -1.3651   -0.0620 C   0  0  0  0  0  0  0  0  0  0  0  0
    0.9977   -1.9084    0.4537 N   0  0  0  0  0  0  0  0  0  0  0  0
    0.7239   -2.3473    1.7333 C   0  0  0  0  0  0  0  0  0  0  0  0
    1.5329   -2.4018    2.6568 O   0  0  0  0  0  0  0  0  0  0  0  0
   -0.6921   -2.8813    1.9239 C   0  0  0  0  0  0  0  0  0  0  0  0
   -1.9406   -2.0447    0.8952 S   0  0  0  0  0  0  0  0  0  0  0  0
   -1.7498   -0.3944    1.4582 C   0  0  0  0  0  0  0  0  0  0  0  0
   -1.5062   -0.2269    2.7151 N   0  0  0  0  0  0  0  0  0  0  0  0
   -1.3607    1.0770    3.1983 C   0  0  0  0  0  0  0  0  0  0  0  0
   -1.0223    1.2664    4.5389 C   0  0  0  0  0  0  0  0  0  0  0  0
   -0.8950    2.5565    5.0635 C   0  0  0  0  0  0  0  0  0  0  0  0
   -1.1118    3.6707    4.2497 C   0  0  0  0  0  0  0  0  0  0  0  0
   -1.4465    3.4927    2.9099 C   0  0  0  0  0  0  0  0  0  0  0  0
   -1.5610    2.1952    2.3935 C   0  0  0  0  0  0  0  0  0  0  0  0
   -1.8913    1.9615    0.9799 C   0  0  0  0  0  0  0  0  0  0  0  0
   -2.1631    2.9186    0.2611 O   0  0  0  0  0  0  0  0  0  0  0  0
   -1.8935    0.6382    0.5426 N   0  0  0  0  0  0  0  0  0  0  0  0
   -2.1491    0.4422   -0.8896 C   0  0  0  0  0  0  0  0  0  0  0  0
   -3.6490    0.3596   -1.2049 C   0  0  0  0  0  0  0  0  0  0  0  0
   -3.9361    0.4050   -2.6274 N   0  0  0  0  0  0  0  0  0  0  0  0
   -3.6268   -0.6397   -3.4648 C   0  0  0  0  0  0  0  0  0  0  0  0
   -4.0625   -0.4424   -4.8883 C   0  0  0  0  0  0  0  0  0  0  0  0
   -3.0289   -1.6448   -3.0991 O   0  0  0  0  0  0  0  0  0  0  0  0
    3.3658   -1.2224    0.6816 C   0  0  0  0  0  0  0  0  0  0  0  0
    6.6767    0.9429    0.0549 H   0  0  0  0  0  0  0  0  0  0  0  0
    7.5490   -0.0787    1.2067 H   0  0  0  0  0  0  0  0  0  0  0  0
    7.1858   -0.7344   -0.3974 H   0  0  0  0  0  0  0  0  0  0  0  0
    5.3688    0.1291   -1.7195 H   0  0  0  0  0  0  0  0  0  0  0  0
    3.3469   -0.0913   -3.0210 H   0  0  0  0  0  0  0  0  0  0  0  0
    1.5987   -1.4020   -4.0186 H   0  0  0  0  0  0  0  0  0  0  0  0
    1.1201    0.2905   -3.5903 H   0  0  0  0  0  0  0  0  0  0  0  0
   -0.1022   -0.9703   -3.7910 H   0  0  0  0  0  0  0  0  0  0  0  0
    0.2427   -1.9601   -0.2254 H   0  0  0  0  0  0  0  0  0  0  0  0
   -0.9698   -2.7971    2.9797 H   0  0  0  0  0  0  0  0  0  0  0  0
   -0.6848   -3.9440    1.6612 H   0  0  0  0  0  0  0  0  0  0  0  0
   -0.8570    0.3973    5.1797 H   0  0  0  0  0  0  0  0  0  0  0  0
   -0.6284    2.6881    6.1086 H   0  0  0  0  0  0  0  0  0  0  0  0
   -1.0177    4.6734    4.6598 H   0  0  0  0  0  0  0  0  0  0  0  0
   -1.6185    4.3556    2.2754 H   0  0  0  0  0  0  0  0  0  0  0  0
   -1.7117    1.2834   -1.4460 H   0  0  0  0  0  0  0  0  0  0  0  0
   -1.6242   -0.4485   -1.2493 H   0  0  0  0  0  0  0  0  0  0  0  0
   -4.0745   -0.5654   -0.8032 H   0  0  0  0  0  0  0  0  0  0  0  0
   -4.1877    1.1944   -0.7465 H   0  0  0  0  0  0  0  0  0  0  0  0
   -4.4244    1.2167   -2.9945 H   0  0  0  0  0  0  0  0  0  0  0  0
   -4.5383   -1.3591   -5.2467 H   0  0  0  0  0  0  0  0  0  0  0  0
   -3.1912   -0.2137   -5.5038 H   0  0  0  0  0  0  0  0  0  0  0  0
   -4.7833    0.3728   -4.9759 H   0  0  0  0  0  0  0  0  0  0  0  0
    3.4149   -1.5231    1.7221 H   0  0  0  0  0  0  0  0  0  0  0  0
  1  2  1  0
  2  3  1  0
  3  4  2  0
  4  5  1  0
  5  6  2  0
  6  7  1  0
  7  8  1  0
  6  9  1  0
  9 10  1  0
 10 11  1  0
 11 12  2  0
 11 13  1  0
 13 14  1  0
 14 15  1  0
 15 16  2  0
 16 17  1  0
 17 18  2  0
 18 19  1  0
 19 20  2  0
 20 21  1  0
 21 22  2  0
 22 23  1  0
 23 24  2  0
 23 25  1  0
 25 26  1  0
 26 27  1  0
 27 28  1  0
 28 29  1  0
 29 30  1  0
 29 31  2  0
  9 32  2  0
 32  3  1  0
 25 15  1  0
 22 17  1  0
  1 33  1  0
  1 34  1  0
  1 35  1  0
  4 36  1  0
  5 37  1  0
  8 38  1  0
  8 39  1  0
  8 40  1  0
 10 41  1  0
 13 42  1  0
 13 43  1  0
 18 44  1  0
 19 45  1  0
 20 46  1  0
 21 47  1  0
 26 48  1  0
 26 49  1  0
 27 50  1  0
 27 51  1  0
 28 52  1  0
 30 53  1  0
 30 54  1  0
 30 55  1  0
 32 56  1  0
M  END
$$$$
