
     RDKit          3D

 29 30  0  0  0  0  0  0  0  0999 V2000
    1.8537    2.9351   -0.9640 C   0  0  0  0  0  0  0  0  0  0  0  0
    1.0326    3.3373    0.0171 C   0  0  0  0  0  0  0  0  0  0  0  0
   -0.0648    2.5619    0.7041 C   0  0  0  0  0  0  0  0  0  0  0  0
   -0.1286    1.1663    0.2720 N   0  0  0  0  0  0  0  0  0  0  0  0
    0.6376    0.1527    0.8249 C   0  0  0  0  0  0  0  0  0  0  0  0
    1.7698    0.5485    2.1081 S   0  0  0  0  0  0  0  0  0  0  0  0
    1.6748   -0.9832    3.0852 C   0  0  0  0  0  0  0  0  0  0  0  0
    0.3446   -1.2144    3.6653 C   0  0  0  0  0  0  0  0  0  0  0  0
   -0.7047   -1.3861    4.1325 N   0  0  0  0  0  0  0  0  0  0  0  0
    0.5967   -1.0837    0.4498 N   0  0  0  0  0  0  0  0  0  0  0  0
   -0.2841   -1.4423   -0.5737 C   0  0  0  0  0  0  0  0  0  0  0  0
   -0.3377   -2.7773   -0.9820 C   0  0  0  0  0  0  0  0  0  0  0  0
   -1.2062   -3.1755   -2.0022 C   0  0  0  0  0  0  0  0  0  0  0  0
   -2.0301   -2.2379   -2.6235 C   0  0  0  0  0  0  0  0  0  0  0  0
   -1.9848   -0.9031   -2.2236 C   0  0  0  0  0  0  0  0  0  0  0  0
   -1.1108   -0.5161   -1.2002 C   0  0  0  0  0  0  0  0  0  0  0  0
   -1.0353    0.8837   -0.7497 C   0  0  0  0  0  0  0  0  0  0  0  0
   -1.7630    1.7170   -1.2852 O   0  0  0  0  0  0  0  0  0  0  0  0
    2.5996    3.6131   -1.3690 H   0  0  0  0  0  0  0  0  0  0  0  0
    1.8079    1.9428   -1.3996 H   0  0  0  0  0  0  0  0  0  0  0  0
    1.1470    4.3583    0.3792 H   0  0  0  0  0  0  0  0  0  0  0  0
    0.0778    2.6136    1.7879 H   0  0  0  0  0  0  0  0  0  0  0  0
   -1.0180    3.0645    0.5033 H   0  0  0  0  0  0  0  0  0  0  0  0
    1.9925   -1.8378    2.4793 H   0  0  0  0  0  0  0  0  0  0  0  0
    2.4060   -0.8908    3.8953 H   0  0  0  0  0  0  0  0  0  0  0  0
    0.3013   -3.5129   -0.5001 H   0  0  0  0  0  0  0  0  0  0  0  0
   -1.2395   -4.2181   -2.3095 H   0  0  0  0  0  0  0  0  0  0  0  0
   -2.7074   -2.5462   -3.4164 H   0  0  0  0  0  0  0  0  0  0  0  0
   -2.6273   -0.1693   -2.7053 H   0  0  0  0  0  0  0  0  0  0  0  0
  1  2  2  0
  2  3  1  0
  3  4  1  0
  4  5  1  0
  5  6  1  0
  6  7  1  0
  7  8  1  0
  8  9  3  0
  5 10  2  0
 10 11  1  0
 11 12  2  0
 12 13  1  0
 13 14  2  0
 14 15  1  0
 15 16  2  0
 16 17  1  0
 17 18  2  0
 17  4  1  0
 16 11  1  0
  1 19  1  0
  1 20  1  0
  2 21  1  0
  3 22  1  0
  3 23  1  0
  7 24  1  0
  7 25  1  0
 12 26  1  0
 13 27  1  0
 14 28  1  0
 15 29  1  0
M  END
$$$$
