
     RDKit          3D

 28 28  0  0  0  0  0  0  0  0999 V2000
   -1.0719   -1.5134   -0.3024 C   0  0  0  0  0  0  0  0  0  0  0  0
   -1.8367   -0.1846   -0.2921 C   0  0  0  0  0  0  0  0  0  0  0  0
   -2.3355    0.1094   -1.7188 C   0  0  0  0  0  0  0  0  0  0  0  0
   -3.0560   -0.2812    0.6351 C   0  0  0  0  0  0  0  0  0  0  0  0
   -0.8905    0.9497    0.1687 C   0  0  0  0  0  0  0  0  0  0  0  0
   -0.4671    1.7790   -0.6415 O   0  0  0  0  0  0  0  0  0  0  0  0
   -0.5444    1.0119    1.6546 C   0  0  0  0  0  0  0  0  0  0  0  0
    0.9377    1.9969    2.0084 S   0  0  0  0  0  0  0  0  0  0  0  0
    2.1583    1.0394    1.1464 C   0  0  0  0  0  0  0  0  0  0  0  0
    3.3065    1.6665    0.8409 N   0  0  0  0  0  0  0  0  0  0  0  0
    4.2390    0.9359    0.2046 C   0  0  0  0  0  0  0  0  0  0  0  0
    4.0739   -0.3890   -0.1169 C   0  0  0  0  0  0  0  0  0  0  0  0
    2.8736   -0.9420    0.2587 C   0  0  0  0  0  0  0  0  0  0  0  0
    1.9030   -0.2585    0.8943 N   0  0  0  0  0  0  0  0  0  0  0  0
   -1.6985   -2.3280   -0.6826 H   0  0  0  0  0  0  0  0  0  0  0  0
   -0.1819   -1.4502   -0.9386 H   0  0  0  0  0  0  0  0  0  0  0  0
   -0.7367   -1.7984    0.7002 H   0  0  0  0  0  0  0  0  0  0  0  0
   -3.0213   -0.6700   -2.0699 H   0  0  0  0  0  0  0  0  0  0  0  0
   -2.8663    1.0676   -1.7625 H   0  0  0  0  0  0  0  0  0  0  0  0
   -1.5032    0.1628   -2.4302 H   0  0  0  0  0  0  0  0  0  0  0  0
   -3.7811   -1.0134    0.2623 H   0  0  0  0  0  0  0  0  0  0  0  0
   -3.5651    0.6859    0.7178 H   0  0  0  0  0  0  0  0  0  0  0  0
   -2.7743   -0.5909    1.6473 H   0  0  0  0  0  0  0  0  0  0  0  0
   -1.3867    1.4811    2.1722 H   0  0  0  0  0  0  0  0  0  0  0  0
   -0.4134    0.0075    2.0640 H   0  0  0  0  0  0  0  0  0  0  0  0
    5.1523    1.4678   -0.0454 H   0  0  0  0  0  0  0  0  0  0  0  0
    4.8374   -0.9571   -0.6290 H   0  0  0  0  0  0  0  0  0  0  0  0
    2.6490   -1.9846    0.0527 H   0  0  0  0  0  0  0  0  0  0  0  0
  1  2  1  0
  2  3  1  0
  2  4  1  0
  2  5  1  0
  5  6  2  0
  5  7  1  0
  7  8  1  0
  8  9  1  0
  9 10  2  0
 10 11  1  0
 11 12  2  0
 12 13  1  0
 13 14  2  0
 14  9  1  0
  1 15  1  0
  1 16  1  0
  1 17  1  0
  3 18  1  0
  3 19  1  0
  3 20  1  0
  4 21  1  0
  4 22  1  0
  4 23  1  0
  7 24  1  0
  7 25  1  0
 11 26  1  0
 12 27  1  0
 13 28  1  0
M  END
$$$$
