
     RDKit          3D

 40 42  0  0  0  0  0  0  0  0999 V2000
   -5.2910   -1.0504    0.6281 C   0  0  0  0  0  0  0  0  0  0  0  0
   -3.9277   -0.5343    0.2728 C   0  0  0  0  0  0  0  0  0  0  0  0
   -3.4420   -0.6545   -1.0304 C   0  0  0  0  0  0  0  0  0  0  0  0
   -2.1828   -0.1439   -1.4028 C   0  0  0  0  0  0  0  0  0  0  0  0
   -1.7806   -0.3233   -2.8418 C   0  0  0  0  0  0  0  0  0  0  0  0
   -1.3931    0.5042   -0.4219 C   0  0  0  0  0  0  0  0  0  0  0  0
    0.2484    1.1607   -0.8123 S   0  0  0  0  0  6  0  0  0  0  0  0
    0.2914    2.5163   -0.3023 O   0  0  0  0  0  0  0  0  0  0  0  0
    0.5696    0.9068   -2.2018 O   0  0  0  0  0  0  0  0  0  0  0  0
    1.2566    0.1513    0.1248 N   0  0  0  0  0  0  0  0  0  0  0  0
    1.1775   -1.3177   -0.1764 C   0  0  0  0  0  0  0  0  0  0  0  0
    2.5427   -1.9073    0.2112 C   0  0  0  0  0  0  0  0  0  0  0  0
    3.4163   -0.6966    0.2180 C   0  0  0  0  0  0  0  0  0  0  0  0
    4.7979   -0.6522    0.3281 C   0  0  0  0  0  0  0  0  0  0  0  0
    5.4156    0.5971    0.3979 C   0  0  0  0  0  0  0  0  0  0  0  0
    4.6489    1.7715    0.3812 C   0  0  0  0  0  0  0  0  0  0  0  0
    3.2553    1.7122    0.2814 C   0  0  0  0  0  0  0  0  0  0  0  0
    2.6548    0.4709    0.1648 C   0  0  0  0  0  0  0  0  0  0  0  0
   -1.8864    0.6536    0.9019 C   0  0  0  0  0  0  0  0  0  0  0  0
   -1.1503    1.3835    1.9971 C   0  0  0  0  0  0  0  0  0  0  0  0
   -3.1549    0.1356    1.2212 C   0  0  0  0  0  0  0  0  0  0  0  0
   -5.5423   -1.9334    0.0311 H   0  0  0  0  0  0  0  0  0  0  0  0
   -5.3339   -1.3487    1.6810 H   0  0  0  0  0  0  0  0  0  0  0  0
   -6.0429   -0.2758    0.4487 H   0  0  0  0  0  0  0  0  0  0  0  0
   -4.0636   -1.1505   -1.7759 H   0  0  0  0  0  0  0  0  0  0  0  0
   -2.5666   -0.8227   -3.4200 H   0  0  0  0  0  0  0  0  0  0  0  0
   -1.6178    0.6470   -3.3203 H   0  0  0  0  0  0  0  0  0  0  0  0
   -0.8917   -0.9558   -2.9188 H   0  0  0  0  0  0  0  0  0  0  0  0
    1.0020   -1.4877   -1.2449 H   0  0  0  0  0  0  0  0  0  0  0  0
    0.3707   -1.7896    0.3922 H   0  0  0  0  0  0  0  0  0  0  0  0
    2.8718   -2.6609   -0.5099 H   0  0  0  0  0  0  0  0  0  0  0  0
    2.5057   -2.3467    1.2137 H   0  0  0  0  0  0  0  0  0  0  0  0
    5.3879   -1.5621    0.3714 H   0  0  0  0  0  0  0  0  0  0  0  0
    6.4978    0.6627    0.4829 H   0  0  0  0  0  0  0  0  0  0  0  0
    5.1410    2.7385    0.4569 H   0  0  0  0  0  0  0  0  0  0  0  0
    2.6777    2.6297    0.2995 H   0  0  0  0  0  0  0  0  0  0  0  0
   -0.1284    1.0175    2.1132 H   0  0  0  0  0  0  0  0  0  0  0  0
   -1.1480    2.4599    1.8032 H   0  0  0  0  0  0  0  0  0  0  0  0
   -1.6355    1.2339    2.9686 H   0  0  0  0  0  0  0  0  0  0  0  0
   -3.5502    0.2614    2.2289 H   0  0  0  0  0  0  0  0  0  0  0  0
  1  2  1  0
  2  3  2  0
  3  4  1  0
  4  5  1  0
  4  6  2  0
  6  7  1  0
  7  8  2  0
  7  9  2  0
  7 10  1  0
 10 11  1  0
 11 12  1  0
 12 13  1  0
 13 14  2  0
 14 15  1  0
 15 16  2  0
 16 17  1  0
 17 18  2  0
  6 19  1  0
 19 20  1  0
 19 21  2  0
 21  2  1  0
 18 10  1  0
 18 13  1  0
  1 22  1  0
  1 23  1  0
  1 24  1  0
  3 25  1  0
  5 26  1  0
  5 27  1  0
  5 28  1  0
 11 29  1  0
 11 30  1  0
 12 31  1  0
 12 32  1  0
 14 33  1  0
 15 34  1  0
 16 35  1  0
 17 36  1  0
 20 37  1  0
 20 38  1  0
 20 39  1  0
 21 40  1  0
M  END
$$$$
