
     RDKit          3D

 58 63  0  0  0  0  0  0  0  0999 V2000
    6.7367   -3.8877    0.1893 C   0  0  0  0  0  0  0  0  0  0  0  0
    5.7542   -2.8251    0.5435 C   0  0  0  0  0  0  0  0  0  0  0  0
    4.7592   -2.8584    1.4970 C   0  0  0  0  0  0  0  0  0  0  0  0
    4.0215   -1.6395    1.5476 C   0  0  0  0  0  0  0  0  0  0  0  0
    4.4602   -0.7173    0.6154 C   0  0  0  0  0  0  0  0  0  0  0  0
    3.9883    0.6351    0.3499 C   0  0  0  0  0  0  0  0  0  0  0  0
    4.7627    1.5781    0.1769 O   0  0  0  0  0  0  0  0  0  0  0  0
    2.6018    0.8505    0.3142 N   0  0  0  0  0  0  0  0  0  0  0  0
    2.1263    2.2256    0.2252 C   0  0  0  0  0  0  0  0  0  0  0  0
    0.6916    2.3427    0.7272 C   0  0  0  0  0  0  0  0  0  0  0  0
   -0.3057    1.4938   -0.1245 C   0  0  0  0  0  0  0  0  0  0  0  0
    0.4580    0.2956   -0.7608 C   0  0  0  0  0  0  0  0  0  0  0  0
    1.6136   -0.2061    0.0982 C   0  0  0  0  0  0  0  0  0  0  0  0
   -0.7484    2.2781   -1.2666 O   0  0  0  0  0  0  0  0  0  0  0  0
   -1.6487    3.2738   -1.0067 C   0  0  0  0  0  0  0  0  0  0  0  0
   -1.8028    4.2383   -2.0015 C   0  0  0  0  0  0  0  0  0  0  0  0
   -2.6815    5.3070   -1.8079 C   0  0  0  0  0  0  0  0  0  0  0  0
   -3.4069    5.4053   -0.6200 C   0  0  0  0  0  0  0  0  0  0  0  0
   -4.4853    6.7246   -0.3879 Cl  0  0  0  0  0  0  0  0  0  0  0  0
   -3.2705    4.4393    0.3735 C   0  0  0  0  0  0  0  0  0  0  0  0
   -2.3954    3.3684    0.1675 C   0  0  0  0  0  0  0  0  0  0  0  0
   -2.2646    2.3034    1.1799 C   0  0  0  0  0  0  0  0  0  0  0  0
   -2.7675    2.4521    2.2879 O   0  0  0  0  0  0  0  0  0  0  0  0
   -1.5409    1.0451    0.7120 C   0  0  0  0  0  0  0  0  0  0  0  0
   -2.5662    0.1764   -0.0112 C   0  0  0  0  0  0  0  0  0  0  0  0
   -2.2568   -1.1397    0.6124 C   0  0  0  0  0  0  0  0  0  0  0  0
   -2.8363   -2.4054    0.1052 C   0  0  0  0  0  0  0  0  0  0  0  0
   -2.4584   -3.6125    0.7067 C   0  0  0  0  0  0  0  0  0  0  0  0
   -2.9839   -4.8218    0.2486 C   0  0  0  0  0  0  0  0  0  0  0  0
   -3.8890   -4.8313   -0.8109 C   0  0  0  0  0  0  0  0  0  0  0  0
   -4.2717   -3.6328   -1.4118 C   0  0  0  0  0  0  0  0  0  0  0  0
   -3.7490   -2.4195   -0.9557 C   0  0  0  0  0  0  0  0  0  0  0  0
   -1.4426   -1.0854    1.6167 N   0  0  0  0  0  0  0  0  0  0  0  0
   -1.1283    0.2730    1.8425 O   0  0  0  0  0  0  0  0  0  0  0  0
    5.7926   -1.3233   -0.2747 S   0  0  0  0  0  0  0  0  0  0  0  0
    6.5884   -4.7790    0.8081 H   0  0  0  0  0  0  0  0  0  0  0  0
    6.6241   -4.1856   -0.8583 H   0  0  0  0  0  0  0  0  0  0  0  0
    7.7625   -3.5379    0.3459 H   0  0  0  0  0  0  0  0  0  0  0  0
    4.5738   -3.7105    2.1398 H   0  0  0  0  0  0  0  0  0  0  0  0
    3.2146   -1.4478    2.2445 H   0  0  0  0  0  0  0  0  0  0  0  0
    2.7789    2.8750    0.8198 H   0  0  0  0  0  0  0  0  0  0  0  0
    2.2068    2.5477   -0.8200 H   0  0  0  0  0  0  0  0  0  0  0  0
    0.6759    2.0123    1.7734 H   0  0  0  0  0  0  0  0  0  0  0  0
    0.4186    3.4036    0.7242 H   0  0  0  0  0  0  0  0  0  0  0  0
    0.8653    0.6045   -1.7350 H   0  0  0  0  0  0  0  0  0  0  0  0
   -0.2103   -0.5357   -1.0001 H   0  0  0  0  0  0  0  0  0  0  0  0
    1.2631   -0.5373    1.0797 H   0  0  0  0  0  0  0  0  0  0  0  0
    2.0809   -1.0593   -0.4034 H   0  0  0  0  0  0  0  0  0  0  0  0
   -1.2297    4.1689   -2.9234 H   0  0  0  0  0  0  0  0  0  0  0  0
   -2.7916    6.0613   -2.5836 H   0  0  0  0  0  0  0  0  0  0  0  0
   -3.8439    4.5123    1.2952 H   0  0  0  0  0  0  0  0  0  0  0  0
   -2.4388    0.1654   -1.0960 H   0  0  0  0  0  0  0  0  0  0  0  0
   -3.6027    0.4403    0.2270 H   0  0  0  0  0  0  0  0  0  0  0  0
   -1.7563   -3.6203    1.5383 H   0  0  0  0  0  0  0  0  0  0  0  0
   -2.6890   -5.7556    0.7216 H   0  0  0  0  0  0  0  0  0  0  0  0
   -4.2994   -5.7738   -1.1656 H   0  0  0  0  0  0  0  0  0  0  0  0
   -4.9825   -3.6442   -2.2349 H   0  0  0  0  0  0  0  0  0  0  0  0
   -4.0750   -1.5049   -1.4411 H   0  0  0  0  0  0  0  0  0  0  0  0
  1  2  1  0
  2  3  2  0
  3  4  1  0
  4  5  2  0
  5  6  1  0
  6  7  2  0
  6  8  1  0
  8  9  1  0
  9 10  1  0
 10 11  1  0
 11 12  1  0
 12 13  1  0
 11 14  1  0
 14 15  1  0
 15 16  2  0
 16 17  1  0
 17 18  2  0
 18 19  1  0
 18 20  1  0
 20 21  2  0
 21 22  1  0
 22 23  2  0
 22 24  1  0
 24 25  1  0
 25 26  1  0
 26 27  1  0
 27 28  2  0
 28 29  1  0
 29 30  2  0
 30 31  1  0
 31 32  2  0
 26 33  2  0
 33 34  1  0
  5 35  1  0
 35  2  1  0
 13  8  1  0
 21 15  1  0
 34 24  1  0
 24 11  1  0
 32 27  1  0
  1 36  1  0
  1 37  1  0
  1 38  1  0
  3 39  1  0
  4 40  1  0
  9 41  1  0
  9 42  1  0
 10 43  1  0
 10 44  1  0
 12 45  1  0
 12 46  1  0
 13 47  1  0
 13 48  1  0
 16 49  1  0
 17 50  1  0
 20 51  1  0
 25 52  1  0
 25 53  1  0
 28 54  1  0
 29 55  1  0
 30 56  1  0
 31 57  1  0
 32 58  1  0
M  END
$$$$
