
     RDKit          3D

 61 66  0  0  0  0  0  0  0  0999 V2000
   -8.9576   -2.2614   -1.6109 F   0  0  0  0  0  0  0  0  0  0  0  0
   -7.8900   -1.4510   -1.5982 C   0  0  0  0  0  0  0  0  0  0  0  0
   -7.3899   -0.9607   -2.7985 C   0  0  0  0  0  0  0  0  0  0  0  0
   -6.2781   -0.1218   -2.7843 C   0  0  0  0  0  0  0  0  0  0  0  0
   -5.6762    0.2174   -1.5689 C   0  0  0  0  0  0  0  0  0  0  0  0
   -6.1784   -0.2771   -0.3564 C   0  0  0  0  0  0  0  0  0  0  0  0
   -5.5184    0.0823    0.9558 C   0  0  0  0  0  0  0  0  0  0  0  0
   -4.2419   -0.7326    1.2493 C   0  0  0  0  0  0  0  0  0  0  0  0
   -3.0785   -0.3353    0.4388 N   0  0  0  0  0  0  0  0  0  0  0  0
   -2.4684    0.9432    0.8728 C   0  0  0  0  0  0  0  0  0  0  0  0
   -1.1690    0.8107    1.6982 C   0  0  0  0  0  0  0  0  0  0  0  0
   -0.1260    0.0316    0.9906 N   0  0  0  0  0  0  0  0  0  0  0  0
    1.0128    0.6849    0.5969 C   0  0  0  0  0  0  0  0  0  0  0  0
    1.1400    1.9322    0.0155 C   0  0  0  0  0  0  0  0  0  0  0  0
    2.4919    2.1127   -0.3447 C   0  0  0  0  0  0  0  0  0  0  0  0
    3.1765    0.9697    0.0197 C   0  0  0  0  0  0  0  0  0  0  0  0
    4.5625    0.5805   -0.1343 C   0  0  0  0  0  0  0  0  0  0  0  0
    5.4974    1.3977   -0.9505 C   0  0  0  0  0  0  0  0  0  0  0  0
    5.1506    1.8274   -2.2363 C   0  0  0  0  0  0  0  0  0  0  0  0
    6.0570    2.5789   -2.9859 C   0  0  0  0  0  0  0  0  0  0  0  0
    7.3110    2.8896   -2.4589 C   0  0  0  0  0  0  0  0  0  0  0  0
    7.6664    2.4439   -1.1859 C   0  0  0  0  0  0  0  0  0  0  0  0
    6.7637    1.6921   -0.4331 C   0  0  0  0  0  0  0  0  0  0  0  0
    5.0214   -0.4911    0.4419 N   0  0  0  0  0  0  0  0  0  0  0  0
    4.1486   -1.2875    1.2089 C   0  0  0  0  0  0  0  0  0  0  0  0
    4.6898   -2.4092    1.8449 C   0  0  0  0  0  0  0  0  0  0  0  0
    3.8913   -3.2356    2.6369 C   0  0  0  0  0  0  0  0  0  0  0  0
    2.5394   -2.9392    2.8072 C   0  0  0  0  0  0  0  0  0  0  0  0
    1.9800   -1.8239    2.1790 C   0  0  0  0  0  0  0  0  0  0  0  0
    2.7777   -1.0107    1.3670 C   0  0  0  0  0  0  0  0  0  0  0  0
    2.2948    0.1439    0.7012 N   0  0  0  0  0  0  0  0  0  0  0  0
   -0.6676   -0.9311   -0.0069 C   0  0  0  0  0  0  0  0  0  0  0  0
   -2.0707   -1.4203    0.4073 C   0  0  0  0  0  0  0  0  0  0  0  0
   -7.2977   -1.1197   -0.3830 C   0  0  0  0  0  0  0  0  0  0  0  0
   -7.8670   -1.2366   -3.7332 H   0  0  0  0  0  0  0  0  0  0  0  0
   -5.8734    0.2637   -3.7161 H   0  0  0  0  0  0  0  0  0  0  0  0
   -4.7992    0.8626   -1.5715 H   0  0  0  0  0  0  0  0  0  0  0  0
   -6.2323   -0.0987    1.7707 H   0  0  0  0  0  0  0  0  0  0  0  0
   -5.3260    1.1612    0.9784 H   0  0  0  0  0  0  0  0  0  0  0  0
   -4.4740   -1.7908    1.0677 H   0  0  0  0  0  0  0  0  0  0  0  0
   -3.9957   -0.6463    2.3159 H   0  0  0  0  0  0  0  0  0  0  0  0
   -2.2378    1.5104   -0.0382 H   0  0  0  0  0  0  0  0  0  0  0  0
   -3.1794    1.5607    1.4326 H   0  0  0  0  0  0  0  0  0  0  0  0
   -0.8093    1.8080    1.9799 H   0  0  0  0  0  0  0  0  0  0  0  0
   -1.3924    0.2923    2.6391 H   0  0  0  0  0  0  0  0  0  0  0  0
    0.3291    2.6205   -0.1789 H   0  0  0  0  0  0  0  0  0  0  0  0
    2.9087    2.9803   -0.8391 H   0  0  0  0  0  0  0  0  0  0  0  0
    4.1887    1.5662   -2.6685 H   0  0  0  0  0  0  0  0  0  0  0  0
    5.7895    2.9147   -3.9848 H   0  0  0  0  0  0  0  0  0  0  0  0
    8.0171    3.4714   -3.0466 H   0  0  0  0  0  0  0  0  0  0  0  0
    8.6474    2.6762   -0.7812 H   0  0  0  0  0  0  0  0  0  0  0  0
    7.0467    1.3361    0.5549 H   0  0  0  0  0  0  0  0  0  0  0  0
    5.7477   -2.6333    1.7204 H   0  0  0  0  0  0  0  0  0  0  0  0
    4.3280   -4.1020    3.1268 H   0  0  0  0  0  0  0  0  0  0  0  0
    1.9196   -3.5734    3.4366 H   0  0  0  0  0  0  0  0  0  0  0  0
    0.9325   -1.6065    2.3585 H   0  0  0  0  0  0  0  0  0  0  0  0
    0.0030   -1.7946   -0.0864 H   0  0  0  0  0  0  0  0  0  0  0  0
   -0.7229   -0.4626   -0.9991 H   0  0  0  0  0  0  0  0  0  0  0  0
   -2.4051   -2.1872   -0.3008 H   0  0  0  0  0  0  0  0  0  0  0  0
   -1.9890   -1.8975    1.3935 H   0  0  0  0  0  0  0  0  0  0  0  0
   -7.7189   -1.5259    0.5303 H   0  0  0  0  0  0  0  0  0  0  0  0
  1  2  1  0
  2  3  2  0
  3  4  1  0
  4  5  2  0
  5  6  1  0
  6  7  1  0
  7  8  1  0
  8  9  1  0
  9 10  1  0
 10 11  1  0
 11 12  1  0
 12 13  1  0
 13 14  2  0
 14 15  1  0
 15 16  2  0
 16 17  1  0
 17 18  1  0
 18 19  2  0
 19 20  1  0
 20 21  2  0
 21 22  1  0
 22 23  2  0
 17 24  2  0
 24 25  1  0
 25 26  2  0
 26 27  1  0
 27 28  2  0
 28 29  1  0
 29 30  2  0
 30 31  1  0
 12 32  1  0
 32 33  1  0
  6 34  2  0
 34  2  1  0
 33  9  1  0
 31 13  1  0
 31 16  1  0
 23 18  1  0
 30 25  1  0
  3 35  1  0
  4 36  1  0
  5 37  1  0
  7 38  1  0
  7 39  1  0
  8 40  1  0
  8 41  1  0
 10 42  1  0
 10 43  1  0
 11 44  1  0
 11 45  1  0
 14 46  1  0
 15 47  1  0
 19 48  1  0
 20 49  1  0
 21 50  1  0
 22 51  1  0
 23 52  1  0
 26 53  1  0
 27 54  1  0
 28 55  1  0
 29 56  1  0
 32 57  1  0
 32 58  1  0
 33 59  1  0
 33 60  1  0
 34 61  1  0
M  END
$$$$
