
     RDKit          3D

 28 30  0  0  0  0  0  0  0  0999 V2000
   -0.8869    2.9560    2.0051 N   0  0  0  0  0  0  0  0  0  0  0  0
   -0.6587    2.0365    1.3339 C   0  0  0  0  0  0  0  0  0  0  0  0
   -0.3904    0.8935    0.5175 C   0  0  0  0  0  0  0  0  0  0  0  0
   -0.9727    0.7482   -0.6941 C   0  0  0  0  0  0  0  0  0  0  0  0
   -1.9200    1.6758   -1.3291 C   0  0  0  0  0  0  0  0  0  0  0  0
   -1.6052    2.2204   -2.5744 C   0  0  0  0  0  0  0  0  0  0  0  0
   -2.5194    3.0731   -3.1715 C   0  0  0  0  0  0  0  0  0  0  0  0
   -3.7061    3.4040   -2.6217 N   0  0  0  0  0  0  0  0  0  0  0  0
   -3.9927    2.8583   -1.4210 C   0  0  0  0  0  0  0  0  0  0  0  0
   -3.1467    1.9938   -0.7450 C   0  0  0  0  0  0  0  0  0  0  0  0
    0.5237   -0.1341    0.9495 C   0  0  0  0  0  0  0  0  0  0  0  0
    0.8620   -1.2069    0.2524 N   0  0  0  0  0  0  0  0  0  0  0  0
    1.7592   -2.0023    0.9439 C   0  0  0  0  0  0  0  0  0  0  0  0
    2.3161   -3.2128    0.4842 C   0  0  0  0  0  0  0  0  0  0  0  0
    3.2149   -3.9158    1.2931 C   0  0  0  0  0  0  0  0  0  0  0  0
    3.5624   -3.4272    2.5485 C   0  0  0  0  0  0  0  0  0  0  0  0
    3.0225   -2.2287    3.0254 C   0  0  0  0  0  0  0  0  0  0  0  0
    2.1209   -1.5324    2.2032 C   0  0  0  0  0  0  0  0  0  0  0  0
    1.3008   -0.0554    2.5027 S   0  0  0  0  0  0  0  0  0  0  0  0
   -0.7334   -0.1170   -1.3139 H   0  0  0  0  0  0  0  0  0  0  0  0
   -0.6696    1.9957   -3.0756 H   0  0  0  0  0  0  0  0  0  0  0  0
   -2.3152    3.5252   -4.1380 H   0  0  0  0  0  0  0  0  0  0  0  0
   -4.9548    3.1405   -1.0023 H   0  0  0  0  0  0  0  0  0  0  0  0
   -3.4535    1.5838    0.2112 H   0  0  0  0  0  0  0  0  0  0  0  0
    2.0425   -3.5911   -0.4958 H   0  0  0  0  0  0  0  0  0  0  0  0
    3.6431   -4.8496    0.9359 H   0  0  0  0  0  0  0  0  0  0  0  0
    4.2629   -3.9833    3.1685 H   0  0  0  0  0  0  0  0  0  0  0  0
    3.2946   -1.8484    4.0056 H   0  0  0  0  0  0  0  0  0  0  0  0
  1  2  3  0
  2  3  1  0
  3  4  2  3
  4  5  1  0
  5  6  2  0
  6  7  1  0
  7  8  2  0
  8  9  1  0
  9 10  2  0
  3 11  1  0
 11 12  2  0
 12 13  1  0
 13 14  2  0
 14 15  1  0
 15 16  2  0
 16 17  1  0
 17 18  2  0
 18 19  1  0
 10  5  1  0
 19 11  1  0
 18 13  1  0
  4 20  1  0
  6 21  1  0
  7 22  1  0
  9 23  1  0
 10 24  1  0
 14 25  1  0
 15 26  1  0
 16 27  1  0
 17 28  1  0
M  END
$$$$
