
     RDKit          3D

 24 26  0  0  0  0  0  0  0  0999 V2000
   -4.4133   -1.3725   -1.3483 F   0  0  0  0  0  0  0  0  0  0  0  0
   -3.2736   -0.7737   -0.9852 C   0  0  0  0  0  0  0  0  0  0  0  0
   -2.5250   -0.0901   -1.9364 C   0  0  0  0  0  0  0  0  0  0  0  0
   -1.3334    0.5342   -1.5607 C   0  0  0  0  0  0  0  0  0  0  0  0
   -0.8967    0.4664   -0.2293 C   0  0  0  0  0  0  0  0  0  0  0  0
    0.3471    1.0936    0.1602 C   0  0  0  0  0  0  0  0  0  0  0  0
    0.5377    2.4632    0.2087 C   0  0  0  0  0  0  0  0  0  0  0  0
    2.1489    2.8234    0.7415 S   0  0  0  0  0  0  0  0  0  0  0  0
    2.5103    1.1792    0.8618 C   0  0  0  0  0  0  0  0  0  0  0  0
    1.4915    0.4276    0.5299 N   0  0  0  0  0  4  0  0  0  0  0  0
    1.7196   -1.0075    0.6251 C   0  0  0  0  0  0  0  0  0  0  0  0
    3.2384   -1.2409    0.6942 C   0  0  0  0  0  0  0  0  0  0  0  0
    3.9471    0.3351    1.3082 S   0  0  0  0  0  0  0  0  0  0  0  0
   -1.6639   -0.2230    0.7219 C   0  0  0  0  0  0  0  0  0  0  0  0
   -2.8550   -0.8439    0.3388 C   0  0  0  0  0  0  0  0  0  0  0  0
   -2.8802   -0.0464   -2.9630 H   0  0  0  0  0  0  0  0  0  0  0  0
   -0.7633    1.0675   -2.3202 H   0  0  0  0  0  0  0  0  0  0  0  0
   -0.1584    3.2616   -0.0187 H   0  0  0  0  0  0  0  0  0  0  0  0
    1.2343   -1.3712    1.5387 H   0  0  0  0  0  0  0  0  0  0  0  0
    1.2863   -1.5277   -0.2350 H   0  0  0  0  0  0  0  0  0  0  0  0
    3.6399   -1.4278   -0.3067 H   0  0  0  0  0  0  0  0  0  0  0  0
    3.4970   -2.0804    1.3447 H   0  0  0  0  0  0  0  0  0  0  0  0
   -1.3664   -0.2715    1.7678 H   0  0  0  0  0  0  0  0  0  0  0  0
   -3.4687   -1.3751    1.0621 H   0  0  0  0  0  0  0  0  0  0  0  0
  1  2  1  0
  2  3  2  0
  3  4  1  0
  4  5  2  0
  5  6  1  0
  6  7  2  0
  7  8  1  0
  8  9  1  0
  9 10  2  0
 10 11  1  0
 11 12  1  0
 12 13  1  0
  5 14  1  0
 14 15  2  0
 15  2  1  0
 10  6  1  0
 13  9  1  0
  3 16  1  0
  4 17  1  0
  7 18  1  0
 11 19  1  0
 11 20  1  0
 12 21  1  0
 12 22  1  0
 14 23  1  0
 15 24  1  0
M  CHG  1  10   1
M  END
$$$$
