
     RDKit          3D

 48 50  0  0  0  0  0  0  0  0999 V2000
    9.4339   -1.9636    1.4160 C   0  0  0  0  0  0  0  0  0  0  0  0
    8.9998   -0.8883    0.5934 O   0  0  0  0  0  0  0  0  0  0  0  0
    7.6508   -0.7199    0.4524 C   0  0  0  0  0  0  0  0  0  0  0  0
    7.2786    0.3700   -0.3388 C   0  0  0  0  0  0  0  0  0  0  0  0
    5.9306    0.6659   -0.5711 C   0  0  0  0  0  0  0  0  0  0  0  0
    4.9302   -0.1320   -0.0103 C   0  0  0  0  0  0  0  0  0  0  0  0
    3.5860    0.0706   -0.1720 O   0  0  0  0  0  0  0  0  0  0  0  0
    3.1695    1.1406   -1.0192 C   0  0  0  0  0  0  0  0  0  0  0  0
    1.6896    1.1023   -1.0678 C   0  0  0  0  0  0  0  0  0  0  0  0
    0.7416    0.1170   -0.9339 C   0  0  0  0  0  0  0  0  0  0  0  0
   -0.4966    0.7816   -1.1121 C   0  0  0  0  0  0  0  0  0  0  0  0
   -1.8365    0.1935   -1.0641 C   0  0  0  0  0  0  0  0  0  0  0  0
   -2.0302   -0.9971   -0.8345 O   0  0  0  0  0  0  0  0  0  0  0  0
   -2.8585    1.0945   -1.2867 N   0  0  0  0  0  0  0  0  0  0  0  0
   -4.2649    0.7316   -1.1479 C   0  0  0  0  0  0  0  0  0  0  0  0
   -5.1175    1.7005   -1.9640 C   0  0  0  0  0  0  0  0  0  0  0  0
   -4.6732    0.7010    0.3356 C   0  0  0  0  0  0  0  0  0  0  0  0
   -6.0157    0.0540    0.5582 C   0  0  0  0  0  0  0  0  0  0  0  0
   -6.1327   -1.3345    0.5937 C   0  0  0  0  0  0  0  0  0  0  0  0
   -7.3907   -1.8971    0.7871 C   0  0  0  0  0  0  0  0  0  0  0  0
   -8.4934   -1.0632    0.9397 C   0  0  0  0  0  0  0  0  0  0  0  0
   -8.2903    0.3049    0.8870 C   0  0  0  0  0  0  0  0  0  0  0  0
   -7.0823    0.8797    0.6946 N   0  0  0  0  0  0  0  0  0  0  0  0
   -0.3025    2.0944   -1.3409 N   0  0  0  0  0  0  0  0  0  0  0  0
    1.0668    2.2859   -1.3148 O   0  0  0  0  0  0  0  0  0  0  0  0
    5.3105   -1.2276    0.7838 C   0  0  0  0  0  0  0  0  0  0  0  0
    4.1245   -2.2649    1.5092 Cl  0  0  0  0  0  0  0  0  0  0  0  0
    6.6601   -1.5209    1.0145 C   0  0  0  0  0  0  0  0  0  0  0  0
    9.1182   -2.9275    1.0040 H   0  0  0  0  0  0  0  0  0  0  0  0
   10.5279   -1.9503    1.4318 H   0  0  0  0  0  0  0  0  0  0  0  0
    9.0826   -1.8395    2.4465 H   0  0  0  0  0  0  0  0  0  0  0  0
    8.0500    1.0015   -0.7773 H   0  0  0  0  0  0  0  0  0  0  0  0
    5.7072    1.5254   -1.1908 H   0  0  0  0  0  0  0  0  0  0  0  0
    3.5020    2.1000   -0.6071 H   0  0  0  0  0  0  0  0  0  0  0  0
    3.5613    1.0042   -2.0336 H   0  0  0  0  0  0  0  0  0  0  0  0
    0.9089   -0.9319   -0.7318 H   0  0  0  0  0  0  0  0  0  0  0  0
   -2.5896    2.0730   -1.3471 H   0  0  0  0  0  0  0  0  0  0  0  0
   -4.3793   -0.2712   -1.5763 H   0  0  0  0  0  0  0  0  0  0  0  0
   -6.1689    1.3994   -1.9726 H   0  0  0  0  0  0  0  0  0  0  0  0
   -5.0541    2.7176   -1.5648 H   0  0  0  0  0  0  0  0  0  0  0  0
   -4.7735    1.7352   -3.0035 H   0  0  0  0  0  0  0  0  0  0  0  0
   -4.6866    1.7204    0.7418 H   0  0  0  0  0  0  0  0  0  0  0  0
   -3.9272    0.1591    0.9304 H   0  0  0  0  0  0  0  0  0  0  0  0
   -5.2602   -1.9694    0.4768 H   0  0  0  0  0  0  0  0  0  0  0  0
   -7.5070   -2.9773    0.8244 H   0  0  0  0  0  0  0  0  0  0  0  0
   -9.4855   -1.4708    1.0962 H   0  0  0  0  0  0  0  0  0  0  0  0
   -9.1186    0.9983    1.0008 H   0  0  0  0  0  0  0  0  0  0  0  0
    6.9051   -2.3748    1.6339 H   0  0  0  0  0  0  0  0  0  0  0  0
  1  2  1  0
  2  3  1  0
  3  4  2  0
  4  5  1  0
  5  6  2  0
  6  7  1  0
  7  8  1  0
  8  9  1  0
  9 10  2  0
 10 11  1  0
 11 12  1  0
 12 13  2  0
 12 14  1  0
 14 15  1  0
 15 16  1  0
 15 17  1  0
 17 18  1  0
 18 19  2  0
 19 20  1  0
 20 21  2  0
 21 22  1  0
 22 23  2  0
 11 24  2  0
 24 25  1  0
  6 26  1  0
 26 27  1  0
 26 28  2  0
 28  3  1  0
 25  9  1  0
 23 18  1  0
  1 29  1  0
  1 30  1  0
  1 31  1  0
  4 32  1  0
  5 33  1  0
  8 34  1  0
  8 35  1  0
 10 36  1  0
 14 37  1  0
 15 38  1  0
 16 39  1  0
 16 40  1  0
 16 41  1  0
 17 42  1  0
 17 43  1  0
 19 44  1  0
 20 45  1  0
 21 46  1  0
 22 47  1  0
 28 48  1  0
M  END
$$$$
