
     RDKit          3D

 57 59  0  0  0  0  0  0  0  0999 V2000
   -1.7752   -1.3734   -4.7283 C   0  0  0  0  0  0  0  0  0  0  0  0
   -1.6426   -0.9305   -3.3492 N   0  0  0  0  0  0  0  0  0  0  0  0
   -1.2960    0.3474   -2.9403 C   0  0  0  0  0  0  0  0  0  0  0  0
   -0.9088    1.5568   -4.0446 S   0  0  0  0  0  0  0  0  0  0  0  0
   -1.3255    0.5146   -1.5408 N   0  0  0  0  0  0  0  0  0  0  0  0
   -2.0447   -0.4184   -0.6507 C   0  0  0  0  0  0  0  0  0  0  0  0
   -3.5572   -0.1778   -0.6722 C   0  0  0  0  0  0  0  0  0  0  0  0
   -4.2861   -1.1741    0.1931 C   0  0  0  0  0  0  0  0  0  0  0  0
   -4.8052   -2.3499   -0.3641 C   0  0  0  0  0  0  0  0  0  0  0  0
   -5.4458   -3.2906    0.4464 C   0  0  0  0  0  0  0  0  0  0  0  0
   -5.5786   -3.0633    1.8178 C   0  0  0  0  0  0  0  0  0  0  0  0
   -5.0773   -1.8880    2.3908 C   0  0  0  0  0  0  0  0  0  0  0  0
   -5.1944   -1.6580    3.8702 C   0  0  0  0  0  0  0  0  0  0  0  0
   -4.4175   -0.9552    1.5732 C   0  0  0  0  0  0  0  0  0  0  0  0
   -0.9018    1.7708   -0.8832 C   0  0  0  0  0  0  0  0  0  0  0  0
    0.4300    1.5740   -0.2139 C   0  0  0  0  0  0  0  0  0  0  0  0
    1.5950    1.5577   -0.8830 C   0  0  0  0  0  0  0  0  0  0  0  0
    2.8696    1.3997   -0.1837 C   0  0  0  0  0  0  0  0  0  0  0  0
    4.0823    1.3916   -0.8723 C   0  0  0  0  0  0  0  0  0  0  0  0
    5.2894    1.2524   -0.1749 C   0  0  0  0  0  0  0  0  0  0  0  0
    6.5287    1.2493   -0.7651 O   0  0  0  0  0  0  0  0  0  0  0  0
    6.5887    1.3631   -2.1801 C   0  0  0  0  0  0  0  0  0  0  0  0
    5.2772    1.1083    1.2276 C   0  0  0  0  0  0  0  0  0  0  0  0
    6.5055    0.9790    1.8274 O   0  0  0  0  0  0  0  0  0  0  0  0
    6.5385    0.7863    3.2322 C   0  0  0  0  0  0  0  0  0  0  0  0
    4.0589    1.1119    1.9127 C   0  0  0  0  0  0  0  0  0  0  0  0
    2.8672    1.2630    1.2042 C   0  0  0  0  0  0  0  0  0  0  0  0
    1.6469    1.2949    1.8885 N   0  0  0  0  0  0  0  0  0  0  0  0
    0.4333    1.4668    1.2768 C   0  0  0  0  0  0  0  0  0  0  0  0
   -0.6020    1.5325    1.9380 O   0  0  0  0  0  0  0  0  0  0  0  0
   -2.1684   -2.3931   -4.7199 H   0  0  0  0  0  0  0  0  0  0  0  0
   -2.4699   -0.7192   -5.2671 H   0  0  0  0  0  0  0  0  0  0  0  0
   -0.7918   -1.3645   -5.2110 H   0  0  0  0  0  0  0  0  0  0  0  0
   -1.3463   -1.6608   -2.7212 H   0  0  0  0  0  0  0  0  0  0  0  0
   -1.8268   -1.4536   -0.9249 H   0  0  0  0  0  0  0  0  0  0  0  0
   -1.6544   -0.3103    0.3675 H   0  0  0  0  0  0  0  0  0  0  0  0
   -3.9440   -0.2324   -1.6970 H   0  0  0  0  0  0  0  0  0  0  0  0
   -3.7854    0.8381   -0.3282 H   0  0  0  0  0  0  0  0  0  0  0  0
   -4.7108   -2.5416   -1.4315 H   0  0  0  0  0  0  0  0  0  0  0  0
   -5.8420   -4.2038    0.0087 H   0  0  0  0  0  0  0  0  0  0  0  0
   -6.0767   -3.8091    2.4381 H   0  0  0  0  0  0  0  0  0  0  0  0
   -4.3622   -2.1322    4.3942 H   0  0  0  0  0  0  0  0  0  0  0  0
   -5.1948   -0.5889    4.1045 H   0  0  0  0  0  0  0  0  0  0  0  0
   -6.1318   -2.0681    4.2489 H   0  0  0  0  0  0  0  0  0  0  0  0
   -4.0010   -0.0516    2.0164 H   0  0  0  0  0  0  0  0  0  0  0  0
   -0.8232    2.5983   -1.5911 H   0  0  0  0  0  0  0  0  0  0  0  0
   -1.6849    2.0781   -0.1820 H   0  0  0  0  0  0  0  0  0  0  0  0
    1.6164    1.6616   -1.9637 H   0  0  0  0  0  0  0  0  0  0  0  0
    4.0660    1.5008   -1.9483 H   0  0  0  0  0  0  0  0  0  0  0  0
    6.1051    0.5065   -2.6595 H   0  0  0  0  0  0  0  0  0  0  0  0
    6.1550    2.3098   -2.5197 H   0  0  0  0  0  0  0  0  0  0  0  0
    7.6451    1.3622   -2.4760 H   0  0  0  0  0  0  0  0  0  0  0  0
    6.1047    1.6404    3.7604 H   0  0  0  0  0  0  0  0  0  0  0  0
    7.5874    0.7090    3.5345 H   0  0  0  0  0  0  0  0  0  0  0  0
    6.0415   -0.1475    3.5113 H   0  0  0  0  0  0  0  0  0  0  0  0
    4.0190    1.0074    2.9896 H   0  0  0  0  0  0  0  0  0  0  0  0
    1.6217    1.2234    2.9006 H   0  0  0  0  0  0  0  0  0  0  0  0
  1  2  1  0
  2  3  1  0
  3  4  2  0
  3  5  1  0
  5  6  1  0
  6  7  1  0
  7  8  1  0
  8  9  2  0
  9 10  1  0
 10 11  2  0
 11 12  1  0
 12 13  1  0
 12 14  2  0
  5 15  1  0
 15 16  1  0
 16 17  2  0
 17 18  1  0
 18 19  2  0
 19 20  1  0
 20 21  1  0
 21 22  1  0
 20 23  2  0
 23 24  1  0
 24 25  1  0
 23 26  1  0
 26 27  2  0
 27 28  1  0
 28 29  1  0
 29 30  2  0
 14  8  1  0
 29 16  1  0
 27 18  1  0
  1 31  1  0
  1 32  1  0
  1 33  1  0
  2 34  1  0
  6 35  1  0
  6 36  1  0
  7 37  1  0
  7 38  1  0
  9 39  1  0
 10 40  1  0
 11 41  1  0
 13 42  1  0
 13 43  1  0
 13 44  1  0
 14 45  1  0
 15 46  1  0
 15 47  1  0
 17 48  1  0
 19 49  1  0
 22 50  1  0
 22 51  1  0
 22 52  1  0
 25 53  1  0
 25 54  1  0
 25 55  1  0
 26 56  1  0
 28 57  1  0
M  END
$$$$
