
     RDKit          3D

 60 65  0  0  0  0  0  0  0  0999 V2000
    2.9372   -5.5518    0.9507 O   0  0  0  0  0  0  0  0  0  0  0  0
    2.6514   -4.4978    0.3942 C   0  0  0  0  0  0  0  0  0  0  0  0
    1.5890   -3.7079    0.8159 N   0  0  0  0  0  0  0  0  0  0  0  0
    1.1925   -2.5285    0.1900 C   0  0  0  0  0  0  0  0  0  0  0  0
    0.0044   -1.8358    0.8453 C   0  0  0  0  0  0  0  0  0  0  0  0
   -0.8077   -1.0009   -0.1526 C   0  0  0  0  0  0  0  0  0  0  0  0
   -0.2910    0.4269   -0.2631 C   0  0  0  0  0  0  0  0  0  0  0  0
   -0.2931    1.1091    1.0497 N   0  0  0  0  0  0  0  0  0  0  0  0
   -1.0223    2.6389    1.1534 S   0  0  0  0  0  6  0  0  0  0  0  0
   -0.7552    3.3557   -0.0747 O   0  0  0  0  0  0  0  0  0  0  0  0
   -0.6882    3.2075    2.4417 O   0  0  0  0  0  0  0  0  0  0  0  0
   -2.7592    2.2453    1.1841 C   0  0  0  0  0  0  0  0  0  0  0  0
   -3.4218    2.1447    2.4139 C   0  0  0  0  0  0  0  0  0  0  0  0
   -4.7837    1.8471    2.4410 C   0  0  0  0  0  0  0  0  0  0  0  0
   -5.4767    1.6568    1.2470 C   0  0  0  0  0  0  0  0  0  0  0  0
   -4.8197    1.8068    0.0206 C   0  0  0  0  0  0  0  0  0  0  0  0
   -3.4581    2.0988   -0.0164 C   0  0  0  0  0  0  0  0  0  0  0  0
   -5.4521    1.6740   -1.1882 O   0  0  0  0  0  0  0  0  0  0  0  0
   -6.8755    1.7446   -1.0403 C   0  0  0  0  0  0  0  0  0  0  0  0
   -7.3357    0.8665    0.1103 C   0  0  0  0  0  0  0  0  0  0  0  0
   -6.8059    1.3383    1.3539 O   0  0  0  0  0  0  0  0  0  0  0  0
   -0.3411    0.2478    2.2477 C   0  0  0  0  0  0  0  0  0  0  0  0
    0.5111   -0.9966    2.0276 C   0  0  0  0  0  0  0  0  0  0  0  0
    1.8027   -2.0062   -0.8382 N   0  0  0  0  0  0  0  0  0  0  0  0
    2.8682   -2.7390   -1.2454 C   0  0  0  0  0  0  0  0  0  0  0  0
    3.3330   -3.9265   -0.7344 C   0  0  0  0  0  0  0  0  0  0  0  0
    4.4246   -4.3542   -1.4246 N   0  0  0  0  0  0  0  0  0  0  0  0
    4.6817   -3.4423   -2.3606 N   0  0  0  0  0  0  0  0  0  0  0  0
    3.7648   -2.4491   -2.2336 N   0  0  0  0  0  0  0  0  0  0  0  0
    3.8221   -1.2728   -3.0770 C   0  0  0  0  0  0  0  0  0  0  0  0
    4.4885   -0.1167   -2.3672 C   0  0  0  0  0  0  0  0  0  0  0  0
    3.7322    0.9823   -1.9313 C   0  0  0  0  0  0  0  0  0  0  0  0
    4.3467    2.0380   -1.2560 C   0  0  0  0  0  0  0  0  0  0  0  0
    5.7149    1.9974   -1.0159 C   0  0  0  0  0  0  0  0  0  0  0  0
    6.3029    3.0057   -0.3614 F   0  0  0  0  0  0  0  0  0  0  0  0
    6.4827    0.9219   -1.4406 C   0  0  0  0  0  0  0  0  0  0  0  0
    5.8718   -0.1342   -2.1174 C   0  0  0  0  0  0  0  0  0  0  0  0
    1.0860   -4.0741    1.6117 H   0  0  0  0  0  0  0  0  0  0  0  0
   -0.6589   -2.6213    1.2304 H   0  0  0  0  0  0  0  0  0  0  0  0
   -0.8194   -1.4719   -1.1423 H   0  0  0  0  0  0  0  0  0  0  0  0
   -1.8526   -0.9699    0.1835 H   0  0  0  0  0  0  0  0  0  0  0  0
    0.7337    0.4433   -0.6454 H   0  0  0  0  0  0  0  0  0  0  0  0
   -0.9021    0.9623   -0.9943 H   0  0  0  0  0  0  0  0  0  0  0  0
   -2.8878    2.3017    3.3486 H   0  0  0  0  0  0  0  0  0  0  0  0
   -5.3060    1.7645    3.3890 H   0  0  0  0  0  0  0  0  0  0  0  0
   -2.9607    2.2279   -0.9742 H   0  0  0  0  0  0  0  0  0  0  0  0
   -7.1599    2.7926   -0.8857 H   0  0  0  0  0  0  0  0  0  0  0  0
   -7.3232    1.4043   -1.9786 H   0  0  0  0  0  0  0  0  0  0  0  0
   -8.4266    0.8860    0.1880 H   0  0  0  0  0  0  0  0  0  0  0  0
   -7.0209   -0.1747   -0.0284 H   0  0  0  0  0  0  0  0  0  0  0  0
   -1.3732   -0.0414    2.4713 H   0  0  0  0  0  0  0  0  0  0  0  0
    0.0572    0.7926    3.1104 H   0  0  0  0  0  0  0  0  0  0  0  0
    0.5079   -1.6098    2.9359 H   0  0  0  0  0  0  0  0  0  0  0  0
    1.5530   -0.6926    1.8674 H   0  0  0  0  0  0  0  0  0  0  0  0
    2.7958   -1.0260   -3.3728 H   0  0  0  0  0  0  0  0  0  0  0  0
    4.3711   -1.5269   -3.9910 H   0  0  0  0  0  0  0  0  0  0  0  0
    2.6587    1.0213   -2.1062 H   0  0  0  0  0  0  0  0  0  0  0  0
    3.7656    2.8871   -0.9123 H   0  0  0  0  0  0  0  0  0  0  0  0
    7.5490    0.9095   -1.2374 H   0  0  0  0  0  0  0  0  0  0  0  0
    6.4780   -0.9783   -2.4385 H   0  0  0  0  0  0  0  0  0  0  0  0
  1  2  2  0
  2  3  1  0
  3  4  1  0
  4  5  1  0
  5  6  1  0
  6  7  1  0
  7  8  1  0
  8  9  1  0
  9 10  2  0
  9 11  2  0
  9 12  1  0
 12 13  2  0
 13 14  1  0
 14 15  2  0
 15 16  1  0
 16 17  2  0
 16 18  1  0
 18 19  1  0
 19 20  1  0
 20 21  1  0
  8 22  1  0
 22 23  1  0
  4 24  2  0
 24 25  1  0
 25 26  2  0
 26 27  1  0
 27 28  2  0
 28 29  1  0
 29 30  1  0
 30 31  1  0
 31 32  2  0
 32 33  1  0
 33 34  2  0
 34 35  1  0
 34 36  1  0
 36 37  2  0
 26  2  1  0
 37 31  1  0
 23  5  1  0
 29 25  1  0
 17 12  1  0
 21 15  1  0
  3 38  1  0
  5 39  1  0
  6 40  1  0
  6 41  1  0
  7 42  1  0
  7 43  1  0
 13 44  1  0
 14 45  1  0
 17 46  1  0
 19 47  1  0
 19 48  1  0
 20 49  1  0
 20 50  1  0
 22 51  1  0
 22 52  1  0
 23 53  1  0
 23 54  1  0
 30 55  1  0
 30 56  1  0
 32 57  1  0
 33 58  1  0
 36 59  1  0
 37 60  1  0
M  END
$$$$
