
     RDKit          3D

 37 38  0  0  0  0  0  0  0  0999 V2000
   -7.6579    0.9092   -0.4622 C   0  0  0  0  0  0  0  0  0  0  0  0
   -6.1578    0.9951   -0.5976 C   0  0  0  0  0  0  0  0  0  0  0  0
   -5.6414    1.8459   -1.3125 O   0  0  0  0  0  0  0  0  0  0  0  0
   -5.5099    0.0158    0.1339 N   0  0  0  0  0  0  0  0  0  0  0  0
   -4.1206   -0.2018    0.2358 C   0  0  0  0  0  0  0  0  0  0  0  0
   -3.6991   -1.2727    1.0342 C   0  0  0  0  0  0  0  0  0  0  0  0
   -2.3378   -1.5568    1.1892 C   0  0  0  0  0  0  0  0  0  0  0  0
   -1.3750   -0.7712    0.5463 C   0  0  0  0  0  0  0  0  0  0  0  0
    0.0593   -1.1132    0.7421 C   0  0  0  0  0  0  0  0  0  0  0  0
    0.4479   -2.0430    1.4322 O   0  0  0  0  0  0  0  0  0  0  0  0
    0.8540   -0.2597    0.0568 O   0  0  0  0  0  0  0  0  0  0  0  0
    2.2496   -0.5272    0.1975 C   0  0  0  0  0  0  0  0  0  0  0  0
    3.0654    0.4796   -0.6030 C   0  0  0  0  0  0  0  0  0  0  0  0
    2.5484    1.3807   -1.2623 O   0  0  0  0  0  0  0  0  0  0  0  0
    4.5570    0.3612   -0.5814 C   0  0  0  0  0  0  0  0  0  0  0  0
    5.3089    1.2898   -1.3208 C   0  0  0  0  0  0  0  0  0  0  0  0
    6.7039    1.2223   -1.3334 C   0  0  0  0  0  0  0  0  0  0  0  0
    7.3463    0.2278   -0.6078 C   0  0  0  0  0  0  0  0  0  0  0  0
    8.6835    0.1607   -0.6181 F   0  0  0  0  0  0  0  0  0  0  0  0
    6.6201   -0.7002    0.1300 C   0  0  0  0  0  0  0  0  0  0  0  0
    5.2229   -0.6368    0.1459 C   0  0  0  0  0  0  0  0  0  0  0  0
   -1.7922    0.2998   -0.2515 C   0  0  0  0  0  0  0  0  0  0  0  0
   -3.1571    0.5805   -0.4038 C   0  0  0  0  0  0  0  0  0  0  0  0
   -8.0997    1.8832   -0.6915 H   0  0  0  0  0  0  0  0  0  0  0  0
   -8.0425    0.1622   -1.1615 H   0  0  0  0  0  0  0  0  0  0  0  0
   -7.9436    0.6399    0.5588 H   0  0  0  0  0  0  0  0  0  0  0  0
   -6.0976   -0.6259    0.6510 H   0  0  0  0  0  0  0  0  0  0  0  0
   -4.4201   -1.9035    1.5482 H   0  0  0  0  0  0  0  0  0  0  0  0
   -2.0340   -2.3945    1.8144 H   0  0  0  0  0  0  0  0  0  0  0  0
    2.5257   -0.4358    1.2538 H   0  0  0  0  0  0  0  0  0  0  0  0
    2.4610   -1.5305   -0.1887 H   0  0  0  0  0  0  0  0  0  0  0  0
    4.8102    2.0720   -1.8918 H   0  0  0  0  0  0  0  0  0  0  0  0
    7.2882    1.9379   -1.9035 H   0  0  0  0  0  0  0  0  0  0  0  0
    7.1474   -1.4680    0.6887 H   0  0  0  0  0  0  0  0  0  0  0  0
    4.6872   -1.3775    0.7328 H   0  0  0  0  0  0  0  0  0  0  0  0
   -1.0705    0.9318   -0.7660 H   0  0  0  0  0  0  0  0  0  0  0  0
   -3.4302    1.4230   -1.0327 H   0  0  0  0  0  0  0  0  0  0  0  0
  1  2  1  0
  2  3  2  0
  2  4  1  0
  4  5  1  0
  5  6  2  0
  6  7  1  0
  7  8  2  0
  8  9  1  0
  9 10  2  0
  9 11  1  0
 11 12  1  0
 12 13  1  0
 13 14  2  0
 13 15  1  0
 15 16  2  0
 16 17  1  0
 17 18  2  0
 18 19  1  0
 18 20  1  0
 20 21  2  0
  8 22  1  0
 22 23  2  0
 23  5  1  0
 21 15  1  0
  1 24  1  0
  1 25  1  0
  1 26  1  0
  4 27  1  0
  6 28  1  0
  7 29  1  0
 12 30  1  0
 12 31  1  0
 16 32  1  0
 17 33  1  0
 20 34  1  0
 21 35  1  0
 22 36  1  0
 23 37  1  0
M  END
$$$$
