
     RDKit          3D

 39 39  0  0  0  0  0  0  0  0999 V2000
   -2.0912    3.5240    0.0304 C   0  0  0  0  0  0  0  0  0  0  0  0
   -2.5871    2.1755   -0.3919 C   0  0  0  0  0  0  0  0  0  0  0  0
   -3.7663    1.8804   -0.5214 O   0  0  0  0  0  0  0  0  0  0  0  0
   -1.5356    1.3389   -0.6148 O   0  0  0  0  0  0  0  0  0  0  0  0
   -1.9134    0.0206   -1.0338 C   0  0  0  0  0  0  0  0  0  0  0  0
   -0.6511   -0.7919   -1.3124 C   0  0  0  0  0  0  0  0  0  0  0  0
    0.2463   -0.9611   -0.0703 C   0  0  0  0  0  0  0  0  0  0  0  0
    1.5177   -1.5942   -0.5008 N   0  0  0  0  0  0  0  0  0  0  0  0
    2.8546   -0.5856   -0.5714 S   0  0  0  0  0  6  0  0  0  0  0  0
    2.9756    0.0678    0.7104 O   0  0  0  0  0  0  0  0  0  0  0  0
    3.9417   -1.3626   -1.1167 O   0  0  0  0  0  0  0  0  0  0  0  0
    2.4335    0.5255   -1.6698 O   0  0  0  0  0  0  0  0  0  0  0  0
    3.2711    1.6684   -1.8255 C   0  0  0  0  0  0  0  0  0  0  0  0
    2.4773    2.9761   -1.6790 C   0  0  0  0  0  0  0  0  0  0  0  0
    1.7574    3.1229   -0.0473 Cl  0  0  0  0  0  0  0  0  0  0  0  0
    3.5695    4.3714   -1.9470 Cl  0  0  0  0  0  0  0  0  0  0  0  0
    1.1547    3.0522   -2.8883 Cl  0  0  0  0  0  0  0  0  0  0  0  0
   -0.3990   -1.7915    1.0275 C   0  0  0  0  0  0  0  0  0  0  0  0
   -0.4838   -1.2758    2.3305 C   0  0  0  0  0  0  0  0  0  0  0  0
   -1.0594   -2.0267    3.3569 C   0  0  0  0  0  0  0  0  0  0  0  0
   -1.5496   -3.3044    3.0970 C   0  0  0  0  0  0  0  0  0  0  0  0
   -1.4600   -3.8356    1.8124 C   0  0  0  0  0  0  0  0  0  0  0  0
   -0.8847   -3.0870    0.7842 C   0  0  0  0  0  0  0  0  0  0  0  0
   -2.9444    4.1619    0.2789 H   0  0  0  0  0  0  0  0  0  0  0  0
   -1.5339    3.9861   -0.7881 H   0  0  0  0  0  0  0  0  0  0  0  0
   -1.4625    3.4270    0.9194 H   0  0  0  0  0  0  0  0  0  0  0  0
   -2.5250   -0.4544   -0.2588 H   0  0  0  0  0  0  0  0  0  0  0  0
   -2.5007    0.0905   -1.9571 H   0  0  0  0  0  0  0  0  0  0  0  0
   -0.9313   -1.7642   -1.7345 H   0  0  0  0  0  0  0  0  0  0  0  0
   -0.0783   -0.2722   -2.0911 H   0  0  0  0  0  0  0  0  0  0  0  0
    0.4517    0.0368    0.3349 H   0  0  0  0  0  0  0  0  0  0  0  0
    1.7580   -2.4182    0.0517 H   0  0  0  0  0  0  0  0  0  0  0  0
    3.7155    1.6020   -2.8258 H   0  0  0  0  0  0  0  0  0  0  0  0
    4.1034    1.6471   -1.1097 H   0  0  0  0  0  0  0  0  0  0  0  0
   -0.0989   -0.2831    2.5592 H   0  0  0  0  0  0  0  0  0  0  0  0
   -1.1228   -1.6145    4.3611 H   0  0  0  0  0  0  0  0  0  0  0  0
   -1.9973   -3.8880    3.8975 H   0  0  0  0  0  0  0  0  0  0  0  0
   -1.8365   -4.8358    1.6120 H   0  0  0  0  0  0  0  0  0  0  0  0
   -0.8150   -3.5284   -0.2081 H   0  0  0  0  0  0  0  0  0  0  0  0
  1  2  1  0
  2  3  2  0
  2  4  1  0
  4  5  1  0
  5  6  1  0
  6  7  1  0
  7  8  1  0
  8  9  1  0
  9 10  2  0
  9 11  2  0
  9 12  1  0
 12 13  1  0
 13 14  1  0
 14 15  1  0
 14 16  1  0
 14 17  1  0
  7 18  1  0
 18 19  2  0
 19 20  1  0
 20 21  2  0
 21 22  1  0
 22 23  2  0
 23 18  1  0
  1 24  1  0
  1 25  1  0
  1 26  1  0
  5 27  1  0
  5 28  1  0
  6 29  1  0
  6 30  1  0
  7 31  1  0
  8 32  1  0
 13 33  1  0
 13 34  1  0
 19 35  1  0
 20 36  1  0
 21 37  1  0
 22 38  1  0
 23 39  1  0
M  END
$$$$
