
     RDKit          3D

 31 33  0  0  0  0  0  0  0  0999 V2000
    4.8996    1.2517   -2.2604 C   0  0  0  0  0  0  0  0  0  0  0  0
    4.1725    1.5838   -1.0584 N   0  0  0  0  0  0  0  0  0  0  0  0
    4.5846    2.4068   -0.0541 C   0  0  0  0  0  0  0  0  0  0  0  0
    3.5669    2.4161    0.8691 C   0  0  0  0  0  0  0  0  0  0  0  0
    2.5680    1.5623    0.3366 C   0  0  0  0  0  0  0  0  0  0  0  0
    1.2625    1.2237    0.9364 C   0  0  0  0  0  0  0  0  0  0  0  0
    0.9205    1.6885    2.0161 O   0  0  0  0  0  0  0  0  0  0  0  0
    0.5584    0.3573    0.1202 N   0  0  0  0  0  0  0  0  0  0  0  0
   -0.6954   -0.1877    0.3295 C   0  0  0  0  0  0  0  0  0  0  0  0
   -1.5982    0.1788    1.7476 S   0  0  0  0  0  0  0  0  0  0  0  0
   -2.8554   -0.7946    1.2434 C   0  0  0  0  0  0  0  0  0  0  0  0
   -2.6399   -1.4014    0.0389 C   0  0  0  0  0  0  0  0  0  0  0  0
   -1.3830   -1.0591   -0.5096 C   0  0  0  0  0  0  0  0  0  0  0  0
   -0.8782   -1.5403   -1.7585 C   0  0  0  0  0  0  0  0  0  0  0  0
   -0.4625   -1.9268   -2.7709 N   0  0  0  0  0  0  0  0  0  0  0  0
   -3.7945   -2.2526   -0.3440 C   0  0  0  0  0  0  0  0  0  0  0  0
   -4.8960   -1.7884    0.6613 C   0  0  0  0  0  0  0  0  0  0  0  0
   -4.1593   -1.1217    1.8643 C   0  0  0  0  0  0  0  0  0  0  0  0
    2.9512    1.0526   -0.8548 N   0  0  0  0  0  0  0  0  0  0  0  0
    5.0557    0.1703   -2.2802 H   0  0  0  0  0  0  0  0  0  0  0  0
    4.3062    1.5713   -3.1206 H   0  0  0  0  0  0  0  0  0  0  0  0
    5.8625    1.7684   -2.2578 H   0  0  0  0  0  0  0  0  0  0  0  0
    5.5428    2.9070   -0.0748 H   0  0  0  0  0  0  0  0  0  0  0  0
    3.5312    2.9581    1.8045 H   0  0  0  0  0  0  0  0  0  0  0  0
    1.0613    0.1147   -0.7330 H   0  0  0  0  0  0  0  0  0  0  0  0
   -4.1131   -2.0971   -1.3784 H   0  0  0  0  0  0  0  0  0  0  0  0
   -3.5578   -3.3107   -0.1904 H   0  0  0  0  0  0  0  0  0  0  0  0
   -5.5303   -1.0374    0.1717 H   0  0  0  0  0  0  0  0  0  0  0  0
   -5.5454   -2.6115    0.9754 H   0  0  0  0  0  0  0  0  0  0  0  0
   -4.7021   -0.2435    2.2241 H   0  0  0  0  0  0  0  0  0  0  0  0
   -4.0328   -1.8386    2.6820 H   0  0  0  0  0  0  0  0  0  0  0  0
  1  2  1  0
  2  3  1  0
  3  4  2  0
  4  5  1  0
  5  6  1  0
  6  7  2  0
  6  8  1  0
  8  9  1  0
  9 10  1  0
 10 11  1  0
 11 12  2  0
 12 13  1  0
 13 14  1  0
 14 15  3  0
 12 16  1  0
 16 17  1  0
 17 18  1  0
  5 19  2  0
 19  2  1  0
 13  9  2  0
 18 11  1  0
  1 20  1  0
  1 21  1  0
  1 22  1  0
  3 23  1  0
  4 24  1  0
  8 25  1  0
 16 26  1  0
 16 27  1  0
 17 28  1  0
 17 29  1  0
 18 30  1  0
 18 31  1  0
M  END
$$$$
