
     RDKit          3D

 57 62  0  0  0  0  0  0  0  0999 V2000
    7.3000    0.2843    2.8018 C   0  0  0  0  0  0  0  0  0  0  0  0
    6.1024   -0.2250    2.0756 C   0  0  0  0  0  0  0  0  0  0  0  0
    5.0216   -0.9178    2.5790 C   0  0  0  0  0  0  0  0  0  0  0  0
    4.0736   -1.2453    1.5662 C   0  0  0  0  0  0  0  0  0  0  0  0
    4.4493   -0.7752    0.3215 C   0  0  0  0  0  0  0  0  0  0  0  0
    3.7731   -0.9050   -0.9610 C   0  0  0  0  0  0  0  0  0  0  0  0
    4.3634   -1.2711   -1.9780 O   0  0  0  0  0  0  0  0  0  0  0  0
    2.3968   -0.6229   -1.0043 N   0  0  0  0  0  0  0  0  0  0  0  0
    1.6953    0.1730   -0.0002 C   0  0  0  0  0  0  0  0  0  0  0  0
    0.6522    1.0968   -0.6237 C   0  0  0  0  0  0  0  0  0  0  0  0
   -0.3810    0.3588   -1.5206 C   0  0  0  0  0  0  0  0  0  0  0  0
    0.1862   -0.9965   -2.0204 C   0  0  0  0  0  0  0  0  0  0  0  0
    1.6899   -0.9088   -2.2491 C   0  0  0  0  0  0  0  0  0  0  0  0
   -0.5049    1.1291   -2.7520 O   0  0  0  0  0  0  0  0  0  0  0  0
   -1.3469    2.1995   -2.7583 C   0  0  0  0  0  0  0  0  0  0  0  0
   -1.2369    3.0589   -3.8517 C   0  0  0  0  0  0  0  0  0  0  0  0
   -2.0444    4.1961   -3.9349 C   0  0  0  0  0  0  0  0  0  0  0  0
   -2.9641    4.4694   -2.9228 C   0  0  0  0  0  0  0  0  0  0  0  0
   -3.9511    5.8740   -3.0239 Cl  0  0  0  0  0  0  0  0  0  0  0  0
   -3.0894    3.6117   -1.8336 C   0  0  0  0  0  0  0  0  0  0  0  0
   -2.2822    2.4713   -1.7671 C   0  0  0  0  0  0  0  0  0  0  0  0
   -2.4041    1.5367   -0.6423 C   0  0  0  0  0  0  0  0  0  0  0  0
   -2.9802    1.8891    0.3840 O   0  0  0  0  0  0  0  0  0  0  0  0
   -1.7639    0.1653   -0.8362 C   0  0  0  0  0  0  0  0  0  0  0  0
   -1.7467   -0.6105    0.4744 C   0  0  0  0  0  0  0  0  0  0  0  0
   -3.0219   -1.3664    0.3045 C   0  0  0  0  0  0  0  0  0  0  0  0
   -3.6700   -2.0767    1.4235 C   0  0  0  0  0  0  0  0  0  0  0  0
   -3.1256   -2.1164    2.7079 C   0  0  0  0  0  0  0  0  0  0  0  0
   -3.7957   -2.8129    3.7135 C   0  0  0  0  0  0  0  0  0  0  0  0
   -4.9862   -3.4483    3.3982 C   0  0  0  0  0  0  0  0  0  0  0  0
   -5.5376   -3.4326    2.1668 N   0  0  0  0  0  0  0  0  0  0  0  0
   -4.8695   -2.7457    1.2063 C   0  0  0  0  0  0  0  0  0  0  0  0
   -3.4863   -1.3794   -0.9037 N   0  0  0  0  0  0  0  0  0  0  0  0
   -2.6262   -0.5932   -1.7002 O   0  0  0  0  0  0  0  0  0  0  0  0
    5.9662    0.0152    0.3870 S   0  0  0  0  0  0  0  0  0  0  0  0
    8.2137   -0.1826    2.4194 H   0  0  0  0  0  0  0  0  0  0  0  0
    7.2323    0.0611    3.8718 H   0  0  0  0  0  0  0  0  0  0  0  0
    7.3888    1.3701    2.6917 H   0  0  0  0  0  0  0  0  0  0  0  0
    4.9211   -1.1905    3.6231 H   0  0  0  0  0  0  0  0  0  0  0  0
    3.1674   -1.8114    1.7416 H   0  0  0  0  0  0  0  0  0  0  0  0
    1.2229   -0.5252    0.6977 H   0  0  0  0  0  0  0  0  0  0  0  0
    2.4054    0.7828    0.5668 H   0  0  0  0  0  0  0  0  0  0  0  0
    0.1533    1.6552    0.1767 H   0  0  0  0  0  0  0  0  0  0  0  0
    1.1841    1.8507   -1.2206 H   0  0  0  0  0  0  0  0  0  0  0  0
   -0.0031   -1.8029   -1.3045 H   0  0  0  0  0  0  0  0  0  0  0  0
   -0.2952   -1.2861   -2.9630 H   0  0  0  0  0  0  0  0  0  0  0  0
    2.0577   -1.8550   -2.6624 H   0  0  0  0  0  0  0  0  0  0  0  0
    1.9384   -0.1185   -2.9675 H   0  0  0  0  0  0  0  0  0  0  0  0
   -0.5171    2.8481   -4.6396 H   0  0  0  0  0  0  0  0  0  0  0  0
   -1.9499    4.8627   -4.7887 H   0  0  0  0  0  0  0  0  0  0  0  0
   -3.8138    3.8193   -1.0494 H   0  0  0  0  0  0  0  0  0  0  0  0
   -1.7373    0.0186    1.3671 H   0  0  0  0  0  0  0  0  0  0  0  0
   -0.9391   -1.3422    0.5458 H   0  0  0  0  0  0  0  0  0  0  0  0
   -2.1932   -1.6185    2.9512 H   0  0  0  0  0  0  0  0  0  0  0  0
   -3.3998   -2.8587    4.7224 H   0  0  0  0  0  0  0  0  0  0  0  0
   -5.5438   -4.0021    4.1486 H   0  0  0  0  0  0  0  0  0  0  0  0
   -5.3477   -2.7540    0.2295 H   0  0  0  0  0  0  0  0  0  0  0  0
  1  2  1  0
  2  3  2  0
  3  4  1  0
  4  5  2  0
  5  6  1  0
  6  7  2  0
  6  8  1  0
  8  9  1  0
  9 10  1  0
 10 11  1  0
 11 12  1  0
 12 13  1  0
 11 14  1  0
 14 15  1  0
 15 16  2  0
 16 17  1  0
 17 18  2  0
 18 19  1  0
 18 20  1  0
 20 21  2  0
 21 22  1  0
 22 23  2  0
 22 24  1  0
 24 25  1  0
 25 26  1  0
 26 27  1  0
 27 28  2  0
 28 29  1  0
 29 30  2  0
 30 31  1  0
 31 32  2  0
 26 33  2  0
 33 34  1  0
  5 35  1  0
 35  2  1  0
 13  8  1  0
 21 15  1  0
 34 24  1  0
 24 11  1  0
 32 27  1  0
  1 36  1  0
  1 37  1  0
  1 38  1  0
  3 39  1  0
  4 40  1  0
  9 41  1  0
  9 42  1  0
 10 43  1  0
 10 44  1  0
 12 45  1  0
 12 46  1  0
 13 47  1  0
 13 48  1  0
 16 49  1  0
 17 50  1  0
 20 51  1  0
 25 52  1  0
 25 53  1  0
 28 54  1  0
 29 55  1  0
 30 56  1  0
 32 57  1  0
M  END
$$$$
