
     RDKit          3D

 51 55  0  0  0  0  0  0  0  0999 V2000
  -10.5003   -0.2847   -3.0325 C   0  0  0  0  0  0  0  0  0  0  0  0
   -9.7163   -0.1958   -1.7555 C   0  0  0  0  0  0  0  0  0  0  0  0
  -10.3611    0.1020   -0.5503 C   0  0  0  0  0  0  0  0  0  0  0  0
   -9.6429    0.1548    0.6452 C   0  0  0  0  0  0  0  0  0  0  0  0
   -8.2692   -0.0874    0.6524 C   0  0  0  0  0  0  0  0  0  0  0  0
   -7.6130   -0.3796   -0.5475 C   0  0  0  0  0  0  0  0  0  0  0  0
   -6.1456   -0.6259   -0.5986 C   0  0  0  0  0  0  0  0  0  0  0  0
   -5.7282   -1.4913   -1.3559 O   0  0  0  0  0  0  0  0  0  0  0  0
   -5.4056    0.2070    0.2078 N   0  0  0  0  0  0  0  0  0  0  0  0
   -4.0368    0.2513    0.3023 C   0  0  0  0  0  0  0  0  0  0  0  0
   -3.4209    1.1429    1.0505 N   0  0  0  0  0  0  0  0  0  0  0  0
   -2.0452    1.0203    0.9742 N   0  0  0  0  0  0  0  0  0  0  0  0
   -1.6849    0.0375    0.1752 C   0  0  0  0  0  0  0  0  0  0  0  0
   -0.0117   -0.3661   -0.1197 S   0  0  0  0  0  0  0  0  0  0  0  0
    0.7495    1.2578    0.1731 C   0  0  0  0  0  0  0  0  0  0  0  0
    2.2419    1.1853   -0.1085 C   0  0  0  0  0  0  0  0  0  0  0  0
    2.7267    1.7692   -1.0747 O   0  0  0  0  0  0  0  0  0  0  0  0
    2.9358    0.4418    0.8377 N   0  0  0  0  0  0  0  0  0  0  0  0
    4.3230    0.1848    0.8850 C   0  0  0  0  0  0  0  0  0  0  0  0
    4.7721   -0.6422    1.9295 C   0  0  0  0  0  0  0  0  0  0  0  0
    6.1288   -0.9709    2.0814 C   0  0  0  0  0  0  0  0  0  0  0  0
    7.0542   -0.4562    1.1575 C   0  0  0  0  0  0  0  0  0  0  0  0
    6.5795    0.3587    0.1357 C   0  0  0  0  0  0  0  0  0  0  0  0
    5.2382    0.7055   -0.0375 C   0  0  0  0  0  0  0  0  0  0  0  0
    7.6035    0.7656   -0.6657 O   0  0  0  0  0  0  0  0  0  0  0  0
    8.7426    0.2153   -0.1661 C   0  0  0  0  0  0  0  0  0  0  0  0
   10.0195    0.3827   -0.7013 C   0  0  0  0  0  0  0  0  0  0  0  0
   11.0653   -0.2674   -0.0375 C   0  0  0  0  0  0  0  0  0  0  0  0
   10.8287   -1.0416    1.1028 C   0  0  0  0  0  0  0  0  0  0  0  0
    9.5309   -1.1918    1.6164 C   0  0  0  0  0  0  0  0  0  0  0  0
    8.4631   -0.5479    0.9639 C   0  0  0  0  0  0  0  0  0  0  0  0
   -2.9926   -0.8224   -0.5142 S   0  0  0  0  0  0  0  0  0  0  0  0
   -8.3412   -0.4578   -1.7419 C   0  0  0  0  0  0  0  0  0  0  0  0
   -9.8596   -0.1129   -3.9043 H   0  0  0  0  0  0  0  0  0  0  0  0
  -10.9585   -1.2744   -3.1236 H   0  0  0  0  0  0  0  0  0  0  0  0
  -11.2862    0.4757   -3.0597 H   0  0  0  0  0  0  0  0  0  0  0  0
  -11.4329    0.2924   -0.5372 H   0  0  0  0  0  0  0  0  0  0  0  0
  -10.1632    0.3723    1.5751 H   0  0  0  0  0  0  0  0  0  0  0  0
   -7.7405   -0.0817    1.6027 H   0  0  0  0  0  0  0  0  0  0  0  0
   -5.8651    0.9426    0.7281 H   0  0  0  0  0  0  0  0  0  0  0  0
    0.5955    1.5803    1.2083 H   0  0  0  0  0  0  0  0  0  0  0  0
    0.3058    2.0043   -0.4933 H   0  0  0  0  0  0  0  0  0  0  0  0
    2.3751   -0.0112    1.5516 H   0  0  0  0  0  0  0  0  0  0  0  0
    4.0684   -1.0514    2.6526 H   0  0  0  0  0  0  0  0  0  0  0  0
    6.4523   -1.6111    2.8947 H   0  0  0  0  0  0  0  0  0  0  0  0
    4.9623    1.3493   -0.8622 H   0  0  0  0  0  0  0  0  0  0  0  0
   10.1830    0.9871   -1.5861 H   0  0  0  0  0  0  0  0  0  0  0  0
   12.0815   -0.1676   -0.4158 H   0  0  0  0  0  0  0  0  0  0  0  0
   11.6619   -1.5370    1.6007 H   0  0  0  0  0  0  0  0  0  0  0  0
    9.3598   -1.7970    2.5025 H   0  0  0  0  0  0  0  0  0  0  0  0
   -7.8271   -0.7132   -2.6644 H   0  0  0  0  0  0  0  0  0  0  0  0
  1  2  1  0
  2  3  2  0
  3  4  1  0
  4  5  2  0
  5  6  1  0
  6  7  1  0
  7  8  2  0
  7  9  1  0
  9 10  1  0
 10 11  2  0
 11 12  1  0
 12 13  2  0
 13 14  1  0
 14 15  1  0
 15 16  1  0
 16 17  2  0
 16 18  1  0
 18 19  1  0
 19 20  2  0
 20 21  1  0
 21 22  2  0
 22 23  1  0
 23 24  2  0
 23 25  1  0
 25 26  1  0
 26 27  2  0
 27 28  1  0
 28 29  2  0
 29 30  1  0
 30 31  2  0
 13 32  1  0
  6 33  2  0
 33  2  1  0
 32 10  1  0
 24 19  1  0
 31 26  1  0
 31 22  1  0
  1 34  1  0
  1 35  1  0
  1 36  1  0
  3 37  1  0
  4 38  1  0
  5 39  1  0
  9 40  1  0
 15 41  1  0
 15 42  1  0
 18 43  1  0
 20 44  1  0
 21 45  1  0
 24 46  1  0
 27 47  1  0
 28 48  1  0
 29 49  1  0
 30 50  1  0
 33 51  1  0
M  END
$$$$
