
     RDKit          3D

 65 69  0  0  0  0  0  0  0  0999 V2000
   -1.0029   -4.5604    2.1671 C   0  0  0  0  0  0  0  0  0  0  0  0
   -1.5934   -3.2853    1.9570 O   0  0  0  0  0  0  0  0  0  0  0  0
   -2.0523   -3.0158    0.6965 C   0  0  0  0  0  0  0  0  0  0  0  0
   -2.0261   -3.8916   -0.3892 C   0  0  0  0  0  0  0  0  0  0  0  0
   -2.5269   -3.4864   -1.6286 C   0  0  0  0  0  0  0  0  0  0  0  0
   -3.0551   -2.2046   -1.7877 C   0  0  0  0  0  0  0  0  0  0  0  0
   -3.0918   -1.3141   -0.7072 C   0  0  0  0  0  0  0  0  0  0  0  0
   -3.6234    0.0464   -0.8706 C   0  0  0  0  0  0  0  0  0  0  0  0
   -5.2659    0.2310   -1.3155 S   0  0  0  0  0  0  0  0  0  0  0  0
   -5.1764    1.9447   -1.2926 C   0  0  0  0  0  0  0  0  0  0  0  0
   -6.2177    2.8488   -1.5785 C   0  0  0  0  0  0  0  0  0  0  0  0
   -5.9675    4.2240   -1.5173 C   0  0  0  0  0  0  0  0  0  0  0  0
   -4.7075    4.6986   -1.1814 C   0  0  0  0  0  0  0  0  0  0  0  0
   -4.3408    6.0134   -1.0929 O   0  0  0  0  0  0  0  0  0  0  0  0
   -5.3319    6.9828   -1.4080 C   0  0  0  0  0  0  0  0  0  0  0  0
   -3.6819    3.7891   -0.8964 C   0  0  0  0  0  0  0  0  0  0  0  0
   -3.9003    2.3867   -0.9439 C   0  0  0  0  0  0  0  0  0  0  0  0
   -3.0055    1.2767   -0.6940 C   0  0  0  0  0  0  0  0  0  0  0  0
   -1.6042    1.3822   -0.2975 C   0  0  0  0  0  0  0  0  0  0  0  0
   -0.5867    0.9446   -1.1519 C   0  0  0  0  0  0  0  0  0  0  0  0
    0.7529    1.0131   -0.7523 C   0  0  0  0  0  0  0  0  0  0  0  0
    1.0862    1.5226    0.5030 C   0  0  0  0  0  0  0  0  0  0  0  0
    2.3432    1.6235    1.0304 O   0  0  0  0  0  0  0  0  0  0  0  0
    3.4368    1.0297    0.3228 C   0  0  0  0  0  0  0  0  0  0  0  0
    3.5114   -0.4875    0.5792 C   0  0  0  0  0  0  0  0  0  0  0  0
    4.5873   -1.1744   -0.1615 N   0  0  0  0  0  0  0  0  0  0  0  0
    4.4670   -2.6381   -0.0536 C   0  0  0  0  0  0  0  0  0  0  0  0
    5.3977   -3.2551    0.9881 C   0  0  0  0  0  0  0  0  0  0  0  0
    6.8630   -2.9621    0.6703 C   0  0  0  0  0  0  0  0  0  0  0  0
    7.0360   -1.6620   -0.1119 C   0  0  0  0  0  0  0  0  0  0  0  0
    5.9203   -0.6692    0.2092 C   0  0  0  0  0  0  0  0  0  0  0  0
    0.0690    1.9837    1.3437 C   0  0  0  0  0  0  0  0  0  0  0  0
   -1.2695    1.9138    0.9508 C   0  0  0  0  0  0  0  0  0  0  0  0
   -2.5876   -1.7342    0.5316 C   0  0  0  0  0  0  0  0  0  0  0  0
   -1.7318   -5.3621    2.0119 H   0  0  0  0  0  0  0  0  0  0  0  0
   -0.1214   -4.6973    1.5324 H   0  0  0  0  0  0  0  0  0  0  0  0
   -0.6724   -4.6082    3.2093 H   0  0  0  0  0  0  0  0  0  0  0  0
   -1.6234   -4.8955   -0.3058 H   0  0  0  0  0  0  0  0  0  0  0  0
   -2.5043   -4.1704   -2.4733 H   0  0  0  0  0  0  0  0  0  0  0  0
   -3.4313   -1.9019   -2.7622 H   0  0  0  0  0  0  0  0  0  0  0  0
   -7.2063    2.4852   -1.8445 H   0  0  0  0  0  0  0  0  0  0  0  0
   -6.7902    4.8951   -1.7424 H   0  0  0  0  0  0  0  0  0  0  0  0
   -4.8755    7.9721   -1.3072 H   0  0  0  0  0  0  0  0  0  0  0  0
   -5.6727    6.8769   -2.4429 H   0  0  0  0  0  0  0  0  0  0  0  0
   -6.1711    6.9301   -0.7073 H   0  0  0  0  0  0  0  0  0  0  0  0
   -2.6961    4.1700   -0.6377 H   0  0  0  0  0  0  0  0  0  0  0  0
   -0.8291    0.5366   -2.1305 H   0  0  0  0  0  0  0  0  0  0  0  0
    1.5038    0.6491   -1.4453 H   0  0  0  0  0  0  0  0  0  0  0  0
    3.4164    1.2791   -0.7438 H   0  0  0  0  0  0  0  0  0  0  0  0
    4.3378    1.5079    0.7238 H   0  0  0  0  0  0  0  0  0  0  0  0
    2.5480   -0.9250    0.2908 H   0  0  0  0  0  0  0  0  0  0  0  0
    3.6028   -0.6677    1.6589 H   0  0  0  0  0  0  0  0  0  0  0  0
    4.7106   -3.0639   -1.0352 H   0  0  0  0  0  0  0  0  0  0  0  0
    3.4339   -2.9472    0.1445 H   0  0  0  0  0  0  0  0  0  0  0  0
    5.1500   -2.8575    1.9808 H   0  0  0  0  0  0  0  0  0  0  0  0
    5.2435   -4.3389    1.0406 H   0  0  0  0  0  0  0  0  0  0  0  0
    7.4277   -2.9166    1.6093 H   0  0  0  0  0  0  0  0  0  0  0  0
    7.2957   -3.7867    0.0893 H   0  0  0  0  0  0  0  0  0  0  0  0
    7.0342   -1.8774   -1.1886 H   0  0  0  0  0  0  0  0  0  0  0  0
    8.0146   -1.2227    0.1146 H   0  0  0  0  0  0  0  0  0  0  0  0
    5.9678   -0.4331    1.2805 H   0  0  0  0  0  0  0  0  0  0  0  0
    6.1120    0.2620   -0.3361 H   0  0  0  0  0  0  0  0  0  0  0  0
    0.3197    2.3889    2.3212 H   0  0  0  0  0  0  0  0  0  0  0  0
   -2.0434    2.2621    1.6305 H   0  0  0  0  0  0  0  0  0  0  0  0
   -2.6052   -1.0577    1.3839 H   0  0  0  0  0  0  0  0  0  0  0  0
  1  2  1  0
  2  3  1  0
  3  4  2  0
  4  5  1  0
  5  6  2  0
  6  7  1  0
  7  8  1  0
  8  9  1  0
  9 10  1  0
 10 11  2  0
 11 12  1  0
 12 13  2  0
 13 14  1  0
 14 15  1  0
 13 16  1  0
 16 17  2  0
 17 18  1  0
 18 19  1  0
 19 20  2  0
 20 21  1  0
 21 22  2  0
 22 23  1  0
 23 24  1  0
 24 25  1  0
 25 26  1  0
 26 27  1  0
 27 28  1  0
 28 29  1  0
 29 30  1  0
 30 31  1  0
 22 32  1  0
 32 33  2  0
  7 34  2  0
 34  3  1  0
 18  8  2  0
 33 19  1  0
 17 10  1  0
 31 26  1  0
  1 35  1  0
  1 36  1  0
  1 37  1  0
  4 38  1  0
  5 39  1  0
  6 40  1  0
 11 41  1  0
 12 42  1  0
 15 43  1  0
 15 44  1  0
 15 45  1  0
 16 46  1  0
 20 47  1  0
 21 48  1  0
 24 49  1  0
 24 50  1  0
 25 51  1  0
 25 52  1  0
 27 53  1  0
 27 54  1  0
 28 55  1  0
 28 56  1  0
 29 57  1  0
 29 58  1  0
 30 59  1  0
 30 60  1  0
 31 61  1  0
 31 62  1  0
 32 63  1  0
 33 64  1  0
 34 65  1  0
M  END
$$$$
