
     RDKit          3D

 38 38  0  0  0  0  0  0  0  0999 V2000
    5.6632    0.4296    2.7048 C   0  0  0  0  0  0  0  0  0  0  0  0
    5.1696    1.1455    1.5799 O   0  0  0  0  0  0  0  0  0  0  0  0
    4.3315    2.2365    1.9802 C   0  0  0  0  0  0  0  0  0  0  0  0
    3.8180    2.9469    0.7268 C   0  0  0  0  0  0  0  0  0  0  0  0
    2.9670    2.0817   -0.0771 N   0  0  0  0  0  0  0  0  0  0  0  0
    1.6436    1.8826    0.2465 C   0  0  0  0  0  0  0  0  0  0  0  0
    1.1001    2.5069    1.1558 O   0  0  0  0  0  0  0  0  0  0  0  0
    0.9033    0.8476   -0.5600 C   0  0  0  0  0  0  0  0  0  0  0  0
    1.5659    0.2321   -1.6527 C   0  0  0  0  0  0  0  0  0  0  0  0
    2.1521   -0.2500   -2.5314 N   0  0  0  0  0  0  0  0  0  0  0  0
   -0.3659    0.5817   -0.1814 C   0  0  0  0  0  0  0  0  0  0  0  0
   -1.3780   -0.3427   -0.7145 C   0  0  0  0  0  0  0  0  0  0  0  0
   -1.0531   -1.2218   -1.8973 C   0  0  0  0  0  0  0  0  0  0  0  0
   -2.5848   -0.3681   -0.1068 C   0  0  0  0  0  0  0  0  0  0  0  0
   -3.7163   -1.2167   -0.4907 C   0  0  0  0  0  0  0  0  0  0  0  0
   -3.8721   -2.4825    0.0837 C   0  0  0  0  0  0  0  0  0  0  0  0
   -4.9482   -3.2917   -0.2853 C   0  0  0  0  0  0  0  0  0  0  0  0
   -5.8708   -2.8392   -1.2282 C   0  0  0  0  0  0  0  0  0  0  0  0
   -5.7192   -1.5778   -1.8035 C   0  0  0  0  0  0  0  0  0  0  0  0
   -4.6439   -0.7669   -1.4360 C   0  0  0  0  0  0  0  0  0  0  0  0
    6.2980   -0.3838    2.3434 H   0  0  0  0  0  0  0  0  0  0  0  0
    6.2637    1.0852    3.3427 H   0  0  0  0  0  0  0  0  0  0  0  0
    4.8361   -0.0006    3.2776 H   0  0  0  0  0  0  0  0  0  0  0  0
    4.9188    2.9380    2.5830 H   0  0  0  0  0  0  0  0  0  0  0  0
    3.4977    1.8563    2.5813 H   0  0  0  0  0  0  0  0  0  0  0  0
    4.6555    3.2395    0.0850 H   0  0  0  0  0  0  0  0  0  0  0  0
    3.2554    3.8437    1.0060 H   0  0  0  0  0  0  0  0  0  0  0  0
    3.4576    1.4425   -0.6925 H   0  0  0  0  0  0  0  0  0  0  0  0
   -0.7340    1.1465    0.6806 H   0  0  0  0  0  0  0  0  0  0  0  0
   -0.8132   -0.6132   -2.7752 H   0  0  0  0  0  0  0  0  0  0  0  0
   -1.8798   -1.8736   -2.1947 H   0  0  0  0  0  0  0  0  0  0  0  0
   -0.2121   -1.8836   -1.6661 H   0  0  0  0  0  0  0  0  0  0  0  0
   -2.8040    0.2718    0.7466 H   0  0  0  0  0  0  0  0  0  0  0  0
   -3.1569   -2.8454    0.8178 H   0  0  0  0  0  0  0  0  0  0  0  0
   -5.0660   -4.2752    0.1620 H   0  0  0  0  0  0  0  0  0  0  0  0
   -6.7080   -3.4701   -1.5154 H   0  0  0  0  0  0  0  0  0  0  0  0
   -6.4377   -1.2258   -2.5391 H   0  0  0  0  0  0  0  0  0  0  0  0
   -4.5331    0.2140   -1.8920 H   0  0  0  0  0  0  0  0  0  0  0  0
  1  2  1  0
  2  3  1  0
  3  4  1  0
  4  5  1  0
  5  6  1  0
  6  7  2  0
  6  8  1  0
  8  9  1  0
  9 10  3  0
  8 11  2  3
 11 12  1  0
 12 13  1  0
 12 14  2  3
 14 15  1  0
 15 16  2  0
 16 17  1  0
 17 18  2  0
 18 19  1  0
 19 20  2  0
 20 15  1  0
  1 21  1  0
  1 22  1  0
  1 23  1  0
  3 24  1  0
  3 25  1  0
  4 26  1  0
  4 27  1  0
  5 28  1  0
 11 29  1  0
 13 30  1  0
 13 31  1  0
 13 32  1  0
 14 33  1  0
 16 34  1  0
 17 35  1  0
 18 36  1  0
 19 37  1  0
 20 38  1  0
M  END
$$$$
