
     RDKit          3D

 44 46  0  0  0  0  0  0  0  0999 V2000
    7.6762   -2.9828    1.4767 C   0  0  0  0  0  0  0  0  0  0  0  0
    6.4877   -2.4633    0.7222 C   0  0  0  0  0  0  0  0  0  0  0  0
    6.5052   -2.4106   -0.6764 C   0  0  0  0  0  0  0  0  0  0  0  0
    5.4102   -1.9005   -1.3783 C   0  0  0  0  0  0  0  0  0  0  0  0
    4.2915   -1.4179   -0.6892 C   0  0  0  0  0  0  0  0  0  0  0  0
    3.1503   -0.8832   -1.4833 C   0  0  0  0  0  0  0  0  0  0  0  0
    2.9808   -1.2323   -2.6462 O   0  0  0  0  0  0  0  0  0  0  0  0
    2.3372    0.0326   -0.8571 N   0  0  0  0  0  0  0  0  0  0  0  0
    1.2471    0.6700   -1.5776 C   0  0  0  0  0  0  0  0  0  0  0  0
    0.5204    1.6491   -0.6714 C   0  0  0  0  0  0  0  0  0  0  0  0
    0.8911    1.9494    0.4590 O   0  0  0  0  0  0  0  0  0  0  0  0
   -0.5733    2.1508   -1.3018 O   0  0  0  0  0  0  0  0  0  0  0  0
   -1.3592    3.0718   -0.5273 C   0  0  0  0  0  0  0  0  0  0  0  0
   -2.3579    2.3725    0.3390 C   0  0  0  0  0  0  0  0  0  0  0  0
   -2.1889    2.0106    1.6602 C   0  0  0  0  0  0  0  0  0  0  0  0
   -3.5906    1.2239    2.2392 S   0  0  0  0  0  0  0  0  0  0  0  0
   -4.3444    1.4115    0.6979 C   0  0  0  0  0  0  0  0  0  0  0  0
   -5.7090    0.9140    0.4200 C   0  0  0  0  0  0  0  0  0  0  0  0
   -6.2058    1.0015   -0.8932 C   0  0  0  0  0  0  0  0  0  0  0  0
   -7.4877    0.5489   -1.2184 C   0  0  0  0  0  0  0  0  0  0  0  0
   -8.3012   -0.0005   -0.2326 C   0  0  0  0  0  0  0  0  0  0  0  0
   -7.8333   -0.0960    1.0750 C   0  0  0  0  0  0  0  0  0  0  0  0
   -6.5493    0.3574    1.3991 C   0  0  0  0  0  0  0  0  0  0  0  0
   -3.5899    2.0256   -0.1970 N   0  0  0  0  0  0  0  0  0  0  0  0
    4.2695   -1.4693    0.7097 C   0  0  0  0  0  0  0  0  0  0  0  0
    5.3668   -1.9813    1.4094 C   0  0  0  0  0  0  0  0  0  0  0  0
    7.3686   -3.4408    2.4226 H   0  0  0  0  0  0  0  0  0  0  0  0
    8.2000   -3.7518    0.8992 H   0  0  0  0  0  0  0  0  0  0  0  0
    8.3711   -2.1645    1.6888 H   0  0  0  0  0  0  0  0  0  0  0  0
    7.3693   -2.7707   -1.2308 H   0  0  0  0  0  0  0  0  0  0  0  0
    5.4340   -1.8761   -2.4661 H   0  0  0  0  0  0  0  0  0  0  0  0
    2.6120    0.4494    0.0256 H   0  0  0  0  0  0  0  0  0  0  0  0
    0.5574   -0.1095   -1.9150 H   0  0  0  0  0  0  0  0  0  0  0  0
    1.6640    1.2067   -2.4350 H   0  0  0  0  0  0  0  0  0  0  0  0
   -0.7186    3.7421    0.0591 H   0  0  0  0  0  0  0  0  0  0  0  0
   -1.8910    3.7088   -1.2432 H   0  0  0  0  0  0  0  0  0  0  0  0
   -1.3235    2.1615    2.2908 H   0  0  0  0  0  0  0  0  0  0  0  0
   -5.5855    1.4277   -1.6808 H   0  0  0  0  0  0  0  0  0  0  0  0
   -7.8461    0.6272   -2.2415 H   0  0  0  0  0  0  0  0  0  0  0  0
   -9.2983   -0.3533   -0.4827 H   0  0  0  0  0  0  0  0  0  0  0  0
   -8.4674   -0.5238    1.8479 H   0  0  0  0  0  0  0  0  0  0  0  0
   -6.2286    0.2657    2.4335 H   0  0  0  0  0  0  0  0  0  0  0  0
    3.4018   -1.1395    1.2732 H   0  0  0  0  0  0  0  0  0  0  0  0
    5.3371   -2.0110    2.4968 H   0  0  0  0  0  0  0  0  0  0  0  0
  1  2  1  0
  2  3  2  0
  3  4  1  0
  4  5  2  0
  5  6  1  0
  6  7  2  0
  6  8  1  0
  8  9  1  0
  9 10  1  0
 10 11  2  0
 10 12  1  0
 12 13  1  0
 13 14  1  0
 14 15  2  0
 15 16  1  0
 16 17  1  0
 17 18  1  0
 18 19  2  0
 19 20  1  0
 20 21  2  0
 21 22  1  0
 22 23  2  0
 17 24  2  0
  5 25  1  0
 25 26  2  0
 26  2  1  0
 24 14  1  0
 23 18  1  0
  1 27  1  0
  1 28  1  0
  1 29  1  0
  3 30  1  0
  4 31  1  0
  8 32  1  0
  9 33  1  0
  9 34  1  0
 13 35  1  0
 13 36  1  0
 15 37  1  0
 19 38  1  0
 20 39  1  0
 21 40  1  0
 22 41  1  0
 23 42  1  0
 25 43  1  0
 26 44  1  0
M  END
$$$$
