
     RDKit          3D

 45 47  0  0  0  0  0  0  0  0999 V2000
   -3.1687    0.4596   -1.0284 O   0  0  0  0  0  0  0  0  0  0  0  0
   -3.2235    0.2731    0.1863 C   0  0  0  0  0  0  0  0  0  0  0  0
   -4.5421    0.1535    0.9413 C   0  0  0  0  0  0  0  0  0  0  0  0
   -5.7745    0.2888    0.0762 C   0  0  0  0  0  0  0  0  0  0  0  0
   -6.3424    1.5497   -0.1592 C   0  0  0  0  0  0  0  0  0  0  0  0
   -7.4744    1.6757   -0.9676 C   0  0  0  0  0  0  0  0  0  0  0  0
   -8.0400    0.5432   -1.5488 C   0  0  0  0  0  0  0  0  0  0  0  0
   -9.4356    0.6989   -2.5434 Cl  0  0  0  0  0  0  0  0  0  0  0  0
   -7.4817   -0.7143   -1.3316 C   0  0  0  0  0  0  0  0  0  0  0  0
   -6.3496   -0.8415   -0.5234 C   0  0  0  0  0  0  0  0  0  0  0  0
   -1.9827    0.1565    0.9618 C   0  0  0  0  0  0  0  0  0  0  0  0
   -1.8543   -0.0633    2.3204 C   0  0  0  0  0  0  0  0  0  0  0  0
   -0.5192   -0.1037    2.6268 N   0  0  0  0  0  0  0  0  0  0  0  0
    0.2424    0.0856    1.4938 C   0  0  0  0  0  0  0  0  0  0  0  0
    1.6877    0.0851    1.5559 C   0  0  0  0  0  0  0  0  0  0  0  0
    2.2936   -0.0976    2.6081 O   0  0  0  0  0  0  0  0  0  0  0  0
    2.3325    0.2946    0.3595 N   0  0  0  0  0  0  0  0  0  0  0  0
    3.7761    0.3086    0.2580 C   0  0  0  0  0  0  0  0  0  0  0  0
    4.3476   -1.1066    0.1866 C   0  0  0  0  0  0  0  0  0  0  0  0
    5.8745   -1.1251    0.2195 C   0  0  0  0  0  0  0  0  0  0  0  0
    6.4848   -0.4963   -0.9324 N   0  0  0  0  0  0  0  0  0  0  0  0
    6.5529   -1.0148   -2.1947 C   0  0  0  0  0  0  0  0  0  0  0  0
    7.2143   -0.0610   -2.9327 C   0  0  0  0  0  0  0  0  0  0  0  0
    7.5526    1.0116   -2.1486 N   0  0  0  0  0  0  0  0  0  0  0  0
    7.1126    0.7158   -0.9465 C   0  0  0  0  0  0  0  0  0  0  0  0
   -0.6520    0.2500    0.4496 C   0  0  0  0  0  0  0  0  0  0  0  0
   -4.5685   -0.8197    1.4471 H   0  0  0  0  0  0  0  0  0  0  0  0
   -4.5700    0.9244    1.7213 H   0  0  0  0  0  0  0  0  0  0  0  0
   -5.9035    2.4440    0.2783 H   0  0  0  0  0  0  0  0  0  0  0  0
   -7.9044    2.6578   -1.1442 H   0  0  0  0  0  0  0  0  0  0  0  0
   -7.9176   -1.5966   -1.7921 H   0  0  0  0  0  0  0  0  0  0  0  0
   -5.9166   -1.8280   -0.3722 H   0  0  0  0  0  0  0  0  0  0  0  0
   -2.5896   -0.1956    3.1035 H   0  0  0  0  0  0  0  0  0  0  0  0
   -0.1199   -0.2492    3.5474 H   0  0  0  0  0  0  0  0  0  0  0  0
    1.7878    0.4101   -0.4831 H   0  0  0  0  0  0  0  0  0  0  0  0
    4.0243    0.8781   -0.6432 H   0  0  0  0  0  0  0  0  0  0  0  0
    4.1832    0.8430    1.1237 H   0  0  0  0  0  0  0  0  0  0  0  0
    3.9790   -1.6974    1.0342 H   0  0  0  0  0  0  0  0  0  0  0  0
    3.9776   -1.6038   -0.7189 H   0  0  0  0  0  0  0  0  0  0  0  0
    6.2506   -0.6265    1.1202 H   0  0  0  0  0  0  0  0  0  0  0  0
    6.2360   -2.1599    0.2437 H   0  0  0  0  0  0  0  0  0  0  0  0
    6.1417   -1.9790   -2.4586 H   0  0  0  0  0  0  0  0  0  0  0  0
    7.4665   -0.0898   -3.9849 H   0  0  0  0  0  0  0  0  0  0  0  0
    7.2179    1.3396   -0.0681 H   0  0  0  0  0  0  0  0  0  0  0  0
   -0.4054    0.4223   -0.5910 H   0  0  0  0  0  0  0  0  0  0  0  0
  1  2  2  0
  2  3  1  0
  3  4  1  0
  4  5  2  0
  5  6  1  0
  6  7  2  0
  7  8  1  0
  7  9  1  0
  9 10  2  0
  2 11  1  0
 11 12  2  0
 12 13  1  0
 13 14  1  0
 14 15  1  0
 15 16  2  0
 15 17  1  0
 17 18  1  0
 18 19  1  0
 19 20  1  0
 20 21  1  0
 21 22  1  0
 22 23  2  0
 23 24  1  0
 24 25  2  0
 14 26  2  0
 10  4  1  0
 26 11  1  0
 25 21  1  0
  3 27  1  0
  3 28  1  0
  5 29  1  0
  6 30  1  0
  9 31  1  0
 10 32  1  0
 12 33  1  0
 13 34  1  0
 17 35  1  0
 18 36  1  0
 18 37  1  0
 19 38  1  0
 19 39  1  0
 20 40  1  0
 20 41  1  0
 22 42  1  0
 23 43  1  0
 25 44  1  0
 26 45  1  0
M  END
$$$$
