
     RDKit          3D

 43 44  0  0  0  0  0  0  0  0999 V2000
   -2.4102    0.9697    2.2923 C   0  0  0  0  0  0  0  0  0  0  0  0
   -2.7021    1.7204    1.0074 C   0  0  0  0  0  0  0  0  0  0  0  0
   -3.2700    0.7855   -0.0011 N   0  0  0  0  0  4  0  0  0  0  0  0
   -4.6182    0.6291   -0.0311 C   0  0  0  0  0  0  0  0  0  0  0  0
   -5.2343   -0.2375   -0.9313 C   0  0  0  0  0  0  0  0  0  0  0  0
   -6.7240   -0.4188   -0.9228 C   0  0  0  0  0  0  0  0  0  0  0  0
   -4.4366   -0.9758   -1.7976 C   0  0  0  0  0  0  0  0  0  0  0  0
   -3.0580   -0.8129   -1.7627 C   0  0  0  0  0  0  0  0  0  0  0  0
   -2.4761    0.0797   -0.8543 C   0  0  0  0  0  0  0  0  0  0  0  0
   -1.0220    0.2547   -0.8441 C   0  0  0  0  0  0  0  0  0  0  0  0
   -0.1857   -0.7311   -0.4820 C   0  0  0  0  0  0  0  0  0  0  0  0
    1.2736   -0.5731   -0.4423 C   0  0  0  0  0  0  0  0  0  0  0  0
    1.9962   -1.1893    0.5778 C   0  0  0  0  0  0  0  0  0  0  0  0
    3.3948   -1.0789    0.6334 C   0  0  0  0  0  0  0  0  0  0  0  0
    4.1325   -0.3578   -0.3203 C   0  0  0  0  0  0  0  0  0  0  0  0
    5.5247   -0.2686   -0.2724 N   0  0  0  0  0  0  0  0  0  0  0  0
    6.2170    0.7065   -1.1137 C   0  0  0  0  0  0  0  0  0  0  0  0
    6.2370   -0.6843    0.9351 C   0  0  0  0  0  0  0  0  0  0  0  0
    3.3808    0.2267   -1.3536 C   0  0  0  0  0  0  0  0  0  0  0  0
    1.9818    0.1242   -1.4199 C   0  0  0  0  0  0  0  0  0  0  0  0
   -1.6823    0.1689    2.1329 H   0  0  0  0  0  0  0  0  0  0  0  0
   -3.3198    0.5142    2.6968 H   0  0  0  0  0  0  0  0  0  0  0  0
   -2.0065    1.6521    3.0463 H   0  0  0  0  0  0  0  0  0  0  0  0
   -3.4379    2.5142    1.1803 H   0  0  0  0  0  0  0  0  0  0  0  0
   -1.8098    2.2028    0.6010 H   0  0  0  0  0  0  0  0  0  0  0  0
   -5.1991    1.2062    0.6845 H   0  0  0  0  0  0  0  0  0  0  0  0
   -6.9974   -1.2380   -0.2506 H   0  0  0  0  0  0  0  0  0  0  0  0
   -7.2269    0.4951   -0.5893 H   0  0  0  0  0  0  0  0  0  0  0  0
   -7.0945   -0.6452   -1.9281 H   0  0  0  0  0  0  0  0  0  0  0  0
   -4.8796   -1.6774   -2.5043 H   0  0  0  0  0  0  0  0  0  0  0  0
   -2.4361   -1.3835   -2.4516 H   0  0  0  0  0  0  0  0  0  0  0  0
   -0.6518    1.2332   -1.1387 H   0  0  0  0  0  0  0  0  0  0  0  0
   -0.5556   -1.7057   -0.1660 H   0  0  0  0  0  0  0  0  0  0  0  0
    1.4937   -1.7678    1.3496 H   0  0  0  0  0  0  0  0  0  0  0  0
    3.8938   -1.5890    1.4525 H   0  0  0  0  0  0  0  0  0  0  0  0
    6.0525    0.4989   -2.1765 H   0  0  0  0  0  0  0  0  0  0  0  0
    7.3018    0.6672   -0.9639 H   0  0  0  0  0  0  0  0  0  0  0  0
    5.8893    1.7262   -0.8829 H   0  0  0  0  0  0  0  0  0  0  0  0
    7.3207   -0.5685    0.8208 H   0  0  0  0  0  0  0  0  0  0  0  0
    6.0692   -1.7457    1.1476 H   0  0  0  0  0  0  0  0  0  0  0  0
    5.9298   -0.0830    1.7978 H   0  0  0  0  0  0  0  0  0  0  0  0
    3.8705    0.7728   -2.1550 H   0  0  0  0  0  0  0  0  0  0  0  0
    1.4748    0.5837   -2.2642 H   0  0  0  0  0  0  0  0  0  0  0  0
  1  2  1  0
  2  3  1  0
  3  4  2  0
  4  5  1  0
  5  6  1  0
  5  7  2  0
  7  8  1  0
  8  9  2  0
  9 10  1  0
 10 11  2  3
 11 12  1  0
 12 13  2  0
 13 14  1  0
 14 15  2  0
 15 16  1  0
 16 17  1  0
 16 18  1  0
 15 19  1  0
 19 20  2  0
  9  3  1  0
 20 12  1  0
  1 21  1  0
  1 22  1  0
  1 23  1  0
  2 24  1  0
  2 25  1  0
  4 26  1  0
  6 27  1  0
  6 28  1  0
  6 29  1  0
  7 30  1  0
  8 31  1  0
 10 32  1  0
 11 33  1  0
 13 34  1  0
 14 35  1  0
 17 36  1  0
 17 37  1  0
 17 38  1  0
 18 39  1  0
 18 40  1  0
 18 41  1  0
 19 42  1  0
 20 43  1  0
M  CHG  1   3   1
M  END
$$$$
