
     RDKit          3D

 60 63  0  0  0  0  0  0  0  0999 V2000
    8.5612    1.4776    0.9796 C   0  0  0  0  0  0  0  0  0  0  0  0
    7.4805    2.0392    0.2455 O   0  0  0  0  0  0  0  0  0  0  0  0
    6.5222    1.1715   -0.2015 C   0  0  0  0  0  0  0  0  0  0  0  0
    5.4834    1.7688   -0.9195 C   0  0  0  0  0  0  0  0  0  0  0  0
    4.4349    1.0008   -1.4320 C   0  0  0  0  0  0  0  0  0  0  0  0
    4.4150   -0.3850   -1.2380 C   0  0  0  0  0  0  0  0  0  0  0  0
    3.2737   -1.2222   -1.7548 C   0  0  0  0  0  0  0  0  0  0  0  0
    2.3118   -1.4623   -0.7078 N   0  0  0  0  0  0  0  0  0  0  0  0
    2.2839   -2.6315    0.0217 C   0  0  0  0  0  0  0  0  0  0  0  0
    3.0197   -3.5865   -0.2214 O   0  0  0  0  0  0  0  0  0  0  0  0
    1.3924   -2.5853    1.2757 C   0  0  0  0  0  0  0  0  0  0  0  0
    2.2545   -2.2475    2.4907 C   0  0  0  0  0  0  0  0  0  0  0  0
    0.2769   -1.6364    1.0946 N   0  0  0  0  0  0  0  0  0  0  0  0
    0.5429   -0.2768    1.3428 N   0  0  0  0  0  0  0  0  0  0  0  0
   -0.3799    0.6326    1.1902 C   0  0  0  0  0  0  0  0  0  0  0  0
   -0.0269    2.0618    1.4885 C   0  0  0  0  0  0  0  0  0  0  0  0
   -1.6898    0.2410    0.7352 C   0  0  0  0  0  0  0  0  0  0  0  0
   -2.8849    0.9139    0.5408 C   0  0  0  0  0  0  0  0  0  0  0  0
   -3.2593    2.3091    0.8888 C   0  0  0  0  0  0  0  0  0  0  0  0
   -3.7564   -0.0302   -0.0183 N   0  0  0  0  0  0  0  0  0  0  0  0
   -5.0514    0.1274   -0.6036 C   0  0  0  0  0  0  0  0  0  0  0  0
   -5.8569   -1.0101   -0.7806 C   0  0  0  0  0  0  0  0  0  0  0  0
   -7.1288   -0.9041   -1.3509 C   0  0  0  0  0  0  0  0  0  0  0  0
   -7.6196    0.3379   -1.7612 C   0  0  0  0  0  0  0  0  0  0  0  0
   -8.9695    0.4451   -2.4060 C   0  0  0  0  0  0  0  0  0  0  0  0
   -6.8034    1.4652   -1.6247 C   0  0  0  0  0  0  0  0  0  0  0  0
   -5.5290    1.3633   -1.0521 C   0  0  0  0  0  0  0  0  0  0  0  0
   -3.2150   -1.2775    0.0330 N   0  0  0  0  0  0  0  0  0  0  0  0
   -1.9539   -1.0970    0.4277 C   0  0  0  0  0  0  0  0  0  0  0  0
   -0.9397   -2.1329    0.5756 C   0  0  0  0  0  0  0  0  0  0  0  0
   -1.1248   -3.3124    0.2869 O   0  0  0  0  0  0  0  0  0  0  0  0
    5.4559   -0.9797   -0.5120 C   0  0  0  0  0  0  0  0  0  0  0  0
    6.5042   -0.2079    0.0010 C   0  0  0  0  0  0  0  0  0  0  0  0
    9.1314    0.7719    0.3665 H   0  0  0  0  0  0  0  0  0  0  0  0
    9.2343    2.2935    1.2602 H   0  0  0  0  0  0  0  0  0  0  0  0
    8.2082    1.0056    1.9024 H   0  0  0  0  0  0  0  0  0  0  0  0
    5.4923    2.8441   -1.0797 H   0  0  0  0  0  0  0  0  0  0  0  0
    3.6383    1.4934   -1.9835 H   0  0  0  0  0  0  0  0  0  0  0  0
    3.6477   -2.1662   -2.1666 H   0  0  0  0  0  0  0  0  0  0  0  0
    2.7509   -0.6979   -2.5624 H   0  0  0  0  0  0  0  0  0  0  0  0
    1.8522   -0.6646   -0.2781 H   0  0  0  0  0  0  0  0  0  0  0  0
    0.9754   -3.5906    1.4070 H   0  0  0  0  0  0  0  0  0  0  0  0
    3.0192   -3.0165    2.6462 H   0  0  0  0  0  0  0  0  0  0  0  0
    1.6436   -2.1852    3.3973 H   0  0  0  0  0  0  0  0  0  0  0  0
    2.7786   -1.2931    2.3671 H   0  0  0  0  0  0  0  0  0  0  0  0
   -0.3681    2.7139    0.6804 H   0  0  0  0  0  0  0  0  0  0  0  0
    1.0572    2.1715    1.5887 H   0  0  0  0  0  0  0  0  0  0  0  0
   -0.4938    2.3636    2.4296 H   0  0  0  0  0  0  0  0  0  0  0  0
   -2.6903    2.6626    1.7531 H   0  0  0  0  0  0  0  0  0  0  0  0
   -3.0546    2.9858    0.0541 H   0  0  0  0  0  0  0  0  0  0  0  0
   -4.3104    2.3911    1.1796 H   0  0  0  0  0  0  0  0  0  0  0  0
   -5.5110   -1.9953   -0.4693 H   0  0  0  0  0  0  0  0  0  0  0  0
   -7.7299   -1.8028   -1.4729 H   0  0  0  0  0  0  0  0  0  0  0  0
   -9.6637   -0.2868   -1.9798 H   0  0  0  0  0  0  0  0  0  0  0  0
   -9.4035    1.4372   -2.2427 H   0  0  0  0  0  0  0  0  0  0  0  0
   -8.8851    0.2694   -3.4828 H   0  0  0  0  0  0  0  0  0  0  0  0
   -7.1504    2.4346   -1.9774 H   0  0  0  0  0  0  0  0  0  0  0  0
   -4.9287    2.2641   -1.0242 H   0  0  0  0  0  0  0  0  0  0  0  0
    5.4504   -2.0554   -0.3380 H   0  0  0  0  0  0  0  0  0  0  0  0
    7.2856   -0.7177    0.5542 H   0  0  0  0  0  0  0  0  0  0  0  0
  1  2  1  0
  2  3  1  0
  3  4  2  0
  4  5  1  0
  5  6  2  0
  6  7  1  0
  7  8  1  0
  8  9  1  0
  9 10  2  0
  9 11  1  0
 11 12  1  0
 11 13  1  0
 13 14  1  0
 14 15  2  0
 15 16  1  0
 15 17  1  0
 17 18  2  0
 18 19  1  0
 18 20  1  0
 20 21  1  0
 21 22  2  0
 22 23  1  0
 23 24  2  0
 24 25  1  0
 24 26  1  0
 26 27  2  0
 20 28  1  0
 28 29  2  0
 29 30  1  0
 30 31  2  0
  6 32  1  0
 32 33  2  0
 33  3  1  0
 30 13  1  0
 29 17  1  0
 27 21  1  0
  1 34  1  0
  1 35  1  0
  1 36  1  0
  4 37  1  0
  5 38  1  0
  7 39  1  0
  7 40  1  0
  8 41  1  0
 11 42  1  0
 12 43  1  0
 12 44  1  0
 12 45  1  0
 16 46  1  0
 16 47  1  0
 16 48  1  0
 19 49  1  0
 19 50  1  0
 19 51  1  0
 22 52  1  0
 23 53  1  0
 25 54  1  0
 25 55  1  0
 25 56  1  0
 26 57  1  0
 27 58  1  0
 32 59  1  0
 33 60  1  0
M  END
$$$$
