
     RDKit          3D

 31 31  0  0  0  0  0  0  0  0999 V2000
    3.8424   -1.1327    2.2319 C   0  0  0  0  0  0  0  0  0  0  0  0
    3.3815    0.2012    2.3918 O   0  0  0  0  0  0  0  0  0  0  0  0
    2.8183    0.7148    1.1840 C   0  0  0  0  0  0  0  0  0  0  0  0
    1.6374    0.0035    0.8107 O   0  0  0  0  0  0  0  0  0  0  0  0
    1.0248    0.5503   -0.2914 C   0  0  0  0  0  0  0  0  0  0  0  0
   -0.2788    0.3918   -0.5733 C   0  0  0  0  0  0  0  0  0  0  0  0
   -0.9256    0.9244   -1.6724 N   0  0  0  0  0  0  0  0  0  0  0  0
   -0.4035    1.7248   -2.6717 C   0  0  0  0  0  0  0  0  0  0  0  0
   -1.4323    2.1003   -3.7084 C   0  0  0  0  0  0  0  0  0  0  0  0
    0.7483    2.1397   -2.7462 O   0  0  0  0  0  0  0  0  0  0  0  0
   -1.1379   -0.4006    0.3302 C   0  0  0  0  0  0  0  0  0  0  0  0
   -1.0571   -1.7992    0.3474 C   0  0  0  0  0  0  0  0  0  0  0  0
   -1.8912   -2.5433    1.1841 C   0  0  0  0  0  0  0  0  0  0  0  0
   -2.8113   -1.8954    2.0074 C   0  0  0  0  0  0  0  0  0  0  0  0
   -2.8977   -0.5038    1.9982 C   0  0  0  0  0  0  0  0  0  0  0  0
   -2.0648    0.2423    1.1621 C   0  0  0  0  0  0  0  0  0  0  0  0
    3.0106   -1.8089    2.0128 H   0  0  0  0  0  0  0  0  0  0  0  0
    4.5946   -1.1896    1.4391 H   0  0  0  0  0  0  0  0  0  0  0  0
    4.3043   -1.4499    3.1709 H   0  0  0  0  0  0  0  0  0  0  0  0
    2.5689    1.7654    1.3732 H   0  0  0  0  0  0  0  0  0  0  0  0
    3.5699    0.6686    0.3853 H   0  0  0  0  0  0  0  0  0  0  0  0
    1.7021    1.1080   -0.9242 H   0  0  0  0  0  0  0  0  0  0  0  0
   -1.9102    0.6902   -1.7409 H   0  0  0  0  0  0  0  0  0  0  0  0
   -0.9309    2.3024   -4.6593 H   0  0  0  0  0  0  0  0  0  0  0  0
   -1.9658    2.9960   -3.3798 H   0  0  0  0  0  0  0  0  0  0  0  0
   -2.1453    1.2864   -3.8686 H   0  0  0  0  0  0  0  0  0  0  0  0
   -0.3375   -2.3126   -0.2861 H   0  0  0  0  0  0  0  0  0  0  0  0
   -1.8178   -3.6276    1.1976 H   0  0  0  0  0  0  0  0  0  0  0  0
   -3.4557   -2.4755    2.6632 H   0  0  0  0  0  0  0  0  0  0  0  0
   -3.6078    0.0010    2.6481 H   0  0  0  0  0  0  0  0  0  0  0  0
   -2.1316    1.3277    1.1718 H   0  0  0  0  0  0  0  0  0  0  0  0
  1  2  1  0
  2  3  1  0
  3  4  1  0
  4  5  1  0
  5  6  2  3
  6  7  1  0
  7  8  1  0
  8  9  1  0
  8 10  2  0
  6 11  1  0
 11 12  2  0
 12 13  1  0
 13 14  2  0
 14 15  1  0
 15 16  2  0
 16 11  1  0
  1 17  1  0
  1 18  1  0
  1 19  1  0
  3 20  1  0
  3 21  1  0
  5 22  1  0
  7 23  1  0
  9 24  1  0
  9 25  1  0
  9 26  1  0
 12 27  1  0
 13 28  1  0
 14 29  1  0
 15 30  1  0
 16 31  1  0
M  END
$$$$
