
     RDKit          3D

 53 55  0  0  0  0  0  0  0  0999 V2000
    9.0913    0.9431    1.5198 C   0  0  0  0  0  0  0  0  0  0  0  0
    8.1965    0.8679    0.4176 O   0  0  0  0  0  0  0  0  0  0  0  0
    7.0780    0.0979    0.5804 C   0  0  0  0  0  0  0  0  0  0  0  0
    6.2252    0.0658   -0.5246 C   0  0  0  0  0  0  0  0  0  0  0  0
    5.0460   -0.6821   -0.4943 C   0  0  0  0  0  0  0  0  0  0  0  0
    4.7043   -1.4194    0.6459 C   0  0  0  0  0  0  0  0  0  0  0  0
    3.4207   -2.2057    0.6876 C   0  0  0  0  0  0  0  0  0  0  0  0
    2.3232   -1.3734    1.1036 N   0  0  0  0  0  0  0  0  0  0  0  0
    1.4782   -0.7643    0.2073 C   0  0  0  0  0  0  0  0  0  0  0  0
    1.4436   -0.9512   -1.0008 O   0  0  0  0  0  0  0  0  0  0  0  0
    0.5054    0.2399    0.8660 C   0  0  0  0  0  0  0  0  0  0  0  0
    0.4531    0.3270    2.0849 O   0  0  0  0  0  0  0  0  0  0  0  0
   -0.2359    0.9622   -0.0393 N   0  0  0  0  0  0  0  0  0  0  0  0
   -1.4292    1.6964    0.3573 C   0  0  0  0  0  0  0  0  0  0  0  0
   -2.7197    0.8660    0.1802 C   0  0  0  0  0  0  0  0  0  0  0  0
   -2.7058   -0.2735    1.0594 O   0  0  0  0  0  0  0  0  0  0  0  0
   -3.3378   -1.3390    0.3459 C   0  0  0  0  0  0  0  0  0  0  0  0
   -2.9100   -1.1298   -1.0888 C   0  0  0  0  0  0  0  0  0  0  0  0
   -2.8080    0.3276   -1.1894 N   0  0  0  0  0  0  0  0  0  0  0  0
   -3.7245    1.1690   -2.3095 S   0  0  0  0  0  6  0  0  0  0  0  0
   -3.5721    0.5112   -3.5893 O   0  0  0  0  0  0  0  0  0  0  0  0
   -3.4242    2.5758   -2.1486 O   0  0  0  0  0  0  0  0  0  0  0  0
   -5.4061    0.9146   -1.7782 C   0  0  0  0  0  0  0  0  0  0  0  0
   -6.0201    1.8500   -0.9392 C   0  0  0  0  0  0  0  0  0  0  0  0
   -7.3436    1.6552   -0.5436 C   0  0  0  0  0  0  0  0  0  0  0  0
   -8.0535    0.5441   -1.0010 C   0  0  0  0  0  0  0  0  0  0  0  0
   -7.4488   -0.3696   -1.8653 C   0  0  0  0  0  0  0  0  0  0  0  0
   -6.1257   -0.1820   -2.2646 C   0  0  0  0  0  0  0  0  0  0  0  0
    5.5570   -1.3769    1.7569 C   0  0  0  0  0  0  0  0  0  0  0  0
    6.7383   -0.6261    1.7232 C   0  0  0  0  0  0  0  0  0  0  0  0
    8.6056    1.3907    2.3932 H   0  0  0  0  0  0  0  0  0  0  0  0
    9.9226    1.5938    1.2317 H   0  0  0  0  0  0  0  0  0  0  0  0
    9.5068   -0.0414    1.7588 H   0  0  0  0  0  0  0  0  0  0  0  0
    6.4787    0.6323   -1.4173 H   0  0  0  0  0  0  0  0  0  0  0  0
    4.3923   -0.6820   -1.3650 H   0  0  0  0  0  0  0  0  0  0  0  0
    3.5006   -3.0289    1.4061 H   0  0  0  0  0  0  0  0  0  0  0  0
    3.2145   -2.6494   -0.2932 H   0  0  0  0  0  0  0  0  0  0  0  0
    2.2836   -1.0310    2.0592 H   0  0  0  0  0  0  0  0  0  0  0  0
   -0.1593    0.6712   -1.0114 H   0  0  0  0  0  0  0  0  0  0  0  0
   -1.3263    1.9991    1.4047 H   0  0  0  0  0  0  0  0  0  0  0  0
   -1.4634    2.5940   -0.2672 H   0  0  0  0  0  0  0  0  0  0  0  0
   -3.5895    1.4692    0.4523 H   0  0  0  0  0  0  0  0  0  0  0  0
   -3.0198   -2.3042    0.7485 H   0  0  0  0  0  0  0  0  0  0  0  0
   -4.4224   -1.2408    0.4657 H   0  0  0  0  0  0  0  0  0  0  0  0
   -3.5977   -1.5934   -1.7977 H   0  0  0  0  0  0  0  0  0  0  0  0
   -1.9121   -1.5485   -1.2608 H   0  0  0  0  0  0  0  0  0  0  0  0
   -5.4844    2.7329   -0.5976 H   0  0  0  0  0  0  0  0  0  0  0  0
   -7.8276    2.3757    0.1119 H   0  0  0  0  0  0  0  0  0  0  0  0
   -9.0878    0.3995   -0.6966 H   0  0  0  0  0  0  0  0  0  0  0  0
   -8.0150   -1.2203   -2.2377 H   0  0  0  0  0  0  0  0  0  0  0  0
   -5.6711   -0.8839   -2.9605 H   0  0  0  0  0  0  0  0  0  0  0  0
    5.3083   -1.9286    2.6609 H   0  0  0  0  0  0  0  0  0  0  0  0
    7.3675   -0.6270    2.6067 H   0  0  0  0  0  0  0  0  0  0  0  0
  1  2  1  0
  2  3  1  0
  3  4  2  0
  4  5  1  0
  5  6  2  0
  6  7  1  0
  7  8  1  0
  8  9  1  0
  9 10  2  0
  9 11  1  0
 11 12  2  0
 11 13  1  0
 13 14  1  0
 14 15  1  0
 15 16  1  0
 16 17  1  0
 17 18  1  0
 18 19  1  0
 19 20  1  0
 20 21  2  0
 20 22  2  0
 20 23  1  0
 23 24  2  0
 24 25  1  0
 25 26  2  0
 26 27  1  0
 27 28  2  0
  6 29  1  0
 29 30  2  0
 30  3  1  0
 19 15  1  0
 28 23  1  0
  1 31  1  0
  1 32  1  0
  1 33  1  0
  4 34  1  0
  5 35  1  0
  7 36  1  0
  7 37  1  0
  8 38  1  0
 13 39  1  0
 14 40  1  0
 14 41  1  0
 15 42  1  0
 17 43  1  0
 17 44  1  0
 18 45  1  0
 18 46  1  0
 24 47  1  0
 25 48  1  0
 26 49  1  0
 27 50  1  0
 28 51  1  0
 29 52  1  0
 30 53  1  0
M  END
$$$$
