
     RDKit          3D

 64 69  0  0  0  0  0  0  0  0999 V2000
    6.2191   -1.2704    2.1597 F   0  0  0  0  0  0  0  0  0  0  0  0
    7.0972   -0.2568    1.9238 C   0  0  0  0  0  0  0  0  0  0  0  0
    6.7762    0.7362    2.7986 F   0  0  0  0  0  0  0  0  0  0  0  0
    8.3108   -0.7259    2.3342 F   0  0  0  0  0  0  0  0  0  0  0  0
    7.0857    0.2081    0.4824 C   0  0  0  0  0  0  0  0  0  0  0  0
    8.2968    0.2241   -0.2375 C   0  0  0  0  0  0  0  0  0  0  0  0
    8.3409    0.6469   -1.5656 C   0  0  0  0  0  0  0  0  0  0  0  0
    7.1761    1.0641   -2.1984 C   0  0  0  0  0  0  0  0  0  0  0  0
    5.9674    1.0595   -1.5044 C   0  0  0  0  0  0  0  0  0  0  0  0
    5.9031    0.6380   -0.1632 C   0  0  0  0  0  0  0  0  0  0  0  0
    4.5498    0.6426    0.5223 C   0  0  0  0  0  0  0  0  0  0  0  0
    3.7252   -0.6101    0.1708 C   0  0  0  0  0  0  0  0  0  0  0  0
    2.4424   -0.6860    0.8920 N   0  0  0  0  0  0  0  0  0  0  0  0
    1.7700   -1.9865    0.6591 C   0  0  0  0  0  0  0  0  0  0  0  0
    0.6269   -1.9508   -0.3754 C   0  0  0  0  0  0  0  0  0  0  0  0
   -0.4246   -1.0022    0.0300 N   0  0  0  0  0  0  0  0  0  0  0  0
   -1.6173   -0.9638   -0.6844 C   0  0  0  0  0  0  0  0  0  0  0  0
   -1.6426   -1.5219   -1.8705 N   0  0  0  0  0  0  0  0  0  0  0  0
   -2.8056   -1.4831   -2.6626 C   0  0  0  0  0  0  0  0  0  0  0  0
   -2.7683   -2.0798   -3.9244 C   0  0  0  0  0  0  0  0  0  0  0  0
   -3.8905   -2.0595   -4.7572 C   0  0  0  0  0  0  0  0  0  0  0  0
   -5.0657   -1.4386   -4.3329 C   0  0  0  0  0  0  0  0  0  0  0  0
   -5.1255   -0.8362   -3.0758 C   0  0  0  0  0  0  0  0  0  0  0  0
   -3.9942   -0.8638   -2.2541 C   0  0  0  0  0  0  0  0  0  0  0  0
   -3.9706   -0.2952   -0.9702 N   0  0  0  0  0  0  0  0  0  0  0  0
   -4.9729    0.3512   -0.2861 C   0  0  0  0  0  0  0  0  0  0  0  0
   -4.5092    0.6695    0.9764 C   0  0  0  0  0  0  0  0  0  0  0  0
   -5.3118    1.3237    1.9994 C   0  0  0  0  0  0  0  0  0  0  0  0
   -5.1512    0.9759    3.3475 C   0  0  0  0  0  0  0  0  0  0  0  0
   -5.9111    1.6023    4.3390 C   0  0  0  0  0  0  0  0  0  0  0  0
   -6.8361    2.5851    3.9930 C   0  0  0  0  0  0  0  0  0  0  0  0
   -7.0026    2.9423    2.6565 C   0  0  0  0  0  0  0  0  0  0  0  0
   -6.2442    2.3151    1.6642 C   0  0  0  0  0  0  0  0  0  0  0  0
   -3.1701    0.1969    1.0427 C   0  0  0  0  0  0  0  0  0  0  0  0
   -2.8404   -0.3506   -0.1850 C   0  0  0  0  0  0  0  0  0  0  0  0
    0.0470    0.1511    0.8108 C   0  0  0  0  0  0  0  0  0  0  0  0
    1.5429    0.4390    0.5502 C   0  0  0  0  0  0  0  0  0  0  0  0
    9.2221   -0.0980    0.2397 H   0  0  0  0  0  0  0  0  0  0  0  0
    9.2846    0.6510   -2.1055 H   0  0  0  0  0  0  0  0  0  0  0  0
    7.2077    1.3941   -3.2337 H   0  0  0  0  0  0  0  0  0  0  0  0
    5.0666    1.3905   -2.0192 H   0  0  0  0  0  0  0  0  0  0  0  0
    4.6665    0.7247    1.6084 H   0  0  0  0  0  0  0  0  0  0  0  0
    4.0183    1.5533    0.2176 H   0  0  0  0  0  0  0  0  0  0  0  0
    4.3283   -1.4892    0.4331 H   0  0  0  0  0  0  0  0  0  0  0  0
    3.5578   -0.6614   -0.9135 H   0  0  0  0  0  0  0  0  0  0  0  0
    1.3494   -2.3027    1.6229 H   0  0  0  0  0  0  0  0  0  0  0  0
    2.4891   -2.7674    0.3830 H   0  0  0  0  0  0  0  0  0  0  0  0
    0.1997   -2.9575   -0.4564 H   0  0  0  0  0  0  0  0  0  0  0  0
    1.0260   -1.6733   -1.3591 H   0  0  0  0  0  0  0  0  0  0  0  0
   -1.8537   -2.5628   -4.2580 H   0  0  0  0  0  0  0  0  0  0  0  0
   -3.8452   -2.5291   -5.7363 H   0  0  0  0  0  0  0  0  0  0  0  0
   -5.9371   -1.4269   -4.9836 H   0  0  0  0  0  0  0  0  0  0  0  0
   -6.0518   -0.3636   -2.7668 H   0  0  0  0  0  0  0  0  0  0  0  0
   -5.9446    0.5089   -0.7311 H   0  0  0  0  0  0  0  0  0  0  0  0
   -4.4435    0.2038    3.6389 H   0  0  0  0  0  0  0  0  0  0  0  0
   -5.7811    1.3198    5.3805 H   0  0  0  0  0  0  0  0  0  0  0  0
   -7.4264    3.0725    4.7646 H   0  0  0  0  0  0  0  0  0  0  0  0
   -7.7202    3.7117    2.3843 H   0  0  0  0  0  0  0  0  0  0  0  0
   -6.3806    2.6200    0.6299 H   0  0  0  0  0  0  0  0  0  0  0  0
   -2.5153    0.2607    1.9007 H   0  0  0  0  0  0  0  0  0  0  0  0
   -0.1122   -0.0476    1.8770 H   0  0  0  0  0  0  0  0  0  0  0  0
   -0.5130    1.0561    0.5494 H   0  0  0  0  0  0  0  0  0  0  0  0
    1.8336    1.3163    1.1391 H   0  0  0  0  0  0  0  0  0  0  0  0
    1.6519    0.7056   -0.5102 H   0  0  0  0  0  0  0  0  0  0  0  0
  1  2  1  0
  2  3  1  0
  2  4  1  0
  2  5  1  0
  5  6  2  0
  6  7  1  0
  7  8  2  0
  8  9  1  0
  9 10  2  0
 10 11  1  0
 11 12  1  0
 12 13  1  0
 13 14  1  0
 14 15  1  0
 15 16  1  0
 16 17  1  0
 17 18  2  0
 18 19  1  0
 19 20  2  0
 20 21  1  0
 21 22  2  0
 22 23  1  0
 23 24  2  0
 24 25  1  0
 25 26  1  0
 26 27  2  0
 27 28  1  0
 28 29  2  0
 29 30  1  0
 30 31  2  0
 31 32  1  0
 32 33  2  0
 27 34  1  0
 34 35  2  0
 16 36  1  0
 36 37  1  0
 10  5  1  0
 37 13  1  0
 35 17  1  0
 24 19  1  0
 35 25  1  0
 33 28  1  0
  6 38  1  0
  7 39  1  0
  8 40  1  0
  9 41  1  0
 11 42  1  0
 11 43  1  0
 12 44  1  0
 12 45  1  0
 14 46  1  0
 14 47  1  0
 15 48  1  0
 15 49  1  0
 20 50  1  0
 21 51  1  0
 22 52  1  0
 23 53  1  0
 26 54  1  0
 29 55  1  0
 30 56  1  0
 31 57  1  0
 32 58  1  0
 33 59  1  0
 34 60  1  0
 36 61  1  0
 36 62  1  0
 37 63  1  0
 37 64  1  0
M  END
$$$$
