
     RDKit          3D

 51 53  0  0  0  0  0  0  0  0999 V2000
    4.2420   -4.3863    1.2239 C   0  0  0  0  0  0  0  0  0  0  0  0
    4.1138   -3.0536    0.7432 O   0  0  0  0  0  0  0  0  0  0  0  0
    2.8522   -2.5174    0.6990 C   0  0  0  0  0  0  0  0  0  0  0  0
    1.6851   -3.2018    1.0542 C   0  0  0  0  0  0  0  0  0  0  0  0
    0.4434   -2.5641    0.9889 C   0  0  0  0  0  0  0  0  0  0  0  0
    0.3616   -1.2390    0.5667 C   0  0  0  0  0  0  0  0  0  0  0  0
   -0.9392   -0.5404    0.5058 C   0  0  0  0  0  0  0  0  0  0  0  0
   -2.0341   -1.1153    0.8926 N   0  0  0  0  0  0  0  0  0  0  0  0
   -3.2019   -0.4065    0.7698 N   0  0  0  0  0  0  0  0  0  0  0  0
   -3.5377    0.4110   -0.3024 C   0  0  0  0  0  0  0  0  0  0  0  0
   -2.7791    0.7304   -1.2143 O   0  0  0  0  0  0  0  0  0  0  0  0
   -4.9412    0.9400   -0.3137 C   0  0  0  0  0  0  0  0  0  0  0  0
   -5.1662    2.1053   -1.0696 C   0  0  0  0  0  0  0  0  0  0  0  0
   -6.4352    2.6792   -1.1381 C   0  0  0  0  0  0  0  0  0  0  0  0
   -7.4943    2.0942   -0.4524 C   0  0  0  0  0  0  0  0  0  0  0  0
   -7.2904    0.9302    0.2935 C   0  0  0  0  0  0  0  0  0  0  0  0
   -6.0222    0.3349    0.3586 C   0  0  0  0  0  0  0  0  0  0  0  0
   -5.7772   -0.8072    1.0806 O   0  0  0  0  0  0  0  0  0  0  0  0
   -6.8781   -1.6976    1.2471 C   0  0  0  0  0  0  0  0  0  0  0  0
    1.5192   -0.5471    0.2034 C   0  0  0  0  0  0  0  0  0  0  0  0
    2.7761   -1.1774    0.2632 C   0  0  0  0  0  0  0  0  0  0  0  0
    4.0547   -0.4386   -0.0895 C   0  0  0  0  0  0  0  0  0  0  0  0
    3.7734    0.8538   -0.6391 O   0  0  0  0  0  0  0  0  0  0  0  0
    4.8187    1.7230   -0.7937 C   0  0  0  0  0  0  0  0  0  0  0  0
    6.1798    1.4221   -0.6899 C   0  0  0  0  0  0  0  0  0  0  0  0
    6.5981    0.1750   -0.4264 F   0  0  0  0  0  0  0  0  0  0  0  0
    7.1428    2.4155   -0.8701 C   0  0  0  0  0  0  0  0  0  0  0  0
    8.4433    2.1098   -0.7571 F   0  0  0  0  0  0  0  0  0  0  0  0
    6.7630    3.7184   -1.1624 C   0  0  0  0  0  0  0  0  0  0  0  0
    7.6937    4.6695   -1.3301 F   0  0  0  0  0  0  0  0  0  0  0  0
    5.4185    4.0321   -1.2809 C   0  0  0  0  0  0  0  0  0  0  0  0
    5.0449    5.2893   -1.5635 F   0  0  0  0  0  0  0  0  0  0  0  0
    4.4562    3.0417   -1.1007 C   0  0  0  0  0  0  0  0  0  0  0  0
    3.1590    3.3661   -1.2163 F   0  0  0  0  0  0  0  0  0  0  0  0
    3.8836   -4.4715    2.2559 H   0  0  0  0  0  0  0  0  0  0  0  0
    5.3063   -4.6413    1.2209 H   0  0  0  0  0  0  0  0  0  0  0  0
    3.7279   -5.0916    0.5634 H   0  0  0  0  0  0  0  0  0  0  0  0
    1.7030   -4.2333    1.3900 H   0  0  0  0  0  0  0  0  0  0  0  0
   -0.4549   -3.1062    1.2699 H   0  0  0  0  0  0  0  0  0  0  0  0
   -0.9083    0.5032    0.1494 H   0  0  0  0  0  0  0  0  0  0  0  0
   -3.9783   -0.8036    1.2935 H   0  0  0  0  0  0  0  0  0  0  0  0
   -4.3433    2.5759   -1.6068 H   0  0  0  0  0  0  0  0  0  0  0  0
   -6.5916    3.5838   -1.7216 H   0  0  0  0  0  0  0  0  0  0  0  0
   -8.4831    2.5453   -0.4956 H   0  0  0  0  0  0  0  0  0  0  0  0
   -8.1409    0.5155    0.8265 H   0  0  0  0  0  0  0  0  0  0  0  0
   -7.5725   -1.3213    2.0045 H   0  0  0  0  0  0  0  0  0  0  0  0
   -7.3908   -1.8851    0.2969 H   0  0  0  0  0  0  0  0  0  0  0  0
   -6.4809   -2.6520    1.6071 H   0  0  0  0  0  0  0  0  0  0  0  0
    1.4420    0.4879   -0.1240 H   0  0  0  0  0  0  0  0  0  0  0  0
    4.6366   -0.3305    0.8332 H   0  0  0  0  0  0  0  0  0  0  0  0
    4.6027   -1.0245   -0.8345 H   0  0  0  0  0  0  0  0  0  0  0  0
  1  2  1  0
  2  3  1  0
  3  4  2  0
  4  5  1  0
  5  6  2  0
  6  7  1  0
  7  8  2  3
  8  9  1  0
  9 10  1  0
 10 11  2  0
 10 12  1  0
 12 13  2  0
 13 14  1  0
 14 15  2  0
 15 16  1  0
 16 17  2  0
 17 18  1  0
 18 19  1  0
  6 20  1  0
 20 21  2  0
 21 22  1  0
 22 23  1  0
 23 24  1  0
 24 25  2  0
 25 26  1  0
 25 27  1  0
 27 28  1  0
 27 29  2  0
 29 30  1  0
 29 31  1  0
 31 32  1  0
 31 33  2  0
 33 34  1  0
 21  3  1  0
 33 24  1  0
 17 12  1  0
  1 35  1  0
  1 36  1  0
  1 37  1  0
  4 38  1  0
  5 39  1  0
  7 40  1  0
  9 41  1  0
 13 42  1  0
 14 43  1  0
 15 44  1  0
 16 45  1  0
 19 46  1  0
 19 47  1  0
 19 48  1  0
 20 49  1  0
 22 50  1  0
 22 51  1  0
M  END
$$$$
