
     RDKit          3D

 51 55  0  0  0  0  0  0  0  0999 V2000
    9.2984    0.4303    2.3465 Cl  0  0  0  0  0  0  0  0  0  0  0  0
    7.8171    0.3107    1.4640 C   0  0  0  0  0  0  0  0  0  0  0  0
    6.9459   -0.7322    1.7950 C   0  0  0  0  0  0  0  0  0  0  0  0
    5.7335   -0.8782    1.1165 C   0  0  0  0  0  0  0  0  0  0  0  0
    5.3793    0.0154    0.0959 C   0  0  0  0  0  0  0  0  0  0  0  0
    4.0589   -0.1352   -0.6249 C   0  0  0  0  0  0  0  0  0  0  0  0
    2.9167    0.5722    0.1272 C   0  0  0  0  0  0  0  0  0  0  0  0
    1.6134    0.4609   -0.5512 N   0  0  0  0  0  0  0  0  0  0  0  0
    1.1486   -0.9446   -0.6298 C   0  0  0  0  0  0  0  0  0  0  0  0
   -0.3795   -1.0943   -0.7879 C   0  0  0  0  0  0  0  0  0  0  0  0
   -1.1185   -0.4890    0.3449 N   0  0  0  0  0  0  0  0  0  0  0  0
   -2.4866   -0.2898    0.1513 C   0  0  0  0  0  0  0  0  0  0  0  0
   -2.9596    0.9308    0.1174 N   0  0  0  0  0  0  0  0  0  0  0  0
   -4.3282    1.1622   -0.1261 C   0  0  0  0  0  0  0  0  0  0  0  0
   -4.7791    2.4832   -0.1691 C   0  0  0  0  0  0  0  0  0  0  0  0
   -6.1224    2.7703   -0.4225 C   0  0  0  0  0  0  0  0  0  0  0  0
   -7.0319    1.7333   -0.6364 C   0  0  0  0  0  0  0  0  0  0  0  0
   -6.6048    0.4053   -0.5967 C   0  0  0  0  0  0  0  0  0  0  0  0
   -5.2576    0.1339   -0.3429 C   0  0  0  0  0  0  0  0  0  0  0  0
   -4.7449   -1.1717   -0.2741 N   0  0  0  0  0  0  0  0  0  0  0  0
   -5.3930   -2.3780   -0.4083 C   0  0  0  0  0  0  0  0  0  0  0  0
   -4.4780   -3.3853   -0.1892 C   0  0  0  0  0  0  0  0  0  0  0  0
   -3.2307   -2.7686    0.0686 C   0  0  0  0  0  0  0  0  0  0  0  0
   -3.4110   -1.3997   -0.0206 C   0  0  0  0  0  0  0  0  0  0  0  0
   -0.3514    0.5543    1.0582 C   0  0  0  0  0  0  0  0  0  0  0  0
    0.5890    1.3138    0.1033 C   0  0  0  0  0  0  0  0  0  0  0  0
    6.2546    1.0634   -0.2285 C   0  0  0  0  0  0  0  0  0  0  0  0
    7.4707    1.2115    0.4500 C   0  0  0  0  0  0  0  0  0  0  0  0
    8.4938    2.5271   -0.0121 Cl  0  0  0  0  0  0  0  0  0  0  0  0
    7.2054   -1.4370    2.5829 H   0  0  0  0  0  0  0  0  0  0  0  0
    5.0673   -1.6962    1.3888 H   0  0  0  0  0  0  0  0  0  0  0  0
    4.1481    0.2704   -1.6410 H   0  0  0  0  0  0  0  0  0  0  0  0
    3.8516   -1.2063   -0.7425 H   0  0  0  0  0  0  0  0  0  0  0  0
    2.8467    0.1925    1.1553 H   0  0  0  0  0  0  0  0  0  0  0  0
    3.1846    1.6350    0.2059 H   0  0  0  0  0  0  0  0  0  0  0  0
    1.4473   -1.4978    0.2712 H   0  0  0  0  0  0  0  0  0  0  0  0
    1.6328   -1.4291   -1.4856 H   0  0  0  0  0  0  0  0  0  0  0  0
   -0.6937   -0.6242   -1.7286 H   0  0  0  0  0  0  0  0  0  0  0  0
   -0.6147   -2.1602   -0.8573 H   0  0  0  0  0  0  0  0  0  0  0  0
   -4.0728    3.2937   -0.0074 H   0  0  0  0  0  0  0  0  0  0  0  0
   -6.4568    3.8044   -0.4543 H   0  0  0  0  0  0  0  0  0  0  0  0
   -8.0752    1.9623   -0.8350 H   0  0  0  0  0  0  0  0  0  0  0  0
   -7.3302   -0.3838   -0.7646 H   0  0  0  0  0  0  0  0  0  0  0  0
   -6.4492   -2.4363   -0.6272 H   0  0  0  0  0  0  0  0  0  0  0  0
   -4.6884   -4.4475   -0.2017 H   0  0  0  0  0  0  0  0  0  0  0  0
   -2.3017   -3.2702    0.3046 H   0  0  0  0  0  0  0  0  0  0  0  0
   -1.0083    1.2630    1.5751 H   0  0  0  0  0  0  0  0  0  0  0  0
    0.2370    0.0682    1.8461 H   0  0  0  0  0  0  0  0  0  0  0  0
    1.0527    2.1535    0.6353 H   0  0  0  0  0  0  0  0  0  0  0  0
   -0.0137    1.7653   -0.6950 H   0  0  0  0  0  0  0  0  0  0  0  0
    5.9886    1.7685   -1.0153 H   0  0  0  0  0  0  0  0  0  0  0  0
  1  2  1  0
  2  3  2  0
  3  4  1  0
  4  5  2  0
  5  6  1  0
  6  7  1  0
  7  8  1  0
  8  9  1  0
  9 10  1  0
 10 11  1  0
 11 12  1  0
 12 13  2  0
 13 14  1  0
 14 15  2  0
 15 16  1  0
 16 17  2  0
 17 18  1  0
 18 19  2  0
 19 20  1  0
 20 21  1  0
 21 22  2  0
 22 23  1  0
 23 24  2  0
 11 25  1  0
 25 26  1  0
  5 27  1  0
 27 28  2  0
 28 29  1  0
 28  2  1  0
 26  8  1  0
 24 12  1  0
 19 14  1  0
 24 20  1  0
  3 30  1  0
  4 31  1  0
  6 32  1  0
  6 33  1  0
  7 34  1  0
  7 35  1  0
  9 36  1  0
  9 37  1  0
 10 38  1  0
 10 39  1  0
 15 40  1  0
 16 41  1  0
 17 42  1  0
 18 43  1  0
 21 44  1  0
 22 45  1  0
 23 46  1  0
 25 47  1  0
 25 48  1  0
 26 49  1  0
 26 50  1  0
 27 51  1  0
M  END
$$$$
