
     RDKit          3D

 68 70  0  0  0  0  0  0  0  0999 V2000
   -5.5316    3.3630    1.7960 C   0  0  0  0  0  0  0  0  0  0  0  0
   -4.9307    2.9484    0.5763 O   0  0  0  0  0  0  0  0  0  0  0  0
   -4.0725    1.8863    0.6413 C   0  0  0  0  0  0  0  0  0  0  0  0
   -3.6792    1.2183    1.7989 C   0  0  0  0  0  0  0  0  0  0  0  0
   -2.7856    0.1432    1.7229 C   0  0  0  0  0  0  0  0  0  0  0  0
   -2.2702   -0.2919    0.4898 C   0  0  0  0  0  0  0  0  0  0  0  0
   -1.2928   -1.4685    0.4618 C   0  0  0  0  0  0  0  0  0  0  0  0
   -1.4419   -2.5011   -0.6958 C   0  0  0  0  0  0  0  0  0  0  0  0
   -0.4777   -3.1355   -1.1281 O   0  0  0  0  0  0  0  0  0  0  0  0
   -2.7421   -2.7589   -1.1003 N   0  0  0  0  0  0  0  0  0  0  0  0
   -3.1162   -3.6717   -2.1909 C   0  0  0  0  0  0  0  0  0  0  0  0
   -4.6497   -3.6412   -2.3300 C   0  0  0  0  0  0  0  0  0  0  0  0
   -2.4999   -3.2156   -3.5223 C   0  0  0  0  0  0  0  0  0  0  0  0
   -2.6932   -5.1154   -1.8754 C   0  0  0  0  0  0  0  0  0  0  0  0
    0.1155   -1.0618    0.6532 N   0  0  0  0  0  0  0  0  0  0  0  0
    0.8437   -1.7411    1.7248 C   0  0  0  0  0  0  0  0  0  0  0  0
    0.4782   -1.1486    3.0393 C   0  0  0  0  0  0  0  0  0  0  0  0
    0.7802    0.0448    3.6637 C   0  0  0  0  0  0  0  0  0  0  0  0
    0.1370    0.0122    4.9240 C   0  0  0  0  0  0  0  0  0  0  0  0
   -0.5173   -1.1951    4.9892 C   0  0  0  0  0  0  0  0  0  0  0  0
   -0.3238   -1.9037    3.8472 O   0  0  0  0  0  0  0  0  0  0  0  0
    0.7338   -0.2970   -0.3271 C   0  0  0  0  0  0  0  0  0  0  0  0
    0.1636    0.0481   -1.3624 O   0  0  0  0  0  0  0  0  0  0  0  0
    2.1743    0.1144   -0.0861 C   0  0  0  0  0  0  0  0  0  0  0  0
    2.6244    1.1791   -1.0830 C   0  0  0  0  0  0  0  0  0  0  0  0
    4.0154    1.6852   -0.7632 C   0  0  0  0  0  0  0  0  0  0  0  0
    4.7109    1.1786    0.1116 O   0  0  0  0  0  0  0  0  0  0  0  0
    4.3745    2.7433   -1.5672 N   0  0  0  0  0  0  0  0  0  0  0  0
    5.5781    3.4107   -1.5095 C   0  0  0  0  0  0  0  0  0  0  0  0
    6.6970    3.1733   -0.6814 C   0  0  0  0  0  0  0  0  0  0  0  0
    7.6046    4.1385   -1.0413 C   0  0  0  0  0  0  0  0  0  0  0  0
    8.9635    4.4893   -0.5963 C   0  0  0  0  0  0  0  0  0  0  0  0
    7.0697    4.9060   -2.0271 O   0  0  0  0  0  0  0  0  0  0  0  0
    5.7995    4.4467   -2.3269 N   0  0  0  0  0  0  0  0  0  0  0  0
   -2.6669    0.3976   -0.6648 C   0  0  0  0  0  0  0  0  0  0  0  0
   -3.5587    1.4717   -0.5874 C   0  0  0  0  0  0  0  0  0  0  0  0
   -6.1373    2.5602    2.2288 H   0  0  0  0  0  0  0  0  0  0  0  0
   -6.1989    4.2006    1.5716 H   0  0  0  0  0  0  0  0  0  0  0  0
   -4.7797    3.7188    2.5077 H   0  0  0  0  0  0  0  0  0  0  0  0
   -4.0393    1.5105    2.7794 H   0  0  0  0  0  0  0  0  0  0  0  0
   -2.4902   -0.3532    2.6464 H   0  0  0  0  0  0  0  0  0  0  0  0
   -1.5658   -2.0798    1.3356 H   0  0  0  0  0  0  0  0  0  0  0  0
   -3.4638   -2.1329   -0.7606 H   0  0  0  0  0  0  0  0  0  0  0  0
   -5.1372   -3.9502   -1.3981 H   0  0  0  0  0  0  0  0  0  0  0  0
   -4.9942   -4.3089   -3.1280 H   0  0  0  0  0  0  0  0  0  0  0  0
   -5.0052   -2.6299   -2.5617 H   0  0  0  0  0  0  0  0  0  0  0  0
   -2.7740   -2.1778   -3.7471 H   0  0  0  0  0  0  0  0  0  0  0  0
   -1.4061   -3.2658   -3.5065 H   0  0  0  0  0  0  0  0  0  0  0  0
   -2.8433   -3.8430   -4.3529 H   0  0  0  0  0  0  0  0  0  0  0  0
   -1.6056   -5.2278   -1.8310 H   0  0  0  0  0  0  0  0  0  0  0  0
   -3.0943   -5.4386   -0.9086 H   0  0  0  0  0  0  0  0  0  0  0  0
   -3.0580   -5.8104   -2.6407 H   0  0  0  0  0  0  0  0  0  0  0  0
    0.5978   -2.8089    1.6892 H   0  0  0  0  0  0  0  0  0  0  0  0
    1.9252   -1.6737    1.5899 H   0  0  0  0  0  0  0  0  0  0  0  0
    1.3911    0.8398    3.2595 H   0  0  0  0  0  0  0  0  0  0  0  0
    0.1525    0.7731    5.6918 H   0  0  0  0  0  0  0  0  0  0  0  0
   -1.1314   -1.6745    5.7385 H   0  0  0  0  0  0  0  0  0  0  0  0
    2.8136   -0.7698   -0.1860 H   0  0  0  0  0  0  0  0  0  0  0  0
    2.2680    0.5089    0.9310 H   0  0  0  0  0  0  0  0  0  0  0  0
    1.9310    2.0283   -1.0646 H   0  0  0  0  0  0  0  0  0  0  0  0
    2.6315    0.7689   -2.0996 H   0  0  0  0  0  0  0  0  0  0  0  0
    3.7318    3.1094   -2.2580 H   0  0  0  0  0  0  0  0  0  0  0  0
    6.8278    2.4147    0.0756 H   0  0  0  0  0  0  0  0  0  0  0  0
    8.9531    5.4360   -0.0482 H   0  0  0  0  0  0  0  0  0  0  0  0
    9.3713    3.7165    0.0623 H   0  0  0  0  0  0  0  0  0  0  0  0
    9.6367    4.5940   -1.4517 H   0  0  0  0  0  0  0  0  0  0  0  0
   -2.2748    0.1177   -1.6416 H   0  0  0  0  0  0  0  0  0  0  0  0
   -3.8465    1.9961   -1.4958 H   0  0  0  0  0  0  0  0  0  0  0  0
  1  2  1  0
  2  3  1  0
  3  4  2  0
  4  5  1  0
  5  6  2  0
  6  7  1  0
  7  8  1  0
  8  9  2  0
  8 10  1  0
 10 11  1  0
 11 12  1  0
 11 13  1  0
 11 14  1  0
  7 15  1  0
 15 16  1  0
 16 17  1  0
 17 18  2  0
 18 19  1  0
 19 20  2  0
 20 21  1  0
 15 22  1  0
 22 23  2  0
 22 24  1  0
 24 25  1  0
 25 26  1  0
 26 27  2  0
 26 28  1  0
 28 29  1  0
 29 30  1  0
 30 31  2  0
 31 32  1  0
 31 33  1  0
 33 34  1  0
  6 35  1  0
 35 36  2  0
 36  3  1  0
 21 17  1  0
 34 29  2  0
  1 37  1  0
  1 38  1  0
  1 39  1  0
  4 40  1  0
  5 41  1  0
  7 42  1  0
 10 43  1  0
 12 44  1  0
 12 45  1  0
 12 46  1  0
 13 47  1  0
 13 48  1  0
 13 49  1  0
 14 50  1  0
 14 51  1  0
 14 52  1  0
 16 53  1  0
 16 54  1  0
 18 55  1  0
 19 56  1  0
 20 57  1  0
 24 58  1  0
 24 59  1  0
 25 60  1  0
 25 61  1  0
 28 62  1  0
 30 63  1  0
 32 64  1  0
 32 65  1  0
 32 66  1  0
 35 67  1  0
 36 68  1  0
M  END
$$$$
