
     RDKit          3D

 27 27  0  0  0  0  0  0  0  0999 V2000
    0.1974   -0.1486   -2.2117 C   0  0  0  0  0  0  0  0  0  0  0  0
   -0.9248   -0.5608   -1.2504 C   0  0  0  0  0  0  0  0  0  0  0  0
   -1.4393   -1.9486   -1.7015 C   0  0  0  0  0  0  0  0  0  0  0  0
   -2.1141    0.4071   -1.3273 C   0  0  0  0  0  0  0  0  0  0  0  0
   -0.3203   -0.7460    0.4486 S   0  0  0  0  0  6  0  0  0  0  0  0
   -1.4534   -0.7716    1.3503 O   0  0  0  0  0  0  0  0  0  0  0  0
    0.6951   -1.7822    0.4432 O   0  0  0  0  0  0  0  0  0  0  0  0
    0.5692    0.6537    0.9845 C   0  0  0  0  0  0  0  0  0  0  0  0
    0.5222    1.9645    0.4183 C   0  0  0  0  0  0  0  0  0  0  0  0
    1.3748    2.8413    1.0514 C   0  0  0  0  0  0  0  0  0  0  0  0
    2.2112    2.1024    2.3370 S   0  0  0  0  0  0  0  0  0  0  0  0
    1.4196    0.5983    2.0833 C   0  0  0  0  0  0  0  0  0  0  0  0
    1.6543   -0.5051    2.9909 C   0  0  0  0  0  0  0  0  0  0  0  0
    0.8779   -1.3864    3.3255 O   0  0  0  0  0  0  0  0  0  0  0  0
    2.9064   -0.5003    3.5041 O   0  0  0  0  0  0  0  0  0  0  0  0
    0.5597    0.8641   -2.0282 H   0  0  0  0  0  0  0  0  0  0  0  0
   -0.1491   -0.1758   -3.2515 H   0  0  0  0  0  0  0  0  0  0  0  0
    1.0577   -0.8225   -2.1331 H   0  0  0  0  0  0  0  0  0  0  0  0
   -1.8584   -1.9077   -2.7134 H   0  0  0  0  0  0  0  0  0  0  0  0
   -2.2222   -2.3199   -1.0301 H   0  0  0  0  0  0  0  0  0  0  0  0
   -0.6348   -2.6926   -1.7073 H   0  0  0  0  0  0  0  0  0  0  0  0
   -2.9519    0.0575   -0.7132 H   0  0  0  0  0  0  0  0  0  0  0  0
   -1.8692    1.4119   -0.9836 H   0  0  0  0  0  0  0  0  0  0  0  0
   -2.4794    0.4964   -2.3570 H   0  0  0  0  0  0  0  0  0  0  0  0
   -0.0807    2.2871   -0.4168 H   0  0  0  0  0  0  0  0  0  0  0  0
    1.5449    3.8847    0.8202 H   0  0  0  0  0  0  0  0  0  0  0  0
    2.9073   -1.3010    4.0678 H   0  0  0  0  0  0  0  0  0  0  0  0
  1  2  1  0
  2  3  1  0
  2  4  1  0
  2  5  1  0
  5  6  2  0
  5  7  2  0
  5  8  1  0
  8  9  1  0
  9 10  2  0
 10 11  1  0
 11 12  1  0
 12 13  1  0
 13 14  2  0
 13 15  1  0
 12  8  2  0
  1 16  1  0
  1 17  1  0
  1 18  1  0
  3 19  1  0
  3 20  1  0
  3 21  1  0
  4 22  1  0
  4 23  1  0
  4 24  1  0
  9 25  1  0
 10 26  1  0
 15 27  1  0
M  END
$$$$
