
     RDKit          3D

 46 48  0  0  0  0  0  0  0  0999 V2000
   -3.6304    2.5127   -1.7891 C   0  0  0  0  0  0  0  0  0  0  0  0
   -2.5175    1.8341   -1.4785 C   0  0  0  0  0  0  0  0  0  0  0  0
   -2.3558    0.3490   -1.6339 C   0  0  0  0  0  0  0  0  0  0  0  0
   -2.2161   -0.3132   -0.3510 N   0  0  0  0  0  0  0  0  0  0  0  0
   -1.0610   -0.6349    0.3098 C   0  0  0  0  0  0  0  0  0  0  0  0
    0.5253   -0.3364   -0.3064 S   0  0  0  0  0  0  0  0  0  0  0  0
    1.5342   -1.0109    1.0490 C   0  0  0  0  0  0  0  0  0  0  0  0
    3.0082   -0.8696    0.7523 C   0  0  0  0  0  0  0  0  0  0  0  0
    3.7054    0.2839    1.1403 C   0  0  0  0  0  0  0  0  0  0  0  0
    5.0668    0.4235    0.8527 C   0  0  0  0  0  0  0  0  0  0  0  0
    5.7500   -0.5889    0.1673 C   0  0  0  0  0  0  0  0  0  0  0  0
    7.1974   -0.4930   -0.1667 C   0  0  0  0  0  0  0  0  0  0  0  0
    7.8094   -1.3600   -0.7708 O   0  0  0  0  0  0  0  0  0  0  0  0
    7.7196    0.6729    0.2904 O   0  0  0  0  0  0  0  0  0  0  0  0
    9.1101    0.8351    0.0075 C   0  0  0  0  0  0  0  0  0  0  0  0
    5.0552   -1.7392   -0.2275 C   0  0  0  0  0  0  0  0  0  0  0  0
    3.6948   -1.8776    0.0607 C   0  0  0  0  0  0  0  0  0  0  0  0
   -1.3464   -1.1724    1.4724 N   0  0  0  0  0  0  0  0  0  0  0  0
   -2.7142   -1.2022    1.5940 N   0  0  0  0  0  0  0  0  0  0  0  0
   -3.2334   -0.7029    0.4905 C   0  0  0  0  0  0  0  0  0  0  0  0
   -4.6337   -0.5418    0.2735 C   0  0  0  0  0  0  0  0  0  0  0  0
   -5.4937   -1.4615   -0.8867 S   0  0  0  0  0  0  0  0  0  0  0  0
   -6.9370   -0.6449   -0.4560 C   0  0  0  0  0  0  0  0  0  0  0  0
   -8.1049   -0.9165   -1.0630 N   0  0  0  0  0  0  0  0  0  0  0  0
   -6.8213    0.2378    0.5026 N   0  0  0  0  0  0  0  0  0  0  0  0
   -5.5078    0.2930    0.9485 C   0  0  0  0  0  0  0  0  0  0  0  0
   -5.1748    1.2233    2.0598 C   0  0  0  0  0  0  0  0  0  0  0  0
   -4.5205    2.0208   -2.1722 H   0  0  0  0  0  0  0  0  0  0  0  0
   -3.6795    3.5901   -1.6566 H   0  0  0  0  0  0  0  0  0  0  0  0
   -1.6573    2.3832   -1.0988 H   0  0  0  0  0  0  0  0  0  0  0  0
   -3.2028   -0.0991   -2.1614 H   0  0  0  0  0  0  0  0  0  0  0  0
   -1.4753    0.1324   -2.2463 H   0  0  0  0  0  0  0  0  0  0  0  0
    1.2906   -2.0689    1.2011 H   0  0  0  0  0  0  0  0  0  0  0  0
    1.2970   -0.4882    1.9830 H   0  0  0  0  0  0  0  0  0  0  0  0
    3.1906    1.0844    1.6687 H   0  0  0  0  0  0  0  0  0  0  0  0
    5.5790    1.3291    1.1683 H   0  0  0  0  0  0  0  0  0  0  0  0
    9.2833    0.8426   -1.0732 H   0  0  0  0  0  0  0  0  0  0  0  0
    9.4285    1.7983    0.4156 H   0  0  0  0  0  0  0  0  0  0  0  0
    9.6943    0.0447    0.4893 H   0  0  0  0  0  0  0  0  0  0  0  0
    5.5707   -2.5339   -0.7642 H   0  0  0  0  0  0  0  0  0  0  0  0
    3.1738   -2.7776   -0.2608 H   0  0  0  0  0  0  0  0  0  0  0  0
   -8.9210   -0.6080   -0.5448 H   0  0  0  0  0  0  0  0  0  0  0  0
   -8.2105   -1.8456   -1.4525 H   0  0  0  0  0  0  0  0  0  0  0  0
   -4.3857    1.9189    1.7574 H   0  0  0  0  0  0  0  0  0  0  0  0
   -4.8334    0.6651    2.9371 H   0  0  0  0  0  0  0  0  0  0  0  0
   -6.0500    1.8121    2.3521 H   0  0  0  0  0  0  0  0  0  0  0  0
  1  2  2  0
  2  3  1  0
  3  4  1  0
  4  5  1  0
  5  6  1  0
  6  7  1  0
  7  8  1  0
  8  9  2  0
  9 10  1  0
 10 11  2  0
 11 12  1  0
 12 13  2  0
 12 14  1  0
 14 15  1  0
 11 16  1  0
 16 17  2  0
  5 18  2  0
 18 19  1  0
 19 20  2  0
 20 21  1  0
 21 22  1  0
 22 23  1  0
 23 24  1  0
 23 25  2  0
 25 26  1  0
 26 27  1  0
 20  4  1  0
 26 21  2  0
 17  8  1  0
  1 28  1  0
  1 29  1  0
  2 30  1  0
  3 31  1  0
  3 32  1  0
  7 33  1  0
  7 34  1  0
  9 35  1  0
 10 36  1  0
 15 37  1  0
 15 38  1  0
 15 39  1  0
 16 40  1  0
 17 41  1  0
 24 42  1  0
 24 43  1  0
 27 44  1  0
 27 45  1  0
 27 46  1  0
M  END
$$$$
