
     RDKit          3D

 61 66  0  0  0  0  0  0  0  0999 V2000
    8.5013   -0.1425   -0.3276 C   0  0  0  0  0  0  0  0  0  0  0  0
    7.8691    0.3384    0.8177 C   0  0  0  0  0  0  0  0  0  0  0  0
    6.4782    0.2894    0.9206 C   0  0  0  0  0  0  0  0  0  0  0  0
    5.7072   -0.2378   -0.1253 C   0  0  0  0  0  0  0  0  0  0  0  0
    4.2017   -0.3052   -0.0064 C   0  0  0  0  0  0  0  0  0  0  0  0
    3.7370   -1.6722    0.5152 C   0  0  0  0  0  0  0  0  0  0  0  0
    2.3126   -1.8675    0.7971 N   0  0  0  0  0  0  0  0  0  0  0  0
    1.3965   -1.6508   -0.3340 C   0  0  0  0  0  0  0  0  0  0  0  0
    0.8374   -0.2182   -0.5028 C   0  0  0  0  0  0  0  0  0  0  0  0
    0.2725    0.3090    0.7636 N   0  0  0  0  0  0  0  0  0  0  0  0
   -1.0660    0.0929    0.9776 C   0  0  0  0  0  0  0  0  0  0  0  0
   -1.6907   -0.7239    1.9037 C   0  0  0  0  0  0  0  0  0  0  0  0
   -3.0714   -0.7494    1.6089 C   0  0  0  0  0  0  0  0  0  0  0  0
   -3.2797    0.0768    0.5221 C   0  0  0  0  0  0  0  0  0  0  0  0
   -4.4691    0.4063   -0.2325 C   0  0  0  0  0  0  0  0  0  0  0  0
   -5.7334   -0.3486   -0.0299 C   0  0  0  0  0  0  0  0  0  0  0  0
   -5.7461   -1.7479   -0.0023 C   0  0  0  0  0  0  0  0  0  0  0  0
   -6.9522   -2.4290    0.1733 C   0  0  0  0  0  0  0  0  0  0  0  0
   -8.1439   -1.7161    0.3108 C   0  0  0  0  0  0  0  0  0  0  0  0
   -8.1361   -0.3215    0.2622 C   0  0  0  0  0  0  0  0  0  0  0  0
   -6.9333    0.3637    0.0850 C   0  0  0  0  0  0  0  0  0  0  0  0
   -4.4577    1.3727   -1.1020 N   0  0  0  0  0  0  0  0  0  0  0  0
   -3.2688    2.0995   -1.3087 C   0  0  0  0  0  0  0  0  0  0  0  0
   -3.3111    3.1699   -2.2065 C   0  0  0  0  0  0  0  0  0  0  0  0
   -2.1804    3.9546   -2.4374 C   0  0  0  0  0  0  0  0  0  0  0  0
   -0.9965    3.6817   -1.7579 C   0  0  0  0  0  0  0  0  0  0  0  0
   -0.9333    2.6139   -0.8609 C   0  0  0  0  0  0  0  0  0  0  0  0
   -2.0584    1.8093   -0.6567 C   0  0  0  0  0  0  0  0  0  0  0  0
   -2.0805    0.7105    0.2389 N   0  0  0  0  0  0  0  0  0  0  0  0
    1.2161    0.1890    1.8929 C   0  0  0  0  0  0  0  0  0  0  0  0
    1.8186   -1.2290    2.0276 C   0  0  0  0  0  0  0  0  0  0  0  0
    6.3531   -0.7246   -1.2703 C   0  0  0  0  0  0  0  0  0  0  0  0
    7.7443   -0.6748   -1.3704 C   0  0  0  0  0  0  0  0  0  0  0  0
    9.5845   -0.1040   -0.4071 H   0  0  0  0  0  0  0  0  0  0  0  0
    8.4598    0.7515    1.6318 H   0  0  0  0  0  0  0  0  0  0  0  0
    6.0005    0.6662    1.8225 H   0  0  0  0  0  0  0  0  0  0  0  0
    3.7698   -0.1020   -0.9929 H   0  0  0  0  0  0  0  0  0  0  0  0
    3.8676    0.5014    0.6536 H   0  0  0  0  0  0  0  0  0  0  0  0
    4.0342   -2.4383   -0.2137 H   0  0  0  0  0  0  0  0  0  0  0  0
    4.3053   -1.9288    1.4192 H   0  0  0  0  0  0  0  0  0  0  0  0
    1.8625   -1.9753   -1.2727 H   0  0  0  0  0  0  0  0  0  0  0  0
    0.5432   -2.3268   -0.1857 H   0  0  0  0  0  0  0  0  0  0  0  0
    1.6296    0.4635   -0.8291 H   0  0  0  0  0  0  0  0  0  0  0  0
    0.0894   -0.2222   -1.3056 H   0  0  0  0  0  0  0  0  0  0  0  0
   -1.1992   -1.3072    2.6707 H   0  0  0  0  0  0  0  0  0  0  0  0
   -3.8229   -1.3300    2.1284 H   0  0  0  0  0  0  0  0  0  0  0  0
   -4.8289   -2.3149   -0.1364 H   0  0  0  0  0  0  0  0  0  0  0  0
   -6.9645   -3.5160    0.1926 H   0  0  0  0  0  0  0  0  0  0  0  0
   -9.0825   -2.2484    0.4448 H   0  0  0  0  0  0  0  0  0  0  0  0
   -9.0669    0.2323    0.3560 H   0  0  0  0  0  0  0  0  0  0  0  0
   -6.9311    1.4510    0.0373 H   0  0  0  0  0  0  0  0  0  0  0  0
   -4.2403    3.3932   -2.7238 H   0  0  0  0  0  0  0  0  0  0  0  0
   -2.2309    4.7856   -3.1353 H   0  0  0  0  0  0  0  0  0  0  0  0
   -0.1221    4.3070   -1.9182 H   0  0  0  0  0  0  0  0  0  0  0  0
   -0.0094    2.4534   -0.3187 H   0  0  0  0  0  0  0  0  0  0  0  0
    2.0202    0.9156    1.7344 H   0  0  0  0  0  0  0  0  0  0  0  0
    0.7377    0.4812    2.8365 H   0  0  0  0  0  0  0  0  0  0  0  0
    1.0416   -1.8921    2.4292 H   0  0  0  0  0  0  0  0  0  0  0  0
    2.6004   -1.2144    2.7985 H   0  0  0  0  0  0  0  0  0  0  0  0
    5.7771   -1.1467   -2.0915 H   0  0  0  0  0  0  0  0  0  0  0  0
    8.2386   -1.0528   -2.2617 H   0  0  0  0  0  0  0  0  0  0  0  0
  1  2  2  0
  2  3  1  0
  3  4  2  0
  4  5  1  0
  5  6  1  0
  6  7  1  0
  7  8  1  0
  8  9  1  0
  9 10  1  0
 10 11  1  0
 11 12  2  0
 12 13  1  0
 13 14  2  0
 14 15  1  0
 15 16  1  0
 16 17  2  0
 17 18  1  0
 18 19  2  0
 19 20  1  0
 20 21  2  0
 15 22  2  0
 22 23  1  0
 23 24  2  0
 24 25  1  0
 25 26  2  0
 26 27  1  0
 27 28  2  0
 28 29  1  0
 10 30  1  0
 30 31  1  0
  4 32  1  0
 32 33  2  0
 33  1  1  0
 31  7  1  0
 29 11  1  0
 29 14  1  0
 21 16  1  0
 28 23  1  0
  1 34  1  0
  2 35  1  0
  3 36  1  0
  5 37  1  0
  5 38  1  0
  6 39  1  0
  6 40  1  0
  8 41  1  0
  8 42  1  0
  9 43  1  0
  9 44  1  0
 12 45  1  0
 13 46  1  0
 17 47  1  0
 18 48  1  0
 19 49  1  0
 20 50  1  0
 21 51  1  0
 24 52  1  0
 25 53  1  0
 26 54  1  0
 27 55  1  0
 30 56  1  0
 30 57  1  0
 31 58  1  0
 31 59  1  0
 32 60  1  0
 33 61  1  0
M  END
$$$$
