
     RDKit          3D

 49 52  0  0  0  0  0  0  0  0999 V2000
   -3.0711    0.6334    3.0811 O   0  0  0  0  0  0  0  0  0  0  0  0
   -3.5735    0.4059    1.9804 C   0  0  0  0  0  0  0  0  0  0  0  0
   -2.7569    0.0973    0.8201 C   0  0  0  0  0  0  0  0  0  0  0  0
   -3.0358   -0.6481   -0.3383 C   0  0  0  0  0  0  0  0  0  0  0  0
   -1.9874   -0.7474   -1.1537 N   0  0  0  0  0  0  0  0  0  0  0  0
   -1.0023   -0.0270   -0.5546 N   0  0  0  0  0  0  0  0  0  0  0  0
    0.2729    0.0815   -1.1872 C   0  0  0  0  0  0  0  0  0  0  0  0
    0.5726   -0.8367   -2.2166 C   0  0  0  0  0  0  0  0  0  0  0  0
    1.8288   -0.8511   -2.8336 C   0  0  0  0  0  0  0  0  0  0  0  0
    2.8064    0.0595   -2.4315 C   0  0  0  0  0  0  0  0  0  0  0  0
    4.4070    0.0404   -3.2140 S   0  0  0  0  0  6  0  0  0  0  0  0
    4.2379   -0.5494   -4.5247 O   0  0  0  0  0  0  0  0  0  0  0  0
    4.9874    1.3547   -3.0492 O   0  0  0  0  0  0  0  0  0  0  0  0
    5.2632   -1.0842   -2.2947 N   0  0  0  0  0  0  0  0  0  0  0  0
    5.3115   -0.9443   -0.8804 C   0  0  0  0  0  0  0  0  0  0  0  0
    5.9042    0.1706   -0.2884 C   0  0  0  0  0  0  0  0  0  0  0  0
    5.8836    0.3155    1.0993 C   0  0  0  0  0  0  0  0  0  0  0  0
    5.2744   -0.6553    1.8935 C   0  0  0  0  0  0  0  0  0  0  0  0
    4.6907   -1.7753    1.3022 C   0  0  0  0  0  0  0  0  0  0  0  0
    4.7096   -1.9217   -0.0857 C   0  0  0  0  0  0  0  0  0  0  0  0
    2.5230    1.0193   -1.4584 C   0  0  0  0  0  0  0  0  0  0  0  0
    1.2587    1.0208   -0.8463 C   0  0  0  0  0  0  0  0  0  0  0  0
    1.0013    2.1288    0.0483 N   0  0  0  0  0  4  0  0  0  0  0  0
    1.6710    2.1759    1.0869 O   0  0  0  0  0  0  0  0  0  0  0  0
    0.1381    2.9430   -0.3004 O   0  0  0  0  0  1  0  0  0  0  0  0
   -1.4241    0.4355    0.6706 C   0  0  0  0  0  0  0  0  0  0  0  0
   -5.0551    0.4091    1.8895 C   0  0  0  0  0  0  0  0  0  0  0  0
   -5.7174    0.8204    0.7269 C   0  0  0  0  0  0  0  0  0  0  0  0
   -7.1087    0.7957    0.6865 C   0  0  0  0  0  0  0  0  0  0  0  0
   -7.7365    1.1824   -0.4313 F   0  0  0  0  0  0  0  0  0  0  0  0
   -7.8580    0.3816    1.7820 C   0  0  0  0  0  0  0  0  0  0  0  0
   -7.2067    0.0015    2.9534 C   0  0  0  0  0  0  0  0  0  0  0  0
   -5.8135    0.0313    3.0104 C   0  0  0  0  0  0  0  0  0  0  0  0
   -5.2512   -0.3227    4.2074 O   0  0  0  0  0  0  0  0  0  0  0  0
   -3.9531   -1.1507   -0.6209 H   0  0  0  0  0  0  0  0  0  0  0  0
   -0.1637   -1.5739   -2.5408 H   0  0  0  0  0  0  0  0  0  0  0  0
    2.0301   -1.5759   -3.6211 H   0  0  0  0  0  0  0  0  0  0  0  0
    5.2152   -2.0244   -2.6834 H   0  0  0  0  0  0  0  0  0  0  0  0
    6.3898    0.9310   -0.8956 H   0  0  0  0  0  0  0  0  0  0  0  0
    6.3434    1.1865    1.5608 H   0  0  0  0  0  0  0  0  0  0  0  0
    5.2582   -0.5394    2.9748 H   0  0  0  0  0  0  0  0  0  0  0  0
    4.2203   -2.5327    1.9247 H   0  0  0  0  0  0  0  0  0  0  0  0
    4.2434   -2.7952   -0.5320 H   0  0  0  0  0  0  0  0  0  0  0  0
    3.2711    1.7635   -1.1859 H   0  0  0  0  0  0  0  0  0  0  0  0
   -0.7770    0.9441    1.3696 H   0  0  0  0  0  0  0  0  0  0  0  0
   -5.1850    1.1823   -0.1470 H   0  0  0  0  0  0  0  0  0  0  0  0
   -8.9420    0.3716    1.7223 H   0  0  0  0  0  0  0  0  0  0  0  0
   -7.7799   -0.3054    3.8248 H   0  0  0  0  0  0  0  0  0  0  0  0
   -4.3148   -0.0221    4.2123 H   0  0  0  0  0  0  0  0  0  0  0  0
  1  2  2  0
  2  3  1  0
  3  4  1  0
  4  5  2  0
  5  6  1  0
  6  7  1  0
  7  8  2  0
  8  9  1  0
  9 10  2  0
 10 11  1  0
 11 12  2  0
 11 13  2  0
 11 14  1  0
 14 15  1  0
 15 16  2  0
 16 17  1  0
 17 18  2  0
 18 19  1  0
 19 20  2  0
 10 21  1  0
 21 22  2  0
 22 23  1  0
 23 24  2  0
 23 25  1  0
  6 26  1  0
  2 27  1  0
 27 28  2  0
 28 29  1  0
 29 30  1  0
 29 31  2  0
 31 32  1  0
 32 33  2  0
 33 34  1  0
 26  3  2  0
 33 27  1  0
 22  7  1  0
 20 15  1  0
  4 35  1  0
  8 36  1  0
  9 37  1  0
 14 38  1  0
 16 39  1  0
 17 40  1  0
 18 41  1  0
 19 42  1  0
 20 43  1  0
 21 44  1  0
 26 45  1  0
 28 46  1  0
 31 47  1  0
 32 48  1  0
 34 49  1  0
M  CHG  2  23   1  25  -1
M  END
$$$$
