
     RDKit          3D

 32 33  0  0  0  0  0  0  0  0999 V2000
   -5.1095   -1.0549    0.8398 C   0  0  0  0  0  0  0  0  0  0  0  0
   -3.8854   -0.4549    0.2132 C   0  0  0  0  0  0  0  0  0  0  0  0
   -3.4511   -0.8973   -1.0431 C   0  0  0  0  0  0  0  0  0  0  0  0
   -2.2968   -0.3638   -1.6246 C   0  0  0  0  0  0  0  0  0  0  0  0
   -1.8428   -0.9261   -3.1940 Cl  0  0  0  0  0  0  0  0  0  0  0  0
   -1.5465    0.6021   -0.9444 C   0  0  0  0  0  0  0  0  0  0  0  0
   -0.4232    1.1460   -1.5169 O   0  0  0  0  0  0  0  0  0  0  0  0
    0.7386    0.3673   -1.1941 C   0  0  0  0  0  0  0  0  0  0  0  0
    1.9635    1.2242   -1.5010 C   0  0  0  0  0  0  0  0  0  0  0  0
    3.2777    0.4689   -1.3342 C   0  0  0  0  0  0  0  0  0  0  0  0
    3.5258    0.0254    0.0205 N   0  0  0  0  0  0  0  0  0  0  0  0
    3.4316   -1.2564    0.4840 C   0  0  0  0  0  0  0  0  0  0  0  0
    3.7723   -1.1756    1.8143 C   0  0  0  0  0  0  0  0  0  0  0  0
    4.0752    0.1157    2.1613 N   0  0  0  0  0  0  0  0  0  0  0  0
    3.9247    0.8159    1.0599 C   0  0  0  0  0  0  0  0  0  0  0  0
   -1.9895    1.0608    0.3022 C   0  0  0  0  0  0  0  0  0  0  0  0
   -1.0593    2.4161    1.2536 Br  0  0  0  0  0  0  0  0  0  0  0  0
   -3.1438    0.5255    0.8833 C   0  0  0  0  0  0  0  0  0  0  0  0
   -4.8796   -2.0528    1.2266 H   0  0  0  0  0  0  0  0  0  0  0  0
   -5.9167   -1.1336    0.1044 H   0  0  0  0  0  0  0  0  0  0  0  0
   -5.4784   -0.4384    1.6664 H   0  0  0  0  0  0  0  0  0  0  0  0
   -4.0200   -1.6578   -1.5744 H   0  0  0  0  0  0  0  0  0  0  0  0
    0.7544   -0.5394   -1.8093 H   0  0  0  0  0  0  0  0  0  0  0  0
    0.7362    0.0770   -0.1364 H   0  0  0  0  0  0  0  0  0  0  0  0
    1.9479    2.1184   -0.8648 H   0  0  0  0  0  0  0  0  0  0  0  0
    1.8925    1.5940   -2.5317 H   0  0  0  0  0  0  0  0  0  0  0  0
    3.3047   -0.4098   -1.9887 H   0  0  0  0  0  0  0  0  0  0  0  0
    4.1192    1.1119   -1.6177 H   0  0  0  0  0  0  0  0  0  0  0  0
    3.1439   -2.0907   -0.1401 H   0  0  0  0  0  0  0  0  0  0  0  0
    3.8195   -1.9774    2.5398 H   0  0  0  0  0  0  0  0  0  0  0  0
    4.0855    1.8822    0.9642 H   0  0  0  0  0  0  0  0  0  0  0  0
   -3.4708    0.8776    1.8600 H   0  0  0  0  0  0  0  0  0  0  0  0
  1  2  1  0
  2  3  2  0
  3  4  1  0
  4  5  1  0
  4  6  2  0
  6  7  1  0
  7  8  1  0
  8  9  1  0
  9 10  1  0
 10 11  1  0
 11 12  1  0
 12 13  2  0
 13 14  1  0
 14 15  2  0
  6 16  1  0
 16 17  1  0
 16 18  2  0
 18  2  1  0
 15 11  1  0
  1 19  1  0
  1 20  1  0
  1 21  1  0
  3 22  1  0
  8 23  1  0
  8 24  1  0
  9 25  1  0
  9 26  1  0
 10 27  1  0
 10 28  1  0
 12 29  1  0
 13 30  1  0
 15 31  1  0
 18 32  1  0
M  END
$$$$
