
     RDKit          3D

 61 66  0  0  0  0  0  0  0  0999 V2000
    7.8476    2.7624   -1.2071 C   0  0  0  0  0  0  0  0  0  0  0  0
    7.2260    1.9618   -2.1649 C   0  0  0  0  0  0  0  0  0  0  0  0
    5.9710    1.4055   -1.9063 C   0  0  0  0  0  0  0  0  0  0  0  0
    5.3262    1.6513   -0.6876 C   0  0  0  0  0  0  0  0  0  0  0  0
    3.9848    1.0225   -0.3859 C   0  0  0  0  0  0  0  0  0  0  0  0
    4.1521   -0.3786    0.2375 C   0  0  0  0  0  0  0  0  0  0  0  0
    2.9401   -1.0628    0.7133 N   0  0  0  0  0  0  0  0  0  0  0  0
    1.9249   -1.2697   -0.3387 C   0  0  0  0  0  0  0  0  0  0  0  0
    0.7222   -2.1006    0.1733 C   0  0  0  0  0  0  0  0  0  0  0  0
    0.1030   -1.4846    1.3769 N   0  0  0  0  0  0  0  0  0  0  0  0
   -0.9419   -0.6216    1.1679 C   0  0  0  0  0  0  0  0  0  0  0  0
   -1.0006    0.7487    1.3506 C   0  0  0  0  0  0  0  0  0  0  0  0
   -2.2411    1.2062    0.8529 C   0  0  0  0  0  0  0  0  0  0  0  0
   -2.9447    0.1039    0.4067 C   0  0  0  0  0  0  0  0  0  0  0  0
   -4.2495   -0.0293   -0.2057 C   0  0  0  0  0  0  0  0  0  0  0  0
   -5.0088    1.1731   -0.6306 C   0  0  0  0  0  0  0  0  0  0  0  0
   -6.3449    1.2968   -0.2385 C   0  0  0  0  0  0  0  0  0  0  0  0
   -7.0839    2.4119   -0.6363 C   0  0  0  0  0  0  0  0  0  0  0  0
   -6.4936    3.3929   -1.4362 C   0  0  0  0  0  0  0  0  0  0  0  0
   -5.1649    3.2616   -1.8443 C   0  0  0  0  0  0  0  0  0  0  0  0
   -4.4208    2.1499   -1.4458 C   0  0  0  0  0  0  0  0  0  0  0  0
   -4.7881   -1.2009   -0.3893 N   0  0  0  0  0  0  0  0  0  0  0  0
   -4.0871   -2.3495    0.0283 C   0  0  0  0  0  0  0  0  0  0  0  0
   -4.7254   -3.5850   -0.1176 C   0  0  0  0  0  0  0  0  0  0  0  0
   -4.1112   -4.7608    0.3166 C   0  0  0  0  0  0  0  0  0  0  0  0
   -2.8522   -4.7082    0.9165 C   0  0  0  0  0  0  0  0  0  0  0  0
   -2.1969   -3.4842    1.0667 C   0  0  0  0  0  0  0  0  0  0  0  0
   -2.8007   -2.3110    0.6012 C   0  0  0  0  0  0  0  0  0  0  0  0
   -2.2080   -1.0266    0.7242 N   0  0  0  0  0  0  0  0  0  0  0  0
    1.1019   -1.1839    2.4267 C   0  0  0  0  0  0  0  0  0  0  0  0
    2.3213   -0.4022    1.8798 C   0  0  0  0  0  0  0  0  0  0  0  0
    5.9605    2.4580    0.2680 C   0  0  0  0  0  0  0  0  0  0  0  0
    7.2150    3.0109    0.0078 C   0  0  0  0  0  0  0  0  0  0  0  0
    8.8267    3.1909   -1.4068 H   0  0  0  0  0  0  0  0  0  0  0  0
    7.7243    1.7681   -3.1092 H   0  0  0  0  0  0  0  0  0  0  0  0
    5.4996    0.7742   -2.6571 H   0  0  0  0  0  0  0  0  0  0  0  0
    3.4293    1.6899    0.2837 H   0  0  0  0  0  0  0  0  0  0  0  0
    3.4025    0.9662   -1.3153 H   0  0  0  0  0  0  0  0  0  0  0  0
    4.8605   -0.3220    1.0765 H   0  0  0  0  0  0  0  0  0  0  0  0
    4.6424   -1.0331   -0.4960 H   0  0  0  0  0  0  0  0  0  0  0  0
    1.5555   -0.3091   -0.7175 H   0  0  0  0  0  0  0  0  0  0  0  0
    2.3746   -1.8070   -1.1821 H   0  0  0  0  0  0  0  0  0  0  0  0
    1.0645   -3.1091    0.4420 H   0  0  0  0  0  0  0  0  0  0  0  0
   -0.0064   -2.2214   -0.6390 H   0  0  0  0  0  0  0  0  0  0  0  0
   -0.2078    1.3726    1.7453 H   0  0  0  0  0  0  0  0  0  0  0  0
   -2.5740    2.2353    0.8208 H   0  0  0  0  0  0  0  0  0  0  0  0
   -6.8062    0.5272    0.3779 H   0  0  0  0  0  0  0  0  0  0  0  0
   -8.1207    2.5129   -0.3279 H   0  0  0  0  0  0  0  0  0  0  0  0
   -7.0730    4.2580   -1.7502 H   0  0  0  0  0  0  0  0  0  0  0  0
   -4.7121    4.0208   -2.4804 H   0  0  0  0  0  0  0  0  0  0  0  0
   -3.3949    2.0440   -1.7879 H   0  0  0  0  0  0  0  0  0  0  0  0
   -5.7157   -3.6232   -0.5666 H   0  0  0  0  0  0  0  0  0  0  0  0
   -4.6237   -5.7108    0.2030 H   0  0  0  0  0  0  0  0  0  0  0  0
   -2.3822   -5.6191    1.2809 H   0  0  0  0  0  0  0  0  0  0  0  0
   -1.2386   -3.4740    1.5803 H   0  0  0  0  0  0  0  0  0  0  0  0
    1.4479   -2.1390    2.8424 H   0  0  0  0  0  0  0  0  0  0  0  0
    0.6463   -0.6355    3.2609 H   0  0  0  0  0  0  0  0  0  0  0  0
    2.0062    0.6139    1.6207 H   0  0  0  0  0  0  0  0  0  0  0  0
    3.0579   -0.3166    2.6877 H   0  0  0  0  0  0  0  0  0  0  0  0
    5.4849    2.6573    1.2250 H   0  0  0  0  0  0  0  0  0  0  0  0
    7.6997    3.6309    0.7579 H   0  0  0  0  0  0  0  0  0  0  0  0
  1  2  2  0
  2  3  1  0
  3  4  2  0
  4  5  1  0
  5  6  1  0
  6  7  1  0
  7  8  1  0
  8  9  1  0
  9 10  1  0
 10 11  1  0
 11 12  2  0
 12 13  1  0
 13 14  2  0
 14 15  1  0
 15 16  1  0
 16 17  2  0
 17 18  1  0
 18 19  2  0
 19 20  1  0
 20 21  2  0
 15 22  2  0
 22 23  1  0
 23 24  2  0
 24 25  1  0
 25 26  2  0
 26 27  1  0
 27 28  2  0
 28 29  1  0
 10 30  1  0
 30 31  1  0
  4 32  1  0
 32 33  2  0
 33  1  1  0
 31  7  1  0
 29 11  1  0
 29 14  1  0
 21 16  1  0
 28 23  1  0
  1 34  1  0
  2 35  1  0
  3 36  1  0
  5 37  1  0
  5 38  1  0
  6 39  1  0
  6 40  1  0
  8 41  1  0
  8 42  1  0
  9 43  1  0
  9 44  1  0
 12 45  1  0
 13 46  1  0
 17 47  1  0
 18 48  1  0
 19 49  1  0
 20 50  1  0
 21 51  1  0
 24 52  1  0
 25 53  1  0
 26 54  1  0
 27 55  1  0
 30 56  1  0
 30 57  1  0
 31 58  1  0
 31 59  1  0
 32 60  1  0
 33 61  1  0
M  END
$$$$
