
     RDKit          3D

 48 51  0  0  0  0  0  0  0  0999 V2000
    1.3959   -0.6089    3.4189 C   0  0  0  0  0  0  0  0  0  0  0  0
    1.7213   -0.1822    2.0230 C   0  0  0  0  0  0  0  0  0  0  0  0
    1.1357   -0.5600    0.8742 C   0  0  0  0  0  0  0  0  0  0  0  0
    0.0660   -1.3486    0.5494 N   0  0  0  0  0  0  0  0  0  0  0  0
   -1.0024   -1.7171    1.3350 C   0  0  0  0  0  0  0  0  0  0  0  0
   -1.1859   -1.3543    2.4958 O   0  0  0  0  0  0  0  0  0  0  0  0
   -1.9557   -2.7146    0.6878 C   0  0  0  0  0  0  0  0  0  0  0  0
   -2.2302   -2.4424   -1.0913 S   0  0  0  0  0  0  0  0  0  0  0  0
   -3.2524   -0.9757   -0.9804 C   0  0  0  0  0  0  0  0  0  0  0  0
   -2.5977    0.1063   -0.5204 N   0  0  0  0  0  0  0  0  0  0  0  0
   -3.3237    1.2201   -0.4046 C   0  0  0  0  0  0  0  0  0  0  0  0
   -4.6213    1.3477   -0.7017 N   0  0  0  0  0  0  0  0  0  0  0  0
   -5.2504    0.2627   -1.1673 C   0  0  0  0  0  0  0  0  0  0  0  0
   -6.6014    0.3639   -1.4831 C   0  0  0  0  0  0  0  0  0  0  0  0
   -7.3321   -0.7235   -1.9700 C   0  0  0  0  0  0  0  0  0  0  0  0
   -6.7042   -1.9487   -2.1521 C   0  0  0  0  0  0  0  0  0  0  0  0
   -5.3505   -2.0768   -1.8429 C   0  0  0  0  0  0  0  0  0  0  0  0
   -4.6089   -0.9714   -1.3435 C   0  0  0  0  0  0  0  0  0  0  0  0
    1.9559    0.0534   -0.2194 C   0  0  0  0  0  0  0  0  0  0  0  0
    1.7335   -0.1659   -1.4022 O   0  0  0  0  0  0  0  0  0  0  0  0
    2.9674    0.7892    0.4042 N   0  0  0  0  0  0  0  0  0  0  0  0
    4.2100    1.1406   -0.1814 C   0  0  0  0  0  0  0  0  0  0  0  0
    5.3672    1.2908    0.5994 C   0  0  0  0  0  0  0  0  0  0  0  0
    6.5917    1.6388    0.0178 C   0  0  0  0  0  0  0  0  0  0  0  0
    6.6792    1.8390   -1.3564 C   0  0  0  0  0  0  0  0  0  0  0  0
    5.5434    1.6891   -2.1481 C   0  0  0  0  0  0  0  0  0  0  0  0
    4.3200    1.3417   -1.5649 C   0  0  0  0  0  0  0  0  0  0  0  0
    2.8108    0.6891    1.8171 N   0  0  0  0  0  0  0  0  0  0  0  0
    2.7560    1.9997    2.4924 C   0  0  0  0  0  0  0  0  0  0  0  0
    1.0192   -1.6353    3.4558 H   0  0  0  0  0  0  0  0  0  0  0  0
    0.6704    0.0720    3.8750 H   0  0  0  0  0  0  0  0  0  0  0  0
    2.2990   -0.5994    4.0415 H   0  0  0  0  0  0  0  0  0  0  0  0
   -0.0663   -1.4710   -0.4556 H   0  0  0  0  0  0  0  0  0  0  0  0
   -2.9179   -2.6763    1.2104 H   0  0  0  0  0  0  0  0  0  0  0  0
   -1.5351   -3.7157    0.8243 H   0  0  0  0  0  0  0  0  0  0  0  0
   -2.8157    2.1036   -0.0330 H   0  0  0  0  0  0  0  0  0  0  0  0
   -7.1034    1.3196   -1.3438 H   0  0  0  0  0  0  0  0  0  0  0  0
   -8.3877   -0.6060   -2.2037 H   0  0  0  0  0  0  0  0  0  0  0  0
   -7.2630   -2.8005   -2.5318 H   0  0  0  0  0  0  0  0  0  0  0  0
   -4.8749   -3.0434   -1.9942 H   0  0  0  0  0  0  0  0  0  0  0  0
    5.3440    1.1048    1.6699 H   0  0  0  0  0  0  0  0  0  0  0  0
    7.4779    1.7400    0.6402 H   0  0  0  0  0  0  0  0  0  0  0  0
    7.6315    2.1018   -1.8097 H   0  0  0  0  0  0  0  0  0  0  0  0
    5.6047    1.8401   -3.2242 H   0  0  0  0  0  0  0  0  0  0  0  0
    3.4548    1.2481   -2.2170 H   0  0  0  0  0  0  0  0  0  0  0  0
    2.7711    1.8667    3.5794 H   0  0  0  0  0  0  0  0  0  0  0  0
    1.8418    2.5392    2.2202 H   0  0  0  0  0  0  0  0  0  0  0  0
    3.6128    2.6295    2.2350 H   0  0  0  0  0  0  0  0  0  0  0  0
  1  2  1  0
  2  3  2  0
  3  4  1  0
  4  5  1  0
  5  6  2  0
  5  7  1  0
  7  8  1  0
  8  9  1  0
  9 10  2  0
 10 11  1  0
 11 12  2  0
 12 13  1  0
 13 14  2  0
 14 15  1  0
 15 16  2  0
 16 17  1  0
 17 18  2  0
  3 19  1  0
 19 20  2  0
 19 21  1  0
 21 22  1  0
 22 23  2  0
 23 24  1  0
 24 25  2  0
 25 26  1  0
 26 27  2  0
 21 28  1  0
 28 29  1  0
 28  2  1  0
 18  9  1  0
 27 22  1  0
 18 13  1  0
  1 30  1  0
  1 31  1  0
  1 32  1  0
  4 33  1  0
  7 34  1  0
  7 35  1  0
 11 36  1  0
 14 37  1  0
 15 38  1  0
 16 39  1  0
 17 40  1  0
 23 41  1  0
 24 42  1  0
 25 43  1  0
 26 44  1  0
 27 45  1  0
 29 46  1  0
 29 47  1  0
 29 48  1  0
M  END
$$$$
