
     RDKit          3D

 33 34  0  0  0  0  0  0  0  0999 V2000
   -1.5036    1.6710    2.2621 C   0  0  0  0  0  0  0  0  0  0  0  0
   -1.9010    0.4892    1.3865 C   0  0  0  0  0  0  0  0  0  0  0  0
   -1.4261    0.6571    0.0034 N   0  0  0  0  0  0  0  0  0  0  0  0
   -2.3110    1.4487   -0.8657 C   0  0  0  0  0  0  0  0  0  0  0  0
   -3.3619    0.5706   -1.5326 C   0  0  0  0  0  0  0  0  0  0  0  0
   -0.2041    0.1143   -0.4497 C   0  0  0  0  0  0  0  0  0  0  0  0
    0.0286    0.0640   -1.8469 C   0  0  0  0  0  0  0  0  0  0  0  0
    1.1918   -0.4534   -2.3977 C   0  0  0  0  0  0  0  0  0  0  0  0
    2.1685   -0.9384   -1.5413 C   0  0  0  0  0  0  0  0  0  0  0  0
    3.3704   -1.4588   -2.1651 N   0  0  0  0  0  4  0  0  0  0  0  0
    4.4276   -0.8475   -1.9615 O   0  0  0  0  0  0  0  0  0  0  0  0
    3.2436   -2.4659   -2.8741 O   0  0  0  0  0  1  0  0  0  0  0  0
    2.0208   -0.9367   -0.1384 C   0  0  0  0  0  0  0  0  0  0  0  0
    3.0072   -1.4504    0.7443 C   0  0  0  0  0  0  0  0  0  0  0  0
    2.8279   -1.4207    2.1161 C   0  0  0  0  0  0  0  0  0  0  0  0
    1.6595   -0.8778    2.5785 C   0  0  0  0  0  0  0  0  0  0  0  0
    0.6968   -0.3897    1.7694 N   0  0  0  0  0  0  0  0  0  0  0  0
    0.8251   -0.4031    0.4185 C   0  0  0  0  0  0  0  0  0  0  0  0
   -0.4267    1.8584    2.2496 H   0  0  0  0  0  0  0  0  0  0  0  0
   -1.8097    1.4917    3.2975 H   0  0  0  0  0  0  0  0  0  0  0  0
   -1.9941    2.5902    1.9249 H   0  0  0  0  0  0  0  0  0  0  0  0
   -2.9980    0.4376    1.3831 H   0  0  0  0  0  0  0  0  0  0  0  0
   -1.6039   -0.4705    1.8193 H   0  0  0  0  0  0  0  0  0  0  0  0
   -2.8318    2.2080   -0.2687 H   0  0  0  0  0  0  0  0  0  0  0  0
   -1.7477    2.0239   -1.6092 H   0  0  0  0  0  0  0  0  0  0  0  0
   -3.9982    0.0817   -0.7877 H   0  0  0  0  0  0  0  0  0  0  0  0
   -2.9113   -0.2154   -2.1455 H   0  0  0  0  0  0  0  0  0  0  0  0
   -4.0050    1.1775   -2.1777 H   0  0  0  0  0  0  0  0  0  0  0  0
   -0.7164    0.4165   -2.5535 H   0  0  0  0  0  0  0  0  0  0  0  0
    1.3199   -0.4749   -3.4774 H   0  0  0  0  0  0  0  0  0  0  0  0
    3.9369   -1.8780    0.3727 H   0  0  0  0  0  0  0  0  0  0  0  0
    3.5789   -1.8053    2.7958 H   0  0  0  0  0  0  0  0  0  0  0  0
    1.4469   -0.8137    3.6415 H   0  0  0  0  0  0  0  0  0  0  0  0
  1  2  1  0
  2  3  1  0
  3  4  1  0
  4  5  1  0
  3  6  1  0
  6  7  2  0
  7  8  1  0
  8  9  2  0
  9 10  1  0
 10 11  2  0
 10 12  1  0
  9 13  1  0
 13 14  2  0
 14 15  1  0
 15 16  2  0
 16 17  1  0
 17 18  2  0
 18  6  1  0
 18 13  1  0
  1 19  1  0
  1 20  1  0
  1 21  1  0
  2 22  1  0
  2 23  1  0
  4 24  1  0
  4 25  1  0
  5 26  1  0
  5 27  1  0
  5 28  1  0
  7 29  1  0
  8 30  1  0
 14 31  1  0
 15 32  1  0
 16 33  1  0
M  CHG  2  10   1  12  -1
M  END
$$$$
