
     RDKit          3D

 53 55  0  0  0  0  0  0  0  0999 V2000
   -4.8904   -2.0871    5.1349 C   0  0  0  0  0  0  0  0  0  0  0  0
   -3.8316   -1.2734    4.6460 O   0  0  0  0  0  0  0  0  0  0  0  0
   -3.3553   -1.5588    3.3965 C   0  0  0  0  0  0  0  0  0  0  0  0
   -3.8189   -2.5701    2.5524 C   0  0  0  0  0  0  0  0  0  0  0  0
   -3.2404   -2.7545    1.2919 C   0  0  0  0  0  0  0  0  0  0  0  0
   -2.2079   -1.9119    0.8690 C   0  0  0  0  0  0  0  0  0  0  0  0
   -1.4376   -2.1821   -0.7146 S   0  0  0  0  0  6  0  0  0  0  0  0
   -0.0734   -1.7115   -0.6154 O   0  0  0  0  0  0  0  0  0  0  0  0
   -1.7176   -3.5503   -1.0997 O   0  0  0  0  0  0  0  0  0  0  0  0
   -2.2735   -1.1881   -1.7800 N   0  0  0  0  0  0  0  0  0  0  0  0
   -3.6697   -1.5159   -2.0903 C   0  0  0  0  0  0  0  0  0  0  0  0
   -4.1911   -0.2129   -2.6479 C   0  0  0  0  0  0  0  0  0  0  0  0
   -3.5178    0.7819   -1.8709 O   0  0  0  0  0  0  0  0  0  0  0  0
   -2.1888    0.2762   -1.6140 C   0  0  0  0  0  0  0  0  0  0  0  0
   -1.2175    0.9051   -2.6417 C   0  0  0  0  0  0  0  0  0  0  0  0
    0.1784    0.5722   -2.4650 N   0  0  0  0  0  0  0  0  0  0  0  0
    0.8899    0.9946   -1.3656 C   0  0  0  0  0  0  0  0  0  0  0  0
    0.4678    1.7397   -0.4906 O   0  0  0  0  0  0  0  0  0  0  0  0
    2.3226    0.4151   -1.2837 C   0  0  0  0  0  0  0  0  0  0  0  0
    2.7888   -0.2127   -2.2241 O   0  0  0  0  0  0  0  0  0  0  0  0
    2.9597    0.7050   -0.1003 N   0  0  0  0  0  0  0  0  0  0  0  0
    4.3397    0.3734    0.1324 C   0  0  0  0  0  0  0  0  0  0  0  0
    5.2314    1.5550   -0.1527 C   0  0  0  0  0  0  0  0  0  0  0  0
    5.6030    2.4363    0.8750 C   0  0  0  0  0  0  0  0  0  0  0  0
    6.4107    3.5407    0.5982 C   0  0  0  0  0  0  0  0  0  0  0  0
    6.8398    3.7685   -0.7041 C   0  0  0  0  0  0  0  0  0  0  0  0
    7.6137    4.8299   -0.9669 F   0  0  0  0  0  0  0  0  0  0  0  0
    6.4750    2.9145   -1.7374 C   0  0  0  0  0  0  0  0  0  0  0  0
    5.6682    1.8095   -1.4633 C   0  0  0  0  0  0  0  0  0  0  0  0
   -1.7163   -0.9199    1.7200 C   0  0  0  0  0  0  0  0  0  0  0  0
   -2.3018   -0.7410    2.9749 C   0  0  0  0  0  0  0  0  0  0  0  0
   -5.1495   -1.7322    6.1370 H   0  0  0  0  0  0  0  0  0  0  0  0
   -5.7826   -1.9928    4.5071 H   0  0  0  0  0  0  0  0  0  0  0  0
   -4.5766   -3.1325    5.2224 H   0  0  0  0  0  0  0  0  0  0  0  0
   -4.6218   -3.2377    2.8482 H   0  0  0  0  0  0  0  0  0  0  0  0
   -3.5963   -3.5607    0.6536 H   0  0  0  0  0  0  0  0  0  0  0  0
   -3.7523   -2.3307   -2.8132 H   0  0  0  0  0  0  0  0  0  0  0  0
   -4.2246   -1.7706   -1.1836 H   0  0  0  0  0  0  0  0  0  0  0  0
   -5.2738   -0.1061   -2.5418 H   0  0  0  0  0  0  0  0  0  0  0  0
   -3.9204   -0.0802   -3.7013 H   0  0  0  0  0  0  0  0  0  0  0  0
   -1.9279    0.5759   -0.5985 H   0  0  0  0  0  0  0  0  0  0  0  0
   -1.3109    1.9970   -2.5936 H   0  0  0  0  0  0  0  0  0  0  0  0
   -1.4909    0.6117   -3.6616 H   0  0  0  0  0  0  0  0  0  0  0  0
    0.5915   -0.2003   -2.9831 H   0  0  0  0  0  0  0  0  0  0  0  0
    2.4776    1.3390    0.5285 H   0  0  0  0  0  0  0  0  0  0  0  0
    4.4332    0.0687    1.1805 H   0  0  0  0  0  0  0  0  0  0  0  0
    4.6372   -0.4836   -0.4828 H   0  0  0  0  0  0  0  0  0  0  0  0
    5.2656    2.2675    1.8952 H   0  0  0  0  0  0  0  0  0  0  0  0
    6.7051    4.2253    1.3871 H   0  0  0  0  0  0  0  0  0  0  0  0
    6.8161    3.1145   -2.7478 H   0  0  0  0  0  0  0  0  0  0  0  0
    5.3741    1.1463   -2.2759 H   0  0  0  0  0  0  0  0  0  0  0  0
   -0.8831   -0.2857    1.4241 H   0  0  0  0  0  0  0  0  0  0  0  0
   -1.9286    0.0381    3.6365 H   0  0  0  0  0  0  0  0  0  0  0  0
  1  2  1  0
  2  3  1  0
  3  4  2  0
  4  5  1  0
  5  6  2  0
  6  7  1  0
  7  8  2  0
  7  9  2  0
  7 10  1  0
 10 11  1  0
 11 12  1  0
 12 13  1  0
 13 14  1  0
 14 15  1  0
 15 16  1  0
 16 17  1  0
 17 18  2  0
 17 19  1  0
 19 20  2  0
 19 21  1  0
 21 22  1  0
 22 23  1  0
 23 24  2  0
 24 25  1  0
 25 26  2  0
 26 27  1  0
 26 28  1  0
 28 29  2  0
  6 30  1  0
 30 31  2  0
 31  3  1  0
 14 10  1  0
 29 23  1  0
  1 32  1  0
  1 33  1  0
  1 34  1  0
  4 35  1  0
  5 36  1  0
 11 37  1  0
 11 38  1  0
 12 39  1  0
 12 40  1  0
 14 41  1  0
 15 42  1  0
 15 43  1  0
 16 44  1  0
 21 45  1  0
 22 46  1  0
 22 47  1  0
 24 48  1  0
 25 49  1  0
 28 50  1  0
 29 51  1  0
 30 52  1  0
 31 53  1  0
M  END
$$$$
