
     RDKit          3D

 54 57  0  0  0  0  0  0  0  0999 V2000
   -4.8341    2.7185   -2.9736 C   0  0  0  0  0  0  0  0  0  0  0  0
   -4.0412    1.5337   -3.0049 O   0  0  0  0  0  0  0  0  0  0  0  0
   -3.3162    1.2462   -1.8796 C   0  0  0  0  0  0  0  0  0  0  0  0
   -3.4888    1.8366   -0.6233 C   0  0  0  0  0  0  0  0  0  0  0  0
   -2.6941    1.4325    0.4585 C   0  0  0  0  0  0  0  0  0  0  0  0
   -1.7173    0.4409    0.2791 C   0  0  0  0  0  0  0  0  0  0  0  0
   -0.9102    0.0492    1.3761 N   0  0  0  0  0  0  0  0  0  0  0  0
   -1.3358   -0.3399    2.6412 C   0  0  0  0  0  0  0  0  0  0  0  0
   -2.7432   -0.6850    3.0178 C   0  0  0  0  0  0  0  0  0  0  0  0
   -3.1286   -2.0651    2.5609 C   0  0  0  0  0  0  0  0  0  0  0  0
   -2.5176   -3.2753    2.8680 C   0  0  0  0  0  0  0  0  0  0  0  0
   -3.2302   -4.3042    2.2170 C   0  0  0  0  0  0  0  0  0  0  0  0
   -4.2616   -3.7079    1.5269 C   0  0  0  0  0  0  0  0  0  0  0  0
   -4.2102   -2.3538    1.7520 N   0  0  0  0  0  0  0  0  0  0  0  0
   -5.1590   -1.4124    1.1983 C   0  0  0  0  0  0  0  0  0  0  0  0
   -0.2844   -0.4960    3.4285 N   0  0  0  0  0  0  0  0  0  0  0  0
    0.8451   -0.2811    2.6836 N   0  0  0  0  0  0  0  0  0  0  0  0
    0.4699    0.0167    1.4590 C   0  0  0  0  0  0  0  0  0  0  0  0
    1.5528    0.4682    0.1837 S   0  0  0  0  0  0  0  0  0  0  0  0
    3.0168    0.9365    1.1507 C   0  0  0  0  0  0  0  0  0  0  0  0
    4.0777    1.4657    0.1998 C   0  0  0  0  0  0  0  0  0  0  0  0
    4.1155    2.6563   -0.1095 O   0  0  0  0  0  0  0  0  0  0  0  0
    4.9240    0.4740   -0.2709 N   0  0  0  0  0  0  0  0  0  0  0  0
    5.9679    0.6046   -1.2125 C   0  0  0  0  0  0  0  0  0  0  0  0
    6.3254    1.7998   -1.8355 C   0  0  0  0  0  0  0  0  0  0  0  0
    7.3768    1.8249   -2.7616 C   0  0  0  0  0  0  0  0  0  0  0  0
    8.0745    0.6568   -3.0760 C   0  0  0  0  0  0  0  0  0  0  0  0
    7.7267   -0.5417   -2.4602 C   0  0  0  0  0  0  0  0  0  0  0  0
    6.6836   -0.5578   -1.5377 C   0  0  0  0  0  0  0  0  0  0  0  0
    6.3643   -1.7173   -0.9406 F   0  0  0  0  0  0  0  0  0  0  0  0
   -1.5312   -0.1443   -0.9787 C   0  0  0  0  0  0  0  0  0  0  0  0
   -2.3411    0.2536   -2.0479 C   0  0  0  0  0  0  0  0  0  0  0  0
   -5.2543    2.8653   -3.9762 H   0  0  0  0  0  0  0  0  0  0  0  0
   -4.2279    3.6005   -2.7339 H   0  0  0  0  0  0  0  0  0  0  0  0
   -5.6692    2.6113   -2.2701 H   0  0  0  0  0  0  0  0  0  0  0  0
   -4.2352    2.6095   -0.4524 H   0  0  0  0  0  0  0  0  0  0  0  0
   -2.8263    1.9332    1.4181 H   0  0  0  0  0  0  0  0  0  0  0  0
   -2.8200   -0.6626    4.1138 H   0  0  0  0  0  0  0  0  0  0  0  0
   -3.4472    0.0720    2.6658 H   0  0  0  0  0  0  0  0  0  0  0  0
   -1.6338   -3.3960    3.4961 H   0  0  0  0  0  0  0  0  0  0  0  0
   -3.0081   -5.3676    2.2437 H   0  0  0  0  0  0  0  0  0  0  0  0
   -5.0260   -4.1429    0.9012 H   0  0  0  0  0  0  0  0  0  0  0  0
   -5.5905   -0.8312    2.0176 H   0  0  0  0  0  0  0  0  0  0  0  0
   -4.6327   -0.7716    0.4912 H   0  0  0  0  0  0  0  0  0  0  0  0
   -5.9537   -1.9541    0.6787 H   0  0  0  0  0  0  0  0  0  0  0  0
    3.4002    0.0731    1.7038 H   0  0  0  0  0  0  0  0  0  0  0  0
    2.7743    1.7243    1.8705 H   0  0  0  0  0  0  0  0  0  0  0  0
    4.7723   -0.4761    0.0614 H   0  0  0  0  0  0  0  0  0  0  0  0
    5.8094    2.7317   -1.6286 H   0  0  0  0  0  0  0  0  0  0  0  0
    7.6473    2.7655   -3.2375 H   0  0  0  0  0  0  0  0  0  0  0  0
    8.8893    0.6869   -3.7952 H   0  0  0  0  0  0  0  0  0  0  0  0
    8.2585   -1.4603   -2.6884 H   0  0  0  0  0  0  0  0  0  0  0  0
   -0.7934   -0.9305   -1.1435 H   0  0  0  0  0  0  0  0  0  0  0  0
   -2.2093   -0.2130   -3.0249 H   0  0  0  0  0  0  0  0  0  0  0  0
  1  2  1  0
  2  3  1  0
  3  4  2  0
  4  5  1  0
  5  6  2  0
  6  7  1  0
  7  8  1  0
  8  9  1  0
  9 10  1  0
 10 11  2  0
 11 12  1  0
 12 13  2  0
 13 14  1  0
 14 15  1  0
  8 16  2  0
 16 17  1  0
 17 18  2  0
 18 19  1  0
 19 20  1  0
 20 21  1  0
 21 22  2  0
 21 23  1  0
 23 24  1  0
 24 25  2  0
 25 26  1  0
 26 27  2  0
 27 28  1  0
 28 29  2  0
 29 30  1  0
  6 31  1  0
 31 32  2  0
 32  3  1  0
 18  7  1  0
 29 24  1  0
 14 10  1  0
  1 33  1  0
  1 34  1  0
  1 35  1  0
  4 36  1  0
  5 37  1  0
  9 38  1  0
  9 39  1  0
 11 40  1  0
 12 41  1  0
 13 42  1  0
 15 43  1  0
 15 44  1  0
 15 45  1  0
 20 46  1  0
 20 47  1  0
 23 48  1  0
 25 49  1  0
 26 50  1  0
 27 51  1  0
 28 52  1  0
 31 53  1  0
 32 54  1  0
M  END
$$$$
