
     RDKit          3D

 61 63  0  0  0  0  0  0  0  0999 V2000
  -10.0923    0.9518   -0.4300 C   0  0  0  0  0  0  0  0  0  0  0  0
   -9.6360   -0.2880    0.0963 O   0  0  0  0  0  0  0  0  0  0  0  0
   -8.3855   -0.6955   -0.2792 C   0  0  0  0  0  0  0  0  0  0  0  0
   -7.9793   -1.9139    0.2700 C   0  0  0  0  0  0  0  0  0  0  0  0
   -6.7241   -2.4498   -0.0288 C   0  0  0  0  0  0  0  0  0  0  0  0
   -5.8555   -1.7737   -0.8936 C   0  0  0  0  0  0  0  0  0  0  0  0
   -4.4916   -2.3299   -1.2059 C   0  0  0  0  0  0  0  0  0  0  0  0
   -3.4990   -1.7845   -0.3181 N   0  0  0  0  0  0  0  0  0  0  0  0
   -2.7065   -0.7167   -0.6610 C   0  0  0  0  0  0  0  0  0  0  0  0
   -2.6429   -0.1782   -1.7578 O   0  0  0  0  0  0  0  0  0  0  0  0
   -1.8359   -0.1952    0.5051 C   0  0  0  0  0  0  0  0  0  0  0  0
   -1.8951   -0.7311    1.6028 O   0  0  0  0  0  0  0  0  0  0  0  0
   -1.0446    0.8774    0.1594 N   0  0  0  0  0  0  0  0  0  0  0  0
   -0.0136    1.3887    1.0450 C   0  0  0  0  0  0  0  0  0  0  0  0
    1.3480    0.6706    0.8742 C   0  0  0  0  0  0  0  0  0  0  0  0
    1.2321   -0.7366    1.1600 O   0  0  0  0  0  0  0  0  0  0  0  0
    1.6422   -0.9065    2.5211 C   0  0  0  0  0  0  0  0  0  0  0  0
    2.7755    0.0848    2.6735 C   0  0  0  0  0  0  0  0  0  0  0  0
    2.3215    1.1971    1.8380 N   0  0  0  0  0  0  0  0  0  0  0  0
    3.3865    2.3828    1.3423 S   0  0  0  0  0  6  0  0  0  0  0  0
    2.6384    3.3366    0.5508 O   0  0  0  0  0  0  0  0  0  0  0  0
    4.1461    2.8031    2.5004 O   0  0  0  0  0  0  0  0  0  0  0  0
    4.5124    1.5458    0.2456 C   0  0  0  0  0  0  0  0  0  0  0  0
    4.2550    1.5175   -1.1255 C   0  0  0  0  0  0  0  0  0  0  0  0
    5.1518    0.8774   -1.9832 C   0  0  0  0  0  0  0  0  0  0  0  0
    6.3161    0.2863   -1.4778 C   0  0  0  0  0  0  0  0  0  0  0  0
    7.2491   -0.3662   -2.2444 O   0  0  0  0  0  0  0  0  0  0  0  0
    7.0083   -0.4626   -3.6408 C   0  0  0  0  0  0  0  0  0  0  0  0
    6.5924    0.3567   -0.0953 C   0  0  0  0  0  0  0  0  0  0  0  0
    7.7595   -0.2364    0.3185 O   0  0  0  0  0  0  0  0  0  0  0  0
    8.1925    0.0192    1.6478 C   0  0  0  0  0  0  0  0  0  0  0  0
    5.6890    0.9918    0.7616 C   0  0  0  0  0  0  0  0  0  0  0  0
   -6.2624   -0.5464   -1.4350 C   0  0  0  0  0  0  0  0  0  0  0  0
   -7.5201   -0.0119   -1.1329 C   0  0  0  0  0  0  0  0  0  0  0  0
   -9.4532    1.7789   -0.1032 H   0  0  0  0  0  0  0  0  0  0  0  0
  -10.1647    0.9145   -1.5221 H   0  0  0  0  0  0  0  0  0  0  0  0
  -11.0972    1.1325   -0.0360 H   0  0  0  0  0  0  0  0  0  0  0  0
   -8.6476   -2.4495    0.9402 H   0  0  0  0  0  0  0  0  0  0  0  0
   -6.4337   -3.3973    0.4191 H   0  0  0  0  0  0  0  0  0  0  0  0
   -4.2271   -2.1230   -2.2492 H   0  0  0  0  0  0  0  0  0  0  0  0
   -4.4843   -3.4180   -1.0788 H   0  0  0  0  0  0  0  0  0  0  0  0
   -3.5091   -2.0394    0.6653 H   0  0  0  0  0  0  0  0  0  0  0  0
   -1.0752    1.1628   -0.8162 H   0  0  0  0  0  0  0  0  0  0  0  0
   -0.3683    1.2834    2.0769 H   0  0  0  0  0  0  0  0  0  0  0  0
    0.0871    2.4576    0.8328 H   0  0  0  0  0  0  0  0  0  0  0  0
    1.6844    0.7499   -0.1624 H   0  0  0  0  0  0  0  0  0  0  0  0
    1.9527   -1.9398    2.6960 H   0  0  0  0  0  0  0  0  0  0  0  0
    0.7978   -0.6694    3.1777 H   0  0  0  0  0  0  0  0  0  0  0  0
    3.6965   -0.3506    2.2773 H   0  0  0  0  0  0  0  0  0  0  0  0
    2.9233    0.3794    3.7147 H   0  0  0  0  0  0  0  0  0  0  0  0
    3.3672    1.9914   -1.5384 H   0  0  0  0  0  0  0  0  0  0  0  0
    4.9185    0.8637   -3.0431 H   0  0  0  0  0  0  0  0  0  0  0  0
    6.9836    0.5282   -4.1061 H   0  0  0  0  0  0  0  0  0  0  0  0
    6.0885   -1.0202   -3.8460 H   0  0  0  0  0  0  0  0  0  0  0  0
    7.8393   -1.0179   -4.0862 H   0  0  0  0  0  0  0  0  0  0  0  0
    9.1836   -0.4287    1.7684 H   0  0  0  0  0  0  0  0  0  0  0  0
    8.2873    1.0938    1.8370 H   0  0  0  0  0  0  0  0  0  0  0  0
    7.5239   -0.4537    2.3743 H   0  0  0  0  0  0  0  0  0  0  0  0
    5.8785    1.0624    1.8279 H   0  0  0  0  0  0  0  0  0  0  0  0
   -5.5953    0.0049   -2.0966 H   0  0  0  0  0  0  0  0  0  0  0  0
   -7.7884    0.9399   -1.5789 H   0  0  0  0  0  0  0  0  0  0  0  0
  1  2  1  0
  2  3  1  0
  3  4  2  0
  4  5  1  0
  5  6  2  0
  6  7  1  0
  7  8  1  0
  8  9  1  0
  9 10  2  0
  9 11  1  0
 11 12  2  0
 11 13  1  0
 13 14  1  0
 14 15  1  0
 15 16  1  0
 16 17  1  0
 17 18  1  0
 18 19  1  0
 19 20  1  0
 20 21  2  0
 20 22  2  0
 20 23  1  0
 23 24  2  0
 24 25  1  0
 25 26  2  0
 26 27  1  0
 27 28  1  0
 26 29  1  0
 29 30  1  0
 30 31  1  0
 29 32  2  0
  6 33  1  0
 33 34  2  0
 34  3  1  0
 19 15  1  0
 32 23  1  0
  1 35  1  0
  1 36  1  0
  1 37  1  0
  4 38  1  0
  5 39  1  0
  7 40  1  0
  7 41  1  0
  8 42  1  0
 13 43  1  0
 14 44  1  0
 14 45  1  0
 15 46  1  0
 17 47  1  0
 17 48  1  0
 18 49  1  0
 18 50  1  0
 24 51  1  0
 25 52  1  0
 28 53  1  0
 28 54  1  0
 28 55  1  0
 31 56  1  0
 31 57  1  0
 31 58  1  0
 32 59  1  0
 33 60  1  0
 34 61  1  0
M  END
$$$$
