
     RDKit          3D

 27 27  0  0  0  0  0  0  0  0999 V2000
   -2.0158    1.6262   -1.2893 C   0  0  0  0  0  0  0  0  0  0  0  0
   -1.2759    0.6282   -0.3794 C   0  0  0  0  0  0  0  0  0  0  0  0
   -1.4818   -0.7856   -0.9287 C   0  0  0  0  0  0  0  0  0  0  0  0
   -1.8710    0.7175    1.0335 C   0  0  0  0  0  0  0  0  0  0  0  0
    0.4846    1.0950   -0.3730 S   0  0  0  0  0  6  0  0  0  0  0  0
    0.6285    2.3632    0.3177 O   0  0  0  0  0  0  0  0  0  0  0  0
    1.0693    0.9056   -1.6841 O   0  0  0  0  0  0  0  0  0  0  0  0
    1.3252   -0.0174    0.6723 C   0  0  0  0  0  0  0  0  0  0  0  0
    1.3572    0.1604    2.0962 C   0  0  0  0  0  0  0  0  0  0  0  0
    2.1460   -0.7755    2.7237 C   0  0  0  0  0  0  0  0  0  0  0  0
    2.8768   -1.8399    1.6089 S   0  0  0  0  0  0  0  0  0  0  0  0
    2.1167   -1.0791    0.2682 C   0  0  0  0  0  0  0  0  0  0  0  0
    2.4051   -1.6065   -1.0390 C   0  0  0  0  0  0  0  0  0  0  0  0
    3.4883   -1.9215   -1.5082 O   0  0  0  0  0  0  0  0  0  0  0  0
    1.2732   -1.8333   -1.7367 O   0  0  0  0  0  0  0  0  0  0  0  0
   -1.9070    2.6536   -0.9240 H   0  0  0  0  0  0  0  0  0  0  0  0
   -1.6218    1.5994   -2.3115 H   0  0  0  0  0  0  0  0  0  0  0  0
   -3.0871    1.4012   -1.3386 H   0  0  0  0  0  0  0  0  0  0  0  0
   -1.1086   -0.8728   -1.9541 H   0  0  0  0  0  0  0  0  0  0  0  0
   -0.9743   -1.5351   -0.3136 H   0  0  0  0  0  0  0  0  0  0  0  0
   -2.5459   -1.0485   -0.9476 H   0  0  0  0  0  0  0  0  0  0  0  0
   -2.9531    0.5434    1.0154 H   0  0  0  0  0  0  0  0  0  0  0  0
   -1.4376   -0.0319    1.7026 H   0  0  0  0  0  0  0  0  0  0  0  0
   -1.7032    1.7027    1.4815 H   0  0  0  0  0  0  0  0  0  0  0  0
    0.8471    0.9551    2.6300 H   0  0  0  0  0  0  0  0  0  0  0  0
    2.3506   -0.8689    3.7822 H   0  0  0  0  0  0  0  0  0  0  0  0
    1.6146   -2.1357   -2.6042 H   0  0  0  0  0  0  0  0  0  0  0  0
  1  2  1  0
  2  3  1  0
  2  4  1  0
  2  5  1  0
  5  6  2  0
  5  7  2  0
  5  8  1  0
  8  9  1  0
  9 10  2  0
 10 11  1  0
 11 12  1  0
 12 13  1  0
 13 14  2  0
 13 15  1  0
 12  8  2  0
  1 16  1  0
  1 17  1  0
  1 18  1  0
  3 19  1  0
  3 20  1  0
  3 21  1  0
  4 22  1  0
  4 23  1  0
  4 24  1  0
  9 25  1  0
 10 26  1  0
 15 27  1  0
M  END
$$$$
