
     RDKit          3D

 32 34  0  0  0  0  0  0  0  0999 V2000
   -4.0518    1.2191   -3.1708 C   0  0  0  0  0  0  0  0  0  0  0  0
   -3.7285   -0.2022   -2.7461 C   0  0  0  0  0  0  0  0  0  0  0  0
   -2.5547   -0.1633   -1.9399 O   0  0  0  0  0  0  0  0  0  0  0  0
   -2.0785   -1.3495   -1.4427 C   0  0  0  0  0  0  0  0  0  0  0  0
   -2.6662   -2.6046   -1.6716 C   0  0  0  0  0  0  0  0  0  0  0  0
   -2.1196   -3.7671   -1.1291 C   0  0  0  0  0  0  0  0  0  0  0  0
   -0.9701   -3.7196   -0.3409 C   0  0  0  0  0  0  0  0  0  0  0  0
   -0.3810   -2.4679   -0.1105 C   0  0  0  0  0  0  0  0  0  0  0  0
    1.0251   -2.0927    0.8089 S   0  0  0  0  0  0  0  0  0  0  0  0
    0.8334   -0.4468    0.4435 C   0  0  0  0  0  0  0  0  0  0  0  0
    1.6813    0.5303    0.8916 N   0  0  0  0  0  0  0  0  0  0  0  0
    2.7973    0.3885    1.6836 C   0  0  0  0  0  0  0  0  0  0  0  0
    3.2185   -0.6759    2.1254 O   0  0  0  0  0  0  0  0  0  0  0  0
    3.4890    1.6445    1.9842 C   0  0  0  0  0  0  0  0  0  0  0  0
    4.6326    1.7919    2.7543 C   0  0  0  0  0  0  0  0  0  0  0  0
    5.0592    3.1493    2.8573 C   0  0  0  0  0  0  0  0  0  0  0  0
    4.2221    3.9810    2.1607 C   0  0  0  0  0  0  0  0  0  0  0  0
    4.4615    5.8741    2.0585 Br  0  0  0  0  0  0  0  0  0  0  0  0
    2.9504    3.1670    1.3964 S   0  0  0  0  0  0  0  0  0  0  0  0
   -0.1919   -0.1384   -0.3092 N   0  0  0  0  0  0  0  0  0  0  0  0
   -0.9068   -1.2877   -0.6411 C   0  0  0  0  0  0  0  0  0  0  0  0
   -4.2119    1.8563   -2.2947 H   0  0  0  0  0  0  0  0  0  0  0  0
   -4.9493    1.2450   -3.7952 H   0  0  0  0  0  0  0  0  0  0  0  0
   -3.2177    1.6530   -3.7323 H   0  0  0  0  0  0  0  0  0  0  0  0
   -3.5560   -0.8114   -3.6408 H   0  0  0  0  0  0  0  0  0  0  0  0
   -4.5716   -0.6037   -2.1723 H   0  0  0  0  0  0  0  0  0  0  0  0
   -3.5618   -2.7069   -2.2765 H   0  0  0  0  0  0  0  0  0  0  0  0
   -2.5956   -4.7266   -1.3226 H   0  0  0  0  0  0  0  0  0  0  0  0
   -0.5446   -4.6251    0.0815 H   0  0  0  0  0  0  0  0  0  0  0  0
    1.4213    1.4562    0.5809 H   0  0  0  0  0  0  0  0  0  0  0  0
    5.1371    0.9527    3.2219 H   0  0  0  0  0  0  0  0  0  0  0  0
    5.9288    3.4806    3.4118 H   0  0  0  0  0  0  0  0  0  0  0  0
  1  2  1  0
  2  3  1  0
  3  4  1  0
  4  5  2  0
  5  6  1  0
  6  7  2  0
  7  8  1  0
  8  9  1  0
  9 10  1  0
 10 11  1  0
 11 12  1  0
 12 13  2  0
 12 14  1  0
 14 15  2  0
 15 16  1  0
 16 17  2  0
 17 18  1  0
 17 19  1  0
 10 20  2  0
 20 21  1  0
 21  4  1  0
 21  8  2  0
 19 14  1  0
  1 22  1  0
  1 23  1  0
  1 24  1  0
  2 25  1  0
  2 26  1  0
  5 27  1  0
  6 28  1  0
  7 29  1  0
 11 30  1  0
 15 31  1  0
 16 32  1  0
M  END
$$$$
