
     RDKit          3D

 70 76  0  0  0  0  0  0  0  0999 V2000
   -5.4543   -4.4734    1.0563 C   0  0  0  0  0  0  0  0  0  0  0  0
   -4.2973   -3.6164    1.4731 C   0  0  0  0  0  0  0  0  0  0  0  0
   -3.8636   -3.5577    2.8116 C   0  0  0  0  0  0  0  0  0  0  0  0
   -4.6422   -4.4859    4.0485 Cl  0  0  0  0  0  0  0  0  0  0  0  0
   -2.7827   -2.7428    3.2046 C   0  0  0  0  0  0  0  0  0  0  0  0
   -2.1113   -1.9478    2.2758 C   0  0  0  0  0  0  0  0  0  0  0  0
   -2.5463   -1.9771    0.9614 C   0  0  0  0  0  0  0  0  0  0  0  0
   -3.6134   -2.8044    0.5763 C   0  0  0  0  0  0  0  0  0  0  0  0
   -3.8366   -2.6729   -0.7949 N   0  0  0  0  0  0  0  0  0  0  0  0
   -2.9514   -1.7662   -1.3808 C   0  0  0  0  0  0  0  0  0  0  0  0
   -2.9164   -1.4941   -2.5724 O   0  0  0  0  0  0  0  0  0  0  0  0
   -2.0478   -1.2338   -0.2419 C   0  0  1  0  0  0  0  0  0  0  0  0
   -2.1831    0.2317   -0.0306 C   0  0  0  0  0  0  0  0  0  0  0  0
   -1.0552    0.9016   -0.5362 C   0  0  0  0  0  0  0  0  0  0  0  0
   -1.1975    2.2432   -0.3031 C   0  0  0  0  0  0  0  0  0  0  0  0
   -0.4181    3.2644   -0.6492 O   0  0  0  0  0  0  0  0  0  0  0  0
   -2.4448    2.4227    0.3329 N   0  0  0  0  0  0  0  0  0  0  0  0
   -3.0437    3.6769    0.6750 C   0  0  0  0  0  0  0  0  0  0  0  0
   -4.4367    3.8351    0.6082 C   0  0  0  0  0  0  0  0  0  0  0  0
   -5.0251    5.0534    0.9553 C   0  0  0  0  0  0  0  0  0  0  0  0
   -4.2301    6.1208    1.3673 C   0  0  0  0  0  0  0  0  0  0  0  0
   -2.8451    5.9763    1.4202 C   0  0  0  0  0  0  0  0  0  0  0  0
   -2.2502    4.7613    1.0697 C   0  0  0  0  0  0  0  0  0  0  0  0
   -3.0189    1.1511    0.5424 C   0  0  0  0  0  0  0  0  0  0  0  0
   -4.1354    0.9253    1.2340 O   0  0  0  0  0  0  0  0  0  0  0  0
   -0.1446   -0.0771   -1.1707 C   0  0  1  0  0  0  0  0  0  0  0  0
    1.3629    0.0763   -0.9833 C   0  0  0  0  0  0  0  0  0  0  0  0
    2.0842   -1.1163   -1.4838 N   0  0  0  0  0  0  0  0  0  0  0  0
    3.4328   -1.1043   -1.8418 C   0  0  0  0  0  0  0  0  0  0  0  0
    4.0572   -2.1478   -2.0387 O   0  0  0  0  0  0  0  0  0  0  0  0
    4.0740    0.2619   -2.0476 C   0  0  0  0  0  0  0  0  0  0  0  0
    5.5804    0.1985   -2.3113 C   0  0  0  0  0  0  0  0  0  0  0  0
    6.3875    0.1441   -1.0343 C   0  0  0  0  0  0  0  0  0  0  0  0
    6.7627    1.3265   -0.3813 C   0  0  0  0  0  0  0  0  0  0  0  0
    7.4937    1.2779    0.8075 C   0  0  0  0  0  0  0  0  0  0  0  0
    7.8528    0.0484    1.3569 C   0  0  0  0  0  0  0  0  0  0  0  0
    7.4814   -1.1328    0.7180 C   0  0  0  0  0  0  0  0  0  0  0  0
    6.7516   -1.0858   -0.4714 C   0  0  0  0  0  0  0  0  0  0  0  0
    1.5089   -2.4260   -1.1076 C   0  0  0  0  0  0  0  0  0  0  0  0
   -0.0380   -2.4931   -1.1682 C   0  0  0  0  0  0  0  0  0  0  0  0
   -0.5895   -1.3313   -0.4914 N   0  0  0  0  0  0  0  0  0  0  0  0
   -5.5489   -4.5433   -0.0312 H   0  0  0  0  0  0  0  0  0  0  0  0
   -6.3899   -4.0594    1.4474 H   0  0  0  0  0  0  0  0  0  0  0  0
   -5.3297   -5.4981    1.4220 H   0  0  0  0  0  0  0  0  0  0  0  0
   -2.4671   -2.7231    4.2457 H   0  0  0  0  0  0  0  0  0  0  0  0
   -1.2820   -1.3143    2.5754 H   0  0  0  0  0  0  0  0  0  0  0  0
   -4.5432   -3.1510   -1.3320 H   0  0  0  0  0  0  0  0  0  0  0  0
    0.2881    2.9281   -1.2246 H   0  0  0  0  0  0  0  0  0  0  0  0
   -5.0820    3.0415    0.2363 H   0  0  0  0  0  0  0  0  0  0  0  0
   -6.1037    5.1738    0.8912 H   0  0  0  0  0  0  0  0  0  0  0  0
   -4.6886    7.0687    1.6359 H   0  0  0  0  0  0  0  0  0  0  0  0
   -2.2240    6.8109    1.7370 H   0  0  0  0  0  0  0  0  0  0  0  0
   -1.1692    4.6759    1.1441 H   0  0  0  0  0  0  0  0  0  0  0  0
   -4.2872    1.6772    1.8347 H   0  0  0  0  0  0  0  0  0  0  0  0
   -0.3787   -0.1257   -2.2443 H   0  0  0  0  0  0  0  0  0  0  0  0
    1.7019    0.9711   -1.5129 H   0  0  0  0  0  0  0  0  0  0  0  0
    1.6314    0.2000    0.0735 H   0  0  0  0  0  0  0  0  0  0  0  0
    3.5887    0.7032   -2.9271 H   0  0  0  0  0  0  0  0  0  0  0  0
    3.8745    0.9002   -1.1797 H   0  0  0  0  0  0  0  0  0  0  0  0
    5.8470   -0.6450   -2.9593 H   0  0  0  0  0  0  0  0  0  0  0  0
    5.8803    1.0981   -2.8646 H   0  0  0  0  0  0  0  0  0  0  0  0
    6.4914    2.2939   -0.7978 H   0  0  0  0  0  0  0  0  0  0  0  0
    7.7845    2.1994    1.3040 H   0  0  0  0  0  0  0  0  0  0  0  0
    8.4230    0.0102    2.2815 H   0  0  0  0  0  0  0  0  0  0  0  0
    7.7590   -2.0934    1.1442 H   0  0  0  0  0  0  0  0  0  0  0  0
    6.4651   -2.0171   -0.9566 H   0  0  0  0  0  0  0  0  0  0  0  0
    1.8455   -2.6275   -0.0823 H   0  0  0  0  0  0  0  0  0  0  0  0
    1.9262   -3.2120   -1.7470 H   0  0  0  0  0  0  0  0  0  0  0  0
   -0.3573   -2.5329   -2.2166 H   0  0  0  0  0  0  0  0  0  0  0  0
   -0.3658   -3.4199   -0.6847 H   0  0  0  0  0  0  0  0  0  0  0  0
  1  2  1  0
  2  3  2  0
  3  4  1  0
  3  5  1  0
  5  6  2  0
  6  7  1  0
  7  8  2  0
  8  9  1  0
  9 10  1  0
 10 11  2  0
 10 12  1  0
 12 13  1  0
 13 14  1  0
 14 15  2  0
 15 16  1  0
 15 17  1  0
 17 18  1  0
 18 19  2  0
 19 20  1  0
 20 21  2  0
 21 22  1  0
 22 23  2  0
 17 24  1  0
 24 25  1  0
 14 26  1  0
 26 27  1  0
 27 28  1  0
 28 29  1  0
 29 30  2  0
 29 31  1  0
 31 32  1  0
 32 33  1  0
 33 34  2  0
 34 35  1  0
 35 36  2  0
 36 37  1  0
 37 38  2  0
 28 39  1  0
 39 40  1  0
 40 41  1  0
  8  2  1  0
 12 41  1  6
 12  7  1  0
 24 13  2  0
 41 26  1  0
 23 18  1  0
 38 33  1  0
  1 42  1  0
  1 43  1  0
  1 44  1  0
  5 45  1  0
  6 46  1  0
  9 47  1  0
 16 48  1  0
 19 49  1  0
 20 50  1  0
 21 51  1  0
 22 52  1  0
 23 53  1  0
 25 54  1  0
 26 55  1  6
 27 56  1  0
 27 57  1  0
 31 58  1  0
 31 59  1  0
 32 60  1  0
 32 61  1  0
 34 62  1  0
 35 63  1  0
 36 64  1  0
 37 65  1  0
 38 66  1  0
 39 67  1  0
 39 68  1  0
 40 69  1  0
 40 70  1  0
M  END
$$$$
