
     RDKit          3D

 31 31  0  0  0  0  0  0  0  0999 V2000
    3.0007   -0.5920    2.8428 C   0  0  0  0  0  0  0  0  0  0  0  0
    3.7766   -0.5431    1.6534 O   0  0  0  0  0  0  0  0  0  0  0  0
    3.1072    0.1780    0.6180 C   0  0  0  0  0  0  0  0  0  0  0  0
    1.9097   -0.4846    0.2115 O   0  0  0  0  0  0  0  0  0  0  0  0
    1.1934    0.2591   -0.6950 C   0  0  0  0  0  0  0  0  0  0  0  0
   -0.1483    0.2659   -0.7594 C   0  0  0  0  0  0  0  0  0  0  0  0
   -0.8942    0.9966   -1.6653 N   0  0  0  0  0  0  0  0  0  0  0  0
   -0.4477    1.8903   -2.6213 C   0  0  0  0  0  0  0  0  0  0  0  0
   -1.5718    2.4668   -3.4448 C   0  0  0  0  0  0  0  0  0  0  0  0
    0.7130    2.2420   -2.8038 O   0  0  0  0  0  0  0  0  0  0  0  0
   -0.9383   -0.5463    0.1916 C   0  0  0  0  0  0  0  0  0  0  0  0
   -1.7440    0.0833    1.1515 C   0  0  0  0  0  0  0  0  0  0  0  0
   -2.5101   -0.6755    2.0389 C   0  0  0  0  0  0  0  0  0  0  0  0
   -2.4780   -2.0678    1.9734 C   0  0  0  0  0  0  0  0  0  0  0  0
   -1.6794   -2.7032    1.0236 C   0  0  0  0  0  0  0  0  0  0  0  0
   -0.9132   -1.9461    0.1351 C   0  0  0  0  0  0  0  0  0  0  0  0
    3.5842   -1.1076    3.6105 H   0  0  0  0  0  0  0  0  0  0  0  0
    2.7748    0.4178    3.1990 H   0  0  0  0  0  0  0  0  0  0  0  0
    2.0745   -1.1518    2.6818 H   0  0  0  0  0  0  0  0  0  0  0  0
    2.8957    1.1980    0.9652 H   0  0  0  0  0  0  0  0  0  0  0  0
    3.7988    0.2309   -0.2305 H   0  0  0  0  0  0  0  0  0  0  0  0
    1.8272    0.8169   -1.3720 H   0  0  0  0  0  0  0  0  0  0  0  0
   -1.8965    0.8516   -1.6077 H   0  0  0  0  0  0  0  0  0  0  0  0
   -1.9721    3.3503   -2.9409 H   0  0  0  0  0  0  0  0  0  0  0  0
   -1.1902    2.7494   -4.4301 H   0  0  0  0  0  0  0  0  0  0  0  0
   -2.3707    1.7338   -3.5895 H   0  0  0  0  0  0  0  0  0  0  0  0
   -1.7683    1.1684    1.2205 H   0  0  0  0  0  0  0  0  0  0  0  0
   -3.1269   -0.1811    2.7848 H   0  0  0  0  0  0  0  0  0  0  0  0
   -3.0707   -2.6589    2.6669 H   0  0  0  0  0  0  0  0  0  0  0  0
   -1.6477   -3.7887    0.9765 H   0  0  0  0  0  0  0  0  0  0  0  0
   -0.2876   -2.4522   -0.5972 H   0  0  0  0  0  0  0  0  0  0  0  0
  1  2  1  0
  2  3  1  0
  3  4  1  0
  4  5  1  0
  5  6  2  3
  6  7  1  0
  7  8  1  0
  8  9  1  0
  8 10  2  0
  6 11  1  0
 11 12  2  0
 12 13  1  0
 13 14  2  0
 14 15  1  0
 15 16  2  0
 16 11  1  0
  1 17  1  0
  1 18  1  0
  1 19  1  0
  3 20  1  0
  3 21  1  0
  5 22  1  0
  7 23  1  0
  9 24  1  0
  9 25  1  0
  9 26  1  0
 12 27  1  0
 13 28  1  0
 14 29  1  0
 15 30  1  0
 16 31  1  0
M  END
$$$$
