
     RDKit          3D

 43 46  0  0  0  0  0  0  0  0999 V2000
    0.8678    1.0158    2.5236 O   0  0  0  0  0  0  0  0  0  0  0  0
    1.7728    0.1758    2.5198 C   0  0  0  0  0  0  0  0  0  0  0  0
    1.6430   -1.1600    3.2381 C   0  0  0  0  0  0  0  0  0  0  0  0
    0.1326   -2.0502    2.7612 S   0  0  0  0  0  0  0  0  0  0  0  0
    0.0806   -1.6899    1.0738 C   0  0  0  0  0  0  0  0  0  0  0  0
    0.9652   -2.0895    0.1896 N   0  0  0  0  0  0  0  0  0  0  0  0
    0.6610   -1.4735   -0.9989 N   0  0  0  0  0  0  0  0  0  0  0  0
   -0.3832   -0.6823   -0.8099 C   0  0  0  0  0  0  0  0  0  0  0  0
   -0.9661    0.1916   -1.8204 C   0  0  0  0  0  0  0  0  0  0  0  0
   -1.4359   -0.3259   -3.0325 C   0  0  0  0  0  0  0  0  0  0  0  0
   -2.0060    0.5269   -3.9732 C   0  0  0  0  0  0  0  0  0  0  0  0
   -2.0897    1.8771   -3.6653 C   0  0  0  0  0  0  0  0  0  0  0  0
   -1.6258    2.4211   -2.5162 N   0  0  0  0  0  0  0  0  0  0  0  0
   -1.0526    1.5714   -1.6360 C   0  0  0  0  0  0  0  0  0  0  0  0
   -0.8073   -0.8215    0.4989 N   0  0  0  0  0  0  0  0  0  0  0  0
   -1.8941   -0.1100    1.1456 C   0  0  0  0  0  0  0  0  0  0  0  0
   -3.2141   -0.6575    0.7501 C   0  0  0  0  0  0  0  0  0  0  0  0
   -4.2704   -0.1545    0.0162 C   0  0  0  0  0  0  0  0  0  0  0  0
   -5.2796   -1.1465    0.0404 C   0  0  0  0  0  0  0  0  0  0  0  0
   -4.7703   -2.1935    0.7770 C   0  0  0  0  0  0  0  0  0  0  0  0
   -3.5179   -1.9070    1.2111 O   0  0  0  0  0  0  0  0  0  0  0  0
    3.0433    0.4975    1.8062 C   0  0  0  0  0  0  0  0  0  0  0  0
    3.8571   -0.4927    1.2411 C   0  0  0  0  0  0  0  0  0  0  0  0
    5.0515   -0.1407    0.6002 C   0  0  0  0  0  0  0  0  0  0  0  0
    5.4311    1.2049    0.5030 C   0  0  0  0  0  0  0  0  0  0  0  0
    6.9269    1.5602   -0.2822 Cl  0  0  0  0  0  0  0  0  0  0  0  0
    4.6023    2.1997    1.0371 C   0  0  0  0  0  0  0  0  0  0  0  0
    4.9932    3.8848    0.9435 Cl  0  0  0  0  0  0  0  0  0  0  0  0
    3.4111    1.8471    1.6854 C   0  0  0  0  0  0  0  0  0  0  0  0
    2.5074   -1.8136    3.1050 H   0  0  0  0  0  0  0  0  0  0  0  0
    1.5828   -0.9431    4.3126 H   0  0  0  0  0  0  0  0  0  0  0  0
   -1.3545   -1.3919   -3.2516 H   0  0  0  0  0  0  0  0  0  0  0  0
   -2.3793    0.1472   -4.9207 H   0  0  0  0  0  0  0  0  0  0  0  0
   -2.5307    2.5805   -4.3621 H   0  0  0  0  0  0  0  0  0  0  0  0
   -0.6436    2.0554   -0.7489 H   0  0  0  0  0  0  0  0  0  0  0  0
   -1.7831   -0.1661    2.2318 H   0  0  0  0  0  0  0  0  0  0  0  0
   -1.8139    0.9507    0.8912 H   0  0  0  0  0  0  0  0  0  0  0  0
   -4.3154    0.8153   -0.4638 H   0  0  0  0  0  0  0  0  0  0  0  0
   -6.2592   -1.1032   -0.4191 H   0  0  0  0  0  0  0  0  0  0  0  0
   -5.1552   -3.1604    1.0700 H   0  0  0  0  0  0  0  0  0  0  0  0
    3.5719   -1.5481    1.2566 H   0  0  0  0  0  0  0  0  0  0  0  0
    5.6787   -0.9239    0.1726 H   0  0  0  0  0  0  0  0  0  0  0  0
    2.7675    2.6230    2.0997 H   0  0  0  0  0  0  0  0  0  0  0  0
  1  2  2  0
  2  3  1  0
  3  4  1  0
  4  5  1  0
  5  6  2  0
  6  7  1  0
  7  8  2  0
  8  9  1  0
  9 10  2  0
 10 11  1  0
 11 12  2  0
 12 13  1  0
 13 14  2  0
  8 15  1  0
 15 16  1  0
 16 17  1  0
 17 18  2  0
 18 19  1  0
 19 20  2  0
 20 21  1  0
  2 22  1  0
 22 23  2  0
 23 24  1  0
 24 25  2  0
 25 26  1  0
 25 27  1  0
 27 28  1  0
 27 29  2  0
 15  5  1  0
 21 17  1  0
 29 22  1  0
 14  9  1  0
  3 30  1  0
  3 31  1  0
 10 32  1  0
 11 33  1  0
 12 34  1  0
 14 35  1  0
 16 36  1  0
 16 37  1  0
 18 38  1  0
 19 39  1  0
 20 40  1  0
 23 41  1  0
 24 42  1  0
 29 43  1  0
M  END
$$$$
