
     RDKit          3D

 61 66  0  0  0  0  0  0  0  0999 V2000
    9.6581    0.8002    0.8139 F   0  0  0  0  0  0  0  0  0  0  0  0
    8.7216   -0.1106    1.2033 C   0  0  0  0  0  0  0  0  0  0  0  0
    9.1095   -1.2995    0.6637 F   0  0  0  0  0  0  0  0  0  0  0  0
    8.8751   -0.2453    2.5516 F   0  0  0  0  0  0  0  0  0  0  0  0
    7.3231    0.2784    0.7941 C   0  0  0  0  0  0  0  0  0  0  0  0
    7.0742    0.7416   -0.5060 C   0  0  0  0  0  0  0  0  0  0  0  0
    5.7805    1.0898   -0.8994 C   0  0  0  0  0  0  0  0  0  0  0  0
    4.7068    0.9759   -0.0051 C   0  0  0  0  0  0  0  0  0  0  0  0
    3.3063    1.3654   -0.4329 C   0  0  0  0  0  0  0  0  0  0  0  0
    2.8293    0.6203   -1.6089 N   0  0  0  0  0  0  0  0  0  0  0  0
    1.5550    1.1749   -2.1127 C   0  0  0  0  0  0  0  0  0  0  0  0
    0.3171    0.9228   -1.2207 C   0  0  0  0  0  0  0  0  0  0  0  0
    0.1861   -0.4875   -0.8557 N   0  0  0  0  0  0  0  0  0  0  0  0
   -1.0321   -1.1478   -0.7296 C   0  0  0  0  0  0  0  0  0  0  0  0
   -1.0211   -2.4510   -0.8795 N   0  0  0  0  0  0  0  0  0  0  0  0
   -2.2087   -3.2018   -0.8324 C   0  0  0  0  0  0  0  0  0  0  0  0
   -2.1274   -4.5840   -1.0138 C   0  0  0  0  0  0  0  0  0  0  0  0
   -3.2784   -5.3759   -0.9930 C   0  0  0  0  0  0  0  0  0  0  0  0
   -4.5274   -4.7885   -0.7907 C   0  0  0  0  0  0  0  0  0  0  0  0
   -4.6312   -3.4090   -0.6074 C   0  0  0  0  0  0  0  0  0  0  0  0
   -3.4699   -2.6299   -0.6309 C   0  0  0  0  0  0  0  0  0  0  0  0
   -3.4790   -1.2393   -0.4355 N   0  0  0  0  0  0  0  0  0  0  0  0
   -4.5455   -0.4086   -0.1864 C   0  0  0  0  0  0  0  0  0  0  0  0
   -4.0662    0.8667    0.0371 C   0  0  0  0  0  0  0  0  0  0  0  0
   -4.9060    2.0045    0.3800 C   0  0  0  0  0  0  0  0  0  0  0  0
   -4.4543    2.9597    1.3007 C   0  0  0  0  0  0  0  0  0  0  0  0
   -5.2503    4.0597    1.6316 C   0  0  0  0  0  0  0  0  0  0  0  0
   -6.5032    4.2173    1.0423 C   0  0  0  0  0  0  0  0  0  0  0  0
   -6.9616    3.2762    0.1225 C   0  0  0  0  0  0  0  0  0  0  0  0
   -6.1671    2.1749   -0.2075 C   0  0  0  0  0  0  0  0  0  0  0  0
   -2.6533    0.7921   -0.0956 C   0  0  0  0  0  0  0  0  0  0  0  0
   -2.3114   -0.5034   -0.4474 C   0  0  0  0  0  0  0  0  0  0  0  0
    1.4264   -1.1402   -0.4031 C   0  0  0  0  0  0  0  0  0  0  0  0
    2.6144   -0.8192   -1.3324 C   0  0  0  0  0  0  0  0  0  0  0  0
    4.9538    0.5100    1.2932 C   0  0  0  0  0  0  0  0  0  0  0  0
    6.2482    0.1609    1.6876 C   0  0  0  0  0  0  0  0  0  0  0  0
    7.8904    0.8321   -1.2213 H   0  0  0  0  0  0  0  0  0  0  0  0
    5.6042    1.4421   -1.9145 H   0  0  0  0  0  0  0  0  0  0  0  0
    2.6175    1.2748    0.4151 H   0  0  0  0  0  0  0  0  0  0  0  0
    3.3470    2.4367   -0.6725 H   0  0  0  0  0  0  0  0  0  0  0  0
    1.3655    0.7302   -3.0991 H   0  0  0  0  0  0  0  0  0  0  0  0
    1.6598    2.2515   -2.2958 H   0  0  0  0  0  0  0  0  0  0  0  0
   -0.5542    1.2566   -1.7944 H   0  0  0  0  0  0  0  0  0  0  0  0
    0.3790    1.5306   -0.3113 H   0  0  0  0  0  0  0  0  0  0  0  0
   -1.1557   -5.0429   -1.1761 H   0  0  0  0  0  0  0  0  0  0  0  0
   -3.1976   -6.4504   -1.1365 H   0  0  0  0  0  0  0  0  0  0  0  0
   -5.4209   -5.4080   -0.7748 H   0  0  0  0  0  0  0  0  0  0  0  0
   -5.6134   -2.9772   -0.4480 H   0  0  0  0  0  0  0  0  0  0  0  0
   -5.5566   -0.7871   -0.1528 H   0  0  0  0  0  0  0  0  0  0  0  0
   -3.4853    2.8495    1.7811 H   0  0  0  0  0  0  0  0  0  0  0  0
   -4.8925    4.7910    2.3517 H   0  0  0  0  0  0  0  0  0  0  0  0
   -7.1222    5.0729    1.2995 H   0  0  0  0  0  0  0  0  0  0  0  0
   -7.9367    3.3994   -0.3419 H   0  0  0  0  0  0  0  0  0  0  0  0
   -6.5382    1.4602   -0.9382 H   0  0  0  0  0  0  0  0  0  0  0  0
   -1.9693    1.6160    0.0444 H   0  0  0  0  0  0  0  0  0  0  0  0
    1.3235   -2.2301   -0.3585 H   0  0  0  0  0  0  0  0  0  0  0  0
    1.6423   -0.8087    0.6192 H   0  0  0  0  0  0  0  0  0  0  0  0
    3.5254   -1.2789   -0.9328 H   0  0  0  0  0  0  0  0  0  0  0  0
    2.4428   -1.3186   -2.2957 H   0  0  0  0  0  0  0  0  0  0  0  0
    4.1393    0.4120    2.0078 H   0  0  0  0  0  0  0  0  0  0  0  0
    6.4147   -0.2037    2.7004 H   0  0  0  0  0  0  0  0  0  0  0  0
  1  2  1  0
  2  3  1  0
  2  4  1  0
  2  5  1  0
  5  6  2  0
  6  7  1  0
  7  8  2  0
  8  9  1  0
  9 10  1  0
 10 11  1  0
 11 12  1  0
 12 13  1  0
 13 14  1  0
 14 15  2  0
 15 16  1  0
 16 17  2  0
 17 18  1  0
 18 19  2  0
 19 20  1  0
 20 21  2  0
 21 22  1  0
 22 23  1  0
 23 24  2  0
 24 25  1  0
 25 26  2  0
 26 27  1  0
 27 28  2  0
 28 29  1  0
 29 30  2  0
 24 31  1  0
 31 32  2  0
 13 33  1  0
 33 34  1  0
  8 35  1  0
 35 36  2  0
 36  5  1  0
 34 10  1  0
 32 14  1  0
 21 16  1  0
 32 22  1  0
 30 25  1  0
  6 37  1  0
  7 38  1  0
  9 39  1  0
  9 40  1  0
 11 41  1  0
 11 42  1  0
 12 43  1  0
 12 44  1  0
 17 45  1  0
 18 46  1  0
 19 47  1  0
 20 48  1  0
 23 49  1  0
 26 50  1  0
 27 51  1  0
 28 52  1  0
 29 53  1  0
 30 54  1  0
 31 55  1  0
 33 56  1  0
 33 57  1  0
 34 58  1  0
 34 59  1  0
 35 60  1  0
 36 61  1  0
M  END
$$$$
