
     RDKit          3D

 42 44  0  0  0  0  0  0  0  0999 V2000
   -3.9030   -1.6232   -1.8936 C   0  0  0  0  0  0  0  0  0  0  0  0
   -2.9813   -1.3271   -0.7262 C   0  0  0  0  0  0  0  0  0  0  0  0
   -2.0479   -2.1033   -0.5043 O   0  0  0  0  0  0  0  0  0  0  0  0
   -3.2284   -0.1375   -0.0069 N   0  0  0  0  0  0  0  0  0  0  0  0
   -2.1940    0.5316    0.6634 C   0  0  0  0  0  0  0  0  0  0  0  0
   -0.8723    0.3403    0.5193 C   0  0  0  0  0  0  0  0  0  0  0  0
    0.1085    1.0955    1.2744 C   0  0  0  0  0  0  0  0  0  0  0  0
    1.4471    1.0224    1.1853 C   0  0  0  0  0  0  0  0  0  0  0  0
    2.2271    0.1767    0.3003 C   0  0  0  0  0  0  0  0  0  0  0  0
    3.5658    0.1169    0.2308 C   0  0  0  0  0  0  0  0  0  0  0  0
    4.7185    1.0157    1.1739 S   0  0  0  0  0  0  0  0  0  0  0  0
    6.0811    0.2297    0.3598 C   0  0  0  0  0  0  0  0  0  0  0  0
    7.4274    0.4554    0.6091 C   0  0  0  0  0  0  0  0  0  0  0  0
    8.3799   -0.2550   -0.1302 C   0  0  0  0  0  0  0  0  0  0  0  0
    7.9829   -1.1802   -1.1075 C   0  0  0  0  0  0  0  0  0  0  0  0
    6.6285   -1.4048   -1.3559 C   0  0  0  0  0  0  0  0  0  0  0  0
    5.6990   -0.6901   -0.6113 C   0  0  0  0  0  0  0  0  0  0  0  0
    4.2415   -0.7993   -0.7402 C   0  0  0  0  0  0  0  0  0  0  0  0
    3.6894   -1.5367   -1.5389 O   0  0  0  0  0  0  0  0  0  0  0  0
   -4.5776    0.3494    0.1513 C   0  0  0  0  0  0  0  0  0  0  0  0
   -4.8439    1.7283    0.1488 C   0  0  0  0  0  0  0  0  0  0  0  0
   -6.1466    2.2064    0.3149 C   0  0  0  0  0  0  0  0  0  0  0  0
   -7.1992    1.3138    0.4993 C   0  0  0  0  0  0  0  0  0  0  0  0
   -6.9501   -0.0560    0.5229 C   0  0  0  0  0  0  0  0  0  0  0  0
   -5.6479   -0.5351    0.3537 C   0  0  0  0  0  0  0  0  0  0  0  0
   -3.2977   -2.0115   -2.7196 H   0  0  0  0  0  0  0  0  0  0  0  0
   -4.6345   -2.3837   -1.6115 H   0  0  0  0  0  0  0  0  0  0  0  0
   -4.4053   -0.7268   -2.2649 H   0  0  0  0  0  0  0  0  0  0  0  0
   -2.5301    1.2927    1.3648 H   0  0  0  0  0  0  0  0  0  0  0  0
   -0.4983   -0.3946   -0.1850 H   0  0  0  0  0  0  0  0  0  0  0  0
   -0.2946    1.7995    2.0028 H   0  0  0  0  0  0  0  0  0  0  0  0
    2.0104    1.6750    1.8515 H   0  0  0  0  0  0  0  0  0  0  0  0
    1.6674   -0.4713   -0.3727 H   0  0  0  0  0  0  0  0  0  0  0  0
    7.7433    1.1697    1.3640 H   0  0  0  0  0  0  0  0  0  0  0  0
    9.4395   -0.0891    0.0543 H   0  0  0  0  0  0  0  0  0  0  0  0
    8.7351   -1.7251   -1.6740 H   0  0  0  0  0  0  0  0  0  0  0  0
    6.3060   -2.1180   -2.1091 H   0  0  0  0  0  0  0  0  0  0  0  0
   -4.0465    2.4483   -0.0192 H   0  0  0  0  0  0  0  0  0  0  0  0
   -6.3384    3.2764    0.2961 H   0  0  0  0  0  0  0  0  0  0  0  0
   -8.2122    1.6857    0.6315 H   0  0  0  0  0  0  0  0  0  0  0  0
   -7.7678   -0.7540    0.6858 H   0  0  0  0  0  0  0  0  0  0  0  0
   -5.4810   -1.6068    0.4291 H   0  0  0  0  0  0  0  0  0  0  0  0
  1  2  1  0
  2  3  2  0
  2  4  1  0
  4  5  1  0
  5  6  2  3
  6  7  1  0
  7  8  2  3
  8  9  1  0
  9 10  2  3
 10 11  1  0
 11 12  1  0
 12 13  2  0
 13 14  1  0
 14 15  2  0
 15 16  1  0
 16 17  2  0
 17 18  1  0
 18 19  2  0
  4 20  1  0
 20 21  2  0
 21 22  1  0
 22 23  2  0
 23 24  1  0
 24 25  2  0
 18 10  1  0
 25 20  1  0
 17 12  1  0
  1 26  1  0
  1 27  1  0
  1 28  1  0
  5 29  1  0
  6 30  1  0
  7 31  1  0
  8 32  1  0
  9 33  1  0
 13 34  1  0
 14 35  1  0
 15 36  1  0
 16 37  1  0
 21 38  1  0
 22 39  1  0
 23 40  1  0
 24 41  1  0
 25 42  1  0
M  END
$$$$
