
     RDKit          3D

 40 42  0  0  0  0  0  0  0  0999 V2000
   -5.6417    2.5410    1.1850 C   0  0  0  0  0  0  0  0  0  0  0  0
   -4.3776    2.4557    0.7491 C   0  0  0  0  0  0  0  0  0  0  0  0
   -3.9460    1.6761   -0.4589 C   0  0  0  0  0  0  0  0  0  0  0  0
   -2.8918    0.7170   -0.1387 N   0  0  0  0  0  0  0  0  0  0  0  0
   -1.5495    0.9553   -0.3187 C   0  0  0  0  0  0  0  0  0  0  0  0
   -0.8583   -0.1744    0.0617 C   0  0  0  0  0  0  0  0  0  0  0  0
    0.5623   -0.3460    0.0403 C   0  0  0  0  0  0  0  0  0  0  0  0
    1.4583    0.5343   -0.4388 C   0  0  0  0  0  0  0  0  0  0  0  0
    2.9062    0.3010   -0.4352 C   0  0  0  0  0  0  0  0  0  0  0  0
    3.5715   -0.2097    0.6785 C   0  0  0  0  0  0  0  0  0  0  0  0
    4.9498   -0.3863    0.6369 C   0  0  0  0  0  0  0  0  0  0  0  0
    5.6533   -0.0556   -0.4689 N   0  0  0  0  0  4  0  0  0  0  0  0
    7.1110   -0.2645   -0.4944 C   0  0  0  0  0  0  0  0  0  0  0  0
    5.0307    0.4473   -1.5582 C   0  0  0  0  0  0  0  0  0  0  0  0
    3.6542    0.6433   -1.5597 C   0  0  0  0  0  0  0  0  0  0  0  0
   -1.8223   -1.1416    0.4905 C   0  0  0  0  0  0  0  0  0  0  0  0
   -1.7428   -2.4642    0.9823 C   0  0  0  0  0  0  0  0  0  0  0  0
   -2.9115   -3.1529    1.3243 C   0  0  0  0  0  0  0  0  0  0  0  0
   -4.1543   -2.5460    1.1858 C   0  0  0  0  0  0  0  0  0  0  0  0
   -4.2649   -1.2404    0.7011 C   0  0  0  0  0  0  0  0  0  0  0  0
   -3.0869   -0.5569    0.3564 C   0  0  0  0  0  0  0  0  0  0  0  0
   -5.8855    3.1218    2.0703 H   0  0  0  0  0  0  0  0  0  0  0  0
   -6.4605    2.0368    0.6805 H   0  0  0  0  0  0  0  0  0  0  0  0
   -3.5979    2.9818    1.2962 H   0  0  0  0  0  0  0  0  0  0  0  0
   -4.7713    1.1219   -0.9194 H   0  0  0  0  0  0  0  0  0  0  0  0
   -3.5481    2.3606   -1.2168 H   0  0  0  0  0  0  0  0  0  0  0  0
   -1.2140    1.9114   -0.6970 H   0  0  0  0  0  0  0  0  0  0  0  0
    0.9211   -1.2904    0.4434 H   0  0  0  0  0  0  0  0  0  0  0  0
    1.1279    1.4717   -0.8802 H   0  0  0  0  0  0  0  0  0  0  0  0
    3.0271   -0.4643    1.5862 H   0  0  0  0  0  0  0  0  0  0  0  0
    5.4982   -0.7885    1.4842 H   0  0  0  0  0  0  0  0  0  0  0  0
    7.5689    0.4838   -1.1466 H   0  0  0  0  0  0  0  0  0  0  0  0
    7.2901   -1.2738   -0.8733 H   0  0  0  0  0  0  0  0  0  0  0  0
    7.5073   -0.1520    0.5180 H   0  0  0  0  0  0  0  0  0  0  0  0
    5.6416    0.6894   -2.4234 H   0  0  0  0  0  0  0  0  0  0  0  0
    3.1706    1.0511   -2.4459 H   0  0  0  0  0  0  0  0  0  0  0  0
   -0.7820   -2.9551    1.0982 H   0  0  0  0  0  0  0  0  0  0  0  0
   -2.8475   -4.1701    1.7030 H   0  0  0  0  0  0  0  0  0  0  0  0
   -5.0544   -3.0924    1.4594 H   0  0  0  0  0  0  0  0  0  0  0  0
   -5.2411   -0.7757    0.6036 H   0  0  0  0  0  0  0  0  0  0  0  0
  1  2  2  0
  2  3  1  0
  3  4  1  0
  4  5  1  0
  5  6  2  0
  6  7  1  0
  7  8  2  3
  8  9  1  0
  9 10  2  0
 10 11  1  0
 11 12  2  0
 12 13  1  0
 12 14  1  0
 14 15  2  0
  6 16  1  0
 16 17  2  0
 17 18  1  0
 18 19  2  0
 19 20  1  0
 20 21  2  0
 21  4  1  0
 15  9  1  0
 21 16  1  0
  1 22  1  0
  1 23  1  0
  2 24  1  0
  3 25  1  0
  3 26  1  0
  5 27  1  0
  7 28  1  0
  8 29  1  0
 10 30  1  0
 11 31  1  0
 13 32  1  0
 13 33  1  0
 13 34  1  0
 14 35  1  0
 15 36  1  0
 17 37  1  0
 18 38  1  0
 19 39  1  0
 20 40  1  0
M  CHG  1  12   1
M  END
$$$$
