
     RDKit          3D

 22 22  0  0  0  0  0  0  0  0999 V2000
    2.4486   -0.5552   -2.4703 N   0  0  0  0  0  0  0  0  0  0  0  0
    2.5345   -1.2979   -1.4290 C   0  0  0  0  0  0  0  0  0  0  0  0
    3.4218   -2.3069   -1.2925 N   0  0  0  0  0  0  0  0  0  0  0  0
    1.5047   -1.0465   -0.0525 S   0  0  0  0  0  0  0  0  0  0  0  0
    0.3891    0.2240   -0.7033 C   0  0  0  0  0  0  0  0  0  0  0  0
   -0.6490    0.5571    0.3288 C   0  0  0  0  0  0  0  0  0  0  0  0
   -0.6801    1.6933    1.0457 C   0  0  0  0  0  0  0  0  0  0  0  0
   -1.8090    1.8683    2.0114 C   0  0  0  0  0  0  0  0  0  0  0  0
   -2.8024    0.3982    1.7837 S   0  0  0  0  0  6  0  0  0  0  0  0
   -2.7781   -0.3760    3.0108 O   0  0  0  0  0  0  0  0  0  0  0  0
   -4.0555    0.7784    1.1576 O   0  0  0  0  0  0  0  0  0  0  0  0
   -1.7746   -0.4140    0.5631 C   0  0  0  0  0  0  0  0  0  0  0  0
    3.1194   -0.8861   -3.1673 H   0  0  0  0  0  0  0  0  0  0  0  0
    3.5576   -2.5980   -0.3302 H   0  0  0  0  0  0  0  0  0  0  0  0
    4.2884   -2.2105   -1.8039 H   0  0  0  0  0  0  0  0  0  0  0  0
   -0.1029   -0.1285   -1.6164 H   0  0  0  0  0  0  0  0  0  0  0  0
    0.9710    1.1170   -0.9575 H   0  0  0  0  0  0  0  0  0  0  0  0
    0.0731    2.4682    0.9494 H   0  0  0  0  0  0  0  0  0  0  0  0
   -2.4112    2.7469    1.7717 H   0  0  0  0  0  0  0  0  0  0  0  0
   -1.4525    1.9056    3.0427 H   0  0  0  0  0  0  0  0  0  0  0  0
   -1.4267   -1.3619    0.9792 H   0  0  0  0  0  0  0  0  0  0  0  0
   -2.3665   -0.5754   -0.3408 H   0  0  0  0  0  0  0  0  0  0  0  0
  1  2  2  3
  2  3  1  0
  2  4  1  0
  4  5  1  0
  5  6  1  0
  6  7  2  0
  7  8  1  0
  8  9  1  0
  9 10  2  0
  9 11  2  0
  9 12  1  0
 12  6  1  0
  1 13  1  0
  3 14  1  0
  3 15  1  0
  5 16  1  0
  5 17  1  0
  7 18  1  0
  8 19  1  0
  8 20  1  0
 12 21  1  0
 12 22  1  0
M  END
$$$$
