
     RDKit          3D

 57 61  0  0  0  0  0  0  0  0999 V2000
   -4.9277   -3.4483   -1.6138 C   0  0  0  0  0  0  0  0  0  0  0  0
   -4.2784   -2.1860   -1.0426 C   0  0  0  0  0  0  0  0  0  0  0  0
   -5.3538   -1.1474   -0.7269 C   0  0  0  0  0  0  0  0  0  0  0  0
   -3.2719   -1.6010   -2.0359 C   0  0  0  0  0  0  0  0  0  0  0  0
   -3.4054   -1.7953   -3.2463 O   0  0  0  0  0  0  0  0  0  0  0  0
   -2.2360   -0.8130   -1.5376 N   0  0  0  0  0  0  0  0  0  0  0  0
   -1.2823   -0.2617   -2.5015 C   0  0  0  0  0  0  0  0  0  0  0  0
    0.0920   -0.0401   -1.8790 C   0  0  0  0  0  0  0  0  0  0  0  0
    0.0202    0.9681   -0.7027 C   0  0  0  0  0  0  0  0  0  0  0  0
   -1.2968    0.7865    0.1020 C   0  0  0  0  0  0  0  0  0  0  0  0
   -1.9675   -0.5649   -0.1240 C   0  0  0  0  0  0  0  0  0  0  0  0
   -0.0647    2.2536   -1.3848 O   0  0  0  0  0  0  0  0  0  0  0  0
    0.2750    3.3738   -0.6883 C   0  0  0  0  0  0  0  0  0  0  0  0
   -0.0694    4.5905   -1.2804 C   0  0  0  0  0  0  0  0  0  0  0  0
    0.2192    5.7912   -0.6294 C   0  0  0  0  0  0  0  0  0  0  0  0
    0.8522    5.7661    0.6090 C   0  0  0  0  0  0  0  0  0  0  0  0
    1.1226    6.9194    1.2331 F   0  0  0  0  0  0  0  0  0  0  0  0
    1.2106    4.5645    1.2052 C   0  0  0  0  0  0  0  0  0  0  0  0
    0.9274    3.3690    0.5400 C   0  0  0  0  0  0  0  0  0  0  0  0
    1.3090    2.0799    1.1279 C   0  0  0  0  0  0  0  0  0  0  0  0
    1.5943    2.0175    2.3213 O   0  0  0  0  0  0  0  0  0  0  0  0
    1.2959    0.8818    0.1834 C   0  0  0  0  0  0  0  0  0  0  0  0
    1.4685   -0.4192    0.9559 C   0  0  0  0  0  0  0  0  0  0  0  0
    2.9436   -0.5821    0.8050 C   0  0  0  0  0  0  0  0  0  0  0  0
    3.7141   -1.5658    1.6025 C   0  0  0  0  0  0  0  0  0  0  0  0
    5.1031   -1.6337    1.4344 C   0  0  0  0  0  0  0  0  0  0  0  0
    5.8575   -2.5529    2.1658 C   0  0  0  0  0  0  0  0  0  0  0  0
    5.2289   -3.4087    3.0681 C   0  0  0  0  0  0  0  0  0  0  0  0
    3.8466   -3.3473    3.2396 C   0  0  0  0  0  0  0  0  0  0  0  0
    3.0876   -2.4290    2.5087 C   0  0  0  0  0  0  0  0  0  0  0  0
    3.4822    0.1736   -0.0984 N   0  0  0  0  0  0  0  0  0  0  0  0
    2.4636    0.9807   -0.6476 O   0  0  0  0  0  0  0  0  0  0  0  0
   -5.5103   -3.2315   -2.5161 H   0  0  0  0  0  0  0  0  0  0  0  0
   -4.1659   -4.1887   -1.8818 H   0  0  0  0  0  0  0  0  0  0  0  0
   -5.6000   -3.9047   -0.8795 H   0  0  0  0  0  0  0  0  0  0  0  0
   -3.7572   -2.4819   -0.1267 H   0  0  0  0  0  0  0  0  0  0  0  0
   -6.0537   -1.5297    0.0234 H   0  0  0  0  0  0  0  0  0  0  0  0
   -4.9259   -0.2156   -0.3453 H   0  0  0  0  0  0  0  0  0  0  0  0
   -5.9272   -0.8902   -1.6250 H   0  0  0  0  0  0  0  0  0  0  0  0
   -1.7032    0.6804   -2.8723 H   0  0  0  0  0  0  0  0  0  0  0  0
   -1.1855   -0.9350   -3.3605 H   0  0  0  0  0  0  0  0  0  0  0  0
    0.7695    0.3331   -2.6576 H   0  0  0  0  0  0  0  0  0  0  0  0
    0.4810   -1.0114   -1.5565 H   0  0  0  0  0  0  0  0  0  0  0  0
   -1.1237    0.9155    1.1765 H   0  0  0  0  0  0  0  0  0  0  0  0
   -2.0134    1.5704   -0.1790 H   0  0  0  0  0  0  0  0  0  0  0  0
   -1.3327   -1.3828    0.2331 H   0  0  0  0  0  0  0  0  0  0  0  0
   -2.8882   -0.6009    0.4609 H   0  0  0  0  0  0  0  0  0  0  0  0
   -0.5671    4.6043   -2.2473 H   0  0  0  0  0  0  0  0  0  0  0  0
   -0.0462    6.7434   -1.0787 H   0  0  0  0  0  0  0  0  0  0  0  0
    1.7131    4.5694    2.1679 H   0  0  0  0  0  0  0  0  0  0  0  0
    1.1518   -0.3647    1.9997 H   0  0  0  0  0  0  0  0  0  0  0  0
    0.9904   -1.2808    0.4853 H   0  0  0  0  0  0  0  0  0  0  0  0
    5.6078   -0.9708    0.7340 H   0  0  0  0  0  0  0  0  0  0  0  0
    6.9354   -2.5984    2.0308 H   0  0  0  0  0  0  0  0  0  0  0  0
    5.8173   -4.1234    3.6384 H   0  0  0  0  0  0  0  0  0  0  0  0
    3.3598   -4.0160    3.9457 H   0  0  0  0  0  0  0  0  0  0  0  0
    2.0140   -2.4095    2.6658 H   0  0  0  0  0  0  0  0  0  0  0  0
  1  2  1  0
  2  3  1  0
  2  4  1  0
  4  5  2  0
  4  6  1  0
  6  7  1  0
  7  8  1  0
  8  9  1  0
  9 10  1  0
 10 11  1  0
  9 12  1  0
 12 13  1  0
 13 14  2  0
 14 15  1  0
 15 16  2  0
 16 17  1  0
 16 18  1  0
 18 19  2  0
 19 20  1  0
 20 21  2  0
 20 22  1  0
 22 23  1  0
 23 24  1  0
 24 25  1  0
 25 26  2  0
 26 27  1  0
 27 28  2  0
 28 29  1  0
 29 30  2  0
 24 31  2  0
 31 32  1  0
 11  6  1  0
 19 13  1  0
 32 22  1  0
 22  9  1  0
 30 25  1  0
  1 33  1  0
  1 34  1  0
  1 35  1  0
  2 36  1  0
  3 37  1  0
  3 38  1  0
  3 39  1  0
  7 40  1  0
  7 41  1  0
  8 42  1  0
  8 43  1  0
 10 44  1  0
 10 45  1  0
 11 46  1  0
 11 47  1  0
 14 48  1  0
 15 49  1  0
 18 50  1  0
 23 51  1  0
 23 52  1  0
 26 53  1  0
 27 54  1  0
 28 55  1  0
 29 56  1  0
 30 57  1  0
M  END
$$$$
