
     RDKit          3D

 38 39  0  0  0  0  0  0  0  0999 V2000
   -3.5513    2.7723    0.9511 C   0  0  0  0  0  0  0  0  0  0  0  0
   -3.6216    2.2921    2.2006 C   0  0  0  0  0  0  0  0  0  0  0  0
   -3.2652    0.9110    2.6855 C   0  0  0  0  0  0  0  0  0  0  0  0
   -2.7222   -0.0460    1.6500 C   0  0  0  0  0  0  0  0  0  0  0  0
   -3.5840   -0.8880    0.9376 C   0  0  0  0  0  0  0  0  0  0  0  0
   -3.0786   -1.7563   -0.0284 C   0  0  0  0  0  0  0  0  0  0  0  0
   -1.7112   -1.7845   -0.2948 C   0  0  0  0  0  0  0  0  0  0  0  0
   -1.3094   -2.6691   -1.2592 O   0  0  0  0  0  0  0  0  0  0  0  0
   -0.8150   -0.9527    0.3968 C   0  0  0  0  0  0  0  0  0  0  0  0
    0.6364   -0.9610    0.1481 C   0  0  0  0  0  0  0  0  0  0  0  0
    1.2452    0.1682   -0.4317 C   0  0  0  0  0  0  0  0  0  0  0  0
    2.6238    0.2053   -0.6998 C   0  0  0  0  0  0  0  0  0  0  0  0
    3.2500    1.4210   -1.3412 C   0  0  0  0  0  0  0  0  0  0  0  0
    3.3609    1.2830   -2.8332 C   0  0  0  0  0  0  0  0  0  0  0  0
    4.5148    1.3214   -3.5127 C   0  0  0  0  0  0  0  0  0  0  0  0
    3.4045   -0.9156   -0.3935 C   0  0  0  0  0  0  0  0  0  0  0  0
    2.8221   -2.0427    0.1834 C   0  0  0  0  0  0  0  0  0  0  0  0
    1.4555   -2.0606    0.4537 C   0  0  0  0  0  0  0  0  0  0  0  0
    0.9734   -3.2113    1.0173 O   0  0  0  0  0  0  0  0  0  0  0  0
   -1.3459   -0.0838    1.3684 C   0  0  0  0  0  0  0  0  0  0  0  0
   -3.8427    3.7958    0.7351 H   0  0  0  0  0  0  0  0  0  0  0  0
   -3.2105    2.1705    0.1143 H   0  0  0  0  0  0  0  0  0  0  0  0
   -3.9791    2.9650    2.9791 H   0  0  0  0  0  0  0  0  0  0  0  0
   -2.5300    1.0072    3.4950 H   0  0  0  0  0  0  0  0  0  0  0  0
   -4.1547    0.4664    3.1503 H   0  0  0  0  0  0  0  0  0  0  0  0
   -4.6550   -0.8672    1.1268 H   0  0  0  0  0  0  0  0  0  0  0  0
   -3.7511   -2.4078   -0.5803 H   0  0  0  0  0  0  0  0  0  0  0  0
   -0.3570   -2.5536   -1.4254 H   0  0  0  0  0  0  0  0  0  0  0  0
    0.6311    1.0315   -0.6877 H   0  0  0  0  0  0  0  0  0  0  0  0
    4.2316    1.6017   -0.8845 H   0  0  0  0  0  0  0  0  0  0  0  0
    2.6488    2.3098   -1.1123 H   0  0  0  0  0  0  0  0  0  0  0  0
    2.4313    1.1501   -3.3831 H   0  0  0  0  0  0  0  0  0  0  0  0
    4.5253    1.2166   -4.5934 H   0  0  0  0  0  0  0  0  0  0  0  0
    5.4693    1.4536   -3.0129 H   0  0  0  0  0  0  0  0  0  0  0  0
    4.4714   -0.9169   -0.6061 H   0  0  0  0  0  0  0  0  0  0  0  0
    3.4329   -2.9091    0.4227 H   0  0  0  0  0  0  0  0  0  0  0  0
    0.0318   -3.0929    1.2340 H   0  0  0  0  0  0  0  0  0  0  0  0
   -0.6755    0.5764    1.9186 H   0  0  0  0  0  0  0  0  0  0  0  0
  1  2  2  0
  2  3  1  0
  3  4  1  0
  4  5  2  0
  5  6  1  0
  6  7  2  0
  7  8  1  0
  7  9  1  0
  9 10  1  0
 10 11  2  0
 11 12  1  0
 12 13  1  0
 13 14  1  0
 14 15  2  0
 12 16  2  0
 16 17  1  0
 17 18  2  0
 18 19  1  0
  9 20  2  0
 20  4  1  0
 18 10  1  0
  1 21  1  0
  1 22  1  0
  2 23  1  0
  3 24  1  0
  3 25  1  0
  5 26  1  0
  6 27  1  0
  8 28  1  0
 11 29  1  0
 13 30  1  0
 13 31  1  0
 14 32  1  0
 15 33  1  0
 15 34  1  0
 16 35  1  0
 17 36  1  0
 19 37  1  0
 20 38  1  0
M  END
$$$$
