
     RDKit          3D

 37 37  0  0  0  0  0  0  0  0999 V2000
   -2.7004   -3.4276    1.6898 C   0  0  0  0  0  0  0  0  0  0  0  0
   -2.5383   -2.4944    0.6210 O   0  0  0  0  0  0  0  0  0  0  0  0
   -1.5713   -1.5613    0.8422 C   0  0  0  0  0  0  0  0  0  0  0  0
   -0.9193   -1.4494    1.8753 O   0  0  0  0  0  0  0  0  0  0  0  0
   -1.4567   -0.6077   -0.3512 C   0  0  0  0  0  0  0  0  0  0  0  0
   -2.5708    0.4478   -0.3239 C   0  0  0  0  0  0  0  0  0  0  0  0
   -2.5881    1.3000    0.9464 C   0  0  0  0  0  0  0  0  0  0  0  0
   -3.8679    2.5991    0.8780 S   0  0  0  0  0  0  0  0  0  0  0  0
   -5.3478    1.5856    1.1234 C   0  0  0  0  0  0  0  0  0  0  0  0
   -0.1239    0.0009   -0.3538 N   0  0  0  0  0  0  0  0  0  0  0  0
    0.9118   -0.6574   -0.9676 C   0  0  0  0  0  0  0  0  0  0  0  0
    0.7745   -1.6671   -1.6443 O   0  0  0  0  0  0  0  0  0  0  0  0
    2.1064   -0.0238   -0.7735 N   0  0  0  0  0  0  0  0  0  0  0  0
    3.3256   -0.6248   -1.2602 C   0  0  0  0  0  0  0  0  0  0  0  0
    4.4314    0.3683   -1.1104 C   0  0  0  0  0  0  0  0  0  0  0  0
    4.7994    1.3748   -1.9826 C   0  0  0  0  0  0  0  0  0  0  0  0
    5.9056    2.1325   -1.5016 C   0  0  0  0  0  0  0  0  0  0  0  0
    6.3453    1.6812   -0.2776 C   0  0  0  0  0  0  0  0  0  0  0  0
    5.4263    0.3540    0.2855 S   0  0  0  0  0  0  0  0  0  0  0  0
   -3.0359   -2.9143    2.5963 H   0  0  0  0  0  0  0  0  0  0  0  0
   -3.4675   -4.1493    1.3961 H   0  0  0  0  0  0  0  0  0  0  0  0
   -1.7671   -3.9694    1.8728 H   0  0  0  0  0  0  0  0  0  0  0  0
   -1.5589   -1.2039   -1.2662 H   0  0  0  0  0  0  0  0  0  0  0  0
   -2.4533    1.0989   -1.2001 H   0  0  0  0  0  0  0  0  0  0  0  0
   -3.5326   -0.0673   -0.4334 H   0  0  0  0  0  0  0  0  0  0  0  0
   -1.6291    1.8121    1.0718 H   0  0  0  0  0  0  0  0  0  0  0  0
   -2.7544    0.6931    1.8415 H   0  0  0  0  0  0  0  0  0  0  0  0
   -5.5144    0.9279    0.2673 H   0  0  0  0  0  0  0  0  0  0  0  0
   -6.2161    2.2427    1.2227 H   0  0  0  0  0  0  0  0  0  0  0  0
   -5.2588    0.9913    2.0364 H   0  0  0  0  0  0  0  0  0  0  0  0
    0.1424    0.4574    0.5073 H   0  0  0  0  0  0  0  0  0  0  0  0
    2.1865    0.6067    0.0086 H   0  0  0  0  0  0  0  0  0  0  0  0
    3.1941   -0.9063   -2.3113 H   0  0  0  0  0  0  0  0  0  0  0  0
    3.5108   -1.5422   -0.6901 H   0  0  0  0  0  0  0  0  0  0  0  0
    4.2936    1.5590   -2.9235 H   0  0  0  0  0  0  0  0  0  0  0  0
    6.3556    2.9661   -2.0268 H   0  0  0  0  0  0  0  0  0  0  0  0
    7.1632    2.0668    0.3157 H   0  0  0  0  0  0  0  0  0  0  0  0
  1  2  1  0
  2  3  1  0
  3  4  2  0
  3  5  1  0
  5  6  1  0
  6  7  1  0
  7  8  1  0
  8  9  1  0
  5 10  1  0
 10 11  1  0
 11 12  2  0
 11 13  1  0
 13 14  1  0
 14 15  1  0
 15 16  2  0
 16 17  1  0
 17 18  2  0
 18 19  1  0
 19 15  1  0
  1 20  1  0
  1 21  1  0
  1 22  1  0
  5 23  1  0
  6 24  1  0
  6 25  1  0
  7 26  1  0
  7 27  1  0
  9 28  1  0
  9 29  1  0
  9 30  1  0
 10 31  1  0
 13 32  1  0
 14 33  1  0
 14 34  1  0
 16 35  1  0
 17 36  1  0
 18 37  1  0
M  END
$$$$
