
     RDKit          3D

 52 55  0  0  0  0  0  0  0  0999 V2000
    4.2134   -0.8494    2.0339 C   0  0  0  0  0  0  0  0  0  0  0  0
    4.8707   -0.3194    0.8376 N   0  0  0  0  0  0  0  0  0  0  0  0
    4.2358   -0.8421   -0.3919 C   0  0  0  0  0  0  0  0  0  0  0  0
    3.1620    0.0638   -1.0566 C   0  0  0  0  0  0  0  0  0  0  0  0
    2.4553    0.9084   -0.0805 N   0  0  0  0  0  0  0  0  0  0  0  0
    1.3652    1.6903   -0.6715 C   0  0  0  0  0  0  0  0  0  0  0  0
    0.1241    0.8490   -0.9906 C   0  0  0  0  0  0  0  0  0  0  0  0
   -0.4682    0.1933    0.2672 C   0  0  0  0  0  0  0  0  0  0  0  0
   -1.7187   -0.5441   -0.0441 N   0  0  0  0  0  0  0  0  0  0  0  0
   -1.5899   -1.9308   -0.3565 C   0  0  0  0  0  0  0  0  0  0  0  0
   -0.3433   -2.5233   -0.6655 C   0  0  0  0  0  0  0  0  0  0  0  0
   -0.2072   -3.8802   -0.9842 C   0  0  0  0  0  0  0  0  0  0  0  0
   -1.3220   -4.6995   -1.0092 C   0  0  0  0  0  0  0  0  0  0  0  0
   -2.5663   -4.1547   -0.7164 C   0  0  0  0  0  0  0  0  0  0  0  0
   -2.7076   -2.7888   -0.3964 C   0  0  0  0  0  0  0  0  0  0  0  0
   -4.3632   -2.2661   -0.0219 S   0  0  0  0  0  0  0  0  0  0  0  0
   -4.1909   -0.5017    0.0798 C   0  0  0  0  0  0  0  0  0  0  0  0
   -5.3997    0.2129    0.1947 C   0  0  0  0  0  0  0  0  0  0  0  0
   -5.4105    1.5996    0.2993 C   0  0  0  0  0  0  0  0  0  0  0  0
   -4.2069    2.2985    0.2833 C   0  0  0  0  0  0  0  0  0  0  0  0
   -4.1826    3.8016    0.4083 C   0  0  0  0  0  0  0  0  0  0  0  0
   -3.1727    4.3765   -0.3039 F   0  0  0  0  0  0  0  0  0  0  0  0
   -5.3278    4.3979   -0.0251 F   0  0  0  0  0  0  0  0  0  0  0  0
   -4.0099    4.2105    1.6951 F   0  0  0  0  0  0  0  0  0  0  0  0
   -3.0013    1.5746    0.1805 C   0  0  0  0  0  0  0  0  0  0  0  0
   -2.9493    0.1642    0.0780 C   0  0  0  0  0  0  0  0  0  0  0  0
    3.4302    1.7863    0.6045 C   0  0  0  0  0  0  0  0  0  0  0  0
    4.8312    1.1533    0.8260 C   0  0  0  0  0  0  0  0  0  0  0  0
    3.1438   -0.6206    2.0824 H   0  0  0  0  0  0  0  0  0  0  0  0
    4.3288   -1.9385    2.0764 H   0  0  0  0  0  0  0  0  0  0  0  0
    4.6894   -0.4542    2.9383 H   0  0  0  0  0  0  0  0  0  0  0  0
    5.0311   -1.0077   -1.1297 H   0  0  0  0  0  0  0  0  0  0  0  0
    3.8039   -1.8338   -0.2032 H   0  0  0  0  0  0  0  0  0  0  0  0
    2.4650   -0.5899   -1.5909 H   0  0  0  0  0  0  0  0  0  0  0  0
    3.6468    0.6971   -1.8122 H   0  0  0  0  0  0  0  0  0  0  0  0
    1.7041    2.2066   -1.5787 H   0  0  0  0  0  0  0  0  0  0  0  0
    1.0527    2.4730    0.0328 H   0  0  0  0  0  0  0  0  0  0  0  0
    0.3543    0.0958   -1.7510 H   0  0  0  0  0  0  0  0  0  0  0  0
   -0.6190    1.5059   -1.4577 H   0  0  0  0  0  0  0  0  0  0  0  0
    0.2634   -0.4644    0.7523 H   0  0  0  0  0  0  0  0  0  0  0  0
   -0.6425    0.9482    1.0447 H   0  0  0  0  0  0  0  0  0  0  0  0
    0.5733   -1.9435   -0.6813 H   0  0  0  0  0  0  0  0  0  0  0  0
    0.7743   -4.2871   -1.2138 H   0  0  0  0  0  0  0  0  0  0  0  0
   -1.2282   -5.7535   -1.2541 H   0  0  0  0  0  0  0  0  0  0  0  0
   -3.4382   -4.8058   -0.7358 H   0  0  0  0  0  0  0  0  0  0  0  0
   -6.3502   -0.3187    0.2052 H   0  0  0  0  0  0  0  0  0  0  0  0
   -6.3597    2.1248    0.3888 H   0  0  0  0  0  0  0  0  0  0  0  0
   -2.0909    2.1677    0.1653 H   0  0  0  0  0  0  0  0  0  0  0  0
    3.0071    2.0516    1.5810 H   0  0  0  0  0  0  0  0  0  0  0  0
    3.5737    2.7210    0.0464 H   0  0  0  0  0  0  0  0  0  0  0  0
    5.4900    1.4893    0.0134 H   0  0  0  0  0  0  0  0  0  0  0  0
    5.2774    1.5560    1.7439 H   0  0  0  0  0  0  0  0  0  0  0  0
  1  2  1  0
  2  3  1  0
  3  4  1  0
  4  5  1  0
  5  6  1  0
  6  7  1  0
  7  8  1  0
  8  9  1  0
  9 10  1  0
 10 11  2  0
 11 12  1  0
 12 13  2  0
 13 14  1  0
 14 15  2  0
 15 16  1  0
 16 17  1  0
 17 18  2  0
 18 19  1  0
 19 20  2  0
 20 21  1  0
 21 22  1  0
 21 23  1  0
 21 24  1  0
 20 25  1  0
 25 26  2  0
  5 27  1  0
 27 28  1  0
 28  2  1  0
 26  9  1  0
 15 10  1  0
 26 17  1  0
  1 29  1  0
  1 30  1  0
  1 31  1  0
  3 32  1  0
  3 33  1  0
  4 34  1  0
  4 35  1  0
  6 36  1  0
  6 37  1  0
  7 38  1  0
  7 39  1  0
  8 40  1  0
  8 41  1  0
 11 42  1  0
 12 43  1  0
 13 44  1  0
 14 45  1  0
 18 46  1  0
 19 47  1  0
 25 48  1  0
 27 49  1  0
 27 50  1  0
 28 51  1  0
 28 52  1  0
M  END
$$$$
