
     RDKit          3D

 39 41  0  0  0  0  0  0  0  0999 V2000
   -0.9641   -0.9377    2.5018 O   0  0  0  0  0  0  0  0  0  0  0  0
   -1.2927   -0.0073    1.4456 S   0  0  0  0  0  6  0  0  0  0  0  0
   -1.3380    1.4196    1.6709 O   0  0  0  0  0  0  0  0  0  0  0  0
   -0.2458   -0.3172    0.1858 N   0  0  0  0  0  0  0  0  0  0  0  0
   -0.0634    0.6578   -0.8998 C   0  0  0  0  0  0  0  0  0  0  0  0
    1.0166    1.6902   -0.5692 C   0  0  0  0  0  0  0  0  0  0  0  0
    2.3608    1.0826   -0.3570 C   0  0  0  0  0  0  0  0  0  0  0  0
    3.1875    1.1792    0.7437 C   0  0  0  0  0  0  0  0  0  0  0  0
    4.3022    0.4418    0.4390 N   0  0  0  0  0  0  0  0  0  0  0  0
    5.4458    0.2041    1.1971 C   0  0  0  0  0  0  0  0  0  0  0  0
    6.4217   -0.5646    0.6840 C   0  0  0  0  0  0  0  0  0  0  0  0
    6.2507   -1.1231   -0.6497 C   0  0  0  0  0  0  0  0  0  0  0  0
    5.1398   -0.8879   -1.3760 C   0  0  0  0  0  0  0  0  0  0  0  0
    4.1021   -0.0755   -0.8365 C   0  0  0  0  0  0  0  0  0  0  0  0
    2.9384    0.2966   -1.3286 N   0  0  0  0  0  0  0  0  0  0  0  0
   -2.8507   -0.5170    0.7554 C   0  0  0  0  0  0  0  0  0  0  0  0
   -3.1463   -1.8815    0.6750 C   0  0  0  0  0  0  0  0  0  0  0  0
   -4.3744   -2.2856    0.1532 C   0  0  0  0  0  0  0  0  0  0  0  0
   -5.2936   -1.3288   -0.2745 C   0  0  0  0  0  0  0  0  0  0  0  0
   -6.4665   -1.7422   -0.7719 F   0  0  0  0  0  0  0  0  0  0  0  0
   -5.0168    0.0358   -0.1911 C   0  0  0  0  0  0  0  0  0  0  0  0
   -6.0470    1.0191   -0.6612 C   0  0  0  0  0  0  0  0  0  0  0  0
   -7.2108    0.9453    0.0396 F   0  0  0  0  0  0  0  0  0  0  0  0
   -5.6334    2.3142   -0.5494 F   0  0  0  0  0  0  0  0  0  0  0  0
   -6.3758    0.8557   -1.9719 F   0  0  0  0  0  0  0  0  0  0  0  0
   -3.7801    0.4434    0.3360 C   0  0  0  0  0  0  0  0  0  0  0  0
    0.5465   -0.9192    0.4143 H   0  0  0  0  0  0  0  0  0  0  0  0
    0.2060    0.0998   -1.8042 H   0  0  0  0  0  0  0  0  0  0  0  0
   -1.0108    1.1626   -1.1175 H   0  0  0  0  0  0  0  0  0  0  0  0
    1.0882    2.4043   -1.3984 H   0  0  0  0  0  0  0  0  0  0  0  0
    0.7327    2.2679    0.3174 H   0  0  0  0  0  0  0  0  0  0  0  0
    3.0795    1.6949    1.6872 H   0  0  0  0  0  0  0  0  0  0  0  0
    5.4980    0.6550    2.1797 H   0  0  0  0  0  0  0  0  0  0  0  0
    7.3322   -0.7806    1.2327 H   0  0  0  0  0  0  0  0  0  0  0  0
    7.0513   -1.7397   -1.0474 H   0  0  0  0  0  0  0  0  0  0  0  0
    5.0104   -1.3010   -2.3695 H   0  0  0  0  0  0  0  0  0  0  0  0
   -2.4293   -2.6257    1.0162 H   0  0  0  0  0  0  0  0  0  0  0  0
   -4.6246   -3.3403    0.0795 H   0  0  0  0  0  0  0  0  0  0  0  0
   -3.5463    1.5047    0.4195 H   0  0  0  0  0  0  0  0  0  0  0  0
  1  2  2  0
  2  3  2  0
  2  4  1  0
  4  5  1  0
  5  6  1  0
  6  7  1  0
  7  8  2  0
  8  9  1  0
  9 10  1  0
 10 11  2  0
 11 12  1  0
 12 13  2  0
 13 14  1  0
 14 15  2  0
  2 16  1  0
 16 17  2  0
 17 18  1  0
 18 19  2  0
 19 20  1  0
 19 21  1  0
 21 22  1  0
 22 23  1  0
 22 24  1  0
 22 25  1  0
 21 26  2  0
 15  7  1  0
 26 16  1  0
 14  9  1  0
  4 27  1  0
  5 28  1  0
  5 29  1  0
  6 30  1  0
  6 31  1  0
  8 32  1  0
 10 33  1  0
 11 34  1  0
 12 35  1  0
 13 36  1  0
 17 37  1  0
 18 38  1  0
 26 39  1  0
M  END
$$$$
