
     RDKit          3D

 37 38  0  0  0  0  0  0  0  0999 V2000
   -7.6814   -0.2327   -0.3994 C   0  0  0  0  0  0  0  0  0  0  0  0
   -6.2648   -0.6257   -0.0603 C   0  0  0  0  0  0  0  0  0  0  0  0
   -6.0126   -1.7433    0.3750 O   0  0  0  0  0  0  0  0  0  0  0  0
   -5.3700    0.4082   -0.2701 N   0  0  0  0  0  0  0  0  0  0  0  0
   -3.9752    0.3908   -0.0660 C   0  0  0  0  0  0  0  0  0  0  0  0
   -3.2615   -0.7306    0.3611 C   0  0  0  0  0  0  0  0  0  0  0  0
   -1.8724   -0.6688    0.5382 C   0  0  0  0  0  0  0  0  0  0  0  0
   -1.1794    0.5210    0.2914 C   0  0  0  0  0  0  0  0  0  0  0  0
    0.2925    0.6439    0.4680 C   0  0  0  0  0  0  0  0  0  0  0  0
    0.9167    1.6699    0.2438 O   0  0  0  0  0  0  0  0  0  0  0  0
    0.8234   -0.5174    0.9265 O   0  0  0  0  0  0  0  0  0  0  0  0
    2.2488   -0.5067    1.0240 C   0  0  0  0  0  0  0  0  0  0  0  0
    2.9241   -0.6648   -0.3365 C   0  0  0  0  0  0  0  0  0  0  0  0
    2.3019   -0.9985   -1.3449 O   0  0  0  0  0  0  0  0  0  0  0  0
    4.3958   -0.4248   -0.4368 C   0  0  0  0  0  0  0  0  0  0  0  0
    5.2095   -0.2536    0.6927 C   0  0  0  0  0  0  0  0  0  0  0  0
    6.5825   -0.0360    0.5390 C   0  0  0  0  0  0  0  0  0  0  0  0
    7.1376    0.0074   -0.7352 C   0  0  0  0  0  0  0  0  0  0  0  0
    8.4530    0.2153   -0.8741 F   0  0  0  0  0  0  0  0  0  0  0  0
    6.3473   -0.1645   -1.8640 C   0  0  0  0  0  0  0  0  0  0  0  0
    4.9759   -0.3821   -1.7156 C   0  0  0  0  0  0  0  0  0  0  0  0
   -1.8913    1.6455   -0.1404 C   0  0  0  0  0  0  0  0  0  0  0  0
   -3.2776    1.5789   -0.3180 C   0  0  0  0  0  0  0  0  0  0  0  0
   -7.7072    0.4276   -1.2712 H   0  0  0  0  0  0  0  0  0  0  0  0
   -8.1318    0.2731    0.4586 H   0  0  0  0  0  0  0  0  0  0  0  0
   -8.2597   -1.1301   -0.6378 H   0  0  0  0  0  0  0  0  0  0  0  0
   -5.7582    1.2843   -0.5962 H   0  0  0  0  0  0  0  0  0  0  0  0
   -3.7533   -1.6778    0.5619 H   0  0  0  0  0  0  0  0  0  0  0  0
   -1.3498   -1.5648    0.8648 H   0  0  0  0  0  0  0  0  0  0  0  0
    2.5838    0.4067    1.5278 H   0  0  0  0  0  0  0  0  0  0  0  0
    2.5298   -1.3655    1.6423 H   0  0  0  0  0  0  0  0  0  0  0  0
    4.8092   -0.2902    1.7014 H   0  0  0  0  0  0  0  0  0  0  0  0
    7.2240    0.0988    1.4049 H   0  0  0  0  0  0  0  0  0  0  0  0
    6.7990   -0.1285   -2.8505 H   0  0  0  0  0  0  0  0  0  0  0  0
    4.3592   -0.5157   -2.6035 H   0  0  0  0  0  0  0  0  0  0  0  0
   -1.3699    2.5792   -0.3437 H   0  0  0  0  0  0  0  0  0  0  0  0
   -3.7981    2.4715   -0.6560 H   0  0  0  0  0  0  0  0  0  0  0  0
  1  2  1  0
  2  3  2  0
  2  4  1  0
  4  5  1  0
  5  6  2  0
  6  7  1  0
  7  8  2  0
  8  9  1  0
  9 10  2  0
  9 11  1  0
 11 12  1  0
 12 13  1  0
 13 14  2  0
 13 15  1  0
 15 16  2  0
 16 17  1  0
 17 18  2  0
 18 19  1  0
 18 20  1  0
 20 21  2  0
  8 22  1  0
 22 23  2  0
 23  5  1  0
 21 15  1  0
  1 24  1  0
  1 25  1  0
  1 26  1  0
  4 27  1  0
  6 28  1  0
  7 29  1  0
 12 30  1  0
 12 31  1  0
 16 32  1  0
 17 33  1  0
 20 34  1  0
 21 35  1  0
 22 36  1  0
 23 37  1  0
M  END
$$$$
