
     RDKit          3D

 37 39  0  0  0  0  0  0  0  0999 V2000
   -0.1700    4.0021    2.7490 C   0  0  0  0  0  0  0  0  0  0  0  0
    1.1363    3.7492    1.5180 S   0  0  0  0  0  0  0  0  0  0  0  0
    0.6255    2.1861    0.8164 C   0  0  0  0  0  0  0  0  0  0  0  0
    1.4544    1.5722   -0.0987 C   0  0  0  0  0  0  0  0  0  0  0  0
    1.0398    0.3671   -0.6304 C   0  0  0  0  0  0  0  0  0  0  0  0
    1.8094   -0.3051   -1.5745 N   0  0  0  0  0  0  0  0  0  0  0  0
    1.2085   -1.5107   -2.1710 C   0  0  0  0  0  0  0  0  0  0  0  0
    2.1557   -2.0745   -3.2415 C   0  0  0  0  0  0  0  0  0  0  0  0
    3.4470   -2.4529   -2.7383 O   0  0  0  0  0  0  0  0  0  0  0  0
    3.7928   -1.7966   -1.5114 C   0  0  0  0  0  0  0  0  0  0  0  0
    3.2751   -0.3508   -1.4157 C   0  0  0  0  0  0  0  0  0  0  0  0
   -0.1479   -0.1530   -0.2790 N   0  0  0  0  0  0  0  0  0  0  0  0
   -0.8870    0.5027    0.6352 C   0  0  0  0  0  0  0  0  0  0  0  0
   -2.1916   -0.0757    0.9755 C   0  0  0  0  0  0  0  0  0  0  0  0
   -3.0434   -0.5063   -0.0657 C   0  0  0  0  0  0  0  0  0  0  0  0
   -4.3046   -1.0494    0.1935 C   0  0  0  0  0  0  0  0  0  0  0  0
   -4.7448   -1.1809    1.5051 C   0  0  0  0  0  0  0  0  0  0  0  0
   -3.9205   -0.7767    2.5536 C   0  0  0  0  0  0  0  0  0  0  0  0
   -2.6538   -0.2319    2.2952 C   0  0  0  0  0  0  0  0  0  0  0  0
   -1.6925    0.1734    3.6792 Cl  0  0  0  0  0  0  0  0  0  0  0  0
   -0.5510    1.6712    1.1938 N   0  0  0  0  0  0  0  0  0  0  0  0
    0.0219    4.9381    3.2808 H   0  0  0  0  0  0  0  0  0  0  0  0
   -0.1763    3.1888    3.4797 H   0  0  0  0  0  0  0  0  0  0  0  0
   -1.1495    4.0770    2.2686 H   0  0  0  0  0  0  0  0  0  0  0  0
    2.3823    2.0370   -0.4035 H   0  0  0  0  0  0  0  0  0  0  0  0
    0.2490   -1.2674   -2.6428 H   0  0  0  0  0  0  0  0  0  0  0  0
    1.0399   -2.2708   -1.3975 H   0  0  0  0  0  0  0  0  0  0  0  0
    1.7136   -2.9598   -3.7095 H   0  0  0  0  0  0  0  0  0  0  0  0
    2.3186   -1.3324   -4.0319 H   0  0  0  0  0  0  0  0  0  0  0  0
    4.8845   -1.8087   -1.4298 H   0  0  0  0  0  0  0  0  0  0  0  0
    3.3995   -2.3997   -0.6843 H   0  0  0  0  0  0  0  0  0  0  0  0
    3.6082    0.0648   -0.4581 H   0  0  0  0  0  0  0  0  0  0  0  0
    3.7173    0.2487   -2.2196 H   0  0  0  0  0  0  0  0  0  0  0  0
   -2.7171   -0.4090   -1.1012 H   0  0  0  0  0  0  0  0  0  0  0  0
   -4.9388   -1.3671   -0.6306 H   0  0  0  0  0  0  0  0  0  0  0  0
   -5.7245   -1.6034    1.7134 H   0  0  0  0  0  0  0  0  0  0  0  0
   -4.2663   -0.8954    3.5779 H   0  0  0  0  0  0  0  0  0  0  0  0
  1  2  1  0
  2  3  1  0
  3  4  2  0
  4  5  1  0
  5  6  1  0
  6  7  1  0
  7  8  1  0
  8  9  1  0
  9 10  1  0
 10 11  1  0
  5 12  2  0
 12 13  1  0
 13 14  1  0
 14 15  2  0
 15 16  1  0
 16 17  2  0
 17 18  1  0
 18 19  2  0
 19 20  1  0
 13 21  2  0
 21  3  1  0
 11  6  1  0
 19 14  1  0
  1 22  1  0
  1 23  1  0
  1 24  1  0
  4 25  1  0
  7 26  1  0
  7 27  1  0
  8 28  1  0
  8 29  1  0
 10 30  1  0
 10 31  1  0
 11 32  1  0
 11 33  1  0
 15 34  1  0
 16 35  1  0
 17 36  1  0
 18 37  1  0
M  END
$$$$
