
     RDKit          3D

 53 58  0  0  0  0  0  0  0  0999 V2000
    1.8713   -1.5169   -1.2642 O   0  0  0  0  0  0  0  0  0  0  0  0
    1.9194   -0.4807   -0.6010 C   0  0  0  0  0  0  0  0  0  0  0  0
    1.1029    0.7555   -1.0005 C   0  0  0  0  0  0  0  0  0  0  0  0
   -0.3322    0.4591   -1.1285 N   0  0  0  0  0  4  0  0  0  0  0  0
   -1.3628    0.9996   -0.3597 C   0  0  0  0  0  0  0  0  0  0  0  0
   -2.5739    0.4802   -0.7976 C   0  0  0  0  0  0  0  0  0  0  0  0
   -3.9926    0.7798   -0.1897 C   0  0  0  0  0  0  0  0  0  0  0  0
   -5.1304    0.1353   -0.6855 C   0  0  0  0  0  0  0  0  0  0  0  0
   -6.3873    0.4099   -0.1369 C   0  0  0  0  0  0  0  0  0  0  0  0
   -6.5015    1.3199    0.9061 C   0  0  0  0  0  0  0  0  0  0  0  0
   -7.7057    1.5788    1.4299 F   0  0  0  0  0  0  0  0  0  0  0  0
   -5.3799    1.9622    1.4140 C   0  0  0  0  0  0  0  0  0  0  0  0
   -4.1213    1.6935    0.8675 C   0  0  0  0  0  0  0  0  0  0  0  0
   -2.2065   -0.3258   -1.8596 N   0  0  0  0  0  0  0  0  0  0  0  0
   -0.8853   -0.3549   -2.0241 C   0  0  0  0  0  0  0  0  0  0  0  0
   -0.4619   -1.2120   -3.1573 C   0  0  0  0  0  0  0  0  0  0  0  0
   -1.7884   -1.4161   -3.9147 C   0  0  0  0  0  0  0  0  0  0  0  0
   -2.8923   -1.1349   -2.8599 C   0  0  0  0  0  0  0  0  0  0  0  0
    2.7120   -0.2757    0.5302 N   0  0  0  0  0  0  0  0  0  0  0  0
    2.0805   -0.1363    1.8153 C   0  0  0  0  0  0  0  0  0  0  0  0
    0.7617   -0.6143    1.9858 C   0  0  0  0  0  0  0  0  0  0  0  0
    0.0894   -0.5018    3.2055 C   0  0  0  0  0  0  0  0  0  0  0  0
    0.7225    0.0876    4.2882 C   0  0  0  0  0  0  0  0  0  0  0  0
    2.0315    0.5425    4.1513 C   0  0  0  0  0  0  0  0  0  0  0  0
    2.7181    0.4217    2.9306 C   0  0  0  0  0  0  0  0  0  0  0  0
    4.3703    1.0440    2.8843 S   0  0  0  0  0  0  0  0  0  0  0  0
    4.9825    0.2404    1.4268 C   0  0  0  0  0  0  0  0  0  0  0  0
    6.3804    0.2263    1.2700 C   0  0  0  0  0  0  0  0  0  0  0  0
    6.9670   -0.2980    0.1237 C   0  0  0  0  0  0  0  0  0  0  0  0
    6.1592   -0.8042   -0.8820 C   0  0  0  0  0  0  0  0  0  0  0  0
    4.7682   -0.7896   -0.7359 C   0  0  0  0  0  0  0  0  0  0  0  0
    4.1471   -0.2819    0.4247 C   0  0  0  0  0  0  0  0  0  0  0  0
    1.4670    1.1028   -1.9734 H   0  0  0  0  0  0  0  0  0  0  0  0
    1.2391    1.5744   -0.2867 H   0  0  0  0  0  0  0  0  0  0  0  0
   -1.0959    1.6866    0.4248 H   0  0  0  0  0  0  0  0  0  0  0  0
   -5.0805   -0.5931   -1.4847 H   0  0  0  0  0  0  0  0  0  0  0  0
   -7.2799   -0.0827   -0.5129 H   0  0  0  0  0  0  0  0  0  0  0  0
   -5.4955    2.6706    2.2302 H   0  0  0  0  0  0  0  0  0  0  0  0
   -3.2676    2.2176    1.2878 H   0  0  0  0  0  0  0  0  0  0  0  0
    0.2997   -0.6917   -3.7382 H   0  0  0  0  0  0  0  0  0  0  0  0
   -0.0952   -2.1465   -2.7293 H   0  0  0  0  0  0  0  0  0  0  0  0
   -1.8617   -0.6691   -4.7149 H   0  0  0  0  0  0  0  0  0  0  0  0
   -1.8757   -2.4068   -4.3687 H   0  0  0  0  0  0  0  0  0  0  0  0
   -3.2367   -2.0603   -2.3887 H   0  0  0  0  0  0  0  0  0  0  0  0
   -3.7263   -0.5868   -3.3053 H   0  0  0  0  0  0  0  0  0  0  0  0
    0.2447   -1.1453    1.1892 H   0  0  0  0  0  0  0  0  0  0  0  0
   -0.9163   -0.9010    3.3188 H   0  0  0  0  0  0  0  0  0  0  0  0
    0.2145    0.1719    5.2465 H   0  0  0  0  0  0  0  0  0  0  0  0
    2.5228    0.9853    5.0169 H   0  0  0  0  0  0  0  0  0  0  0  0
    7.0276    0.6362    2.0442 H   0  0  0  0  0  0  0  0  0  0  0  0
    8.0488   -0.3063    0.0175 H   0  0  0  0  0  0  0  0  0  0  0  0
    6.6090   -1.2218   -1.7798 H   0  0  0  0  0  0  0  0  0  0  0  0
    4.1959   -1.2271   -1.5497 H   0  0  0  0  0  0  0  0  0  0  0  0
  1  2  2  0
  2  3  1  0
  3  4  1  0
  4  5  1  0
  5  6  2  0
  6  7  1  0
  7  8  2  0
  8  9  1  0
  9 10  2  0
 10 11  1  0
 10 12  1  0
 12 13  2  0
  6 14  1  0
 14 15  1  0
 15 16  1  0
 16 17  1  0
 17 18  1  0
  2 19  1  0
 19 20  1  0
 20 21  2  0
 21 22  1  0
 22 23  2  0
 23 24  1  0
 24 25  2  0
 25 26  1  0
 26 27  1  0
 27 28  2  0
 28 29  1  0
 29 30  2  0
 30 31  1  0
 31 32  2  0
 15  4  2  0
 32 19  1  0
 13  7  1  0
 18 14  1  0
 25 20  1  0
 32 27  1  0
  3 33  1  0
  3 34  1  0
  5 35  1  0
  8 36  1  0
  9 37  1  0
 12 38  1  0
 13 39  1  0
 16 40  1  0
 16 41  1  0
 17 42  1  0
 17 43  1  0
 18 44  1  0
 18 45  1  0
 21 46  1  0
 22 47  1  0
 23 48  1  0
 24 49  1  0
 28 50  1  0
 29 51  1  0
 30 52  1  0
 31 53  1  0
M  CHG  1   4   1
M  END
$$$$
