
     RDKit          3D

 63 66  0  0  0  0  0  0  0  0999 V2000
   -5.9428   -1.6015    2.3959 C   0  0  0  0  0  0  0  0  0  0  0  0
   -4.5862   -1.0639    2.0369 C   0  0  0  0  0  0  0  0  0  0  0  0
   -3.4621   -1.8718    2.2614 C   0  0  0  0  0  0  0  0  0  0  0  0
   -2.1709   -1.4258    1.9531 C   0  0  0  0  0  0  0  0  0  0  0  0
   -1.9677   -0.1572    1.4163 C   0  0  0  0  0  0  0  0  0  0  0  0
   -0.7004    0.3687    1.0907 N   0  0  0  0  0  0  0  0  0  0  0  0
    0.5132   -0.2927    1.1300 C   0  0  0  0  0  0  0  0  0  0  0  0
    0.7120   -1.4691    1.4044 O   0  0  0  0  0  0  0  0  0  0  0  0
    1.6856    0.5408    0.7554 C   0  0  0  0  0  0  0  0  0  0  0  0
    1.8244    1.8566    1.2211 C   0  0  0  0  0  0  0  0  0  0  0  0
    2.9451    2.6100    0.8628 C   0  0  0  0  0  0  0  0  0  0  0  0
    3.9311    2.0507    0.0497 C   0  0  0  0  0  0  0  0  0  0  0  0
    3.7976    0.7300   -0.3919 C   0  0  0  0  0  0  0  0  0  0  0  0
    5.0454    0.0409   -1.4588 S   0  0  0  0  0  6  0  0  0  0  0  0
    4.4992   -1.1664   -2.0472 O   0  0  0  0  0  0  0  0  0  0  0  0
    5.5170    1.1275   -2.2934 O   0  0  0  0  0  0  0  0  0  0  0  0
    6.2774   -0.3985   -0.3459 N   0  0  0  0  0  0  0  0  0  0  0  0
    5.9032   -1.4573    0.6235 C   0  0  0  0  0  0  0  0  0  0  0  0
    7.5651   -0.6135   -0.9594 C   0  0  0  0  0  0  0  0  0  0  0  0
    7.7686   -1.5824   -1.9478 C   0  0  0  0  0  0  0  0  0  0  0  0
    9.0495   -1.7993   -2.4591 C   0  0  0  0  0  0  0  0  0  0  0  0
   10.1305   -1.0672   -1.9682 C   0  0  0  0  0  0  0  0  0  0  0  0
    9.9342   -0.1209   -0.9617 C   0  0  0  0  0  0  0  0  0  0  0  0
    8.6537    0.0996   -0.4514 C   0  0  0  0  0  0  0  0  0  0  0  0
    2.6758   -0.0287   -0.0505 C   0  0  0  0  0  0  0  0  0  0  0  0
   -3.0774    0.6601    1.1862 C   0  0  0  0  0  0  0  0  0  0  0  0
   -4.3766    0.2085    1.4784 C   0  0  0  0  0  0  0  0  0  0  0  0
   -5.7305    1.3073    1.0973 S   0  0  0  0  0  6  0  0  0  0  0  0
   -5.2036    2.4461    0.3710 O   0  0  0  0  0  0  0  0  0  0  0  0
   -6.5053    1.4924    2.3044 O   0  0  0  0  0  0  0  0  0  0  0  0
   -6.6581    0.4148   -0.0155 N   0  0  0  0  0  0  0  0  0  0  0  0
   -5.9965    0.0929   -1.3221 C   0  0  0  0  0  0  0  0  0  0  0  0
   -6.6141    0.8966   -2.4701 C   0  0  0  0  0  0  0  0  0  0  0  0
   -8.0112    0.6291   -2.6529 O   0  0  0  0  0  0  0  0  0  0  0  0
   -8.6967    0.3208   -1.4308 C   0  0  0  0  0  0  0  0  0  0  0  0
   -8.0448    0.9521   -0.1971 C   0  0  0  0  0  0  0  0  0  0  0  0
   -6.5526   -1.7494    1.5004 H   0  0  0  0  0  0  0  0  0  0  0  0
   -5.8639   -2.5752    2.8940 H   0  0  0  0  0  0  0  0  0  0  0  0
   -6.4558   -0.9354    3.0948 H   0  0  0  0  0  0  0  0  0  0  0  0
   -3.5751   -2.8679    2.6873 H   0  0  0  0  0  0  0  0  0  0  0  0
   -1.3428   -2.0977    2.1577 H   0  0  0  0  0  0  0  0  0  0  0  0
   -0.6941    1.3137    0.7268 H   0  0  0  0  0  0  0  0  0  0  0  0
    1.0810    2.2964    1.8820 H   0  0  0  0  0  0  0  0  0  0  0  0
    3.0535    3.6321    1.2204 H   0  0  0  0  0  0  0  0  0  0  0  0
    4.7992    2.6431   -0.2358 H   0  0  0  0  0  0  0  0  0  0  0  0
    5.5961   -2.3759    0.1154 H   0  0  0  0  0  0  0  0  0  0  0  0
    5.0976   -1.1121    1.2759 H   0  0  0  0  0  0  0  0  0  0  0  0
    6.7530   -1.6943    1.2745 H   0  0  0  0  0  0  0  0  0  0  0  0
    6.9402   -2.1742   -2.3311 H   0  0  0  0  0  0  0  0  0  0  0  0
    9.2031   -2.5404   -3.2399 H   0  0  0  0  0  0  0  0  0  0  0  0
   11.1270   -1.2362   -2.3684 H   0  0  0  0  0  0  0  0  0  0  0  0
   10.7779    0.4459   -0.5760 H   0  0  0  0  0  0  0  0  0  0  0  0
    8.5053    0.8347    0.3344 H   0  0  0  0  0  0  0  0  0  0  0  0
    2.5652   -1.0515   -0.4049 H   0  0  0  0  0  0  0  0  0  0  0  0
   -2.9383    1.6551    0.7681 H   0  0  0  0  0  0  0  0  0  0  0  0
   -6.1362   -0.9814   -1.4939 H   0  0  0  0  0  0  0  0  0  0  0  0
   -4.9184    0.2758   -1.2837 H   0  0  0  0  0  0  0  0  0  0  0  0
   -6.4942    1.9736   -2.3036 H   0  0  0  0  0  0  0  0  0  0  0  0
   -6.1097    0.6536   -3.4113 H   0  0  0  0  0  0  0  0  0  0  0  0
   -8.7301   -0.7707   -1.3323 H   0  0  0  0  0  0  0  0  0  0  0  0
   -9.7281    0.6725   -1.5373 H   0  0  0  0  0  0  0  0  0  0  0  0
   -8.6366    0.7114    0.6918 H   0  0  0  0  0  0  0  0  0  0  0  0
   -8.0068    2.0411   -0.3199 H   0  0  0  0  0  0  0  0  0  0  0  0
  1  2  1  0
  2  3  2  0
  3  4  1  0
  4  5  2  0
  5  6  1  0
  6  7  1  0
  7  8  2  0
  7  9  1  0
  9 10  2  0
 10 11  1  0
 11 12  2  0
 12 13  1  0
 13 14  1  0
 14 15  2  0
 14 16  2  0
 14 17  1  0
 17 18  1  0
 17 19  1  0
 19 20  2  0
 20 21  1  0
 21 22  2  0
 22 23  1  0
 23 24  2  0
 13 25  2  0
  5 26  1  0
 26 27  2  0
 27 28  1  0
 28 29  2  0
 28 30  2  0
 28 31  1  0
 31 32  1  0
 32 33  1  0
 33 34  1  0
 34 35  1  0
 35 36  1  0
 27  2  1  0
 36 31  1  0
 25  9  1  0
 24 19  1  0
  1 37  1  0
  1 38  1  0
  1 39  1  0
  3 40  1  0
  4 41  1  0
  6 42  1  0
 10 43  1  0
 11 44  1  0
 12 45  1  0
 18 46  1  0
 18 47  1  0
 18 48  1  0
 20 49  1  0
 21 50  1  0
 22 51  1  0
 23 52  1  0
 24 53  1  0
 25 54  1  0
 26 55  1  0
 32 56  1  0
 32 57  1  0
 33 58  1  0
 33 59  1  0
 35 60  1  0
 35 61  1  0
 36 62  1  0
 36 63  1  0
M  END
$$$$
