
     RDKit          3D

 50 53  0  0  0  0  0  0  0  0999 V2000
    8.4972    1.8266   -0.3813 C   0  0  0  0  0  0  0  0  0  0  0  0
    7.2344    2.4636   -0.5288 O   0  0  0  0  0  0  0  0  0  0  0  0
    6.1263    1.6839   -0.3489 C   0  0  0  0  0  0  0  0  0  0  0  0
    6.1166    0.3251   -0.0491 C   0  0  0  0  0  0  0  0  0  0  0  0
    4.8989   -0.3519    0.1086 C   0  0  0  0  0  0  0  0  0  0  0  0
    3.6600    0.3032   -0.0228 C   0  0  0  0  0  0  0  0  0  0  0  0
    2.3919   -0.4384    0.1532 C   0  0  0  0  0  0  0  0  0  0  0  0
    1.2203    0.1535    0.5904 C   0  0  0  0  0  0  0  0  0  0  0  0
    0.0764   -0.6376    0.7074 C   0  0  0  0  0  0  0  0  0  0  0  0
   -1.1626    0.0625    1.1165 C   0  0  0  0  0  0  0  0  0  0  0  0
   -1.1555    0.6693    2.1785 O   0  0  0  0  0  0  0  0  0  0  0  0
   -2.1807   -0.0146    0.1861 N   0  0  0  0  0  0  0  0  0  0  0  0
   -3.4788    0.5272    0.2904 C   0  0  0  0  0  0  0  0  0  0  0  0
   -3.9495    1.2045    1.4104 C   0  0  0  0  0  0  0  0  0  0  0  0
   -5.2656    1.6729    1.4465 C   0  0  0  0  0  0  0  0  0  0  0  0
   -6.1301    1.4876    0.3569 C   0  0  0  0  0  0  0  0  0  0  0  0
   -7.5494    1.9733    0.4604 C   0  0  0  0  0  0  0  0  0  0  0  0
   -5.6439    0.8670   -0.8051 C   0  0  0  0  0  0  0  0  0  0  0  0
   -6.4914    0.5599   -1.8827 N   0  0  0  0  0  0  0  0  0  0  0  0
   -4.3397    0.3478   -0.8012 C   0  0  0  0  0  0  0  0  0  0  0  0
    0.1100   -2.0222    0.4396 C   0  0  0  0  0  0  0  0  0  0  0  0
   -0.9823   -2.9140    0.6009 C   0  0  0  0  0  0  0  0  0  0  0  0
   -0.8542   -4.2685    0.3004 C   0  0  0  0  0  0  0  0  0  0  0  0
    0.3628   -4.7531   -0.1554 C   0  0  0  0  0  0  0  0  0  0  0  0
    1.4452   -3.8817   -0.2959 C   0  0  0  0  0  0  0  0  0  0  0  0
    1.3451   -2.5287    0.0001 C   0  0  0  0  0  0  0  0  0  0  0  0
    2.4391   -1.7618   -0.1451 N   0  0  0  0  0  0  0  0  0  0  0  0
    3.6956    1.6732   -0.3335 C   0  0  0  0  0  0  0  0  0  0  0  0
    4.9108    2.3516   -0.4919 C   0  0  0  0  0  0  0  0  0  0  0  0
    8.6317    1.0387   -1.1298 H   0  0  0  0  0  0  0  0  0  0  0  0
    8.6263    1.4353    0.6333 H   0  0  0  0  0  0  0  0  0  0  0  0
    9.2730    2.5800   -0.5484 H   0  0  0  0  0  0  0  0  0  0  0  0
    7.0322   -0.2443    0.0690 H   0  0  0  0  0  0  0  0  0  0  0  0
    4.9230   -1.4158    0.3432 H   0  0  0  0  0  0  0  0  0  0  0  0
    1.1764    1.2066    0.8493 H   0  0  0  0  0  0  0  0  0  0  0  0
   -1.9740   -0.5009   -0.6785 H   0  0  0  0  0  0  0  0  0  0  0  0
   -3.3276    1.3680    2.2848 H   0  0  0  0  0  0  0  0  0  0  0  0
   -5.6145    2.1748    2.3469 H   0  0  0  0  0  0  0  0  0  0  0  0
   -8.2486    1.1492    0.2850 H   0  0  0  0  0  0  0  0  0  0  0  0
   -7.7310    2.7688   -0.2694 H   0  0  0  0  0  0  0  0  0  0  0  0
   -7.7656    2.3787    1.4546 H   0  0  0  0  0  0  0  0  0  0  0  0
   -6.0038    0.4199   -2.7616 H   0  0  0  0  0  0  0  0  0  0  0  0
   -7.2738    1.1982   -1.9839 H   0  0  0  0  0  0  0  0  0  0  0  0
   -3.9974   -0.2040   -1.6726 H   0  0  0  0  0  0  0  0  0  0  0  0
   -1.9398   -2.5636    0.9832 H   0  0  0  0  0  0  0  0  0  0  0  0
   -1.6986   -4.9409    0.4313 H   0  0  0  0  0  0  0  0  0  0  0  0
    0.4807   -5.8077   -0.3913 H   0  0  0  0  0  0  0  0  0  0  0  0
    2.4002   -4.2724   -0.6416 H   0  0  0  0  0  0  0  0  0  0  0  0
    2.7781    2.2393   -0.4746 H   0  0  0  0  0  0  0  0  0  0  0  0
    4.9062    3.4121   -0.7332 H   0  0  0  0  0  0  0  0  0  0  0  0
  1  2  1  0
  2  3  1  0
  3  4  2  0
  4  5  1  0
  5  6  2  0
  6  7  1  0
  7  8  2  0
  8  9  1  0
  9 10  1  0
 10 11  2  0
 10 12  1  0
 12 13  1  0
 13 14  2  0
 14 15  1  0
 15 16  2  0
 16 17  1  0
 16 18  1  0
 18 19  1  0
 18 20  2  0
  9 21  2  0
 21 22  1  0
 22 23  2  0
 23 24  1  0
 24 25  2  0
 25 26  1  0
 26 27  2  0
  6 28  1  0
 28 29  2  0
 29  3  1  0
 27  7  1  0
 20 13  1  0
 26 21  1  0
  1 30  1  0
  1 31  1  0
  1 32  1  0
  4 33  1  0
  5 34  1  0
  8 35  1  0
 12 36  1  0
 14 37  1  0
 15 38  1  0
 17 39  1  0
 17 40  1  0
 17 41  1  0
 19 42  1  0
 19 43  1  0
 20 44  1  0
 22 45  1  0
 23 46  1  0
 24 47  1  0
 25 48  1  0
 28 49  1  0
 29 50  1  0
M  END
$$$$
