
     RDKit          3D

 36 37  0  0  0  0  0  0  0  0999 V2000
    1.8200    2.6310   -1.9619 O   0  0  0  0  0  0  0  0  0  0  0  0
    0.8455    1.8870   -1.9773 C   0  0  0  0  0  0  0  0  0  0  0  0
   -0.5689    2.3713   -2.3051 C   0  0  0  0  0  0  0  0  0  0  0  0
   -1.5753    1.5605   -1.6834 O   0  0  0  0  0  0  0  0  0  0  0  0
   -1.7428    1.8007   -0.3602 C   0  0  0  0  0  0  0  0  0  0  0  0
   -1.1510    2.6172    0.3216 O   0  0  0  0  0  0  0  0  0  0  0  0
   -2.6410    0.7808    0.1993 C   0  0  0  0  0  0  0  0  0  0  0  0
   -2.1164   -0.0257    1.2197 C   0  0  0  0  0  0  0  0  0  0  0  0
   -2.9024   -1.0317    1.7737 C   0  0  0  0  0  0  0  0  0  0  0  0
   -2.2499   -2.0470    2.9995 Cl  0  0  0  0  0  0  0  0  0  0  0  0
   -4.2103   -1.2280    1.3323 C   0  0  0  0  0  0  0  0  0  0  0  0
   -4.7384   -0.4080    0.3297 C   0  0  0  0  0  0  0  0  0  0  0  0
   -3.9559    0.6015   -0.2407 C   0  0  0  0  0  0  0  0  0  0  0  0
   -4.6828    1.6031   -1.4426 Cl  0  0  0  0  0  0  0  0  0  0  0  0
    0.9253    0.5293   -1.7377 N   0  0  0  0  0  0  0  0  0  0  0  0
    2.1335   -0.0890   -1.2251 C   0  0  0  0  0  0  0  0  0  0  0  0
    2.4297    0.3171    0.2256 C   0  0  0  0  0  0  0  0  0  0  0  0
    3.0806   -0.7472    0.9691 N   0  0  0  0  0  0  0  0  0  0  0  0
    2.3974   -1.6972    1.6881 C   0  0  0  0  0  0  0  0  0  0  0  0
    1.0361   -1.6414    1.7334 O   0  0  0  0  0  0  0  0  0  0  0  0
    3.1743   -2.6129    2.2778 C   0  0  0  0  0  0  0  0  0  0  0  0
    4.8535   -2.3292    1.9318 S   0  0  0  0  0  0  0  0  0  0  0  0
    4.4548   -0.9168    0.9324 C   0  0  0  0  0  0  0  0  0  0  0  0
    5.2846   -0.2605    0.3273 O   0  0  0  0  0  0  0  0  0  0  0  0
   -0.7074    2.3019   -3.3886 H   0  0  0  0  0  0  0  0  0  0  0  0
   -0.6814    3.4212   -2.0123 H   0  0  0  0  0  0  0  0  0  0  0  0
   -1.0979    0.1324    1.5698 H   0  0  0  0  0  0  0  0  0  0  0  0
   -4.8273   -2.0113    1.7671 H   0  0  0  0  0  0  0  0  0  0  0  0
   -5.7649   -0.5600    0.0016 H   0  0  0  0  0  0  0  0  0  0  0  0
    0.0579    0.0090   -1.6885 H   0  0  0  0  0  0  0  0  0  0  0  0
    2.9739    0.1871   -1.8719 H   0  0  0  0  0  0  0  0  0  0  0  0
    1.9838   -1.1705   -1.3135 H   0  0  0  0  0  0  0  0  0  0  0  0
    1.5148    0.6105    0.7544 H   0  0  0  0  0  0  0  0  0  0  0  0
    3.0846    1.1971    0.2264 H   0  0  0  0  0  0  0  0  0  0  0  0
    0.7225   -2.3405    2.3348 H   0  0  0  0  0  0  0  0  0  0  0  0
    2.8413   -3.4420    2.8843 H   0  0  0  0  0  0  0  0  0  0  0  0
  1  2  2  0
  2  3  1  0
  3  4  1  0
  4  5  1  0
  5  6  2  0
  5  7  1  0
  7  8  2  0
  8  9  1  0
  9 10  1  0
  9 11  2  0
 11 12  1  0
 12 13  2  0
 13 14  1  0
  2 15  1  0
 15 16  1  0
 16 17  1  0
 17 18  1  0
 18 19  1  0
 19 20  1  0
 19 21  2  0
 21 22  1  0
 22 23  1  0
 23 24  2  0
 13  7  1  0
 23 18  1  0
  3 25  1  0
  3 26  1  0
  8 27  1  0
 11 28  1  0
 12 29  1  0
 15 30  1  0
 16 31  1  0
 16 32  1  0
 17 33  1  0
 17 34  1  0
 20 35  1  0
 21 36  1  0
M  END
$$$$
