
     RDKit          3D

 35 37  0  0  0  0  0  0  0  0999 V2000
   -2.5218    3.8011    4.7367 C   0  0  0  0  0  0  0  0  0  0  0  0
   -1.3315    3.8502    3.9605 O   0  0  0  0  0  0  0  0  0  0  0  0
   -1.1544    2.8581    3.0365 C   0  0  0  0  0  0  0  0  0  0  0  0
   -2.0049    1.7738    2.8222 C   0  0  0  0  0  0  0  0  0  0  0  0
   -1.7007    0.8242    1.8389 C   0  0  0  0  0  0  0  0  0  0  0  0
   -0.5489    0.9535    1.0560 C   0  0  0  0  0  0  0  0  0  0  0  0
   -0.2456   -0.0718    0.0506 C   0  0  0  0  0  0  0  0  0  0  0  0
   -0.1297    0.1189   -1.2809 C   0  0  0  0  0  0  0  0  0  0  0  0
   -0.3327    1.4106   -1.8709 C   0  0  0  0  0  0  0  0  0  0  0  0
   -0.4954    2.4529   -2.3577 N   0  0  0  0  0  0  0  0  0  0  0  0
    0.1710   -0.9655   -2.1761 C   0  0  0  0  0  0  0  0  0  0  0  0
   -0.5109   -1.2239   -3.3485 C   0  0  0  0  0  0  0  0  0  0  0  0
    0.0457   -2.3334   -3.9273 N   0  0  0  0  0  0  0  0  0  0  0  0
    1.0851   -2.8026   -3.1574 C   0  0  0  0  0  0  0  0  0  0  0  0
    1.9310   -3.8992   -3.3645 C   0  0  0  0  0  0  0  0  0  0  0  0
    2.9267   -4.1403   -2.4144 C   0  0  0  0  0  0  0  0  0  0  0  0
    3.0720   -3.3136   -1.3040 C   0  0  0  0  0  0  0  0  0  0  0  0
    2.2180   -2.2213   -1.1113 C   0  0  0  0  0  0  0  0  0  0  0  0
    1.1955   -1.9586   -2.0494 C   0  0  0  0  0  0  0  0  0  0  0  0
    0.3082    2.0342    1.2805 C   0  0  0  0  0  0  0  0  0  0  0  0
    0.0019    2.9799    2.2629 C   0  0  0  0  0  0  0  0  0  0  0  0
   -2.5234    4.6703    5.4015 H   0  0  0  0  0  0  0  0  0  0  0  0
   -3.4115    3.8661    4.1015 H   0  0  0  0  0  0  0  0  0  0  0  0
   -2.5470    2.9032    5.3628 H   0  0  0  0  0  0  0  0  0  0  0  0
   -2.9115    1.6348    3.4013 H   0  0  0  0  0  0  0  0  0  0  0  0
   -2.3781   -0.0138    1.6885 H   0  0  0  0  0  0  0  0  0  0  0  0
   -0.1399   -1.0741    0.4624 H   0  0  0  0  0  0  0  0  0  0  0  0
   -1.3449   -0.7216   -3.8226 H   0  0  0  0  0  0  0  0  0  0  0  0
   -0.2544   -2.7492   -4.7985 H   0  0  0  0  0  0  0  0  0  0  0  0
    1.8261   -4.5417   -4.2329 H   0  0  0  0  0  0  0  0  0  0  0  0
    3.6010   -4.9832   -2.5484 H   0  0  0  0  0  0  0  0  0  0  0  0
    3.8585   -3.5142   -0.5804 H   0  0  0  0  0  0  0  0  0  0  0  0
    2.3545   -1.5815   -0.2443 H   0  0  0  0  0  0  0  0  0  0  0  0
    1.2204    2.1561    0.7011 H   0  0  0  0  0  0  0  0  0  0  0  0
    0.6714    3.8214    2.4255 H   0  0  0  0  0  0  0  0  0  0  0  0
  1  2  1  0
  2  3  1  0
  3  4  2  0
  4  5  1  0
  5  6  2  0
  6  7  1  0
  7  8  2  3
  8  9  1  0
  9 10  3  0
  8 11  1  0
 11 12  2  0
 12 13  1  0
 13 14  1  0
 14 15  2  0
 15 16  1  0
 16 17  2  0
 17 18  1  0
 18 19  2  0
  6 20  1  0
 20 21  2  0
 21  3  1  0
 19 11  1  0
 19 14  1  0
  1 22  1  0
  1 23  1  0
  1 24  1  0
  4 25  1  0
  5 26  1  0
  7 27  1  0
 12 28  1  0
 13 29  1  0
 15 30  1  0
 16 31  1  0
 17 32  1  0
 18 33  1  0
 20 34  1  0
 21 35  1  0
M  END
$$$$
