
     RDKit          3D

 34 35  0  0  0  0  0  0  0  0999 V2000
    5.3353    1.6051    0.9957 C   0  0  0  0  0  0  0  0  0  0  0  0
    4.7924    0.2177    1.2885 C   0  0  0  0  0  0  0  0  0  0  0  0
    3.3515    0.1464    1.1212 N   0  0  0  0  0  0  0  0  0  0  0  0
    2.5659    0.4798    2.1636 N   0  0  0  0  0  0  0  0  0  0  0  0
    1.3297    0.2882    1.7033 C   0  0  0  0  0  0  0  0  0  0  0  0
    1.3128   -0.1591    0.3660 C   0  0  0  0  0  0  0  0  0  0  0  0
    0.1981   -0.4768   -0.4666 C   0  0  0  0  0  0  0  0  0  0  0  0
   -1.0934   -0.3317   -0.1287 C   0  0  0  0  0  0  0  0  0  0  0  0
   -2.1545   -0.7171   -1.0990 C   0  0  0  0  0  0  0  0  0  0  0  0
   -1.8995   -1.3430   -2.1229 O   0  0  0  0  0  0  0  0  0  0  0  0
   -3.5608   -0.3560   -0.7754 C   0  0  0  0  0  0  0  0  0  0  0  0
   -3.8926    0.7841   -0.0318 C   0  0  0  0  0  0  0  0  0  0  0  0
   -5.2322    1.0777    0.2369 C   0  0  0  0  0  0  0  0  0  0  0  0
   -6.2421    0.2433   -0.2415 C   0  0  0  0  0  0  0  0  0  0  0  0
   -5.9186   -0.8825   -0.9971 C   0  0  0  0  0  0  0  0  0  0  0  0
   -4.5819   -1.1793   -1.2684 C   0  0  0  0  0  0  0  0  0  0  0  0
    2.6464   -0.2373    0.0028 C   0  0  0  0  0  0  0  0  0  0  0  0
    3.3088   -0.6380   -1.2667 C   0  0  0  0  0  0  0  0  0  0  0  0
    6.4210    1.6244    1.1309 H   0  0  0  0  0  0  0  0  0  0  0  0
    5.1132    1.9091   -0.0325 H   0  0  0  0  0  0  0  0  0  0  0  0
    4.8947    2.3510    1.6657 H   0  0  0  0  0  0  0  0  0  0  0  0
    5.0197   -0.0742    2.3201 H   0  0  0  0  0  0  0  0  0  0  0  0
    5.2518   -0.5263    0.6303 H   0  0  0  0  0  0  0  0  0  0  0  0
    0.4991    0.4821    2.3684 H   0  0  0  0  0  0  0  0  0  0  0  0
    0.4218   -0.8691   -1.4579 H   0  0  0  0  0  0  0  0  0  0  0  0
   -1.3943    0.0404    0.8409 H   0  0  0  0  0  0  0  0  0  0  0  0
   -3.1302    1.4700    0.3261 H   0  0  0  0  0  0  0  0  0  0  0  0
   -5.4900    1.9640    0.8121 H   0  0  0  0  0  0  0  0  0  0  0  0
   -7.2839    0.4760   -0.0335 H   0  0  0  0  0  0  0  0  0  0  0  0
   -6.7058   -1.5276   -1.3794 H   0  0  0  0  0  0  0  0  0  0  0  0
   -4.3375   -2.0564   -1.8652 H   0  0  0  0  0  0  0  0  0  0  0  0
    2.6047   -0.6616   -2.1032 H   0  0  0  0  0  0  0  0  0  0  0  0
    3.7477   -1.6358   -1.1668 H   0  0  0  0  0  0  0  0  0  0  0  0
    4.1027    0.0659   -1.5360 H   0  0  0  0  0  0  0  0  0  0  0  0
  1  2  1  0
  2  3  1  0
  3  4  1  0
  4  5  2  0
  5  6  1  0
  6  7  1  0
  7  8  2  3
  8  9  1  0
  9 10  2  0
  9 11  1  0
 11 12  2  0
 12 13  1  0
 13 14  2  0
 14 15  1  0
 15 16  2  0
  6 17  2  0
 17 18  1  0
 17  3  1  0
 16 11  1  0
  1 19  1  0
  1 20  1  0
  1 21  1  0
  2 22  1  0
  2 23  1  0
  5 24  1  0
  7 25  1  0
  8 26  1  0
 12 27  1  0
 13 28  1  0
 14 29  1  0
 15 30  1  0
 16 31  1  0
 18 32  1  0
 18 33  1  0
 18 34  1  0
M  END
$$$$
