
     RDKit          3D

 49 53  0  0  0  0  0  0  0  0999 V2000
    3.2407   -2.2815    3.8107 C   0  0  0  0  0  0  0  0  0  0  0  0
    3.2658   -1.4423    2.5727 C   0  0  0  0  0  0  0  0  0  0  0  0
    4.5211   -1.6719    1.4419 S   0  0  0  0  0  0  0  0  0  0  0  0
    3.9151   -0.4629    0.4176 C   0  0  0  0  0  0  0  0  0  0  0  0
    4.5604   -0.1837   -0.7269 N   0  0  0  0  0  0  0  0  0  0  0  0
    3.9777    0.7885   -1.4237 C   0  0  0  0  0  0  0  0  0  0  0  0
    2.8729    1.4660   -1.0983 N   0  0  0  0  0  0  0  0  0  0  0  0
    2.2533    1.1549    0.0617 C   0  0  0  0  0  0  0  0  0  0  0  0
    0.8204    2.0951    0.4972 S   0  0  0  0  0  0  0  0  0  0  0  0
   -0.0182    2.1739   -1.1396 C   0  0  0  0  0  0  0  0  0  0  0  0
    0.2166    3.5499   -1.7525 C   0  0  0  0  0  0  0  0  0  0  0  0
   -1.5197    1.9163   -0.9073 C   0  0  0  0  0  0  0  0  0  0  0  0
   -2.3446    2.8285   -0.8247 O   0  0  0  0  0  0  0  0  0  0  0  0
   -1.8357    0.5570   -0.7368 N   0  0  0  0  0  0  0  0  0  0  0  0
   -2.3442    0.0894    0.5295 C   0  0  0  0  0  0  0  0  0  0  0  0
   -2.6818    1.0167    1.5414 C   0  0  0  0  0  0  0  0  0  0  0  0
   -3.1470    0.6155    2.7979 C   0  0  0  0  0  0  0  0  0  0  0  0
   -3.2789   -0.7312    3.0865 C   0  0  0  0  0  0  0  0  0  0  0  0
   -2.9411   -1.6688    2.1166 C   0  0  0  0  0  0  0  0  0  0  0  0
   -2.4750   -1.2709    0.8481 C   0  0  0  0  0  0  0  0  0  0  0  0
   -1.9965   -2.5900   -0.2316 S   0  0  0  0  0  0  0  0  0  0  0  0
   -1.8222   -1.7282   -1.7643 C   0  0  0  0  0  0  0  0  0  0  0  0
   -1.7316   -2.5335   -2.9161 C   0  0  0  0  0  0  0  0  0  0  0  0
   -1.5933   -1.9708   -4.1816 C   0  0  0  0  0  0  0  0  0  0  0  0
   -1.5550   -0.5924   -4.3085 C   0  0  0  0  0  0  0  0  0  0  0  0
   -1.6423    0.2129   -3.1692 C   0  0  0  0  0  0  0  0  0  0  0  0
   -1.7564   -0.3324   -1.8686 C   0  0  0  0  0  0  0  0  0  0  0  0
    2.7604    0.1415    0.8998 C   0  0  0  0  0  0  0  0  0  0  0  0
    2.3689   -0.4554    2.1753 C   0  0  0  0  0  0  0  0  0  0  0  0
    1.1608   -0.0708    2.9762 C   0  0  0  0  0  0  0  0  0  0  0  0
    2.3448   -2.9102    3.8220 H   0  0  0  0  0  0  0  0  0  0  0  0
    3.2281   -1.6444    4.7011 H   0  0  0  0  0  0  0  0  0  0  0  0
    4.1120   -2.9409    3.8885 H   0  0  0  0  0  0  0  0  0  0  0  0
    4.4562    1.0628   -2.3579 H   0  0  0  0  0  0  0  0  0  0  0  0
    0.3818    1.4071   -1.8081 H   0  0  0  0  0  0  0  0  0  0  0  0
   -0.1751    4.3581   -1.1249 H   0  0  0  0  0  0  0  0  0  0  0  0
    1.2813    3.7378   -1.9265 H   0  0  0  0  0  0  0  0  0  0  0  0
   -0.2925    3.6256   -2.7203 H   0  0  0  0  0  0  0  0  0  0  0  0
   -2.6045    2.0892    1.3812 H   0  0  0  0  0  0  0  0  0  0  0  0
   -3.4022    1.3663    3.5432 H   0  0  0  0  0  0  0  0  0  0  0  0
   -3.6393   -1.0521    4.0595 H   0  0  0  0  0  0  0  0  0  0  0  0
   -3.0364   -2.7254    2.3601 H   0  0  0  0  0  0  0  0  0  0  0  0
   -1.7761   -3.6189   -2.8317 H   0  0  0  0  0  0  0  0  0  0  0  0
   -1.5318   -2.6065   -5.0610 H   0  0  0  0  0  0  0  0  0  0  0  0
   -1.4769   -0.1342   -5.2916 H   0  0  0  0  0  0  0  0  0  0  0  0
   -1.6543    1.2881   -3.3358 H   0  0  0  0  0  0  0  0  0  0  0  0
    0.2527   -0.2095    2.3851 H   0  0  0  0  0  0  0  0  0  0  0  0
    1.2301    0.9716    3.3017 H   0  0  0  0  0  0  0  0  0  0  0  0
    1.0516   -0.6836    3.8767 H   0  0  0  0  0  0  0  0  0  0  0  0
  1  2  1  0
  2  3  1  0
  3  4  1  0
  4  5  2  0
  5  6  1  0
  6  7  2  0
  7  8  1  0
  8  9  1  0
  9 10  1  0
 10 11  1  0
 10 12  1  0
 12 13  2  0
 12 14  1  0
 14 15  1  0
 15 16  2  0
 16 17  1  0
 17 18  2  0
 18 19  1  0
 19 20  2  0
 20 21  1  0
 21 22  1  0
 22 23  2  0
 23 24  1  0
 24 25  2  0
 25 26  1  0
 26 27  2  0
  8 28  2  0
 28 29  1  0
 29 30  1  0
 29  2  2  0
 28  4  1  0
 27 14  1  0
 20 15  1  0
 27 22  1  0
  1 31  1  0
  1 32  1  0
  1 33  1  0
  6 34  1  0
 10 35  1  0
 11 36  1  0
 11 37  1  0
 11 38  1  0
 16 39  1  0
 17 40  1  0
 18 41  1  0
 19 42  1  0
 23 43  1  0
 24 44  1  0
 25 45  1  0
 26 46  1  0
 30 47  1  0
 30 48  1  0
 30 49  1  0
M  END
$$$$
