
     RDKit          3D

 46 48  0  0  0  0  0  0  0  0999 V2000
   -2.8600    0.5026   -1.7516 O   0  0  0  0  0  0  0  0  0  0  0  0
   -2.5635    0.3739   -0.5708 C   0  0  0  0  0  0  0  0  0  0  0  0
   -3.3626   -0.1422    0.4340 N   0  0  0  0  0  0  0  0  0  0  0  0
   -4.7076   -0.5586    0.3208 C   0  0  0  0  0  0  0  0  0  0  0  0
   -5.4736   -0.4241   -0.8391 C   0  0  0  0  0  0  0  0  0  0  0  0
   -6.7986   -0.8606   -0.8545 C   0  0  0  0  0  0  0  0  0  0  0  0
   -7.5221   -0.7251   -1.9738 F   0  0  0  0  0  0  0  0  0  0  0  0
   -7.3849   -1.4299    0.2652 C   0  0  0  0  0  0  0  0  0  0  0  0
   -6.6233   -1.5582    1.4147 C   0  0  0  0  0  0  0  0  0  0  0  0
   -7.1686   -2.1034    2.5099 F   0  0  0  0  0  0  0  0  0  0  0  0
   -5.2977   -1.1294    1.4552 C   0  0  0  0  0  0  0  0  0  0  0  0
   -1.1931    0.7732   -0.1461 C   0  0  0  0  0  0  0  0  0  0  0  0
   -0.1329    0.5742   -1.0303 C   0  0  0  0  0  0  0  0  0  0  0  0
    1.1736    0.9348   -0.6703 C   0  0  0  0  0  0  0  0  0  0  0  0
    1.4697    1.5401    0.5621 C   0  0  0  0  0  0  0  0  0  0  0  0
    2.7876    1.8075    0.9494 N   0  0  0  0  0  0  0  0  0  0  0  0
    3.8651    2.0356   -0.0203 C   0  0  0  0  0  0  0  0  0  0  0  0
    4.9432    0.9479    0.0742 C   0  0  0  0  0  0  0  0  0  0  0  0
    4.5532   -0.3544   -0.5831 C   0  0  0  0  0  0  0  0  0  0  0  0
    4.7981   -0.5656   -1.9471 C   0  0  0  0  0  0  0  0  0  0  0  0
    4.4136   -1.7607   -2.5571 C   0  0  0  0  0  0  0  0  0  0  0  0
    3.7802   -2.7534   -1.8116 C   0  0  0  0  0  0  0  0  0  0  0  0
    3.5309   -2.5530   -0.4554 C   0  0  0  0  0  0  0  0  0  0  0  0
    3.9151   -1.3593    0.1564 C   0  0  0  0  0  0  0  0  0  0  0  0
    0.3748    1.7112    1.4438 C   0  0  0  0  0  0  0  0  0  0  0  0
    0.5688    2.2806    2.7799 N   0  0  0  0  0  4  0  0  0  0  0  0
   -0.1931    1.8902    3.6778 O   0  0  0  0  0  0  0  0  0  0  0  0
    1.4633    3.1269    2.9313 O   0  0  0  0  0  1  0  0  0  0  0  0
   -0.9443    1.3540    1.0961 C   0  0  0  0  0  0  0  0  0  0  0  0
   -2.9283   -0.3077    1.3337 H   0  0  0  0  0  0  0  0  0  0  0  0
   -5.0811    0.0164   -1.7490 H   0  0  0  0  0  0  0  0  0  0  0  0
   -8.4147   -1.7646    0.2405 H   0  0  0  0  0  0  0  0  0  0  0  0
   -4.7474   -1.2537    2.3828 H   0  0  0  0  0  0  0  0  0  0  0  0
   -0.3102    0.1185   -2.0041 H   0  0  0  0  0  0  0  0  0  0  0  0
    1.9591    0.7033   -1.3853 H   0  0  0  0  0  0  0  0  0  0  0  0
    2.8399    2.4776    1.7251 H   0  0  0  0  0  0  0  0  0  0  0  0
    4.3347    2.9905    0.2485 H   0  0  0  0  0  0  0  0  0  0  0  0
    3.5069    2.1667   -1.0470 H   0  0  0  0  0  0  0  0  0  0  0  0
    5.8596    1.3150   -0.4061 H   0  0  0  0  0  0  0  0  0  0  0  0
    5.2108    0.7645    1.1229 H   0  0  0  0  0  0  0  0  0  0  0  0
    5.2907    0.1985   -2.5439 H   0  0  0  0  0  0  0  0  0  0  0  0
    4.6093   -1.9185   -3.6146 H   0  0  0  0  0  0  0  0  0  0  0  0
    3.4819   -3.6839   -2.2874 H   0  0  0  0  0  0  0  0  0  0  0  0
    3.0356   -3.3255    0.1266 H   0  0  0  0  0  0  0  0  0  0  0  0
    3.7041   -1.2087    1.2132 H   0  0  0  0  0  0  0  0  0  0  0  0
   -1.7624    1.5531    1.7846 H   0  0  0  0  0  0  0  0  0  0  0  0
  1  2  2  0
  2  3  1  0
  3  4  1  0
  4  5  2  0
  5  6  1  0
  6  7  1  0
  6  8  2  0
  8  9  1  0
  9 10  1  0
  9 11  2  0
  2 12  1  0
 12 13  2  0
 13 14  1  0
 14 15  2  0
 15 16  1  0
 16 17  1  0
 17 18  1  0
 18 19  1  0
 19 20  2  0
 20 21  1  0
 21 22  2  0
 22 23  1  0
 23 24  2  0
 15 25  1  0
 25 26  1  0
 26 27  2  0
 26 28  1  0
 25 29  2  0
 11  4  1  0
 29 12  1  0
 24 19  1  0
  3 30  1  0
  5 31  1  0
  8 32  1  0
 11 33  1  0
 13 34  1  0
 14 35  1  0
 16 36  1  0
 17 37  1  0
 17 38  1  0
 18 39  1  0
 18 40  1  0
 20 41  1  0
 21 42  1  0
 22 43  1  0
 23 44  1  0
 24 45  1  0
 29 46  1  0
M  CHG  2  26   1  28  -1
M  END
$$$$
