
     RDKit          3D

 34 35  0  0  0  0  0  0  0  0999 V2000
    4.1409   -1.6531   -0.7869 C   0  0  0  0  0  0  0  0  0  0  0  0
    4.1078   -0.2063   -0.3313 C   0  0  0  0  0  0  0  0  0  0  0  0
    2.7521    0.2541   -0.2473 O   0  0  0  0  0  0  0  0  0  0  0  0
    2.1267    0.0028    0.9195 C   0  0  0  0  0  0  0  0  0  0  0  0
    2.5697   -0.5192    1.9245 O   0  0  0  0  0  0  0  0  0  0  0  0
    0.7046    0.5338    0.8391 C   0  0  0  0  0  0  0  0  0  0  0  0
   -0.1402   -0.1761    0.1679 N   0  0  0  0  0  0  0  0  0  0  0  0
   -1.4453    0.2583    0.0626 N   0  0  0  0  0  0  0  0  0  0  0  0
   -2.2799   -0.6292   -0.7154 C   0  0  0  0  0  0  0  0  0  0  0  0
   -3.6410   -0.3920   -0.9590 C   0  0  0  0  0  0  0  0  0  0  0  0
   -4.4157   -1.2793   -1.7203 C   0  0  0  0  0  0  0  0  0  0  0  0
   -3.8473   -2.4280   -2.2575 C   0  0  0  0  0  0  0  0  0  0  0  0
   -2.5026   -2.6913   -2.0341 C   0  0  0  0  0  0  0  0  0  0  0  0
   -1.7322   -1.8033   -1.2739 C   0  0  0  0  0  0  0  0  0  0  0  0
   -1.8887    1.4469    0.6603 C   0  0  0  0  0  0  0  0  0  0  0  0
   -3.0285    1.9061    0.6136 O   0  0  0  0  0  0  0  0  0  0  0  0
   -0.8614    2.2213    1.4235 C   0  0  0  0  0  0  0  0  0  0  0  0
   -1.2971    3.4316    2.0362 C   0  0  0  0  0  0  0  0  0  0  0  0
   -1.5803    4.4289    2.5585 N   0  0  0  0  0  0  0  0  0  0  0  0
    0.4112    1.8056    1.5314 C   0  0  0  0  0  0  0  0  0  0  0  0
    1.5215    2.5006    2.2633 C   0  0  0  0  0  0  0  0  0  0  0  0
    5.1715   -1.9973   -0.9108 H   0  0  0  0  0  0  0  0  0  0  0  0
    3.6396   -2.3039   -0.0634 H   0  0  0  0  0  0  0  0  0  0  0  0
    3.6125   -1.7687   -1.7389 H   0  0  0  0  0  0  0  0  0  0  0  0
    4.6324   -0.0748    0.6221 H   0  0  0  0  0  0  0  0  0  0  0  0
    4.6157    0.4242   -1.0684 H   0  0  0  0  0  0  0  0  0  0  0  0
   -4.1566    0.4807   -0.5741 H   0  0  0  0  0  0  0  0  0  0  0  0
   -5.4683   -1.0640   -1.8888 H   0  0  0  0  0  0  0  0  0  0  0  0
   -4.4505   -3.1136   -2.8463 H   0  0  0  0  0  0  0  0  0  0  0  0
   -2.0457   -3.5866   -2.4477 H   0  0  0  0  0  0  0  0  0  0  0  0
   -0.6844   -2.0539   -1.1264 H   0  0  0  0  0  0  0  0  0  0  0  0
    1.2218    3.4645    2.6841 H   0  0  0  0  0  0  0  0  0  0  0  0
    1.8763    1.8834    3.0951 H   0  0  0  0  0  0  0  0  0  0  0  0
    2.3615    2.6979    1.5889 H   0  0  0  0  0  0  0  0  0  0  0  0
  1  2  1  0
  2  3  1  0
  3  4  1  0
  4  5  2  0
  4  6  1  0
  6  7  2  0
  7  8  1  0
  8  9  1  0
  9 10  2  0
 10 11  1  0
 11 12  2  0
 12 13  1  0
 13 14  2  0
  8 15  1  0
 15 16  2  0
 15 17  1  0
 17 18  1  0
 18 19  3  0
 17 20  2  0
 20 21  1  0
 20  6  1  0
 14  9  1  0
  1 22  1  0
  1 23  1  0
  1 24  1  0
  2 25  1  0
  2 26  1  0
 10 27  1  0
 11 28  1  0
 12 29  1  0
 13 30  1  0
 14 31  1  0
 21 32  1  0
 21 33  1  0
 21 34  1  0
M  END
$$$$
