
     RDKit          3D

 42 41  0  0  0  0  0  0  0  0999 V2000
   -5.0398   -0.3156    1.2464 C   0  0  0  0  0  0  0  0  0  0  0  0
   -4.2742   -0.3128   -0.0466 C   0  0  0  0  0  0  0  0  0  0  0  0
   -5.0515   -0.8412   -1.2250 C   0  0  0  0  0  0  0  0  0  0  0  0
   -2.9989    0.0979   -0.1966 C   0  0  0  0  0  0  0  0  0  0  0  0
   -2.0811    0.6804    0.8450 C   0  0  0  0  0  0  0  0  0  0  0  0
   -0.9983   -0.3242    1.2559 C   0  0  0  0  0  0  0  0  0  0  0  0
   -0.0048    0.2716    2.2337 C   0  0  0  0  0  0  0  0  0  0  0  0
   -0.4107    0.2003    3.6819 C   0  0  0  0  0  0  0  0  0  0  0  0
    1.1808    0.8071    1.8783 C   0  0  0  0  0  0  0  0  0  0  0  0
    1.7221    0.9676    0.4810 C   0  0  0  0  0  0  0  0  0  0  0  0
    2.8022   -0.0721    0.1804 C   0  0  0  0  0  0  0  0  0  0  0  0
    3.3590    0.0523   -1.2261 C   0  0  0  0  0  0  0  0  0  0  0  0
    4.2612    1.2340   -1.4646 C   0  0  0  0  0  0  0  0  0  0  0  0
    3.0732   -0.8796   -2.1611 C   0  0  0  0  0  0  0  0  0  0  0  0
    3.5025   -0.8969   -3.5952 C   0  0  0  0  0  0  0  0  0  0  0  0
    4.4926   -1.8948   -3.7818 O   0  0  0  0  0  0  0  0  0  0  0  0
   -5.9016    0.3559    1.1763 H   0  0  0  0  0  0  0  0  0  0  0  0
   -4.4422   -0.0121    2.1106 H   0  0  0  0  0  0  0  0  0  0  0  0
   -5.4084   -1.3265    1.4559 H   0  0  0  0  0  0  0  0  0  0  0  0
   -5.9471   -0.2336   -1.3927 H   0  0  0  0  0  0  0  0  0  0  0  0
   -5.3621   -1.8767   -1.0402 H   0  0  0  0  0  0  0  0  0  0  0  0
   -4.4643   -0.8296   -2.1517 H   0  0  0  0  0  0  0  0  0  0  0  0
   -2.5483    0.0306   -1.1877 H   0  0  0  0  0  0  0  0  0  0  0  0
   -2.6333    1.0286    1.7239 H   0  0  0  0  0  0  0  0  0  0  0  0
   -1.6117    1.5763    0.4149 H   0  0  0  0  0  0  0  0  0  0  0  0
   -0.4793   -0.7026    0.3675 H   0  0  0  0  0  0  0  0  0  0  0  0
   -1.4612   -1.2090    1.7096 H   0  0  0  0  0  0  0  0  0  0  0  0
    0.3463    0.6327    4.3459 H   0  0  0  0  0  0  0  0  0  0  0  0
   -1.3460    0.7456    3.8485 H   0  0  0  0  0  0  0  0  0  0  0  0
   -0.5512   -0.8410    3.9821 H   0  0  0  0  0  0  0  0  0  0  0  0
    1.8367    1.1934    2.6589 H   0  0  0  0  0  0  0  0  0  0  0  0
    0.9266    0.9094   -0.2666 H   0  0  0  0  0  0  0  0  0  0  0  0
    2.1367    1.9775    0.3972 H   0  0  0  0  0  0  0  0  0  0  0  0
    2.3865   -1.0751    0.3328 H   0  0  0  0  0  0  0  0  0  0  0  0
    3.6231    0.0179    0.9009 H   0  0  0  0  0  0  0  0  0  0  0  0
    4.9373    1.0825   -2.3091 H   0  0  0  0  0  0  0  0  0  0  0  0
    3.6719    2.1416   -1.6298 H   0  0  0  0  0  0  0  0  0  0  0  0
    4.9066    1.3988   -0.5950 H   0  0  0  0  0  0  0  0  0  0  0  0
    2.4306   -1.7160   -1.8877 H   0  0  0  0  0  0  0  0  0  0  0  0
    3.8971    0.0604   -3.9445 H   0  0  0  0  0  0  0  0  0  0  0  0
    2.6471   -1.1488   -4.2301 H   0  0  0  0  0  0  0  0  0  0  0  0
    4.8759   -2.0948   -2.8952 H   0  0  0  0  0  0  0  0  0  0  0  0
  1  2  1  0
  2  3  1  0
  2  4  2  3
  4  5  1  0
  5  6  1  0
  6  7  1  0
  7  8  1  0
  7  9  2  3
  9 10  1  0
 10 11  1  0
 11 12  1  0
 12 13  1  0
 12 14  2  3
 14 15  1  0
 15 16  1  0
  1 17  1  0
  1 18  1  0
  1 19  1  0
  3 20  1  0
  3 21  1  0
  3 22  1  0
  4 23  1  0
  5 24  1  0
  5 25  1  0
  6 26  1  0
  6 27  1  0
  8 28  1  0
  8 29  1  0
  8 30  1  0
  9 31  1  0
 10 32  1  0
 10 33  1  0
 11 34  1  0
 11 35  1  0
 13 36  1  0
 13 37  1  0
 13 38  1  0
 14 39  1  0
 15 40  1  0
 15 41  1  0
 16 42  1  0
M  END
$$$$
