
     RDKit          3D

 63 67  0  0  0  0  0  0  0  0999 V2000
    8.1849    0.2767   -3.4912 C   0  0  0  0  0  0  0  0  0  0  0  0
    7.6546    1.4587   -2.7019 C   0  0  0  0  0  0  0  0  0  0  0  0
    6.7713    1.0058   -1.6672 O   0  0  0  0  0  0  0  0  0  0  0  0
    5.4652    0.8438   -2.0295 C   0  0  0  0  0  0  0  0  0  0  0  0
    5.0224    1.0570   -3.1515 O   0  0  0  0  0  0  0  0  0  0  0  0
    4.6321    0.3818   -0.9261 C   0  0  0  0  0  0  0  0  0  0  0  0
    3.2349    0.1046   -0.9649 C   0  0  0  0  0  0  0  0  0  0  0  0
    2.8293   -0.2906    0.2975 C   0  0  0  0  0  0  0  0  0  0  0  0
    1.5312   -0.6862    0.8285 C   0  0  0  0  0  0  0  0  0  0  0  0
    0.3459   -0.6247    0.1030 N   0  0  0  0  0  0  0  0  0  0  0  0
    0.0445    0.5050   -0.7900 C   0  0  0  0  0  0  0  0  0  0  0  0
   -1.4089    0.9949   -0.6143 C   0  0  0  0  0  0  0  0  0  0  0  0
   -2.4214   -0.0407   -0.9153 N   0  0  0  0  0  0  0  0  0  0  0  0
   -3.7291    0.3418   -0.3602 C   0  0  0  0  0  0  0  0  0  0  0  0
   -4.8902   -0.3975   -1.0502 C   0  0  0  0  0  0  0  0  0  0  0  0
   -6.2363    0.0143   -0.4846 C   0  0  0  0  0  0  0  0  0  0  0  0
   -6.6722   -0.6044    0.7020 C   0  0  0  0  0  0  0  0  0  0  0  0
   -7.8922   -0.2634    1.2835 C   0  0  0  0  0  0  0  0  0  0  0  0
   -8.6971    0.7020    0.6909 C   0  0  0  0  0  0  0  0  0  0  0  0
   -8.2808    1.3278   -0.4838 C   0  0  0  0  0  0  0  0  0  0  0  0
   -7.0501    1.0013   -1.0873 C   0  0  0  0  0  0  0  0  0  0  0  0
   -6.6523    1.7084   -2.3662 C   0  0  0  0  0  0  0  0  0  0  0  0
   -5.4272    2.2981   -2.2862 F   0  0  0  0  0  0  0  0  0  0  0  0
   -6.6010    0.8689   -3.4371 F   0  0  0  0  0  0  0  0  0  0  0  0
   -7.5109    2.7064   -2.7253 F   0  0  0  0  0  0  0  0  0  0  0  0
   -1.9637   -1.3739   -0.4607 C   0  0  0  0  0  0  0  0  0  0  0  0
   -0.8330   -1.3610    0.5905 C   0  0  0  0  0  0  0  0  0  0  0  0
    1.4773   -1.1377    2.0584 N   0  0  0  0  0  0  0  0  0  0  0  0
    2.6313   -1.1889    2.8624 C   0  0  0  0  0  0  0  0  0  0  0  0
    2.5076   -1.6618    4.1703 C   0  0  0  0  0  0  0  0  0  0  0  0
    3.6187   -1.7221    5.0157 C   0  0  0  0  0  0  0  0  0  0  0  0
    4.8695   -1.3073    4.5576 C   0  0  0  0  0  0  0  0  0  0  0  0
    5.0163   -0.8317    3.2540 C   0  0  0  0  0  0  0  0  0  0  0  0
    3.8950   -0.7767    2.4203 C   0  0  0  0  0  0  0  0  0  0  0  0
    3.9541   -0.3254    1.0919 N   0  0  0  0  0  0  0  0  0  0  0  0
    5.0381    0.1131    0.3709 C   0  0  0  0  0  0  0  0  0  0  0  0
    8.6693   -0.4445   -2.8246 H   0  0  0  0  0  0  0  0  0  0  0  0
    8.9089    0.6051   -4.2421 H   0  0  0  0  0  0  0  0  0  0  0  0
    7.3724   -0.2538   -3.9976 H   0  0  0  0  0  0  0  0  0  0  0  0
    8.4856    1.9740   -2.2096 H   0  0  0  0  0  0  0  0  0  0  0  0
    7.1655    2.1905   -3.3547 H   0  0  0  0  0  0  0  0  0  0  0  0
    2.6063    0.1890   -1.8417 H   0  0  0  0  0  0  0  0  0  0  0  0
    0.2072    0.1944   -1.8285 H   0  0  0  0  0  0  0  0  0  0  0  0
    0.7064    1.3533   -0.5824 H   0  0  0  0  0  0  0  0  0  0  0  0
   -1.5261    1.3544    0.4176 H   0  0  0  0  0  0  0  0  0  0  0  0
   -1.5751    1.8520   -1.2774 H   0  0  0  0  0  0  0  0  0  0  0  0
   -3.8865    1.4178   -0.5120 H   0  0  0  0  0  0  0  0  0  0  0  0
   -3.7499    0.1798    0.7258 H   0  0  0  0  0  0  0  0  0  0  0  0
   -4.8571   -0.2226   -2.1313 H   0  0  0  0  0  0  0  0  0  0  0  0
   -4.7886   -1.4837   -0.9340 H   0  0  0  0  0  0  0  0  0  0  0  0
   -6.0574   -1.3643    1.1818 H   0  0  0  0  0  0  0  0  0  0  0  0
   -8.2140   -0.7536    2.1989 H   0  0  0  0  0  0  0  0  0  0  0  0
   -9.6502    0.9680    1.1415 H   0  0  0  0  0  0  0  0  0  0  0  0
   -8.9286    2.0807   -0.9323 H   0  0  0  0  0  0  0  0  0  0  0  0
   -2.7913   -1.9817   -0.0780 H   0  0  0  0  0  0  0  0  0  0  0  0
   -1.5940   -1.8997   -1.3507 H   0  0  0  0  0  0  0  0  0  0  0  0
   -1.1991   -0.9093    1.5212 H   0  0  0  0  0  0  0  0  0  0  0  0
   -0.5533   -2.3991    0.8077 H   0  0  0  0  0  0  0  0  0  0  0  0
    1.5339   -1.9832    4.5303 H   0  0  0  0  0  0  0  0  0  0  0  0
    3.5051   -2.0925    6.0313 H   0  0  0  0  0  0  0  0  0  0  0  0
    5.7315   -1.3564    5.2188 H   0  0  0  0  0  0  0  0  0  0  0  0
    5.9998   -0.5179    2.9210 H   0  0  0  0  0  0  0  0  0  0  0  0
    6.0215    0.1871    0.8133 H   0  0  0  0  0  0  0  0  0  0  0  0
  1  2  1  0
  2  3  1  0
  3  4  1  0
  4  5  2  0
  4  6  1  0
  6  7  1  0
  7  8  2  0
  8  9  1  0
  9 10  1  0
 10 11  1  0
 11 12  1  0
 12 13  1  0
 13 14  1  0
 14 15  1  0
 15 16  1  0
 16 17  2  0
 17 18  1  0
 18 19  2  0
 19 20  1  0
 20 21  2  0
 21 22  1  0
 22 23  1  0
 22 24  1  0
 22 25  1  0
 13 26  1  0
 26 27  1  0
  9 28  2  0
 28 29  1  0
 29 30  2  0
 30 31  1  0
 31 32  2  0
 32 33  1  0
 33 34  2  0
 34 35  1  0
 35 36  1  0
 36  6  2  0
 35  8  1  0
 27 10  1  0
 34 29  1  0
 21 16  1  0
  1 37  1  0
  1 38  1  0
  1 39  1  0
  2 40  1  0
  2 41  1  0
  7 42  1  0
 11 43  1  0
 11 44  1  0
 12 45  1  0
 12 46  1  0
 14 47  1  0
 14 48  1  0
 15 49  1  0
 15 50  1  0
 17 51  1  0
 18 52  1  0
 19 53  1  0
 20 54  1  0
 26 55  1  0
 26 56  1  0
 27 57  1  0
 27 58  1  0
 30 59  1  0
 31 60  1  0
 32 61  1  0
 33 62  1  0
 36 63  1  0
M  END
$$$$
