
     RDKit          3D

 52 53  0  0  0  0  0  0  0  0999 V2000
    5.9642   -0.0825   -2.8846 C   0  0  0  0  0  0  0  0  0  0  0  0
    4.6215    0.5935   -2.6440 C   0  0  0  0  0  0  0  0  0  0  0  0
    3.5330   -0.3740   -2.1700 C   0  0  0  0  0  0  0  0  0  0  0  0
    3.8701   -0.9465   -0.8689 N   0  0  0  0  0  0  0  0  0  0  0  0
    2.9060   -1.9600   -0.4237 C   0  0  0  0  0  0  0  0  0  0  0  0
    1.4660   -1.4930   -0.1263 C   0  0  0  0  0  0  0  0  0  0  0  0
    0.6928   -2.6564    0.2077 O   0  0  0  0  0  0  0  0  0  0  0  0
    1.3991   -0.4892    1.0323 C   0  0  0  0  0  0  0  0  0  0  0  0
    0.0829    0.0871    1.0284 O   0  0  0  0  0  0  0  0  0  0  0  0
   -0.4099    0.3342    2.2798 C   0  0  0  0  0  0  0  0  0  0  0  0
    0.2735    1.1595    3.1761 C   0  0  0  0  0  0  0  0  0  0  0  0
   -0.2869    1.4504    4.4216 C   0  0  0  0  0  0  0  0  0  0  0  0
   -1.5339    0.9297    4.7696 C   0  0  0  0  0  0  0  0  0  0  0  0
   -2.2300    0.1203    3.8702 C   0  0  0  0  0  0  0  0  0  0  0  0
   -1.6708   -0.1704    2.6199 C   0  0  0  0  0  0  0  0  0  0  0  0
   -2.3968   -1.0493    1.6718 C   0  0  0  0  0  0  0  0  0  0  0  0
   -1.8028   -1.9833    1.1348 O   0  0  0  0  0  0  0  0  0  0  0  0
   -3.8679   -0.7685    1.4330 C   0  0  0  0  0  0  0  0  0  0  0  0
   -4.2310   -0.8869   -0.0465 C   0  0  0  0  0  0  0  0  0  0  0  0
   -3.6743    0.2519   -0.8682 C   0  0  0  0  0  0  0  0  0  0  0  0
   -2.4458    0.1152   -1.5283 C   0  0  0  0  0  0  0  0  0  0  0  0
   -1.9167    1.1745   -2.2663 C   0  0  0  0  0  0  0  0  0  0  0  0
   -2.6101    2.3800   -2.3520 C   0  0  0  0  0  0  0  0  0  0  0  0
   -3.8317    2.5279   -1.6973 C   0  0  0  0  0  0  0  0  0  0  0  0
   -4.3614    1.4698   -0.9566 C   0  0  0  0  0  0  0  0  0  0  0  0
    6.6827    0.6405   -3.2833 H   0  0  0  0  0  0  0  0  0  0  0  0
    6.3800   -0.4903   -1.9581 H   0  0  0  0  0  0  0  0  0  0  0  0
    5.8678   -0.8983   -3.6079 H   0  0  0  0  0  0  0  0  0  0  0  0
    4.7477    1.4043   -1.9162 H   0  0  0  0  0  0  0  0  0  0  0  0
    4.2909    1.0593   -3.5802 H   0  0  0  0  0  0  0  0  0  0  0  0
    2.5896    0.1797   -2.1094 H   0  0  0  0  0  0  0  0  0  0  0  0
    3.4093   -1.1683   -2.9154 H   0  0  0  0  0  0  0  0  0  0  0  0
    3.9790   -0.2110   -0.1749 H   0  0  0  0  0  0  0  0  0  0  0  0
    3.3121   -2.4291    0.4820 H   0  0  0  0  0  0  0  0  0  0  0  0
    2.8739   -2.7749   -1.1590 H   0  0  0  0  0  0  0  0  0  0  0  0
    1.0057   -1.0695   -1.0255 H   0  0  0  0  0  0  0  0  0  0  0  0
   -0.2026   -2.3490    0.4825 H   0  0  0  0  0  0  0  0  0  0  0  0
    1.6077   -1.0073    1.9777 H   0  0  0  0  0  0  0  0  0  0  0  0
    2.1138    0.3277    0.8942 H   0  0  0  0  0  0  0  0  0  0  0  0
    1.2309    1.5958    2.9070 H   0  0  0  0  0  0  0  0  0  0  0  0
    0.2477    2.0907    5.1197 H   0  0  0  0  0  0  0  0  0  0  0  0
   -1.9633    1.1564    5.7429 H   0  0  0  0  0  0  0  0  0  0  0  0
   -3.1943   -0.2885    4.1600 H   0  0  0  0  0  0  0  0  0  0  0  0
   -4.1339    0.2263    1.8074 H   0  0  0  0  0  0  0  0  0  0  0  0
   -4.4345   -1.5062    2.0129 H   0  0  0  0  0  0  0  0  0  0  0  0
   -3.8893   -1.8439   -0.4605 H   0  0  0  0  0  0  0  0  0  0  0  0
   -5.3237   -0.8913   -0.1495 H   0  0  0  0  0  0  0  0  0  0  0  0
   -1.8888   -0.8183   -1.4639 H   0  0  0  0  0  0  0  0  0  0  0  0
   -0.9624    1.0570   -2.7723 H   0  0  0  0  0  0  0  0  0  0  0  0
   -2.1981    3.2041   -2.9281 H   0  0  0  0  0  0  0  0  0  0  0  0
   -4.3722    3.4683   -1.7638 H   0  0  0  0  0  0  0  0  0  0  0  0
   -5.3147    1.6018   -0.4504 H   0  0  0  0  0  0  0  0  0  0  0  0
  1  2  1  0
  2  3  1  0
  3  4  1  0
  4  5  1  0
  5  6  1  0
  6  7  1  0
  6  8  1  0
  8  9  1  0
  9 10  1  0
 10 11  2  0
 11 12  1  0
 12 13  2  0
 13 14  1  0
 14 15  2  0
 15 16  1  0
 16 17  2  0
 16 18  1  0
 18 19  1  0
 19 20  1  0
 20 21  2  0
 21 22  1  0
 22 23  2  0
 23 24  1  0
 24 25  2  0
 15 10  1  0
 25 20  1  0
  1 26  1  0
  1 27  1  0
  1 28  1  0
  2 29  1  0
  2 30  1  0
  3 31  1  0
  3 32  1  0
  4 33  1  0
  5 34  1  0
  5 35  1  0
  6 36  1  0
  7 37  1  0
  8 38  1  0
  8 39  1  0
 11 40  1  0
 12 41  1  0
 13 42  1  0
 14 43  1  0
 18 44  1  0
 18 45  1  0
 19 46  1  0
 19 47  1  0
 21 48  1  0
 22 49  1  0
 23 50  1  0
 24 51  1  0
 25 52  1  0
M  END
$$$$
