
     RDKit          3D

 49 52  0  0  0  0  0  0  0  0999 V2000
    0.4374    2.3678    1.6322 O   0  0  0  0  0  0  0  0  0  0  0  0
    0.1370    2.1749    0.4705 C   0  0  0  0  0  0  0  0  0  0  0  0
    1.0202    1.9856   -0.5213 O   0  0  0  0  0  0  0  0  0  0  0  0
   -1.2270    2.1322   -0.0591 C   0  0  0  0  0  0  0  0  0  0  0  0
   -1.6974    3.4250   -0.3873 C   0  0  0  0  0  0  0  0  0  0  0  0
   -2.9440    3.6024   -0.9613 C   0  0  0  0  0  0  0  0  0  0  0  0
   -3.7161    2.4844   -1.2201 C   0  0  0  0  0  0  0  0  0  0  0  0
   -3.2485    1.1953   -0.8861 C   0  0  0  0  0  0  0  0  0  0  0  0
   -4.1423    0.0697   -1.2185 C   0  0  0  0  0  0  0  0  0  0  0  0
   -5.2499    0.2726   -1.7090 O   0  0  0  0  0  0  0  0  0  0  0  0
   -3.6861   -1.3012   -0.9616 C   0  0  0  0  0  0  0  0  0  0  0  0
   -4.5190   -2.3639   -1.3580 C   0  0  0  0  0  0  0  0  0  0  0  0
   -4.1316   -3.6761   -1.1288 C   0  0  0  0  0  0  0  0  0  0  0  0
   -2.9159   -3.9182   -0.5082 C   0  0  0  0  0  0  0  0  0  0  0  0
   -2.0958   -2.8495   -0.1140 C   0  0  0  0  0  0  0  0  0  0  0  0
   -2.4549   -1.5051   -0.3192 C   0  0  0  0  0  0  0  0  0  0  0  0
   -1.6478   -0.3919    0.0636 N   0  0  0  0  0  0  0  0  0  0  0  0
   -0.6014   -0.6598    1.0985 C   0  0  0  0  0  0  0  0  0  0  0  0
    0.8040   -0.9300    0.4859 C   0  0  0  0  0  0  0  0  0  0  0  0
    1.0210   -2.3311    0.2304 O   0  0  0  0  0  0  0  0  0  0  0  0
    1.9570   -0.4282    1.4056 C   0  0  0  0  0  0  0  0  0  0  0  0
    2.9689    0.3641    0.6719 N   0  0  0  0  0  0  0  0  0  0  0  0
    3.9978    0.8927    1.5773 C   0  0  0  0  0  0  0  0  0  0  0  0
    5.0990    1.3201    0.6208 C   0  0  0  0  0  0  0  0  0  0  0  0
    4.9392    0.4162   -0.5967 C   0  0  0  0  0  0  0  0  0  0  0  0
    3.7196   -0.4452   -0.3000 C   0  0  0  0  0  0  0  0  0  0  0  0
   -1.9975    0.9573   -0.2634 C   0  0  0  0  0  0  0  0  0  0  0  0
    1.8899    1.7847   -0.0895 H   0  0  0  0  0  0  0  0  0  0  0  0
   -1.0700    4.2963   -0.2023 H   0  0  0  0  0  0  0  0  0  0  0  0
   -3.3029    4.5949   -1.2189 H   0  0  0  0  0  0  0  0  0  0  0  0
   -4.6915    2.6093   -1.6887 H   0  0  0  0  0  0  0  0  0  0  0  0
   -5.4694   -2.1618   -1.8481 H   0  0  0  0  0  0  0  0  0  0  0  0
   -4.7694   -4.4994   -1.4377 H   0  0  0  0  0  0  0  0  0  0  0  0
   -2.5901   -4.9409   -0.3328 H   0  0  0  0  0  0  0  0  0  0  0  0
   -1.1557   -3.1262    0.3433 H   0  0  0  0  0  0  0  0  0  0  0  0
   -0.5877    0.1735    1.8049 H   0  0  0  0  0  0  0  0  0  0  0  0
   -0.8913   -1.5042    1.7370 H   0  0  0  0  0  0  0  0  0  0  0  0
    0.8551   -0.4541   -0.4972 H   0  0  0  0  0  0  0  0  0  0  0  0
    1.1104   -2.7873    1.0840 H   0  0  0  0  0  0  0  0  0  0  0  0
    2.4387   -1.2761    1.9103 H   0  0  0  0  0  0  0  0  0  0  0  0
    1.5518    0.2070    2.1994 H   0  0  0  0  0  0  0  0  0  0  0  0
    3.6290    1.7354    2.1703 H   0  0  0  0  0  0  0  0  0  0  0  0
    4.3751    0.1201    2.2595 H   0  0  0  0  0  0  0  0  0  0  0  0
    6.0900    1.2207    1.0749 H   0  0  0  0  0  0  0  0  0  0  0  0
    4.9688    2.3675    0.3235 H   0  0  0  0  0  0  0  0  0  0  0  0
    5.8298   -0.1981   -0.7636 H   0  0  0  0  0  0  0  0  0  0  0  0
    4.7783    1.0261   -1.4932 H   0  0  0  0  0  0  0  0  0  0  0  0
    4.0392   -1.4026    0.1310 H   0  0  0  0  0  0  0  0  0  0  0  0
    3.1461   -0.6449   -1.2101 H   0  0  0  0  0  0  0  0  0  0  0  0
  1  2  2  0
  2  3  1  0
  2  4  1  0
  4  5  2  0
  5  6  1  0
  6  7  2  0
  7  8  1  0
  8  9  1  0
  9 10  2  0
  9 11  1  0
 11 12  2  0
 12 13  1  0
 13 14  2  0
 14 15  1  0
 15 16  2  0
 16 17  1  0
 17 18  1  0
 18 19  1  0
 19 20  1  0
 19 21  1  0
 21 22  1  0
 22 23  1  0
 23 24  1  0
 24 25  1  0
 25 26  1  0
 17 27  1  0
 27  4  1  0
 27  8  2  0
 16 11  1  0
 26 22  1  0
  3 28  1  0
  5 29  1  0
  6 30  1  0
  7 31  1  0
 12 32  1  0
 13 33  1  0
 14 34  1  0
 15 35  1  0
 18 36  1  0
 18 37  1  0
 19 38  1  0
 20 39  1  0
 21 40  1  0
 21 41  1  0
 23 42  1  0
 23 43  1  0
 24 44  1  0
 24 45  1  0
 25 46  1  0
 25 47  1  0
 26 48  1  0
 26 49  1  0
M  END
$$$$
