
     RDKit          3D

 60 63  0  0  0  0  0  0  0  0999 V2000
   -6.8464   -0.2724   -2.7607 C   0  0  0  0  0  0  0  0  0  0  0  0
   -6.9207   -0.5198   -1.3545 O   0  0  0  0  0  0  0  0  0  0  0  0
   -5.7854   -0.0643   -0.7384 C   0  0  0  0  0  0  0  0  0  0  0  0
   -4.6446   -0.8722   -0.7606 C   0  0  0  0  0  0  0  0  0  0  0  0
   -3.4606   -0.4156   -0.1833 C   0  0  0  0  0  0  0  0  0  0  0  0
   -3.4361    0.8418    0.4304 C   0  0  0  0  0  0  0  0  0  0  0  0
   -1.9113    1.4222    1.1322 S   0  0  0  0  0  6  0  0  0  0  0  0
   -2.1592    2.6878    1.7897 O   0  0  0  0  0  0  0  0  0  0  0  0
   -0.9133    1.2938    0.0930 O   0  0  0  0  0  0  0  0  0  0  0  0
   -1.6100    0.2834    2.3416 N   0  0  0  0  0  0  0  0  0  0  0  0
   -2.5957    0.2366    3.4439 C   0  0  0  0  0  0  0  0  0  0  0  0
   -1.8707    0.9129    4.5785 C   0  0  0  0  0  0  0  0  0  0  0  0
   -0.5197    0.4799    4.4369 O   0  0  0  0  0  0  0  0  0  0  0  0
   -0.2801    0.2675    3.0287 C   0  0  0  0  0  0  0  0  0  0  0  0
    0.8162    1.2473    2.5558 C   0  0  0  0  0  0  0  0  0  0  0  0
    1.4181    0.9017    1.2800 N   0  0  0  0  0  0  0  0  0  0  0  0
    2.2349   -0.1967    1.1446 C   0  0  0  0  0  0  0  0  0  0  0  0
    2.6492   -0.8889    2.0674 O   0  0  0  0  0  0  0  0  0  0  0  0
    2.5768   -0.5682   -0.3178 C   0  0  0  0  0  0  0  0  0  0  0  0
    2.2179    0.1415   -1.2451 O   0  0  0  0  0  0  0  0  0  0  0  0
    3.2893   -1.7403   -0.4242 N   0  0  0  0  0  0  0  0  0  0  0  0
    3.8291   -2.1995   -1.6766 C   0  0  0  0  0  0  0  0  0  0  0  0
    5.2763   -1.8053   -1.8162 C   0  0  0  0  0  0  0  0  0  0  0  0
    6.3013   -2.7059   -1.4448 C   0  0  0  0  0  0  0  0  0  0  0  0
    7.6483   -2.3456   -1.5513 C   0  0  0  0  0  0  0  0  0  0  0  0
    7.9390   -1.0844   -2.0250 C   0  0  0  0  0  0  0  0  0  0  0  0
    6.9504   -0.1981   -2.3795 C   0  0  0  0  0  0  0  0  0  0  0  0
    5.6143   -0.5241   -2.2840 C   0  0  0  0  0  0  0  0  0  0  0  0
    7.4501    0.9872   -2.8208 O   0  0  0  0  0  0  0  0  0  0  0  0
    8.8664    0.7464   -2.7015 C   0  0  0  0  0  0  0  0  0  0  0  0
    9.1848   -0.5669   -2.1956 O   0  0  0  0  0  0  0  0  0  0  0  0
   -4.5759    1.6480    0.4665 C   0  0  0  0  0  0  0  0  0  0  0  0
   -5.7649    1.1805   -0.0946 C   0  0  0  0  0  0  0  0  0  0  0  0
   -6.8282    2.0433   -0.0453 O   0  0  0  0  0  0  0  0  0  0  0  0
   -7.9984    1.4542    0.5216 C   0  0  0  0  0  0  0  0  0  0  0  0
   -6.4312    0.7160   -2.9912 H   0  0  0  0  0  0  0  0  0  0  0  0
   -7.8635   -0.3136   -3.1618 H   0  0  0  0  0  0  0  0  0  0  0  0
   -6.2536   -1.0560   -3.2474 H   0  0  0  0  0  0  0  0  0  0  0  0
   -4.6689   -1.8393   -1.2600 H   0  0  0  0  0  0  0  0  0  0  0  0
   -2.5577   -1.0238   -0.2347 H   0  0  0  0  0  0  0  0  0  0  0  0
   -3.5548    0.7127    3.2261 H   0  0  0  0  0  0  0  0  0  0  0  0
   -2.7880   -0.8189    3.6719 H   0  0  0  0  0  0  0  0  0  0  0  0
   -2.2552    0.6238    5.5604 H   0  0  0  0  0  0  0  0  0  0  0  0
   -1.9009    2.0051    4.4933 H   0  0  0  0  0  0  0  0  0  0  0  0
    0.1019   -0.7576    2.9426 H   0  0  0  0  0  0  0  0  0  0  0  0
    1.6198    1.2607    3.3025 H   0  0  0  0  0  0  0  0  0  0  0  0
    0.4447    2.2748    2.4940 H   0  0  0  0  0  0  0  0  0  0  0  0
    0.9497    1.2164    0.4258 H   0  0  0  0  0  0  0  0  0  0  0  0
    3.6138   -2.1490    0.4470 H   0  0  0  0  0  0  0  0  0  0  0  0
    3.2462   -1.8029   -2.5170 H   0  0  0  0  0  0  0  0  0  0  0  0
    3.7283   -3.2915   -1.6972 H   0  0  0  0  0  0  0  0  0  0  0  0
    6.0485   -3.6966   -1.0723 H   0  0  0  0  0  0  0  0  0  0  0  0
    8.4385   -3.0338   -1.2754 H   0  0  0  0  0  0  0  0  0  0  0  0
    4.8498    0.1958   -2.5623 H   0  0  0  0  0  0  0  0  0  0  0  0
    9.3266    0.8562   -3.6915 H   0  0  0  0  0  0  0  0  0  0  0  0
    9.2954    1.4966   -2.0274 H   0  0  0  0  0  0  0  0  0  0  0  0
   -4.5511    2.6326    0.9281 H   0  0  0  0  0  0  0  0  0  0  0  0
   -8.5634    0.8964   -0.2314 H   0  0  0  0  0  0  0  0  0  0  0  0
   -8.6432    2.2678    0.8652 H   0  0  0  0  0  0  0  0  0  0  0  0
   -7.7730    0.8203    1.3859 H   0  0  0  0  0  0  0  0  0  0  0  0
  1  2  1  0
  2  3  1  0
  3  4  2  0
  4  5  1  0
  5  6  2  0
  6  7  1  0
  7  8  2  0
  7  9  2  0
  7 10  1  0
 10 11  1  0
 11 12  1  0
 12 13  1  0
 13 14  1  0
 14 15  1  0
 15 16  1  0
 16 17  1  0
 17 18  2  0
 17 19  1  0
 19 20  2  0
 19 21  1  0
 21 22  1  0
 22 23  1  0
 23 24  2  0
 24 25  1  0
 25 26  2  0
 26 27  1  0
 27 28  2  0
 27 29  1  0
 29 30  1  0
 30 31  1  0
  6 32  1  0
 32 33  2  0
 33 34  1  0
 34 35  1  0
 33  3  1  0
 14 10  1  0
 28 23  1  0
 31 26  1  0
  1 36  1  0
  1 37  1  0
  1 38  1  0
  4 39  1  0
  5 40  1  0
 11 41  1  0
 11 42  1  0
 12 43  1  0
 12 44  1  0
 14 45  1  0
 15 46  1  0
 15 47  1  0
 16 48  1  0
 21 49  1  0
 22 50  1  0
 22 51  1  0
 24 52  1  0
 25 53  1  0
 28 54  1  0
 30 55  1  0
 30 56  1  0
 32 57  1  0
 35 58  1  0
 35 59  1  0
 35 60  1  0
M  END
$$$$
