
     RDKit          3D

 51 54  0  0  0  0  0  0  0  0999 V2000
   -7.0903    2.1742    0.6463 C   0  0  0  0  0  0  0  0  0  0  0  0
   -6.3107    1.0470    1.3000 C   0  0  0  0  0  0  0  0  0  0  0  0
   -5.7349    0.1484    0.2888 N   0  0  0  0  0  0  0  0  0  0  0  0
   -6.6251   -0.8927   -0.2374 C   0  0  0  0  0  0  0  0  0  0  0  0
   -6.8990   -0.6843   -1.7193 C   0  0  0  0  0  0  0  0  0  0  0  0
   -4.3713    0.1723    0.0141 C   0  0  0  0  0  0  0  0  0  0  0  0
   -3.6885   -0.9450   -0.5047 C   0  0  0  0  0  0  0  0  0  0  0  0
   -2.3043   -0.9400   -0.7454 C   0  0  0  0  0  0  0  0  0  0  0  0
   -1.5562    0.1991   -0.4833 C   0  0  0  0  0  0  0  0  0  0  0  0
   -0.1195    0.2521   -0.6754 C   0  0  0  0  0  0  0  0  0  0  0  0
    0.5621    1.3825   -0.4274 C   0  0  0  0  0  0  0  0  0  0  0  0
    1.9781    1.3648   -0.5991 C   0  0  0  0  0  0  0  0  0  0  0  0
    2.7949    0.4422   -0.1182 N   0  0  0  0  0  0  0  0  0  0  0  0
    4.1031    0.6755   -0.5087 C   0  0  0  0  0  0  0  0  0  0  0  0
    5.1846   -0.1903   -0.0585 C   0  0  0  0  0  0  0  0  0  0  0  0
    5.1074   -0.7808    1.2070 C   0  0  0  0  0  0  0  0  0  0  0  0
    6.1370   -1.6042    1.6682 C   0  0  0  0  0  0  0  0  0  0  0  0
    7.2561   -1.8571    0.8733 C   0  0  0  0  0  0  0  0  0  0  0  0
    8.1909   -2.6716    1.4436 O   0  0  0  0  0  0  0  0  0  0  0  0
    9.3811   -2.9070    0.7058 C   0  0  0  0  0  0  0  0  0  0  0  0
    7.3322   -1.2866   -0.3968 C   0  0  0  0  0  0  0  0  0  0  0  0
    6.3037   -0.4553   -0.8587 C   0  0  0  0  0  0  0  0  0  0  0  0
    4.2754    1.7799   -1.3116 C   0  0  0  0  0  0  0  0  0  0  0  0
    2.7668    2.5342   -1.5978 S   0  0  0  0  0  0  0  0  0  0  0  0
   -0.1276    2.6044    0.0647 C   0  0  0  0  0  0  0  0  0  0  0  0
    0.4627    3.6477    0.3233 O   0  0  0  0  0  0  0  0  0  0  0  0
   -1.5084    2.5115    0.2401 O   0  0  0  0  0  0  0  0  0  0  0  0
   -2.2151    1.3209   -0.0123 C   0  0  0  0  0  0  0  0  0  0  0  0
   -3.5915    1.3201    0.2330 C   0  0  0  0  0  0  0  0  0  0  0  0
   -7.4804    2.8546    1.4087 H   0  0  0  0  0  0  0  0  0  0  0  0
   -6.4664    2.7509   -0.0441 H   0  0  0  0  0  0  0  0  0  0  0  0
   -7.9398    1.7900    0.0766 H   0  0  0  0  0  0  0  0  0  0  0  0
   -6.9803    0.4802    1.9546 H   0  0  0  0  0  0  0  0  0  0  0  0
   -5.5516    1.4587    1.9708 H   0  0  0  0  0  0  0  0  0  0  0  0
   -6.2308   -1.8940   -0.0473 H   0  0  0  0  0  0  0  0  0  0  0  0
   -7.5895   -0.8646    0.2854 H   0  0  0  0  0  0  0  0  0  0  0  0
   -7.3177    0.3114   -1.9042 H   0  0  0  0  0  0  0  0  0  0  0  0
   -5.9888   -0.7823   -2.3194 H   0  0  0  0  0  0  0  0  0  0  0  0
   -7.6193   -1.4263   -2.0773 H   0  0  0  0  0  0  0  0  0  0  0  0
   -4.2159   -1.8708   -0.7144 H   0  0  0  0  0  0  0  0  0  0  0  0
   -1.8318   -1.8446   -1.1267 H   0  0  0  0  0  0  0  0  0  0  0  0
    0.3844   -0.6488   -1.0066 H   0  0  0  0  0  0  0  0  0  0  0  0
    4.2469   -0.5974    1.8476 H   0  0  0  0  0  0  0  0  0  0  0  0
    6.0656   -2.0451    2.6584 H   0  0  0  0  0  0  0  0  0  0  0  0
    9.1669   -3.4472   -0.2235 H   0  0  0  0  0  0  0  0  0  0  0  0
   10.0353   -3.5400    1.3166 H   0  0  0  0  0  0  0  0  0  0  0  0
    9.9131   -1.9720    0.5052 H   0  0  0  0  0  0  0  0  0  0  0  0
    8.1752   -1.4681   -1.0555 H   0  0  0  0  0  0  0  0  0  0  0  0
    6.3872   -0.0336   -1.8586 H   0  0  0  0  0  0  0  0  0  0  0  0
    5.1857    2.1827   -1.7323 H   0  0  0  0  0  0  0  0  0  0  0  0
   -4.0420    2.2445    0.5873 H   0  0  0  0  0  0  0  0  0  0  0  0
  1  2  1  0
  2  3  1  0
  3  4  1  0
  4  5  1  0
  3  6  1  0
  6  7  2  0
  7  8  1  0
  8  9  2  0
  9 10  1  0
 10 11  2  0
 11 12  1  0
 12 13  2  0
 13 14  1  0
 14 15  1  0
 15 16  2  0
 16 17  1  0
 17 18  2  0
 18 19  1  0
 19 20  1  0
 18 21  1  0
 21 22  2  0
 14 23  2  0
 23 24  1  0
 11 25  1  0
 25 26  2  0
 25 27  1  0
 27 28  1  0
 28 29  2  0
 29  6  1  0
 28  9  1  0
 24 12  1  0
 22 15  1  0
  1 30  1  0
  1 31  1  0
  1 32  1  0
  2 33  1  0
  2 34  1  0
  4 35  1  0
  4 36  1  0
  5 37  1  0
  5 38  1  0
  5 39  1  0
  7 40  1  0
  8 41  1  0
 10 42  1  0
 16 43  1  0
 17 44  1  0
 20 45  1  0
 20 46  1  0
 20 47  1  0
 21 48  1  0
 22 49  1  0
 23 50  1  0
 29 51  1  0
M  END
$$$$
