
     RDKit          3D

 50 51  0  0  0  0  0  0  0  0999 V2000
   -4.7666   -4.2982   -0.3266 C   0  0  0  0  0  0  0  0  0  0  0  0
   -4.9966   -3.0510    0.3136 O   0  0  0  0  0  0  0  0  0  0  0  0
   -3.9445   -2.1732    0.3937 C   0  0  0  0  0  0  0  0  0  0  0  0
   -2.6617   -2.4300   -0.1003 C   0  0  0  0  0  0  0  0  0  0  0  0
   -1.6498   -1.4760    0.0302 C   0  0  0  0  0  0  0  0  0  0  0  0
   -1.9097   -0.2656    0.6677 C   0  0  0  0  0  0  0  0  0  0  0  0
   -0.9147    0.7635    0.8031 N   0  0  0  0  0  0  0  0  0  0  0  0
   -0.6130    1.5344   -0.4337 C   0  0  0  0  0  0  0  0  0  0  0  0
    0.4562    0.9371   -1.3419 C   0  0  0  0  0  0  0  0  0  0  0  0
    0.1400    0.1827   -2.2586 O   0  0  0  0  0  0  0  0  0  0  0  0
    1.7435    1.3420   -1.0162 N   0  0  0  0  0  0  0  0  0  0  0  0
    2.9557    1.0143   -1.6744 C   0  0  0  0  0  0  0  0  0  0  0  0
    2.9666    0.3118   -2.8913 C   0  0  0  0  0  0  0  0  0  0  0  0
    4.1608   -0.0376   -3.5278 C   0  0  0  0  0  0  0  0  0  0  0  0
    5.3748    0.3003   -2.9509 C   0  0  0  0  0  0  0  0  0  0  0  0
    5.3758    1.0060   -1.7424 C   0  0  0  0  0  0  0  0  0  0  0  0
    6.6804    1.2961   -1.1664 N   0  0  0  0  0  4  0  0  0  0  0  0
    6.9211    0.8362   -0.0422 O   0  0  0  0  0  0  0  0  0  0  0  0
    7.4614    1.9685   -1.8533 O   0  0  0  0  0  1  0  0  0  0  0  0
    4.1857    1.4107   -1.0940 C   0  0  0  0  0  0  0  0  0  0  0  0
    4.2310    2.2074    0.1873 C   0  0  0  0  0  0  0  0  0  0  0  0
    0.4148    0.4305    1.8050 S   0  0  0  0  0  6  0  0  0  0  0  0
   -0.3403    0.3621    3.4174 C   0  0  0  0  0  0  0  0  0  0  0  0
    0.9654   -0.8651    1.4802 O   0  0  0  0  0  0  0  0  0  0  0  0
    1.2609    1.6108    1.7599 O   0  0  0  0  0  0  0  0  0  0  0  0
   -3.1939    0.0113    1.1439 C   0  0  0  0  0  0  0  0  0  0  0  0
   -4.2146   -0.9377    1.0175 C   0  0  0  0  0  0  0  0  0  0  0  0
   -5.4989   -0.7588    1.4693 O   0  0  0  0  0  0  0  0  0  0  0  0
   -5.8360    0.5016    2.0298 C   0  0  0  0  0  0  0  0  0  0  0  0
   -5.7036   -4.8630   -0.3047 H   0  0  0  0  0  0  0  0  0  0  0  0
   -4.4877   -4.1583   -1.3761 H   0  0  0  0  0  0  0  0  0  0  0  0
   -4.0131   -4.8843    0.2097 H   0  0  0  0  0  0  0  0  0  0  0  0
   -2.4130   -3.3617   -0.5979 H   0  0  0  0  0  0  0  0  0  0  0  0
   -0.6642   -1.6968   -0.3747 H   0  0  0  0  0  0  0  0  0  0  0  0
   -1.5259    1.6562   -1.0315 H   0  0  0  0  0  0  0  0  0  0  0  0
   -0.3259    2.5553   -0.1523 H   0  0  0  0  0  0  0  0  0  0  0  0
    1.8328    1.8068   -0.1136 H   0  0  0  0  0  0  0  0  0  0  0  0
    2.0460    0.0127   -3.3842 H   0  0  0  0  0  0  0  0  0  0  0  0
    4.1315   -0.5850   -4.4672 H   0  0  0  0  0  0  0  0  0  0  0  0
    6.3048    0.0124   -3.4362 H   0  0  0  0  0  0  0  0  0  0  0  0
    5.1769    2.7413    0.3166 H   0  0  0  0  0  0  0  0  0  0  0  0
    3.4673    2.9919    0.1902 H   0  0  0  0  0  0  0  0  0  0  0  0
    4.0818    1.5456    1.0457 H   0  0  0  0  0  0  0  0  0  0  0  0
   -0.8755    1.2962    3.5976 H   0  0  0  0  0  0  0  0  0  0  0  0
    0.4576    0.2458    4.1543 H   0  0  0  0  0  0  0  0  0  0  0  0
   -1.0124   -0.4959    3.4666 H   0  0  0  0  0  0  0  0  0  0  0  0
   -3.3724    0.9722    1.6128 H   0  0  0  0  0  0  0  0  0  0  0  0
   -5.6953    1.3087    1.3033 H   0  0  0  0  0  0  0  0  0  0  0  0
   -6.8969    0.4763    2.2970 H   0  0  0  0  0  0  0  0  0  0  0  0
   -5.2670    0.6896    2.9461 H   0  0  0  0  0  0  0  0  0  0  0  0
  1  2  1  0
  2  3  1  0
  3  4  2  0
  4  5  1  0
  5  6  2  0
  6  7  1  0
  7  8  1  0
  8  9  1  0
  9 10  2  0
  9 11  1  0
 11 12  1  0
 12 13  2  0
 13 14  1  0
 14 15  2  0
 15 16  1  0
 16 17  1  0
 17 18  2  0
 17 19  1  0
 16 20  2  0
 20 21  1  0
  7 22  1  0
 22 23  1  0
 22 24  2  0
 22 25  2  0
  6 26  1  0
 26 27  2  0
 27 28  1  0
 28 29  1  0
 27  3  1  0
 20 12  1  0
  1 30  1  0
  1 31  1  0
  1 32  1  0
  4 33  1  0
  5 34  1  0
  8 35  1  0
  8 36  1  0
 11 37  1  0
 13 38  1  0
 14 39  1  0
 15 40  1  0
 21 41  1  0
 21 42  1  0
 21 43  1  0
 23 44  1  0
 23 45  1  0
 23 46  1  0
 26 47  1  0
 29 48  1  0
 29 49  1  0
 29 50  1  0
M  CHG  2  17   1  19  -1
M  END
$$$$
