
     RDKit          3D

 24 24  0  0  0  0  0  0  0  0999 V2000
   -3.8790    0.3353   -1.1337 C   0  0  0  0  0  0  0  0  0  0  0  0
   -2.6531   -0.0007   -0.4370 N   0  0  0  0  0  0  0  0  0  0  0  0
   -2.4584   -1.1037    0.3441 C   0  0  0  0  0  0  0  0  0  0  0  0
   -3.5933   -2.2976    0.6368 S   0  0  0  0  0  0  0  0  0  0  0  0
   -1.2532   -1.2102    0.9791 N   0  0  0  0  0  0  0  0  0  0  0  0
   -0.0036   -0.6053    0.7339 C   0  0  0  0  0  0  0  0  0  0  0  0
    0.9643   -0.7138    1.7384 C   0  0  0  0  0  0  0  0  0  0  0  0
    2.2344   -0.1530    1.5717 C   0  0  0  0  0  0  0  0  0  0  0  0
    2.5616    0.5190    0.3909 C   0  0  0  0  0  0  0  0  0  0  0  0
    3.9347    1.0889    0.1936 C   0  0  0  0  0  0  0  0  0  0  0  0
    1.6104    0.5877   -0.6316 C   0  0  0  0  0  0  0  0  0  0  0  0
    0.3387    0.0278   -0.4619 C   0  0  0  0  0  0  0  0  0  0  0  0
   -4.2169   -0.5122   -1.7354 H   0  0  0  0  0  0  0  0  0  0  0  0
   -3.6782    1.1891   -1.7853 H   0  0  0  0  0  0  0  0  0  0  0  0
   -4.6453    0.6040   -0.4016 H   0  0  0  0  0  0  0  0  0  0  0  0
   -2.0761    0.7880   -0.1745 H   0  0  0  0  0  0  0  0  0  0  0  0
   -1.2642   -1.9067    1.7171 H   0  0  0  0  0  0  0  0  0  0  0  0
    0.7394   -1.2235    2.6720 H   0  0  0  0  0  0  0  0  0  0  0  0
    2.9658   -0.2470    2.3715 H   0  0  0  0  0  0  0  0  0  0  0  0
    4.5935    0.3345   -0.2473 H   0  0  0  0  0  0  0  0  0  0  0  0
    3.9037    1.9619   -0.4669 H   0  0  0  0  0  0  0  0  0  0  0  0
    4.3613    1.4184    1.1469 H   0  0  0  0  0  0  0  0  0  0  0  0
    1.8565    1.0645   -1.5781 H   0  0  0  0  0  0  0  0  0  0  0  0
   -0.3430    0.0548   -1.3062 H   0  0  0  0  0  0  0  0  0  0  0  0
  1  2  1  0
  2  3  1  0
  3  4  2  0
  3  5  1  0
  5  6  1  0
  6  7  2  0
  7  8  1  0
  8  9  2  0
  9 10  1  0
  9 11  1  0
 11 12  2  0
 12  6  1  0
  1 13  1  0
  1 14  1  0
  1 15  1  0
  2 16  1  0
  5 17  1  0
  7 18  1  0
  8 19  1  0
 10 20  1  0
 10 21  1  0
 10 22  1  0
 11 23  1  0
 12 24  1  0
M  END
$$$$
