
     RDKit          3D

 33 34  0  0  0  0  0  0  0  0999 V2000
   -5.8920   -0.2998   -1.0482 C   0  0  0  0  0  0  0  0  0  0  0  0
   -5.2491    0.5939   -0.0018 C   0  0  0  0  0  0  0  0  0  0  0  0
   -4.1545   -0.0696    0.6285 O   0  0  0  0  0  0  0  0  0  0  0  0
   -2.9077    0.0469    0.0831 C   0  0  0  0  0  0  0  0  0  0  0  0
   -1.8902   -0.5444    0.8386 C   0  0  0  0  0  0  0  0  0  0  0  0
   -0.5605   -0.5092    0.4072 C   0  0  0  0  0  0  0  0  0  0  0  0
   -0.2358    0.1293   -0.7937 C   0  0  0  0  0  0  0  0  0  0  0  0
    1.1619    0.1967   -1.3054 C   0  0  0  0  0  0  0  0  0  0  0  0
    1.3771    0.3563   -2.5017 O   0  0  0  0  0  0  0  0  0  0  0  0
    2.1635    0.1061   -0.3659 N   0  0  0  0  0  0  0  0  0  0  0  0
    3.5391    0.3227   -0.7487 C   0  0  0  0  0  0  0  0  0  0  0  0
    4.4115   -0.0807    0.3797 C   0  0  0  0  0  0  0  0  0  0  0  0
    5.3882   -1.0439    0.5261 C   0  0  0  0  0  0  0  0  0  0  0  0
    5.8591   -0.9373    1.8569 C   0  0  0  0  0  0  0  0  0  0  0  0
    5.1404    0.0804    2.4382 C   0  0  0  0  0  0  0  0  0  0  0  0
    4.2563    0.6056    1.5515 O   0  0  0  0  0  0  0  0  0  0  0  0
   -1.2556    0.7040   -1.5616 C   0  0  0  0  0  0  0  0  0  0  0  0
   -2.5851    0.6656   -1.1238 C   0  0  0  0  0  0  0  0  0  0  0  0
   -5.1948   -0.5348   -1.8577 H   0  0  0  0  0  0  0  0  0  0  0  0
   -6.1940   -1.2539   -0.6034 H   0  0  0  0  0  0  0  0  0  0  0  0
   -6.7747    0.1822   -1.4782 H   0  0  0  0  0  0  0  0  0  0  0  0
   -5.9866    0.7884    0.7853 H   0  0  0  0  0  0  0  0  0  0  0  0
   -4.9728    1.5757   -0.4016 H   0  0  0  0  0  0  0  0  0  0  0  0
   -2.1389   -1.0452    1.7719 H   0  0  0  0  0  0  0  0  0  0  0  0
    0.1963   -1.0060    1.0069 H   0  0  0  0  0  0  0  0  0  0  0  0
    1.9420    0.2741    0.6066 H   0  0  0  0  0  0  0  0  0  0  0  0
    3.6689    1.3853   -0.9791 H   0  0  0  0  0  0  0  0  0  0  0  0
    3.7611   -0.2557   -1.6517 H   0  0  0  0  0  0  0  0  0  0  0  0
    5.7170   -1.7373   -0.2359 H   0  0  0  0  0  0  0  0  0  0  0  0
    6.6275   -1.5288    2.3346 H   0  0  0  0  0  0  0  0  0  0  0  0
    5.1384    0.5289    3.4219 H   0  0  0  0  0  0  0  0  0  0  0  0
   -1.0178    1.1856   -2.5086 H   0  0  0  0  0  0  0  0  0  0  0  0
   -3.3384    1.1192   -1.7586 H   0  0  0  0  0  0  0  0  0  0  0  0
  1  2  1  0
  2  3  1  0
  3  4  1  0
  4  5  2  0
  5  6  1  0
  6  7  2  0
  7  8  1  0
  8  9  2  0
  8 10  1  0
 10 11  1  0
 11 12  1  0
 12 13  2  0
 13 14  1  0
 14 15  2  0
 15 16  1  0
  7 17  1  0
 17 18  2  0
 18  4  1  0
 16 12  1  0
  1 19  1  0
  1 20  1  0
  1 21  1  0
  2 22  1  0
  2 23  1  0
  5 24  1  0
  6 25  1  0
 10 26  1  0
 11 27  1  0
 11 28  1  0
 13 29  1  0
 14 30  1  0
 15 31  1  0
 17 32  1  0
 18 33  1  0
M  END
$$$$
