
     RDKit          3D

 47 49  0  0  0  0  0  0  0  0999 V2000
    8.0740   -1.0765   -0.3665 C   0  0  0  0  0  0  0  0  0  0  0  0
    6.6829   -1.4150   -0.8822 C   0  0  0  0  0  0  0  0  0  0  0  0
    5.6086   -0.6598   -0.1405 C   0  0  0  0  0  0  0  0  0  0  0  0
    5.0348   -1.1944    1.0207 C   0  0  0  0  0  0  0  0  0  0  0  0
    4.0519   -0.4845    1.7155 C   0  0  0  0  0  0  0  0  0  0  0  0
    3.6246    0.7629    1.2577 C   0  0  0  0  0  0  0  0  0  0  0  0
    2.6279    1.4657    1.9449 N   0  0  0  0  0  0  0  0  0  0  0  0
    1.3994    1.3070    1.5905 C   0  0  0  0  0  0  0  0  0  0  0  0
    0.9175    0.5058    0.6062 N   0  0  0  0  0  0  0  0  0  0  0  0
   -0.4333    0.4763    0.4084 C   0  0  0  0  0  0  0  0  0  0  0  0
   -0.9819   -0.2346   -0.4185 O   0  0  0  0  0  0  0  0  0  0  0  0
   -1.1016    1.4163    1.3549 C   0  0  0  0  0  0  0  0  0  0  0  0
   -2.4082    1.6963    1.4502 C   0  0  0  0  0  0  0  0  0  0  0  0
   -3.4578    1.1126    0.6133 C   0  0  0  0  0  0  0  0  0  0  0  0
   -4.0210   -0.1280    0.9530 C   0  0  0  0  0  0  0  0  0  0  0  0
   -5.0331   -0.6781    0.1633 C   0  0  0  0  0  0  0  0  0  0  0  0
   -5.6815   -1.8662    0.3925 O   0  0  0  0  0  0  0  0  0  0  0  0
   -5.2374   -2.6306    1.5072 C   0  0  0  0  0  0  0  0  0  0  0  0
   -5.4666    0.0189   -0.9756 C   0  0  0  0  0  0  0  0  0  0  0  0
   -6.4872   -0.5096   -1.7248 O   0  0  0  0  0  0  0  0  0  0  0  0
   -4.8886    1.2382   -1.3344 C   0  0  0  0  0  0  0  0  0  0  0  0
   -5.2915    1.9719   -2.4207 O   0  0  0  0  0  0  0  0  0  0  0  0
   -4.9458    1.3224   -3.6422 C   0  0  0  0  0  0  0  0  0  0  0  0
   -3.9029    1.7979   -0.5231 C   0  0  0  0  0  0  0  0  0  0  0  0
    0.0923    2.1526    2.3747 S   0  0  0  0  0  0  0  0  0  0  0  0
    4.2152    1.3111    0.1171 C   0  0  0  0  0  0  0  0  0  0  0  0
    5.1979    0.6048   -0.5807 C   0  0  0  0  0  0  0  0  0  0  0  0
    8.8301   -1.6376   -0.9262 H   0  0  0  0  0  0  0  0  0  0  0  0
    8.1779   -1.3310    0.6969 H   0  0  0  0  0  0  0  0  0  0  0  0
    8.2917   -0.0072   -0.4801 H   0  0  0  0  0  0  0  0  0  0  0  0
    6.5066   -2.4944   -0.7894 H   0  0  0  0  0  0  0  0  0  0  0  0
    6.6173   -1.1875   -1.9547 H   0  0  0  0  0  0  0  0  0  0  0  0
    5.3555   -2.1642    1.3961 H   0  0  0  0  0  0  0  0  0  0  0  0
    3.6218   -0.9035    2.6224 H   0  0  0  0  0  0  0  0  0  0  0  0
    1.5176   -0.0797    0.0474 H   0  0  0  0  0  0  0  0  0  0  0  0
   -2.7666    2.4124    2.1848 H   0  0  0  0  0  0  0  0  0  0  0  0
   -3.6546   -0.6404    1.8351 H   0  0  0  0  0  0  0  0  0  0  0  0
   -5.3828   -2.0823    2.4434 H   0  0  0  0  0  0  0  0  0  0  0  0
   -4.1915   -2.9413    1.3855 H   0  0  0  0  0  0  0  0  0  0  0  0
   -5.8550   -3.5357    1.5545 H   0  0  0  0  0  0  0  0  0  0  0  0
   -6.7585   -1.3171   -1.2473 H   0  0  0  0  0  0  0  0  0  0  0  0
   -5.2104    1.9894   -4.4661 H   0  0  0  0  0  0  0  0  0  0  0  0
   -3.8678    1.1359   -3.6935 H   0  0  0  0  0  0  0  0  0  0  0  0
   -5.4952    0.3896   -3.7888 H   0  0  0  0  0  0  0  0  0  0  0  0
   -3.4836    2.7625   -0.7909 H   0  0  0  0  0  0  0  0  0  0  0  0
    3.9123    2.2970   -0.2268 H   0  0  0  0  0  0  0  0  0  0  0  0
    5.6463    1.0519   -1.4652 H   0  0  0  0  0  0  0  0  0  0  0  0
  1  2  1  0
  2  3  1  0
  3  4  2  0
  4  5  1  0
  5  6  2  0
  6  7  1  0
  7  8  2  3
  8  9  1  0
  9 10  1  0
 10 11  2  0
 10 12  1  0
 12 13  2  3
 13 14  1  0
 14 15  2  0
 15 16  1  0
 16 17  1  0
 17 18  1  0
 16 19  2  0
 19 20  1  0
 19 21  1  0
 21 22  1  0
 22 23  1  0
 21 24  2  0
 12 25  1  0
  6 26  1  0
 26 27  2  0
 27  3  1  0
 25  8  1  0
 24 14  1  0
  1 28  1  0
  1 29  1  0
  1 30  1  0
  2 31  1  0
  2 32  1  0
  4 33  1  0
  5 34  1  0
  9 35  1  0
 13 36  1  0
 15 37  1  0
 18 38  1  0
 18 39  1  0
 18 40  1  0
 20 41  1  0
 23 42  1  0
 23 43  1  0
 23 44  1  0
 24 45  1  0
 26 46  1  0
 27 47  1  0
M  END
$$$$
