
     RDKit          3D

 40 42  0  0  0  0  0  0  0  0999 V2000
   -5.9618    1.6172   -0.6446 C   0  0  0  0  0  0  0  0  0  0  0  0
   -6.2780    0.7320    0.8698 S   0  0  0  0  0  6  0  0  0  0  0  0
   -7.7098    0.5443    0.9694 O   0  0  0  0  0  0  0  0  0  0  0  0
   -5.5260    1.3581    1.9343 O   0  0  0  0  0  0  0  0  0  0  0  0
   -5.6407   -0.7904    0.5344 N   0  0  0  0  0  0  0  0  0  0  0  0
   -4.2510   -0.9343    0.2705 C   0  0  0  0  0  0  0  0  0  0  0  0
   -3.2961   -0.6129    1.2354 C   0  0  0  0  0  0  0  0  0  0  0  0
   -1.9332   -0.7506    0.9529 C   0  0  0  0  0  0  0  0  0  0  0  0
   -1.5222   -1.2043   -0.3066 C   0  0  0  0  0  0  0  0  0  0  0  0
   -0.0817   -1.3704   -0.6584 C   0  0  0  0  0  0  0  0  0  0  0  0
    0.2192   -2.2636   -1.4409 O   0  0  0  0  0  0  0  0  0  0  0  0
    0.7733   -0.4496   -0.0806 N   0  0  0  0  0  0  0  0  0  0  0  0
    2.1784   -0.3911   -0.2041 C   0  0  0  0  0  0  0  0  0  0  0  0
    2.9427   -1.3394   -0.8892 C   0  0  0  0  0  0  0  0  0  0  0  0
    4.3357   -1.2177   -0.9557 C   0  0  0  0  0  0  0  0  0  0  0  0
    4.9730   -0.1498   -0.3328 C   0  0  0  0  0  0  0  0  0  0  0  0
    4.2160    0.8153    0.3336 C   0  0  0  0  0  0  0  0  0  0  0  0
    2.8284    0.6871    0.4115 C   0  0  0  0  0  0  0  0  0  0  0  0
    4.7674    1.9135    0.9443 O   0  0  0  0  0  0  0  0  0  0  0  0
    6.1194    2.1219    0.5181 C   0  0  0  0  0  0  0  0  0  0  0  0
    6.8936    0.8140    0.5268 C   0  0  0  0  0  0  0  0  0  0  0  0
    6.3401   -0.1068   -0.4199 O   0  0  0  0  0  0  0  0  0  0  0  0
   -2.4862   -1.5499   -1.2633 C   0  0  0  0  0  0  0  0  0  0  0  0
   -3.8473   -1.4137   -0.9760 C   0  0  0  0  0  0  0  0  0  0  0  0
   -4.8853    1.7344   -0.7783 H   0  0  0  0  0  0  0  0  0  0  0  0
   -6.4072    1.0681   -1.4762 H   0  0  0  0  0  0  0  0  0  0  0  0
   -6.4296    2.6006   -0.5595 H   0  0  0  0  0  0  0  0  0  0  0  0
   -6.2864   -1.3767    0.0057 H   0  0  0  0  0  0  0  0  0  0  0  0
   -3.6025   -0.2762    2.2240 H   0  0  0  0  0  0  0  0  0  0  0  0
   -1.2150   -0.5327    1.7389 H   0  0  0  0  0  0  0  0  0  0  0  0
    0.3534    0.3086    0.4408 H   0  0  0  0  0  0  0  0  0  0  0  0
    2.4873   -2.1949   -1.3784 H   0  0  0  0  0  0  0  0  0  0  0  0
    4.9186   -1.9666   -1.4849 H   0  0  0  0  0  0  0  0  0  0  0  0
    2.2676    1.4466    0.9485 H   0  0  0  0  0  0  0  0  0  0  0  0
    6.5776    2.8376    1.2078 H   0  0  0  0  0  0  0  0  0  0  0  0
    6.1037    2.5728   -0.4820 H   0  0  0  0  0  0  0  0  0  0  0  0
    7.9371    0.9899    0.2475 H   0  0  0  0  0  0  0  0  0  0  0  0
    6.8793    0.3454    1.5187 H   0  0  0  0  0  0  0  0  0  0  0  0
   -2.1758   -1.9289   -2.2360 H   0  0  0  0  0  0  0  0  0  0  0  0
   -4.5761   -1.6871   -1.7341 H   0  0  0  0  0  0  0  0  0  0  0  0
  1  2  1  0
  2  3  2  0
  2  4  2  0
  2  5  1  0
  5  6  1  0
  6  7  2  0
  7  8  1  0
  8  9  2  0
  9 10  1  0
 10 11  2  0
 10 12  1  0
 12 13  1  0
 13 14  2  0
 14 15  1  0
 15 16  2  0
 16 17  1  0
 17 18  2  0
 17 19  1  0
 19 20  1  0
 20 21  1  0
 21 22  1  0
  9 23  1  0
 23 24  2  0
 24  6  1  0
 18 13  1  0
 22 16  1  0
  1 25  1  0
  1 26  1  0
  1 27  1  0
  5 28  1  0
  7 29  1  0
  8 30  1  0
 12 31  1  0
 14 32  1  0
 15 33  1  0
 18 34  1  0
 20 35  1  0
 20 36  1  0
 21 37  1  0
 21 38  1  0
 23 39  1  0
 24 40  1  0
M  END
$$$$
