
     RDKit          3D

 50 53  0  0  0  0  0  0  0  0999 V2000
    7.6420    3.0042    0.8591 C   0  0  0  0  0  0  0  0  0  0  0  0
    7.5101    1.6608    0.4124 O   0  0  0  0  0  0  0  0  0  0  0  0
    6.2405    1.1646    0.3121 C   0  0  0  0  0  0  0  0  0  0  0  0
    6.1592   -0.1500   -0.1423 C   0  0  0  0  0  0  0  0  0  0  0  0
    4.9177   -0.7786   -0.2911 C   0  0  0  0  0  0  0  0  0  0  0  0
    3.7158   -0.1122    0.0056 C   0  0  0  0  0  0  0  0  0  0  0  0
    2.4133   -0.7937   -0.1627 C   0  0  0  0  0  0  0  0  0  0  0  0
    1.2349   -0.1233   -0.4386 C   0  0  0  0  0  0  0  0  0  0  0  0
    0.0589   -0.8646   -0.5637 C   0  0  0  0  0  0  0  0  0  0  0  0
   -1.1805   -0.0877   -0.7920 C   0  0  0  0  0  0  0  0  0  0  0  0
   -1.2322    0.6315   -1.7799 O   0  0  0  0  0  0  0  0  0  0  0  0
   -2.1278   -0.2441    0.2013 N   0  0  0  0  0  0  0  0  0  0  0  0
   -3.4004    0.3601    0.2759 C   0  0  0  0  0  0  0  0  0  0  0  0
   -4.1938    0.0397    1.3796 C   0  0  0  0  0  0  0  0  0  0  0  0
   -5.4573    0.6135    1.5338 C   0  0  0  0  0  0  0  0  0  0  0  0
   -5.9593    1.5086    0.5782 C   0  0  0  0  0  0  0  0  0  0  0  0
   -7.3072    2.1373    0.7997 C   0  0  0  0  0  0  0  0  0  0  0  0
   -5.1944    1.7899   -0.5666 C   0  0  0  0  0  0  0  0  0  0  0  0
   -5.6008    2.7630   -1.4958 N   0  0  0  0  0  0  0  0  0  0  0  0
   -3.9014    1.2500   -0.6763 C   0  0  0  0  0  0  0  0  0  0  0  0
    0.0632   -2.2717   -0.4664 C   0  0  0  0  0  0  0  0  0  0  0  0
   -1.0680   -3.1085   -0.6524 C   0  0  0  0  0  0  0  0  0  0  0  0
   -0.9660   -4.4923   -0.5264 C   0  0  0  0  0  0  0  0  0  0  0  0
    0.2625   -5.0601   -0.2226 C   0  0  0  0  0  0  0  0  0  0  0  0
    1.3815   -4.2405   -0.0587 C   0  0  0  0  0  0  0  0  0  0  0  0
    1.3077   -2.8594   -0.1827 C   0  0  0  0  0  0  0  0  0  0  0  0
    2.4347   -2.1442   -0.0276 N   0  0  0  0  0  0  0  0  0  0  0  0
    3.8210    1.2113    0.4710 C   0  0  0  0  0  0  0  0  0  0  0  0
    5.0651    1.8438    0.6213 C   0  0  0  0  0  0  0  0  0  0  0  0
    7.1520    3.6998    0.1697 H   0  0  0  0  0  0  0  0  0  0  0  0
    7.2584    3.1205    1.8781 H   0  0  0  0  0  0  0  0  0  0  0  0
    8.7086    3.2479    0.8753 H   0  0  0  0  0  0  0  0  0  0  0  0
    7.0681   -0.6955   -0.3841 H   0  0  0  0  0  0  0  0  0  0  0  0
    4.8945   -1.8070   -0.6492 H   0  0  0  0  0  0  0  0  0  0  0  0
    1.2087    0.9541   -0.5666 H   0  0  0  0  0  0  0  0  0  0  0  0
   -1.8826   -0.8513    0.9746 H   0  0  0  0  0  0  0  0  0  0  0  0
   -3.8390   -0.6463    2.1439 H   0  0  0  0  0  0  0  0  0  0  0  0
   -6.0440    0.3665    2.4159 H   0  0  0  0  0  0  0  0  0  0  0  0
   -8.0058    1.8190    0.0194 H   0  0  0  0  0  0  0  0  0  0  0  0
   -7.2249    3.2290    0.7943 H   0  0  0  0  0  0  0  0  0  0  0  0
   -7.7337    1.8467    1.7658 H   0  0  0  0  0  0  0  0  0  0  0  0
   -6.6061    2.8458   -1.5967 H   0  0  0  0  0  0  0  0  0  0  0  0
   -5.1315    2.6831   -2.3936 H   0  0  0  0  0  0  0  0  0  0  0  0
   -3.2975    1.5428   -1.5290 H   0  0  0  0  0  0  0  0  0  0  0  0
   -2.0366   -2.6889   -0.9192 H   0  0  0  0  0  0  0  0  0  0  0  0
   -1.8397   -5.1223   -0.6749 H   0  0  0  0  0  0  0  0  0  0  0  0
    0.3606   -6.1382   -0.1241 H   0  0  0  0  0  0  0  0  0  0  0  0
    2.3446   -4.6947    0.1664 H   0  0  0  0  0  0  0  0  0  0  0  0
    2.9321    1.7761    0.7434 H   0  0  0  0  0  0  0  0  0  0  0  0
    5.0748    2.8654    0.9865 H   0  0  0  0  0  0  0  0  0  0  0  0
  1  2  1  0
  2  3  1  0
  3  4  2  0
  4  5  1  0
  5  6  2  0
  6  7  1  0
  7  8  2  0
  8  9  1  0
  9 10  1  0
 10 11  2  0
 10 12  1  0
 12 13  1  0
 13 14  2  0
 14 15  1  0
 15 16  2  0
 16 17  1  0
 16 18  1  0
 18 19  1  0
 18 20  2  0
  9 21  2  0
 21 22  1  0
 22 23  2  0
 23 24  1  0
 24 25  2  0
 25 26  1  0
 26 27  2  0
  6 28  1  0
 28 29  2  0
 29  3  1  0
 27  7  1  0
 20 13  1  0
 26 21  1  0
  1 30  1  0
  1 31  1  0
  1 32  1  0
  4 33  1  0
  5 34  1  0
  8 35  1  0
 12 36  1  0
 14 37  1  0
 15 38  1  0
 17 39  1  0
 17 40  1  0
 17 41  1  0
 19 42  1  0
 19 43  1  0
 20 44  1  0
 22 45  1  0
 23 46  1  0
 24 47  1  0
 25 48  1  0
 28 49  1  0
 29 50  1  0
M  END
$$$$
