
     RDKit          3D

 39 39  0  0  0  0  0  0  0  0999 V2000
   -3.4048    3.7283    1.7057 C   0  0  0  0  0  0  0  0  0  0  0  0
   -2.9266    2.8428    0.5964 C   0  0  0  0  0  0  0  0  0  0  0  0
   -3.3230    2.9028   -0.5585 O   0  0  0  0  0  0  0  0  0  0  0  0
   -1.9930    1.9697    1.0659 O   0  0  0  0  0  0  0  0  0  0  0  0
   -1.4656    1.0821    0.0686 C   0  0  0  0  0  0  0  0  0  0  0  0
   -0.3850    0.2300    0.7278 C   0  0  0  0  0  0  0  0  0  0  0  0
    0.3200   -0.7054   -0.2695 C   0  0  0  0  0  0  0  0  0  0  0  0
    1.4686   -1.3223    0.4358 N   0  0  0  0  0  0  0  0  0  0  0  0
    2.9652   -1.1778   -0.3100 S   0  0  0  0  0  6  0  0  0  0  0  0
    2.8040   -1.5484   -1.6950 O   0  0  0  0  0  0  0  0  0  0  0  0
    3.9066   -1.8586    0.5483 O   0  0  0  0  0  0  0  0  0  0  0  0
    3.2580    0.4149   -0.2459 O   0  0  0  0  0  0  0  0  0  0  0  0
    3.8492    0.9440    0.9390 C   0  0  0  0  0  0  0  0  0  0  0  0
    3.9438    2.4748    0.8856 C   0  0  0  0  0  0  0  0  0  0  0  0
    4.6574    3.0828    2.4131 Cl  0  0  0  0  0  0  0  0  0  0  0  0
    4.9787    2.9998   -0.4768 Cl  0  0  0  0  0  0  0  0  0  0  0  0
    2.3168    3.2023    0.6926 Cl  0  0  0  0  0  0  0  0  0  0  0  0
   -0.5833   -1.7799   -0.8492 C   0  0  0  0  0  0  0  0  0  0  0  0
   -0.5611   -2.0297   -2.2304 C   0  0  0  0  0  0  0  0  0  0  0  0
   -1.3658   -3.0241   -2.7894 C   0  0  0  0  0  0  0  0  0  0  0  0
   -2.1967   -3.7893   -1.9754 C   0  0  0  0  0  0  0  0  0  0  0  0
   -2.2177   -3.5669   -0.6010 C   0  0  0  0  0  0  0  0  0  0  0  0
   -1.4124   -2.5738   -0.0394 C   0  0  0  0  0  0  0  0  0  0  0  0
   -3.8678    3.1235    2.4893 H   0  0  0  0  0  0  0  0  0  0  0  0
   -4.1520    4.4257    1.3162 H   0  0  0  0  0  0  0  0  0  0  0  0
   -2.5672    4.3040    2.1075 H   0  0  0  0  0  0  0  0  0  0  0  0
   -1.0333    1.6691   -0.7503 H   0  0  0  0  0  0  0  0  0  0  0  0
   -2.2772    0.4545   -0.3154 H   0  0  0  0  0  0  0  0  0  0  0  0
    0.3539    0.9001    1.1861 H   0  0  0  0  0  0  0  0  0  0  0  0
   -0.8140   -0.3199    1.5747 H   0  0  0  0  0  0  0  0  0  0  0  0
    0.6837   -0.0667   -1.0851 H   0  0  0  0  0  0  0  0  0  0  0  0
    1.3106   -2.3044    0.6674 H   0  0  0  0  0  0  0  0  0  0  0  0
    4.8514    0.5126    1.0547 H   0  0  0  0  0  0  0  0  0  0  0  0
    3.2460    0.6348    1.8022 H   0  0  0  0  0  0  0  0  0  0  0  0
    0.0940   -1.4575   -2.8862 H   0  0  0  0  0  0  0  0  0  0  0  0
   -1.3381   -3.2047   -3.8613 H   0  0  0  0  0  0  0  0  0  0  0  0
   -2.8219   -4.5639   -2.4121 H   0  0  0  0  0  0  0  0  0  0  0  0
   -2.8601   -4.1711    0.0351 H   0  0  0  0  0  0  0  0  0  0  0  0
   -1.4412   -2.4340    1.0387 H   0  0  0  0  0  0  0  0  0  0  0  0
  1  2  1  0
  2  3  2  0
  2  4  1  0
  4  5  1  0
  5  6  1  0
  6  7  1  0
  7  8  1  0
  8  9  1  0
  9 10  2  0
  9 11  2  0
  9 12  1  0
 12 13  1  0
 13 14  1  0
 14 15  1  0
 14 16  1  0
 14 17  1  0
  7 18  1  0
 18 19  2  0
 19 20  1  0
 20 21  2  0
 21 22  1  0
 22 23  2  0
 23 18  1  0
  1 24  1  0
  1 25  1  0
  1 26  1  0
  5 27  1  0
  5 28  1  0
  6 29  1  0
  6 30  1  0
  7 31  1  0
  8 32  1  0
 13 33  1  0
 13 34  1  0
 19 35  1  0
 20 36  1  0
 21 37  1  0
 22 38  1  0
 23 39  1  0
M  END
$$$$
