
     RDKit          3D

 38 40  0  0  0  0  0  0  0  0999 V2000
   -2.6530    1.7951   -1.1664 C   0  0  0  0  0  0  0  0  0  0  0  0
   -2.1950    0.7898   -0.1484 C   0  0  0  0  0  0  0  0  0  0  0  0
   -1.8908    1.2461    1.1475 C   0  0  0  0  0  0  0  0  0  0  0  0
   -1.4837    0.3570    2.1391 C   0  0  0  0  0  0  0  0  0  0  0  0
   -1.1837    0.8205    3.3602 F   0  0  0  0  0  0  0  0  0  0  0  0
   -1.3808   -1.0016    1.8822 C   0  0  0  0  0  0  0  0  0  0  0  0
   -1.6809   -1.4797    0.6082 C   0  0  0  0  0  0  0  0  0  0  0  0
   -2.0747   -0.5911   -0.4100 C   0  0  0  0  0  0  0  0  0  0  0  0
   -2.3834   -1.2926   -2.0341 S   0  0  0  0  0  6  0  0  0  0  0  0
   -3.5195   -0.6105   -2.6149 O   0  0  0  0  0  0  0  0  0  0  0  0
   -2.3737   -2.7351   -1.9066 O   0  0  0  0  0  0  0  0  0  0  0  0
   -1.0233   -0.8263   -2.9340 N   0  0  0  0  0  0  0  0  0  0  0  0
    0.2605   -0.9765   -2.3368 C   0  0  0  0  0  0  0  0  0  0  0  0
    0.7642   -2.2402   -2.0326 C   0  0  0  0  0  0  0  0  0  0  0  0
    1.9526   -2.3573   -1.3127 C   0  0  0  0  0  0  0  0  0  0  0  0
    2.6207   -1.2108   -0.8897 C   0  0  0  0  0  0  0  0  0  0  0  0
    3.7331   -1.4006   -0.1162 O   0  0  0  0  0  0  0  0  0  0  0  0
    2.1454    0.0646   -1.2228 C   0  0  0  0  0  0  0  0  0  0  0  0
    2.9875    1.5660   -0.7496 S   0  0  0  0  0  0  0  0  0  0  0  0
    2.5949    1.6243    0.9452 C   0  0  0  0  0  0  0  0  0  0  0  0
    1.7347    2.5358    1.4873 N   0  0  0  0  0  0  0  0  0  0  0  0
    1.7131    2.1991    2.7555 C   0  0  0  0  0  0  0  0  0  0  0  0
    2.5296    1.1312    2.9573 N   0  0  0  0  0  0  0  0  0  0  0  0
    3.1170    0.7450    1.8096 N   0  0  0  0  0  0  0  0  0  0  0  0
    0.9604    0.1718   -1.9589 C   0  0  0  0  0  0  0  0  0  0  0  0
   -2.4857    2.8195   -0.8153 H   0  0  0  0  0  0  0  0  0  0  0  0
   -3.7250    1.6835   -1.3540 H   0  0  0  0  0  0  0  0  0  0  0  0
   -2.0972    1.6948   -2.1020 H   0  0  0  0  0  0  0  0  0  0  0  0
   -1.9602    2.3018    1.3992 H   0  0  0  0  0  0  0  0  0  0  0  0
   -1.0666   -1.6801    2.6687 H   0  0  0  0  0  0  0  0  0  0  0  0
   -1.5903   -2.5470    0.4125 H   0  0  0  0  0  0  0  0  0  0  0  0
   -1.2027    0.0188   -3.4736 H   0  0  0  0  0  0  0  0  0  0  0  0
    0.2294   -3.1380   -2.3340 H   0  0  0  0  0  0  0  0  0  0  0  0
    2.3416   -3.3389   -1.0555 H   0  0  0  0  0  0  0  0  0  0  0  0
    3.8527   -0.5909    0.4248 H   0  0  0  0  0  0  0  0  0  0  0  0
    1.1405    2.6677    3.5435 H   0  0  0  0  0  0  0  0  0  0  0  0
    2.7268    0.6299    3.8170 H   0  0  0  0  0  0  0  0  0  0  0  0
    0.5655    1.1549   -2.2014 H   0  0  0  0  0  0  0  0  0  0  0  0
  1  2  1  0
  2  3  2  0
  3  4  1  0
  4  5  1  0
  4  6  2  0
  6  7  1  0
  7  8  2  0
  8  9  1  0
  9 10  2  0
  9 11  2  0
  9 12  1  0
 12 13  1  0
 13 14  2  0
 14 15  1  0
 15 16  2  0
 16 17  1  0
 16 18  1  0
 18 19  1  0
 19 20  1  0
 20 21  1  0
 21 22  2  0
 22 23  1  0
 23 24  1  0
 18 25  2  0
  8  2  1  0
 25 13  1  0
 24 20  2  0
  1 26  1  0
  1 27  1  0
  1 28  1  0
  3 29  1  0
  6 30  1  0
  7 31  1  0
 12 32  1  0
 14 33  1  0
 15 34  1  0
 17 35  1  0
 22 36  1  0
 23 37  1  0
 25 38  1  0
M  END
$$$$
