
     RDKit          3D

 36 37  0  0  0  0  0  0  0  0999 V2000
   -1.6934    1.5145    1.3485 O   0  0  0  0  0  0  0  0  0  0  0  0
   -0.9944    1.4694    0.3412 C   0  0  0  0  0  0  0  0  0  0  0  0
   -0.0115    2.5852   -0.0221 C   0  0  0  0  0  0  0  0  0  0  0  0
    1.3201    2.3301    0.4287 O   0  0  0  0  0  0  0  0  0  0  0  0
    2.0192    1.4374   -0.3093 C   0  0  0  0  0  0  0  0  0  0  0  0
    1.5982    0.8468   -1.2924 O   0  0  0  0  0  0  0  0  0  0  0  0
    3.3908    1.2585    0.2344 C   0  0  0  0  0  0  0  0  0  0  0  0
    4.2815    0.4463   -0.4798 C   0  0  0  0  0  0  0  0  0  0  0  0
    5.5771    0.2509   -0.0034 C   0  0  0  0  0  0  0  0  0  0  0  0
    6.6673   -0.7442   -0.8870 Cl  0  0  0  0  0  0  0  0  0  0  0  0
    5.9983    0.8540    1.1785 C   0  0  0  0  0  0  0  0  0  0  0  0
    5.1095    1.6589    1.8867 C   0  0  0  0  0  0  0  0  0  0  0  0
    5.6219    2.4081    3.3485 Cl  0  0  0  0  0  0  0  0  0  0  0  0
    3.8096    1.8661    1.4252 C   0  0  0  0  0  0  0  0  0  0  0  0
   -1.0331    0.4279   -0.5640 N   0  0  0  0  0  0  0  0  0  0  0  0
   -1.7303   -0.8150   -0.2751 C   0  0  0  0  0  0  0  0  0  0  0  0
   -3.2319   -0.6530    0.0075 C   0  0  0  0  0  0  0  0  0  0  0  0
   -3.9584   -1.8994   -0.1726 N   0  0  0  0  0  0  0  0  0  0  0  0
   -4.5344   -2.3305   -1.3452 C   0  0  0  0  0  0  0  0  0  0  0  0
   -4.5959   -1.5364   -2.4499 O   0  0  0  0  0  0  0  0  0  0  0  0
   -5.0130   -3.5771   -1.3083 C   0  0  0  0  0  0  0  0  0  0  0  0
   -4.7657   -4.3087    0.2436 S   0  0  0  0  0  0  0  0  0  0  0  0
   -3.9343   -2.8599    0.8358 C   0  0  0  0  0  0  0  0  0  0  0  0
   -3.4170   -2.7804    1.9373 O   0  0  0  0  0  0  0  0  0  0  0  0
   -0.3546    3.5057    0.4628 H   0  0  0  0  0  0  0  0  0  0  0  0
   -0.0317    2.7767   -1.1021 H   0  0  0  0  0  0  0  0  0  0  0  0
    3.9669   -0.0327   -1.4054 H   0  0  0  0  0  0  0  0  0  0  0  0
    7.0096    0.6976    1.5452 H   0  0  0  0  0  0  0  0  0  0  0  0
    3.1340    2.4954    1.9999 H   0  0  0  0  0  0  0  0  0  0  0  0
   -0.2156    0.3548   -1.1732 H   0  0  0  0  0  0  0  0  0  0  0  0
   -1.5765   -1.4556   -1.1508 H   0  0  0  0  0  0  0  0  0  0  0  0
   -1.2324   -1.2932    0.5761 H   0  0  0  0  0  0  0  0  0  0  0  0
   -3.3758   -0.3299    1.0453 H   0  0  0  0  0  0  0  0  0  0  0  0
   -3.6686    0.1302   -0.6196 H   0  0  0  0  0  0  0  0  0  0  0  0
   -4.6398   -0.6149   -2.1529 H   0  0  0  0  0  0  0  0  0  0  0  0
   -5.4956   -4.0837   -2.1320 H   0  0  0  0  0  0  0  0  0  0  0  0
  1  2  2  0
  2  3  1  0
  3  4  1  0
  4  5  1  0
  5  6  2  0
  5  7  1  0
  7  8  2  0
  8  9  1  0
  9 10  1  0
  9 11  2  0
 11 12  1  0
 12 13  1  0
 12 14  2  0
  2 15  1  0
 15 16  1  0
 16 17  1  0
 17 18  1  0
 18 19  1  0
 19 20  1  0
 19 21  2  0
 21 22  1  0
 22 23  1  0
 23 24  2  0
 14  7  1  0
 23 18  1  0
  3 25  1  0
  3 26  1  0
  8 27  1  0
 11 28  1  0
 14 29  1  0
 15 30  1  0
 16 31  1  0
 16 32  1  0
 17 33  1  0
 17 34  1  0
 20 35  1  0
 21 36  1  0
M  END
$$$$
