
     RDKit          3D

 67 72  0  0  0  0  0  0  0  0999 V2000
    3.5294    0.2480   -1.8834 O   0  0  0  0  0  0  0  0  0  0  0  0
    2.7628    0.1772   -0.9188 C   0  0  0  0  0  0  0  0  0  0  0  0
    3.2894    0.2301    0.5286 C   0  0  0  0  0  0  0  0  0  0  0  0
    4.6620    0.9268    0.5731 C   0  0  0  0  0  0  0  0  0  0  0  0
    5.3247    0.8454    1.9316 C   0  0  0  0  0  0  0  0  0  0  0  0
    5.9717   -0.3304    2.3371 C   0  0  0  0  0  0  0  0  0  0  0  0
    6.5616   -0.4122    3.5992 C   0  0  0  0  0  0  0  0  0  0  0  0
    6.5100    0.6779    4.4664 C   0  0  0  0  0  0  0  0  0  0  0  0
    5.8702    1.8516    4.0723 C   0  0  0  0  0  0  0  0  0  0  0  0
    5.2800    1.9364    2.8108 C   0  0  0  0  0  0  0  0  0  0  0  0
    2.3439    0.9143    1.4053 N   0  0  0  0  0  0  0  0  0  0  0  0
    1.0560    0.3817    1.3194 C   0  0  0  0  0  0  0  0  0  0  0  0
    0.3967    0.3533    2.4852 N   0  0  0  0  0  0  0  0  0  0  0  0
   -0.8669   -0.0537    2.4225 C   0  0  0  0  0  0  0  0  0  0  0  0
   -1.5350   -0.3512    1.3056 N   0  0  0  0  0  0  0  0  0  0  0  0
   -0.8738   -0.2632    0.1314 C   0  0  0  0  0  0  0  0  0  0  0  0
   -1.6634   -0.3441   -1.0297 N   0  0  0  0  0  0  0  0  0  0  0  0
   -1.9086    1.0038   -1.6215 C   0  0  0  0  0  0  0  0  0  0  0  0
   -3.0463    1.7762   -0.9170 C   0  0  0  0  0  0  0  0  0  0  0  0
   -4.2918    0.9798   -0.9368 N   0  0  0  0  0  0  0  0  0  0  0  0
   -5.4850    1.6212   -0.5624 C   0  0  0  0  0  0  0  0  0  0  0  0
   -5.5300    2.8313    0.1441 C   0  0  0  0  0  0  0  0  0  0  0  0
   -6.7481    3.4331    0.4834 C   0  0  0  0  0  0  0  0  0  0  0  0
   -7.9503    2.8396    0.1136 C   0  0  0  0  0  0  0  0  0  0  0  0
   -7.9346    1.6431   -0.5943 C   0  0  0  0  0  0  0  0  0  0  0  0
   -6.7148    1.0466   -0.9282 C   0  0  0  0  0  0  0  0  0  0  0  0
   -4.1129   -0.3421   -0.2803 C   0  0  0  0  0  0  0  0  0  0  0  0
   -2.9250   -1.1215   -0.8980 C   0  0  0  0  0  0  0  0  0  0  0  0
    0.5081   -0.0031    0.0868 C   0  0  0  0  0  0  0  0  0  0  0  0
    1.3871   -0.0852   -1.0622 N   0  0  0  0  0  0  0  0  0  0  0  0
    0.9914   -0.6692   -2.3396 C   0  0  0  0  0  0  0  0  0  0  0  0
    1.3027   -2.1545   -2.4194 C   0  0  0  0  0  0  0  0  0  0  0  0
    2.4857   -2.6002   -3.0314 C   0  0  0  0  0  0  0  0  0  0  0  0
    2.7870   -3.9626   -3.0988 C   0  0  0  0  0  0  0  0  0  0  0  0
    1.9070   -4.8912   -2.5503 C   0  0  0  0  0  0  0  0  0  0  0  0
    2.3119   -6.7355   -2.6376 Br  0  0  0  0  0  0  0  0  0  0  0  0
    0.7307   -4.4695   -1.9354 C   0  0  0  0  0  0  0  0  0  0  0  0
    0.4319   -3.1060   -1.8706 C   0  0  0  0  0  0  0  0  0  0  0  0
    3.4039   -0.8127    0.8575 H   0  0  0  0  0  0  0  0  0  0  0  0
    4.5608    1.9793    0.2748 H   0  0  0  0  0  0  0  0  0  0  0  0
    5.3455    0.4792   -0.1605 H   0  0  0  0  0  0  0  0  0  0  0  0
    6.0241   -1.1900    1.6720 H   0  0  0  0  0  0  0  0  0  0  0  0
    7.0631   -1.3266    3.9061 H   0  0  0  0  0  0  0  0  0  0  0  0
    6.9705    0.6135    5.4489 H   0  0  0  0  0  0  0  0  0  0  0  0
    5.8309    2.7021    4.7482 H   0  0  0  0  0  0  0  0  0  0  0  0
    4.7811    2.8588    2.5194 H   0  0  0  0  0  0  0  0  0  0  0  0
    2.6044    0.9395    2.3895 H   0  0  0  0  0  0  0  0  0  0  0  0
   -1.4103   -0.1280    3.3574 H   0  0  0  0  0  0  0  0  0  0  0  0
   -2.1844    0.8540   -2.6736 H   0  0  0  0  0  0  0  0  0  0  0  0
   -0.9978    1.6152   -1.6274 H   0  0  0  0  0  0  0  0  0  0  0  0
   -2.7530    2.0091    0.1142 H   0  0  0  0  0  0  0  0  0  0  0  0
   -3.1930    2.7206   -1.4556 H   0  0  0  0  0  0  0  0  0  0  0  0
   -4.6200    3.3278    0.4642 H   0  0  0  0  0  0  0  0  0  0  0  0
   -6.7523    4.3690    1.0363 H   0  0  0  0  0  0  0  0  0  0  0  0
   -8.8951    3.3092    0.3724 H   0  0  0  0  0  0  0  0  0  0  0  0
   -8.8675    1.1766   -0.8982 H   0  0  0  0  0  0  0  0  0  0  0  0
   -6.7280    0.1271   -1.5086 H   0  0  0  0  0  0  0  0  0  0  0  0
   -3.9690   -0.1974    0.7965 H   0  0  0  0  0  0  0  0  0  0  0  0
   -5.0052   -0.9681   -0.3993 H   0  0  0  0  0  0  0  0  0  0  0  0
   -3.2125   -1.4261   -1.9129 H   0  0  0  0  0  0  0  0  0  0  0  0
   -2.7539   -2.0534   -0.3440 H   0  0  0  0  0  0  0  0  0  0  0  0
    1.5438   -0.1568   -3.1393 H   0  0  0  0  0  0  0  0  0  0  0  0
   -0.0454   -0.4938   -2.6078 H   0  0  0  0  0  0  0  0  0  0  0  0
    3.1860   -1.8830   -3.4581 H   0  0  0  0  0  0  0  0  0  0  0  0
    3.7077   -4.2839   -3.5786 H   0  0  0  0  0  0  0  0  0  0  0  0
    0.0403   -5.1897   -1.5046 H   0  0  0  0  0  0  0  0  0  0  0  0
   -0.4902   -2.7936   -1.3892 H   0  0  0  0  0  0  0  0  0  0  0  0
  1  2  2  0
  2  3  1  0
  3  4  1  0
  4  5  1  0
  5  6  2  0
  6  7  1  0
  7  8  2  0
  8  9  1  0
  9 10  2  0
  3 11  1  0
 11 12  1  0
 12 13  2  0
 13 14  1  0
 14 15  2  0
 15 16  1  0
 16 17  1  0
 17 18  1  0
 18 19  1  0
 19 20  1  0
 20 21  1  0
 21 22  2  0
 22 23  1  0
 23 24  2  0
 24 25  1  0
 25 26  2  0
 20 27  1  0
 27 28  1  0
 16 29  2  0
 29 30  1  0
 30 31  1  0
 31 32  1  0
 32 33  2  0
 33 34  1  0
 34 35  2  0
 35 36  1  0
 35 37  1  0
 37 38  2  0
 30  2  1  0
 38 32  1  0
 10  5  1  0
 29 12  1  0
 28 17  1  0
 26 21  1  0
  3 39  1  0
  4 40  1  0
  4 41  1  0
  6 42  1  0
  7 43  1  0
  8 44  1  0
  9 45  1  0
 10 46  1  0
 11 47  1  0
 14 48  1  0
 18 49  1  0
 18 50  1  0
 19 51  1  0
 19 52  1  0
 22 53  1  0
 23 54  1  0
 24 55  1  0
 25 56  1  0
 26 57  1  0
 27 58  1  0
 27 59  1  0
 28 60  1  0
 28 61  1  0
 31 62  1  0
 31 63  1  0
 33 64  1  0
 34 65  1  0
 37 66  1  0
 38 67  1  0
M  END
$$$$
