
     RDKit          3D

 37 38  0  0  0  0  0  0  0  0999 V2000
   -5.1012    1.0780   -0.5165 C   0  0  0  0  0  0  0  0  0  0  0  0
   -4.4771   -0.2341   -0.7385 N   0  0  0  0  0  0  0  0  0  0  0  0
   -3.6134   -0.2851   -1.9291 C   0  0  0  0  0  0  0  0  0  0  0  0
   -3.9980   -1.1329    0.6202 S   0  0  0  0  0  6  0  0  0  0  0  0
   -3.5761   -2.4361    0.1479 O   0  0  0  0  0  0  0  0  0  0  0  0
   -5.0190   -1.0341    1.6374 O   0  0  0  0  0  0  0  0  0  0  0  0
   -2.5274   -0.2946    1.1841 C   0  0  0  0  0  0  0  0  0  0  0  0
   -1.2917   -0.7841    0.7174 C   0  0  0  0  0  0  0  0  0  0  0  0
   -0.0719   -0.2143    1.1282 C   0  0  0  0  0  0  0  0  0  0  0  0
    1.1646   -0.8047    0.5359 C   0  0  0  0  0  0  0  0  0  0  0  0
    1.1532   -2.0016    0.2669 O   0  0  0  0  0  0  0  0  0  0  0  0
    2.1922    0.0669    0.2796 N   0  0  0  0  0  0  0  0  0  0  0  0
    3.3944   -0.2627   -0.2961 C   0  0  0  0  0  0  0  0  0  0  0  0
    3.8664   -1.5082   -0.7625 C   0  0  0  0  0  0  0  0  0  0  0  0
    5.1329   -1.2594   -1.2379 C   0  0  0  0  0  0  0  0  0  0  0  0
    5.3457    0.0705   -1.0387 N   0  0  0  0  0  0  0  0  0  0  0  0
    6.5351    0.8179   -1.3668 C   0  0  0  0  0  0  0  0  0  0  0  0
    4.3009    0.7024   -0.4734 N   0  0  0  0  0  0  0  0  0  0  0  0
   -0.1002    0.8334    2.0532 C   0  0  0  0  0  0  0  0  0  0  0  0
    1.3163    1.5780    2.7023 Cl  0  0  0  0  0  0  0  0  0  0  0  0
   -1.3291    1.3119    2.5267 C   0  0  0  0  0  0  0  0  0  0  0  0
   -2.5444    0.7571    2.0989 C   0  0  0  0  0  0  0  0  0  0  0  0
   -3.9632    1.4881    2.7499 Cl  0  0  0  0  0  0  0  0  0  0  0  0
   -5.6476    1.3819   -1.4156 H   0  0  0  0  0  0  0  0  0  0  0  0
   -4.3466    1.8390   -0.3006 H   0  0  0  0  0  0  0  0  0  0  0  0
   -5.8331    1.0377    0.2942 H   0  0  0  0  0  0  0  0  0  0  0  0
   -3.2726   -1.3040   -2.1313 H   0  0  0  0  0  0  0  0  0  0  0  0
   -4.1777    0.0401   -2.8092 H   0  0  0  0  0  0  0  0  0  0  0  0
   -2.7470    0.3717   -1.8104 H   0  0  0  0  0  0  0  0  0  0  0  0
   -1.2710   -1.6248    0.0204 H   0  0  0  0  0  0  0  0  0  0  0  0
    2.1418    1.0421    0.5407 H   0  0  0  0  0  0  0  0  0  0  0  0
    3.3584   -2.4622   -0.7525 H   0  0  0  0  0  0  0  0  0  0  0  0
    5.8752   -1.9056   -1.6844 H   0  0  0  0  0  0  0  0  0  0  0  0
    7.2741    0.1486   -1.8140 H   0  0  0  0  0  0  0  0  0  0  0  0
    6.9336    1.2525   -0.4467 H   0  0  0  0  0  0  0  0  0  0  0  0
    6.2638    1.6026   -2.0774 H   0  0  0  0  0  0  0  0  0  0  0  0
   -1.3398    2.1279    3.2496 H   0  0  0  0  0  0  0  0  0  0  0  0
  1  2  1  0
  2  3  1  0
  2  4  1  0
  4  5  2  0
  4  6  2  0
  4  7  1  0
  7  8  2  0
  8  9  1  0
  9 10  1  0
 10 11  2  0
 10 12  1  0
 12 13  1  0
 13 14  1  0
 14 15  2  0
 15 16  1  0
 16 17  1  0
 16 18  1  0
  9 19  2  0
 19 20  1  0
 19 21  1  0
 21 22  2  0
 22 23  1  0
 22  7  1  0
 18 13  2  0
  1 24  1  0
  1 25  1  0
  1 26  1  0
  3 27  1  0
  3 28  1  0
  3 29  1  0
  8 30  1  0
 12 31  1  0
 14 32  1  0
 15 33  1  0
 17 34  1  0
 17 35  1  0
 17 36  1  0
 21 37  1  0
M  END
$$$$
