
     RDKit          3D

 42 44  0  0  0  0  0  0  0  0999 V2000
   -4.7266    1.1455    0.6936 C   0  0  0  0  0  0  0  0  0  0  0  0
   -3.7939    0.9116   -0.4585 C   0  0  0  0  0  0  0  0  0  0  0  0
   -4.2390    1.0846   -1.7691 C   0  0  0  0  0  0  0  0  0  0  0  0
   -3.4029    0.8282   -2.8601 C   0  0  0  0  0  0  0  0  0  0  0  0
   -2.0942    0.3832   -2.6098 C   0  0  0  0  0  0  0  0  0  0  0  0
   -1.6097    0.2089   -1.3119 C   0  0  0  0  0  0  0  0  0  0  0  0
   -2.4849    0.4583   -0.2286 C   0  0  0  0  0  0  0  0  0  0  0  0
   -0.2529   -0.2251   -1.4274 C   0  0  0  0  0  0  0  0  0  0  0  0
    0.6681   -0.5289   -0.3762 C   0  0  0  0  0  0  0  0  0  0  0  0
    0.8282    0.2107    0.7343 C   0  0  0  0  0  0  0  0  0  0  0  0
    1.7763   -0.1000    1.8092 C   0  0  0  0  0  0  0  0  0  0  0  0
    3.0535   -0.5999    1.5596 C   0  0  0  0  0  0  0  0  0  0  0  0
    3.9177   -0.8469    2.6206 C   0  0  0  0  0  0  0  0  0  0  0  0
    3.5369   -0.5941    3.8925 N   0  0  0  0  0  4  0  0  0  0  0  0
    4.4651   -0.8760    5.0006 C   0  0  0  0  0  0  0  0  0  0  0  0
    2.3068   -0.1022    4.1591 C   0  0  0  0  0  0  0  0  0  0  0  0
    1.4113    0.1616    3.1288 C   0  0  0  0  0  0  0  0  0  0  0  0
    0.0569   -0.3279   -2.7739 C   0  0  0  0  0  0  0  0  0  0  0  0
    1.3263   -0.7196   -3.4524 C   0  0  0  0  0  0  0  0  0  0  0  0
   -1.0770    0.0307   -3.4768 N   0  0  0  0  0  0  0  0  0  0  0  0
   -1.2028    0.0474   -4.9210 C   0  0  0  0  0  0  0  0  0  0  0  0
   -4.1750    1.4673    1.5833 H   0  0  0  0  0  0  0  0  0  0  0  0
   -5.2699    0.2249    0.9279 H   0  0  0  0  0  0  0  0  0  0  0  0
   -5.4493    1.9338    0.4578 H   0  0  0  0  0  0  0  0  0  0  0  0
   -5.2577    1.4184   -1.9594 H   0  0  0  0  0  0  0  0  0  0  0  0
   -3.7739    0.9663   -3.8709 H   0  0  0  0  0  0  0  0  0  0  0  0
   -2.1441    0.2923    0.7882 H   0  0  0  0  0  0  0  0  0  0  0  0
    1.2743   -1.4184   -0.5283 H   0  0  0  0  0  0  0  0  0  0  0  0
    0.2244    1.1065    0.8728 H   0  0  0  0  0  0  0  0  0  0  0  0
    3.3909   -0.7910    0.5427 H   0  0  0  0  0  0  0  0  0  0  0  0
    4.9166   -1.2433    2.4609 H   0  0  0  0  0  0  0  0  0  0  0  0
    4.2669   -0.1805    5.8203 H   0  0  0  0  0  0  0  0  0  0  0  0
    4.2943   -1.9083    5.3155 H   0  0  0  0  0  0  0  0  0  0  0  0
    5.4919   -0.7395    4.6516 H   0  0  0  0  0  0  0  0  0  0  0  0
    2.0478    0.0773    5.1989 H   0  0  0  0  0  0  0  0  0  0  0  0
    0.4262    0.5612    3.3641 H   0  0  0  0  0  0  0  0  0  0  0  0
    1.2252   -1.7110   -3.9053 H   0  0  0  0  0  0  0  0  0  0  0  0
    1.5894   -0.0002   -4.2348 H   0  0  0  0  0  0  0  0  0  0  0  0
    2.1655   -0.7545   -2.7510 H   0  0  0  0  0  0  0  0  0  0  0  0
   -0.5106   -0.6726   -5.3624 H   0  0  0  0  0  0  0  0  0  0  0  0
   -0.9762    1.0586   -5.2675 H   0  0  0  0  0  0  0  0  0  0  0  0
   -2.2199   -0.2374   -5.2007 H   0  0  0  0  0  0  0  0  0  0  0  0
  1  2  1  0
  2  3  2  0
  3  4  1  0
  4  5  2  0
  5  6  1  0
  6  7  2  0
  6  8  1  0
  8  9  1  0
  9 10  2  3
 10 11  1  0
 11 12  2  0
 12 13  1  0
 13 14  2  0
 14 15  1  0
 14 16  1  0
 16 17  2  0
  8 18  2  0
 18 19  1  0
 18 20  1  0
 20 21  1  0
  7  2  1  0
 17 11  1  0
 20  5  1  0
  1 22  1  0
  1 23  1  0
  1 24  1  0
  3 25  1  0
  4 26  1  0
  7 27  1  0
  9 28  1  0
 10 29  1  0
 12 30  1  0
 13 31  1  0
 15 32  1  0
 15 33  1  0
 15 34  1  0
 16 35  1  0
 17 36  1  0
 19 37  1  0
 19 38  1  0
 19 39  1  0
 21 40  1  0
 21 41  1  0
 21 42  1  0
M  CHG  1  14   1
M  END
$$$$
