
     RDKit          3D

 43 43  0  0  0  0  0  0  0  0999 V2000
   -6.6500    0.6693    2.7653 C   0  0  0  0  0  0  0  0  0  0  0  0
   -5.3106    1.1456    2.2891 C   0  0  0  0  0  0  0  0  0  0  0  0
   -4.4557    2.1201    3.4382 Cl  0  0  0  0  0  0  0  0  0  0  0  0
   -4.7905    0.8461    1.0856 C   0  0  0  0  0  0  0  0  0  0  0  0
   -3.4900    1.3149    0.5126 C   0  0  0  0  0  0  0  0  0  0  0  0
   -2.3555    0.2741    0.4799 N   0  0  0  0  0  4  0  0  0  0  0  0
   -1.9496   -0.0914    1.9068 C   0  0  0  0  0  0  0  0  0  0  0  0
   -2.7776   -0.9825   -0.2695 C   0  0  0  0  0  0  0  0  0  0  0  0
   -1.1449    0.9480   -0.2742 C   0  0  0  0  0  0  0  0  0  0  0  0
    0.1325    0.1257   -0.4410 C   0  0  0  0  0  0  0  0  0  0  0  0
    0.4326   -0.8493    0.2339 O   0  0  0  0  0  0  0  0  0  0  0  0
    0.8912    0.6576   -1.4387 O   0  0  0  0  0  0  0  0  0  0  0  0
    2.1116   -0.0483   -1.7436 C   0  0  0  0  0  0  0  0  0  0  0  0
    3.2516    0.4457   -0.8555 C   0  0  0  0  0  0  0  0  0  0  0  0
    4.5395   -0.2775   -1.1429 C   0  0  0  0  0  0  0  0  0  0  0  0
    4.9219   -1.3807   -0.3690 C   0  0  0  0  0  0  0  0  0  0  0  0
    6.1112   -2.0585   -0.6451 C   0  0  0  0  0  0  0  0  0  0  0  0
    6.9228   -1.6467   -1.6999 C   0  0  0  0  0  0  0  0  0  0  0  0
    6.5469   -0.5558   -2.4833 C   0  0  0  0  0  0  0  0  0  0  0  0
    5.3599    0.1254   -2.2067 C   0  0  0  0  0  0  0  0  0  0  0  0
   -7.3335    1.5166    2.8836 H   0  0  0  0  0  0  0  0  0  0  0  0
   -7.1079   -0.0355    2.0618 H   0  0  0  0  0  0  0  0  0  0  0  0
   -6.5579    0.1584    3.7300 H   0  0  0  0  0  0  0  0  0  0  0  0
   -5.3991    0.2422    0.4125 H   0  0  0  0  0  0  0  0  0  0  0  0
   -3.0939    2.1899    1.0409 H   0  0  0  0  0  0  0  0  0  0  0  0
   -3.6630    1.6244   -0.5259 H   0  0  0  0  0  0  0  0  0  0  0  0
   -1.1981   -0.8807    1.8828 H   0  0  0  0  0  0  0  0  0  0  0  0
   -1.5614    0.8042    2.4006 H   0  0  0  0  0  0  0  0  0  0  0  0
   -2.8289   -0.4744    2.4361 H   0  0  0  0  0  0  0  0  0  0  0  0
   -3.1098   -0.6854   -1.2682 H   0  0  0  0  0  0  0  0  0  0  0  0
   -1.9282   -1.6665   -0.3371 H   0  0  0  0  0  0  0  0  0  0  0  0
   -3.5878   -1.4649    0.2804 H   0  0  0  0  0  0  0  0  0  0  0  0
   -1.5286    1.1984   -1.2695 H   0  0  0  0  0  0  0  0  0  0  0  0
   -0.9016    1.8623    0.2744 H   0  0  0  0  0  0  0  0  0  0  0  0
    1.9627   -1.1318   -1.6625 H   0  0  0  0  0  0  0  0  0  0  0  0
    2.3328    0.1536   -2.7956 H   0  0  0  0  0  0  0  0  0  0  0  0
    3.3910    1.5275   -0.9949 H   0  0  0  0  0  0  0  0  0  0  0  0
    2.9865    0.3365    0.2045 H   0  0  0  0  0  0  0  0  0  0  0  0
    4.3037   -1.7169    0.4579 H   0  0  0  0  0  0  0  0  0  0  0  0
    6.4080   -2.9062   -0.0344 H   0  0  0  0  0  0  0  0  0  0  0  0
    7.8504   -2.1737   -1.9123 H   0  0  0  0  0  0  0  0  0  0  0  0
    7.1815   -0.2346   -3.3073 H   0  0  0  0  0  0  0  0  0  0  0  0
    5.0857    0.9747   -2.8276 H   0  0  0  0  0  0  0  0  0  0  0  0
  1  2  1  0
  2  3  1  0
  2  4  2  3
  4  5  1  0
  5  6  1  0
  6  7  1  0
  6  8  1  0
  6  9  1  0
  9 10  1  0
 10 11  2  0
 10 12  1  0
 12 13  1  0
 13 14  1  0
 14 15  1  0
 15 16  2  0
 16 17  1  0
 17 18  2  0
 18 19  1  0
 19 20  2  0
 20 15  1  0
  1 21  1  0
  1 22  1  0
  1 23  1  0
  4 24  1  0
  5 25  1  0
  5 26  1  0
  7 27  1  0
  7 28  1  0
  7 29  1  0
  8 30  1  0
  8 31  1  0
  8 32  1  0
  9 33  1  0
  9 34  1  0
 13 35  1  0
 13 36  1  0
 14 37  1  0
 14 38  1  0
 16 39  1  0
 17 40  1  0
 18 41  1  0
 19 42  1  0
 20 43  1  0
M  CHG  1   6   1
M  END
$$$$
