
     RDKit          3D

 57 62  0  0  0  0  0  0  0  0999 V2000
    7.1248    3.8065   -0.1850 C   0  0  0  0  0  0  0  0  0  0  0  0
    7.0985    2.3844   -0.1471 O   0  0  0  0  0  0  0  0  0  0  0  0
    5.8826    1.7867    0.0211 C   0  0  0  0  0  0  0  0  0  0  0  0
    4.6592    2.4353    0.1716 C   0  0  0  0  0  0  0  0  0  0  0  0
    3.4822    1.6925    0.3378 C   0  0  0  0  0  0  0  0  0  0  0  0
    3.5213    0.2929    0.3507 C   0  0  0  0  0  0  0  0  0  0  0  0
    2.1958   -0.5291    0.5389 C   0  0  0  0  0  0  0  0  0  0  0  0
    0.9287   -0.0092    0.7756 C   0  0  0  0  0  0  0  0  0  0  0  0
    0.0259   -1.0627    0.9167 N   0  0  0  0  0  4  0  0  0  0  0  0
   -1.4328   -0.9551    1.1055 C   0  0  0  0  0  0  0  0  0  0  0  0
   -2.1599   -1.1277   -0.2470 C   0  0  0  0  0  0  0  0  0  0  0  0
   -1.7204   -1.9716   -1.0340 O   0  0  0  0  0  0  0  0  0  0  0  0
   -3.1866   -0.2038   -0.5106 N   0  0  0  0  0  0  0  0  0  0  0  0
   -4.0188    0.3259    0.5391 C   0  0  0  0  0  0  0  0  0  0  0  0
   -4.3824   -0.5045    1.6189 C   0  0  0  0  0  0  0  0  0  0  0  0
   -5.1766   -0.0287    2.6652 C   0  0  0  0  0  0  0  0  0  0  0  0
   -5.6357    1.2818    2.6455 C   0  0  0  0  0  0  0  0  0  0  0  0
   -5.3201    2.1070    1.5687 C   0  0  0  0  0  0  0  0  0  0  0  0
   -4.5319    1.6315    0.5107 C   0  0  0  0  0  0  0  0  0  0  0  0
   -4.1760    2.7395   -0.8232 S   0  0  0  0  0  0  0  0  0  0  0  0
   -3.9640    1.5355   -2.1155 C   0  0  0  0  0  0  0  0  0  0  0  0
   -4.2264    1.9583   -3.4287 C   0  0  0  0  0  0  0  0  0  0  0  0
   -4.0191    1.1001   -4.5032 C   0  0  0  0  0  0  0  0  0  0  0  0
   -3.5430   -0.1820   -4.2697 C   0  0  0  0  0  0  0  0  0  0  0  0
   -3.2738   -0.6056   -2.9631 C   0  0  0  0  0  0  0  0  0  0  0  0
   -3.4793    0.2372   -1.8560 C   0  0  0  0  0  0  0  0  0  0  0  0
    0.7014   -2.1935    0.7369 C   0  0  0  0  0  0  0  0  0  0  0  0
    1.9788   -1.8952    0.5148 N   0  0  0  0  0  0  0  0  0  0  0  0
    2.7799   -3.0872    0.2744 C   0  0  0  0  0  0  0  0  0  0  0  0
    1.7208   -4.2083    0.0903 C   0  0  0  0  0  0  0  0  0  0  0  0
    0.4331   -3.6504    0.7269 C   0  0  0  0  0  0  0  0  0  0  0  0
    4.7464   -0.3552    0.2046 C   0  0  0  0  0  0  0  0  0  0  0  0
    5.9173    0.3917    0.0404 C   0  0  0  0  0  0  0  0  0  0  0  0
    6.7768    4.2320    0.7620 H   0  0  0  0  0  0  0  0  0  0  0  0
    8.1638    4.1181   -0.3293 H   0  0  0  0  0  0  0  0  0  0  0  0
    6.5409    4.1890   -1.0287 H   0  0  0  0  0  0  0  0  0  0  0  0
    4.5867    3.5188    0.1631 H   0  0  0  0  0  0  0  0  0  0  0  0
    2.5525    2.2436    0.4466 H   0  0  0  0  0  0  0  0  0  0  0  0
    0.5499    0.9944    0.8700 H   0  0  0  0  0  0  0  0  0  0  0  0
   -1.7453   -1.7491    1.7904 H   0  0  0  0  0  0  0  0  0  0  0  0
   -1.6271    0.0204    1.5594 H   0  0  0  0  0  0  0  0  0  0  0  0
   -4.1133   -1.5580    1.6385 H   0  0  0  0  0  0  0  0  0  0  0  0
   -5.4605   -0.6877    3.4836 H   0  0  0  0  0  0  0  0  0  0  0  0
   -6.2619    1.6566    3.4528 H   0  0  0  0  0  0  0  0  0  0  0  0
   -5.7071    3.1251    1.5547 H   0  0  0  0  0  0  0  0  0  0  0  0
   -4.5915    2.9653   -3.6238 H   0  0  0  0  0  0  0  0  0  0  0  0
   -4.2299    1.4314   -5.5173 H   0  0  0  0  0  0  0  0  0  0  0  0
   -3.3877   -0.8637   -5.1035 H   0  0  0  0  0  0  0  0  0  0  0  0
   -2.9449   -1.6341   -2.8489 H   0  0  0  0  0  0  0  0  0  0  0  0
    3.3914   -2.9750   -0.6238 H   0  0  0  0  0  0  0  0  0  0  0  0
    3.4044   -3.2746    1.1527 H   0  0  0  0  0  0  0  0  0  0  0  0
    1.5519   -4.3639   -0.9819 H   0  0  0  0  0  0  0  0  0  0  0  0
    2.0328   -5.1623    0.5235 H   0  0  0  0  0  0  0  0  0  0  0  0
   -0.4631   -3.8619    0.1457 H   0  0  0  0  0  0  0  0  0  0  0  0
    0.3199   -3.9505    1.7709 H   0  0  0  0  0  0  0  0  0  0  0  0
    4.8387   -1.4329    0.2259 H   0  0  0  0  0  0  0  0  0  0  0  0
    6.8727   -0.1182   -0.0720 H   0  0  0  0  0  0  0  0  0  0  0  0
  1  2  1  0
  2  3  1  0
  3  4  2  0
  4  5  1  0
  5  6  2  0
  6  7  1  0
  7  8  2  0
  8  9  1  0
  9 10  1  0
 10 11  1  0
 11 12  2  0
 11 13  1  0
 13 14  1  0
 14 15  2  0
 15 16  1  0
 16 17  2  0
 17 18  1  0
 18 19  2  0
 19 20  1  0
 20 21  1  0
 21 22  2  0
 22 23  1  0
 23 24  2  0
 24 25  1  0
 25 26  2  0
  9 27  2  0
 27 28  1  0
 28 29  1  0
 29 30  1  0
 30 31  1  0
  6 32  1  0
 32 33  2  0
 33  3  1  0
 28  7  1  0
 26 13  1  0
 31 27  1  0
 19 14  1  0
 26 21  1  0
  1 34  1  0
  1 35  1  0
  1 36  1  0
  4 37  1  0
  5 38  1  0
  8 39  1  0
 10 40  1  0
 10 41  1  0
 15 42  1  0
 16 43  1  0
 17 44  1  0
 18 45  1  0
 22 46  1  0
 23 47  1  0
 24 48  1  0
 25 49  1  0
 29 50  1  0
 29 51  1  0
 30 52  1  0
 30 53  1  0
 31 54  1  0
 31 55  1  0
 32 56  1  0
 33 57  1  0
M  CHG  1   9   1
M  END
$$$$
