
     RDKit          3D

 44 46  0  0  0  0  0  0  0  0999 V2000
    4.2651    1.8320    0.2227 C   0  0  0  0  0  0  0  0  0  0  0  0
    3.3119    0.7844   -0.2844 C   0  0  0  0  0  0  0  0  0  0  0  0
    3.6486   -0.5703   -0.1540 C   0  0  0  0  0  0  0  0  0  0  0  0
    2.7874   -1.5675   -0.6151 C   0  0  0  0  0  0  0  0  0  0  0  0
    1.5686   -1.2302   -1.2116 C   0  0  0  0  0  0  0  0  0  0  0  0
    0.6913   -2.3371   -1.6997 C   0  0  0  0  0  0  0  0  0  0  0  0
    1.1366   -3.4848   -1.7618 O   0  0  0  0  0  0  0  0  0  0  0  0
   -0.7363   -2.0284   -2.1494 C   0  0  0  0  0  0  0  0  0  0  0  0
   -1.5434   -1.2788   -1.2592 O   0  0  0  0  0  0  0  0  0  0  0  0
   -1.7737   -1.7992   -0.0093 C   0  0  0  0  0  0  0  0  0  0  0  0
   -1.7483   -3.1708    0.2738 C   0  0  0  0  0  0  0  0  0  0  0  0
   -1.9922   -3.6312    1.5688 C   0  0  0  0  0  0  0  0  0  0  0  0
   -2.2723   -2.7290    2.5884 C   0  0  0  0  0  0  0  0  0  0  0  0
   -2.3106   -1.3623    2.3129 C   0  0  0  0  0  0  0  0  0  0  0  0
   -2.0666   -0.8713    1.0156 C   0  0  0  0  0  0  0  0  0  0  0  0
   -2.1070    0.5847    0.7792 C   0  0  0  0  0  0  0  0  0  0  0  0
   -1.2240    1.4465    1.4512 C   0  0  0  0  0  0  0  0  0  0  0  0
   -1.2709    2.8277    1.2458 C   0  0  0  0  0  0  0  0  0  0  0  0
   -2.1990    3.3696    0.3601 C   0  0  0  0  0  0  0  0  0  0  0  0
   -3.0806    2.5319   -0.3187 C   0  0  0  0  0  0  0  0  0  0  0  0
   -3.0357    1.1513   -0.1085 C   0  0  0  0  0  0  0  0  0  0  0  0
    1.2265    0.1204   -1.3465 C   0  0  0  0  0  0  0  0  0  0  0  0
    2.0868    1.1343   -0.8859 C   0  0  0  0  0  0  0  0  0  0  0  0
    1.6821    2.5737   -1.0585 C   0  0  0  0  0  0  0  0  0  0  0  0
    5.1741    1.3824    0.6362 H   0  0  0  0  0  0  0  0  0  0  0  0
    4.5690    2.4966   -0.5921 H   0  0  0  0  0  0  0  0  0  0  0  0
    3.7958    2.4189    1.0185 H   0  0  0  0  0  0  0  0  0  0  0  0
    4.5894   -0.8630    0.3079 H   0  0  0  0  0  0  0  0  0  0  0  0
    3.0750   -2.6113   -0.5034 H   0  0  0  0  0  0  0  0  0  0  0  0
   -1.2431   -2.9598   -2.4293 H   0  0  0  0  0  0  0  0  0  0  0  0
   -0.6592   -1.4578   -3.0831 H   0  0  0  0  0  0  0  0  0  0  0  0
   -1.5457   -3.9117   -0.4935 H   0  0  0  0  0  0  0  0  0  0  0  0
   -1.9648   -4.6978    1.7781 H   0  0  0  0  0  0  0  0  0  0  0  0
   -2.4649   -3.0864    3.5964 H   0  0  0  0  0  0  0  0  0  0  0  0
   -2.5419   -0.6697    3.1203 H   0  0  0  0  0  0  0  0  0  0  0  0
   -0.4833    1.0394    2.1367 H   0  0  0  0  0  0  0  0  0  0  0  0
   -0.5794    3.4772    1.7757 H   0  0  0  0  0  0  0  0  0  0  0  0
   -2.2362    4.4437    0.1993 H   0  0  0  0  0  0  0  0  0  0  0  0
   -3.8078    2.9503   -1.0094 H   0  0  0  0  0  0  0  0  0  0  0  0
   -3.7347    0.5105   -0.6424 H   0  0  0  0  0  0  0  0  0  0  0  0
    0.2861    0.4116   -1.8077 H   0  0  0  0  0  0  0  0  0  0  0  0
    1.6644    3.0845   -0.0908 H   0  0  0  0  0  0  0  0  0  0  0  0
    2.3814    3.0849   -1.7277 H   0  0  0  0  0  0  0  0  0  0  0  0
    0.6818    2.6620   -1.4949 H   0  0  0  0  0  0  0  0  0  0  0  0
  1  2  1  0
  2  3  2  0
  3  4  1  0
  4  5  2  0
  5  6  1  0
  6  7  2  0
  6  8  1  0
  8  9  1  0
  9 10  1  0
 10 11  2  0
 11 12  1  0
 12 13  2  0
 13 14  1  0
 14 15  2  0
 15 16  1  0
 16 17  2  0
 17 18  1  0
 18 19  2  0
 19 20  1  0
 20 21  2  0
  5 22  1  0
 22 23  2  0
 23 24  1  0
 23  2  1  0
 15 10  1  0
 21 16  1  0
  1 25  1  0
  1 26  1  0
  1 27  1  0
  3 28  1  0
  4 29  1  0
  8 30  1  0
  8 31  1  0
 11 32  1  0
 12 33  1  0
 13 34  1  0
 14 35  1  0
 17 36  1  0
 18 37  1  0
 19 38  1  0
 20 39  1  0
 21 40  1  0
 22 41  1  0
 24 42  1  0
 24 43  1  0
 24 44  1  0
M  END
$$$$
