
     RDKit          3D

 36 37  0  0  0  0  0  0  0  0999 V2000
    6.7569    0.6545    0.8835 C   0  0  0  0  0  0  0  0  0  0  0  0
    5.3566    0.3754    0.8565 O   0  0  0  0  0  0  0  0  0  0  0  0
    4.8002    0.4701   -0.3775 C   0  0  0  0  0  0  0  0  0  0  0  0
    5.3926    0.7581   -1.4059 O   0  0  0  0  0  0  0  0  0  0  0  0
    3.3432    0.1709   -0.3230 C   0  0  0  0  0  0  0  0  0  0  0  0
    2.6073    0.2461   -1.5109 C   0  0  0  0  0  0  0  0  0  0  0  0
    1.2356   -0.0263   -1.5110 C   0  0  0  0  0  0  0  0  0  0  0  0
    0.5656   -0.3698   -0.3243 C   0  0  0  0  0  0  0  0  0  0  0  0
   -0.9180   -0.7074   -0.3467 C   0  0  0  0  0  0  0  0  0  0  0  0
   -1.4776   -0.5487    0.9570 O   0  0  0  0  0  0  0  0  0  0  0  0
   -2.8546   -0.9103    0.9743 C   0  0  0  0  0  0  0  0  0  0  0  0
   -3.6553   -0.0644   -0.0249 C   0  0  0  0  0  0  0  0  0  0  0  0
   -3.6643    1.4076    0.4295 C   0  0  0  0  0  0  0  0  0  0  0  0
   -5.0979   -0.5743   -0.1169 C   0  0  0  0  0  0  0  0  0  0  0  0
   -2.9614   -0.1816   -1.3886 C   0  0  0  0  0  0  0  0  0  0  0  0
   -1.5791    0.1423   -1.2843 O   0  0  0  0  0  0  0  0  0  0  0  0
    1.3184   -0.4566    0.8587 C   0  0  0  0  0  0  0  0  0  0  0  0
    2.6912   -0.1841    0.8634 C   0  0  0  0  0  0  0  0  0  0  0  0
    6.9504    1.6795    0.5519 H   0  0  0  0  0  0  0  0  0  0  0  0
    7.3031   -0.0640    0.2642 H   0  0  0  0  0  0  0  0  0  0  0  0
    7.1023    0.5539    1.9161 H   0  0  0  0  0  0  0  0  0  0  0  0
    3.0966    0.5193   -2.4440 H   0  0  0  0  0  0  0  0  0  0  0  0
    0.6850    0.0408   -2.4481 H   0  0  0  0  0  0  0  0  0  0  0  0
   -1.0073   -1.7562   -0.6630 H   0  0  0  0  0  0  0  0  0  0  0  0
   -3.2248   -0.7635    1.9951 H   0  0  0  0  0  0  0  0  0  0  0  0
   -2.9411   -1.9819    0.7538 H   0  0  0  0  0  0  0  0  0  0  0  0
   -4.2194    2.0330   -0.2789 H   0  0  0  0  0  0  0  0  0  0  0  0
   -2.6528    1.8196    0.5109 H   0  0  0  0  0  0  0  0  0  0  0  0
   -4.1431    1.5122    1.4098 H   0  0  0  0  0  0  0  0  0  0  0  0
   -5.6790    0.0121   -0.8373 H   0  0  0  0  0  0  0  0  0  0  0  0
   -5.1288   -1.6214   -0.4384 H   0  0  0  0  0  0  0  0  0  0  0  0
   -5.6025   -0.5094    0.8535 H   0  0  0  0  0  0  0  0  0  0  0  0
   -3.0567   -1.1936   -1.8024 H   0  0  0  0  0  0  0  0  0  0  0  0
   -3.4106    0.5043   -2.1156 H   0  0  0  0  0  0  0  0  0  0  0  0
    0.8349   -0.7321    1.7947 H   0  0  0  0  0  0  0  0  0  0  0  0
    3.2348   -0.2537    1.8022 H   0  0  0  0  0  0  0  0  0  0  0  0
  1  2  1  0
  2  3  1  0
  3  4  2  0
  3  5  1  0
  5  6  2  0
  6  7  1  0
  7  8  2  0
  8  9  1  0
  9 10  1  0
 10 11  1  0
 11 12  1  0
 12 13  1  0
 12 14  1  0
 12 15  1  0
 15 16  1  0
  8 17  1  0
 17 18  2  0
 18  5  1  0
 16  9  1  0
  1 19  1  0
  1 20  1  0
  1 21  1  0
  6 22  1  0
  7 23  1  0
  9 24  1  0
 11 25  1  0
 11 26  1  0
 13 27  1  0
 13 28  1  0
 13 29  1  0
 14 30  1  0
 14 31  1  0
 14 32  1  0
 15 33  1  0
 15 34  1  0
 17 35  1  0
 18 36  1  0
M  END
$$$$
