
     RDKit          3D

 40 42  0  0  0  0  0  0  0  0999 V2000
   -5.2897   -1.0495    0.6403 C   0  0  0  0  0  0  0  0  0  0  0  0
   -3.9270   -0.5357    0.2791 C   0  0  0  0  0  0  0  0  0  0  0  0
   -3.4413   -0.6696   -1.0228 C   0  0  0  0  0  0  0  0  0  0  0  0
   -2.1827   -0.1617   -1.4008 C   0  0  0  0  0  0  0  0  0  0  0  0
   -1.7805   -0.3563   -2.8378 C   0  0  0  0  0  0  0  0  0  0  0  0
   -1.3938    0.4982   -0.4272 C   0  0  0  0  0  0  0  0  0  0  0  0
    0.2469    1.1523   -0.8250 S   0  0  0  0  0  6  0  0  0  0  0  0
    0.2885    2.5135   -0.3298 O   0  0  0  0  0  0  0  0  0  0  0  0
    0.5682    0.8837   -2.2116 O   0  0  0  0  0  0  0  0  0  0  0  0
    1.2564    0.1543    0.1230 N   0  0  0  0  0  0  0  0  0  0  0  0
    1.1790   -1.3179   -0.1622 C   0  0  0  0  0  0  0  0  0  0  0  0
    2.5450   -1.9017    0.2317 C   0  0  0  0  0  0  0  0  0  0  0  0
    3.4171   -0.6900    0.2252 C   0  0  0  0  0  0  0  0  0  0  0  0
    4.7987   -0.6428    0.3346 C   0  0  0  0  0  0  0  0  0  0  0  0
    5.4149    0.6079    0.3906 C   0  0  0  0  0  0  0  0  0  0  0  0
    4.6469    1.7812    0.3612 C   0  0  0  0  0  0  0  0  0  0  0  0
    3.2533    1.7192    0.2623 C   0  0  0  0  0  0  0  0  0  0  0  0
    2.6543    0.4760    0.1593 C   0  0  0  0  0  0  0  0  0  0  0  0
   -1.8871    0.6615    0.8949 C   0  0  0  0  0  0  0  0  0  0  0  0
   -1.1517    1.4042    1.9820 C   0  0  0  0  0  0  0  0  0  0  0  0
   -3.1549    0.1455    1.2201 C   0  0  0  0  0  0  0  0  0  0  0  0
   -6.0425   -0.2777    0.4526 H   0  0  0  0  0  0  0  0  0  0  0  0
   -5.5401   -1.9392    0.0529 H   0  0  0  0  0  0  0  0  0  0  0  0
   -5.3320   -1.3363    1.6963 H   0  0  0  0  0  0  0  0  0  0  0  0
   -4.0624   -1.1745   -1.7627 H   0  0  0  0  0  0  0  0  0  0  0  0
   -2.5659   -0.8630   -3.4104 H   0  0  0  0  0  0  0  0  0  0  0  0
   -1.6190    0.6089   -3.3270 H   0  0  0  0  0  0  0  0  0  0  0  0
   -0.8908   -0.9886   -2.9080 H   0  0  0  0  0  0  0  0  0  0  0  0
    1.0036   -1.4998   -1.2287 H   0  0  0  0  0  0  0  0  0  0  0  0
    0.3728   -1.7846    0.4117 H   0  0  0  0  0  0  0  0  0  0  0  0
    2.5086   -2.3301    1.2389 H   0  0  0  0  0  0  0  0  0  0  0  0
    2.8749   -2.6627   -0.4812 H   0  0  0  0  0  0  0  0  0  0  0  0
    5.3897   -1.5515    0.3878 H   0  0  0  0  0  0  0  0  0  0  0  0
    6.4971    0.6758    0.4748 H   0  0  0  0  0  0  0  0  0  0  0  0
    5.1379    2.7495    0.4262 H   0  0  0  0  0  0  0  0  0  0  0  0
    2.6747    2.6361    0.2704 H   0  0  0  0  0  0  0  0  0  0  0  0
   -0.1293    1.0408    2.1019 H   0  0  0  0  0  0  0  0  0  0  0  0
   -1.1508    2.4784    1.7764 H   0  0  0  0  0  0  0  0  0  0  0  0
   -1.6366    1.2646    2.9552 H   0  0  0  0  0  0  0  0  0  0  0  0
   -3.5502    0.2819    2.2264 H   0  0  0  0  0  0  0  0  0  0  0  0
  1  2  1  0
  2  3  2  0
  3  4  1  0
  4  5  1  0
  4  6  2  0
  6  7  1  0
  7  8  2  0
  7  9  2  0
  7 10  1  0
 10 11  1  0
 11 12  1  0
 12 13  1  0
 13 14  2  0
 14 15  1  0
 15 16  2  0
 16 17  1  0
 17 18  2  0
  6 19  1  0
 19 20  1  0
 19 21  2  0
 21  2  1  0
 18 10  1  0
 18 13  1  0
  1 22  1  0
  1 23  1  0
  1 24  1  0
  3 25  1  0
  5 26  1  0
  5 27  1  0
  5 28  1  0
 11 29  1  0
 11 30  1  0
 12 31  1  0
 12 32  1  0
 14 33  1  0
 15 34  1  0
 16 35  1  0
 17 36  1  0
 20 37  1  0
 20 38  1  0
 20 39  1  0
 21 40  1  0
M  END
$$$$
