
     RDKit          3D

 59 61  0  0  0  0  0  0  0  0999 V2000
   -6.9323   -1.5752   -1.4010 C   0  0  0  0  0  0  0  0  0  0  0  0
   -6.0608   -0.5879   -1.6874 C   0  0  0  0  0  0  0  0  0  0  0  0
   -4.5518   -0.6869   -1.9630 C   0  0  0  0  0  0  0  0  0  0  0  0
   -4.2360    0.0650   -3.2859 C   0  0  0  0  0  0  0  0  0  0  0  0
   -4.1475   -2.1613   -2.2453 C   0  0  0  0  0  0  0  0  0  0  0  0
   -3.7565   -0.0533   -0.7876 C   0  0  0  0  0  0  0  0  0  0  0  0
   -2.8858   -0.8274    0.0107 C   0  0  0  0  0  0  0  0  0  0  0  0
   -2.1441   -0.2995    1.1010 C   0  0  0  0  0  0  0  0  0  0  0  0
   -1.2703   -1.2794    1.8798 C   0  0  2  0  0  0  0  0  0  0  0  0
   -0.5920   -0.8860    3.1882 C   0  0  0  0  0  0  0  0  0  0  0  0
    0.6270   -0.0433    2.9319 C   0  0  0  0  0  0  0  0  0  0  0  0
    1.1180    0.6914    3.7894 O   0  0  0  0  0  0  0  0  0  0  0  0
    1.2825   -0.1847    1.6176 C   0  0  0  0  0  0  0  0  0  0  0  0
    0.7751   -1.1276    0.7253 C   0  0  0  0  0  0  0  0  0  0  0  0
    1.4080   -1.3420   -0.4977 C   0  0  0  0  0  0  0  0  0  0  0  0
    2.5279   -0.5790   -0.8392 C   0  0  0  0  0  0  0  0  0  0  0  0
    3.1347   -0.7770   -2.0488 O   0  0  0  0  0  0  0  0  0  0  0  0
    3.0470    0.3930    0.0318 C   0  0  0  0  0  0  0  0  0  0  0  0
    4.2678    1.2035   -0.3499 C   0  0  0  0  0  0  0  0  0  0  0  0
    5.5581    0.4616   -0.1077 C   0  0  0  0  0  0  0  0  0  0  0  0
    6.5433    0.7596    0.7598 C   0  0  0  0  0  0  0  0  0  0  0  0
    7.7878   -0.0857    0.8255 C   0  0  0  0  0  0  0  0  0  0  0  0
    6.5286    1.9119    1.7242 C   0  0  0  0  0  0  0  0  0  0  0  0
    2.4142    0.5715    1.2750 C   0  0  0  0  0  0  0  0  0  0  0  0
    2.9311    1.5080    2.1321 O   0  0  0  0  0  0  0  0  0  0  0  0
   -0.3236   -1.9052    0.9882 O   0  0  0  0  0  0  0  0  0  0  0  0
   -2.2897    1.0589    1.3849 C   0  0  0  0  0  0  0  0  0  0  0  0
   -1.5960    1.6248    2.4179 O   0  0  0  0  0  0  0  0  0  0  0  0
   -3.1367    1.8619    0.6219 C   0  0  0  0  0  0  0  0  0  0  0  0
   -3.8613    1.3073   -0.4450 C   0  0  0  0  0  0  0  0  0  0  0  0
   -4.6986    2.1277   -1.1556 O   0  0  0  0  0  0  0  0  0  0  0  0
   -6.6406   -2.6167   -1.3206 H   0  0  0  0  0  0  0  0  0  0  0  0
   -7.9870   -1.3502   -1.2320 H   0  0  0  0  0  0  0  0  0  0  0  0
   -6.4716    0.4217   -1.7374 H   0  0  0  0  0  0  0  0  0  0  0  0
   -4.6274    1.0878   -3.3024 H   0  0  0  0  0  0  0  0  0  0  0  0
   -3.1495    0.1295   -3.4563 H   0  0  0  0  0  0  0  0  0  0  0  0
   -4.6812   -0.4508   -4.1533 H   0  0  0  0  0  0  0  0  0  0  0  0
   -3.0858   -2.2403   -2.5050 H   0  0  0  0  0  0  0  0  0  0  0  0
   -4.3301   -2.8178   -1.3854 H   0  0  0  0  0  0  0  0  0  0  0  0
   -4.7099   -2.5741   -3.0909 H   0  0  0  0  0  0  0  0  0  0  0  0
   -2.7583   -1.8889   -0.1947 H   0  0  0  0  0  0  0  0  0  0  0  0
   -1.9635   -2.0834    2.1674 H   0  0  0  0  0  0  0  0  0  0  0  0
   -0.2328   -1.7875    3.7033 H   0  0  0  0  0  0  0  0  0  0  0  0
   -1.2799   -0.3610    3.8598 H   0  0  0  0  0  0  0  0  0  0  0  0
    1.0105   -2.0930   -1.1710 H   0  0  0  0  0  0  0  0  0  0  0  0
    2.6561   -1.4667   -2.5302 H   0  0  0  0  0  0  0  0  0  0  0  0
    4.2127    1.4619   -1.4167 H   0  0  0  0  0  0  0  0  0  0  0  0
    4.2453    2.1759    0.1544 H   0  0  0  0  0  0  0  0  0  0  0  0
    5.6858   -0.4056   -0.7555 H   0  0  0  0  0  0  0  0  0  0  0  0
    7.8937   -0.5296    1.8223 H   0  0  0  0  0  0  0  0  0  0  0  0
    8.6726    0.5321    0.6343 H   0  0  0  0  0  0  0  0  0  0  0  0
    7.7843   -0.8975    0.0888 H   0  0  0  0  0  0  0  0  0  0  0  0
    5.5890    2.4675    1.7352 H   0  0  0  0  0  0  0  0  0  0  0  0
    7.3264    2.6181    1.4693 H   0  0  0  0  0  0  0  0  0  0  0  0
    6.7024    1.5546    2.7422 H   0  0  0  0  0  0  0  0  0  0  0  0
    2.4144    1.4770    2.9702 H   0  0  0  0  0  0  0  0  0  0  0  0
   -1.9024    2.5322    2.5748 H   0  0  0  0  0  0  0  0  0  0  0  0
   -3.2365    2.9182    0.8597 H   0  0  0  0  0  0  0  0  0  0  0  0
   -4.6051    3.0414   -0.8398 H   0  0  0  0  0  0  0  0  0  0  0  0
  1  2  2  0
  2  3  1  0
  3  4  1  0
  3  5  1  0
  3  6  1  0
  6  7  2  0
  7  8  1  0
  8  9  1  0
  9 10  1  0
 10 11  1  0
 11 12  2  0
 11 13  1  0
 13 14  2  0
 14 15  1  0
 15 16  2  0
 16 17  1  0
 16 18  1  0
 18 19  1  0
 19 20  1  0
 20 21  2  3
 21 22  1  0
 21 23  1  0
 18 24  2  0
 24 25  1  0
 14 26  1  0
  8 27  2  0
 27 28  1  0
 27 29  1  0
 29 30  2  0
 30 31  1  0
 30  6  1  0
 26  9  1  0
 24 13  1  0
  1 32  1  0
  1 33  1  0
  2 34  1  0
  4 35  1  0
  4 36  1  0
  4 37  1  0
  5 38  1  0
  5 39  1  0
  5 40  1  0
  7 41  1  0
  9 42  1  1
 10 43  1  0
 10 44  1  0
 15 45  1  0
 17 46  1  0
 19 47  1  0
 19 48  1  0
 20 49  1  0
 22 50  1  0
 22 51  1  0
 22 52  1  0
 23 53  1  0
 23 54  1  0
 23 55  1  0
 25 56  1  0
 28 57  1  0
 29 58  1  0
 31 59  1  0
M  END
$$$$
