
     RDKit          3D

 36 37  0  0  0  0  0  0  0  0999 V2000
   -2.8986    1.8014   -1.1718 C   0  0  0  0  0  0  0  0  0  0  0  0
   -1.5511    1.1326   -1.4125 C   0  0  0  0  0  0  0  0  0  0  0  0
   -1.3452   -0.1920   -0.8157 N   0  0  0  0  0  0  0  0  0  0  0  0
   -2.1519   -1.2557   -1.4271 C   0  0  0  0  0  0  0  0  0  0  0  0
   -3.5297   -1.5753   -0.8202 C   0  0  0  0  0  0  0  0  0  0  0  0
   -4.1860   -2.5858   -1.5828 O   0  0  0  0  0  0  0  0  0  0  0  0
   -1.3310   -0.2335    0.6486 C   0  0  0  0  0  0  0  0  0  0  0  0
   -0.1839    0.5645    1.2094 C   0  0  0  0  0  0  0  0  0  0  0  0
   -0.3443    1.7177    1.9546 C   0  0  0  0  0  0  0  0  0  0  0  0
    1.1311    2.3848    2.4759 S   0  0  0  0  0  0  0  0  0  0  0  0
    2.0457    1.1393    1.7210 C   0  0  0  0  0  0  0  0  0  0  0  0
    3.4499    1.0048    1.7230 C   0  0  0  0  0  0  0  0  0  0  0  0
    4.0426   -0.0689    1.0446 C   0  0  0  0  0  0  0  0  0  0  0  0
    5.5335   -0.2401    1.0644 C   0  0  0  0  0  0  0  0  0  0  0  0
    3.2351   -1.0013    0.3992 C   0  0  0  0  0  0  0  0  0  0  0  0
    1.8427   -0.8634    0.4019 C   0  0  0  0  0  0  0  0  0  0  0  0
    1.2188    0.2203    1.0702 C   0  0  0  0  0  0  0  0  0  0  0  0
   -3.1350    1.8825   -0.1074 H   0  0  0  0  0  0  0  0  0  0  0  0
   -3.7078    1.2667   -1.6758 H   0  0  0  0  0  0  0  0  0  0  0  0
   -2.8822    2.8173   -1.5815 H   0  0  0  0  0  0  0  0  0  0  0  0
   -0.7623    1.8142   -1.0728 H   0  0  0  0  0  0  0  0  0  0  0  0
   -1.3904    1.0595   -2.4961 H   0  0  0  0  0  0  0  0  0  0  0  0
   -1.5576   -2.1788   -1.3807 H   0  0  0  0  0  0  0  0  0  0  0  0
   -2.2654   -1.0799   -2.5052 H   0  0  0  0  0  0  0  0  0  0  0  0
   -4.1817   -0.7000   -0.8121 H   0  0  0  0  0  0  0  0  0  0  0  0
   -3.4415   -1.9409    0.2076 H   0  0  0  0  0  0  0  0  0  0  0  0
   -3.6295   -3.3832   -1.5559 H   0  0  0  0  0  0  0  0  0  0  0  0
   -1.1949   -1.2687    0.9900 H   0  0  0  0  0  0  0  0  0  0  0  0
   -2.2818    0.1105    1.0728 H   0  0  0  0  0  0  0  0  0  0  0  0
   -1.2725    2.2054    2.2191 H   0  0  0  0  0  0  0  0  0  0  0  0
    4.0627    1.7347    2.2458 H   0  0  0  0  0  0  0  0  0  0  0  0
    5.8298   -0.8369    1.9325 H   0  0  0  0  0  0  0  0  0  0  0  0
    5.8818   -0.7407    0.1548 H   0  0  0  0  0  0  0  0  0  0  0  0
    6.0375    0.7309    1.1131 H   0  0  0  0  0  0  0  0  0  0  0  0
    3.6788   -1.8473   -0.1212 H   0  0  0  0  0  0  0  0  0  0  0  0
    1.2341   -1.5946   -0.1244 H   0  0  0  0  0  0  0  0  0  0  0  0
  1  2  1  0
  2  3  1  0
  3  4  1  0
  4  5  1  0
  5  6  1  0
  3  7  1  0
  7  8  1  0
  8  9  2  0
  9 10  1  0
 10 11  1  0
 11 12  2  0
 12 13  1  0
 13 14  1  0
 13 15  2  0
 15 16  1  0
 16 17  2  0
 17  8  1  0
 17 11  1  0
  1 18  1  0
  1 19  1  0
  1 20  1  0
  2 21  1  0
  2 22  1  0
  4 23  1  0
  4 24  1  0
  5 25  1  0
  5 26  1  0
  6 27  1  0
  7 28  1  0
  7 29  1  0
  9 30  1  0
 12 31  1  0
 14 32  1  0
 14 33  1  0
 14 34  1  0
 15 35  1  0
 16 36  1  0
M  END
$$$$
