
     RDKit          3D

 56 59  0  0  0  0  0  0  0  0999 V2000
   -4.8553    3.5699   -0.0017 C   0  0  0  0  0  0  0  0  0  0  0  0
   -5.4941    2.8502    1.1736 C   0  0  0  0  0  0  0  0  0  0  0  0
   -4.3026    1.7675    2.0340 S   0  0  0  0  0  0  0  0  0  0  0  0
   -4.1119    0.4658    0.8282 C   0  0  0  0  0  0  0  0  0  0  0  0
   -5.1831   -0.3355    0.4600 C   0  0  0  0  0  0  0  0  0  0  0  0
   -4.9886   -1.3479   -0.4734 C   0  0  0  0  0  0  0  0  0  0  0  0
   -3.7223   -1.5770   -1.0455 C   0  0  0  0  0  0  0  0  0  0  0  0
   -2.6108   -0.7866   -0.6908 C   0  0  0  0  0  0  0  0  0  0  0  0
   -2.8472    0.2261    0.2688 C   0  0  0  0  0  0  0  0  0  0  0  0
   -1.3200   -1.0164   -1.2523 N   0  0  0  0  0  0  0  0  0  0  0  0
   -0.3106    0.0564   -1.0957 C   0  0  0  0  0  0  0  0  0  0  0  0
    0.5553   -0.1506    0.1565 C   0  0  0  0  0  0  0  0  0  0  0  0
    1.6642    0.9079    0.2189 C   0  0  0  0  0  0  0  0  0  0  0  0
    2.4281    0.8684    1.4768 N   0  0  0  0  0  0  0  0  0  0  0  0
    3.2978    2.0602    1.6044 C   0  0  0  0  0  0  0  0  0  0  0  0
    4.5537    2.0476    0.6974 C   0  0  0  0  0  0  0  0  0  0  0  0
    5.3834    0.8300    0.7945 N   0  0  0  0  0  0  0  0  0  0  0  0
    6.1798    0.8278    2.0218 C   0  0  0  0  0  0  0  0  0  0  0  0
    4.5251   -0.3687    0.7111 C   0  0  0  0  0  0  0  0  0  0  0  0
    3.2695   -0.3398    1.6177 C   0  0  0  0  0  0  0  0  0  0  0  0
   -0.9520   -2.1444   -2.0441 C   0  0  0  0  0  0  0  0  0  0  0  0
    0.3937   -2.4276   -2.3754 C   0  0  0  0  0  0  0  0  0  0  0  0
    0.7664   -3.5391   -3.1417 C   0  0  0  0  0  0  0  0  0  0  0  0
   -0.1995   -4.4155   -3.6042 C   0  0  0  0  0  0  0  0  0  0  0  0
   -1.5327   -4.1757   -3.2945 C   0  0  0  0  0  0  0  0  0  0  0  0
   -1.9121   -3.0593   -2.5219 C   0  0  0  0  0  0  0  0  0  0  0  0
   -3.6579   -2.8863   -2.2438 S   0  0  0  0  0  0  0  0  0  0  0  0
   -4.5329    2.8727   -0.7814 H   0  0  0  0  0  0  0  0  0  0  0  0
   -3.9917    4.1650    0.3133 H   0  0  0  0  0  0  0  0  0  0  0  0
   -5.5808    4.2542   -0.4545 H   0  0  0  0  0  0  0  0  0  0  0  0
   -5.8455    3.5904    1.8998 H   0  0  0  0  0  0  0  0  0  0  0  0
   -6.3679    2.2774    0.8488 H   0  0  0  0  0  0  0  0  0  0  0  0
   -6.1675   -0.1940    0.8970 H   0  0  0  0  0  0  0  0  0  0  0  0
   -5.8376   -1.9683   -0.7545 H   0  0  0  0  0  0  0  0  0  0  0  0
   -2.0386    0.8568    0.6231 H   0  0  0  0  0  0  0  0  0  0  0  0
   -0.7850    1.0461   -1.0711 H   0  0  0  0  0  0  0  0  0  0  0  0
    0.3227    0.1286   -1.9896 H   0  0  0  0  0  0  0  0  0  0  0  0
    0.9861   -1.1562    0.1461 H   0  0  0  0  0  0  0  0  0  0  0  0
   -0.0601   -0.0941    1.0612 H   0  0  0  0  0  0  0  0  0  0  0  0
    2.3155    0.8103   -0.6574 H   0  0  0  0  0  0  0  0  0  0  0  0
    1.1781    1.8893    0.1399 H   0  0  0  0  0  0  0  0  0  0  0  0
    3.6143    2.1369    2.6526 H   0  0  0  0  0  0  0  0  0  0  0  0
    2.7196    2.9731    1.4139 H   0  0  0  0  0  0  0  0  0  0  0  0
    5.1622    2.9367    0.9059 H   0  0  0  0  0  0  0  0  0  0  0  0
    4.2372    2.1549   -0.3479 H   0  0  0  0  0  0  0  0  0  0  0  0
    5.5737    0.8442    2.9332 H   0  0  0  0  0  0  0  0  0  0  0  0
    6.8489    1.6955    2.0422 H   0  0  0  0  0  0  0  0  0  0  0  0
    6.8232   -0.0587    2.0569 H   0  0  0  0  0  0  0  0  0  0  0  0
    4.2073   -0.4831   -0.3329 H   0  0  0  0  0  0  0  0  0  0  0  0
    5.1127   -1.2687    0.9322 H   0  0  0  0  0  0  0  0  0  0  0  0
    2.6843   -1.2507    1.4561 H   0  0  0  0  0  0  0  0  0  0  0  0
    3.5900   -0.4014    2.6659 H   0  0  0  0  0  0  0  0  0  0  0  0
    1.2085   -1.7994   -2.0319 H   0  0  0  0  0  0  0  0  0  0  0  0
    1.8150   -3.7148   -3.3680 H   0  0  0  0  0  0  0  0  0  0  0  0
    0.0785   -5.2810   -4.1989 H   0  0  0  0  0  0  0  0  0  0  0  0
   -2.2867   -4.8692   -3.6620 H   0  0  0  0  0  0  0  0  0  0  0  0
  1  2  1  0
  2  3  1  0
  3  4  1  0
  4  5  2  0
  5  6  1  0
  6  7  2  0
  7  8  1  0
  8  9  2  0
  8 10  1  0
 10 11  1  0
 11 12  1  0
 12 13  1  0
 13 14  1  0
 14 15  1  0
 15 16  1  0
 16 17  1  0
 17 18  1  0
 17 19  1  0
 19 20  1  0
 10 21  1  0
 21 22  2  0
 22 23  1  0
 23 24  2  0
 24 25  1  0
 25 26  2  0
 26 27  1  0
  9  4  1  0
 20 14  1  0
 26 21  1  0
 27  7  1  0
  1 28  1  0
  1 29  1  0
  1 30  1  0
  2 31  1  0
  2 32  1  0
  5 33  1  0
  6 34  1  0
  9 35  1  0
 11 36  1  0
 11 37  1  0
 12 38  1  0
 12 39  1  0
 13 40  1  0
 13 41  1  0
 15 42  1  0
 15 43  1  0
 16 44  1  0
 16 45  1  0
 18 46  1  0
 18 47  1  0
 18 48  1  0
 19 49  1  0
 19 50  1  0
 20 51  1  0
 20 52  1  0
 22 53  1  0
 23 54  1  0
 24 55  1  0
 25 56  1  0
M  END
$$$$
