
     RDKit          3D

 40 42  0  0  0  0  0  0  0  0999 V2000
   -2.5151    0.0872    1.7449 C   0  0  0  0  0  0  0  0  0  0  0  0
   -2.9414   -0.2026    0.3733 N   0  0  0  0  0  0  0  0  0  0  0  0
   -2.0544   -0.8368   -0.5183 C   0  0  0  0  0  0  0  0  0  0  0  0
   -2.3633   -1.5674   -1.4568 O   0  0  0  0  0  0  0  0  0  0  0  0
   -0.5990   -0.6095   -0.3332 C   0  0  0  0  0  0  0  0  0  0  0  0
    0.2656   -1.7052   -0.2994 C   0  0  0  0  0  0  0  0  0  0  0  0
    1.6418   -1.5062   -0.1413 C   0  0  0  0  0  0  0  0  0  0  0  0
    2.1643   -0.2143   -0.0363 C   0  0  0  0  0  0  0  0  0  0  0  0
    3.5326    0.0698    0.1240 N   0  0  0  0  0  0  0  0  0  0  0  0
    4.5869   -0.8180    0.2558 C   0  0  0  0  0  0  0  0  0  0  0  0
    4.4922   -2.0409    0.2676 O   0  0  0  0  0  0  0  0  0  0  0  0
    5.8664   -0.1438    0.3959 C   0  0  0  0  0  0  0  0  0  0  0  0
    7.1458   -0.6435    0.5526 C   0  0  0  0  0  0  0  0  0  0  0  0
    8.0124    0.4719    0.6399 C   0  0  0  0  0  0  0  0  0  0  0  0
    7.2144    1.5862    0.5314 C   0  0  0  0  0  0  0  0  0  0  0  0
    5.9121    1.2290    0.3842 O   0  0  0  0  0  0  0  0  0  0  0  0
    1.2904    0.8807   -0.1024 C   0  0  0  0  0  0  0  0  0  0  0  0
   -0.0862    0.6885   -0.2547 C   0  0  0  0  0  0  0  0  0  0  0  0
   -4.3278    0.0395    0.0348 C   0  0  0  0  0  0  0  0  0  0  0  0
   -5.2479    0.4921    0.9990 C   0  0  0  0  0  0  0  0  0  0  0  0
   -6.5872    0.7498    0.6758 C   0  0  0  0  0  0  0  0  0  0  0  0
   -7.0391    0.5724   -0.6254 C   0  0  0  0  0  0  0  0  0  0  0  0
   -6.1488    0.1459   -1.6017 C   0  0  0  0  0  0  0  0  0  0  0  0
   -4.8101   -0.1101   -1.2749 C   0  0  0  0  0  0  0  0  0  0  0  0
   -1.4891   -0.2273    1.9452 H   0  0  0  0  0  0  0  0  0  0  0  0
   -2.5935    1.1629    1.9295 H   0  0  0  0  0  0  0  0  0  0  0  0
   -3.1401   -0.4727    2.4482 H   0  0  0  0  0  0  0  0  0  0  0  0
   -0.1270   -2.7150   -0.3988 H   0  0  0  0  0  0  0  0  0  0  0  0
    2.2778   -2.3854   -0.1168 H   0  0  0  0  0  0  0  0  0  0  0  0
    3.8031    1.0470    0.1580 H   0  0  0  0  0  0  0  0  0  0  0  0
    7.4068   -1.6929    0.5968 H   0  0  0  0  0  0  0  0  0  0  0  0
    9.0863    0.4645    0.7659 H   0  0  0  0  0  0  0  0  0  0  0  0
    7.4108    2.6499    0.5400 H   0  0  0  0  0  0  0  0  0  0  0  0
    1.6695    1.8979   -0.0415 H   0  0  0  0  0  0  0  0  0  0  0  0
   -0.7487    1.5476   -0.3237 H   0  0  0  0  0  0  0  0  0  0  0  0
   -4.9611    0.6549    2.0327 H   0  0  0  0  0  0  0  0  0  0  0  0
   -7.2743    1.0894    1.4467 H   0  0  0  0  0  0  0  0  0  0  0  0
   -8.0771    0.7694   -0.8794 H   0  0  0  0  0  0  0  0  0  0  0  0
   -6.4857    0.0112   -2.6263 H   0  0  0  0  0  0  0  0  0  0  0  0
   -4.1624   -0.4159   -2.0901 H   0  0  0  0  0  0  0  0  0  0  0  0
  1  2  1  0
  2  3  1  0
  3  4  2  0
  3  5  1  0
  5  6  2  0
  6  7  1  0
  7  8  2  0
  8  9  1  0
  9 10  1  0
 10 11  2  0
 10 12  1  0
 12 13  2  0
 13 14  1  0
 14 15  2  0
 15 16  1  0
  8 17  1  0
 17 18  2  0
  2 19  1  0
 19 20  2  0
 20 21  1  0
 21 22  2  0
 22 23  1  0
 23 24  2  0
 18  5  1  0
 24 19  1  0
 16 12  1  0
  1 25  1  0
  1 26  1  0
  1 27  1  0
  6 28  1  0
  7 29  1  0
  9 30  1  0
 13 31  1  0
 14 32  1  0
 15 33  1  0
 17 34  1  0
 18 35  1  0
 20 36  1  0
 21 37  1  0
 22 38  1  0
 23 39  1  0
 24 40  1  0
M  END
$$$$
