
     RDKit          3D

 55 57  0  0  0  0  0  0  0  0999 V2000
   -3.2878   -1.7749   -1.1245 C   0  0  0  0  0  0  0  0  0  0  0  0
   -3.0292   -0.8706   -0.0565 O   0  0  0  0  0  0  0  0  0  0  0  0
   -4.1043   -0.2185    0.4907 C   0  0  0  0  0  0  0  0  0  0  0  0
   -5.4460   -0.4785    0.1926 C   0  0  0  0  0  0  0  0  0  0  0  0
   -6.4659    0.2448    0.8336 C   0  0  0  0  0  0  0  0  0  0  0  0
   -7.9134    0.0016    0.5500 C   0  0  0  0  0  0  0  0  0  0  0  0
   -8.2975   -1.0462   -0.4617 C   0  0  0  0  0  0  0  0  0  0  0  0
   -8.7696    0.6551    1.1419 O   0  0  0  0  0  0  0  0  0  0  0  0
   -6.1347    1.2257    1.7802 C   0  0  0  0  0  0  0  0  0  0  0  0
   -4.8008    1.4892    2.0847 C   0  0  0  0  0  0  0  0  0  0  0  0
   -3.7984    0.7788    1.4296 C   0  0  0  0  0  0  0  0  0  0  0  0
   -2.4940    1.0320    1.7665 O   0  0  0  0  0  0  0  0  0  0  0  0
   -1.9395    2.0498    0.9248 C   0  0  0  0  0  0  0  0  0  0  0  0
   -0.5309    1.6676    0.4619 C   0  0  0  0  0  0  0  0  0  0  0  0
    0.2796    2.5266    0.1280 O   0  0  0  0  0  0  0  0  0  0  0  0
   -0.3301    0.2992    0.4380 N   0  0  0  0  0  0  0  0  0  0  0  0
    0.8110   -0.4099    0.0299 C   0  0  0  0  0  0  0  0  0  0  0  0
    0.7880   -1.7971    0.2023 C   0  0  0  0  0  0  0  0  0  0  0  0
    1.8858   -2.5785   -0.1668 C   0  0  0  0  0  0  0  0  0  0  0  0
    3.0236   -1.9873   -0.7232 C   0  0  0  0  0  0  0  0  0  0  0  0
    4.3290   -3.0473   -1.1105 Cl  0  0  0  0  0  0  0  0  0  0  0  0
    3.0459   -0.6042   -0.9091 C   0  0  0  0  0  0  0  0  0  0  0  0
    4.4409    0.2017   -1.6472 S   0  0  0  0  0  6  0  0  0  0  0  0
    4.7551   -0.4977   -2.8738 O   0  0  0  0  0  0  0  0  0  0  0  0
    4.1878    1.6267   -1.6732 O   0  0  0  0  0  0  0  0  0  0  0  0
    5.6832   -0.0633   -0.5169 N   0  0  0  0  0  0  0  0  0  0  0  0
    5.5572    0.6223    0.8078 C   0  0  0  0  0  0  0  0  0  0  0  0
    6.1060    2.0553    0.7700 C   0  0  0  0  0  0  0  0  0  0  0  0
    7.4542    2.0893    0.2801 O   0  0  0  0  0  0  0  0  0  0  0  0
    7.5184    1.5446   -1.0469 C   0  0  0  0  0  0  0  0  0  0  0  0
    7.0727    0.0807   -1.0497 C   0  0  0  0  0  0  0  0  0  0  0  0
    1.9412    0.1831   -0.5337 C   0  0  0  0  0  0  0  0  0  0  0  0
   -3.7898   -1.2715   -1.9574 H   0  0  0  0  0  0  0  0  0  0  0  0
   -3.8645   -2.6376   -0.7757 H   0  0  0  0  0  0  0  0  0  0  0  0
   -2.3243   -2.1436   -1.4896 H   0  0  0  0  0  0  0  0  0  0  0  0
   -5.7049   -1.2457   -0.5268 H   0  0  0  0  0  0  0  0  0  0  0  0
   -7.8881   -0.7942   -1.4433 H   0  0  0  0  0  0  0  0  0  0  0  0
   -9.3882   -1.0780   -0.5490 H   0  0  0  0  0  0  0  0  0  0  0  0
   -7.9552   -2.0317   -0.1352 H   0  0  0  0  0  0  0  0  0  0  0  0
   -6.9180    1.7849    2.2903 H   0  0  0  0  0  0  0  0  0  0  0  0
   -4.5489    2.2389    2.8298 H   0  0  0  0  0  0  0  0  0  0  0  0
   -1.8649    2.9674    1.5185 H   0  0  0  0  0  0  0  0  0  0  0  0
   -2.5392    2.2484    0.0267 H   0  0  0  0  0  0  0  0  0  0  0  0
   -1.1206   -0.2449    0.7835 H   0  0  0  0  0  0  0  0  0  0  0  0
   -0.0801   -2.2885    0.6371 H   0  0  0  0  0  0  0  0  0  0  0  0
    1.8467   -3.6549   -0.0119 H   0  0  0  0  0  0  0  0  0  0  0  0
    4.5214    0.6150    1.1586 H   0  0  0  0  0  0  0  0  0  0  0  0
    6.1370    0.0300    1.5271 H   0  0  0  0  0  0  0  0  0  0  0  0
    5.4884    2.7213    0.1597 H   0  0  0  0  0  0  0  0  0  0  0  0
    6.1166    2.4671    1.7846 H   0  0  0  0  0  0  0  0  0  0  0  0
    8.5590    1.6135   -1.3790 H   0  0  0  0  0  0  0  0  0  0  0  0
    6.9129    2.1596   -1.7217 H   0  0  0  0  0  0  0  0  0  0  0  0
    7.1580   -0.3529   -2.0507 H   0  0  0  0  0  0  0  0  0  0  0  0
    7.7298   -0.5064   -0.3956 H   0  0  0  0  0  0  0  0  0  0  0  0
    1.9795    1.2563   -0.6987 H   0  0  0  0  0  0  0  0  0  0  0  0
  1  2  1  0
  2  3  1  0
  3  4  2  0
  4  5  1  0
  5  6  1  0
  6  7  1  0
  6  8  2  0
  5  9  2  0
  9 10  1  0
 10 11  2  0
 11 12  1  0
 12 13  1  0
 13 14  1  0
 14 15  2  0
 14 16  1  0
 16 17  1  0
 17 18  2  0
 18 19  1  0
 19 20  2  0
 20 21  1  0
 20 22  1  0
 22 23  1  0
 23 24  2  0
 23 25  2  0
 23 26  1  0
 26 27  1  0
 27 28  1  0
 28 29  1  0
 29 30  1  0
 30 31  1  0
 22 32  2  0
 11  3  1  0
 32 17  1  0
 31 26  1  0
  1 33  1  0
  1 34  1  0
  1 35  1  0
  4 36  1  0
  7 37  1  0
  7 38  1  0
  7 39  1  0
  9 40  1  0
 10 41  1  0
 13 42  1  0
 13 43  1  0
 16 44  1  0
 18 45  1  0
 19 46  1  0
 27 47  1  0
 27 48  1  0
 28 49  1  0
 28 50  1  0
 30 51  1  0
 30 52  1  0
 31 53  1  0
 31 54  1  0
 32 55  1  0
M  END
$$$$
