
     RDKit          3D

 43 45  0  0  0  0  0  0  0  0999 V2000
    7.6451    0.4656    1.6907 O   0  0  0  0  0  0  0  0  0  0  0  0
    8.1031   -0.2496    0.8161 C   0  0  0  0  0  0  0  0  0  0  0  0
    9.4412   -0.3181    0.6383 O   0  0  0  0  0  0  0  0  0  0  0  0
    7.3656   -1.1586   -0.1365 C   0  0  0  0  0  0  0  0  0  0  0  0
    5.8726   -0.9364   -0.1689 C   0  0  0  0  0  0  0  0  0  0  0  0
    5.2821   -0.2096   -1.2092 C   0  0  0  0  0  0  0  0  0  0  0  0
    3.8983    0.0016   -1.2393 C   0  0  0  0  0  0  0  0  0  0  0  0
    3.0820   -0.5014   -0.2270 C   0  0  0  0  0  0  0  0  0  0  0  0
    1.6816   -0.3350   -0.1847 N   0  0  0  0  0  0  0  0  0  0  0  0
    0.8944    0.3867   -1.0635 C   0  0  0  0  0  0  0  0  0  0  0  0
    1.2755    1.0652   -2.0097 O   0  0  0  0  0  0  0  0  0  0  0  0
   -0.5677    0.3444   -0.7749 C   0  0  0  0  0  0  0  0  0  0  0  0
   -1.3348    1.4827   -1.0396 C   0  0  0  0  0  0  0  0  0  0  0  0
   -2.7091    1.4801   -0.7808 C   0  0  0  0  0  0  0  0  0  0  0  0
   -3.3371    0.3399   -0.2637 C   0  0  0  0  0  0  0  0  0  0  0  0
   -4.7213    0.4226   -0.0303 N   0  0  0  0  0  0  0  0  0  0  0  0
   -5.5679   -0.5437    0.4845 C   0  0  0  0  0  0  0  0  0  0  0  0
   -5.2315   -1.6683    0.8405 O   0  0  0  0  0  0  0  0  0  0  0  0
   -6.9441   -0.0868    0.5731 C   0  0  0  0  0  0  0  0  0  0  0  0
   -8.0877   -0.7223    1.0191 C   0  0  0  0  0  0  0  0  0  0  0  0
   -9.1503    0.2017    0.8779 C   0  0  0  0  0  0  0  0  0  0  0  0
   -8.5958    1.3458    0.3554 C   0  0  0  0  0  0  0  0  0  0  0  0
   -7.2605    1.1859    0.1659 O   0  0  0  0  0  0  0  0  0  0  0  0
   -2.5699   -0.8016   -0.0202 C   0  0  0  0  0  0  0  0  0  0  0  0
   -1.1927   -0.8043   -0.2783 C   0  0  0  0  0  0  0  0  0  0  0  0
    3.6719   -1.2254    0.8161 C   0  0  0  0  0  0  0  0  0  0  0  0
    5.0534   -1.4408    0.8470 C   0  0  0  0  0  0  0  0  0  0  0  0
    9.7953    0.3022    1.3103 H   0  0  0  0  0  0  0  0  0  0  0  0
    7.7761   -1.0087   -1.1424 H   0  0  0  0  0  0  0  0  0  0  0  0
    7.5696   -2.1971    0.1497 H   0  0  0  0  0  0  0  0  0  0  0  0
    5.8895    0.2032   -2.0121 H   0  0  0  0  0  0  0  0  0  0  0  0
    3.4907    0.5669   -2.0715 H   0  0  0  0  0  0  0  0  0  0  0  0
    1.2213   -0.7391    0.6199 H   0  0  0  0  0  0  0  0  0  0  0  0
   -0.8637    2.3757   -1.4466 H   0  0  0  0  0  0  0  0  0  0  0  0
   -3.2775    2.3826   -0.9929 H   0  0  0  0  0  0  0  0  0  0  0  0
   -5.1780    1.2993   -0.2606 H   0  0  0  0  0  0  0  0  0  0  0  0
   -8.1340   -1.7345    1.3985 H   0  0  0  0  0  0  0  0  0  0  0  0
  -10.1920    0.0524    1.1261 H   0  0  0  0  0  0  0  0  0  0  0  0
   -8.9968    2.3106    0.0760 H   0  0  0  0  0  0  0  0  0  0  0  0
   -3.0142   -1.7167    0.3600 H   0  0  0  0  0  0  0  0  0  0  0  0
   -0.6358   -1.7229   -0.1140 H   0  0  0  0  0  0  0  0  0  0  0  0
    3.0686   -1.6287    1.6250 H   0  0  0  0  0  0  0  0  0  0  0  0
    5.4845   -1.9969    1.6767 H   0  0  0  0  0  0  0  0  0  0  0  0
  1  2  2  0
  2  3  1  0
  2  4  1  0
  4  5  1  0
  5  6  2  0
  6  7  1  0
  7  8  2  0
  8  9  1  0
  9 10  1  0
 10 11  2  0
 10 12  1  0
 12 13  2  0
 13 14  1  0
 14 15  2  0
 15 16  1  0
 16 17  1  0
 17 18  2  0
 17 19  1  0
 19 20  2  0
 20 21  1  0
 21 22  2  0
 22 23  1  0
 15 24  1  0
 24 25  2  0
  8 26  1  0
 26 27  2  0
 27  5  1  0
 25 12  1  0
 23 19  1  0
  3 28  1  0
  4 29  1  0
  4 30  1  0
  6 31  1  0
  7 32  1  0
  9 33  1  0
 13 34  1  0
 14 35  1  0
 16 36  1  0
 20 37  1  0
 21 38  1  0
 22 39  1  0
 24 40  1  0
 25 41  1  0
 26 42  1  0
 27 43  1  0
M  END
$$$$
