
     RDKit          3D

 56 59  0  0  0  0  0  0  0  0999 V2000
    5.3245    3.4754    3.3281 C   0  0  0  0  0  0  0  0  0  0  0  0
    4.1552    3.9633    2.4900 C   0  0  0  0  0  0  0  0  0  0  0  0
    4.2434    3.4606    1.1578 O   0  0  0  0  0  0  0  0  0  0  0  0
    3.6442    2.2678    0.8646 C   0  0  0  0  0  0  0  0  0  0  0  0
    3.0700    1.3829    1.7768 C   0  0  0  0  0  0  0  0  0  0  0  0
    2.4950    0.1856    1.3328 C   0  0  0  0  0  0  0  0  0  0  0  0
    2.4975   -0.1417   -0.0270 C   0  0  0  0  0  0  0  0  0  0  0  0
    1.8983   -1.3878   -0.4857 C   0  0  0  0  0  0  0  0  0  0  0  0
    0.5714   -1.6925   -0.7596 C   0  0  0  0  0  0  0  0  0  0  0  0
   -0.6064   -0.8342   -0.6517 C   0  0  0  0  0  0  0  0  0  0  0  0
   -0.5472    0.3376   -0.2908 O   0  0  0  0  0  0  0  0  0  0  0  0
   -1.7821   -1.5005   -1.0070 N   0  0  0  0  0  0  0  0  0  0  0  0
   -2.9166   -0.8020   -1.3284 N   0  0  0  0  0  0  0  0  0  0  0  0
   -3.5609   -0.2111   -0.3621 C   0  0  0  0  0  0  0  0  0  0  0  0
   -3.2383   -0.3177    1.1119 C   0  0  0  0  0  0  0  0  0  0  0  0
   -4.7201    0.6410   -0.7038 C   0  0  0  0  0  0  0  0  0  0  0  0
   -4.6181    2.0199   -0.4868 C   0  0  0  0  0  0  0  0  0  0  0  0
   -5.6993    2.8482   -0.7912 C   0  0  0  0  0  0  0  0  0  0  0  0
   -6.8777    2.3004   -1.3017 C   0  0  0  0  0  0  0  0  0  0  0  0
   -6.9774    0.9236   -1.5171 C   0  0  0  0  0  0  0  0  0  0  0  0
   -5.8903    0.0936   -1.2355 C   0  0  0  0  0  0  0  0  0  0  0  0
   -6.0190   -1.2613   -1.3952 O   0  0  0  0  0  0  0  0  0  0  0  0
   -5.9158   -1.6094   -2.7773 C   0  0  0  0  0  0  0  0  0  0  0  0
    0.4833   -2.9916   -1.1889 N   0  0  0  0  0  0  0  0  0  0  0  0
    1.6961   -3.5126   -1.1898 N   0  0  0  0  0  0  0  0  0  0  0  0
    2.5892   -2.5730   -0.7548 N   0  0  0  0  0  0  0  0  0  0  0  0
    3.9678   -2.8763   -0.6157 C   0  0  0  0  0  0  0  0  0  0  0  0
    4.8293   -1.9844   -0.1262 N   0  0  0  0  0  0  0  0  0  0  0  0
    6.0516   -2.6527   -0.1290 O   0  0  0  0  0  0  0  0  0  0  0  0
    5.9167   -3.9492   -0.6145 N   0  0  0  0  0  0  0  0  0  0  0  0
    4.6269   -4.0822   -0.9213 C   0  0  0  0  0  0  0  0  0  0  0  0
    4.0822   -5.2006   -1.4366 N   0  0  0  0  0  0  0  0  0  0  0  0
    3.0695    0.7466   -0.9418 C   0  0  0  0  0  0  0  0  0  0  0  0
    3.6427    1.9397   -0.4937 C   0  0  0  0  0  0  0  0  0  0  0  0
    5.3376    2.3842    3.4020 H   0  0  0  0  0  0  0  0  0  0  0  0
    6.2745    3.7715    2.8696 H   0  0  0  0  0  0  0  0  0  0  0  0
    5.2782    3.8936    4.3382 H   0  0  0  0  0  0  0  0  0  0  0  0
    3.1872    3.7507    2.9580 H   0  0  0  0  0  0  0  0  0  0  0  0
    4.2162    5.0551    2.4144 H   0  0  0  0  0  0  0  0  0  0  0  0
    3.0566    1.5844    2.8421 H   0  0  0  0  0  0  0  0  0  0  0  0
    2.0486   -0.4857    2.0623 H   0  0  0  0  0  0  0  0  0  0  0  0
   -1.6321   -2.3243   -1.5868 H   0  0  0  0  0  0  0  0  0  0  0  0
   -2.9111   -1.3314    1.3600 H   0  0  0  0  0  0  0  0  0  0  0  0
   -4.1242   -0.0976    1.7159 H   0  0  0  0  0  0  0  0  0  0  0  0
   -2.4558    0.3971    1.3780 H   0  0  0  0  0  0  0  0  0  0  0  0
   -3.6988    2.4499   -0.0952 H   0  0  0  0  0  0  0  0  0  0  0  0
   -5.6239    3.9206   -0.6282 H   0  0  0  0  0  0  0  0  0  0  0  0
   -7.7228    2.9463   -1.5275 H   0  0  0  0  0  0  0  0  0  0  0  0
   -7.9043    0.5017   -1.8941 H   0  0  0  0  0  0  0  0  0  0  0  0
   -6.8157   -1.3073   -3.3231 H   0  0  0  0  0  0  0  0  0  0  0  0
   -5.8320   -2.6983   -2.8421 H   0  0  0  0  0  0  0  0  0  0  0  0
   -5.0255   -1.1719   -3.2435 H   0  0  0  0  0  0  0  0  0  0  0  0
    4.6195   -6.0612   -1.4271 H   0  0  0  0  0  0  0  0  0  0  0  0
    3.0725   -5.3295   -1.4767 H   0  0  0  0  0  0  0  0  0  0  0  0
    3.0790    0.5238   -2.0057 H   0  0  0  0  0  0  0  0  0  0  0  0
    4.0908    2.6228   -1.2117 H   0  0  0  0  0  0  0  0  0  0  0  0
  1  2  1  0
  2  3  1  0
  3  4  1  0
  4  5  2  0
  5  6  1  0
  6  7  2  0
  7  8  1  0
  8  9  2  0
  9 10  1  0
 10 11  2  0
 10 12  1  0
 12 13  1  0
 13 14  2  3
 14 15  1  0
 14 16  1  0
 16 17  2  0
 17 18  1  0
 18 19  2  0
 19 20  1  0
 20 21  2  0
 21 22  1  0
 22 23  1  0
  9 24  1  0
 24 25  2  0
 25 26  1  0
 26 27  1  0
 27 28  2  0
 28 29  1  0
 29 30  1  0
 30 31  2  0
 31 32  1  0
  7 33  1  0
 33 34  2  0
 34  4  1  0
 26  8  1  0
 31 27  1  0
 21 16  1  0
  1 35  1  0
  1 36  1  0
  1 37  1  0
  2 38  1  0
  2 39  1  0
  5 40  1  0
  6 41  1  0
 12 42  1  0
 15 43  1  0
 15 44  1  0
 15 45  1  0
 17 46  1  0
 18 47  1  0
 19 48  1  0
 20 49  1  0
 23 50  1  0
 23 51  1  0
 23 52  1  0
 32 53  1  0
 32 54  1  0
 33 55  1  0
 34 56  1  0
M  END
$$$$
