
     RDKit          3D

 59 63  0  0  0  0  0  0  0  0999 V2000
   -5.7952   -3.1476    0.5942 C   0  0  0  0  0  0  0  0  0  0  0  0
   -4.9220   -2.1162    1.2977 C   0  0  0  0  0  0  0  0  0  0  0  0
   -3.7417   -1.6359    0.4387 C   0  0  0  0  0  0  0  0  0  0  0  0
   -2.8126   -2.7341    0.2173 N   0  0  0  0  0  0  0  0  0  0  0  0
   -1.6571   -2.3357   -0.4585 C   0  0  0  0  0  0  0  0  0  0  0  0
   -1.1844   -3.2539   -1.3126 N   0  0  0  0  0  0  0  0  0  0  0  0
   -0.0291   -2.9540   -1.8983 C   0  0  0  0  0  0  0  0  0  0  0  0
    0.7134   -1.8734   -1.6485 N   0  0  0  0  0  0  0  0  0  0  0  0
    0.2497   -0.9819   -0.7459 C   0  0  0  0  0  0  0  0  0  0  0  0
    1.1597    0.0052   -0.3282 N   0  0  0  0  0  0  0  0  0  0  0  0
    1.7357   -0.3039    1.0129 C   0  0  0  0  0  0  0  0  0  0  0  0
    2.9056   -1.3144    0.9496 C   0  0  0  0  0  0  0  0  0  0  0  0
    3.9744   -0.8555    0.0354 N   0  0  0  0  0  0  0  0  0  0  0  0
    4.8069    0.1436    0.5633 C   0  0  0  0  0  0  0  0  0  0  0  0
    5.5505   -0.1144    1.7174 C   0  0  0  0  0  0  0  0  0  0  0  0
    6.3865    0.8677    2.2471 C   0  0  0  0  0  0  0  0  0  0  0  0
    6.4755    2.0937    1.6090 C   0  0  0  0  0  0  0  0  0  0  0  0
    5.7271    2.2755    0.4625 C   0  0  0  0  0  0  0  0  0  0  0  0
    4.9106    1.3349   -0.0649 N   0  0  0  0  0  0  0  0  0  0  0  0
    3.4477   -0.5722   -1.3211 C   0  0  0  0  0  0  0  0  0  0  0  0
    2.2173    0.3703   -1.3146 C   0  0  0  0  0  0  0  0  0  0  0  0
   -1.0334   -1.1103   -0.1835 C   0  0  0  0  0  0  0  0  0  0  0  0
   -1.7422   -0.1425    0.6276 N   0  0  0  0  0  0  0  0  0  0  0  0
   -1.3102    1.2432    0.7858 C   0  0  0  0  0  0  0  0  0  0  0  0
   -1.8951    2.1560   -0.2794 C   0  0  0  0  0  0  0  0  0  0  0  0
   -3.1025    2.8355   -0.0492 C   0  0  0  0  0  0  0  0  0  0  0  0
   -3.6577    3.6601   -1.0307 C   0  0  0  0  0  0  0  0  0  0  0  0
   -3.0085    3.8106   -2.2528 C   0  0  0  0  0  0  0  0  0  0  0  0
   -3.7576    4.9239   -3.5839 Br  0  0  0  0  0  0  0  0  0  0  0  0
   -1.8108    3.1452   -2.5009 C   0  0  0  0  0  0  0  0  0  0  0  0
   -1.2584    2.3210   -1.5172 C   0  0  0  0  0  0  0  0  0  0  0  0
   -3.0364   -0.4298    1.0984 C   0  0  0  0  0  0  0  0  0  0  0  0
   -3.6263    0.2978    1.9023 O   0  0  0  0  0  0  0  0  0  0  0  0
   -5.2494   -4.0766    0.4052 H   0  0  0  0  0  0  0  0  0  0  0  0
   -6.6608   -3.3934    1.2178 H   0  0  0  0  0  0  0  0  0  0  0  0
   -6.1653   -2.7622   -0.3611 H   0  0  0  0  0  0  0  0  0  0  0  0
   -5.5597   -1.2639    1.5628 H   0  0  0  0  0  0  0  0  0  0  0  0
   -4.5552   -2.5380    2.2419 H   0  0  0  0  0  0  0  0  0  0  0  0
   -4.1297   -1.2789   -0.5257 H   0  0  0  0  0  0  0  0  0  0  0  0
   -3.1794   -3.5482   -0.2675 H   0  0  0  0  0  0  0  0  0  0  0  0
    0.3569   -3.6604   -2.6247 H   0  0  0  0  0  0  0  0  0  0  0  0
    0.9697   -0.6785    1.7031 H   0  0  0  0  0  0  0  0  0  0  0  0
    2.0954    0.6394    1.4430 H   0  0  0  0  0  0  0  0  0  0  0  0
    3.2813   -1.5050    1.9611 H   0  0  0  0  0  0  0  0  0  0  0  0
    2.5364   -2.2805    0.5834 H   0  0  0  0  0  0  0  0  0  0  0  0
    5.5064   -1.0888    2.1921 H   0  0  0  0  0  0  0  0  0  0  0  0
    6.9687    0.6665    3.1413 H   0  0  0  0  0  0  0  0  0  0  0  0
    7.1173    2.8811    1.9863 H   0  0  0  0  0  0  0  0  0  0  0  0
    5.7638    3.2122   -0.0861 H   0  0  0  0  0  0  0  0  0  0  0  0
    4.2296   -0.1681   -1.9771 H   0  0  0  0  0  0  0  0  0  0  0  0
    3.1764   -1.5341   -1.7701 H   0  0  0  0  0  0  0  0  0  0  0  0
    1.7958    0.4395   -2.3257 H   0  0  0  0  0  0  0  0  0  0  0  0
    2.5394    1.3879   -1.0655 H   0  0  0  0  0  0  0  0  0  0  0  0
   -0.2332    1.3688    0.8361 H   0  0  0  0  0  0  0  0  0  0  0  0
   -1.6470    1.6035    1.7674 H   0  0  0  0  0  0  0  0  0  0  0  0
   -3.6225    2.7233    0.9014 H   0  0  0  0  0  0  0  0  0  0  0  0
   -4.5930    4.1755   -0.8301 H   0  0  0  0  0  0  0  0  0  0  0  0
   -1.2989    3.2591   -3.4526 H   0  0  0  0  0  0  0  0  0  0  0  0
   -0.3225    1.8109   -1.7257 H   0  0  0  0  0  0  0  0  0  0  0  0
  1  2  1  0
  2  3  1  0
  3  4  1  0
  4  5  1  0
  5  6  2  0
  6  7  1  0
  7  8  2  0
  8  9  1  0
  9 10  1  0
 10 11  1  0
 11 12  1  0
 12 13  1  0
 13 14  1  0
 14 15  2  0
 15 16  1  0
 16 17  2  0
 17 18  1  0
 18 19  2  0
 13 20  1  0
 20 21  1  0
  9 22  2  0
 22 23  1  0
 23 24  1  0
 24 25  1  0
 25 26  2  0
 26 27  1  0
 27 28  2  0
 28 29  1  0
 28 30  1  0
 30 31  2  0
 23 32  1  0
 32 33  2  0
 32  3  1  0
 22  5  1  0
 31 25  1  0
 21 10  1  0
 19 14  1  0
  1 34  1  0
  1 35  1  0
  1 36  1  0
  2 37  1  0
  2 38  1  0
  3 39  1  0
  4 40  1  0
  7 41  1  0
 11 42  1  0
 11 43  1  0
 12 44  1  0
 12 45  1  0
 15 46  1  0
 16 47  1  0
 17 48  1  0
 18 49  1  0
 20 50  1  0
 20 51  1  0
 21 52  1  0
 21 53  1  0
 24 54  1  0
 24 55  1  0
 26 56  1  0
 27 57  1  0
 30 58  1  0
 31 59  1  0
M  END
$$$$
