
     RDKit          3D

 40 41  0  0  0  0  0  0  0  0999 V2000
    6.1080    0.7868   -1.4440 C   0  0  0  0  0  0  0  0  0  0  0  0
    6.8616    0.3758    0.1485 S   0  0  0  0  0  0  0  0  0  0  0  0
    5.7023    1.2290    1.2622 C   0  0  0  0  0  0  0  0  0  0  0  0
    4.3125    0.6420    1.2513 C   0  0  0  0  0  0  0  0  0  0  0  0
    3.2400    1.3559    0.6961 C   0  0  0  0  0  0  0  0  0  0  0  0
    1.9504    0.8144    0.6896 C   0  0  0  0  0  0  0  0  0  0  0  0
    1.7194   -0.4540    1.2352 C   0  0  0  0  0  0  0  0  0  0  0  0
    0.3640   -1.0701    1.2554 C   0  0  0  0  0  0  0  0  0  0  0  0
    0.0660   -1.8811    2.1240 O   0  0  0  0  0  0  0  0  0  0  0  0
   -0.4938   -0.6981    0.2396 N   0  0  0  0  0  0  0  0  0  0  0  0
   -1.7939   -1.3326    0.0829 C   0  0  0  0  0  0  0  0  0  0  0  0
   -2.7951   -0.9025    1.1582 C   0  0  0  0  0  0  0  0  0  0  0  0
   -4.4634   -1.5919    0.8516 S   0  0  0  0  0  0  0  0  0  0  0  0
   -4.9632   -0.6310   -0.5643 C   0  0  0  0  0  0  0  0  0  0  0  0
   -5.2850   -1.2903   -1.7555 C   0  0  0  0  0  0  0  0  0  0  0  0
   -5.6836   -0.5634   -2.8806 C   0  0  0  0  0  0  0  0  0  0  0  0
   -5.7705    0.8253   -2.8097 C   0  0  0  0  0  0  0  0  0  0  0  0
   -6.3082    1.8112   -4.3297 Br  0  0  0  0  0  0  0  0  0  0  0  0
   -5.4690    1.4920   -1.6238 C   0  0  0  0  0  0  0  0  0  0  0  0
   -5.0699    0.7623   -0.5006 C   0  0  0  0  0  0  0  0  0  0  0  0
    2.7809   -1.1632    1.8069 C   0  0  0  0  0  0  0  0  0  0  0  0
    4.0682   -0.6211    1.8106 C   0  0  0  0  0  0  0  0  0  0  0  0
    6.7656    0.4435   -2.2473 H   0  0  0  0  0  0  0  0  0  0  0  0
    5.1431    0.2868   -1.5579 H   0  0  0  0  0  0  0  0  0  0  0  0
    5.9807    1.8680   -1.5417 H   0  0  0  0  0  0  0  0  0  0  0  0
    6.1018    1.1700    2.2812 H   0  0  0  0  0  0  0  0  0  0  0  0
    5.6828    2.2936    1.0037 H   0  0  0  0  0  0  0  0  0  0  0  0
    3.4000    2.3454    0.2722 H   0  0  0  0  0  0  0  0  0  0  0  0
    1.1361    1.4068    0.2828 H   0  0  0  0  0  0  0  0  0  0  0  0
   -0.1066   -0.2282   -0.5676 H   0  0  0  0  0  0  0  0  0  0  0  0
   -1.6470   -2.4189    0.1026 H   0  0  0  0  0  0  0  0  0  0  0  0
   -2.1437   -1.0533   -0.9163 H   0  0  0  0  0  0  0  0  0  0  0  0
   -2.8453    0.1889    1.2300 H   0  0  0  0  0  0  0  0  0  0  0  0
   -2.4739   -1.2639    2.1403 H   0  0  0  0  0  0  0  0  0  0  0  0
   -5.2280   -2.3751   -1.8175 H   0  0  0  0  0  0  0  0  0  0  0  0
   -5.9275   -1.0897   -3.7996 H   0  0  0  0  0  0  0  0  0  0  0  0
   -5.5490    2.5740   -1.5594 H   0  0  0  0  0  0  0  0  0  0  0  0
   -4.8585    1.2921    0.4251 H   0  0  0  0  0  0  0  0  0  0  0  0
    2.6089   -2.1431    2.2489 H   0  0  0  0  0  0  0  0  0  0  0  0
    4.8827   -1.1924    2.2535 H   0  0  0  0  0  0  0  0  0  0  0  0
  1  2  1  0
  2  3  1  0
  3  4  1  0
  4  5  2  0
  5  6  1  0
  6  7  2  0
  7  8  1  0
  8  9  2  0
  8 10  1  0
 10 11  1  0
 11 12  1  0
 12 13  1  0
 13 14  1  0
 14 15  2  0
 15 16  1  0
 16 17  2  0
 17 18  1  0
 17 19  1  0
 19 20  2  0
  7 21  1  0
 21 22  2  0
 22  4  1  0
 20 14  1  0
  1 23  1  0
  1 24  1  0
  1 25  1  0
  3 26  1  0
  3 27  1  0
  5 28  1  0
  6 29  1  0
 10 30  1  0
 11 31  1  0
 11 32  1  0
 12 33  1  0
 12 34  1  0
 15 35  1  0
 16 36  1  0
 19 37  1  0
 20 38  1  0
 21 39  1  0
 22 40  1  0
M  END
$$$$
