
     RDKit          3D

 56 58  0  0  0  0  0  0  0  0999 V2000
   -5.4582   -1.9071    1.7028 C   0  0  0  0  0  0  0  0  0  0  0  0
   -4.4224   -2.2435    0.7767 O   0  0  0  0  0  0  0  0  0  0  0  0
   -4.8231   -1.9652   -0.5006 C   0  0  0  0  0  0  0  0  0  0  0  0
   -5.5328   -2.9473   -1.1985 C   0  0  0  0  0  0  0  0  0  0  0  0
   -5.9816   -2.6935   -2.4930 C   0  0  0  0  0  0  0  0  0  0  0  0
   -5.7243   -1.4583   -3.0914 C   0  0  0  0  0  0  0  0  0  0  0  0
   -5.0051   -0.4805   -2.3997 C   0  0  0  0  0  0  0  0  0  0  0  0
   -4.5265   -0.7436   -1.1141 C   0  0  0  0  0  0  0  0  0  0  0  0
   -3.7542    0.3197   -0.4349 C   0  0  0  0  0  0  0  0  0  0  0  0
   -4.2284    1.4567   -0.3994 O   0  0  0  0  0  0  0  0  0  0  0  0
   -2.3756   -0.0537    0.1000 C   0  0  0  0  0  0  0  0  0  0  0  0
   -1.7728    1.1092    0.6840 O   0  0  0  0  0  0  0  0  0  0  0  0
   -0.4864    1.3507    0.3403 C   0  0  0  0  0  0  0  0  0  0  0  0
    0.2290    0.6457   -0.3539 O   0  0  0  0  0  0  0  0  0  0  0  0
   -0.0414    2.6206    0.9587 C   0  0  0  0  0  0  0  0  0  0  0  0
   -0.4751    2.9623    2.2502 C   0  0  0  0  0  0  0  0  0  0  0  0
   -0.0145    4.1272    2.8575 C   0  0  0  0  0  0  0  0  0  0  0  0
    0.8767    4.9563    2.1776 C   0  0  0  0  0  0  0  0  0  0  0  0
    1.3110    4.6224    0.8913 C   0  0  0  0  0  0  0  0  0  0  0  0
    0.8648    3.4479    0.2773 C   0  0  0  0  0  0  0  0  0  0  0  0
    1.1926    3.1120   -1.0103 O   0  0  0  0  0  0  0  0  0  0  0  0
    2.5424    3.3112   -1.4042 C   0  0  0  0  0  0  0  0  0  0  0  0
    3.5753    2.3589   -0.7848 C   0  0  0  0  0  0  0  0  0  0  0  0
    4.7325    2.7334   -0.6014 O   0  0  0  0  0  0  0  0  0  0  0  0
    3.0733    1.0905   -0.5507 N   0  0  0  0  0  0  0  0  0  0  0  0
    3.7748   -0.0475   -0.1092 C   0  0  0  0  0  0  0  0  0  0  0  0
    3.0400   -1.2284    0.0462 C   0  0  0  0  0  0  0  0  0  0  0  0
    3.6618   -2.4133    0.4526 C   0  0  0  0  0  0  0  0  0  0  0  0
    5.0356   -2.4415    0.6984 C   0  0  0  0  0  0  0  0  0  0  0  0
    5.8680   -3.9340    1.1964 S   0  0  0  0  0  0  0  0  0  0  0  0
    5.5157   -4.9625   -0.2453 C   0  0  0  0  0  0  0  0  0  0  0  0
    4.2166   -5.3681   -0.2394 F   0  0  0  0  0  0  0  0  0  0  0  0
    6.2668   -6.0942   -0.1973 F   0  0  0  0  0  0  0  0  0  0  0  0
    5.7648   -1.2585    0.5762 C   0  0  0  0  0  0  0  0  0  0  0  0
    5.1417   -0.0725    0.1644 C   0  0  0  0  0  0  0  0  0  0  0  0
   -5.1177   -2.1860    2.7057 H   0  0  0  0  0  0  0  0  0  0  0  0
   -6.3833   -2.4633    1.4910 H   0  0  0  0  0  0  0  0  0  0  0  0
   -5.6508   -0.8305    1.6949 H   0  0  0  0  0  0  0  0  0  0  0  0
   -5.7579   -3.9003   -0.7273 H   0  0  0  0  0  0  0  0  0  0  0  0
   -6.5459   -3.4486   -3.0336 H   0  0  0  0  0  0  0  0  0  0  0  0
   -6.0863   -1.2548   -4.0955 H   0  0  0  0  0  0  0  0  0  0  0  0
   -4.8161    0.4863   -2.8645 H   0  0  0  0  0  0  0  0  0  0  0  0
   -2.4471   -0.8081    0.8872 H   0  0  0  0  0  0  0  0  0  0  0  0
   -1.7928   -0.4489   -0.7385 H   0  0  0  0  0  0  0  0  0  0  0  0
   -1.1633    2.3176    2.7930 H   0  0  0  0  0  0  0  0  0  0  0  0
   -0.3510    4.3950    3.8570 H   0  0  0  0  0  0  0  0  0  0  0  0
    1.2289    5.8716    2.6479 H   0  0  0  0  0  0  0  0  0  0  0  0
    1.9716    5.3194    0.3834 H   0  0  0  0  0  0  0  0  0  0  0  0
    2.5788    3.1346   -2.4867 H   0  0  0  0  0  0  0  0  0  0  0  0
    2.8622    4.3478   -1.2600 H   0  0  0  0  0  0  0  0  0  0  0  0
    2.0673    0.9670   -0.7023 H   0  0  0  0  0  0  0  0  0  0  0  0
    1.9704   -1.2429   -0.1435 H   0  0  0  0  0  0  0  0  0  0  0  0
    3.0554   -3.3061    0.5732 H   0  0  0  0  0  0  0  0  0  0  0  0
    5.7284   -4.4447   -1.1856 H   0  0  0  0  0  0  0  0  0  0  0  0
    6.8292   -1.2345    0.7960 H   0  0  0  0  0  0  0  0  0  0  0  0
    5.7591    0.8179    0.0777 H   0  0  0  0  0  0  0  0  0  0  0  0
  1  2  1  0
  2  3  1  0
  3  4  2  0
  4  5  1  0
  5  6  2  0
  6  7  1  0
  7  8  2  0
  8  9  1  0
  9 10  2  0
  9 11  1  0
 11 12  1  0
 12 13  1  0
 13 14  2  0
 13 15  1  0
 15 16  2  0
 16 17  1  0
 17 18  2  0
 18 19  1  0
 19 20  2  0
 20 21  1  0
 21 22  1  0
 22 23  1  0
 23 24  2  0
 23 25  1  0
 25 26  1  0
 26 27  2  0
 27 28  1  0
 28 29  2  0
 29 30  1  0
 30 31  1  0
 31 32  1  0
 31 33  1  0
 29 34  1  0
 34 35  2  0
  8  3  1  0
 20 15  1  0
 35 26  1  0
  1 36  1  0
  1 37  1  0
  1 38  1  0
  4 39  1  0
  5 40  1  0
  6 41  1  0
  7 42  1  0
 11 43  1  0
 11 44  1  0
 16 45  1  0
 17 46  1  0
 18 47  1  0
 19 48  1  0
 22 49  1  0
 22 50  1  0
 25 51  1  0
 27 52  1  0
 28 53  1  0
 31 54  1  0
 34 55  1  0
 35 56  1  0
M  END
$$$$
