
     RDKit          3D

 79 84  0  0  0  0  0  0  0  0999 V2000
    0.3246   -4.7761   -2.1844 C   0  0  0  0  0  0  0  0  0  0  0  0
    1.2185   -4.9976   -1.2058 C   0  0  0  0  0  0  0  0  0  0  0  0
    1.6933   -6.3843   -0.8751 C   0  0  0  0  0  0  0  0  0  0  0  0
    1.8164   -3.8478   -0.4184 C   0  0  0  0  0  0  0  0  0  0  0  0
    1.4274   -3.8373    1.0749 C   0  0  1  0  0  0  0  0  0  0  0  0
    2.1392   -4.8505    1.7971 O   0  0  0  0  0  0  0  0  0  0  0  0
    1.7353   -2.4790    1.7186 C   0  0  0  0  0  0  0  0  0  0  0  0
    0.9333   -1.4615    1.1126 O   0  0  0  0  0  0  0  0  0  0  0  0
    0.2364   -0.6601    1.9724 C   0  0  0  0  0  0  0  0  0  0  0  0
   -0.5268   -1.2210    3.0095 C   0  0  0  0  0  0  0  0  0  0  0  0
   -1.1870   -0.3700    3.8658 C   0  0  0  0  0  0  0  0  0  0  0  0
   -1.1236    0.9897    3.7140 C   0  0  0  0  0  0  0  0  0  0  0  0
   -0.4109    1.5713    2.6879 C   0  0  0  0  0  0  0  0  0  0  0  0
    0.2625    0.7440    1.7509 C   0  0  0  0  0  0  0  0  0  0  0  0
    1.0783    1.4117    0.6055 C   0  0  0  0  0  0  0  0  0  0  0  0
    0.4726    2.7539    0.0751 C   0  0  0  0  0  0  0  0  0  0  0  0
    1.2895    3.8963   -0.0950 C   0  0  0  0  0  0  0  0  0  0  0  0
    0.7104    5.0706   -0.5264 C   0  0  0  0  0  0  0  0  0  0  0  0
   -0.6304    5.1631   -0.7890 C   0  0  0  0  0  0  0  0  0  0  0  0
   -1.4665    4.0743   -0.6838 C   0  0  0  0  0  0  0  0  0  0  0  0
   -0.9086    2.8450   -0.3005 C   0  0  0  0  0  0  0  0  0  0  0  0
   -1.6420    1.6925   -0.2067 O   0  0  0  0  0  0  0  0  0  0  0  0
   -2.8127    1.5213   -1.0151 C   0  0  0  0  0  0  0  0  0  0  0  0
   -2.6138    0.3236   -1.9601 C   0  0  2  0  0  0  0  0  0  0  0  0
   -1.6567    0.7095   -2.9628 O   0  0  0  0  0  0  0  0  0  0  0  0
   -3.9391   -0.0430   -2.6503 C   0  0  0  0  0  0  0  0  0  0  0  0
   -3.9751   -1.2820   -3.5375 C   0  0  0  0  0  0  0  0  0  0  0  0
   -2.9324   -2.0977   -3.7686 C   0  0  0  0  0  0  0  0  0  0  0  0
   -5.3183   -1.5570   -4.1610 C   0  0  0  0  0  0  0  0  0  0  0  0
   -0.9998    6.4201   -1.1595 O   0  0  0  0  0  0  0  0  0  0  0  0
    0.2725    7.1001   -1.1305 C   0  0  0  0  0  0  0  0  0  0  0  0
    1.3611    6.2502   -0.7191 O   0  0  0  0  0  0  0  0  0  0  0  0
    1.3057    0.5019   -0.6792 C   0  0  0  0  0  0  0  0  0  0  0  0
    0.4869    0.1035   -1.4947 O   0  0  0  0  0  0  0  0  0  0  0  0
    2.6703    0.2464   -0.7943 N   0  0  0  0  0  0  0  0  0  0  0  0
    3.3879    0.8237    0.2344 C   0  0  0  0  0  0  0  0  0  0  0  0
    4.7482    0.7400    0.4359 C   0  0  0  0  0  0  0  0  0  0  0  0
    5.2607    1.3863    1.5561 C   0  0  0  0  0  0  0  0  0  0  0  0
    6.5768    1.3218    1.8019 F   0  0  0  0  0  0  0  0  0  0  0  0
    4.4341    2.0925    2.4405 C   0  0  0  0  0  0  0  0  0  0  0  0
    3.0559    2.1640    2.2156 C   0  0  0  0  0  0  0  0  0  0  0  0
    2.5385    1.5231    1.0946 C   0  0  0  0  0  0  0  0  0  0  0  0
   -1.8221    1.6561    4.6712 O   0  0  0  0  0  0  0  0  0  0  0  0
   -2.3442    0.5509    5.4398 C   0  0  0  0  0  0  0  0  0  0  0  0
   -1.9431   -0.7401    4.9328 O   0  0  0  0  0  0  0  0  0  0  0  0
   -0.1010   -5.5872   -2.7656 H   0  0  0  0  0  0  0  0  0  0  0  0
   -0.0178   -3.7734   -2.4273 H   0  0  0  0  0  0  0  0  0  0  0  0
    1.3170   -6.7007    0.1039 H   0  0  0  0  0  0  0  0  0  0  0  0
    1.3548   -7.1156   -1.6160 H   0  0  0  0  0  0  0  0  0  0  0  0
    2.7874   -6.4166   -0.8641 H   0  0  0  0  0  0  0  0  0  0  0  0
    1.5054   -2.9054   -0.8840 H   0  0  0  0  0  0  0  0  0  0  0  0
    2.9072   -3.8970   -0.5197 H   0  0  0  0  0  0  0  0  0  0  0  0
    0.3572   -4.0476    1.1787 H   0  0  0  0  0  0  0  0  0  0  0  0
    3.0776   -4.7998    1.5477 H   0  0  0  0  0  0  0  0  0  0  0  0
    1.6325   -2.5431    2.8094 H   0  0  0  0  0  0  0  0  0  0  0  0
    2.7862   -2.2180    1.5429 H   0  0  0  0  0  0  0  0  0  0  0  0
   -0.6066   -2.2955    3.1469 H   0  0  0  0  0  0  0  0  0  0  0  0
   -0.3948    2.6551    2.6102 H   0  0  0  0  0  0  0  0  0  0  0  0
    2.3581    3.8884    0.0919 H   0  0  0  0  0  0  0  0  0  0  0  0
   -2.5201    4.2100   -0.8754 H   0  0  0  0  0  0  0  0  0  0  0  0
   -3.0700    2.4030   -1.6115 H   0  0  0  0  0  0  0  0  0  0  0  0
   -3.6391    1.3216   -0.3223 H   0  0  0  0  0  0  0  0  0  0  0  0
   -2.2098   -0.5346   -1.4074 H   0  0  0  0  0  0  0  0  0  0  0  0
   -0.7820    0.5975   -2.5254 H   0  0  0  0  0  0  0  0  0  0  0  0
   -4.2549    0.8097   -3.2718 H   0  0  0  0  0  0  0  0  0  0  0  0
   -4.7041   -0.1826   -1.8732 H   0  0  0  0  0  0  0  0  0  0  0  0
   -3.0180   -2.9655   -4.4207 H   0  0  0  0  0  0  0  0  0  0  0  0
   -1.9509   -1.9148   -3.3421 H   0  0  0  0  0  0  0  0  0  0  0  0
   -5.2969   -2.4272   -4.8293 H   0  0  0  0  0  0  0  0  0  0  0  0
   -5.6515   -0.6932   -4.7469 H   0  0  0  0  0  0  0  0  0  0  0  0
   -6.0612   -1.7505   -3.3827 H   0  0  0  0  0  0  0  0  0  0  0  0
    0.4898    7.4753   -2.1352 H   0  0  0  0  0  0  0  0  0  0  0  0
    0.2112    7.9472   -0.4396 H   0  0  0  0  0  0  0  0  0  0  0  0
    3.0473   -0.3092   -1.5463 H   0  0  0  0  0  0  0  0  0  0  0  0
    5.4021    0.1941   -0.2310 H   0  0  0  0  0  0  0  0  0  0  0  0
    4.8763    2.5769    3.3057 H   0  0  0  0  0  0  0  0  0  0  0  0
    2.4164    2.7091    2.9040 H   0  0  0  0  0  0  0  0  0  0  0  0
   -1.9927    0.6431    6.4741 H   0  0  0  0  0  0  0  0  0  0  0  0
   -3.4383    0.6039    5.4328 H   0  0  0  0  0  0  0  0  0  0  0  0
  1  2  2  0
  2  3  1  0
  2  4  1  0
  4  5  1  0
  5  6  1  0
  5  7  1  0
  7  8  1  0
  8  9  1  0
  9 10  2  0
 10 11  1  0
 11 12  2  0
 12 13  1  0
 13 14  2  0
 14 15  1  0
 15 16  1  0
 16 17  2  0
 17 18  1  0
 18 19  2  0
 19 20  1  0
 20 21  2  0
 21 22  1  0
 22 23  1  0
 23 24  1  0
 24 25  1  0
 24 26  1  0
 26 27  1  0
 27 28  2  0
 27 29  1  0
 19 30  1  0
 30 31  1  0
 31 32  1  0
 15 33  1  0
 33 34  2  0
 33 35  1  0
 35 36  1  0
 36 37  2  0
 37 38  1  0
 38 39  1  0
 38 40  2  0
 40 41  1  0
 41 42  2  0
 12 43  1  0
 43 44  1  0
 44 45  1  0
 14  9  1  0
 42 15  1  0
 45 11  1  0
 21 16  1  0
 42 36  1  0
 32 18  1  0
  1 46  1  0
  1 47  1  0
  3 48  1  0
  3 49  1  0
  3 50  1  0
  4 51  1  0
  4 52  1  0
  5 53  1  6
  6 54  1  0
  7 55  1  0
  7 56  1  0
 10 57  1  0
 13 58  1  0
 17 59  1  0
 20 60  1  0
 23 61  1  0
 23 62  1  0
 24 63  1  1
 25 64  1  0
 26 65  1  0
 26 66  1  0
 28 67  1  0
 28 68  1  0
 29 69  1  0
 29 70  1  0
 29 71  1  0
 31 72  1  0
 31 73  1  0
 35 74  1  0
 37 75  1  0
 40 76  1  0
 41 77  1  0
 44 78  1  0
 44 79  1  0
M  END
$$$$
