
     RDKit          3D

 36 38  0  0  0  0  0  0  0  0999 V2000
   -2.7050    0.8617   -2.2559 C   0  0  0  0  0  0  0  0  0  0  0  0
   -2.2794    0.2944   -0.9375 C   0  0  0  0  0  0  0  0  0  0  0  0
   -0.9554    0.2556   -0.6690 N   0  0  0  0  0  0  0  0  0  0  0  0
   -0.6127   -0.2536    0.5438 C   0  0  0  0  0  0  0  0  0  0  0  0
    1.1391   -0.3028    0.9115 S   0  0  0  0  0  6  0  0  0  0  0  0
    1.3823    0.6195    2.0116 O   0  0  0  0  0  0  0  0  0  0  0  0
    1.5303   -1.7028    0.9943 O   0  0  0  0  0  0  0  0  0  0  0  0
    1.8746    0.3902   -0.5634 C   0  0  0  0  0  0  0  0  0  0  0  0
    3.3768    0.4235   -0.4141 C   0  0  0  0  0  0  0  0  0  0  0  0
    4.0129    1.5456    0.1387 C   0  0  0  0  0  0  0  0  0  0  0  0
    5.4023    1.5752    0.2786 C   0  0  0  0  0  0  0  0  0  0  0  0
    6.1634    0.4827   -0.1299 C   0  0  0  0  0  0  0  0  0  0  0  0
    7.8751    0.5207    0.0408 Cl  0  0  0  0  0  0  0  0  0  0  0  0
    5.5465   -0.6412   -0.6739 C   0  0  0  0  0  0  0  0  0  0  0  0
    4.1572   -0.6717   -0.8148 C   0  0  0  0  0  0  0  0  0  0  0  0
   -1.4262   -0.7212    1.5126 N   0  0  0  0  0  0  0  0  0  0  0  0
   -2.7157   -0.6632    1.1775 C   0  0  0  0  0  0  0  0  0  0  0  0
   -3.1964   -0.1731   -0.0253 C   0  0  0  0  0  0  0  0  0  0  0  0
   -4.6861   -0.2090   -0.0661 C   0  0  0  0  0  0  0  0  0  0  0  0
   -4.9918   -1.1993    1.0691 C   0  0  0  0  0  0  0  0  0  0  0  0
   -3.8440   -1.0752    2.0803 C   0  0  0  0  0  0  0  0  0  0  0  0
   -3.3685    1.7188   -2.1052 H   0  0  0  0  0  0  0  0  0  0  0  0
   -1.8373    1.2018   -2.8305 H   0  0  0  0  0  0  0  0  0  0  0  0
   -3.2258    0.1013   -2.8461 H   0  0  0  0  0  0  0  0  0  0  0  0
    1.4836    1.4024   -0.7078 H   0  0  0  0  0  0  0  0  0  0  0  0
    1.5907   -0.2285   -1.4207 H   0  0  0  0  0  0  0  0  0  0  0  0
    3.4309    2.4013    0.4775 H   0  0  0  0  0  0  0  0  0  0  0  0
    5.8817    2.4485    0.7128 H   0  0  0  0  0  0  0  0  0  0  0  0
    6.1384   -1.4987   -0.9828 H   0  0  0  0  0  0  0  0  0  0  0  0
    3.6890   -1.5639   -1.2276 H   0  0  0  0  0  0  0  0  0  0  0  0
   -5.0950    0.7824    0.1539 H   0  0  0  0  0  0  0  0  0  0  0  0
   -5.0754   -0.5715   -1.0215 H   0  0  0  0  0  0  0  0  0  0  0  0
   -5.9714   -1.0234    1.5244 H   0  0  0  0  0  0  0  0  0  0  0  0
   -5.0032   -2.2201    0.6621 H   0  0  0  0  0  0  0  0  0  0  0  0
   -3.6436   -2.0207    2.5907 H   0  0  0  0  0  0  0  0  0  0  0  0
   -4.0419   -0.2855    2.8121 H   0  0  0  0  0  0  0  0  0  0  0  0
  1  2  1  0
  2  3  2  0
  3  4  1  0
  4  5  1  0
  5  6  2  0
  5  7  2  0
  5  8  1  0
  8  9  1  0
  9 10  2  0
 10 11  1  0
 11 12  2  0
 12 13  1  0
 12 14  1  0
 14 15  2  0
  4 16  2  0
 16 17  1  0
 17 18  2  0
 18 19  1  0
 19 20  1  0
 20 21  1  0
 18  2  1  0
 15  9  1  0
 21 17  1  0
  1 22  1  0
  1 23  1  0
  1 24  1  0
  8 25  1  0
  8 26  1  0
 10 27  1  0
 11 28  1  0
 14 29  1  0
 15 30  1  0
 19 31  1  0
 19 32  1  0
 20 33  1  0
 20 34  1  0
 21 35  1  0
 21 36  1  0
M  END
$$$$
