
     RDKit          3D

 54 57  0  0  0  0  0  0  0  0999 V2000
    7.7399    2.8855    0.6493 C   0  0  0  0  0  0  0  0  0  0  0  0
    7.5463    1.4964    0.2358 N   0  0  0  0  0  0  0  0  0  0  0  0
    8.5928    0.5636    0.6500 C   0  0  0  0  0  0  0  0  0  0  0  0
    6.2431    1.0231    0.0441 C   0  0  0  0  0  0  0  0  0  0  0  0
    5.9443   -0.3514   -0.0084 C   0  0  0  0  0  0  0  0  0  0  0  0
    4.6426   -0.8298   -0.2186 C   0  0  0  0  0  0  0  0  0  0  0  0
    3.5945    0.0669   -0.3967 C   0  0  0  0  0  0  0  0  0  0  0  0
    2.2120   -0.4001   -0.6268 C   0  0  0  0  0  0  0  0  0  0  0  0
    1.9179   -1.6616   -0.6686 N   0  0  0  0  0  0  0  0  0  0  0  0
    0.6053   -2.0190   -0.8457 N   0  0  0  0  0  0  0  0  0  0  0  0
   -0.5098   -1.3513   -0.3470 C   0  0  0  0  0  0  0  0  0  0  0  0
   -0.4999   -0.2641    0.2225 O   0  0  0  0  0  0  0  0  0  0  0  0
   -1.7454   -2.1053   -0.5581 C   0  0  0  0  0  0  0  0  0  0  0  0
   -1.7599   -3.3323   -1.1641 N   0  0  0  0  0  0  0  0  0  0  0  0
   -3.0127   -3.7444   -1.2352 N   0  0  0  0  0  0  0  0  0  0  0  0
   -3.8324   -2.7933   -0.6952 N   0  0  0  0  0  0  0  0  0  0  0  0
   -5.2419   -2.9546   -0.6911 C   0  0  0  0  0  0  0  0  0  0  0  0
   -6.0471   -2.0196   -0.1850 N   0  0  0  0  0  0  0  0  0  0  0  0
   -7.3289   -2.5304   -0.3819 O   0  0  0  0  0  0  0  0  0  0  0  0
   -7.2870   -3.7739   -1.0021 N   0  0  0  0  0  0  0  0  0  0  0  0
   -5.9939   -4.0373   -1.1867 C   0  0  0  0  0  0  0  0  0  0  0  0
   -5.5240   -5.1635   -1.7562 N   0  0  0  0  0  0  0  0  0  0  0  0
   -3.0422   -1.7519   -0.2187 C   0  0  0  0  0  0  0  0  0  0  0  0
   -3.5526   -0.5330    0.4521 C   0  0  0  0  0  0  0  0  0  0  0  0
   -3.9469    0.3455   -0.6034 O   0  0  0  0  0  0  0  0  0  0  0  0
   -4.3088    1.5652   -0.1024 C   0  0  0  0  0  0  0  0  0  0  0  0
   -3.3333    2.4895    0.2771 C   0  0  0  0  0  0  0  0  0  0  0  0
   -3.7236    3.7420    0.7487 C   0  0  0  0  0  0  0  0  0  0  0  0
   -5.0774    4.0573    0.8174 C   0  0  0  0  0  0  0  0  0  0  0  0
   -5.4500    5.2624    1.2686 F   0  0  0  0  0  0  0  0  0  0  0  0
   -6.0503    3.1448    0.4180 C   0  0  0  0  0  0  0  0  0  0  0  0
   -5.6638    1.8909   -0.0544 C   0  0  0  0  0  0  0  0  0  0  0  0
    3.8488    1.4339   -0.3649 C   0  0  0  0  0  0  0  0  0  0  0  0
    5.1561    1.8960   -0.1526 C   0  0  0  0  0  0  0  0  0  0  0  0
    8.8007    3.1112    0.8081 H   0  0  0  0  0  0  0  0  0  0  0  0
    7.3985    3.5801   -0.1256 H   0  0  0  0  0  0  0  0  0  0  0  0
    7.2150    3.0945    1.5886 H   0  0  0  0  0  0  0  0  0  0  0  0
    9.5631    1.0667    0.7287 H   0  0  0  0  0  0  0  0  0  0  0  0
    8.7296   -0.2339   -0.0887 H   0  0  0  0  0  0  0  0  0  0  0  0
    8.3662    0.1257    1.6278 H   0  0  0  0  0  0  0  0  0  0  0  0
    6.7221   -1.0985    0.1143 H   0  0  0  0  0  0  0  0  0  0  0  0
    4.4651   -1.9016   -0.2466 H   0  0  0  0  0  0  0  0  0  0  0  0
    1.4640    0.3935   -0.7909 H   0  0  0  0  0  0  0  0  0  0  0  0
    0.4710   -2.9920   -1.1157 H   0  0  0  0  0  0  0  0  0  0  0  0
   -4.5543   -5.2339   -2.0609 H   0  0  0  0  0  0  0  0  0  0  0  0
   -6.1678   -5.7587   -2.2686 H   0  0  0  0  0  0  0  0  0  0  0  0
   -2.7697   -0.0833    1.0727 H   0  0  0  0  0  0  0  0  0  0  0  0
   -4.3922   -0.7489    1.1211 H   0  0  0  0  0  0  0  0  0  0  0  0
   -2.2781    2.2389    0.2004 H   0  0  0  0  0  0  0  0  0  0  0  0
   -2.9836    4.4751    1.0541 H   0  0  0  0  0  0  0  0  0  0  0  0
   -7.0988    3.4193    0.4710 H   0  0  0  0  0  0  0  0  0  0  0  0
   -6.4106    1.1731   -0.3827 H   0  0  0  0  0  0  0  0  0  0  0  0
    3.0485    2.1546   -0.5053 H   0  0  0  0  0  0  0  0  0  0  0  0
    5.2999    2.9720   -0.1540 H   0  0  0  0  0  0  0  0  0  0  0  0
  1  2  1  0
  2  3  1  0
  2  4  1  0
  4  5  2  0
  5  6  1  0
  6  7  2  0
  7  8  1  0
  8  9  2  3
  9 10  1  0
 10 11  1  0
 11 12  2  0
 11 13  1  0
 13 14  1  0
 14 15  2  0
 15 16  1  0
 16 17  1  0
 17 18  2  0
 18 19  1  0
 19 20  1  0
 20 21  2  0
 21 22  1  0
 16 23  1  0
 23 24  1  0
 24 25  1  0
 25 26  1  0
 26 27  2  0
 27 28  1  0
 28 29  2  0
 29 30  1  0
 29 31  1  0
 31 32  2  0
  7 33  1  0
 33 34  2  0
 34  4  1  0
 23 13  2  0
 32 26  1  0
 21 17  1  0
  1 35  1  0
  1 36  1  0
  1 37  1  0
  3 38  1  0
  3 39  1  0
  3 40  1  0
  5 41  1  0
  6 42  1  0
  8 43  1  0
 10 44  1  0
 22 45  1  0
 22 46  1  0
 24 47  1  0
 24 48  1  0
 27 49  1  0
 28 50  1  0
 31 51  1  0
 32 52  1  0
 33 53  1  0
 34 54  1  0
M  END
$$$$
