
     RDKit          3D

 33 33  0  0  0  0  0  0  0  0999 V2000
   -4.4256    1.0195   -0.3529 C   0  0  0  0  0  0  0  0  0  0  0  0
   -3.9851    0.1012    0.7884 C   0  0  0  0  0  0  0  0  0  0  0  0
   -5.1113   -0.8821    1.1192 C   0  0  0  0  0  0  0  0  0  0  0  0
   -2.7831   -0.6708    0.4450 N   0  0  0  0  0  0  0  0  0  0  0  0
   -1.5758    0.1507    0.3526 C   0  0  0  0  0  0  0  0  0  0  0  0
   -0.3551   -0.7450    0.1471 C   0  0  0  0  0  0  0  0  0  0  0  0
    0.9202    0.0826    0.0080 C   0  0  0  0  0  0  0  0  0  0  0  0
    2.0142   -0.8212   -0.1425 O   0  0  0  0  0  0  0  0  0  0  0  0
    3.2711   -0.2963   -0.2802 C   0  0  0  0  0  0  0  0  0  0  0  0
    3.5598    1.0725   -0.3057 C   0  0  0  0  0  0  0  0  0  0  0  0
    4.8790    1.5159   -0.4517 C   0  0  0  0  0  0  0  0  0  0  0  0
    5.9154    0.5938   -0.5731 C   0  0  0  0  0  0  0  0  0  0  0  0
    7.5339    1.1482   -0.7517 Cl  0  0  0  0  0  0  0  0  0  0  0  0
    5.6495   -0.7709   -0.5506 C   0  0  0  0  0  0  0  0  0  0  0  0
    4.3309   -1.2116   -0.4047 C   0  0  0  0  0  0  0  0  0  0  0  0
    4.0276   -3.0890   -0.3794 Br  0  0  0  0  0  0  0  0  0  0  0  0
   -5.3729    1.5123   -0.1076 H   0  0  0  0  0  0  0  0  0  0  0  0
   -3.6920    1.8093   -0.5424 H   0  0  0  0  0  0  0  0  0  0  0  0
   -4.5719    0.4594   -1.2833 H   0  0  0  0  0  0  0  0  0  0  0  0
   -3.7965    0.7042    1.6853 H   0  0  0  0  0  0  0  0  0  0  0  0
   -4.8365   -1.5282    1.9605 H   0  0  0  0  0  0  0  0  0  0  0  0
   -5.3504   -1.5232    0.2630 H   0  0  0  0  0  0  0  0  0  0  0  0
   -6.0233   -0.3450    1.4020 H   0  0  0  0  0  0  0  0  0  0  0  0
   -2.6397   -1.4001    1.1447 H   0  0  0  0  0  0  0  0  0  0  0  0
   -1.6508    0.8454   -0.4906 H   0  0  0  0  0  0  0  0  0  0  0  0
   -1.4431    0.7374    1.2694 H   0  0  0  0  0  0  0  0  0  0  0  0
   -0.4799   -1.3680   -0.7482 H   0  0  0  0  0  0  0  0  0  0  0  0
   -0.2437   -1.4432    0.9869 H   0  0  0  0  0  0  0  0  0  0  0  0
    0.8412    0.7279   -0.8750 H   0  0  0  0  0  0  0  0  0  0  0  0
    1.0604    0.6925    0.9085 H   0  0  0  0  0  0  0  0  0  0  0  0
    2.7826    1.8245   -0.2160 H   0  0  0  0  0  0  0  0  0  0  0  0
    5.0887    2.5827   -0.4704 H   0  0  0  0  0  0  0  0  0  0  0  0
    6.4624   -1.4854   -0.6460 H   0  0  0  0  0  0  0  0  0  0  0  0
  1  2  1  0
  2  3  1  0
  2  4  1  0
  4  5  1  0
  5  6  1  0
  6  7  1  0
  7  8  1  0
  8  9  1  0
  9 10  2  0
 10 11  1  0
 11 12  2  0
 12 13  1  0
 12 14  1  0
 14 15  2  0
 15 16  1  0
 15  9  1  0
  1 17  1  0
  1 18  1  0
  1 19  1  0
  2 20  1  0
  3 21  1  0
  3 22  1  0
  3 23  1  0
  4 24  1  0
  5 25  1  0
  5 26  1  0
  6 27  1  0
  6 28  1  0
  7 29  1  0
  7 30  1  0
 10 31  1  0
 11 32  1  0
 14 33  1  0
M  END
$$$$
