
     RDKit          3D

 56 61  0  0  0  0  0  0  0  0999 V2000
    0.7437    1.1586    2.8880 O   0  0  0  0  0  0  0  0  0  0  0  0
    0.7307    1.8524    1.8820 C   0  0  0  0  0  0  0  0  0  0  0  0
    0.7039    3.2508    1.8857 N   0  0  0  0  0  0  0  0  0  0  0  0
    0.6956    3.7622    0.5957 C   0  0  0  0  0  0  0  0  0  0  0  0
    0.6699    5.0925    0.2337 C   0  0  0  0  0  0  0  0  0  0  0  0
    0.6546    5.3859   -1.1317 C   0  0  0  0  0  0  0  0  0  0  0  0
    0.6658    4.3561   -2.0900 C   0  0  0  0  0  0  0  0  0  0  0  0
    0.6945    3.0138   -1.7001 C   0  0  0  0  0  0  0  0  0  0  0  0
    0.7079    2.7258   -0.3433 C   0  0  0  0  0  0  0  0  0  0  0  0
    0.7358    1.4142    0.3870 C   0  0  0  0  0  0  0  0  0  0  0  0
    1.9063    0.5342    0.0731 N   0  0  0  0  0  0  0  0  0  0  0  0
    1.4197   -0.8969    0.0673 C   0  0  2  0  0  0  0  0  0  0  0  0
    2.1196   -1.7542   -1.0037 C   0  0  0  0  0  0  0  0  0  0  0  0
    3.6127   -1.8968   -0.8167 C   0  0  0  0  0  0  0  0  0  0  0  0
    4.4991   -1.3984   -1.7818 C   0  0  0  0  0  0  0  0  0  0  0  0
    5.8784   -1.5369   -1.6164 C   0  0  0  0  0  0  0  0  0  0  0  0
    6.3857   -2.1769   -0.4877 C   0  0  0  0  0  0  0  0  0  0  0  0
    5.5145   -2.6807    0.4755 C   0  0  0  0  0  0  0  0  0  0  0  0
    4.1349   -2.5443    0.3118 C   0  0  0  0  0  0  0  0  0  0  0  0
   -0.0372   -0.7334   -0.1747 C   0  0  0  0  0  0  0  0  0  0  0  0
   -0.4277    0.6016    0.0001 C   0  0  0  0  0  0  0  0  0  0  0  0
   -1.7701    0.7026   -0.2584 C   0  0  0  0  0  0  0  0  0  0  0  0
   -2.6023    1.7367   -0.2699 O   0  0  0  0  0  0  0  0  0  0  0  0
   -2.2086   -0.5810   -0.5452 N   0  0  0  0  0  0  0  0  0  0  0  0
   -3.5810   -0.9376   -0.8836 C   0  0  0  0  0  0  0  0  0  0  0  0
   -4.3763   -1.3400    0.3343 C   0  0  0  0  0  0  0  0  0  0  0  0
   -4.4524   -2.6849    0.7246 C   0  0  0  0  0  0  0  0  0  0  0  0
   -5.1831   -3.0556    1.8547 C   0  0  0  0  0  0  0  0  0  0  0  0
   -5.8413   -2.0863    2.6091 C   0  0  0  0  0  0  0  0  0  0  0  0
   -5.7664   -0.7455    2.2369 C   0  0  0  0  0  0  0  0  0  0  0  0
   -5.0364   -0.3734    1.1070 C   0  0  0  0  0  0  0  0  0  0  0  0
   -1.1433   -1.4691   -0.5103 C   0  0  0  0  0  0  0  0  0  0  0  0
   -1.3155   -2.7594   -0.7669 O   0  0  0  0  0  0  0  0  0  0  0  0
    0.7102    3.7872    2.7399 H   0  0  0  0  0  0  0  0  0  0  0  0
    0.6628    5.8860    0.9724 H   0  0  0  0  0  0  0  0  0  0  0  0
    0.6351    6.4229   -1.4606 H   0  0  0  0  0  0  0  0  0  0  0  0
    0.6518    4.6094   -3.1484 H   0  0  0  0  0  0  0  0  0  0  0  0
    0.6947    2.2226   -2.4439 H   0  0  0  0  0  0  0  0  0  0  0  0
    2.1993    0.7535   -0.8756 H   0  0  0  0  0  0  0  0  0  0  0  0
    1.5776   -1.3144    1.0689 H   0  0  0  0  0  0  0  0  0  0  0  0
    1.9092   -1.3457   -2.0021 H   0  0  0  0  0  0  0  0  0  0  0  0
    1.6899   -2.7645   -1.0107 H   0  0  0  0  0  0  0  0  0  0  0  0
    4.1240   -0.8967   -2.6705 H   0  0  0  0  0  0  0  0  0  0  0  0
    6.5577   -1.1439   -2.3682 H   0  0  0  0  0  0  0  0  0  0  0  0
    7.4594   -2.2819   -0.3578 H   0  0  0  0  0  0  0  0  0  0  0  0
    5.9091   -3.1784    1.3576 H   0  0  0  0  0  0  0  0  0  0  0  0
    3.4731   -2.9449    1.0763 H   0  0  0  0  0  0  0  0  0  0  0  0
   -2.0845    2.5352   -0.0614 H   0  0  0  0  0  0  0  0  0  0  0  0
   -4.0463   -0.0827   -1.3881 H   0  0  0  0  0  0  0  0  0  0  0  0
   -3.5519   -1.7488   -1.6207 H   0  0  0  0  0  0  0  0  0  0  0  0
   -3.9327   -3.4502    0.1518 H   0  0  0  0  0  0  0  0  0  0  0  0
   -5.2327   -4.1003    2.1494 H   0  0  0  0  0  0  0  0  0  0  0  0
   -6.4060   -2.3748    3.4914 H   0  0  0  0  0  0  0  0  0  0  0  0
   -6.2706    0.0126    2.8301 H   0  0  0  0  0  0  0  0  0  0  0  0
   -4.9756    0.6785    0.8345 H   0  0  0  0  0  0  0  0  0  0  0  0
   -0.4853   -3.2169   -0.5500 H   0  0  0  0  0  0  0  0  0  0  0  0
  1  2  2  0
  2  3  1  0
  3  4  1  0
  4  5  2  0
  5  6  1  0
  6  7  2  0
  7  8  1  0
  8  9  2  0
  9 10  1  0
 10 11  1  0
 11 12  1  0
 12 13  1  0
 13 14  1  0
 14 15  2  0
 15 16  1  0
 16 17  2  0
 17 18  1  0
 18 19  2  0
 12 20  1  0
 20 21  1  0
 21 22  2  0
 22 23  1  0
 22 24  1  0
 24 25  1  0
 25 26  1  0
 26 27  2  0
 27 28  1  0
 28 29  2  0
 29 30  1  0
 30 31  2  0
 24 32  1  0
 32 33  1  0
 10  2  1  0
 19 14  1  0
 32 20  2  0
  9  4  1  0
 21 10  1  0
 31 26  1  0
  3 34  1  0
  5 35  1  0
  6 36  1  0
  7 37  1  0
  8 38  1  0
 11 39  1  0
 12 40  1  1
 13 41  1  0
 13 42  1  0
 15 43  1  0
 16 44  1  0
 17 45  1  0
 18 46  1  0
 19 47  1  0
 23 48  1  0
 25 49  1  0
 25 50  1  0
 27 51  1  0
 28 52  1  0
 29 53  1  0
 30 54  1  0
 31 55  1  0
 33 56  1  0
M  END
$$$$
