
     RDKit          3D

 36 38  0  0  0  0  0  0  0  0999 V2000
    6.2075    1.0655    0.5944 C   0  0  0  0  0  0  0  0  0  0  0  0
    5.5181   -0.0614   -0.1482 C   0  0  0  0  0  0  0  0  0  0  0  0
    4.0660   -0.0284    0.1457 N   0  0  0  0  0  4  0  0  0  0  0  0
    3.5786   -0.7244    1.1985 C   0  0  0  0  0  0  0  0  0  0  0  0
    2.2191   -0.7117    1.4891 C   0  0  0  0  0  0  0  0  0  0  0  0
    1.3461    0.0130    0.6806 C   0  0  0  0  0  0  0  0  0  0  0  0
   -0.0826    0.0389    1.0114 C   0  0  0  0  0  0  0  0  0  0  0  0
   -1.0606   -0.0700    0.0954 C   0  0  0  0  0  0  0  0  0  0  0  0
   -2.4667   -0.0551    0.3604 C   0  0  0  0  0  0  0  0  0  0  0  0
   -3.0653    0.1609    1.5836 C   0  0  0  0  0  0  0  0  0  0  0  0
   -4.4240    0.1001    1.4074 N   0  0  0  0  0  0  0  0  0  0  0  0
   -4.7235   -0.1507    0.0888 C   0  0  0  0  0  0  0  0  0  0  0  0
   -5.9677   -0.2917   -0.5378 C   0  0  0  0  0  0  0  0  0  0  0  0
   -5.9776   -0.5476   -1.9112 C   0  0  0  0  0  0  0  0  0  0  0  0
   -4.7893   -0.6581   -2.6276 C   0  0  0  0  0  0  0  0  0  0  0  0
   -3.5533   -0.5142   -1.9857 C   0  0  0  0  0  0  0  0  0  0  0  0
   -3.5121   -0.2542   -0.5980 C   0  0  0  0  0  0  0  0  0  0  0  0
    1.8720    0.7342   -0.3901 C   0  0  0  0  0  0  0  0  0  0  0  0
    3.2384    0.6956   -0.6425 C   0  0  0  0  0  0  0  0  0  0  0  0
    5.8090    2.0391    0.2912 H   0  0  0  0  0  0  0  0  0  0  0  0
    7.2819    1.0558    0.3882 H   0  0  0  0  0  0  0  0  0  0  0  0
    6.0650    0.9703    1.6756 H   0  0  0  0  0  0  0  0  0  0  0  0
    5.6488    0.0321   -1.2315 H   0  0  0  0  0  0  0  0  0  0  0  0
    5.9054   -1.0394    0.1566 H   0  0  0  0  0  0  0  0  0  0  0  0
    4.2852   -1.2846    1.8046 H   0  0  0  0  0  0  0  0  0  0  0  0
    1.8468   -1.2780    2.3412 H   0  0  0  0  0  0  0  0  0  0  0  0
   -0.3253    0.1304    2.0676 H   0  0  0  0  0  0  0  0  0  0  0  0
   -0.7872   -0.1963   -0.9498 H   0  0  0  0  0  0  0  0  0  0  0  0
   -2.6612    0.3563    2.5671 H   0  0  0  0  0  0  0  0  0  0  0  0
   -5.1144    0.2229    2.1358 H   0  0  0  0  0  0  0  0  0  0  0  0
   -6.8971   -0.2069    0.0166 H   0  0  0  0  0  0  0  0  0  0  0  0
   -6.9289   -0.6625   -2.4267 H   0  0  0  0  0  0  0  0  0  0  0  0
   -4.8215   -0.8588   -3.6958 H   0  0  0  0  0  0  0  0  0  0  0  0
   -2.6381   -0.6058   -2.5612 H   0  0  0  0  0  0  0  0  0  0  0  0
    1.2279    1.3383   -1.0267 H   0  0  0  0  0  0  0  0  0  0  0  0
    3.6807    1.2466   -1.4679 H   0  0  0  0  0  0  0  0  0  0  0  0
  1  2  1  0
  2  3  1  0
  3  4  2  0
  4  5  1  0
  5  6  2  0
  6  7  1  0
  7  8  2  3
  8  9  1  0
  9 10  2  0
 10 11  1  0
 11 12  1  0
 12 13  2  0
 13 14  1  0
 14 15  2  0
 15 16  1  0
 16 17  2  0
  6 18  1  0
 18 19  2  0
 19  3  1  0
 17  9  1  0
 17 12  1  0
  1 20  1  0
  1 21  1  0
  1 22  1  0
  2 23  1  0
  2 24  1  0
  4 25  1  0
  5 26  1  0
  7 27  1  0
  8 28  1  0
 10 29  1  0
 11 30  1  0
 13 31  1  0
 14 32  1  0
 15 33  1  0
 16 34  1  0
 18 35  1  0
 19 36  1  0
M  CHG  1   3   1
M  END
$$$$
