
     RDKit          3D

 57 62  0  0  0  0  0  0  0  0999 V2000
    7.1062   -4.2915    0.2356 C   0  0  0  0  0  0  0  0  0  0  0  0
    6.9709   -3.1060   -0.5397 O   0  0  0  0  0  0  0  0  0  0  0  0
    5.8251   -2.3820   -0.3750 C   0  0  0  0  0  0  0  0  0  0  0  0
    4.7050   -2.7691    0.3580 C   0  0  0  0  0  0  0  0  0  0  0  0
    3.5889   -1.9258    0.4417 C   0  0  0  0  0  0  0  0  0  0  0  0
    3.5883   -0.6849   -0.2062 C   0  0  0  0  0  0  0  0  0  0  0  0
    2.3346    0.2555   -0.1042 C   0  0  0  0  0  0  0  0  0  0  0  0
    1.1286   -0.0379    0.5214 C   0  0  0  0  0  0  0  0  0  0  0  0
    0.2599    1.0417    0.3631 N   0  0  0  0  0  4  0  0  0  0  0  0
   -1.1163    1.1515    0.8756 C   0  0  0  0  0  0  0  0  0  0  0  0
   -2.1528    1.2193   -0.2608 C   0  0  0  0  0  0  0  0  0  0  0  0
   -1.9337    1.8932   -1.2691 O   0  0  0  0  0  0  0  0  0  0  0  0
   -3.3376    0.5295    0.0205 N   0  0  0  0  0  0  0  0  0  0  0  0
   -3.2972   -0.9009    0.1952 C   0  0  0  0  0  0  0  0  0  0  0  0
   -2.1997   -1.6274   -0.3229 C   0  0  0  0  0  0  0  0  0  0  0  0
   -2.1007   -3.0139   -0.1794 C   0  0  0  0  0  0  0  0  0  0  0  0
   -3.1047   -3.7106    0.4765 C   0  0  0  0  0  0  0  0  0  0  0  0
   -4.2088   -3.0204    0.9705 C   0  0  0  0  0  0  0  0  0  0  0  0
   -4.3181   -1.6271    0.8224 C   0  0  0  0  0  0  0  0  0  0  0  0
   -5.7618   -0.8631    1.4954 S   0  0  0  0  0  0  0  0  0  0  0  0
   -5.7714    0.6530    0.5767 C   0  0  0  0  0  0  0  0  0  0  0  0
   -6.9950    1.3471    0.5420 C   0  0  0  0  0  0  0  0  0  0  0  0
   -7.0914    2.5957   -0.0603 C   0  0  0  0  0  0  0  0  0  0  0  0
   -5.9595    3.1672   -0.6195 C   0  0  0  0  0  0  0  0  0  0  0  0
   -4.7386    2.4837   -0.5856 C   0  0  0  0  0  0  0  0  0  0  0  0
   -4.6148    1.2032   -0.0072 C   0  0  0  0  0  0  0  0  0  0  0  0
    0.9079    1.9776   -0.3280 C   0  0  0  0  0  0  0  0  0  0  0  0
    2.1395    1.5386   -0.5806 N   0  0  0  0  0  0  0  0  0  0  0  0
    2.9411    2.5451   -1.2664 C   0  0  0  0  0  0  0  0  0  0  0  0
    2.1118    3.8461   -1.0879 C   0  0  0  0  0  0  0  0  0  0  0  0
    0.6745    3.3579   -0.8190 C   0  0  0  0  0  0  0  0  0  0  0  0
    4.7054   -0.3020   -0.9472 C   0  0  0  0  0  0  0  0  0  0  0  0
    5.8148   -1.1495   -1.0287 C   0  0  0  0  0  0  0  0  0  0  0  0
    6.3674   -5.0433   -0.0621 H   0  0  0  0  0  0  0  0  0  0  0  0
    8.1012   -4.7048    0.0418 H   0  0  0  0  0  0  0  0  0  0  0  0
    7.0370   -4.0726    1.3069 H   0  0  0  0  0  0  0  0  0  0  0  0
    4.6682   -3.7256    0.8719 H   0  0  0  0  0  0  0  0  0  0  0  0
    2.7390   -2.2738    1.0248 H   0  0  0  0  0  0  0  0  0  0  0  0
    0.7690   -0.8991    1.0594 H   0  0  0  0  0  0  0  0  0  0  0  0
   -1.3086    0.3253    1.5648 H   0  0  0  0  0  0  0  0  0  0  0  0
   -1.1864    2.0819    1.4496 H   0  0  0  0  0  0  0  0  0  0  0  0
   -1.4262   -1.1392   -0.9114 H   0  0  0  0  0  0  0  0  0  0  0  0
   -1.2587   -3.5539   -0.6075 H   0  0  0  0  0  0  0  0  0  0  0  0
   -3.0474   -4.7917    0.5840 H   0  0  0  0  0  0  0  0  0  0  0  0
   -5.0005   -3.5842    1.4648 H   0  0  0  0  0  0  0  0  0  0  0  0
   -7.8870    0.9202    1.0002 H   0  0  0  0  0  0  0  0  0  0  0  0
   -8.0428    3.1234   -0.0822 H   0  0  0  0  0  0  0  0  0  0  0  0
   -6.0220    4.1447   -1.0922 H   0  0  0  0  0  0  0  0  0  0  0  0
   -3.9029    2.9860   -1.0633 H   0  0  0  0  0  0  0  0  0  0  0  0
    3.0241    2.2695   -2.3219 H   0  0  0  0  0  0  0  0  0  0  0  0
    3.9275    2.6439   -0.8077 H   0  0  0  0  0  0  0  0  0  0  0  0
    2.4792    4.3827   -0.2044 H   0  0  0  0  0  0  0  0  0  0  0  0
    2.1830    4.5185   -1.9468 H   0  0  0  0  0  0  0  0  0  0  0  0
    0.0992    3.2789   -1.7429 H   0  0  0  0  0  0  0  0  0  0  0  0
    0.1530    3.9312   -0.0520 H   0  0  0  0  0  0  0  0  0  0  0  0
    4.7498    0.6341   -1.4889 H   0  0  0  0  0  0  0  0  0  0  0  0
    6.6847   -0.8461   -1.6104 H   0  0  0  0  0  0  0  0  0  0  0  0
  1  2  1  0
  2  3  1  0
  3  4  2  0
  4  5  1  0
  5  6  2  0
  6  7  1  0
  7  8  2  0
  8  9  1  0
  9 10  1  0
 10 11  1  0
 11 12  2  0
 11 13  1  0
 13 14  1  0
 14 15  2  0
 15 16  1  0
 16 17  2  0
 17 18  1  0
 18 19  2  0
 19 20  1  0
 20 21  1  0
 21 22  2  0
 22 23  1  0
 23 24  2  0
 24 25  1  0
 25 26  2  0
  9 27  2  0
 27 28  1  0
 28 29  1  0
 29 30  1  0
 30 31  1  0
  6 32  1  0
 32 33  2  0
 33  3  1  0
 28  7  1  0
 26 13  1  0
 31 27  1  0
 19 14  1  0
 26 21  1  0
  1 34  1  0
  1 35  1  0
  1 36  1  0
  4 37  1  0
  5 38  1  0
  8 39  1  0
 10 40  1  0
 10 41  1  0
 15 42  1  0
 16 43  1  0
 17 44  1  0
 18 45  1  0
 22 46  1  0
 23 47  1  0
 24 48  1  0
 25 49  1  0
 29 50  1  0
 29 51  1  0
 30 52  1  0
 30 53  1  0
 31 54  1  0
 31 55  1  0
 32 56  1  0
 33 57  1  0
M  CHG  1   9   1
M  END
$$$$
