
     RDKit          3D

 42 44  0  0  0  0  0  0  0  0999 V2000
   -4.3971    2.8410    0.8911 C   0  0  0  0  0  0  0  0  0  0  0  0
   -3.0132    2.6196    1.1324 O   0  0  0  0  0  0  0  0  0  0  0  0
   -2.5783    1.3234    1.1018 C   0  0  0  0  0  0  0  0  0  0  0  0
   -3.3680    0.1982    0.8526 C   0  0  0  0  0  0  0  0  0  0  0  0
   -2.7934   -1.0776    0.8441 C   0  0  0  0  0  0  0  0  0  0  0  0
   -1.4230   -1.2226    1.0780 C   0  0  0  0  0  0  0  0  0  0  0  0
   -0.6949   -2.8454    1.0818 S   0  0  0  0  0  6  0  0  0  0  0  0
    0.4503   -2.8245    1.9656 O   0  0  0  0  0  0  0  0  0  0  0  0
   -1.7667   -3.8009    1.2764 O   0  0  0  0  0  0  0  0  0  0  0  0
   -0.1837   -3.0532   -0.5142 N   0  0  0  0  0  0  0  0  0  0  0  0
    0.6675   -2.0873   -1.1271 C   0  0  0  0  0  0  0  0  0  0  0  0
    1.9458   -1.8624   -0.6024 C   0  0  0  0  0  0  0  0  0  0  0  0
    2.7862   -0.8955   -1.1634 C   0  0  0  0  0  0  0  0  0  0  0  0
    4.4092   -0.6225   -0.4788 S   0  0  0  0  0  0  0  0  0  0  0  0
    4.0891    0.5736    0.7528 C   0  0  0  0  0  0  0  0  0  0  0  0
    2.8371    0.9840    1.1284 N   0  0  0  0  0  0  0  0  0  0  0  0
    3.0809    1.8704    2.0646 C   0  0  0  0  0  0  0  0  0  0  0  0
    4.4230    1.9889    2.2350 N   0  0  0  0  0  0  0  0  0  0  0  0
    5.0909    1.1811    1.3978 N   0  0  0  0  0  0  0  0  0  0  0  0
    2.3382   -0.1769   -2.2749 C   0  0  0  0  0  0  0  0  0  0  0  0
    3.1103    0.7708   -2.8901 O   0  0  0  0  0  0  0  0  0  0  0  0
    1.0746   -0.4043   -2.8139 C   0  0  0  0  0  0  0  0  0  0  0  0
    0.2196   -1.3596   -2.2440 C   0  0  0  0  0  0  0  0  0  0  0  0
   -1.1330   -1.5832   -2.8589 C   0  0  0  0  0  0  0  0  0  0  0  0
   -0.6316   -0.1072    1.3547 C   0  0  0  0  0  0  0  0  0  0  0  0
   -1.2120    1.1619    1.3529 C   0  0  0  0  0  0  0  0  0  0  0  0
   -5.0128    2.3610    1.6586 H   0  0  0  0  0  0  0  0  0  0  0  0
   -4.6819    2.5061   -0.1118 H   0  0  0  0  0  0  0  0  0  0  0  0
   -4.5777    3.9191    0.9449 H   0  0  0  0  0  0  0  0  0  0  0  0
   -4.4338    0.2784    0.6650 H   0  0  0  0  0  0  0  0  0  0  0  0
   -3.4211   -1.9464    0.6569 H   0  0  0  0  0  0  0  0  0  0  0  0
   -0.8902   -3.5104   -1.0864 H   0  0  0  0  0  0  0  0  0  0  0  0
    2.2915   -2.4437    0.2499 H   0  0  0  0  0  0  0  0  0  0  0  0
    2.3545    2.4346    2.6324 H   0  0  0  0  0  0  0  0  0  0  0  0
    4.9395    2.5809    2.8765 H   0  0  0  0  0  0  0  0  0  0  0  0
    3.9485    0.8225   -2.3944 H   0  0  0  0  0  0  0  0  0  0  0  0
    0.7630    0.1733   -3.6812 H   0  0  0  0  0  0  0  0  0  0  0  0
   -1.9208   -1.4979   -2.1048 H   0  0  0  0  0  0  0  0  0  0  0  0
   -1.1768   -2.5746   -3.3207 H   0  0  0  0  0  0  0  0  0  0  0  0
   -1.3496   -0.8419   -3.6352 H   0  0  0  0  0  0  0  0  0  0  0  0
    0.4317   -0.2116    1.5600 H   0  0  0  0  0  0  0  0  0  0  0  0
   -0.5920    2.0337    1.5484 H   0  0  0  0  0  0  0  0  0  0  0  0
  1  2  1  0
  2  3  1  0
  3  4  2  0
  4  5  1  0
  5  6  2  0
  6  7  1  0
  7  8  2  0
  7  9  2  0
  7 10  1  0
 10 11  1  0
 11 12  2  0
 12 13  1  0
 13 14  1  0
 14 15  1  0
 15 16  1  0
 16 17  2  0
 17 18  1  0
 18 19  1  0
 13 20  2  0
 20 21  1  0
 20 22  1  0
 22 23  2  0
 23 24  1  0
  6 25  1  0
 25 26  2  0
 26  3  1  0
 23 11  1  0
 19 15  2  0
  1 27  1  0
  1 28  1  0
  1 29  1  0
  4 30  1  0
  5 31  1  0
 10 32  1  0
 12 33  1  0
 17 34  1  0
 18 35  1  0
 21 36  1  0
 22 37  1  0
 24 38  1  0
 24 39  1  0
 24 40  1  0
 25 41  1  0
 26 42  1  0
M  END
$$$$
