
     RDKit          3D

 39 42  0  0  0  0  0  0  0  0999 V2000
    5.8510   -0.8255   -1.5532 C   0  0  0  0  0  0  0  0  0  0  0  0
    5.7549   -1.3766   -0.2638 C   0  0  0  0  0  0  0  0  0  0  0  0
    4.5828   -1.2441    0.4881 C   0  0  0  0  0  0  0  0  0  0  0  0
    3.5178   -0.5561   -0.0685 C   0  0  0  0  0  0  0  0  0  0  0  0
    3.6214   -0.0049   -1.3645 C   0  0  0  0  0  0  0  0  0  0  0  0
    4.7780   -0.1315   -2.1157 C   0  0  0  0  0  0  0  0  0  0  0  0
    2.3306    0.6932   -1.7428 C   0  0  0  0  0  0  0  0  0  0  0  0
    1.4820    0.4735   -0.5073 C   0  0  0  0  0  0  0  0  0  0  0  0
    0.1829    0.8967   -0.2768 C   0  0  0  0  0  0  0  0  0  0  0  0
   -0.4231    0.5714    0.9479 C   0  0  0  0  0  0  0  0  0  0  0  0
   -1.8357    1.0330    1.2519 C   0  0  0  0  0  0  0  0  0  0  0  0
   -2.7997    0.7068    0.1899 N   0  0  0  0  0  0  0  0  0  0  0  0
   -4.0558    1.4613    0.3873 C   0  0  0  0  0  0  0  0  0  0  0  0
   -5.2417    0.7886   -0.3179 C   0  0  0  0  0  0  0  0  0  0  0  0
   -5.5400   -0.5050    0.2253 O   0  0  0  0  0  0  0  0  0  0  0  0
   -4.3861   -1.1732    0.7536 C   0  0  0  0  0  0  0  0  0  0  0  0
   -3.0722   -0.7437    0.0815 C   0  0  0  0  0  0  0  0  0  0  0  0
    0.3065   -0.1582    1.9145 C   0  0  0  0  0  0  0  0  0  0  0  0
    1.6197   -0.5800    1.6720 C   0  0  0  0  0  0  0  0  0  0  0  0
    2.2014   -0.2616    0.4577 C   0  0  0  0  0  0  0  0  0  0  0  0
    6.7730   -0.9421   -2.1181 H   0  0  0  0  0  0  0  0  0  0  0  0
    6.6036   -1.9132    0.1539 H   0  0  0  0  0  0  0  0  0  0  0  0
    4.5188   -1.6732    1.4820 H   0  0  0  0  0  0  0  0  0  0  0  0
    4.8522    0.2936   -3.1109 H   0  0  0  0  0  0  0  0  0  0  0  0
    1.8745    0.2166   -2.6153 H   0  0  0  0  0  0  0  0  0  0  0  0
    2.5026    1.7605   -1.9095 H   0  0  0  0  0  0  0  0  0  0  0  0
   -0.3600    1.4606   -1.0300 H   0  0  0  0  0  0  0  0  0  0  0  0
   -1.7801    2.1225    1.3808 H   0  0  0  0  0  0  0  0  0  0  0  0
   -2.1742    0.6206    2.2116 H   0  0  0  0  0  0  0  0  0  0  0  0
   -4.2942    1.5345    1.4569 H   0  0  0  0  0  0  0  0  0  0  0  0
   -3.9253    2.4780    0.0009 H   0  0  0  0  0  0  0  0  0  0  0  0
   -6.1414    1.4030   -0.2108 H   0  0  0  0  0  0  0  0  0  0  0  0
   -5.0499    0.6769   -1.3916 H   0  0  0  0  0  0  0  0  0  0  0  0
   -4.3479   -0.9838    1.8327 H   0  0  0  0  0  0  0  0  0  0  0  0
   -4.5423   -2.2484    0.6189 H   0  0  0  0  0  0  0  0  0  0  0  0
   -3.1468   -0.9703   -0.9897 H   0  0  0  0  0  0  0  0  0  0  0  0
   -2.2464   -1.3536    0.4638 H   0  0  0  0  0  0  0  0  0  0  0  0
   -0.1523   -0.4042    2.8700 H   0  0  0  0  0  0  0  0  0  0  0  0
    2.1616   -1.1418    2.4249 H   0  0  0  0  0  0  0  0  0  0  0  0
  1  2  2  0
  2  3  1  0
  3  4  2  0
  4  5  1  0
  5  6  2  0
  5  7  1  0
  7  8  1  0
  8  9  2  0
  9 10  1  0
 10 11  1  0
 11 12  1  0
 12 13  1  0
 13 14  1  0
 14 15  1  0
 15 16  1  0
 16 17  1  0
 10 18  2  0
 18 19  1  0
 19 20  2  0
  6  1  1  0
 20  8  1  0
 20  4  1  0
 17 12  1  0
  1 21  1  0
  2 22  1  0
  3 23  1  0
  6 24  1  0
  7 25  1  0
  7 26  1  0
  9 27  1  0
 11 28  1  0
 11 29  1  0
 13 30  1  0
 13 31  1  0
 14 32  1  0
 14 33  1  0
 16 34  1  0
 16 35  1  0
 17 36  1  0
 17 37  1  0
 18 38  1  0
 19 39  1  0
M  END
$$$$
