
     RDKit          3D

 47 50  0  0  0  0  0  0  0  0999 V2000
   -7.8464   -2.4953    1.8497 C   0  0  0  0  0  0  0  0  0  0  0  0
   -7.1702   -1.8070    0.7960 O   0  0  0  0  0  0  0  0  0  0  0  0
   -5.9633   -1.3042    1.1516 C   0  0  0  0  0  0  0  0  0  0  0  0
   -5.4431   -1.3971    2.2524 O   0  0  0  0  0  0  0  0  0  0  0  0
   -5.3223   -0.5995    0.0066 C   0  0  0  0  0  0  0  0  0  0  0  0
   -5.8982   -0.5691   -1.2678 C   0  0  0  0  0  0  0  0  0  0  0  0
   -5.2603    0.1125   -2.3015 C   0  0  0  0  0  0  0  0  0  0  0  0
   -4.0424    0.7562   -2.0703 C   0  0  0  0  0  0  0  0  0  0  0  0
   -3.4365    0.7219   -0.8005 C   0  0  0  0  0  0  0  0  0  0  0  0
   -2.1891    1.3876   -0.6221 N   0  0  0  0  0  0  0  0  0  0  0  0
   -1.7264    2.2283   -1.5890 N   0  0  0  0  0  0  0  0  0  0  0  0
   -0.6004    2.7528   -1.1338 N   0  0  0  0  0  0  0  0  0  0  0  0
   -0.2821    2.2444    0.0902 N   0  0  0  0  0  0  0  0  0  0  0  0
   -1.2357    1.3914    0.3899 C   0  0  0  0  0  0  0  0  0  0  0  0
   -1.1523    0.3948    1.8020 S   0  0  0  0  0  0  0  0  0  0  0  0
   -0.5226   -1.1537    1.0927 C   0  0  0  0  0  0  0  0  0  0  0  0
    0.8416   -1.0486    0.4245 C   0  0  0  0  0  0  0  0  0  0  0  0
    1.1013   -1.8080   -0.5070 O   0  0  0  0  0  0  0  0  0  0  0  0
    1.6908   -0.1307    0.9937 N   0  0  0  0  0  0  0  0  0  0  0  0
    2.9647    0.0746    0.5478 C   0  0  0  0  0  0  0  0  0  0  0  0
    3.6548   -0.5896   -0.3443 N   0  0  0  0  0  0  0  0  0  0  0  0
    4.9005   -0.0138   -0.4652 C   0  0  0  0  0  0  0  0  0  0  0  0
    5.1277    1.0791    0.3474 C   0  0  0  0  0  0  0  0  0  0  0  0
    3.7546    1.3948    1.3020 S   0  0  0  0  0  0  0  0  0  0  0  0
    6.3974    1.8554    0.4112 C   0  0  0  0  0  0  0  0  0  0  0  0
    7.2745    1.5343   -0.8138 C   0  0  0  0  0  0  0  0  0  0  0  0
    7.3091    0.0268   -1.1254 C   0  0  0  0  0  0  0  0  0  0  0  0
    5.9078   -0.5305   -1.4347 C   0  0  0  0  0  0  0  0  0  0  0  0
   -4.0956    0.0519    0.2371 C   0  0  0  0  0  0  0  0  0  0  0  0
   -8.0334   -1.8208    2.6915 H   0  0  0  0  0  0  0  0  0  0  0  0
   -7.2664   -3.3662    2.1710 H   0  0  0  0  0  0  0  0  0  0  0  0
   -8.8089   -2.8426    1.4640 H   0  0  0  0  0  0  0  0  0  0  0  0
   -6.8440   -1.0664   -1.4697 H   0  0  0  0  0  0  0  0  0  0  0  0
   -5.7092    0.1423   -3.2923 H   0  0  0  0  0  0  0  0  0  0  0  0
   -3.5737    1.2719   -2.9091 H   0  0  0  0  0  0  0  0  0  0  0  0
   -1.2446   -1.5213    0.3561 H   0  0  0  0  0  0  0  0  0  0  0  0
   -0.4464   -1.8961    1.8935 H   0  0  0  0  0  0  0  0  0  0  0  0
    1.3415    0.5350    1.6694 H   0  0  0  0  0  0  0  0  0  0  0  0
    6.9380    1.5818    1.3254 H   0  0  0  0  0  0  0  0  0  0  0  0
    6.2023    2.9329    0.4496 H   0  0  0  0  0  0  0  0  0  0  0  0
    8.2915    1.9032   -0.6398 H   0  0  0  0  0  0  0  0  0  0  0  0
    6.8862    2.0686   -1.6907 H   0  0  0  0  0  0  0  0  0  0  0  0
    7.9741   -0.1651   -1.9749 H   0  0  0  0  0  0  0  0  0  0  0  0
    7.7301   -0.5041   -0.2621 H   0  0  0  0  0  0  0  0  0  0  0  0
    5.6088   -0.2272   -2.4452 H   0  0  0  0  0  0  0  0  0  0  0  0
    5.9318   -1.6252   -1.4130 H   0  0  0  0  0  0  0  0  0  0  0  0
   -3.7158    0.0395    1.2525 H   0  0  0  0  0  0  0  0  0  0  0  0
  1  2  1  0
  2  3  1  0
  3  4  2  0
  3  5  1  0
  5  6  2  0
  6  7  1  0
  7  8  2  0
  8  9  1  0
  9 10  1  0
 10 11  1  0
 11 12  2  0
 12 13  1  0
 13 14  2  0
 14 15  1  0
 15 16  1  0
 16 17  1  0
 17 18  2  0
 17 19  1  0
 19 20  1  0
 20 21  2  0
 21 22  1  0
 22 23  2  0
 23 24  1  0
 23 25  1  0
 25 26  1  0
 26 27  1  0
 27 28  1  0
  9 29  2  0
 29  5  1  0
 14 10  1  0
 24 20  1  0
 28 22  1  0
  1 30  1  0
  1 31  1  0
  1 32  1  0
  6 33  1  0
  7 34  1  0
  8 35  1  0
 16 36  1  0
 16 37  1  0
 19 38  1  0
 25 39  1  0
 25 40  1  0
 26 41  1  0
 26 42  1  0
 27 43  1  0
 27 44  1  0
 28 45  1  0
 28 46  1  0
 29 47  1  0
M  END
$$$$
