
     RDKit          3D

 36 37  0  0  0  0  0  0  0  0999 V2000
   -1.3844    1.7464    3.0190 O   0  0  0  0  0  0  0  0  0  0  0  0
   -0.8320    0.7558    2.5505 C   0  0  0  0  0  0  0  0  0  0  0  0
    0.2245   -0.0393    3.3189 C   0  0  0  0  0  0  0  0  0  0  0  0
    1.1201   -0.7627    2.4670 O   0  0  0  0  0  0  0  0  0  0  0  0
    2.1557   -0.0322    1.9905 C   0  0  0  0  0  0  0  0  0  0  0  0
    2.3365    1.1639    2.1275 O   0  0  0  0  0  0  0  0  0  0  0  0
    2.9950   -0.8849    1.1325 C   0  0  0  0  0  0  0  0  0  0  0  0
    3.1768   -0.4514   -0.1905 C   0  0  0  0  0  0  0  0  0  0  0  0
    3.9478   -1.2046   -1.0719 C   0  0  0  0  0  0  0  0  0  0  0  0
    4.5441   -2.3847   -0.6310 C   0  0  0  0  0  0  0  0  0  0  0  0
    4.3826   -2.8088    0.6945 C   0  0  0  0  0  0  0  0  0  0  0  0
    5.1774   -4.2764    1.1519 Cl  0  0  0  0  0  0  0  0  0  0  0  0
    3.6103   -2.0575    1.5939 C   0  0  0  0  0  0  0  0  0  0  0  0
    3.4675   -2.5457    3.2524 Cl  0  0  0  0  0  0  0  0  0  0  0  0
   -1.1530    0.2180    1.3177 N   0  0  0  0  0  0  0  0  0  0  0  0
   -2.0343    0.9314    0.4113 C   0  0  0  0  0  0  0  0  0  0  0  0
   -2.4744    0.0701   -0.7744 C   0  0  0  0  0  0  0  0  0  0  0  0
   -3.3404    0.7887   -1.6888 N   0  0  0  0  0  0  0  0  0  0  0  0
   -2.8778    1.6496   -2.6527 C   0  0  0  0  0  0  0  0  0  0  0  0
   -1.5327    1.8068   -2.8049 O   0  0  0  0  0  0  0  0  0  0  0  0
   -3.8356    2.2654   -3.3549 C   0  0  0  0  0  0  0  0  0  0  0  0
   -5.4168    1.7861   -2.8160 S   0  0  0  0  0  0  0  0  0  0  0  0
   -4.7203    0.7230   -1.5773 C   0  0  0  0  0  0  0  0  0  0  0  0
   -5.3855    0.0725   -0.7895 O   0  0  0  0  0  0  0  0  0  0  0  0
    0.7760    0.6329    3.9865 H   0  0  0  0  0  0  0  0  0  0  0  0
   -0.2994   -0.7720    3.9414 H   0  0  0  0  0  0  0  0  0  0  0  0
    2.7187    0.4762   -0.5319 H   0  0  0  0  0  0  0  0  0  0  0  0
    4.0887   -0.8720   -2.0983 H   0  0  0  0  0  0  0  0  0  0  0  0
    5.1469   -2.9692   -1.3238 H   0  0  0  0  0  0  0  0  0  0  0  0
   -0.4968   -0.4545    0.9395 H   0  0  0  0  0  0  0  0  0  0  0  0
   -1.4938    1.8205    0.0666 H   0  0  0  0  0  0  0  0  0  0  0  0
   -2.9071    1.2839    0.9736 H   0  0  0  0  0  0  0  0  0  0  0  0
   -1.6040   -0.3072   -1.3251 H   0  0  0  0  0  0  0  0  0  0  0  0
   -3.0086   -0.8117   -0.3992 H   0  0  0  0  0  0  0  0  0  0  0  0
   -1.3827    2.4652   -3.5054 H   0  0  0  0  0  0  0  0  0  0  0  0
   -3.6890    2.9786   -4.1525 H   0  0  0  0  0  0  0  0  0  0  0  0
  1  2  2  0
  2  3  1  0
  3  4  1  0
  4  5  1  0
  5  6  2  0
  5  7  1  0
  7  8  2  0
  8  9  1  0
  9 10  2  0
 10 11  1  0
 11 12  1  0
 11 13  2  0
 13 14  1  0
  2 15  1  0
 15 16  1  0
 16 17  1  0
 17 18  1  0
 18 19  1  0
 19 20  1  0
 19 21  2  0
 21 22  1  0
 22 23  1  0
 23 24  2  0
 13  7  1  0
 23 18  1  0
  3 25  1  0
  3 26  1  0
  8 27  1  0
  9 28  1  0
 10 29  1  0
 15 30  1  0
 16 31  1  0
 16 32  1  0
 17 33  1  0
 17 34  1  0
 20 35  1  0
 21 36  1  0
M  END
$$$$
