
     RDKit          3D

 44 46  0  0  0  0  0  0  0  0999 V2000
   -3.9881   -3.1037   -0.7835 C   0  0  0  0  0  0  0  0  0  0  0  0
   -3.2485   -2.1747    0.1337 C   0  0  0  0  0  0  0  0  0  0  0  0
   -3.2069   -0.8053   -0.1298 C   0  0  0  0  0  0  0  0  0  0  0  0
   -2.4954    0.0877    0.6961 C   0  0  0  0  0  0  0  0  0  0  0  0
   -2.5751    1.5455    0.3278 C   0  0  0  0  0  0  0  0  0  0  0  0
   -1.7769   -0.4287    1.8037 C   0  0  0  0  0  0  0  0  0  0  0  0
   -0.7950    0.6554    2.8680 S   0  0  0  0  0  6  0  0  0  0  0  0
   -0.9867    2.0414    2.5011 O   0  0  0  0  0  0  0  0  0  0  0  0
   -1.0045    0.2422    4.2411 O   0  0  0  0  0  0  0  0  0  0  0  0
    0.8011    0.2381    2.4912 N   0  0  0  0  0  0  0  0  0  0  0  0
    1.2191    0.1900    1.1336 C   0  0  0  0  0  0  0  0  0  0  0  0
    1.5902   -1.0403    0.5924 C   0  0  0  0  0  0  0  0  0  0  0  0
    1.9654   -1.1231   -0.7467 C   0  0  0  0  0  0  0  0  0  0  0  0
    1.9771    0.0241   -1.5375 C   0  0  0  0  0  0  0  0  0  0  0  0
    2.3686   -0.1511   -2.8361 O   0  0  0  0  0  0  0  0  0  0  0  0
    1.6037    1.2682   -1.0101 C   0  0  0  0  0  0  0  0  0  0  0  0
    1.4733    2.7593   -1.9853 S   0  0  0  0  0  0  0  0  0  0  0  0
    3.1263    3.0588   -2.4339 C   0  0  0  0  0  0  0  0  0  0  0  0
    3.9031    2.1161   -3.0617 N   0  0  0  0  0  0  0  0  0  0  0  0
    5.0465    2.7422   -3.2218 C   0  0  0  0  0  0  0  0  0  0  0  0
    4.9456    4.0060   -2.7310 N   0  0  0  0  0  0  0  0  0  0  0  0
    3.7243    4.2347   -2.2276 N   0  0  0  0  0  0  0  0  0  0  0  0
    1.2284    1.3378    0.3393 C   0  0  0  0  0  0  0  0  0  0  0  0
   -1.8193   -1.8213    2.0869 C   0  0  0  0  0  0  0  0  0  0  0  0
   -1.1601   -2.4660    3.2788 C   0  0  0  0  0  0  0  0  0  0  0  0
   -2.5542   -2.6701    1.2374 C   0  0  0  0  0  0  0  0  0  0  0  0
   -4.3749   -3.9674   -0.2342 H   0  0  0  0  0  0  0  0  0  0  0  0
   -3.3200   -3.4569   -1.5747 H   0  0  0  0  0  0  0  0  0  0  0  0
   -4.8464   -2.6016   -1.2421 H   0  0  0  0  0  0  0  0  0  0  0  0
   -3.7475   -0.4219   -0.9963 H   0  0  0  0  0  0  0  0  0  0  0  0
   -3.1999    1.7047   -0.5592 H   0  0  0  0  0  0  0  0  0  0  0  0
   -3.0396    2.1194    1.1357 H   0  0  0  0  0  0  0  0  0  0  0  0
   -1.5885    1.9428    0.0814 H   0  0  0  0  0  0  0  0  0  0  0  0
    1.1903   -0.4370    3.1431 H   0  0  0  0  0  0  0  0  0  0  0  0
    1.5772   -1.9449    1.1937 H   0  0  0  0  0  0  0  0  0  0  0  0
    2.2476   -2.0793   -1.1779 H   0  0  0  0  0  0  0  0  0  0  0  0
    2.7875    0.6857   -3.1315 H   0  0  0  0  0  0  0  0  0  0  0  0
    5.9474    2.3491   -3.6725 H   0  0  0  0  0  0  0  0  0  0  0  0
    5.6420    4.7426   -2.7034 H   0  0  0  0  0  0  0  0  0  0  0  0
    0.9344    2.2917    0.7724 H   0  0  0  0  0  0  0  0  0  0  0  0
   -1.1814   -3.5588    3.2037 H   0  0  0  0  0  0  0  0  0  0  0  0
   -1.6921   -2.1989    4.1967 H   0  0  0  0  0  0  0  0  0  0  0  0
   -0.1060   -2.1925    3.3571 H   0  0  0  0  0  0  0  0  0  0  0  0
   -2.5920   -3.7402    1.4414 H   0  0  0  0  0  0  0  0  0  0  0  0
  1  2  1  0
  2  3  2  0
  3  4  1  0
  4  5  1  0
  4  6  2  0
  6  7  1  0
  7  8  2  0
  7  9  2  0
  7 10  1  0
 10 11  1  0
 11 12  2  0
 12 13  1  0
 13 14  2  0
 14 15  1  0
 14 16  1  0
 16 17  1  0
 17 18  1  0
 18 19  1  0
 19 20  2  0
 20 21  1  0
 21 22  1  0
 16 23  2  0
  6 24  1  0
 24 25  1  0
 24 26  2  0
 26  2  1  0
 23 11  1  0
 22 18  2  0
  1 27  1  0
  1 28  1  0
  1 29  1  0
  3 30  1  0
  5 31  1  0
  5 32  1  0
  5 33  1  0
 10 34  1  0
 12 35  1  0
 13 36  1  0
 15 37  1  0
 20 38  1  0
 21 39  1  0
 23 40  1  0
 25 41  1  0
 25 42  1  0
 25 43  1  0
 26 44  1  0
M  END
$$$$
