
     RDKit          3D

 70 76  0  0  0  0  0  0  0  0999 V2000
   -5.3609   -4.2620   -0.7321 C   0  0  0  0  0  0  0  0  0  0  0  0
   -4.3283   -3.5220    0.0645 C   0  0  0  0  0  0  0  0  0  0  0  0
   -4.1357   -3.7733    1.4357 C   0  0  0  0  0  0  0  0  0  0  0  0
   -5.0719   -4.9663    2.2710 Cl  0  0  0  0  0  0  0  0  0  0  0  0
   -3.1806   -3.0634    2.1897 C   0  0  0  0  0  0  0  0  0  0  0  0
   -2.3884   -2.0798    1.5967 C   0  0  0  0  0  0  0  0  0  0  0  0
   -2.5638   -1.8237    0.2443 C   0  0  0  0  0  0  0  0  0  0  0  0
   -3.5272   -2.5312   -0.4930 C   0  0  0  0  0  0  0  0  0  0  0  0
   -3.5445   -2.0692   -1.8069 N   0  0  0  0  0  0  0  0  0  0  0  0
   -2.6303   -1.0333   -2.0097 C   0  0  0  0  0  0  0  0  0  0  0  0
   -2.4745   -0.4519   -3.0742 O   0  0  0  0  0  0  0  0  0  0  0  0
   -1.8839   -0.8266   -0.6648 C   0  0  1  0  0  0  0  0  0  0  0  0
   -2.0659    0.5140   -0.0726 C   0  0  0  0  0  0  0  0  0  0  0  0
   -0.8403    1.1327    0.1719 C   0  0  0  0  0  0  0  0  0  0  0  0
   -1.0685    2.3570    0.7442 C   0  0  0  0  0  0  0  0  0  0  0  0
   -0.2088    3.3066    1.1048 O   0  0  0  0  0  0  0  0  0  0  0  0
   -2.4655    2.5254    0.8213 N   0  0  0  0  0  0  0  0  0  0  0  0
   -3.1553    3.7056    1.2441 C   0  0  0  0  0  0  0  0  0  0  0  0
   -4.3856    4.0489    0.6613 C   0  0  0  0  0  0  0  0  0  0  0  0
   -5.0671    5.1956    1.0763 C   0  0  0  0  0  0  0  0  0  0  0  0
   -4.5254    6.0088    2.0690 C   0  0  0  0  0  0  0  0  0  0  0  0
   -3.2971    5.6835    2.6408 C   0  0  0  0  0  0  0  0  0  0  0  0
   -2.6092    4.5392    2.2276 C   0  0  0  0  0  0  0  0  0  0  0  0
   -3.0687    1.3317    0.3759 C   0  0  0  0  0  0  0  0  0  0  0  0
   -4.3708    1.0603    0.4539 O   0  0  0  0  0  0  0  0  0  0  0  0
    0.2881    0.2921   -0.2796 C   0  0  1  0  0  0  0  0  0  0  0  0
    1.3028   -0.0637    0.8207 C   0  0  0  0  0  0  0  0  0  0  0  0
    2.2885   -1.0457    0.3471 N   0  0  0  0  0  0  0  0  0  0  0  0
    3.6131   -0.9133    0.7377 C   0  0  0  0  0  0  0  0  0  0  0  0
    3.9621   -0.0534    1.5476 O   0  0  0  0  0  0  0  0  0  0  0  0
    4.6006   -1.9220    0.1664 C   0  0  0  0  0  0  0  0  0  0  0  0
    6.0573   -1.4730    0.2926 C   0  0  0  0  0  0  0  0  0  0  0  0
    6.4460   -0.4907   -0.7883 C   0  0  0  0  0  0  0  0  0  0  0  0
    6.8836   -0.9494   -2.0391 C   0  0  0  0  0  0  0  0  0  0  0  0
    7.2187   -0.0439   -3.0469 C   0  0  0  0  0  0  0  0  0  0  0  0
    7.1174    1.3269   -2.8160 C   0  0  0  0  0  0  0  0  0  0  0  0
    6.6810    1.7931   -1.5771 C   0  0  0  0  0  0  0  0  0  0  0  0
    6.3461    0.8893   -0.5677 C   0  0  0  0  0  0  0  0  0  0  0  0
    1.7928   -2.0585   -0.5972 C   0  0  0  0  0  0  0  0  0  0  0  0
    0.2551   -2.1825   -0.5799 C   0  0  0  0  0  0  0  0  0  0  0  0
   -0.4014   -0.9088   -0.8620 N   0  0  0  0  0  0  0  0  0  0  0  0
   -5.2147   -5.3435   -0.6408 H   0  0  0  0  0  0  0  0  0  0  0  0
   -5.3112   -4.0295   -1.7995 H   0  0  0  0  0  0  0  0  0  0  0  0
   -6.3655   -4.0002   -0.3839 H   0  0  0  0  0  0  0  0  0  0  0  0
   -3.0606   -3.2745    3.2501 H   0  0  0  0  0  0  0  0  0  0  0  0
   -1.6640   -1.5246    2.1850 H   0  0  0  0  0  0  0  0  0  0  0  0
   -4.1643   -2.3742   -2.5413 H   0  0  0  0  0  0  0  0  0  0  0  0
    0.6785    3.0521    0.7949 H   0  0  0  0  0  0  0  0  0  0  0  0
   -4.8074    3.4693   -0.1578 H   0  0  0  0  0  0  0  0  0  0  0  0
   -6.0129    5.4637    0.6116 H   0  0  0  0  0  0  0  0  0  0  0  0
   -5.0539    6.9033    2.3887 H   0  0  0  0  0  0  0  0  0  0  0  0
   -2.8704    6.3212    3.4109 H   0  0  0  0  0  0  0  0  0  0  0  0
   -1.6649    4.3046    2.7115 H   0  0  0  0  0  0  0  0  0  0  0  0
   -4.7687    1.6335    1.1357 H   0  0  0  0  0  0  0  0  0  0  0  0
    0.8137    0.7944   -1.1016 H   0  0  0  0  0  0  0  0  0  0  0  0
    1.8018    0.8436    1.1776 H   0  0  0  0  0  0  0  0  0  0  0  0
    0.8013   -0.5114    1.6881 H   0  0  0  0  0  0  0  0  0  0  0  0
    4.3687   -2.1353   -0.8816 H   0  0  0  0  0  0  0  0  0  0  0  0
    4.4657   -2.8462    0.7415 H   0  0  0  0  0  0  0  0  0  0  0  0
    6.2671   -1.0455    1.2806 H   0  0  0  0  0  0  0  0  0  0  0  0
    6.7095   -2.3520    0.2077 H   0  0  0  0  0  0  0  0  0  0  0  0
    6.9671   -2.0159   -2.2359 H   0  0  0  0  0  0  0  0  0  0  0  0
    7.5587   -0.4080   -4.0129 H   0  0  0  0  0  0  0  0  0  0  0  0
    7.3787    2.0314   -3.6012 H   0  0  0  0  0  0  0  0  0  0  0  0
    6.6004    2.8620   -1.3953 H   0  0  0  0  0  0  0  0  0  0  0  0
    6.0023    1.2688    0.3935 H   0  0  0  0  0  0  0  0  0  0  0  0
    2.1377   -1.7699   -1.5979 H   0  0  0  0  0  0  0  0  0  0  0  0
    2.2428   -3.0263   -0.3509 H   0  0  0  0  0  0  0  0  0  0  0  0
   -0.0539   -2.9310   -1.3188 H   0  0  0  0  0  0  0  0  0  0  0  0
   -0.0155   -2.5633    0.4107 H   0  0  0  0  0  0  0  0  0  0  0  0
  1  2  1  0
  2  3  2  0
  3  4  1  0
  3  5  1  0
  5  6  2  0
  6  7  1  0
  7  8  2  0
  8  9  1  0
  9 10  1  0
 10 11  2  0
 10 12  1  0
 12 13  1  0
 13 14  1  0
 14 15  2  0
 15 16  1  0
 15 17  1  0
 17 18  1  0
 18 19  2  0
 19 20  1  0
 20 21  2  0
 21 22  1  0
 22 23  2  0
 17 24  1  0
 24 25  1  0
 14 26  1  0
 26 27  1  0
 27 28  1  0
 28 29  1  0
 29 30  2  0
 29 31  1  0
 31 32  1  0
 32 33  1  0
 33 34  2  0
 34 35  1  0
 35 36  2  0
 36 37  1  0
 37 38  2  0
 28 39  1  0
 39 40  1  0
 40 41  1  0
  8  2  1  0
 12 41  1  6
 12  7  1  0
 24 13  2  0
 41 26  1  0
 23 18  1  0
 38 33  1  0
  1 42  1  0
  1 43  1  0
  1 44  1  0
  5 45  1  0
  6 46  1  0
  9 47  1  0
 16 48  1  0
 19 49  1  0
 20 50  1  0
 21 51  1  0
 22 52  1  0
 23 53  1  0
 25 54  1  0
 26 55  1  6
 27 56  1  0
 27 57  1  0
 31 58  1  0
 31 59  1  0
 32 60  1  0
 32 61  1  0
 34 62  1  0
 35 63  1  0
 36 64  1  0
 37 65  1  0
 38 66  1  0
 39 67  1  0
 39 68  1  0
 40 69  1  0
 40 70  1  0
M  END
$$$$
