
     RDKit          3D

 51 54  0  0  0  0  0  0  0  0999 V2000
   -6.1983    2.0105   -2.2597 C   0  0  0  0  0  0  0  0  0  0  0  0
   -6.4216    1.7016   -0.7836 C   0  0  0  0  0  0  0  0  0  0  0  0
   -5.7992    0.4197   -0.4102 N   0  0  0  0  0  0  0  0  0  0  0  0
   -6.6565   -0.7692   -0.5599 C   0  0  0  0  0  0  0  0  0  0  0  0
   -7.3468   -1.0978    0.7616 C   0  0  0  0  0  0  0  0  0  0  0  0
   -4.4543    0.3195   -0.0693 C   0  0  0  0  0  0  0  0  0  0  0  0
   -3.8521   -0.9105    0.2831 C   0  0  0  0  0  0  0  0  0  0  0  0
   -2.4822   -1.0287    0.5819 C   0  0  0  0  0  0  0  0  0  0  0  0
   -1.6636    0.0965    0.5592 C   0  0  0  0  0  0  0  0  0  0  0  0
   -0.2369    0.0370    0.8182 C   0  0  0  0  0  0  0  0  0  0  0  0
    0.4925    1.1623    0.8526 C   0  0  0  0  0  0  0  0  0  0  0  0
    1.8920    1.0573    1.0960 C   0  0  0  0  0  0  0  0  0  0  0  0
    2.7456    0.3162    0.4101 N   0  0  0  0  0  0  0  0  0  0  0  0
    4.0219    0.3990    0.9454 C   0  0  0  0  0  0  0  0  0  0  0  0
    5.1475   -0.2772    0.3244 C   0  0  0  0  0  0  0  0  0  0  0  0
    5.1835   -0.4043   -1.0652 C   0  0  0  0  0  0  0  0  0  0  0  0
    6.2818   -1.0036   -1.6947 C   0  0  0  0  0  0  0  0  0  0  0  0
    7.3526   -1.4967   -0.9468 C   0  0  0  0  0  0  0  0  0  0  0  0
    8.3724   -2.0251   -1.6846 O   0  0  0  0  0  0  0  0  0  0  0  0
    9.4515   -2.6100   -0.9721 C   0  0  0  0  0  0  0  0  0  0  0  0
    7.3096   -1.3994    0.4420 C   0  0  0  0  0  0  0  0  0  0  0  0
    6.2145   -0.7882    1.0759 C   0  0  0  0  0  0  0  0  0  0  0  0
    4.1267    1.2022    2.0660 C   0  0  0  0  0  0  0  0  0  0  0  0
    2.5965    1.8643    2.4700 S   0  0  0  0  0  0  0  0  0  0  0  0
   -0.1246    2.4993    0.6162 C   0  0  0  0  0  0  0  0  0  0  0  0
    0.5061    3.5510    0.6747 O   0  0  0  0  0  0  0  0  0  0  0  0
   -1.4819    2.5063    0.2973 O   0  0  0  0  0  0  0  0  0  0  0  0
   -2.2450    1.3225    0.2722 C   0  0  0  0  0  0  0  0  0  0  0  0
   -3.6023    1.4424   -0.0454 C   0  0  0  0  0  0  0  0  0  0  0  0
   -6.6850    2.9513   -2.5306 H   0  0  0  0  0  0  0  0  0  0  0  0
   -6.6110    1.2186   -2.8971 H   0  0  0  0  0  0  0  0  0  0  0  0
   -5.1334    2.1016   -2.4942 H   0  0  0  0  0  0  0  0  0  0  0  0
   -6.0690    2.5249   -0.1520 H   0  0  0  0  0  0  0  0  0  0  0  0
   -7.5015    1.6551   -0.5985 H   0  0  0  0  0  0  0  0  0  0  0  0
   -6.1073   -1.6422   -0.9386 H   0  0  0  0  0  0  0  0  0  0  0  0
   -7.4277   -0.5750   -1.3183 H   0  0  0  0  0  0  0  0  0  0  0  0
   -7.9415   -0.2466    1.1137 H   0  0  0  0  0  0  0  0  0  0  0  0
   -8.0156   -1.9549    0.6316 H   0  0  0  0  0  0  0  0  0  0  0  0
   -6.6243   -1.3491    1.5465 H   0  0  0  0  0  0  0  0  0  0  0  0
   -4.4362   -1.8290    0.3346 H   0  0  0  0  0  0  0  0  0  0  0  0
   -2.0810   -2.0155    0.8280 H   0  0  0  0  0  0  0  0  0  0  0  0
    0.2184   -0.9379    0.9530 H   0  0  0  0  0  0  0  0  0  0  0  0
    4.3649   -0.0208   -1.6704 H   0  0  0  0  0  0  0  0  0  0  0  0
    6.3043   -1.0704   -2.7718 H   0  0  0  0  0  0  0  0  0  0  0  0
    9.1126   -3.4869   -0.4070 H   0  0  0  0  0  0  0  0  0  0  0  0
    9.9459   -1.8735   -0.3162 H   0  0  0  0  0  0  0  0  0  0  0  0
   10.1949   -2.9348   -1.7050 H   0  0  0  0  0  0  0  0  0  0  0  0
    8.1144   -1.7743    1.0659 H   0  0  0  0  0  0  0  0  0  0  0  0
    6.2102   -0.7210    2.1653 H   0  0  0  0  0  0  0  0  0  0  0  0
    4.9997    1.4444    2.6523 H   0  0  0  0  0  0  0  0  0  0  0  0
   -3.9611    2.4391   -0.2915 H   0  0  0  0  0  0  0  0  0  0  0  0
  1  2  1  0
  2  3  1  0
  3  4  1  0
  4  5  1  0
  3  6  1  0
  6  7  2  0
  7  8  1  0
  8  9  2  0
  9 10  1  0
 10 11  2  0
 11 12  1  0
 12 13  2  0
 13 14  1  0
 14 15  1  0
 15 16  2  0
 16 17  1  0
 17 18  2  0
 18 19  1  0
 19 20  1  0
 18 21  1  0
 21 22  2  0
 14 23  2  0
 23 24  1  0
 11 25  1  0
 25 26  2  0
 25 27  1  0
 27 28  1  0
 28 29  2  0
 29  6  1  0
 28  9  1  0
 24 12  1  0
 22 15  1  0
  1 30  1  0
  1 31  1  0
  1 32  1  0
  2 33  1  0
  2 34  1  0
  4 35  1  0
  4 36  1  0
  5 37  1  0
  5 38  1  0
  5 39  1  0
  7 40  1  0
  8 41  1  0
 10 42  1  0
 16 43  1  0
 17 44  1  0
 20 45  1  0
 20 46  1  0
 20 47  1  0
 21 48  1  0
 22 49  1  0
 23 50  1  0
 29 51  1  0
M  END
$$$$
