
     RDKit          3D

 56 59  0  0  0  0  0  0  0  0999 V2000
    9.4331   -0.6410    3.2314 C   0  0  0  0  0  0  0  0  0  0  0  0
    8.9618   -0.7783    1.8967 O   0  0  0  0  0  0  0  0  0  0  0  0
    7.6745   -0.3888    1.6499 C   0  0  0  0  0  0  0  0  0  0  0  0
    7.2805   -0.4965    0.3114 C   0  0  0  0  0  0  0  0  0  0  0  0
    5.9925   -0.1324   -0.0841 C   0  0  0  0  0  0  0  0  0  0  0  0
    5.0905    0.3344    0.8739 C   0  0  0  0  0  0  0  0  0  0  0  0
    3.4566    0.7994    0.3654 S   0  0  0  0  0  6  0  0  0  0  0  0
    2.7462    1.3182    1.5146 O   0  0  0  0  0  0  0  0  0  0  0  0
    3.5758    1.5736   -0.8504 O   0  0  0  0  0  0  0  0  0  0  0  0
    2.7658   -0.6703   -0.0288 N   0  0  0  0  0  0  0  0  0  0  0  0
    2.6099   -1.7001    1.0110 C   0  0  0  0  0  0  0  0  0  0  0  0
    1.2430   -2.2969    0.7422 C   0  0  0  0  0  0  0  0  0  0  0  0
    0.9658   -1.9740   -0.6236 O   0  0  0  0  0  0  0  0  0  0  0  0
    1.5359   -0.6694   -0.8394 C   0  0  0  0  0  0  0  0  0  0  0  0
    0.5062    0.4400   -0.4868 C   0  0  0  0  0  0  0  0  0  0  0  0
   -0.7444    0.3095   -1.2158 N   0  0  0  0  0  0  0  0  0  0  0  0
   -1.8026   -0.4255   -0.7315 C   0  0  0  0  0  0  0  0  0  0  0  0
   -1.8967   -0.9165    0.3849 O   0  0  0  0  0  0  0  0  0  0  0  0
   -2.9510   -0.6005   -1.7514 C   0  0  0  0  0  0  0  0  0  0  0  0
   -2.8468   -0.1351   -2.8777 O   0  0  0  0  0  0  0  0  0  0  0  0
   -4.0258   -1.2930   -1.2485 N   0  0  0  0  0  0  0  0  0  0  0  0
   -5.2656   -1.4239   -1.9666 C   0  0  0  0  0  0  0  0  0  0  0  0
   -6.2483   -0.3662   -1.5340 C   0  0  0  0  0  0  0  0  0  0  0  0
   -7.1337   -0.6093   -0.4578 C   0  0  0  0  0  0  0  0  0  0  0  0
   -8.0320    0.3734   -0.0288 C   0  0  0  0  0  0  0  0  0  0  0  0
   -8.0197    1.5840   -0.6861 C   0  0  0  0  0  0  0  0  0  0  0  0
   -7.1590    1.8327   -1.7288 C   0  0  0  0  0  0  0  0  0  0  0  0
   -6.2604    0.8856   -2.1721 C   0  0  0  0  0  0  0  0  0  0  0  0
   -7.3079    3.0853   -2.2375 O   0  0  0  0  0  0  0  0  0  0  0  0
   -8.3656    3.5938   -1.3989 C   0  0  0  0  0  0  0  0  0  0  0  0
   -8.8171    2.6491   -0.4052 O   0  0  0  0  0  0  0  0  0  0  0  0
    5.4713    0.4519    2.2125 C   0  0  0  0  0  0  0  0  0  0  0  0
    6.7653    0.0864    2.5986 C   0  0  0  0  0  0  0  0  0  0  0  0
    9.3994    0.4036    3.5584 H   0  0  0  0  0  0  0  0  0  0  0  0
    8.8729   -1.2882    3.9142 H   0  0  0  0  0  0  0  0  0  0  0  0
   10.4794   -0.9620    3.2513 H   0  0  0  0  0  0  0  0  0  0  0  0
    7.9877   -0.8653   -0.4286 H   0  0  0  0  0  0  0  0  0  0  0  0
    5.7016   -0.2147   -1.1287 H   0  0  0  0  0  0  0  0  0  0  0  0
    2.6763   -1.3176    2.0327 H   0  0  0  0  0  0  0  0  0  0  0  0
    3.3929   -2.4532    0.8698 H   0  0  0  0  0  0  0  0  0  0  0  0
    0.4761   -1.8474    1.3815 H   0  0  0  0  0  0  0  0  0  0  0  0
    1.2209   -3.3810    0.8832 H   0  0  0  0  0  0  0  0  0  0  0  0
    1.7946   -0.6079   -1.9018 H   0  0  0  0  0  0  0  0  0  0  0  0
    0.9004    1.4296   -0.7347 H   0  0  0  0  0  0  0  0  0  0  0  0
    0.2770    0.4236    0.5840 H   0  0  0  0  0  0  0  0  0  0  0  0
   -0.7990    0.5828   -2.1944 H   0  0  0  0  0  0  0  0  0  0  0  0
   -3.9882   -1.5210   -0.2594 H   0  0  0  0  0  0  0  0  0  0  0  0
   -5.6655   -2.4222   -1.7563 H   0  0  0  0  0  0  0  0  0  0  0  0
   -5.0900   -1.3653   -3.0468 H   0  0  0  0  0  0  0  0  0  0  0  0
   -7.1232   -1.5718    0.0496 H   0  0  0  0  0  0  0  0  0  0  0  0
   -8.7146    0.1921    0.7939 H   0  0  0  0  0  0  0  0  0  0  0  0
   -5.5814    1.1105   -2.9892 H   0  0  0  0  0  0  0  0  0  0  0  0
   -9.2166    3.8660   -2.0346 H   0  0  0  0  0  0  0  0  0  0  0  0
   -8.0057    4.4953   -0.8887 H   0  0  0  0  0  0  0  0  0  0  0  0
    4.7748    0.8269    2.9599 H   0  0  0  0  0  0  0  0  0  0  0  0
    7.0324    0.1873    3.6460 H   0  0  0  0  0  0  0  0  0  0  0  0
  1  2  1  0
  2  3  1  0
  3  4  2  0
  4  5  1  0
  5  6  2  0
  6  7  1  0
  7  8  2  0
  7  9  2  0
  7 10  1  0
 10 11  1  0
 11 12  1  0
 12 13  1  0
 13 14  1  0
 14 15  1  0
 15 16  1  0
 16 17  1  0
 17 18  2  0
 17 19  1  0
 19 20  2  0
 19 21  1  0
 21 22  1  0
 22 23  1  0
 23 24  2  0
 24 25  1  0
 25 26  2  0
 26 27  1  0
 27 28  2  0
 27 29  1  0
 29 30  1  0
 30 31  1  0
  6 32  1  0
 32 33  2  0
 33  3  1  0
 14 10  1  0
 28 23  1  0
 31 26  1  0
  1 34  1  0
  1 35  1  0
  1 36  1  0
  4 37  1  0
  5 38  1  0
 11 39  1  0
 11 40  1  0
 12 41  1  0
 12 42  1  0
 14 43  1  0
 15 44  1  0
 15 45  1  0
 16 46  1  0
 21 47  1  0
 22 48  1  0
 22 49  1  0
 24 50  1  0
 25 51  1  0
 28 52  1  0
 30 53  1  0
 30 54  1  0
 32 55  1  0
 33 56  1  0
M  END
$$$$
