
     RDKit          3D

 59 62  0  0  0  0  0  0  0  0999 V2000
    8.4598   -1.4222    2.0424 C   0  0  0  0  0  0  0  0  0  0  0  0
    8.0494   -0.1325    1.6022 O   0  0  0  0  0  0  0  0  0  0  0  0
    6.7091    0.0578    1.4023 C   0  0  0  0  0  0  0  0  0  0  0  0
    6.3604    1.3538    1.0057 C   0  0  0  0  0  0  0  0  0  0  0  0
    5.0264    1.6963    0.7678 C   0  0  0  0  0  0  0  0  0  0  0  0
    4.0264    0.7368    0.9278 C   0  0  0  0  0  0  0  0  0  0  0  0
    2.6185    1.0524    0.6967 C   0  0  0  0  0  0  0  0  0  0  0  0
    1.6657    0.1128    0.8421 C   0  0  0  0  0  0  0  0  0  0  0  0
    0.2055    0.3962    0.6480 C   0  0  0  0  0  0  0  0  0  0  0  0
   -0.1260    0.3343   -0.7843 N   0  0  0  0  0  0  0  0  0  0  0  0
   -0.2731   -1.0104   -1.4040 C   0  0  0  0  0  0  0  0  0  0  0  0
   -1.3721   -1.8929   -0.7865 C   0  0  0  0  0  0  0  0  0  0  0  0
   -1.3345   -3.3190   -1.3279 C   0  0  0  0  0  0  0  0  0  0  0  0
   -2.2977   -3.2683   -2.4862 C   0  0  0  0  0  0  0  0  0  0  0  0
   -3.3494   -2.3123   -1.9740 C   0  0  0  0  0  0  0  0  0  0  0  0
   -2.6685   -1.3696   -1.1321 O   0  0  0  0  0  0  0  0  0  0  0  0
   -0.7615    1.6973   -1.5405 S   0  0  0  0  0  6  0  0  0  0  0  0
   -0.7373    1.4862   -2.9728 O   0  0  0  0  0  0  0  0  0  0  0  0
   -0.1203    2.8628   -0.9621 O   0  0  0  0  0  0  0  0  0  0  0  0
   -2.4671    1.7656   -1.0315 C   0  0  0  0  0  0  0  0  0  0  0  0
   -2.7933    2.2881    0.2230 C   0  0  0  0  0  0  0  0  0  0  0  0
   -4.1342    2.3984    0.6052 C   0  0  0  0  0  0  0  0  0  0  0  0
   -5.1533    2.0025   -0.2741 C   0  0  0  0  0  0  0  0  0  0  0  0
   -6.5974    2.0884    0.0952 C   0  0  0  0  0  0  0  0  0  0  0  0
   -6.9848    2.8700    1.3232 C   0  0  0  0  0  0  0  0  0  0  0  0
   -7.4454    1.5197   -0.5912 O   0  0  0  0  0  0  0  0  0  0  0  0
   -4.8176    1.5085   -1.5407 C   0  0  0  0  0  0  0  0  0  0  0  0
   -3.4782    1.4070   -1.9286 C   0  0  0  0  0  0  0  0  0  0  0  0
    2.0394   -1.2692    1.2617 C   0  0  0  0  0  0  0  0  0  0  0  0
    1.1953   -2.1518    1.3993 O   0  0  0  0  0  0  0  0  0  0  0  0
    3.3680   -1.5204    1.4788 N   0  0  0  0  0  0  0  0  0  0  0  0
    4.3767   -0.5598    1.3218 C   0  0  0  0  0  0  0  0  0  0  0  0
    5.7100   -0.9056    1.5586 C   0  0  0  0  0  0  0  0  0  0  0  0
    9.5452   -1.3969    2.1786 H   0  0  0  0  0  0  0  0  0  0  0  0
    8.0075   -1.6733    3.0091 H   0  0  0  0  0  0  0  0  0  0  0  0
    8.2353   -2.1856    1.2884 H   0  0  0  0  0  0  0  0  0  0  0  0
    7.1387    2.1049    0.8811 H   0  0  0  0  0  0  0  0  0  0  0  0
    4.7834    2.7106    0.4607 H   0  0  0  0  0  0  0  0  0  0  0  0
    2.3634    2.0643    0.3937 H   0  0  0  0  0  0  0  0  0  0  0  0
   -0.0011    1.3923    1.0548 H   0  0  0  0  0  0  0  0  0  0  0  0
   -0.4307   -0.2645    1.2403 H   0  0  0  0  0  0  0  0  0  0  0  0
   -0.4532   -0.8955   -2.4786 H   0  0  0  0  0  0  0  0  0  0  0  0
    0.6975   -1.5163   -1.3230 H   0  0  0  0  0  0  0  0  0  0  0  0
   -1.2987   -1.9179    0.3032 H   0  0  0  0  0  0  0  0  0  0  0  0
   -1.7263   -4.0042   -0.5650 H   0  0  0  0  0  0  0  0  0  0  0  0
   -0.3338   -3.6672   -1.6038 H   0  0  0  0  0  0  0  0  0  0  0  0
   -2.7091   -4.2420   -2.7551 H   0  0  0  0  0  0  0  0  0  0  0  0
   -1.8041   -2.8500   -3.3679 H   0  0  0  0  0  0  0  0  0  0  0  0
   -4.0962   -2.8306   -1.3617 H   0  0  0  0  0  0  0  0  0  0  0  0
   -3.8654   -1.7853   -2.7827 H   0  0  0  0  0  0  0  0  0  0  0  0
   -2.0164    2.6226    0.9011 H   0  0  0  0  0  0  0  0  0  0  0  0
   -4.3570    2.7921    1.5933 H   0  0  0  0  0  0  0  0  0  0  0  0
   -8.0729    2.9669    1.3599 H   0  0  0  0  0  0  0  0  0  0  0  0
   -6.6560    2.3460    2.2223 H   0  0  0  0  0  0  0  0  0  0  0  0
   -6.5622    3.8794    1.2833 H   0  0  0  0  0  0  0  0  0  0  0  0
   -5.5994    1.2023   -2.2334 H   0  0  0  0  0  0  0  0  0  0  0  0
   -3.2347    1.0299   -2.9192 H   0  0  0  0  0  0  0  0  0  0  0  0
    3.6010   -2.4635    1.7581 H   0  0  0  0  0  0  0  0  0  0  0  0
    5.9460   -1.9195    1.8599 H   0  0  0  0  0  0  0  0  0  0  0  0
  1  2  1  0
  2  3  1  0
  3  4  2  0
  4  5  1  0
  5  6  2  0
  6  7  1  0
  7  8  2  0
  8  9  1  0
  9 10  1  0
 10 11  1  0
 11 12  1  0
 12 13  1  0
 13 14  1  0
 14 15  1  0
 15 16  1  0
 10 17  1  0
 17 18  2  0
 17 19  2  0
 17 20  1  0
 20 21  2  0
 21 22  1  0
 22 23  2  0
 23 24  1  0
 24 25  1  0
 24 26  2  0
 23 27  1  0
 27 28  2  0
  8 29  1  0
 29 30  2  0
 29 31  1  0
 31 32  1  0
 32 33  2  0
 33  3  1  0
 32  6  1  0
 16 12  1  0
 28 20  1  0
  1 34  1  0
  1 35  1  0
  1 36  1  0
  4 37  1  0
  5 38  1  0
  7 39  1  0
  9 40  1  0
  9 41  1  0
 11 42  1  0
 11 43  1  0
 12 44  1  0
 13 45  1  0
 13 46  1  0
 14 47  1  0
 14 48  1  0
 15 49  1  0
 15 50  1  0
 21 51  1  0
 22 52  1  0
 25 53  1  0
 25 54  1  0
 25 55  1  0
 27 56  1  0
 28 57  1  0
 31 58  1  0
 33 59  1  0
M  END
$$$$
