
     RDKit          3D

 50 53  0  0  0  0  0  0  0  0999 V2000
    7.7316    3.0193   -0.0289 C   0  0  0  0  0  0  0  0  0  0  0  0
    7.5749    1.6126    0.1065 O   0  0  0  0  0  0  0  0  0  0  0  0
    6.2957    1.1315    0.1194 C   0  0  0  0  0  0  0  0  0  0  0  0
    5.1320    1.8859   -0.0040 C   0  0  0  0  0  0  0  0  0  0  0  0
    3.8758    1.2604    0.0270 C   0  0  0  0  0  0  0  0  0  0  0  0
    3.7470   -0.1316    0.1849 C   0  0  0  0  0  0  0  0  0  0  0  0
    2.4316   -0.8075    0.2237 C   0  0  0  0  0  0  0  0  0  0  0  0
    1.2779   -0.1973    0.6826 C   0  0  0  0  0  0  0  0  0  0  0  0
    0.0861   -0.9234    0.6622 C   0  0  0  0  0  0  0  0  0  0  0  0
   -1.1274   -0.1987    1.1030 C   0  0  0  0  0  0  0  0  0  0  0  0
   -1.1372    0.2708    2.2324 O   0  0  0  0  0  0  0  0  0  0  0  0
   -2.1008   -0.0961    0.1283 N   0  0  0  0  0  0  0  0  0  0  0  0
   -3.3608    0.5285    0.2387 C   0  0  0  0  0  0  0  0  0  0  0  0
   -3.8296    1.1307    1.4016 C   0  0  0  0  0  0  0  0  0  0  0  0
   -5.0805    1.7538    1.4151 C   0  0  0  0  0  0  0  0  0  0  0  0
   -5.8938    1.7693    0.2718 C   0  0  0  0  0  0  0  0  0  0  0  0
   -7.2133    2.4883    0.3245 C   0  0  0  0  0  0  0  0  0  0  0  0
   -5.4614    1.1016   -0.8854 C   0  0  0  0  0  0  0  0  0  0  0  0
   -6.1840    1.1741   -2.0876 N   0  0  0  0  0  0  0  0  0  0  0  0
   -4.1770    0.5350   -0.9010 C   0  0  0  0  0  0  0  0  0  0  0  0
    0.0513   -2.2672    0.2351 C   0  0  0  0  0  0  0  0  0  0  0  0
   -1.0971   -3.1011    0.2492 C   0  0  0  0  0  0  0  0  0  0  0  0
   -1.0342   -4.4177   -0.2024 C   0  0  0  0  0  0  0  0  0  0  0  0
    0.1721   -4.9224   -0.6650 C   0  0  0  0  0  0  0  0  0  0  0  0
    1.3084   -4.1101   -0.6617 C   0  0  0  0  0  0  0  0  0  0  0  0
    1.2734   -2.7964   -0.2135 C   0  0  0  0  0  0  0  0  0  0  0  0
    2.4151   -2.0878   -0.2264 N   0  0  0  0  0  0  0  0  0  0  0  0
    4.9370   -0.8715    0.2979 C   0  0  0  0  0  0  0  0  0  0  0  0
    6.1906   -0.2499    0.2680 C   0  0  0  0  0  0  0  0  0  0  0  0
    7.2687    3.5510    0.8090 H   0  0  0  0  0  0  0  0  0  0  0  0
    8.8033    3.2395   -0.0113 H   0  0  0  0  0  0  0  0  0  0  0  0
    7.3354    3.3698   -0.9877 H   0  0  0  0  0  0  0  0  0  0  0  0
    5.1602    2.9630   -0.1305 H   0  0  0  0  0  0  0  0  0  0  0  0
    2.9959    1.8886   -0.0923 H   0  0  0  0  0  0  0  0  0  0  0  0
    1.2834    0.8195    1.0619 H   0  0  0  0  0  0  0  0  0  0  0  0
   -1.8820   -0.4899   -0.7794 H   0  0  0  0  0  0  0  0  0  0  0  0
   -3.2416    1.1514    2.3136 H   0  0  0  0  0  0  0  0  0  0  0  0
   -5.4085    2.2419    2.3307 H   0  0  0  0  0  0  0  0  0  0  0  0
   -7.2664    3.2475   -0.4626 H   0  0  0  0  0  0  0  0  0  0  0  0
   -8.0365    1.7770    0.2030 H   0  0  0  0  0  0  0  0  0  0  0  0
   -7.3553    3.0010    1.2820 H   0  0  0  0  0  0  0  0  0  0  0  0
   -5.9705    0.4297   -2.7432 H   0  0  0  0  0  0  0  0  0  0  0  0
   -7.1839    1.2911   -1.9606 H   0  0  0  0  0  0  0  0  0  0  0  0
   -3.8154    0.0928   -1.8253 H   0  0  0  0  0  0  0  0  0  0  0  0
   -2.0484   -2.7368    0.6336 H   0  0  0  0  0  0  0  0  0  0  0  0
   -1.9205   -5.0470   -0.1826 H   0  0  0  0  0  0  0  0  0  0  0  0
    0.2398   -5.9485   -1.0174 H   0  0  0  0  0  0  0  0  0  0  0  0
    2.2540   -4.5177   -1.0138 H   0  0  0  0  0  0  0  0  0  0  0  0
    4.8949   -1.9534    0.4157 H   0  0  0  0  0  0  0  0  0  0  0  0
    7.0901   -0.8534    0.3613 H   0  0  0  0  0  0  0  0  0  0  0  0
  1  2  1  0
  2  3  1  0
  3  4  2  0
  4  5  1  0
  5  6  2  0
  6  7  1  0
  7  8  2  0
  8  9  1  0
  9 10  1  0
 10 11  2  0
 10 12  1  0
 12 13  1  0
 13 14  2  0
 14 15  1  0
 15 16  2  0
 16 17  1  0
 16 18  1  0
 18 19  1  0
 18 20  2  0
  9 21  2  0
 21 22  1  0
 22 23  2  0
 23 24  1  0
 24 25  2  0
 25 26  1  0
 26 27  2  0
  6 28  1  0
 28 29  2  0
 29  3  1  0
 27  7  1  0
 20 13  1  0
 26 21  1  0
  1 30  1  0
  1 31  1  0
  1 32  1  0
  4 33  1  0
  5 34  1  0
  8 35  1  0
 12 36  1  0
 14 37  1  0
 15 38  1  0
 17 39  1  0
 17 40  1  0
 17 41  1  0
 19 42  1  0
 19 43  1  0
 20 44  1  0
 22 45  1  0
 23 46  1  0
 24 47  1  0
 25 48  1  0
 28 49  1  0
 29 50  1  0
M  END
$$$$
