
     RDKit          3D

 49 52  0  0  0  0  0  0  0  0999 V2000
   -5.0697    0.1089   -0.7785 C   0  0  0  0  0  0  0  0  0  0  0  0
   -3.6549   -0.2415   -0.3739 C   0  0  0  0  0  0  0  0  0  0  0  0
   -3.1481   -1.3304   -0.8697 N   0  0  0  0  0  0  0  0  0  0  0  0
   -1.8483   -1.6544   -0.6087 N   0  0  0  0  0  0  0  0  0  0  0  0
   -1.3550   -2.8993   -0.9926 C   0  0  0  0  0  0  0  0  0  0  0  0
   -2.0365   -3.8017   -1.4691 O   0  0  0  0  0  0  0  0  0  0  0  0
    0.0777   -3.0671   -0.7569 C   0  0  0  0  0  0  0  0  0  0  0  0
    0.6137   -4.2622   -0.3650 N   0  0  0  0  0  0  0  0  0  0  0  0
    1.9167   -4.1033   -0.2086 N   0  0  0  0  0  0  0  0  0  0  0  0
    2.2470   -2.8100   -0.4837 N   0  0  0  0  0  0  0  0  0  0  0  0
    3.5683   -2.3323   -0.2962 C   0  0  0  0  0  0  0  0  0  0  0  0
    3.8664   -1.0430   -0.4597 N   0  0  0  0  0  0  0  0  0  0  0  0
    5.2253   -0.9683   -0.1570 O   0  0  0  0  0  0  0  0  0  0  0  0
    5.7347   -2.2150    0.1892 N   0  0  0  0  0  0  0  0  0  0  0  0
    4.7080   -3.0587    0.0983 C   0  0  0  0  0  0  0  0  0  0  0  0
    4.7852   -4.3794    0.3444 N   0  0  0  0  0  0  0  0  0  0  0  0
    1.1028   -2.1453   -0.9155 C   0  0  0  0  0  0  0  0  0  0  0  0
    1.0604   -0.7617   -1.4403 C   0  0  0  0  0  0  0  0  0  0  0  0
    0.6846    0.0428   -0.3240 O   0  0  0  0  0  0  0  0  0  0  0  0
    0.8945    1.3833   -0.4987 C   0  0  0  0  0  0  0  0  0  0  0  0
    0.6402    2.0691   -1.6888 C   0  0  0  0  0  0  0  0  0  0  0  0
    0.8548    3.4479   -1.7522 C   0  0  0  0  0  0  0  0  0  0  0  0
    1.3084    4.1289   -0.6276 C   0  0  0  0  0  0  0  0  0  0  0  0
    1.5062    5.4510   -0.6923 F   0  0  0  0  0  0  0  0  0  0  0  0
    1.5477    3.4580    0.5638 C   0  0  0  0  0  0  0  0  0  0  0  0
    1.3350    2.0808    0.6291 C   0  0  0  0  0  0  0  0  0  0  0  0
   -2.9944    0.6819    0.5750 C   0  0  0  0  0  0  0  0  0  0  0  0
   -2.5956    0.2079    1.8293 C   0  0  0  0  0  0  0  0  0  0  0  0
   -2.0053    1.0845    2.7410 C   0  0  0  0  0  0  0  0  0  0  0  0
   -1.8262    2.4253    2.3962 C   0  0  0  0  0  0  0  0  0  0  0  0
   -1.0905    3.5024    3.5171 Cl  0  0  0  0  0  0  0  0  0  0  0  0
   -2.2333    2.8984    1.1473 C   0  0  0  0  0  0  0  0  0  0  0  0
   -2.8233    2.0254    0.2315 C   0  0  0  0  0  0  0  0  0  0  0  0
   -5.0925    0.3310   -1.8500 H   0  0  0  0  0  0  0  0  0  0  0  0
   -5.4515    0.9706   -0.2252 H   0  0  0  0  0  0  0  0  0  0  0  0
   -5.7231   -0.7472   -0.5788 H   0  0  0  0  0  0  0  0  0  0  0  0
   -1.2421   -0.9750   -0.1572 H   0  0  0  0  0  0  0  0  0  0  0  0
    5.6088   -4.7546    0.8030 H   0  0  0  0  0  0  0  0  0  0  0  0
    3.9470   -4.9515    0.4431 H   0  0  0  0  0  0  0  0  0  0  0  0
    0.2899   -0.6956   -2.2181 H   0  0  0  0  0  0  0  0  0  0  0  0
    2.0052   -0.4434   -1.8896 H   0  0  0  0  0  0  0  0  0  0  0  0
    0.2582    1.5625   -2.5693 H   0  0  0  0  0  0  0  0  0  0  0  0
    0.6643    3.9967   -2.6694 H   0  0  0  0  0  0  0  0  0  0  0  0
    1.8934    4.0064    1.4336 H   0  0  0  0  0  0  0  0  0  0  0  0
    1.5175    1.5510    1.5599 H   0  0  0  0  0  0  0  0  0  0  0  0
   -2.7562   -0.8334    2.1027 H   0  0  0  0  0  0  0  0  0  0  0  0
   -1.6928    0.7205    3.7169 H   0  0  0  0  0  0  0  0  0  0  0  0
   -2.0884    3.9431    0.8815 H   0  0  0  0  0  0  0  0  0  0  0  0
   -3.1340    2.3958   -0.7424 H   0  0  0  0  0  0  0  0  0  0  0  0
  1  2  1  0
  2  3  2  3
  3  4  1  0
  4  5  1  0
  5  6  2  0
  5  7  1  0
  7  8  1  0
  8  9  2  0
  9 10  1  0
 10 11  1  0
 11 12  2  0
 12 13  1  0
 13 14  1  0
 14 15  2  0
 15 16  1  0
 10 17  1  0
 17 18  1  0
 18 19  1  0
 19 20  1  0
 20 21  2  0
 21 22  1  0
 22 23  2  0
 23 24  1  0
 23 25  1  0
 25 26  2  0
  2 27  1  0
 27 28  2  0
 28 29  1  0
 29 30  2  0
 30 31  1  0
 30 32  1  0
 32 33  2  0
 17  7  2  0
 26 20  1  0
 33 27  1  0
 15 11  1  0
  1 34  1  0
  1 35  1  0
  1 36  1  0
  4 37  1  0
 16 38  1  0
 16 39  1  0
 18 40  1  0
 18 41  1  0
 21 42  1  0
 22 43  1  0
 25 44  1  0
 26 45  1  0
 28 46  1  0
 29 47  1  0
 32 48  1  0
 33 49  1  0
M  END
$$$$
