
     RDKit          3D

 44 46  0  0  0  0  0  0  0  0999 V2000
    5.7555    2.4335    0.5316 C   0  0  0  0  0  0  0  0  0  0  0  0
    6.4153    1.1846    0.3545 O   0  0  0  0  0  0  0  0  0  0  0  0
    5.6145    0.0870    0.1683 C   0  0  0  0  0  0  0  0  0  0  0  0
    4.2194    0.0774    0.1490 C   0  0  0  0  0  0  0  0  0  0  0  0
    3.5238   -1.1250   -0.0622 C   0  0  0  0  0  0  0  0  0  0  0  0
    2.0564   -1.1568   -0.0772 C   0  0  0  0  0  0  0  0  0  0  0  0
    1.2675   -0.5756   -0.9914 C   0  0  0  0  0  0  0  0  0  0  0  0
    1.7386    0.3342   -2.3803 S   0  0  0  0  0  0  0  0  0  0  0  0
    0.0751    0.6402   -2.8765 C   0  0  0  0  0  0  0  0  0  0  0  0
   -0.3328    1.5209   -4.2283 S   0  0  0  0  0  0  0  0  0  0  0  0
   -0.7660    0.0136   -1.9824 N   0  0  0  0  0  0  0  0  0  0  0  0
   -2.2730    0.1803   -2.0117 N   0  0  0  0  0  0  0  0  0  0  0  0
   -2.8041    1.5571   -1.1366 S   0  0  0  0  0  6  0  0  0  0  0  0
   -1.7104    2.0065   -0.2990 O   0  0  0  0  0  0  0  0  0  0  0  0
   -3.4576    2.4501   -2.0660 O   0  0  0  0  0  0  0  0  0  0  0  0
   -4.0465    0.8395   -0.0920 C   0  0  0  0  0  0  0  0  0  0  0  0
   -5.3829    0.8499   -0.4998 C   0  0  0  0  0  0  0  0  0  0  0  0
   -6.3569    0.2853    0.3249 C   0  0  0  0  0  0  0  0  0  0  0  0
   -6.0018   -0.2907    1.5524 C   0  0  0  0  0  0  0  0  0  0  0  0
   -7.0588   -0.8646    2.4518 C   0  0  0  0  0  0  0  0  0  0  0  0
   -4.6601   -0.2704    1.9582 C   0  0  0  0  0  0  0  0  0  0  0  0
   -3.6798    0.2910    1.1385 C   0  0  0  0  0  0  0  0  0  0  0  0
   -0.2137   -0.6686   -0.9134 C   0  0  0  0  0  0  0  0  0  0  0  0
   -0.8422   -1.2640   -0.0478 O   0  0  0  0  0  0  0  0  0  0  0  0
    4.2336   -2.3209   -0.2312 C   0  0  0  0  0  0  0  0  0  0  0  0
    5.6271   -2.3179   -0.2096 C   0  0  0  0  0  0  0  0  0  0  0  0
    6.3000   -1.1196   -0.0126 C   0  0  0  0  0  0  0  0  0  0  0  0
    7.6683   -1.1430    0.0033 O   0  0  0  0  0  0  0  0  0  0  0  0
    5.1624    2.6950   -0.3509 H   0  0  0  0  0  0  0  0  0  0  0  0
    6.5232    3.2031    0.6568 H   0  0  0  0  0  0  0  0  0  0  0  0
    5.1395    2.4276    1.4362 H   0  0  0  0  0  0  0  0  0  0  0  0
    3.6506    0.9899    0.2963 H   0  0  0  0  0  0  0  0  0  0  0  0
    1.6116   -1.7262    0.7381 H   0  0  0  0  0  0  0  0  0  0  0  0
   -2.7516   -0.6644   -1.6816 H   0  0  0  0  0  0  0  0  0  0  0  0
   -5.6750    1.2960   -1.4481 H   0  0  0  0  0  0  0  0  0  0  0  0
   -7.3988    0.3006    0.0079 H   0  0  0  0  0  0  0  0  0  0  0  0
   -7.8640   -1.3183    1.8633 H   0  0  0  0  0  0  0  0  0  0  0  0
   -7.4799   -0.0772    3.0844 H   0  0  0  0  0  0  0  0  0  0  0  0
   -6.6433   -1.6502    3.0918 H   0  0  0  0  0  0  0  0  0  0  0  0
   -4.3707   -0.6927    2.9187 H   0  0  0  0  0  0  0  0  0  0  0  0
   -2.6425    0.2948    1.4677 H   0  0  0  0  0  0  0  0  0  0  0  0
    3.7095   -3.2604   -0.3881 H   0  0  0  0  0  0  0  0  0  0  0  0
    6.1853   -3.2391   -0.3452 H   0  0  0  0  0  0  0  0  0  0  0  0
    7.9354   -0.2125    0.1385 H   0  0  0  0  0  0  0  0  0  0  0  0
  1  2  1  0
  2  3  1  0
  3  4  2  0
  4  5  1  0
  5  6  1  0
  6  7  2  3
  7  8  1  0
  8  9  1  0
  9 10  2  0
  9 11  1  0
 11 12  1  0
 12 13  1  0
 13 14  2  0
 13 15  2  0
 13 16  1  0
 16 17  2  0
 17 18  1  0
 18 19  2  0
 19 20  1  0
 19 21  1  0
 21 22  2  0
 11 23  1  0
 23 24  2  0
  5 25  2  0
 25 26  1  0
 26 27  2  0
 27 28  1  0
 27  3  1  0
 23  7  1  0
 22 16  1  0
  1 29  1  0
  1 30  1  0
  1 31  1  0
  4 32  1  0
  6 33  1  0
 12 34  1  0
 17 35  1  0
 18 36  1  0
 20 37  1  0
 20 38  1  0
 20 39  1  0
 21 40  1  0
 22 41  1  0
 25 42  1  0
 26 43  1  0
 28 44  1  0
M  END
$$$$
