
     RDKit          3D

 35 37  0  0  0  0  0  0  0  0999 V2000
    0.0540    0.9594   -1.9647 O   0  0  0  0  0  0  0  0  0  0  0  0
   -0.2314    1.1280   -0.7857 C   0  0  0  0  0  0  0  0  0  0  0  0
   -1.5153    0.7226   -0.1517 C   0  0  0  0  0  0  0  0  0  0  0  0
   -2.4607    0.0708   -0.8424 C   0  0  0  0  0  0  0  0  0  0  0  0
   -3.7629   -0.3627   -0.3266 C   0  0  0  0  0  0  0  0  0  0  0  0
   -4.9320    0.1816   -0.8755 C   0  0  0  0  0  0  0  0  0  0  0  0
   -6.1833   -0.2288   -0.4113 C   0  0  0  0  0  0  0  0  0  0  0  0
   -6.2619   -1.1857    0.5936 C   0  0  0  0  0  0  0  0  0  0  0  0
   -7.4628   -1.5793    1.0371 F   0  0  0  0  0  0  0  0  0  0  0  0
   -5.1131   -1.7433    1.1417 C   0  0  0  0  0  0  0  0  0  0  0  0
   -3.8606   -1.3348    0.6789 C   0  0  0  0  0  0  0  0  0  0  0  0
   -1.5667    1.2422    1.4943 S   0  0  0  0  0  0  0  0  0  0  0  0
    0.0422    1.9675    1.4281 C   0  0  0  0  0  0  0  0  0  0  0  0
    0.7319    2.7734    2.7160 S   0  0  0  0  0  0  0  0  0  0  0  0
    0.5527    1.7597    0.1632 N   0  0  0  0  0  0  0  0  0  0  0  0
    1.8477    2.1934   -0.2127 N   0  0  0  0  0  0  0  0  0  0  0  0
    2.8283    1.1704   -0.0363 C   0  0  0  0  0  0  0  0  0  0  0  0
    2.5132    0.0586    0.6793 N   0  0  0  0  0  0  0  0  0  0  0  0
    3.4775   -0.8716    0.8784 C   0  0  0  0  0  0  0  0  0  0  0  0
    4.7743   -0.7601    0.4023 C   0  0  0  0  0  0  0  0  0  0  0  0
    5.7655   -1.8538    0.6531 C   0  0  0  0  0  0  0  0  0  0  0  0
    7.0553   -1.4202    0.6278 F   0  0  0  0  0  0  0  0  0  0  0  0
    5.5974   -2.4568    1.8612 F   0  0  0  0  0  0  0  0  0  0  0  0
    5.6837   -2.8439   -0.2757 F   0  0  0  0  0  0  0  0  0  0  0  0
    5.0917    0.3809   -0.3394 C   0  0  0  0  0  0  0  0  0  0  0  0
    4.1186    1.3567   -0.5553 C   0  0  0  0  0  0  0  0  0  0  0  0
    4.5368    2.7542   -1.4781 Cl  0  0  0  0  0  0  0  0  0  0  0  0
   -2.2932   -0.1622   -1.8935 H   0  0  0  0  0  0  0  0  0  0  0  0
   -4.8779    0.9308   -1.6624 H   0  0  0  0  0  0  0  0  0  0  0  0
   -7.0944    0.1905   -0.8261 H   0  0  0  0  0  0  0  0  0  0  0  0
   -5.1988   -2.4916    1.9230 H   0  0  0  0  0  0  0  0  0  0  0  0
   -2.9666   -1.7818    1.1079 H   0  0  0  0  0  0  0  0  0  0  0  0
    1.8586    2.4627   -1.2007 H   0  0  0  0  0  0  0  0  0  0  0  0
    3.1583   -1.7370    1.4575 H   0  0  0  0  0  0  0  0  0  0  0  0
    6.0943    0.5103   -0.7432 H   0  0  0  0  0  0  0  0  0  0  0  0
  1  2  2  0
  2  3  1  0
  3  4  2  3
  4  5  1  0
  5  6  2  0
  6  7  1  0
  7  8  2  0
  8  9  1  0
  8 10  1  0
 10 11  2  0
  3 12  1  0
 12 13  1  0
 13 14  2  0
 13 15  1  0
 15 16  1  0
 16 17  1  0
 17 18  2  0
 18 19  1  0
 19 20  2  0
 20 21  1  0
 21 22  1  0
 21 23  1  0
 21 24  1  0
 20 25  1  0
 25 26  2  0
 26 27  1  0
 15  2  1  0
 26 17  1  0
 11  5  1  0
  4 28  1  0
  6 29  1  0
  7 30  1  0
 10 31  1  0
 11 32  1  0
 16 33  1  0
 19 34  1  0
 25 35  1  0
M  END
$$$$
