
     RDKit          3D

 74 79  0  0  0  0  0  0  0  0999 V2000
    8.9654    4.1630    0.6178 C   0  0  0  0  0  0  0  0  0  0  0  0
    8.7883    3.2353   -0.4462 O   0  0  0  0  0  0  0  0  0  0  0  0
    7.5814    2.5984   -0.5155 C   0  0  0  0  0  0  0  0  0  0  0  0
    6.5370    2.7123    0.3976 C   0  0  0  0  0  0  0  0  0  0  0  0
    5.3411    2.0033    0.1984 C   0  0  0  0  0  0  0  0  0  0  0  0
    5.1522    1.1660   -0.9173 C   0  0  0  0  0  0  0  0  0  0  0  0
    3.8903    0.4271   -1.1589 C   0  0  0  0  0  0  0  0  0  0  0  0
    2.6662    0.8184   -0.6459 C   0  0  0  0  0  0  0  0  0  0  0  0
    1.5353    0.0538   -0.9437 C   0  0  0  0  0  0  0  0  0  0  0  0
    0.2710    0.5003   -0.3099 C   0  0  0  0  0  0  0  0  0  0  0  0
   -0.0670    1.6696   -0.4451 O   0  0  0  0  0  0  0  0  0  0  0  0
   -0.3772   -0.4736    0.4127 N   0  0  0  0  0  0  0  0  0  0  0  0
   -1.5853   -0.3672    1.1304 C   0  0  0  0  0  0  0  0  0  0  0  0
   -2.2474    0.8368    1.3589 C   0  0  0  0  0  0  0  0  0  0  0  0
   -3.4622    0.8310    2.0489 C   0  0  0  0  0  0  0  0  0  0  0  0
   -4.2984    2.3734    2.3516 S   0  0  0  0  0  6  0  0  0  0  0  0
   -5.3013    2.1264    3.3675 O   0  0  0  0  0  0  0  0  0  0  0  0
   -3.2866    3.3898    2.5415 O   0  0  0  0  0  0  0  0  0  0  0  0
   -5.1092    2.6872    0.8976 N   0  0  0  0  0  0  0  0  0  0  0  0
   -6.2204    1.7676    0.5301 C   0  0  0  0  0  0  0  0  0  0  0  0
   -7.0406    2.3948   -0.6047 C   0  0  0  0  0  0  0  0  0  0  0  0
   -6.2154    2.6745   -1.7466 O   0  0  0  0  0  0  0  0  0  0  0  0
   -5.1747    3.6019   -1.3938 C   0  0  0  0  0  0  0  0  0  0  0  0
   -4.2749    3.0287   -0.2914 C   0  0  0  0  0  0  0  0  0  0  0  0
   -3.9933   -0.3585    2.5552 C   0  0  0  0  0  0  0  0  0  0  0  0
   -3.3171   -1.5621    2.3451 C   0  0  0  0  0  0  0  0  0  0  0  0
   -2.1139   -1.5862    1.6256 C   0  0  0  0  0  0  0  0  0  0  0  0
   -1.3934   -2.7799    1.3774 N   0  0  0  0  0  0  0  0  0  0  0  0
   -0.7438   -3.3398    2.5922 C   0  0  0  0  0  0  0  0  0  0  0  0
   -1.3609   -4.6881    2.9955 C   0  0  0  0  0  0  0  0  0  0  0  0
   -1.3088   -5.6781    1.9563 O   0  0  0  0  0  0  0  0  0  0  0  0
   -1.4119   -5.1268    0.6322 C   0  0  0  0  0  0  0  0  0  0  0  0
   -2.1535   -3.7826    0.5931 C   0  0  0  0  0  0  0  0  0  0  0  0
    1.6153   -1.0689   -1.7969 C   0  0  0  0  0  0  0  0  0  0  0  0
    0.5153   -1.8561   -2.2323 C   0  0  0  0  0  0  0  0  0  0  0  0
    0.6998   -2.9559   -3.0677 C   0  0  0  0  0  0  0  0  0  0  0  0
    1.9795   -3.2806   -3.4907 C   0  0  0  0  0  0  0  0  0  0  0  0
    3.0608   -2.4952   -3.0859 C   0  0  0  0  0  0  0  0  0  0  0  0
    2.9031   -1.3922   -2.2575 C   0  0  0  0  0  0  0  0  0  0  0  0
    3.9952   -0.6769   -1.9410 N   0  0  0  0  0  0  0  0  0  0  0  0
    6.2301    1.0564   -1.8142 C   0  0  0  0  0  0  0  0  0  0  0  0
    7.4236    1.7606   -1.6172 C   0  0  0  0  0  0  0  0  0  0  0  0
    8.2214    4.9649    0.5745 H   0  0  0  0  0  0  0  0  0  0  0  0
    8.9456    3.6559    1.5871 H   0  0  0  0  0  0  0  0  0  0  0  0
    9.9523    4.6199    0.5015 H   0  0  0  0  0  0  0  0  0  0  0  0
    6.6155    3.3397    1.2794 H   0  0  0  0  0  0  0  0  0  0  0  0
    4.5616    2.1161    0.9490 H   0  0  0  0  0  0  0  0  0  0  0  0
    2.5642    1.7074   -0.0316 H   0  0  0  0  0  0  0  0  0  0  0  0
   -0.0069   -1.4227    0.4209 H   0  0  0  0  0  0  0  0  0  0  0  0
   -1.8316    1.7809    1.0204 H   0  0  0  0  0  0  0  0  0  0  0  0
   -6.8786    1.5919    1.3859 H   0  0  0  0  0  0  0  0  0  0  0  0
   -5.8023    0.8116    0.1950 H   0  0  0  0  0  0  0  0  0  0  0  0
   -7.5249    3.3232   -0.2775 H   0  0  0  0  0  0  0  0  0  0  0  0
   -7.8248    1.7010   -0.9247 H   0  0  0  0  0  0  0  0  0  0  0  0
   -5.6297    4.5498   -1.0814 H   0  0  0  0  0  0  0  0  0  0  0  0
   -4.5837    3.7949   -2.2950 H   0  0  0  0  0  0  0  0  0  0  0  0
   -3.7870    2.1222   -0.6650 H   0  0  0  0  0  0  0  0  0  0  0  0
   -3.5143    3.7704   -0.0307 H   0  0  0  0  0  0  0  0  0  0  0  0
   -4.9224   -0.3567    3.1219 H   0  0  0  0  0  0  0  0  0  0  0  0
   -3.7375   -2.4766    2.7539 H   0  0  0  0  0  0  0  0  0  0  0  0
    0.3127   -3.4959    2.3416 H   0  0  0  0  0  0  0  0  0  0  0  0
   -0.7741   -2.6423    3.4380 H   0  0  0  0  0  0  0  0  0  0  0  0
   -2.4104   -4.5615    3.2833 H   0  0  0  0  0  0  0  0  0  0  0  0
   -0.8348   -5.0972    3.8637 H   0  0  0  0  0  0  0  0  0  0  0  0
   -1.9298   -5.8627    0.0089 H   0  0  0  0  0  0  0  0  0  0  0  0
   -0.3947   -5.0162    0.2374 H   0  0  0  0  0  0  0  0  0  0  0  0
   -3.1639   -3.9275    0.9965 H   0  0  0  0  0  0  0  0  0  0  0  0
   -2.2421   -3.4396   -0.4446 H   0  0  0  0  0  0  0  0  0  0  0  0
   -0.5020   -1.6046   -1.9400 H   0  0  0  0  0  0  0  0  0  0  0  0
   -0.1523   -3.5464   -3.3947 H   0  0  0  0  0  0  0  0  0  0  0  0
    2.1431   -4.1319   -4.1466 H   0  0  0  0  0  0  0  0  0  0  0  0
    4.0601   -2.7470   -3.4356 H   0  0  0  0  0  0  0  0  0  0  0  0
    6.1448    0.4168   -2.6921 H   0  0  0  0  0  0  0  0  0  0  0  0
    8.2330    1.6539   -2.3352 H   0  0  0  0  0  0  0  0  0  0  0  0
  1  2  1  0
  2  3  1  0
  3  4  2  0
  4  5  1  0
  5  6  2  0
  6  7  1  0
  7  8  2  0
  8  9  1  0
  9 10  1  0
 10 11  2  0
 10 12  1  0
 12 13  1  0
 13 14  2  0
 14 15  1  0
 15 16  1  0
 16 17  2  0
 16 18  2  0
 16 19  1  0
 19 20  1  0
 20 21  1  0
 21 22  1  0
 22 23  1  0
 23 24  1  0
 15 25  2  0
 25 26  1  0
 26 27  2  0
 27 28  1  0
 28 29  1  0
 29 30  1  0
 30 31  1  0
 31 32  1  0
 32 33  1  0
  9 34  2  0
 34 35  1  0
 35 36  2  0
 36 37  1  0
 37 38  2  0
 38 39  1  0
 39 40  2  0
  6 41  1  0
 41 42  2  0
 42  3  1  0
 40  7  1  0
 27 13  1  0
 33 28  1  0
 39 34  1  0
 24 19  1  0
  1 43  1  0
  1 44  1  0
  1 45  1  0
  4 46  1  0
  5 47  1  0
  8 48  1  0
 12 49  1  0
 14 50  1  0
 20 51  1  0
 20 52  1  0
 21 53  1  0
 21 54  1  0
 23 55  1  0
 23 56  1  0
 24 57  1  0
 24 58  1  0
 25 59  1  0
 26 60  1  0
 29 61  1  0
 29 62  1  0
 30 63  1  0
 30 64  1  0
 32 65  1  0
 32 66  1  0
 33 67  1  0
 33 68  1  0
 35 69  1  0
 36 70  1  0
 37 71  1  0
 38 72  1  0
 41 73  1  0
 42 74  1  0
M  END
$$$$
