
     RDKit          3D

 46 49  0  0  0  0  0  0  0  0999 V2000
   -3.4418    3.6909    2.1187 N   0  0  0  0  0  0  0  0  0  0  0  0
   -3.8673    3.2664    0.9128 C   0  0  0  0  0  0  0  0  0  0  0  0
   -5.0545    3.5666    0.3879 N   0  0  0  0  0  0  0  0  0  0  0  0
   -5.0874    2.9278   -0.8464 O   0  0  0  0  0  0  0  0  0  0  0  0
   -3.8975    2.2466   -1.0957 N   0  0  0  0  0  0  0  0  0  0  0  0
   -3.1685    2.4508    0.0014 C   0  0  0  0  0  0  0  0  0  0  0  0
   -1.8547    1.9306    0.1236 N   0  0  0  0  0  0  0  0  0  0  0  0
   -1.0381    2.3302    1.1450 N   0  0  0  0  0  0  0  0  0  0  0  0
    0.1671    1.8244    0.9637 N   0  0  0  0  0  0  0  0  0  0  0  0
    0.1374    1.0343   -0.1530 C   0  0  0  0  0  0  0  0  0  0  0  0
    1.3195    0.3137   -0.6276 C   0  0  0  0  0  0  0  0  0  0  0  0
    1.3119   -0.3277   -1.6729 O   0  0  0  0  0  0  0  0  0  0  0  0
    2.4012    0.4580    0.2358 N   0  0  0  0  0  0  0  0  0  0  0  0
    3.6024   -0.2018    0.1784 N   0  0  0  0  0  0  0  0  0  0  0  0
    4.0610   -0.5723   -0.9749 C   0  0  0  0  0  0  0  0  0  0  0  0
    5.3265   -1.3273   -1.0975 C   0  0  0  0  0  0  0  0  0  0  0  0
    5.7641   -1.7027   -2.3713 C   0  0  0  0  0  0  0  0  0  0  0  0
    6.9564   -2.4153   -2.5120 C   0  0  0  0  0  0  0  0  0  0  0  0
    7.7071   -2.7510   -1.3846 C   0  0  0  0  0  0  0  0  0  0  0  0
    7.2687   -2.3769   -0.1138 C   0  0  0  0  0  0  0  0  0  0  0  0
    6.0773   -1.6647    0.0325 C   0  0  0  0  0  0  0  0  0  0  0  0
   -1.1487    1.0333   -0.6785 C   0  0  0  0  0  0  0  0  0  0  0  0
   -1.7128    0.2357   -1.8012 C   0  0  0  0  0  0  0  0  0  0  0  0
   -2.0508   -1.4897   -1.2845 S   0  0  0  0  0  0  0  0  0  0  0  0
   -3.3742   -1.2218   -0.1232 C   0  0  0  0  0  0  0  0  0  0  0  0
   -4.6734   -0.9648   -0.5682 C   0  0  0  0  0  0  0  0  0  0  0  0
   -5.6950   -0.7212    0.3519 C   0  0  0  0  0  0  0  0  0  0  0  0
   -5.4234   -0.7436    1.7189 C   0  0  0  0  0  0  0  0  0  0  0  0
   -4.1335   -1.0204    2.1686 C   0  0  0  0  0  0  0  0  0  0  0  0
   -3.1118   -1.2655    1.2497 C   0  0  0  0  0  0  0  0  0  0  0  0
   -2.4575    3.6281    2.3747 H   0  0  0  0  0  0  0  0  0  0  0  0
   -3.9436    4.4463    2.5737 H   0  0  0  0  0  0  0  0  0  0  0  0
    2.2072    0.8849    1.1394 H   0  0  0  0  0  0  0  0  0  0  0  0
    3.5643   -0.3267   -1.9276 H   0  0  0  0  0  0  0  0  0  0  0  0
    5.1856   -1.4504   -3.2562 H   0  0  0  0  0  0  0  0  0  0  0  0
    7.2997   -2.7110   -3.5003 H   0  0  0  0  0  0  0  0  0  0  0  0
    8.6349   -3.3071   -1.4960 H   0  0  0  0  0  0  0  0  0  0  0  0
    7.8537   -2.6409    0.7636 H   0  0  0  0  0  0  0  0  0  0  0  0
    5.7406   -1.3777    1.0256 H   0  0  0  0  0  0  0  0  0  0  0  0
   -0.9852    0.1906   -2.6185 H   0  0  0  0  0  0  0  0  0  0  0  0
   -2.6115    0.6552   -2.2504 H   0  0  0  0  0  0  0  0  0  0  0  0
   -4.9000   -0.9412   -1.6313 H   0  0  0  0  0  0  0  0  0  0  0  0
   -6.7021   -0.5103    0.0011 H   0  0  0  0  0  0  0  0  0  0  0  0
   -6.2193   -0.5506    2.4340 H   0  0  0  0  0  0  0  0  0  0  0  0
   -3.9234   -1.0478    3.2348 H   0  0  0  0  0  0  0  0  0  0  0  0
   -2.1105   -1.4839    1.6140 H   0  0  0  0  0  0  0  0  0  0  0  0
  1  2  1  0
  2  3  2  0
  3  4  1  0
  4  5  1  0
  5  6  2  0
  6  7  1  0
  7  8  1  0
  8  9  2  0
  9 10  1  0
 10 11  1  0
 11 12  2  0
 11 13  1  0
 13 14  1  0
 14 15  2  3
 15 16  1  0
 16 17  2  0
 17 18  1  0
 18 19  2  0
 19 20  1  0
 20 21  2  0
 10 22  2  0
 22 23  1  0
 23 24  1  0
 24 25  1  0
 25 26  2  0
 26 27  1  0
 27 28  2  0
 28 29  1  0
 29 30  2  0
  6  2  1  0
 22  7  1  0
 30 25  1  0
 21 16  1  0
  1 31  1  0
  1 32  1  0
 13 33  1  0
 15 34  1  0
 17 35  1  0
 18 36  1  0
 19 37  1  0
 20 38  1  0
 21 39  1  0
 23 40  1  0
 23 41  1  0
 26 42  1  0
 27 43  1  0
 28 44  1  0
 29 45  1  0
 30 46  1  0
M  END
$$$$
