
     RDKit          3D

 20 21  0  0  0  0  0  0  0  0999 V2000
    4.4294    0.0568   -1.1964 O   0  0  0  0  0  0  0  0  0  0  0  0
    3.8190    0.0603   -0.1347 C   0  0  0  0  0  0  0  0  0  0  0  0
    2.3436    0.0370   -0.0810 C   0  0  0  0  0  0  0  0  0  0  0  0
    1.7017    0.0423    1.1583 C   0  0  0  0  0  0  0  0  0  0  0  0
    0.3049    0.0203    1.2131 C   0  0  0  0  0  0  0  0  0  0  0  0
   -0.4534   -0.0070    0.0299 C   0  0  0  0  0  0  0  0  0  0  0  0
   -1.8704   -0.0289    0.1134 N   0  0  0  0  0  0  0  0  0  0  0  0
   -2.7988   -0.0568   -0.8996 C   0  0  0  0  0  0  0  0  0  0  0  0
   -4.0177   -0.0704   -0.4094 N   0  0  0  0  0  0  0  0  0  0  0  0
   -3.7979   -0.0499    0.9332 C   0  0  0  0  0  0  0  0  0  0  0  0
   -2.5183   -0.0244    1.3061 N   0  0  0  0  0  0  0  0  0  0  0  0
    0.1999   -0.0121   -1.2110 C   0  0  0  0  0  0  0  0  0  0  0  0
    1.5977    0.0100   -1.2629 C   0  0  0  0  0  0  0  0  0  0  0  0
    4.3485    0.0811    0.8325 H   0  0  0  0  0  0  0  0  0  0  0  0
    2.2693    0.0632    2.0853 H   0  0  0  0  0  0  0  0  0  0  0  0
   -0.1809    0.0248    2.1886 H   0  0  0  0  0  0  0  0  0  0  0  0
   -2.5456   -0.0660   -1.9488 H   0  0  0  0  0  0  0  0  0  0  0  0
   -4.5964   -0.0536    1.6647 H   0  0  0  0  0  0  0  0  0  0  0  0
   -0.3383   -0.0327   -2.1542 H   0  0  0  0  0  0  0  0  0  0  0  0
    2.1039    0.0060   -2.2272 H   0  0  0  0  0  0  0  0  0  0  0  0
  1  2  2  0
  2  3  1  0
  3  4  2  0
  4  5  1  0
  5  6  2  0
  6  7  1  0
  7  8  1  0
  8  9  2  0
  9 10  1  0
 10 11  2  0
  6 12  1  0
 12 13  2  0
 13  3  1  0
 11  7  1  0
  2 14  1  0
  4 15  1  0
  5 16  1  0
  8 17  1  0
 10 18  1  0
 12 19  1  0
 13 20  1  0
M  END
$$$$
