
     RDKit          3D

 59 64  0  0  0  0  0  0  0  0999 V2000
   -5.8630    2.7732   -0.7326 C   0  0  0  0  0  0  0  0  0  0  0  0
   -5.0581    1.9509    0.1086 O   0  0  0  0  0  0  0  0  0  0  0  0
   -5.5859    0.7035    0.3586 C   0  0  0  0  0  0  0  0  0  0  0  0
   -6.9430    0.5766    0.7080 C   0  0  0  0  0  0  0  0  0  0  0  0
   -7.4799   -0.6643    1.0381 C   0  0  0  0  0  0  0  0  0  0  0  0
   -6.6612   -1.7832    1.0349 C   0  0  0  0  0  0  0  0  0  0  0  0
   -5.3065   -1.6554    0.7096 C   0  0  0  0  0  0  0  0  0  0  0  0
   -4.7185   -0.4184    0.3687 C   0  0  0  0  0  0  0  0  0  0  0  0
   -3.3654   -0.3720    0.0485 N   0  0  0  0  0  0  0  0  0  0  0  0
   -2.4103   -1.3176    0.6578 C   0  0  0  0  0  0  0  0  0  0  0  0
   -0.9950   -0.7101    0.7673 C   0  0  0  0  0  0  0  0  0  0  0  0
   -0.4609   -0.2967   -0.5590 N   0  0  0  0  0  0  0  0  0  0  0  0
    0.7496    0.3430   -0.5194 C   0  0  0  0  0  0  0  0  0  0  0  0
    1.0135    1.6990   -0.4718 C   0  0  0  0  0  0  0  0  0  0  0  0
    2.4048    1.8675   -0.3108 C   0  0  0  0  0  0  0  0  0  0  0  0
    2.9751    0.6088   -0.2501 C   0  0  0  0  0  0  0  0  0  0  0  0
    4.3422    0.1701   -0.0569 C   0  0  0  0  0  0  0  0  0  0  0  0
    5.4143    1.1359    0.3024 C   0  0  0  0  0  0  0  0  0  0  0  0
    5.2303    2.0833    1.3170 C   0  0  0  0  0  0  0  0  0  0  0  0
    6.2656    2.9619    1.6434 C   0  0  0  0  0  0  0  0  0  0  0  0
    7.4860    2.8867    0.9690 C   0  0  0  0  0  0  0  0  0  0  0  0
    7.6789    1.9287   -0.0269 C   0  0  0  0  0  0  0  0  0  0  0  0
    6.6468    1.0492   -0.3569 C   0  0  0  0  0  0  0  0  0  0  0  0
    4.6654   -1.0814   -0.1970 N   0  0  0  0  0  0  0  0  0  0  0  0
    3.6671   -2.0190   -0.5240 C   0  0  0  0  0  0  0  0  0  0  0  0
    4.0636   -3.3473   -0.7047 C   0  0  0  0  0  0  0  0  0  0  0  0
    3.1350   -4.3303   -1.0477 C   0  0  0  0  0  0  0  0  0  0  0  0
    1.7960   -3.9881   -1.2227 C   0  0  0  0  0  0  0  0  0  0  0  0
    1.3801   -2.6664   -1.0456 C   0  0  0  0  0  0  0  0  0  0  0  0
    2.3096   -1.6876   -0.6800 C   0  0  0  0  0  0  0  0  0  0  0  0
    1.9760   -0.3226   -0.4906 N   0  0  0  0  0  0  0  0  0  0  0  0
   -1.4968    0.2238   -1.4886 C   0  0  0  0  0  0  0  0  0  0  0  0
   -2.7823    0.6998   -0.7753 C   0  0  0  0  0  0  0  0  0  0  0  0
   -6.3184    2.2034   -1.5506 H   0  0  0  0  0  0  0  0  0  0  0  0
   -5.2116    3.5313   -1.1786 H   0  0  0  0  0  0  0  0  0  0  0  0
   -6.6267    3.2933   -0.1464 H   0  0  0  0  0  0  0  0  0  0  0  0
   -7.5910    1.4463    0.7562 H   0  0  0  0  0  0  0  0  0  0  0  0
   -8.5284   -0.7534    1.3060 H   0  0  0  0  0  0  0  0  0  0  0  0
   -7.0673   -2.7590    1.2890 H   0  0  0  0  0  0  0  0  0  0  0  0
   -4.7091   -2.5642    0.7025 H   0  0  0  0  0  0  0  0  0  0  0  0
   -2.7289   -1.5967    1.6698 H   0  0  0  0  0  0  0  0  0  0  0  0
   -2.3706   -2.2276    0.0464 H   0  0  0  0  0  0  0  0  0  0  0  0
   -1.0292    0.1592    1.4383 H   0  0  0  0  0  0  0  0  0  0  0  0
   -0.3249   -1.4504    1.2204 H   0  0  0  0  0  0  0  0  0  0  0  0
    0.2709    2.4857   -0.5021 H   0  0  0  0  0  0  0  0  0  0  0  0
    2.9248    2.8128   -0.2261 H   0  0  0  0  0  0  0  0  0  0  0  0
    4.2964    2.1308    1.8722 H   0  0  0  0  0  0  0  0  0  0  0  0
    6.1251    3.6980    2.4312 H   0  0  0  0  0  0  0  0  0  0  0  0
    8.2929    3.5683    1.2280 H   0  0  0  0  0  0  0  0  0  0  0  0
    8.6345    1.8609   -0.5419 H   0  0  0  0  0  0  0  0  0  0  0  0
    6.8036    0.2955   -1.1258 H   0  0  0  0  0  0  0  0  0  0  0  0
    5.1105   -3.6108   -0.5800 H   0  0  0  0  0  0  0  0  0  0  0  0
    3.4601   -5.3581   -1.1866 H   0  0  0  0  0  0  0  0  0  0  0  0
    1.0732   -4.7491   -1.5065 H   0  0  0  0  0  0  0  0  0  0  0  0
    0.3366   -2.4313   -1.2216 H   0  0  0  0  0  0  0  0  0  0  0  0
   -1.1088    1.0336   -2.1176 H   0  0  0  0  0  0  0  0  0  0  0  0
   -1.7557   -0.5955   -2.1709 H   0  0  0  0  0  0  0  0  0  0  0  0
   -3.4830    1.0104   -1.5594 H   0  0  0  0  0  0  0  0  0  0  0  0
   -2.5480    1.5650   -0.1439 H   0  0  0  0  0  0  0  0  0  0  0  0
  1  2  1  0
  2  3  1  0
  3  4  2  0
  4  5  1  0
  5  6  2  0
  6  7  1  0
  7  8  2  0
  8  9  1  0
  9 10  1  0
 10 11  1  0
 11 12  1  0
 12 13  1  0
 13 14  2  0
 14 15  1  0
 15 16  2  0
 16 17  1  0
 17 18  1  0
 18 19  2  0
 19 20  1  0
 20 21  2  0
 21 22  1  0
 22 23  2  0
 17 24  2  0
 24 25  1  0
 25 26  2  0
 26 27  1  0
 27 28  2  0
 28 29  1  0
 29 30  2  0
 30 31  1  0
 12 32  1  0
 32 33  1  0
  8  3  1  0
 33  9  1  0
 31 13  1  0
 31 16  1  0
 23 18  1  0
 30 25  1  0
  1 34  1  0
  1 35  1  0
  1 36  1  0
  4 37  1  0
  5 38  1  0
  6 39  1  0
  7 40  1  0
 10 41  1  0
 10 42  1  0
 11 43  1  0
 11 44  1  0
 14 45  1  0
 15 46  1  0
 19 47  1  0
 20 48  1  0
 21 49  1  0
 22 50  1  0
 23 51  1  0
 26 52  1  0
 27 53  1  0
 28 54  1  0
 29 55  1  0
 32 56  1  0
 32 57  1  0
 33 58  1  0
 33 59  1  0
M  END
$$$$
