
     RDKit          3D

 37 39  0  0  0  0  0  0  0  0999 V2000
   -4.0945   -2.2554   -0.7305 C   0  0  0  0  0  0  0  0  0  0  0  0
   -4.4603   -1.5790    0.5789 C   0  0  0  0  0  0  0  0  0  0  0  0
   -4.1831   -0.1514    0.5663 N   0  0  0  0  0  0  0  0  0  0  0  0
   -5.2216    0.6936    0.3651 N   0  0  0  0  0  0  0  0  0  0  0  0
   -4.6663    1.9027    0.4279 C   0  0  0  0  0  0  0  0  0  0  0  0
   -3.2852    1.8279    0.6368 C   0  0  0  0  0  0  0  0  0  0  0  0
   -2.2017    3.3429    0.8324 Br  0  0  0  0  0  0  0  0  0  0  0  0
   -2.9632    0.4857    0.6964 C   0  0  0  0  0  0  0  0  0  0  0  0
   -1.6976   -0.2007    0.8796 C   0  0  0  0  0  0  0  0  0  0  0  0
   -1.6534   -1.3068    1.4046 O   0  0  0  0  0  0  0  0  0  0  0  0
   -0.6145    0.4874    0.3682 N   0  0  0  0  0  0  0  0  0  0  0  0
    0.7231    0.1121    0.3818 C   0  0  0  0  0  0  0  0  0  0  0  0
    1.2472   -1.2859    1.2234 S   0  0  0  0  0  0  0  0  0  0  0  0
    2.8214   -1.0182    0.7548 C   0  0  0  0  0  0  0  0  0  0  0  0
    2.9961    0.1012   -0.0103 C   0  0  0  0  0  0  0  0  0  0  0  0
    1.7737    0.8035   -0.2357 C   0  0  0  0  0  0  0  0  0  0  0  0
    1.5529    2.0305   -0.9970 C   0  0  0  0  0  0  0  0  0  0  0  0
    2.6571    2.7681   -1.3105 N   0  0  0  0  0  0  0  0  0  0  0  0
    0.4361    2.4266   -1.3208 O   0  0  0  0  0  0  0  0  0  0  0  0
    4.4253    0.2401   -0.4009 C   0  0  0  0  0  0  0  0  0  0  0  0
    5.0144   -1.1602   -0.0454 C   0  0  0  0  0  0  0  0  0  0  0  0
    4.0588   -1.7907    1.0092 C   0  0  0  0  0  0  0  0  0  0  0  0
   -4.6407   -1.8095   -1.5685 H   0  0  0  0  0  0  0  0  0  0  0  0
   -3.0251   -2.1651   -0.9459 H   0  0  0  0  0  0  0  0  0  0  0  0
   -4.3433   -3.3203   -0.6892 H   0  0  0  0  0  0  0  0  0  0  0  0
   -5.5325   -1.7043    0.7720 H   0  0  0  0  0  0  0  0  0  0  0  0
   -3.9368   -2.0257    1.4281 H   0  0  0  0  0  0  0  0  0  0  0  0
   -5.2961    2.7766    0.3230 H   0  0  0  0  0  0  0  0  0  0  0  0
   -0.8046    1.3452   -0.1485 H   0  0  0  0  0  0  0  0  0  0  0  0
    3.5331    2.6316   -0.8312 H   0  0  0  0  0  0  0  0  0  0  0  0
    2.4802    3.6784   -1.7139 H   0  0  0  0  0  0  0  0  0  0  0  0
    4.9115    1.0179    0.1974 H   0  0  0  0  0  0  0  0  0  0  0  0
    4.5565    0.4603   -1.4639 H   0  0  0  0  0  0  0  0  0  0  0  0
    5.0135   -1.7861   -0.9477 H   0  0  0  0  0  0  0  0  0  0  0  0
    6.0472   -1.0991    0.3110 H   0  0  0  0  0  0  0  0  0  0  0  0
    3.9426   -2.8656    0.8471 H   0  0  0  0  0  0  0  0  0  0  0  0
    4.4299   -1.6083    2.0229 H   0  0  0  0  0  0  0  0  0  0  0  0
  1  2  1  0
  2  3  1  0
  3  4  1  0
  4  5  2  0
  5  6  1  0
  6  7  1  0
  6  8  2  0
  8  9  1  0
  9 10  2  0
  9 11  1  0
 11 12  1  0
 12 13  1  0
 13 14  1  0
 14 15  2  0
 15 16  1  0
 16 17  1  0
 17 18  1  0
 17 19  2  0
 15 20  1  0
 20 21  1  0
 21 22  1  0
  8  3  1  0
 16 12  2  0
 22 14  1  0
  1 23  1  0
  1 24  1  0
  1 25  1  0
  2 26  1  0
  2 27  1  0
  5 28  1  0
 11 29  1  0
 18 30  1  0
 18 31  1  0
 20 32  1  0
 20 33  1  0
 21 34  1  0
 21 35  1  0
 22 36  1  0
 22 37  1  0
M  END
$$$$
