
     RDKit          3D

 80 86  0  0  0  0  0  0  0  0999 V2000
    6.1964   -0.4115    3.0989 C   0  0  0  0  0  0  0  0  0  0  0  0
    6.0181   -1.3887    1.9321 C   0  0  0  0  0  0  0  0  0  0  0  0
    7.0411   -1.1449    0.8170 C   0  0  0  0  0  0  0  0  0  0  0  0
    6.2005   -2.8201    2.4600 C   0  0  0  0  0  0  0  0  0  0  0  0
    4.6609   -1.3579    1.4216 O   0  0  0  0  0  0  0  0  0  0  0  0
    4.1444   -0.2315    0.8673 C   0  0  0  0  0  0  0  0  0  0  0  0
    4.7514    0.8237    0.7380 O   0  0  0  0  0  0  0  0  0  0  0  0
    2.8414   -0.4126    0.4552 N   0  0  0  0  0  0  0  0  0  0  0  0
    2.1211   -1.6814    0.6124 C   0  0  0  0  0  0  0  0  0  0  0  0
    0.5937   -1.4983    0.5260 C   0  0  0  0  0  0  0  0  0  0  0  0
    0.1821   -0.8668   -0.7249 N   0  0  0  0  0  0  0  0  0  0  0  0
    1.1395    0.1522   -1.2682 C   0  0  2  0  0  0  0  0  0  0  0  0
    2.1307    0.6786   -0.2160 C   0  0  0  0  0  0  0  0  0  0  0  0
    0.2380    1.1791   -1.8306 C   0  0  0  0  0  0  0  0  0  0  0  0
   -1.1099    0.8635   -1.6017 C   0  0  0  0  0  0  0  0  0  0  0  0
   -1.8860    1.8481   -2.1582 C   0  0  0  0  0  0  0  0  0  0  0  0
   -3.2004    2.0243   -2.2116 O   0  0  0  0  0  0  0  0  0  0  0  0
   -1.0107    2.7705   -2.7108 N   0  0  0  0  0  0  0  0  0  0  0  0
   -1.4120    3.9877   -3.4045 C   0  0  0  0  0  0  0  0  0  0  0  0
   -1.5139    5.1594   -2.4577 C   0  0  0  0  0  0  0  0  0  0  0  0
   -0.3995    5.9739   -2.2082 C   0  0  0  0  0  0  0  0  0  0  0  0
   -0.4910    7.0505   -1.3247 C   0  0  0  0  0  0  0  0  0  0  0  0
   -1.6952    7.3211   -0.6775 C   0  0  0  0  0  0  0  0  0  0  0  0
   -2.8075    6.5140   -0.9096 C   0  0  0  0  0  0  0  0  0  0  0  0
   -2.7174    5.4371   -1.7929 C   0  0  0  0  0  0  0  0  0  0  0  0
    0.2995    2.3475   -2.5420 C   0  0  0  0  0  0  0  0  0  0  0  0
    1.3185    3.0434   -3.0297 O   0  0  0  0  0  0  0  0  0  0  0  0
   -1.2324   -0.3950   -0.8351 C   0  0  1  0  0  0  0  0  0  0  0  0
   -2.1123   -1.4780   -1.5142 C   0  0  0  0  0  0  0  0  0  0  0  0
   -1.9198   -2.0390   -2.5853 O   0  0  0  0  0  0  0  0  0  0  0  0
   -3.1925   -1.7172   -0.6459 N   0  0  0  0  0  0  0  0  0  0  0  0
   -4.1723   -2.7547   -0.8741 C   0  0  0  0  0  0  0  0  0  0  0  0
   -3.8214   -4.0448   -0.1676 C   0  0  0  0  0  0  0  0  0  0  0  0
   -2.7262   -4.8117   -0.5953 C   0  0  0  0  0  0  0  0  0  0  0  0
   -2.3868   -5.9959    0.0604 C   0  0  0  0  0  0  0  0  0  0  0  0
   -3.1403   -6.4301    1.1487 C   0  0  0  0  0  0  0  0  0  0  0  0
   -4.2345   -5.6820    1.5797 C   0  0  0  0  0  0  0  0  0  0  0  0
   -4.5741   -4.4958    0.9260 C   0  0  0  0  0  0  0  0  0  0  0  0
   -3.1282   -0.8965    0.4895 C   0  0  0  0  0  0  0  0  0  0  0  0
   -4.0113   -0.8245    1.5521 C   0  0  0  0  0  0  0  0  0  0  0  0
   -3.7564    0.1105    2.5590 C   0  0  0  0  0  0  0  0  0  0  0  0
   -2.6388    0.9557    2.4879 C   0  0  0  0  0  0  0  0  0  0  0  0
   -1.7530    0.8723    1.4129 C   0  0  0  0  0  0  0  0  0  0  0  0
   -2.0011   -0.0691    0.4196 C   0  0  0  0  0  0  0  0  0  0  0  0
    5.4101   -0.5542    3.8487 H   0  0  0  0  0  0  0  0  0  0  0  0
    6.1338    0.6316    2.7741 H   0  0  0  0  0  0  0  0  0  0  0  0
    7.1689   -0.5453    3.5854 H   0  0  0  0  0  0  0  0  0  0  0  0
    7.0080   -0.1154    0.4481 H   0  0  0  0  0  0  0  0  0  0  0  0
    6.8401   -1.7939   -0.0426 H   0  0  0  0  0  0  0  0  0  0  0  0
    8.0621   -1.3341    1.1655 H   0  0  0  0  0  0  0  0  0  0  0  0
    7.1993   -2.9757    2.8813 H   0  0  0  0  0  0  0  0  0  0  0  0
    5.4580   -3.0475    3.2345 H   0  0  0  0  0  0  0  0  0  0  0  0
    6.0449   -3.5529    1.6594 H   0  0  0  0  0  0  0  0  0  0  0  0
    2.4727   -2.3541   -0.1793 H   0  0  0  0  0  0  0  0  0  0  0  0
    2.3833   -2.1355    1.5744 H   0  0  0  0  0  0  0  0  0  0  0  0
    0.3036   -0.8971    1.3937 H   0  0  0  0  0  0  0  0  0  0  0  0
    0.1076   -2.4755    0.6227 H   0  0  0  0  0  0  0  0  0  0  0  0
    1.7002   -0.3287   -2.0797 H   0  0  0  0  0  0  0  0  0  0  0  0
    1.6084    1.2448    0.5664 H   0  0  0  0  0  0  0  0  0  0  0  0
    2.8471    1.3668   -0.6799 H   0  0  0  0  0  0  0  0  0  0  0  0
   -3.6151    1.3071   -1.7004 H   0  0  0  0  0  0  0  0  0  0  0  0
   -2.3709    3.8012   -3.9027 H   0  0  0  0  0  0  0  0  0  0  0  0
   -0.6850    4.1869   -4.2004 H   0  0  0  0  0  0  0  0  0  0  0  0
    0.5497    5.7651   -2.6979 H   0  0  0  0  0  0  0  0  0  0  0  0
    0.3791    7.6748   -1.1392 H   0  0  0  0  0  0  0  0  0  0  0  0
   -1.7656    8.1586    0.0114 H   0  0  0  0  0  0  0  0  0  0  0  0
   -3.7448    6.7195   -0.3997 H   0  0  0  0  0  0  0  0  0  0  0  0
   -3.5897    4.8069   -1.9561 H   0  0  0  0  0  0  0  0  0  0  0  0
    2.1370    2.5544   -2.8344 H   0  0  0  0  0  0  0  0  0  0  0  0
   -4.2385   -2.9562   -1.9507 H   0  0  0  0  0  0  0  0  0  0  0  0
   -5.1613   -2.3908   -0.5711 H   0  0  0  0  0  0  0  0  0  0  0  0
   -2.1293   -4.4890   -1.4473 H   0  0  0  0  0  0  0  0  0  0  0  0
   -1.5365   -6.5798   -0.2818 H   0  0  0  0  0  0  0  0  0  0  0  0
   -2.8765   -7.3531    1.6583 H   0  0  0  0  0  0  0  0  0  0  0  0
   -4.8234   -6.0231    2.4276 H   0  0  0  0  0  0  0  0  0  0  0  0
   -5.4338   -3.9303    1.2770 H   0  0  0  0  0  0  0  0  0  0  0  0
   -4.8865   -1.4589    1.6180 H   0  0  0  0  0  0  0  0  0  0  0  0
   -4.4354    0.1910    3.4053 H   0  0  0  0  0  0  0  0  0  0  0  0
   -2.4618    1.6838    3.2769 H   0  0  0  0  0  0  0  0  0  0  0  0
   -0.8927    1.5332    1.3565 H   0  0  0  0  0  0  0  0  0  0  0  0
  1  2  1  0
  2  3  1  0
  2  4  1  0
  2  5  1  0
  5  6  1  0
  6  7  2  0
  6  8  1  0
  8  9  1  0
  9 10  1  0
 10 11  1  0
 11 12  1  0
 12 13  1  0
 12 14  1  0
 14 15  1  0
 15 16  2  0
 16 17  1  0
 16 18  1  0
 18 19  1  0
 19 20  1  0
 20 21  2  0
 21 22  1  0
 22 23  2  0
 23 24  1  0
 24 25  2  0
 18 26  1  0
 26 27  1  0
 15 28  1  0
 28 29  1  0
 29 30  2  0
 29 31  1  0
 31 32  1  0
 32 33  1  0
 33 34  2  0
 34 35  1  0
 35 36  2  0
 36 37  1  0
 37 38  2  0
 31 39  1  0
 39 40  2  0
 40 41  1  0
 41 42  2  0
 42 43  1  0
 43 44  2  0
 13  8  1  0
 26 14  2  0
 44 28  1  0
 28 11  1  1
 38 33  1  0
 44 39  1  0
 25 20  1  0
  1 45  1  0
  1 46  1  0
  1 47  1  0
  3 48  1  0
  3 49  1  0
  3 50  1  0
  4 51  1  0
  4 52  1  0
  4 53  1  0
  9 54  1  0
  9 55  1  0
 10 56  1  0
 10 57  1  0
 12 58  1  6
 13 59  1  0
 13 60  1  0
 17 61  1  0
 19 62  1  0
 19 63  1  0
 21 64  1  0
 22 65  1  0
 23 66  1  0
 24 67  1  0
 25 68  1  0
 27 69  1  0
 32 70  1  0
 32 71  1  0
 34 72  1  0
 35 73  1  0
 36 74  1  0
 37 75  1  0
 38 76  1  0
 40 77  1  0
 41 78  1  0
 42 79  1  0
 43 80  1  0
M  END
$$$$
