
     RDKit          3D

 60 63  0  0  0  0  0  0  0  0999 V2000
   -3.3992    5.1510    2.6905 C   0  0  0  0  0  0  0  0  0  0  0  0
   -3.8828    4.7692    1.4096 O   0  0  0  0  0  0  0  0  0  0  0  0
   -3.4967    3.5432    0.9433 C   0  0  0  0  0  0  0  0  0  0  0  0
   -4.0096    3.2084   -0.3121 C   0  0  0  0  0  0  0  0  0  0  0  0
   -3.6994    1.9839   -0.9100 C   0  0  0  0  0  0  0  0  0  0  0  0
   -2.8634    1.0801   -0.2471 C   0  0  0  0  0  0  0  0  0  0  0  0
   -2.5502   -0.1670   -0.8468 N   0  0  0  0  0  0  0  0  0  0  0  0
   -3.4290   -1.0641   -1.4466 C   0  0  0  0  0  0  0  0  0  0  0  0
   -4.9215   -1.0012   -1.3975 C   0  0  0  0  0  0  0  0  0  0  0  0
   -5.4625   -1.1955   -0.0108 C   0  0  0  0  0  0  0  0  0  0  0  0
   -6.0932   -0.2796    0.8155 C   0  0  0  0  0  0  0  0  0  0  0  0
   -6.3989   -0.9278    2.0325 C   0  0  0  0  0  0  0  0  0  0  0  0
   -5.9586   -2.2259    1.9236 C   0  0  0  0  0  0  0  0  0  0  0  0
   -5.4007   -2.3876    0.6811 N   0  0  0  0  0  0  0  0  0  0  0  0
   -4.8318   -3.6330    0.2086 C   0  0  0  0  0  0  0  0  0  0  0  0
   -2.7500   -2.0860   -1.9369 N   0  0  0  0  0  0  0  0  0  0  0  0
   -1.4326   -1.9165   -1.6231 N   0  0  0  0  0  0  0  0  0  0  0  0
   -1.3172   -0.7880   -0.9619 C   0  0  0  0  0  0  0  0  0  0  0  0
    0.2017   -0.1026   -0.4812 S   0  0  0  0  0  0  0  0  0  0  0  0
    1.2728   -1.5616   -0.6227 C   0  0  0  0  0  0  0  0  0  0  0  0
    2.6797   -1.1837   -0.2019 C   0  0  0  0  0  0  0  0  0  0  0  0
    3.1048   -1.3807    0.9334 O   0  0  0  0  0  0  0  0  0  0  0  0
    3.4360   -0.6032   -1.2021 N   0  0  0  0  0  0  0  0  0  0  0  0
    4.7779   -0.1122   -0.9492 C   0  0  0  0  0  0  0  0  0  0  0  0
    5.8082   -1.2419   -0.8855 C   0  0  0  0  0  0  0  0  0  0  0  0
    7.2035   -0.7112   -0.6714 C   0  0  0  0  0  0  0  0  0  0  0  0
    8.0489   -0.4640   -1.7610 C   0  0  0  0  0  0  0  0  0  0  0  0
    9.3329    0.0440   -1.5569 C   0  0  0  0  0  0  0  0  0  0  0  0
    9.7811    0.3121   -0.2647 C   0  0  0  0  0  0  0  0  0  0  0  0
    8.9456    0.0738    0.8251 C   0  0  0  0  0  0  0  0  0  0  0  0
    7.6614   -0.4336    0.6236 C   0  0  0  0  0  0  0  0  0  0  0  0
   -2.3407    1.4136    1.0073 C   0  0  0  0  0  0  0  0  0  0  0  0
   -2.6602    2.6415    1.5999 C   0  0  0  0  0  0  0  0  0  0  0  0
   -2.3079    5.2308    2.6918 H   0  0  0  0  0  0  0  0  0  0  0  0
   -3.8053    6.1409    2.9198 H   0  0  0  0  0  0  0  0  0  0  0  0
   -3.7469    4.4606    3.4652 H   0  0  0  0  0  0  0  0  0  0  0  0
   -4.6504    3.9160   -0.8338 H   0  0  0  0  0  0  0  0  0  0  0  0
   -4.0850    1.7848   -1.9059 H   0  0  0  0  0  0  0  0  0  0  0  0
   -5.2896   -0.0623   -1.8201 H   0  0  0  0  0  0  0  0  0  0  0  0
   -5.3319   -1.7829   -2.0492 H   0  0  0  0  0  0  0  0  0  0  0  0
   -6.3034    0.7535    0.5698 H   0  0  0  0  0  0  0  0  0  0  0  0
   -6.8863   -0.4951    2.8962 H   0  0  0  0  0  0  0  0  0  0  0  0
   -5.9998   -3.0442    2.6307 H   0  0  0  0  0  0  0  0  0  0  0  0
   -3.7451   -3.5680    0.2977 H   0  0  0  0  0  0  0  0  0  0  0  0
   -5.2068   -4.4556    0.8232 H   0  0  0  0  0  0  0  0  0  0  0  0
   -5.1337   -3.7953   -0.8284 H   0  0  0  0  0  0  0  0  0  0  0  0
    1.2876   -1.9330   -1.6525 H   0  0  0  0  0  0  0  0  0  0  0  0
    0.9177   -2.3657    0.0297 H   0  0  0  0  0  0  0  0  0  0  0  0
    2.9726   -0.3171   -2.0561 H   0  0  0  0  0  0  0  0  0  0  0  0
    4.7669    0.4585   -0.0129 H   0  0  0  0  0  0  0  0  0  0  0  0
    5.0203    0.5848   -1.7598 H   0  0  0  0  0  0  0  0  0  0  0  0
    5.5625   -1.9478   -0.0821 H   0  0  0  0  0  0  0  0  0  0  0  0
    5.7746   -1.8312   -1.8110 H   0  0  0  0  0  0  0  0  0  0  0  0
    7.7143   -0.6682   -2.7755 H   0  0  0  0  0  0  0  0  0  0  0  0
    9.9844    0.2300   -2.4068 H   0  0  0  0  0  0  0  0  0  0  0  0
   10.7815    0.7062   -0.1069 H   0  0  0  0  0  0  0  0  0  0  0  0
    9.2941    0.2817    1.8333 H   0  0  0  0  0  0  0  0  0  0  0  0
    7.0182   -0.6141    1.4832 H   0  0  0  0  0  0  0  0  0  0  0  0
   -1.7163    0.7212    1.5671 H   0  0  0  0  0  0  0  0  0  0  0  0
   -2.2426    2.8571    2.5782 H   0  0  0  0  0  0  0  0  0  0  0  0
  1  2  1  0
  2  3  1  0
  3  4  2  0
  4  5  1  0
  5  6  2  0
  6  7  1  0
  7  8  1  0
  8  9  1  0
  9 10  1  0
 10 11  2  0
 11 12  1  0
 12 13  2  0
 13 14  1  0
 14 15  1  0
  8 16  2  0
 16 17  1  0
 17 18  2  0
 18 19  1  0
 19 20  1  0
 20 21  1  0
 21 22  2  0
 21 23  1  0
 23 24  1  0
 24 25  1  0
 25 26  1  0
 26 27  2  0
 27 28  1  0
 28 29  2  0
 29 30  1  0
 30 31  2  0
  6 32  1  0
 32 33  2  0
 33  3  1  0
 18  7  1  0
 31 26  1  0
 14 10  1  0
  1 34  1  0
  1 35  1  0
  1 36  1  0
  4 37  1  0
  5 38  1  0
  9 39  1  0
  9 40  1  0
 11 41  1  0
 12 42  1  0
 13 43  1  0
 15 44  1  0
 15 45  1  0
 15 46  1  0
 20 47  1  0
 20 48  1  0
 23 49  1  0
 24 50  1  0
 24 51  1  0
 25 52  1  0
 25 53  1  0
 27 54  1  0
 28 55  1  0
 29 56  1  0
 30 57  1  0
 31 58  1  0
 32 59  1  0
 33 60  1  0
M  END
$$$$
