
     RDKit          3D

 60 63  0  0  0  0  0  0  0  0999 V2000
    5.5259    4.6667   -1.0374 C   0  0  0  0  0  0  0  0  0  0  0  0
    4.8501    3.4602   -1.6684 C   0  0  0  0  0  0  0  0  0  0  0  0
    4.4182    2.5393   -0.6672 O   0  0  0  0  0  0  0  0  0  0  0  0
    5.2696    1.5636   -0.2216 C   0  0  0  0  0  0  0  0  0  0  0  0
    6.6137    1.4487   -0.5950 C   0  0  0  0  0  0  0  0  0  0  0  0
    7.4161    0.4285   -0.0720 C   0  0  0  0  0  0  0  0  0  0  0  0
    6.8862   -0.4916    0.8273 C   0  0  0  0  0  0  0  0  0  0  0  0
    5.5509   -0.3916    1.2101 C   0  0  0  0  0  0  0  0  0  0  0  0
    4.7434    0.6314    0.6909 C   0  0  0  0  0  0  0  0  0  0  0  0
    3.3226    0.7131    1.1096 C   0  0  0  0  0  0  0  0  0  0  0  0
    2.8414   -0.0690    2.0284 N   0  0  0  0  0  0  0  0  0  0  0  0
    1.5053    0.0345    2.3251 N   0  0  0  0  0  0  0  0  0  0  0  0
    0.4760    0.2290    1.4052 C   0  0  0  0  0  0  0  0  0  0  0  0
    0.6226    0.5139    0.2203 O   0  0  0  0  0  0  0  0  0  0  0  0
   -0.8430    0.0645    2.0194 C   0  0  0  0  0  0  0  0  0  0  0  0
   -1.0020   -0.0836    3.3714 N   0  0  0  0  0  0  0  0  0  0  0  0
   -2.2923   -0.1898    3.6258 N   0  0  0  0  0  0  0  0  0  0  0  0
   -2.9946   -0.0940    2.4557 N   0  0  0  0  0  0  0  0  0  0  0  0
   -4.4133   -0.1223    2.4636 C   0  0  0  0  0  0  0  0  0  0  0  0
   -5.1213   -0.0080    1.3405 N   0  0  0  0  0  0  0  0  0  0  0  0
   -6.4470   -0.0882    1.7601 O   0  0  0  0  0  0  0  0  0  0  0  0
   -6.5311   -0.2485    3.1385 N   0  0  0  0  0  0  0  0  0  0  0  0
   -5.2721   -0.2572    3.5733 C   0  0  0  0  0  0  0  0  0  0  0  0
   -4.9195   -0.3794    4.8658 N   0  0  0  0  0  0  0  0  0  0  0  0
   -2.0882    0.0168    1.4044 C   0  0  0  0  0  0  0  0  0  0  0  0
   -2.4121    0.0526   -0.0486 C   0  0  0  0  0  0  0  0  0  0  0  0
   -2.0695   -1.2380   -0.6591 N   0  0  0  0  0  0  0  0  0  0  0  0
   -3.1268   -2.2520   -0.5558 C   0  0  0  0  0  0  0  0  0  0  0  0
   -4.3095   -2.0345   -1.5077 C   0  0  0  0  0  0  0  0  0  0  0  0
   -3.8727   -1.8393   -2.9647 C   0  0  0  0  0  0  0  0  0  0  0  0
   -3.4662   -3.1639   -3.6155 C   0  0  0  0  0  0  0  0  0  0  0  0
   -2.7469   -0.7993   -3.0379 C   0  0  0  0  0  0  0  0  0  0  0  0
   -1.6150   -1.0932   -2.0492 C   0  0  0  0  0  0  0  0  0  0  0  0
    4.8638    5.1347   -0.3018 H   0  0  0  0  0  0  0  0  0  0  0  0
    5.7836    5.4072   -1.7988 H   0  0  0  0  0  0  0  0  0  0  0  0
    6.4393    4.3836   -0.5055 H   0  0  0  0  0  0  0  0  0  0  0  0
    3.9449    3.8047   -2.1815 H   0  0  0  0  0  0  0  0  0  0  0  0
    5.4670    2.9847   -2.4392 H   0  0  0  0  0  0  0  0  0  0  0  0
    7.0792    2.1423   -1.2877 H   0  0  0  0  0  0  0  0  0  0  0  0
    8.4592    0.3537   -0.3707 H   0  0  0  0  0  0  0  0  0  0  0  0
    7.5095   -1.2852    1.2307 H   0  0  0  0  0  0  0  0  0  0  0  0
    5.1412   -1.1157    1.9117 H   0  0  0  0  0  0  0  0  0  0  0  0
    2.7095    1.4922    0.6268 H   0  0  0  0  0  0  0  0  0  0  0  0
    1.2403   -0.3967    3.2075 H   0  0  0  0  0  0  0  0  0  0  0  0
   -5.6144   -0.6505    5.5534 H   0  0  0  0  0  0  0  0  0  0  0  0
   -3.9525   -0.5421    5.1413 H   0  0  0  0  0  0  0  0  0  0  0  0
   -1.7956    0.8525   -0.4810 H   0  0  0  0  0  0  0  0  0  0  0  0
   -3.4312    0.3658   -0.2768 H   0  0  0  0  0  0  0  0  0  0  0  0
   -3.4927   -2.3272    0.4736 H   0  0  0  0  0  0  0  0  0  0  0  0
   -2.6791   -3.2317   -0.7629 H   0  0  0  0  0  0  0  0  0  0  0  0
   -5.0014   -2.8812   -1.4282 H   0  0  0  0  0  0  0  0  0  0  0  0
   -4.8757   -1.1506   -1.1948 H   0  0  0  0  0  0  0  0  0  0  0  0
   -4.7307   -1.4563   -3.5320 H   0  0  0  0  0  0  0  0  0  0  0  0
   -3.1934   -3.0088   -4.6649 H   0  0  0  0  0  0  0  0  0  0  0  0
   -4.2992   -3.8747   -3.5909 H   0  0  0  0  0  0  0  0  0  0  0  0
   -2.6143   -3.6324   -3.1142 H   0  0  0  0  0  0  0  0  0  0  0  0
   -3.1640    0.1930   -2.8253 H   0  0  0  0  0  0  0  0  0  0  0  0
   -2.3416   -0.7512   -4.0557 H   0  0  0  0  0  0  0  0  0  0  0  0
   -1.1025   -2.0170   -2.3436 H   0  0  0  0  0  0  0  0  0  0  0  0
   -0.8482   -0.3121   -2.1245 H   0  0  0  0  0  0  0  0  0  0  0  0
  1  2  1  0
  2  3  1  0
  3  4  1  0
  4  5  2  0
  5  6  1  0
  6  7  2  0
  7  8  1  0
  8  9  2  0
  9 10  1  0
 10 11  2  3
 11 12  1  0
 12 13  1  0
 13 14  2  0
 13 15  1  0
 15 16  1  0
 16 17  2  0
 17 18  1  0
 18 19  1  0
 19 20  2  0
 20 21  1  0
 21 22  1  0
 22 23  2  0
 23 24  1  0
 18 25  1  0
 25 26  1  0
 26 27  1  0
 27 28  1  0
 28 29  1  0
 29 30  1  0
 30 31  1  0
 30 32  1  0
 32 33  1  0
  9  4  1  0
 25 15  2  0
 33 27  1  0
 23 19  1  0
  1 34  1  0
  1 35  1  0
  1 36  1  0
  2 37  1  0
  2 38  1  0
  5 39  1  0
  6 40  1  0
  7 41  1  0
  8 42  1  0
 10 43  1  0
 12 44  1  0
 24 45  1  0
 24 46  1  0
 26 47  1  0
 26 48  1  0
 28 49  1  0
 28 50  1  0
 29 51  1  0
 29 52  1  0
 30 53  1  0
 31 54  1  0
 31 55  1  0
 31 56  1  0
 32 57  1  0
 32 58  1  0
 33 59  1  0
 33 60  1  0
M  END
$$$$
