
     RDKit          3D

 41 44  0  0  0  0  0  0  0  0999 V2000
   -0.8787    2.8703   -3.4834 O   0  0  0  0  0  0  0  0  0  0  0  0
   -0.9042    2.4676   -2.0921 S   0  0  0  0  0  6  0  0  0  0  0  0
   -1.0009    3.4483   -1.0327 O   0  0  0  0  0  0  0  0  0  0  0  0
    0.4815    1.5303   -1.8616 N   0  0  0  0  0  0  0  0  0  0  0  0
    0.6184    0.7577   -0.6657 C   0  0  0  0  0  0  0  0  0  0  0  0
    0.8341    1.4447    0.5333 C   0  0  0  0  0  0  0  0  0  0  0  0
    0.9451    0.7573    1.7430 C   0  0  0  0  0  0  0  0  0  0  0  0
    1.1313    1.7349    3.2288 S   0  0  0  0  0  0  0  0  0  0  0  0
    2.7151    1.2719    3.7776 C   0  0  0  0  0  0  0  0  0  0  0  0
    3.0444   -0.0338    4.0422 N   0  0  0  0  0  0  0  0  0  0  0  0
    4.2899    0.0573    4.4488 C   0  0  0  0  0  0  0  0  0  0  0  0
    4.6779    1.3603    4.4380 N   0  0  0  0  0  0  0  0  0  0  0  0
    3.6831    2.1579    4.0208 N   0  0  0  0  0  0  0  0  0  0  0  0
    0.8278   -0.6407    1.7321 C   0  0  0  0  0  0  0  0  0  0  0  0
    0.9312   -1.3657    2.8980 O   0  0  0  0  0  0  0  0  0  0  0  0
    0.5927   -1.3592    0.5365 C   0  0  0  0  0  0  0  0  0  0  0  0
    0.4585   -2.7647    0.5300 C   0  0  0  0  0  0  0  0  0  0  0  0
    0.2239   -3.4732   -0.6471 C   0  0  0  0  0  0  0  0  0  0  0  0
    0.1185   -2.7903   -1.8485 C   0  0  0  0  0  0  0  0  0  0  0  0
    0.2497   -1.4008   -1.8698 C   0  0  0  0  0  0  0  0  0  0  0  0
    0.4885   -0.6548   -0.6886 C   0  0  0  0  0  0  0  0  0  0  0  0
   -2.2350    1.3060   -1.8931 C   0  0  0  0  0  0  0  0  0  0  0  0
   -2.8101    1.1217   -0.6318 C   0  0  0  0  0  0  0  0  0  0  0  0
   -3.8538    0.2095   -0.4809 C   0  0  0  0  0  0  0  0  0  0  0  0
   -4.3293   -0.4974   -1.5867 C   0  0  0  0  0  0  0  0  0  0  0  0
   -3.7694   -0.2909   -2.8488 C   0  0  0  0  0  0  0  0  0  0  0  0
   -2.7228    0.6171   -3.0082 C   0  0  0  0  0  0  0  0  0  0  0  0
    0.8444    1.1469   -2.7311 H   0  0  0  0  0  0  0  0  0  0  0  0
    0.9159    2.5307    0.5186 H   0  0  0  0  0  0  0  0  0  0  0  0
    4.9361   -0.7534    4.7548 H   0  0  0  0  0  0  0  0  0  0  0  0
    5.5701    1.7685    4.6958 H   0  0  0  0  0  0  0  0  0  0  0  0
    1.5354   -0.8802    3.4987 H   0  0  0  0  0  0  0  0  0  0  0  0
    0.5330   -3.3203    1.4641 H   0  0  0  0  0  0  0  0  0  0  0  0
    0.1210   -4.5546   -0.6184 H   0  0  0  0  0  0  0  0  0  0  0  0
   -0.0699   -3.3348   -2.7701 H   0  0  0  0  0  0  0  0  0  0  0  0
    0.1508   -0.9073   -2.8324 H   0  0  0  0  0  0  0  0  0  0  0  0
   -2.4489    1.6743    0.2328 H   0  0  0  0  0  0  0  0  0  0  0  0
   -4.2983    0.0502    0.4987 H   0  0  0  0  0  0  0  0  0  0  0  0
   -5.1445   -1.2069   -1.4646 H   0  0  0  0  0  0  0  0  0  0  0  0
   -4.1539   -0.8357   -3.7077 H   0  0  0  0  0  0  0  0  0  0  0  0
   -2.2989    0.7811   -3.9959 H   0  0  0  0  0  0  0  0  0  0  0  0
  1  2  2  0
  2  3  2  0
  2  4  1  0
  4  5  1  0
  5  6  2  0
  6  7  1  0
  7  8  1  0
  8  9  1  0
  9 10  1  0
 10 11  2  0
 11 12  1  0
 12 13  1  0
  7 14  2  0
 14 15  1  0
 14 16  1  0
 16 17  2  0
 17 18  1  0
 18 19  2  0
 19 20  1  0
 20 21  2  0
  2 22  1  0
 22 23  2  0
 23 24  1  0
 24 25  2  0
 25 26  1  0
 26 27  2  0
 21  5  1  0
 27 22  1  0
 13  9  2  0
 21 16  1  0
  4 28  1  0
  6 29  1  0
 11 30  1  0
 12 31  1  0
 15 32  1  0
 17 33  1  0
 18 34  1  0
 19 35  1  0
 20 36  1  0
 23 37  1  0
 24 38  1  0
 25 39  1  0
 26 40  1  0
 27 41  1  0
M  END
$$$$
