
     RDKit          3D

 67 69  0  0  0  0  0  0  0  0999 V2000
    7.5276   -2.0605   -4.7314 C   0  0  0  0  0  0  0  0  0  0  0  0
    6.4856   -0.9552   -4.7179 C   0  0  0  0  0  0  0  0  0  0  0  0
    6.3798   -0.3848   -3.4163 O   0  0  0  0  0  0  0  0  0  0  0  0
    5.4269   -0.8583   -2.5501 C   0  0  0  0  0  0  0  0  0  0  0  0
    4.7046   -2.0415   -2.7314 C   0  0  0  0  0  0  0  0  0  0  0  0
    3.7574   -2.4486   -1.7874 C   0  0  0  0  0  0  0  0  0  0  0  0
    3.5271   -1.6865   -0.6391 C   0  0  0  0  0  0  0  0  0  0  0  0
    2.5106   -2.1279    0.3853 C   0  0  0  0  0  0  0  0  0  0  0  0
    1.2673   -1.2375    0.3946 C   0  0  0  0  0  0  0  0  0  0  0  0
    0.2773   -1.7208    1.3444 N   0  0  0  0  0  0  0  0  0  0  0  0
   -0.5605   -0.8343    1.9998 C   0  0  0  0  0  0  0  0  0  0  0  0
   -0.4405    0.3873    1.9294 O   0  0  0  0  0  0  0  0  0  0  0  0
   -1.6661   -1.5051    2.8290 C   0  0  0  0  0  0  0  0  0  0  0  0
   -2.9776   -1.0315    2.5347 O   0  0  0  0  0  0  0  0  0  0  0  0
   -3.3893   -1.2974    1.2733 C   0  0  0  0  0  0  0  0  0  0  0  0
   -2.7753   -1.9674    0.4533 O   0  0  0  0  0  0  0  0  0  0  0  0
   -4.7558   -0.7696    1.0193 C   0  0  0  0  0  0  0  0  0  0  0  0
   -5.5900   -1.6467    0.2960 C   0  0  0  0  0  0  0  0  0  0  0  0
   -6.9184   -1.3010    0.0506 C   0  0  0  0  0  0  0  0  0  0  0  0
   -7.7932   -2.2211   -0.6855 N   0  0  0  0  0  4  0  0  0  0  0  0
   -7.3306   -3.3265   -1.0021 O   0  0  0  0  0  0  0  0  0  0  0  0
   -8.9436   -1.8383   -0.9427 O   0  0  0  0  0  1  0  0  0  0  0  0
   -7.4220   -0.0899    0.5190 C   0  0  0  0  0  0  0  0  0  0  0  0
   -6.5825    0.7820    1.2233 C   0  0  0  0  0  0  0  0  0  0  0  0
   -5.2267    0.4895    1.4784 C   0  0  0  0  0  0  0  0  0  0  0  0
   -4.4174    1.4038    2.1487 N   0  0  0  0  0  0  0  0  0  0  0  0
   -3.2188    1.9178    1.4384 C   0  0  0  0  0  0  0  0  0  0  0  0
   -3.5188    3.2825    0.7967 C   0  0  0  0  0  0  0  0  0  0  0  0
   -3.9740    4.2343    1.7749 O   0  0  0  0  0  0  0  0  0  0  0  0
   -5.1713    3.7678    2.4140 C   0  0  0  0  0  0  0  0  0  0  0  0
   -4.9669    2.4010    3.0909 C   0  0  0  0  0  0  0  0  0  0  0  0
    4.2600   -0.5041   -0.4498 C   0  0  0  0  0  0  0  0  0  0  0  0
    5.2019   -0.0818   -1.3963 C   0  0  0  0  0  0  0  0  0  0  0  0
    5.9555    1.0610   -1.2794 O   0  0  0  0  0  0  0  0  0  0  0  0
    5.6076    1.9797   -0.2471 C   0  0  0  0  0  0  0  0  0  0  0  0
    6.4719    3.2158   -0.4120 C   0  0  0  0  0  0  0  0  0  0  0  0
    8.5028   -1.6695   -4.4199 H   0  0  0  0  0  0  0  0  0  0  0  0
    7.6265   -2.4871   -5.7343 H   0  0  0  0  0  0  0  0  0  0  0  0
    7.2709   -2.8634   -4.0323 H   0  0  0  0  0  0  0  0  0  0  0  0
    5.5204   -1.2854   -5.1169 H   0  0  0  0  0  0  0  0  0  0  0  0
    6.8242   -0.1521   -5.3832 H   0  0  0  0  0  0  0  0  0  0  0  0
    4.8627   -2.6809   -3.5926 H   0  0  0  0  0  0  0  0  0  0  0  0
    3.2096   -3.3736   -1.9567 H   0  0  0  0  0  0  0  0  0  0  0  0
    2.9827   -2.1211    1.3786 H   0  0  0  0  0  0  0  0  0  0  0  0
    2.2204   -3.1732    0.2057 H   0  0  0  0  0  0  0  0  0  0  0  0
    1.5372   -0.2043    0.6379 H   0  0  0  0  0  0  0  0  0  0  0  0
    0.7862   -1.2257   -0.5904 H   0  0  0  0  0  0  0  0  0  0  0  0
   -0.1239   -2.6308    1.1447 H   0  0  0  0  0  0  0  0  0  0  0  0
   -1.4606   -1.2796    3.8809 H   0  0  0  0  0  0  0  0  0  0  0  0
   -1.6370   -2.5965    2.7311 H   0  0  0  0  0  0  0  0  0  0  0  0
   -5.1927   -2.5991   -0.0521 H   0  0  0  0  0  0  0  0  0  0  0  0
   -8.4573    0.1985    0.3458 H   0  0  0  0  0  0  0  0  0  0  0  0
   -7.0194    1.7195    1.5536 H   0  0  0  0  0  0  0  0  0  0  0  0
   -2.8485    1.2296    0.6740 H   0  0  0  0  0  0  0  0  0  0  0  0
   -2.4286    2.0491    2.1862 H   0  0  0  0  0  0  0  0  0  0  0  0
   -2.6079    3.6865    0.3432 H   0  0  0  0  0  0  0  0  0  0  0  0
   -4.2759    3.1940    0.0080 H   0  0  0  0  0  0  0  0  0  0  0  0
   -5.9732    3.7388    1.6688 H   0  0  0  0  0  0  0  0  0  0  0  0
   -5.4524    4.5111    3.1671 H   0  0  0  0  0  0  0  0  0  0  0  0
   -5.8894    2.0514    3.5677 H   0  0  0  0  0  0  0  0  0  0  0  0
   -4.2317    2.5223    3.8973 H   0  0  0  0  0  0  0  0  0  0  0  0
    4.0842    0.0712    0.4535 H   0  0  0  0  0  0  0  0  0  0  0  0
    5.8031    1.5372    0.7355 H   0  0  0  0  0  0  0  0  0  0  0  0
    4.5536    2.2689   -0.3298 H   0  0  0  0  0  0  0  0  0  0  0  0
    6.3352    3.6514   -1.4097 H   0  0  0  0  0  0  0  0  0  0  0  0
    6.2234    3.9694    0.3424 H   0  0  0  0  0  0  0  0  0  0  0  0
    7.5336    2.9571   -0.3204 H   0  0  0  0  0  0  0  0  0  0  0  0
  1  2  1  0
  2  3  1  0
  3  4  1  0
  4  5  2  0
  5  6  1  0
  6  7  2  0
  7  8  1  0
  8  9  1  0
  9 10  1  0
 10 11  1  0
 11 12  2  0
 11 13  1  0
 13 14  1  0
 14 15  1  0
 15 16  2  0
 15 17  1  0
 17 18  2  0
 18 19  1  0
 19 20  1  0
 20 21  2  0
 20 22  1  0
 19 23  2  0
 23 24  1  0
 24 25  2  0
 25 26  1  0
 26 27  1  0
 27 28  1  0
 28 29  1  0
 29 30  1  0
 30 31  1  0
  7 32  1  0
 32 33  2  0
 33 34  1  0
 34 35  1  0
 35 36  1  0
 33  4  1  0
 25 17  1  0
 31 26  1  0
  1 37  1  0
  1 38  1  0
  1 39  1  0
  2 40  1  0
  2 41  1  0
  5 42  1  0
  6 43  1  0
  8 44  1  0
  8 45  1  0
  9 46  1  0
  9 47  1  0
 10 48  1  0
 13 49  1  0
 13 50  1  0
 18 51  1  0
 23 52  1  0
 24 53  1  0
 27 54  1  0
 27 55  1  0
 28 56  1  0
 28 57  1  0
 30 58  1  0
 30 59  1  0
 31 60  1  0
 31 61  1  0
 32 62  1  0
 35 63  1  0
 35 64  1  0
 36 65  1  0
 36 66  1  0
 36 67  1  0
M  CHG  2  20   1  22  -1
M  END
$$$$
