
     RDKit          3D

 37 38  0  0  0  0  0  0  0  0999 V2000
   -4.0618    0.7814   -2.4344 C   0  0  0  0  0  0  0  0  0  0  0  0
   -3.3873    0.9705   -1.1482 N   0  0  0  0  0  0  0  0  0  0  0  0
   -4.2046    1.6291   -0.1240 C   0  0  0  0  0  0  0  0  0  0  0  0
   -2.4651    0.0060   -0.7173 C   0  0  0  0  0  0  0  0  0  0  0  0
   -2.0489   -1.0608   -1.5337 C   0  0  0  0  0  0  0  0  0  0  0  0
   -1.1019   -2.0047   -1.1091 C   0  0  0  0  0  0  0  0  0  0  0  0
   -0.5178   -1.8977    0.1499 C   0  0  0  0  0  0  0  0  0  0  0  0
    0.5088   -2.8577    0.5644 C   0  0  0  0  0  0  0  0  0  0  0  0
    1.8098   -2.5760    0.7533 C   0  0  0  0  0  0  0  0  0  0  0  0
    2.4376   -1.2654    0.5539 C   0  0  0  0  0  0  0  0  0  0  0  0
    2.3589   -0.5982   -0.6672 C   0  0  0  0  0  0  0  0  0  0  0  0
    2.9353    0.6573   -0.8032 C   0  0  0  0  0  0  0  0  0  0  0  0
    3.5865    1.2306    0.2330 N   0  0  0  0  0  4  0  0  0  0  0  0
    4.1890    2.5627    0.0610 C   0  0  0  0  0  0  0  0  0  0  0  0
    3.7043    0.5865    1.4159 C   0  0  0  0  0  0  0  0  0  0  0  0
    3.1364   -0.6692    1.5997 C   0  0  0  0  0  0  0  0  0  0  0  0
   -0.9116   -0.8551    0.9854 C   0  0  0  0  0  0  0  0  0  0  0  0
   -1.8621    0.0800    0.5516 C   0  0  0  0  0  0  0  0  0  0  0  0
   -4.7034   -0.1065   -2.4174 H   0  0  0  0  0  0  0  0  0  0  0  0
   -3.3392    0.7008   -3.2538 H   0  0  0  0  0  0  0  0  0  0  0  0
   -4.6915    1.6455   -2.6750 H   0  0  0  0  0  0  0  0  0  0  0  0
   -3.5948    2.2744    0.5165 H   0  0  0  0  0  0  0  0  0  0  0  0
   -4.7354    0.8939    0.4913 H   0  0  0  0  0  0  0  0  0  0  0  0
   -4.9572    2.2837   -0.5784 H   0  0  0  0  0  0  0  0  0  0  0  0
   -2.4624   -1.1990   -2.5285 H   0  0  0  0  0  0  0  0  0  0  0  0
   -0.8259   -2.8142   -1.7812 H   0  0  0  0  0  0  0  0  0  0  0  0
    0.1494   -3.8729    0.7249 H   0  0  0  0  0  0  0  0  0  0  0  0
    2.4719   -3.3724    1.0902 H   0  0  0  0  0  0  0  0  0  0  0  0
    1.8355   -1.0419   -1.5118 H   0  0  0  0  0  0  0  0  0  0  0  0
    2.8793    1.2113   -1.7359 H   0  0  0  0  0  0  0  0  0  0  0  0
    4.2430    3.0630    1.0312 H   0  0  0  0  0  0  0  0  0  0  0  0
    3.5631    3.1516   -0.6146 H   0  0  0  0  0  0  0  0  0  0  0  0
    5.1879    2.4184   -0.3579 H   0  0  0  0  0  0  0  0  0  0  0  0
    4.2505    1.0859    2.2110 H   0  0  0  0  0  0  0  0  0  0  0  0
    3.2265   -1.1671    2.5631 H   0  0  0  0  0  0  0  0  0  0  0  0
   -0.4880   -0.7548    1.9814 H   0  0  0  0  0  0  0  0  0  0  0  0
   -2.1147    0.8809    1.2399 H   0  0  0  0  0  0  0  0  0  0  0  0
  1  2  1  0
  2  3  1  0
  2  4  1  0
  4  5  2  0
  5  6  1  0
  6  7  2  0
  7  8  1  0
  8  9  2  3
  9 10  1  0
 10 11  2  0
 11 12  1  0
 12 13  2  0
 13 14  1  0
 13 15  1  0
 15 16  2  0
  7 17  1  0
 17 18  2  0
 18  4  1  0
 16 10  1  0
  1 19  1  0
  1 20  1  0
  1 21  1  0
  3 22  1  0
  3 23  1  0
  3 24  1  0
  5 25  1  0
  6 26  1  0
  8 27  1  0
  9 28  1  0
 11 29  1  0
 12 30  1  0
 14 31  1  0
 14 32  1  0
 14 33  1  0
 15 34  1  0
 16 35  1  0
 17 36  1  0
 18 37  1  0
M  CHG  1  13   1
M  END
$$$$
