
     RDKit          3D

 48 50  0  0  0  0  0  0  0  0999 V2000
   -5.6425    2.6505   -0.9449 C   0  0  0  0  0  0  0  0  0  0  0  0
   -4.7079    1.8867   -0.1834 O   0  0  0  0  0  0  0  0  0  0  0  0
   -3.7751    1.2373   -0.9328 C   0  0  0  0  0  0  0  0  0  0  0  0
   -3.6899    1.2930   -2.1555 O   0  0  0  0  0  0  0  0  0  0  0  0
   -2.8390    0.4153   -0.0482 C   0  0  0  0  0  0  0  0  0  0  0  0
   -3.3120   -1.0441    0.0053 C   0  0  0  0  0  0  0  0  0  0  0  0
   -4.5871   -1.2319    0.7917 C   0  0  0  0  0  0  0  0  0  0  0  0
   -4.5659   -1.1851    2.1923 C   0  0  0  0  0  0  0  0  0  0  0  0
   -5.7452   -1.3396    2.9218 C   0  0  0  0  0  0  0  0  0  0  0  0
   -6.9544   -1.5420    2.2594 C   0  0  0  0  0  0  0  0  0  0  0  0
   -6.9857   -1.5914    0.8670 C   0  0  0  0  0  0  0  0  0  0  0  0
   -5.8077   -1.4374    0.1347 C   0  0  0  0  0  0  0  0  0  0  0  0
   -1.4967    0.5091   -0.6213 N   0  0  0  0  0  0  0  0  0  0  0  0
   -0.3593    0.2584    0.1100 C   0  0  0  0  0  0  0  0  0  0  0  0
   -0.3866   -0.0204    1.3053 O   0  0  0  0  0  0  0  0  0  0  0  0
    0.8844    0.3417   -0.6564 C   0  0  0  0  0  0  0  0  0  0  0  0
    2.2042    0.1483   -0.1794 C   0  0  0  0  0  0  0  0  0  0  0  0
    3.0055    0.3320   -1.2802 C   0  0  0  0  0  0  0  0  0  0  0  0
    4.4648    0.2869   -1.5397 C   0  0  0  0  0  0  0  0  0  0  0  0
    5.1083    0.0578   -0.2875 O   0  0  0  0  0  0  0  0  0  0  0  0
    6.4740   -0.0259   -0.2837 C   0  0  0  0  0  0  0  0  0  0  0  0
    7.0563   -0.2533    0.9670 C   0  0  0  0  0  0  0  0  0  0  0  0
    6.2802   -0.3732    2.0554 F   0  0  0  0  0  0  0  0  0  0  0  0
    8.4380   -0.3616    1.1251 C   0  0  0  0  0  0  0  0  0  0  0  0
    9.2719   -0.2423    0.0165 C   0  0  0  0  0  0  0  0  0  0  0  0
    8.7125   -0.0155   -1.2397 C   0  0  0  0  0  0  0  0  0  0  0  0
    7.3266    0.0909   -1.3829 C   0  0  0  0  0  0  0  0  0  0  0  0
    6.8495    0.3095   -2.6166 F   0  0  0  0  0  0  0  0  0  0  0  0
    2.2207    0.6160   -2.3546 O   0  0  0  0  0  0  0  0  0  0  0  0
    0.8921    0.6235   -1.9722 N   0  0  0  0  0  0  0  0  0  0  0  0
   -5.1294    3.4477   -1.4918 H   0  0  0  0  0  0  0  0  0  0  0  0
   -6.1980    2.0037   -1.6313 H   0  0  0  0  0  0  0  0  0  0  0  0
   -6.3524    3.1078   -0.2503 H   0  0  0  0  0  0  0  0  0  0  0  0
   -2.7985    0.8641    0.9515 H   0  0  0  0  0  0  0  0  0  0  0  0
   -2.5390   -1.6790    0.4584 H   0  0  0  0  0  0  0  0  0  0  0  0
   -3.4449   -1.4357   -1.0124 H   0  0  0  0  0  0  0  0  0  0  0  0
   -3.6287   -1.0297    2.7242 H   0  0  0  0  0  0  0  0  0  0  0  0
   -5.7197   -1.3029    4.0078 H   0  0  0  0  0  0  0  0  0  0  0  0
   -7.8721   -1.6631    2.8287 H   0  0  0  0  0  0  0  0  0  0  0  0
   -7.9287   -1.7514    0.3508 H   0  0  0  0  0  0  0  0  0  0  0  0
   -5.8516   -1.4783   -0.9517 H   0  0  0  0  0  0  0  0  0  0  0  0
   -1.3929    0.6838   -1.6201 H   0  0  0  0  0  0  0  0  0  0  0  0
    2.5172   -0.0903    0.8272 H   0  0  0  0  0  0  0  0  0  0  0  0
    4.7818    1.2476   -1.9612 H   0  0  0  0  0  0  0  0  0  0  0  0
    4.6761   -0.5342   -2.2342 H   0  0  0  0  0  0  0  0  0  0  0  0
    8.8496   -0.5383    2.1145 H   0  0  0  0  0  0  0  0  0  0  0  0
   10.3499   -0.3254    0.1302 H   0  0  0  0  0  0  0  0  0  0  0  0
    9.3473    0.0806   -2.1163 H   0  0  0  0  0  0  0  0  0  0  0  0
  1  2  1  0
  2  3  1  0
  3  4  2  0
  3  5  1  0
  5  6  1  0
  6  7  1  0
  7  8  2  0
  8  9  1  0
  9 10  2  0
 10 11  1  0
 11 12  2  0
  5 13  1  0
 13 14  1  0
 14 15  2  0
 14 16  1  0
 16 17  1  0
 17 18  2  0
 18 19  1  0
 19 20  1  0
 20 21  1  0
 21 22  2  0
 22 23  1  0
 22 24  1  0
 24 25  2  0
 25 26  1  0
 26 27  2  0
 27 28  1  0
 18 29  1  0
 29 30  1  0
 12  7  1  0
 30 16  2  0
 27 21  1  0
  1 31  1  0
  1 32  1  0
  1 33  1  0
  5 34  1  0
  6 35  1  0
  6 36  1  0
  8 37  1  0
  9 38  1  0
 10 39  1  0
 11 40  1  0
 12 41  1  0
 13 42  1  0
 17 43  1  0
 19 44  1  0
 19 45  1  0
 24 46  1  0
 25 47  1  0
 26 48  1  0
M  END
$$$$
