
     RDKit          3D

 36 38  0  0  0  0  0  0  0  0999 V2000
   -4.5439   -1.2394   -1.5338 C   0  0  0  0  0  0  0  0  0  0  0  0
   -3.4917   -0.6520   -0.7326 N   0  0  0  0  0  0  0  0  0  0  0  0
   -2.1521   -0.7453   -1.0122 C   0  0  0  0  0  0  0  0  0  0  0  0
   -1.4616   -0.0662   -0.0313 C   0  0  0  0  0  0  0  0  0  0  0  0
   -0.0409    0.0800    0.0607 C   0  0  0  0  0  0  0  0  0  0  0  0
    0.8597   -0.3538   -0.8381 C   0  0  0  0  0  0  0  0  0  0  0  0
    2.3072   -0.1682   -0.6888 C   0  0  0  0  0  0  0  0  0  0  0  0
    3.0640    0.2065   -1.7971 C   0  0  0  0  0  0  0  0  0  0  0  0
    4.4397    0.3654   -1.6713 C   0  0  0  0  0  0  0  0  0  0  0  0
    5.0517    0.1521   -0.4852 N   0  0  0  0  0  4  0  0  0  0  0  0
    6.5114    0.3171   -0.3780 C   0  0  0  0  0  0  0  0  0  0  0  0
    4.3420   -0.2370    0.5973 C   0  0  0  0  0  0  0  0  0  0  0  0
    2.9642   -0.4054    0.5178 C   0  0  0  0  0  0  0  0  0  0  0  0
   -2.4274    0.4609    0.8839 C   0  0  0  0  0  0  0  0  0  0  0  0
   -2.3497    1.2292    2.0651 C   0  0  0  0  0  0  0  0  0  0  0  0
   -3.5253    1.5789    2.7275 C   0  0  0  0  0  0  0  0  0  0  0  0
   -3.4464    2.3081    3.8490 F   0  0  0  0  0  0  0  0  0  0  0  0
   -4.7700    1.1916    2.2555 C   0  0  0  0  0  0  0  0  0  0  0  0
   -4.8775    0.4317    1.0887 C   0  0  0  0  0  0  0  0  0  0  0  0
   -3.6923    0.0784    0.4199 C   0  0  0  0  0  0  0  0  0  0  0  0
   -5.0969   -1.9478   -0.9118 H   0  0  0  0  0  0  0  0  0  0  0  0
   -5.1982   -0.4378   -1.8858 H   0  0  0  0  0  0  0  0  0  0  0  0
   -4.1058   -1.7611   -2.3884 H   0  0  0  0  0  0  0  0  0  0  0  0
   -1.8129   -1.2899   -1.8831 H   0  0  0  0  0  0  0  0  0  0  0  0
    0.3152    0.6073    0.9432 H   0  0  0  0  0  0  0  0  0  0  0  0
    0.5344   -0.8531   -1.7479 H   0  0  0  0  0  0  0  0  0  0  0  0
    2.5885    0.3866   -2.7599 H   0  0  0  0  0  0  0  0  0  0  0  0
    5.0586    0.6606   -2.5140 H   0  0  0  0  0  0  0  0  0  0  0  0
    6.7625    0.6325    0.6380 H   0  0  0  0  0  0  0  0  0  0  0  0
    6.9677   -0.6481   -0.6108 H   0  0  0  0  0  0  0  0  0  0  0  0
    6.8383    1.0837   -1.0854 H   0  0  0  0  0  0  0  0  0  0  0  0
    4.8855   -0.4165    1.5209 H   0  0  0  0  0  0  0  0  0  0  0  0
    2.4145   -0.7331    1.3984 H   0  0  0  0  0  0  0  0  0  0  0  0
   -1.3986    1.5554    2.4694 H   0  0  0  0  0  0  0  0  0  0  0  0
   -5.6618    1.4853    2.8017 H   0  0  0  0  0  0  0  0  0  0  0  0
   -5.8521    0.1286    0.7184 H   0  0  0  0  0  0  0  0  0  0  0  0
  1  2  1  0
  2  3  1  0
  3  4  2  0
  4  5  1  0
  5  6  2  3
  6  7  1  0
  7  8  2  0
  8  9  1  0
  9 10  2  0
 10 11  1  0
 10 12  1  0
 12 13  2  0
  4 14  1  0
 14 15  2  0
 15 16  1  0
 16 17  1  0
 16 18  2  0
 18 19  1  0
 19 20  2  0
 20  2  1  0
 13  7  1  0
 20 14  1  0
  1 21  1  0
  1 22  1  0
  1 23  1  0
  3 24  1  0
  5 25  1  0
  6 26  1  0
  8 27  1  0
  9 28  1  0
 11 29  1  0
 11 30  1  0
 11 31  1  0
 12 32  1  0
 13 33  1  0
 15 34  1  0
 18 35  1  0
 19 36  1  0
M  CHG  1  10   1
M  END
$$$$
