
     RDKit          3D

 37 39  0  0  0  0  0  0  0  0999 V2000
   -3.9951   -1.7071    1.9777 C   0  0  0  0  0  0  0  0  0  0  0  0
   -4.4685   -1.5692    0.5413 C   0  0  0  0  0  0  0  0  0  0  0  0
   -4.2078   -0.2480   -0.0079 N   0  0  0  0  0  0  0  0  0  0  0  0
   -5.2377    0.6290   -0.0639 N   0  0  0  0  0  0  0  0  0  0  0  0
   -4.7019    1.7160   -0.6165 C   0  0  0  0  0  0  0  0  0  0  0  0
   -3.3396    1.5435   -0.8828 C   0  0  0  0  0  0  0  0  0  0  0  0
   -2.2906    2.8552   -1.7113 Br  0  0  0  0  0  0  0  0  0  0  0  0
   -3.0083    0.2712   -0.4581 C   0  0  0  0  0  0  0  0  0  0  0  0
   -1.7530   -0.4573   -0.4647 C   0  0  0  0  0  0  0  0  0  0  0  0
   -1.7374   -1.6804   -0.5362 O   0  0  0  0  0  0  0  0  0  0  0  0
   -0.6411    0.3519   -0.3346 N   0  0  0  0  0  0  0  0  0  0  0  0
    0.6955   -0.0264   -0.3099 C   0  0  0  0  0  0  0  0  0  0  0  0
    1.1677   -1.6479   -0.6019 S   0  0  0  0  0  0  0  0  0  0  0  0
    2.7708   -1.2538   -0.3925 C   0  0  0  0  0  0  0  0  0  0  0  0
    2.9925    0.0676   -0.1209 C   0  0  0  0  0  0  0  0  0  0  0  0
    1.7836    0.8262   -0.0815 C   0  0  0  0  0  0  0  0  0  0  0  0
    1.6097    2.2532    0.1777 C   0  0  0  0  0  0  0  0  0  0  0  0
    2.7264    3.0335    0.1023 N   0  0  0  0  0  0  0  0  0  0  0  0
    0.5180    2.7629    0.4162 O   0  0  0  0  0  0  0  0  0  0  0  0
    4.4464    0.3159    0.0761 C   0  0  0  0  0  0  0  0  0  0  0  0
    5.0219   -1.1261    0.2289 C   0  0  0  0  0  0  0  0  0  0  0  0
    3.9931   -2.0886   -0.4330 C   0  0  0  0  0  0  0  0  0  0  0  0
   -4.4795   -0.9665    2.6230 H   0  0  0  0  0  0  0  0  0  0  0  0
   -2.9133   -1.5632    2.0613 H   0  0  0  0  0  0  0  0  0  0  0  0
   -4.2354   -2.7033    2.3616 H   0  0  0  0  0  0  0  0  0  0  0  0
   -5.5509   -1.7384    0.4921 H   0  0  0  0  0  0  0  0  0  0  0  0
   -4.0069   -2.3134   -0.1128 H   0  0  0  0  0  0  0  0  0  0  0  0
   -5.3319    2.5764   -0.8018 H   0  0  0  0  0  0  0  0  0  0  0  0
   -0.7998    1.3445   -0.1661 H   0  0  0  0  0  0  0  0  0  0  0  0
    3.5627    2.7102   -0.3576 H   0  0  0  0  0  0  0  0  0  0  0  0
    2.5716    4.0318    0.1470 H   0  0  0  0  0  0  0  0  0  0  0  0
    4.6590    0.9171    0.9643 H   0  0  0  0  0  0  0  0  0  0  0  0
    4.8744    0.8023   -0.8068 H   0  0  0  0  0  0  0  0  0  0  0  0
    5.0999   -1.3667    1.2976 H   0  0  0  0  0  0  0  0  0  0  0  0
    6.0225   -1.2232   -0.2035 H   0  0  0  0  0  0  0  0  0  0  0  0
    3.9027   -3.0213    0.1303 H   0  0  0  0  0  0  0  0  0  0  0  0
    4.2805   -2.3079   -1.4664 H   0  0  0  0  0  0  0  0  0  0  0  0
  1  2  1  0
  2  3  1  0
  3  4  1  0
  4  5  2  0
  5  6  1  0
  6  7  1  0
  6  8  2  0
  8  9  1  0
  9 10  2  0
  9 11  1  0
 11 12  1  0
 12 13  1  0
 13 14  1  0
 14 15  2  0
 15 16  1  0
 16 17  1  0
 17 18  1  0
 17 19  2  0
 15 20  1  0
 20 21  1  0
 21 22  1  0
  8  3  1  0
 16 12  2  0
 22 14  1  0
  1 23  1  0
  1 24  1  0
  1 25  1  0
  2 26  1  0
  2 27  1  0
  5 28  1  0
 11 29  1  0
 18 30  1  0
 18 31  1  0
 20 32  1  0
 20 33  1  0
 21 34  1  0
 21 35  1  0
 22 36  1  0
 22 37  1  0
M  END
$$$$
