
     RDKit          3D

 51 53  0  0  0  0  0  0  0  0999 V2000
  -10.2154    0.8047   -1.0435 C   0  0  0  0  0  0  0  0  0  0  0  0
   -8.7422    0.5846   -0.8706 C   0  0  0  0  0  0  0  0  0  0  0  0
   -8.0577    1.1646    0.2013 C   0  0  0  0  0  0  0  0  0  0  0  0
   -6.6765    0.9876    0.3489 C   0  0  0  0  0  0  0  0  0  0  0  0
   -5.9555    0.2365   -0.5786 C   0  0  0  0  0  0  0  0  0  0  0  0
   -4.5652    0.0069   -0.5046 N   0  0  0  0  0  0  0  0  0  0  0  0
   -3.6790    0.4725    0.4623 C   0  0  0  0  0  0  0  0  0  0  0  0
   -3.9669    1.1741    1.4261 O   0  0  0  0  0  0  0  0  0  0  0  0
   -2.2468   -0.0139    0.1944 C   0  0  0  0  0  0  0  0  0  0  0  0
   -1.3156    0.5870    1.0809 O   0  0  0  0  0  0  0  0  0  0  0  0
    0.0030    0.2714    0.9127 C   0  0  0  0  0  0  0  0  0  0  0  0
    0.5131   -0.6984    0.0487 C   0  0  0  0  0  0  0  0  0  0  0  0
    1.8930   -0.9211   -0.0179 C   0  0  0  0  0  0  0  0  0  0  0  0
    2.7658   -0.1852    0.7842 C   0  0  0  0  0  0  0  0  0  0  0  0
    4.1796   -0.4319    0.6503 N   0  0  0  0  0  0  0  0  0  0  0  0
    4.8732   -0.7479    1.9226 C   0  0  0  0  0  0  0  0  0  0  0  0
    4.9634    0.7479   -0.3284 S   0  0  0  0  0  6  0  0  0  0  0  0
    4.2530    0.8817   -1.5835 O   0  0  0  0  0  0  0  0  0  0  0  0
    5.2542    1.9004    0.5011 O   0  0  0  0  0  0  0  0  0  0  0  0
    6.5096   -0.0514   -0.7101 C   0  0  0  0  0  0  0  0  0  0  0  0
    6.5001   -1.1763   -1.5446 C   0  0  0  0  0  0  0  0  0  0  0  0
    7.7046   -1.8075   -1.8550 C   0  0  0  0  0  0  0  0  0  0  0  0
    8.8961   -1.3064   -1.3371 C   0  0  0  0  0  0  0  0  0  0  0  0
   10.0505   -1.9154   -1.6366 F   0  0  0  0  0  0  0  0  0  0  0  0
    8.9095   -0.1820   -0.5156 C   0  0  0  0  0  0  0  0  0  0  0  0
    7.7096    0.4564   -0.1992 C   0  0  0  0  0  0  0  0  0  0  0  0
    2.2612    0.7982    1.6357 C   0  0  0  0  0  0  0  0  0  0  0  0
    0.8831    1.0148    1.7040 C   0  0  0  0  0  0  0  0  0  0  0  0
   -6.6395   -0.3323   -1.6604 C   0  0  0  0  0  0  0  0  0  0  0  0
   -8.0191   -0.1560   -1.8088 C   0  0  0  0  0  0  0  0  0  0  0  0
  -10.3915    1.6858   -1.6685 H   0  0  0  0  0  0  0  0  0  0  0  0
  -10.7054    0.9541   -0.0755 H   0  0  0  0  0  0  0  0  0  0  0  0
  -10.6861   -0.0648   -1.5146 H   0  0  0  0  0  0  0  0  0  0  0  0
   -8.5918    1.7625    0.9369 H   0  0  0  0  0  0  0  0  0  0  0  0
   -6.1977    1.4561    1.2029 H   0  0  0  0  0  0  0  0  0  0  0  0
   -4.1771   -0.5557   -1.2503 H   0  0  0  0  0  0  0  0  0  0  0  0
   -1.9952    0.2431   -0.8420 H   0  0  0  0  0  0  0  0  0  0  0  0
   -2.2493   -1.1020    0.3325 H   0  0  0  0  0  0  0  0  0  0  0  0
   -0.1278   -1.2981   -0.5876 H   0  0  0  0  0  0  0  0  0  0  0  0
    2.2850   -1.6686   -0.7023 H   0  0  0  0  0  0  0  0  0  0  0  0
    5.8340   -1.2296    1.7222 H   0  0  0  0  0  0  0  0  0  0  0  0
    5.0365    0.1461    2.5315 H   0  0  0  0  0  0  0  0  0  0  0  0
    4.2811   -1.4601    2.5082 H   0  0  0  0  0  0  0  0  0  0  0  0
    5.5651   -1.5543   -1.9526 H   0  0  0  0  0  0  0  0  0  0  0  0
    7.7250   -2.6806   -2.4999 H   0  0  0  0  0  0  0  0  0  0  0  0
    9.8548    0.1912   -0.1332 H   0  0  0  0  0  0  0  0  0  0  0  0
    7.7194    1.3408    0.4342 H   0  0  0  0  0  0  0  0  0  0  0  0
    2.9242    1.4107    2.2400 H   0  0  0  0  0  0  0  0  0  0  0  0
    0.4906    1.7800    2.3705 H   0  0  0  0  0  0  0  0  0  0  0  0
   -6.1125   -0.9185   -2.4083 H   0  0  0  0  0  0  0  0  0  0  0  0
   -8.5246   -0.6018   -2.6625 H   0  0  0  0  0  0  0  0  0  0  0  0
  1  2  1  0
  2  3  2  0
  3  4  1  0
  4  5  2  0
  5  6  1  0
  6  7  1  0
  7  8  2  0
  7  9  1  0
  9 10  1  0
 10 11  1  0
 11 12  2  0
 12 13  1  0
 13 14  2  0
 14 15  1  0
 15 16  1  0
 15 17  1  0
 17 18  2  0
 17 19  2  0
 17 20  1  0
 20 21  2  0
 21 22  1  0
 22 23  2  0
 23 24  1  0
 23 25  1  0
 25 26  2  0
 14 27  1  0
 27 28  2  0
  5 29  1  0
 29 30  2  0
 30  2  1  0
 28 11  1  0
 26 20  1  0
  1 31  1  0
  1 32  1  0
  1 33  1  0
  3 34  1  0
  4 35  1  0
  6 36  1  0
  9 37  1  0
  9 38  1  0
 12 39  1  0
 13 40  1  0
 16 41  1  0
 16 42  1  0
 16 43  1  0
 21 44  1  0
 22 45  1  0
 25 46  1  0
 26 47  1  0
 27 48  1  0
 28 49  1  0
 29 50  1  0
 30 51  1  0
M  END
$$$$
