
     RDKit          3D

 38 38  0  0  0  0  0  0  0  0999 V2000
    3.9580    0.7556    4.1190 C   0  0  0  0  0  0  0  0  0  0  0  0
    3.8997    0.7741    2.6964 O   0  0  0  0  0  0  0  0  0  0  0  0
    3.9125    2.1145    2.1898 C   0  0  0  0  0  0  0  0  0  0  0  0
    3.9566    2.0653    0.6634 C   0  0  0  0  0  0  0  0  0  0  0  0
    2.8301    1.3133    0.1372 N   0  0  0  0  0  0  0  0  0  0  0  0
    2.4972    1.3654   -1.1981 C   0  0  0  0  0  0  0  0  0  0  0  0
    2.9991    2.1423   -1.9988 O   0  0  0  0  0  0  0  0  0  0  0  0
    1.4840    0.3569   -1.6107 C   0  0  0  0  0  0  0  0  0  0  0  0
    1.8228   -0.4800   -2.7041 C   0  0  0  0  0  0  0  0  0  0  0  0
    2.0918   -1.1995   -3.5767 N   0  0  0  0  0  0  0  0  0  0  0  0
    0.2994    0.3798   -0.9641 C   0  0  0  0  0  0  0  0  0  0  0  0
   -0.8847   -0.4708   -1.1175 C   0  0  0  0  0  0  0  0  0  0  0  0
   -0.7151   -1.8678   -1.6654 C   0  0  0  0  0  0  0  0  0  0  0  0
   -2.0699    0.0100   -0.6794 C   0  0  0  0  0  0  0  0  0  0  0  0
   -3.3692   -0.6739   -0.7317 C   0  0  0  0  0  0  0  0  0  0  0  0
   -3.9140   -1.1220   -1.9409 C   0  0  0  0  0  0  0  0  0  0  0  0
   -5.1623   -1.7488   -1.9622 C   0  0  0  0  0  0  0  0  0  0  0  0
   -5.8825   -1.9158   -0.7779 C   0  0  0  0  0  0  0  0  0  0  0  0
   -5.3548   -1.4580    0.4267 C   0  0  0  0  0  0  0  0  0  0  0  0
   -4.1035   -0.8372    0.4495 C   0  0  0  0  0  0  0  0  0  0  0  0
    3.1180    1.3150    4.5429 H   0  0  0  0  0  0  0  0  0  0  0  0
    3.8962   -0.2847    4.4551 H   0  0  0  0  0  0  0  0  0  0  0  0
    4.9071    1.1787    4.4660 H   0  0  0  0  0  0  0  0  0  0  0  0
    3.0047    2.6294    2.5215 H   0  0  0  0  0  0  0  0  0  0  0  0
    4.7908    2.6514    2.5682 H   0  0  0  0  0  0  0  0  0  0  0  0
    4.8662    1.5533    0.3206 H   0  0  0  0  0  0  0  0  0  0  0  0
    3.9452    3.0770    0.2456 H   0  0  0  0  0  0  0  0  0  0  0  0
    2.5700    0.4936    0.6773 H   0  0  0  0  0  0  0  0  0  0  0  0
    0.1687    1.1673   -0.2178 H   0  0  0  0  0  0  0  0  0  0  0  0
   -0.6903   -1.8527   -2.7594 H   0  0  0  0  0  0  0  0  0  0  0  0
    0.2041   -2.3318   -1.2887 H   0  0  0  0  0  0  0  0  0  0  0  0
   -1.5221   -2.5392   -1.3565 H   0  0  0  0  0  0  0  0  0  0  0  0
   -2.1354    1.0072   -0.2458 H   0  0  0  0  0  0  0  0  0  0  0  0
   -3.3689   -0.9941   -2.8725 H   0  0  0  0  0  0  0  0  0  0  0  0
   -5.5703   -2.1098   -2.9004 H   0  0  0  0  0  0  0  0  0  0  0  0
   -6.8552   -2.4012   -0.7941 H   0  0  0  0  0  0  0  0  0  0  0  0
   -5.9181   -1.5793    1.3488 H   0  0  0  0  0  0  0  0  0  0  0  0
   -3.7059   -0.4835    1.3983 H   0  0  0  0  0  0  0  0  0  0  0  0
  1  2  1  0
  2  3  1  0
  3  4  1  0
  4  5  1  0
  5  6  1  0
  6  7  2  0
  6  8  1  0
  8  9  1  0
  9 10  3  0
  8 11  2  3
 11 12  1  0
 12 13  1  0
 12 14  2  3
 14 15  1  0
 15 16  2  0
 16 17  1  0
 17 18  2  0
 18 19  1  0
 19 20  2  0
 20 15  1  0
  1 21  1  0
  1 22  1  0
  1 23  1  0
  3 24  1  0
  3 25  1  0
  4 26  1  0
  4 27  1  0
  5 28  1  0
 11 29  1  0
 13 30  1  0
 13 31  1  0
 13 32  1  0
 14 33  1  0
 16 34  1  0
 17 35  1  0
 18 36  1  0
 19 37  1  0
 20 38  1  0
M  END
$$$$
