
     RDKit          3D

 37 39  0  0  0  0  0  0  0  0999 V2000
    4.0757   -0.5763    1.1322 N   0  0  0  0  0  0  0  0  0  0  0  0
    3.4993    0.4709    0.2975 C   0  0  0  0  0  0  0  0  0  0  0  0
    2.1409    0.0604   -0.2660 C   0  0  0  0  0  0  0  0  0  0  0  0
    1.0803   -0.1147    0.8328 C   0  0  0  0  0  0  0  0  0  0  0  0
   -0.2521   -0.4222    0.2539 N   0  0  0  0  0  0  0  0  0  0  0  0
   -0.5883   -1.8010    0.1035 C   0  0  0  0  0  0  0  0  0  0  0  0
    0.3796   -2.8289    0.1895 C   0  0  0  0  0  0  0  0  0  0  0  0
    0.0616   -4.1837    0.0311 C   0  0  0  0  0  0  0  0  0  0  0  0
   -1.2446   -4.5624   -0.2241 C   0  0  0  0  0  0  0  0  0  0  0  0
   -2.2246   -3.5821   -0.3207 C   0  0  0  0  0  0  0  0  0  0  0  0
   -1.9086   -2.2171   -0.1635 C   0  0  0  0  0  0  0  0  0  0  0  0
   -3.2852   -1.1016   -0.2893 S   0  0  0  0  0  0  0  0  0  0  0  0
   -2.4883    0.4852   -0.2980 C   0  0  0  0  0  0  0  0  0  0  0  0
   -3.3322    1.5787   -0.5758 C   0  0  0  0  0  0  0  0  0  0  0  0
   -2.8424    2.8800   -0.5985 C   0  0  0  0  0  0  0  0  0  0  0  0
   -1.4922    3.1098   -0.3499 C   0  0  0  0  0  0  0  0  0  0  0  0
   -0.9317    4.5102   -0.3544 C   0  0  0  0  0  0  0  0  0  0  0  0
   -1.6406    5.3725   -1.1349 F   0  0  0  0  0  0  0  0  0  0  0  0
   -0.9087    5.0621    0.8897 F   0  0  0  0  0  0  0  0  0  0  0  0
    0.3514    4.5666   -0.8108 F   0  0  0  0  0  0  0  0  0  0  0  0
   -0.6573    2.0110   -0.0603 C   0  0  0  0  0  0  0  0  0  0  0  0
   -1.1197    0.6742   -0.0221 C   0  0  0  0  0  0  0  0  0  0  0  0
    4.9751   -0.2587    1.4962 H   0  0  0  0  0  0  0  0  0  0  0  0
    4.2866   -1.3935    0.5583 H   0  0  0  0  0  0  0  0  0  0  0  0
    3.3981    1.3890    0.8865 H   0  0  0  0  0  0  0  0  0  0  0  0
    4.1861    0.6875   -0.5281 H   0  0  0  0  0  0  0  0  0  0  0  0
    2.2469   -0.8590   -0.8536 H   0  0  0  0  0  0  0  0  0  0  0  0
    1.8205    0.8270   -0.9808 H   0  0  0  0  0  0  0  0  0  0  0  0
    1.3818   -0.8849    1.5534 H   0  0  0  0  0  0  0  0  0  0  0  0
    1.0349    0.7814    1.4650 H   0  0  0  0  0  0  0  0  0  0  0  0
    1.4269   -2.6108    0.3724 H   0  0  0  0  0  0  0  0  0  0  0  0
    0.8429   -4.9357    0.1069 H   0  0  0  0  0  0  0  0  0  0  0  0
   -1.5023   -5.6103   -0.3475 H   0  0  0  0  0  0  0  0  0  0  0  0
   -3.2502   -3.8877   -0.5191 H   0  0  0  0  0  0  0  0  0  0  0  0
   -4.3903    1.4156   -0.7760 H   0  0  0  0  0  0  0  0  0  0  0  0
   -3.5184    3.7054   -0.8143 H   0  0  0  0  0  0  0  0  0  0  0  0
    0.3890    2.2432    0.1190 H   0  0  0  0  0  0  0  0  0  0  0  0
  1  2  1  0
  2  3  1  0
  3  4  1  0
  4  5  1  0
  5  6  1  0
  6  7  2  0
  7  8  1  0
  8  9  2  0
  9 10  1  0
 10 11  2  0
 11 12  1  0
 12 13  1  0
 13 14  2  0
 14 15  1  0
 15 16  2  0
 16 17  1  0
 17 18  1  0
 17 19  1  0
 17 20  1  0
 16 21  1  0
 21 22  2  0
 22  5  1  0
 11  6  1  0
 22 13  1  0
  1 23  1  0
  1 24  1  0
  2 25  1  0
  2 26  1  0
  3 27  1  0
  3 28  1  0
  4 29  1  0
  4 30  1  0
  7 31  1  0
  8 32  1  0
  9 33  1  0
 10 34  1  0
 14 35  1  0
 15 36  1  0
 21 37  1  0
M  END
$$$$
