
     RDKit          3D

 45 47  0  0  0  0  0  0  0  0999 V2000
   -7.5801   -1.5443   -0.6506 C   0  0  0  0  0  0  0  0  0  0  0  0
   -6.1641   -0.9990   -0.6560 C   0  0  0  0  0  0  0  0  0  0  0  0
   -5.6744   -1.0440    0.6915 O   0  0  0  0  0  0  0  0  0  0  0  0
   -4.3648   -0.6438    0.7365 C   0  0  0  0  0  0  0  0  0  0  0  0
   -3.3936   -1.6336    0.8935 C   0  0  0  0  0  0  0  0  0  0  0  0
   -2.0436   -1.2766    0.9440 C   0  0  0  0  0  0  0  0  0  0  0  0
   -1.6632    0.0692    0.8567 C   0  0  0  0  0  0  0  0  0  0  0  0
   -0.2507    0.4531    0.9167 C   0  0  0  0  0  0  0  0  0  0  0  0
    0.6419    0.2779   -0.0656 C   0  0  0  0  0  0  0  0  0  0  0  0
    0.3787   -0.4026   -1.6297 S   0  0  0  0  0  0  0  0  0  0  0  0
    2.0539   -0.1704   -2.1272 C   0  0  0  0  0  0  0  0  0  0  0  0
    2.6236   -0.5539   -3.6481 S   0  0  0  0  0  0  0  0  0  0  0  0
    2.7455    0.3996   -1.0774 N   0  0  0  0  0  0  0  0  0  0  0  0
    4.1365    0.6297   -1.1197 N   0  0  0  0  0  0  0  0  0  0  0  0
    4.9311   -0.4094   -0.6616 C   0  0  0  0  0  0  0  0  0  0  0  0
    4.5025   -1.5326   -0.4165 O   0  0  0  0  0  0  0  0  0  0  0  0
    6.3638   -0.0901   -0.4353 C   0  0  0  0  0  0  0  0  0  0  0  0
    7.0737   -0.8613    0.4848 C   0  0  0  0  0  0  0  0  0  0  0  0
    8.4064   -0.5652    0.6866 C   0  0  0  0  0  0  0  0  0  0  0  0
    9.0556    0.4273    0.0401 N   0  0  0  0  0  0  0  0  0  0  0  0
    8.3501    1.1460   -0.8564 C   0  0  0  0  0  0  0  0  0  0  0  0
    7.0129    0.9301   -1.1309 C   0  0  0  0  0  0  0  0  0  0  0  0
    2.0589    0.7065    0.0835 C   0  0  0  0  0  0  0  0  0  0  0  0
    2.5187    1.2764    1.0648 O   0  0  0  0  0  0  0  0  0  0  0  0
   -2.6447    1.0598    0.7279 C   0  0  0  0  0  0  0  0  0  0  0  0
   -3.9939    0.7021    0.6908 C   0  0  0  0  0  0  0  0  0  0  0  0
   -4.9159    1.7087    0.5642 O   0  0  0  0  0  0  0  0  0  0  0  0
   -5.5576    1.9531    1.8134 C   0  0  0  0  0  0  0  0  0  0  0  0
   -7.5985   -2.5691   -0.2644 H   0  0  0  0  0  0  0  0  0  0  0  0
   -8.0057   -1.5369   -1.6572 H   0  0  0  0  0  0  0  0  0  0  0  0
   -8.2196   -0.9484    0.0093 H   0  0  0  0  0  0  0  0  0  0  0  0
   -5.5395   -1.6238   -1.3093 H   0  0  0  0  0  0  0  0  0  0  0  0
   -6.1741    0.0247   -1.0377 H   0  0  0  0  0  0  0  0  0  0  0  0
   -3.6852   -2.6766    0.9700 H   0  0  0  0  0  0  0  0  0  0  0  0
   -1.2956   -2.0571    1.0624 H   0  0  0  0  0  0  0  0  0  0  0  0
    0.0526    0.9249    1.8497 H   0  0  0  0  0  0  0  0  0  0  0  0
    4.4066    1.5769   -0.8742 H   0  0  0  0  0  0  0  0  0  0  0  0
    6.6025   -1.6746    1.0274 H   0  0  0  0  0  0  0  0  0  0  0  0
    9.0060   -1.1329    1.3911 H   0  0  0  0  0  0  0  0  0  0  0  0
    8.9115    1.9209   -1.3705 H   0  0  0  0  0  0  0  0  0  0  0  0
    6.5203    1.5276   -1.8878 H   0  0  0  0  0  0  0  0  0  0  0  0
   -2.3701    2.1110    0.6660 H   0  0  0  0  0  0  0  0  0  0  0  0
   -4.8313    2.2779    2.5655 H   0  0  0  0  0  0  0  0  0  0  0  0
   -6.2800    2.7636    1.6690 H   0  0  0  0  0  0  0  0  0  0  0  0
   -6.1074    1.0794    2.1693 H   0  0  0  0  0  0  0  0  0  0  0  0
  1  2  1  0
  2  3  1  0
  3  4  1  0
  4  5  2  0
  5  6  1  0
  6  7  2  0
  7  8  1  0
  8  9  2  3
  9 10  1  0
 10 11  1  0
 11 12  2  0
 11 13  1  0
 13 14  1  0
 14 15  1  0
 15 16  2  0
 15 17  1  0
 17 18  2  0
 18 19  1  0
 19 20  2  0
 20 21  1  0
 21 22  2  0
 13 23  1  0
 23 24  2  0
  7 25  1  0
 25 26  2  0
 26 27  1  0
 27 28  1  0
 26  4  1  0
 23  9  1  0
 22 17  1  0
  1 29  1  0
  1 30  1  0
  1 31  1  0
  2 32  1  0
  2 33  1  0
  5 34  1  0
  6 35  1  0
  8 36  1  0
 14 37  1  0
 18 38  1  0
 19 39  1  0
 21 40  1  0
 22 41  1  0
 25 42  1  0
 28 43  1  0
 28 44  1  0
 28 45  1  0
M  END
$$$$
