
     RDKit          3D

 33 34  0  0  0  0  0  0  0  0999 V2000
   -1.5426   -1.1259   -1.0338 N   0  0  0  0  0  0  0  0  0  0  0  0
   -1.7379   -0.2168   -0.1213 C   0  0  0  0  0  0  0  0  0  0  0  0
   -0.6910    0.5470    0.3414 N   0  0  0  0  0  0  0  0  0  0  0  0
    0.5513   -0.1055    0.2364 O   0  0  0  0  0  0  0  0  0  0  0  0
    1.4302    0.2997    1.2077 C   0  0  0  0  0  0  0  0  0  0  0  0
    1.1544    1.1027    2.0937 O   0  0  0  0  0  0  0  0  0  0  0  0
    2.7507   -0.4170    1.0846 C   0  0  0  0  0  0  0  0  0  0  0  0
    3.3950   -0.2644   -0.2704 C   0  0  0  0  0  0  0  0  0  0  0  0
    3.4052   -1.3296   -1.1817 C   0  0  0  0  0  0  0  0  0  0  0  0
    3.9887   -1.1757   -2.4406 C   0  0  0  0  0  0  0  0  0  0  0  0
    4.5651    0.0411   -2.8000 C   0  0  0  0  0  0  0  0  0  0  0  0
    4.5588    1.1065   -1.9016 C   0  0  0  0  0  0  0  0  0  0  0  0
    3.9757    0.9566   -0.6424 C   0  0  0  0  0  0  0  0  0  0  0  0
   -3.1377    0.0006    0.3723 C   0  0  0  0  0  0  0  0  0  0  0  0
   -4.1815   -0.3126   -0.5173 C   0  0  0  0  0  0  0  0  0  0  0  0
   -5.5174   -0.1289   -0.1537 C   0  0  0  0  0  0  0  0  0  0  0  0
   -5.8305    0.3689    1.1062 C   0  0  0  0  0  0  0  0  0  0  0  0
   -4.8073    0.6730    2.0048 C   0  0  0  0  0  0  0  0  0  0  0  0
   -3.4643    0.4873    1.6470 C   0  0  0  0  0  0  0  0  0  0  0  0
   -2.2909    0.8487    2.8633 Cl  0  0  0  0  0  0  0  0  0  0  0  0
   -0.5403   -1.0977   -1.2570 H   0  0  0  0  0  0  0  0  0  0  0  0
   -0.8159    1.0245    1.2399 H   0  0  0  0  0  0  0  0  0  0  0  0
    2.5911   -1.4729    1.3327 H   0  0  0  0  0  0  0  0  0  0  0  0
    3.4324   -0.0219    1.8477 H   0  0  0  0  0  0  0  0  0  0  0  0
    2.9583   -2.2871   -0.9219 H   0  0  0  0  0  0  0  0  0  0  0  0
    3.9933   -2.0061   -3.1430 H   0  0  0  0  0  0  0  0  0  0  0  0
    5.0181    0.1592   -3.7812 H   0  0  0  0  0  0  0  0  0  0  0  0
    5.0076    2.0557   -2.1827 H   0  0  0  0  0  0  0  0  0  0  0  0
    3.9775    1.8009    0.0455 H   0  0  0  0  0  0  0  0  0  0  0  0
   -3.9527   -0.6967   -1.5106 H   0  0  0  0  0  0  0  0  0  0  0  0
   -6.3089   -0.3766   -0.8578 H   0  0  0  0  0  0  0  0  0  0  0  0
   -6.8694    0.5132    1.3933 H   0  0  0  0  0  0  0  0  0  0  0  0
   -5.0651    1.0496    2.9926 H   0  0  0  0  0  0  0  0  0  0  0  0
  1  2  2  3
  2  3  1  0
  3  4  1  0
  4  5  1  0
  5  6  2  0
  5  7  1  0
  7  8  1  0
  8  9  2  0
  9 10  1  0
 10 11  2  0
 11 12  1  0
 12 13  2  0
  2 14  1  0
 14 15  2  0
 15 16  1  0
 16 17  2  0
 17 18  1  0
 18 19  2  0
 19 20  1  0
 13  8  1  0
 19 14  1  0
  1 21  1  0
  3 22  1  0
  7 23  1  0
  7 24  1  0
  9 25  1  0
 10 26  1  0
 11 27  1  0
 12 28  1  0
 13 29  1  0
 15 30  1  0
 16 31  1  0
 17 32  1  0
 18 33  1  0
M  END
$$$$
