
     RDKit          3D

 42 44  0  0  0  0  0  0  0  0999 V2000
   -2.9711   -3.1264   -2.8820 C   0  0  0  0  0  0  0  0  0  0  0  0
   -2.1631   -3.0706   -1.7089 O   0  0  0  0  0  0  0  0  0  0  0  0
   -2.1722   -1.8730   -1.0446 C   0  0  0  0  0  0  0  0  0  0  0  0
   -1.8512   -1.9413    0.3152 C   0  0  0  0  0  0  0  0  0  0  0  0
   -1.7855   -0.7805    1.0895 C   0  0  0  0  0  0  0  0  0  0  0  0
   -2.0233    0.4561    0.4869 C   0  0  0  0  0  0  0  0  0  0  0  0
   -1.8883    1.9532    1.4358 S   0  0  0  0  0  6  0  0  0  0  0  0
   -2.9726    1.9337    2.3946 O   0  0  0  0  0  0  0  0  0  0  0  0
   -1.7201    3.0583    0.5165 O   0  0  0  0  0  0  0  0  0  0  0  0
   -0.4832    1.7755    2.3227 N   0  0  0  0  0  0  0  0  0  0  0  0
    0.8273    1.5512    1.8012 C   0  0  0  0  0  0  0  0  0  0  0  0
    1.1187    1.6345    0.4342 C   0  0  0  0  0  0  0  0  0  0  0  0
    2.3986    1.3358   -0.0533 C   0  0  0  0  0  0  0  0  0  0  0  0
    2.7037    1.3391   -1.8145 S   0  0  0  0  0  0  0  0  0  0  0  0
    1.8734   -0.1142   -2.3245 C   0  0  0  0  0  0  0  0  0  0  0  0
    1.4646   -0.3077   -3.6178 N   0  0  0  0  0  0  0  0  0  0  0  0
    0.8844   -1.4838   -3.5737 C   0  0  0  0  0  0  0  0  0  0  0  0
    0.9459   -1.9728   -2.3081 N   0  0  0  0  0  0  0  0  0  0  0  0
    1.5996   -1.1286   -1.4965 N   0  0  0  0  0  0  0  0  0  0  0  0
    3.4112    1.0197    0.8523 C   0  0  0  0  0  0  0  0  0  0  0  0
    4.6850    0.7251    0.4509 O   0  0  0  0  0  0  0  0  0  0  0  0
    3.1559    0.9854    2.2178 C   0  0  0  0  0  0  0  0  0  0  0  0
    1.8652    1.2460    2.7078 C   0  0  0  0  0  0  0  0  0  0  0  0
    1.6399    1.1740    4.1942 C   0  0  0  0  0  0  0  0  0  0  0  0
   -2.3377    0.5350   -0.8733 C   0  0  0  0  0  0  0  0  0  0  0  0
   -2.4128   -0.6320   -1.6382 C   0  0  0  0  0  0  0  0  0  0  0  0
   -3.9791   -2.7389   -2.6976 H   0  0  0  0  0  0  0  0  0  0  0  0
   -3.0645   -4.1773   -3.1721 H   0  0  0  0  0  0  0  0  0  0  0  0
   -2.4893   -2.5947   -3.7086 H   0  0  0  0  0  0  0  0  0  0  0  0
   -1.6536   -2.9062    0.7763 H   0  0  0  0  0  0  0  0  0  0  0  0
   -1.5408   -0.8502    2.1457 H   0  0  0  0  0  0  0  0  0  0  0  0
   -0.6543    1.6740    3.3195 H   0  0  0  0  0  0  0  0  0  0  0  0
    0.3566    1.9110   -0.2866 H   0  0  0  0  0  0  0  0  0  0  0  0
    0.4129   -2.0079   -4.3921 H   0  0  0  0  0  0  0  0  0  0  0  0
    0.5593   -2.8325   -1.9313 H   0  0  0  0  0  0  0  0  0  0  0  0
    4.6825    0.7352   -0.5242 H   0  0  0  0  0  0  0  0  0  0  0  0
    3.9696    0.7399    2.8965 H   0  0  0  0  0  0  0  0  0  0  0  0
    1.2543    2.1283    4.5675 H   0  0  0  0  0  0  0  0  0  0  0  0
    2.5692    0.9649    4.7349 H   0  0  0  0  0  0  0  0  0  0  0  0
    0.9330    0.3726    4.4319 H   0  0  0  0  0  0  0  0  0  0  0  0
   -2.5138    1.4990   -1.3474 H   0  0  0  0  0  0  0  0  0  0  0  0
   -2.6344   -0.5360   -2.6964 H   0  0  0  0  0  0  0  0  0  0  0  0
  1  2  1  0
  2  3  1  0
  3  4  2  0
  4  5  1  0
  5  6  2  0
  6  7  1  0
  7  8  2  0
  7  9  2  0
  7 10  1  0
 10 11  1  0
 11 12  2  0
 12 13  1  0
 13 14  1  0
 14 15  1  0
 15 16  1  0
 16 17  2  0
 17 18  1  0
 18 19  1  0
 13 20  2  0
 20 21  1  0
 20 22  1  0
 22 23  2  0
 23 24  1  0
  6 25  1  0
 25 26  2  0
 26  3  1  0
 23 11  1  0
 19 15  2  0
  1 27  1  0
  1 28  1  0
  1 29  1  0
  4 30  1  0
  5 31  1  0
 10 32  1  0
 12 33  1  0
 17 34  1  0
 18 35  1  0
 21 36  1  0
 22 37  1  0
 24 38  1  0
 24 39  1  0
 24 40  1  0
 25 41  1  0
 26 42  1  0
M  END
$$$$
