
     RDKit          3D

 70 75  0  0  0  0  0  0  0  0999 V2000
   -5.2176   -3.3984    2.5012 C   0  0  0  0  0  0  0  0  0  0  0  0
   -4.1417   -2.8089    1.6272 C   0  0  0  0  0  0  0  0  0  0  0  0
   -3.2785   -1.8346    2.1854 C   0  0  0  0  0  0  0  0  0  0  0  0
   -2.2579   -1.2474    1.4359 C   0  0  0  0  0  0  0  0  0  0  0  0
   -2.1085   -1.6406    0.1183 C   0  0  0  0  0  0  0  0  0  0  0  0
   -2.9591   -2.6051   -0.4383 C   0  0  0  0  0  0  0  0  0  0  0  0
   -3.9992   -3.1936    0.2735 C   0  0  0  0  0  0  0  0  0  0  0  0
   -4.8830   -4.2338   -0.3497 C   0  0  0  0  0  0  0  0  0  0  0  0
   -2.5790   -2.8656   -1.7554 N   0  0  0  0  0  0  0  0  0  0  0  0
   -1.4776   -2.0968   -2.1367 C   0  0  0  0  0  0  0  0  0  0  0  0
   -0.9232   -2.1593   -3.2252 O   0  0  0  0  0  0  0  0  0  0  0  0
   -1.1082   -1.2210   -0.9143 C   0  0  1  0  0  0  0  0  0  0  0  0
   -1.2273    0.2341   -1.1901 C   0  0  0  0  0  0  0  0  0  0  0  0
    0.0454    0.8237   -1.2761 C   0  0  0  0  0  0  0  0  0  0  0  0
   -0.1029    2.1650   -1.5076 C   0  0  0  0  0  0  0  0  0  0  0  0
    0.8150    3.1085   -1.7021 O   0  0  0  0  0  0  0  0  0  0  0  0
   -1.4874    2.4165   -1.6117 N   0  0  0  0  0  0  0  0  0  0  0  0
   -2.0938    3.6662   -1.9597 C   0  0  0  0  0  0  0  0  0  0  0  0
   -3.2834    3.6903   -2.7041 C   0  0  0  0  0  0  0  0  0  0  0  0
   -3.8805    4.9077   -3.0408 C   0  0  0  0  0  0  0  0  0  0  0  0
   -3.2944    6.1071   -2.6431 C   0  0  0  0  0  0  0  0  0  0  0  0
   -2.1059    6.0919   -1.9162 C   0  0  0  0  0  0  0  0  0  0  0  0
   -1.5027    4.8772   -1.5790 C   0  0  0  0  0  0  0  0  0  0  0  0
   -2.1726    1.2106   -1.3511 C   0  0  0  0  0  0  0  0  0  0  0  0
   -3.4949    1.0988   -1.2330 O   0  0  0  0  0  0  0  0  0  0  0  0
    1.0941   -0.2084   -1.1211 C   0  0  1  0  0  0  0  0  0  0  0  0
    2.2720    0.1010   -0.1963 C   0  0  0  0  0  0  0  0  0  0  0  0
    2.9884   -1.1181    0.2237 N   0  0  0  0  0  0  0  0  0  0  0  0
    4.1318   -1.0633    0.9935 C   0  0  0  0  0  0  0  0  0  0  0  0
    4.8049   -2.0435    1.2821 O   0  0  0  0  0  0  0  0  0  0  0  0
    4.4148    0.2080    1.3798 O   0  0  0  0  0  0  0  0  0  0  0  0
    5.5721    0.4999    2.2039 C   0  0  0  0  0  0  0  0  0  0  0  0
    6.8755    0.1536    1.4759 C   0  0  0  0  0  0  0  0  0  0  0  0
    5.5201    2.0206    2.4183 C   0  0  0  0  0  0  0  0  0  0  0  0
    5.4752   -0.1891    3.5694 C   0  0  0  0  0  0  0  0  0  0  0  0
    2.5502   -2.3992   -0.3467 C   0  0  0  0  0  0  0  0  0  0  0  0
    1.0064   -2.5690   -0.4196 C   0  0  0  0  0  0  0  0  0  0  0  0
    0.3080   -1.3005   -0.4990 N   0  0  0  0  0  0  0  0  0  0  0  0
   -5.0767   -3.1234    3.5519 H   0  0  0  0  0  0  0  0  0  0  0  0
   -5.1983   -4.4918    2.4501 H   0  0  0  0  0  0  0  0  0  0  0  0
   -6.2001   -3.0333    2.1863 H   0  0  0  0  0  0  0  0  0  0  0  0
   -3.4004   -1.5312    3.2240 H   0  0  0  0  0  0  0  0  0  0  0  0
   -1.5969   -0.5066    1.8745 H   0  0  0  0  0  0  0  0  0  0  0  0
   -4.5009   -5.2337   -0.1226 H   0  0  0  0  0  0  0  0  0  0  0  0
   -5.9115   -4.1529    0.0156 H   0  0  0  0  0  0  0  0  0  0  0  0
   -4.9389   -4.1190   -1.4366 H   0  0  0  0  0  0  0  0  0  0  0  0
   -3.0198   -3.5228   -2.3788 H   0  0  0  0  0  0  0  0  0  0  0  0
    1.6909    2.6874   -1.7008 H   0  0  0  0  0  0  0  0  0  0  0  0
   -3.7356    2.7755   -3.0823 H   0  0  0  0  0  0  0  0  0  0  0  0
   -4.7949    4.9197   -3.6290 H   0  0  0  0  0  0  0  0  0  0  0  0
   -3.7570    7.0540   -2.9089 H   0  0  0  0  0  0  0  0  0  0  0  0
   -1.6445    7.0273   -1.6094 H   0  0  0  0  0  0  0  0  0  0  0  0
   -0.5883    4.9031   -0.9924 H   0  0  0  0  0  0  0  0  0  0  0  0
   -3.8587    1.9684   -0.9868 H   0  0  0  0  0  0  0  0  0  0  0  0
    1.4489   -0.5143   -2.1148 H   0  0  0  0  0  0  0  0  0  0  0  0
    2.9848    0.7650   -0.6999 H   0  0  0  0  0  0  0  0  0  0  0  0
    1.9402    0.6156    0.7149 H   0  0  0  0  0  0  0  0  0  0  0  0
    6.8844    0.5851    0.4686 H   0  0  0  0  0  0  0  0  0  0  0  0
    7.7484    0.5268    2.0224 H   0  0  0  0  0  0  0  0  0  0  0  0
    7.0026   -0.9264    1.3552 H   0  0  0  0  0  0  0  0  0  0  0  0
    6.3545    2.3742    3.0330 H   0  0  0  0  0  0  0  0  0  0  0  0
    5.5477    2.5505    1.4589 H   0  0  0  0  0  0  0  0  0  0  0  0
    4.5826    2.3134    2.9055 H   0  0  0  0  0  0  0  0  0  0  0  0
    5.5826   -1.2749    3.4889 H   0  0  0  0  0  0  0  0  0  0  0  0
    4.4985   -0.0032    4.0303 H   0  0  0  0  0  0  0  0  0  0  0  0
    6.2558    0.1662    4.2508 H   0  0  0  0  0  0  0  0  0  0  0  0
    2.9879   -3.2380    0.2051 H   0  0  0  0  0  0  0  0  0  0  0  0
    2.9639   -2.4306   -1.3627 H   0  0  0  0  0  0  0  0  0  0  0  0
    0.6714   -3.0890    0.4853 H   0  0  0  0  0  0  0  0  0  0  0  0
    0.7826   -3.2256   -1.2674 H   0  0  0  0  0  0  0  0  0  0  0  0
  1  2  1  0
  2  3  2  0
  3  4  1  0
  4  5  2  0
  5  6  1  0
  6  7  2  0
  7  8  1  0
  6  9  1  0
  9 10  1  0
 10 11  2  0
 10 12  1  0
 12 13  1  0
 13 14  1  0
 14 15  2  0
 15 16  1  0
 15 17  1  0
 17 18  1  0
 18 19  2  0
 19 20  1  0
 20 21  2  0
 21 22  1  0
 22 23  2  0
 17 24  1  0
 24 25  1  0
 14 26  1  0
 26 27  1  0
 27 28  1  0
 28 29  1  0
 29 30  2  0
 29 31  1  0
 31 32  1  0
 32 33  1  0
 32 34  1  0
 32 35  1  0
 28 36  1  0
 36 37  1  0
 37 38  1  0
  7  2  1  0
 12 38  1  1
 12  5  1  0
 24 13  2  0
 38 26  1  0
 23 18  1  0
  1 39  1  0
  1 40  1  0
  1 41  1  0
  3 42  1  0
  4 43  1  0
  8 44  1  0
  8 45  1  0
  8 46  1  0
  9 47  1  0
 16 48  1  0
 19 49  1  0
 20 50  1  0
 21 51  1  0
 22 52  1  0
 23 53  1  0
 25 54  1  0
 26 55  1  6
 27 56  1  0
 27 57  1  0
 33 58  1  0
 33 59  1  0
 33 60  1  0
 34 61  1  0
 34 62  1  0
 34 63  1  0
 35 64  1  0
 35 65  1  0
 35 66  1  0
 36 67  1  0
 36 68  1  0
 37 69  1  0
 37 70  1  0
M  END
$$$$
