
     RDKit          3D

 54 57  0  0  0  0  0  0  0  0999 V2000
   -2.0431    4.4340   -2.1705 C   0  0  0  0  0  0  0  0  0  0  0  0
   -2.6770    3.2591   -2.6817 O   0  0  0  0  0  0  0  0  0  0  0  0
   -2.9427    2.3857   -1.6586 C   0  0  0  0  0  0  0  0  0  0  0  0
   -1.9263    1.5489   -1.1941 C   0  0  0  0  0  0  0  0  0  0  0  0
   -2.1713    0.6224   -0.1660 C   0  0  0  0  0  0  0  0  0  0  0  0
   -1.1085   -0.2596    0.3609 C   0  0  0  0  0  0  0  0  0  0  0  0
    0.2218    0.1152    0.4267 C   0  0  0  0  0  0  0  0  0  0  0  0
    1.1462   -0.7958    0.9400 C   0  0  0  0  0  0  0  0  0  0  0  0
    2.5605   -0.3557    0.9432 C   0  0  0  0  0  0  0  0  0  0  0  0
    2.8351    0.6803    1.5345 O   0  0  0  0  0  0  0  0  0  0  0  0
    3.4028   -1.1652    0.2042 N   0  0  0  0  0  0  0  0  0  0  0  0
    4.7942   -1.0160    0.0301 C   0  0  0  0  0  0  0  0  0  0  0  0
    5.4382   -1.9405   -0.8073 C   0  0  0  0  0  0  0  0  0  0  0  0
    6.8173   -1.8653   -1.0299 C   0  0  0  0  0  0  0  0  0  0  0  0
    7.5535   -0.8629   -0.4095 C   0  0  0  0  0  0  0  0  0  0  0  0
    8.8988   -0.7489   -0.5953 O   0  0  0  0  0  0  0  0  0  0  0  0
    6.9326    0.0578    0.4262 C   0  0  0  0  0  0  0  0  0  0  0  0
    5.5534   -0.0175    0.6460 C   0  0  0  0  0  0  0  0  0  0  0  0
    0.7410   -2.0561    1.4283 C   0  0  0  0  0  0  0  0  0  0  0  0
    1.5968   -3.0126    2.0339 C   0  0  0  0  0  0  0  0  0  0  0  0
    1.1037   -4.2374    2.4798 C   0  0  0  0  0  0  0  0  0  0  0  0
   -0.2467   -4.5223    2.3370 C   0  0  0  0  0  0  0  0  0  0  0  0
   -1.0953   -3.5745    1.7607 C   0  0  0  0  0  0  0  0  0  0  0  0
   -0.6304   -2.3446    1.3124 C   0  0  0  0  0  0  0  0  0  0  0  0
   -1.5179   -1.4800    0.7911 N   0  0  0  0  0  0  0  0  0  0  0  0
   -3.4838    0.5505    0.3545 C   0  0  0  0  0  0  0  0  0  0  0  0
   -4.5171    1.3703   -0.1190 C   0  0  0  0  0  0  0  0  0  0  0  0
   -5.8102    1.3495    0.3381 O   0  0  0  0  0  0  0  0  0  0  0  0
   -6.1149    0.4469    1.3954 C   0  0  0  0  0  0  0  0  0  0  0  0
   -4.2370    2.2820   -1.1451 C   0  0  0  0  0  0  0  0  0  0  0  0
   -5.2163    3.1339   -1.5972 O   0  0  0  0  0  0  0  0  0  0  0  0
   -5.8743    2.5563   -2.7251 C   0  0  0  0  0  0  0  0  0  0  0  0
   -1.0029    4.2215   -1.8900 H   0  0  0  0  0  0  0  0  0  0  0  0
   -2.0320    5.1787   -2.9725 H   0  0  0  0  0  0  0  0  0  0  0  0
   -2.5913    4.8582   -1.3160 H   0  0  0  0  0  0  0  0  0  0  0  0
   -0.9462    1.6208   -1.6584 H   0  0  0  0  0  0  0  0  0  0  0  0
    0.5532    1.0975    0.1031 H   0  0  0  0  0  0  0  0  0  0  0  0
    2.9752   -1.9405   -0.2906 H   0  0  0  0  0  0  0  0  0  0  0  0
    4.8768   -2.7309   -1.3002 H   0  0  0  0  0  0  0  0  0  0  0  0
    7.2918   -2.5912   -1.6843 H   0  0  0  0  0  0  0  0  0  0  0  0
    9.1889   -1.4329   -1.2207 H   0  0  0  0  0  0  0  0  0  0  0  0
    7.5165    0.8378    0.9089 H   0  0  0  0  0  0  0  0  0  0  0  0
    5.1055    0.7189    1.3076 H   0  0  0  0  0  0  0  0  0  0  0  0
    2.6545   -2.8021    2.1840 H   0  0  0  0  0  0  0  0  0  0  0  0
    1.7701   -4.9595    2.9452 H   0  0  0  0  0  0  0  0  0  0  0  0
   -0.6482   -5.4723    2.6824 H   0  0  0  0  0  0  0  0  0  0  0  0
   -2.1560   -3.8002    1.6649 H   0  0  0  0  0  0  0  0  0  0  0  0
   -3.6708   -0.1699    1.1474 H   0  0  0  0  0  0  0  0  0  0  0  0
   -7.1770    0.5611    1.6357 H   0  0  0  0  0  0  0  0  0  0  0  0
   -5.5424    0.6878    2.2989 H   0  0  0  0  0  0  0  0  0  0  0  0
   -5.9538   -0.5936    1.0861 H   0  0  0  0  0  0  0  0  0  0  0  0
   -6.6823    3.2321   -3.0246 H   0  0  0  0  0  0  0  0  0  0  0  0
   -5.1897    2.4529   -3.5739 H   0  0  0  0  0  0  0  0  0  0  0  0
   -6.3228    1.5868   -2.4767 H   0  0  0  0  0  0  0  0  0  0  0  0
  1  2  1  0
  2  3  1  0
  3  4  2  0
  4  5  1  0
  5  6  1  0
  6  7  2  0
  7  8  1  0
  8  9  1  0
  9 10  2  0
  9 11  1  0
 11 12  1  0
 12 13  2  0
 13 14  1  0
 14 15  2  0
 15 16  1  0
 15 17  1  0
 17 18  2  0
  8 19  2  0
 19 20  1  0
 20 21  2  0
 21 22  1  0
 22 23  2  0
 23 24  1  0
 24 25  2  0
  5 26  2  0
 26 27  1  0
 27 28  1  0
 28 29  1  0
 27 30  2  0
 30 31  1  0
 31 32  1  0
 30  3  1  0
 25  6  1  0
 18 12  1  0
 24 19  1  0
  1 33  1  0
  1 34  1  0
  1 35  1  0
  4 36  1  0
  7 37  1  0
 11 38  1  0
 13 39  1  0
 14 40  1  0
 16 41  1  0
 17 42  1  0
 18 43  1  0
 20 44  1  0
 21 45  1  0
 22 46  1  0
 23 47  1  0
 26 48  1  0
 29 49  1  0
 29 50  1  0
 29 51  1  0
 32 52  1  0
 32 53  1  0
 32 54  1  0
M  END
$$$$
