
     RDKit          3D

 32 34  0  0  0  0  0  0  0  0999 V2000
   -0.3391   -1.1711    1.2634 O   0  0  0  0  0  0  0  0  0  0  0  0
   -0.3727   -0.3205    0.3819 C   0  0  0  0  0  0  0  0  0  0  0  0
   -1.6865    0.2004   -0.2169 C   0  0  0  0  0  0  0  0  0  0  0  0
   -2.8154   -0.4217    0.3745 O   0  0  0  0  0  0  0  0  0  0  0  0
   -4.0506   -0.0451   -0.0716 C   0  0  0  0  0  0  0  0  0  0  0  0
   -4.3148    0.9029   -1.0636 C   0  0  0  0  0  0  0  0  0  0  0  0
   -5.6362    1.1898   -1.4208 C   0  0  0  0  0  0  0  0  0  0  0  0
   -6.6826    0.5299   -0.7867 C   0  0  0  0  0  0  0  0  0  0  0  0
   -7.9454    0.8097   -1.1340 F   0  0  0  0  0  0  0  0  0  0  0  0
   -6.4352   -0.4140    0.2003 C   0  0  0  0  0  0  0  0  0  0  0  0
   -5.1166   -0.6998    0.5563 C   0  0  0  0  0  0  0  0  0  0  0  0
    0.7247    0.2895   -0.1990 N   0  0  0  0  0  0  0  0  0  0  0  0
    2.0054   -0.0153    0.1744 C   0  0  0  0  0  0  0  0  0  0  0  0
    2.4581   -0.8585    1.0688 N   0  0  0  0  0  0  0  0  0  0  0  0
    3.8421   -0.8518    1.1249 N   0  0  0  0  0  0  0  0  0  0  0  0
    4.3565   -0.0062    0.2611 C   0  0  0  0  0  0  0  0  0  0  0  0
    5.8950    0.2062    0.1209 C   0  0  0  0  0  0  0  0  0  0  0  0
    6.8072   -0.9933    0.1678 C   0  0  0  0  0  0  0  0  0  0  0  0
    6.5974   -0.2648   -1.1273 C   0  0  0  0  0  0  0  0  0  0  0  0
    3.2093    0.8559   -0.6718 S   0  0  0  0  0  0  0  0  0  0  0  0
   -1.6614   -0.0130   -1.2926 H   0  0  0  0  0  0  0  0  0  0  0  0
   -1.7189    1.2825   -0.0394 H   0  0  0  0  0  0  0  0  0  0  0  0
   -3.5231    1.4356   -1.5779 H   0  0  0  0  0  0  0  0  0  0  0  0
   -5.8566    1.9237   -2.1896 H   0  0  0  0  0  0  0  0  0  0  0  0
   -7.2629   -0.9203    0.6857 H   0  0  0  0  0  0  0  0  0  0  0  0
   -4.9141   -1.4385    1.3292 H   0  0  0  0  0  0  0  0  0  0  0  0
    0.6183    0.9835   -0.9226 H   0  0  0  0  0  0  0  0  0  0  0  0
    6.2581    1.1133    0.5921 H   0  0  0  0  0  0  0  0  0  0  0  0
    6.3621   -1.9764    0.2806 H   0  0  0  0  0  0  0  0  0  0  0  0
    7.7609   -0.8825    0.6706 H   0  0  0  0  0  0  0  0  0  0  0  0
    6.0231   -0.7684   -1.8967 H   0  0  0  0  0  0  0  0  0  0  0  0
    7.4138    0.3384   -1.5074 H   0  0  0  0  0  0  0  0  0  0  0  0
  1  2  2  0
  2  3  1  0
  3  4  1  0
  4  5  1  0
  5  6  2  0
  6  7  1  0
  7  8  2  0
  8  9  1  0
  8 10  1  0
 10 11  2  0
  2 12  1  0
 12 13  1  0
 13 14  2  0
 14 15  1  0
 15 16  2  0
 16 17  1  0
 17 18  1  0
 18 19  1  0
 16 20  1  0
 11  5  1  0
 20 13  1  0
 19 17  1  0
  3 21  1  0
  3 22  1  0
  6 23  1  0
  7 24  1  0
 10 25  1  0
 11 26  1  0
 12 27  1  0
 17 28  1  0
 18 29  1  0
 18 30  1  0
 19 31  1  0
 19 32  1  0
M  END
$$$$
