
     RDKit          3D

 39 39  0  0  0  0  0  0  0  0999 V2000
   -2.5641    4.1635   -0.2288 C   0  0  0  0  0  0  0  0  0  0  0  0
   -1.7092    3.0504    0.2930 C   0  0  0  0  0  0  0  0  0  0  0  0
   -0.5608    3.1857    0.6898 O   0  0  0  0  0  0  0  0  0  0  0  0
   -2.3944    1.8736    0.2497 O   0  0  0  0  0  0  0  0  0  0  0  0
   -1.6710    0.7251    0.7250 C   0  0  0  0  0  0  0  0  0  0  0  0
   -0.8339    0.1353   -0.4084 C   0  0  0  0  0  0  0  0  0  0  0  0
    0.1117   -0.9779    0.0725 C   0  0  0  0  0  0  0  0  0  0  0  0
    0.9442   -1.4122   -1.0740 N   0  0  0  0  0  0  0  0  0  0  0  0
    2.5140   -0.8269   -1.1214 S   0  0  0  0  0  6  0  0  0  0  0  0
    3.0939   -1.2964   -2.3576 O   0  0  0  0  0  0  0  0  0  0  0  0
    3.1293   -1.1224    0.1511 O   0  0  0  0  0  0  0  0  0  0  0  0
    2.3258    0.7749   -1.2263 O   0  0  0  0  0  0  0  0  0  0  0  0
    3.4800    1.5526   -1.5327 C   0  0  0  0  0  0  0  0  0  0  0  0
    3.2899    3.0229   -1.1357 C   0  0  0  0  0  0  0  0  0  0  0  0
    4.7549    3.9525   -1.5957 Cl  0  0  0  0  0  0  0  0  0  0  0  0
    1.8830    3.7340   -1.9850 Cl  0  0  0  0  0  0  0  0  0  0  0  0
    3.0613    3.1698    0.6319 Cl  0  0  0  0  0  0  0  0  0  0  0  0
   -0.6189   -2.1759    0.6581 C   0  0  0  0  0  0  0  0  0  0  0  0
   -0.2678   -2.6516    1.9312 C   0  0  0  0  0  0  0  0  0  0  0  0
   -0.9155   -3.7597    2.4799 C   0  0  0  0  0  0  0  0  0  0  0  0
   -1.9147   -4.4116    1.7611 C   0  0  0  0  0  0  0  0  0  0  0  0
   -2.2637   -3.9609    0.4902 C   0  0  0  0  0  0  0  0  0  0  0  0
   -1.6174   -2.8533   -0.0612 C   0  0  0  0  0  0  0  0  0  0  0  0
   -3.4660    4.2559    0.3813 H   0  0  0  0  0  0  0  0  0  0  0  0
   -2.8229    3.9731   -1.2733 H   0  0  0  0  0  0  0  0  0  0  0  0
   -2.0082    5.1038   -0.1724 H   0  0  0  0  0  0  0  0  0  0  0  0
   -1.0577    0.9859    1.5960 H   0  0  0  0  0  0  0  0  0  0  0  0
   -2.4202    0.0036    1.0667 H   0  0  0  0  0  0  0  0  0  0  0  0
   -0.2490    0.9367   -0.8758 H   0  0  0  0  0  0  0  0  0  0  0  0
   -1.5014   -0.2151   -1.2061 H   0  0  0  0  0  0  0  0  0  0  0  0
    0.7492   -0.5509    0.8568 H   0  0  0  0  0  0  0  0  0  0  0  0
    0.9705   -2.4266   -1.1856 H   0  0  0  0  0  0  0  0  0  0  0  0
    4.3529    1.1367   -1.0125 H   0  0  0  0  0  0  0  0  0  0  0  0
    3.6658    1.4673   -2.6105 H   0  0  0  0  0  0  0  0  0  0  0  0
    0.5185   -2.1656    2.5070 H   0  0  0  0  0  0  0  0  0  0  0  0
   -0.6363   -4.1174    3.4681 H   0  0  0  0  0  0  0  0  0  0  0  0
   -2.4170   -5.2754    2.1891 H   0  0  0  0  0  0  0  0  0  0  0  0
   -3.0376   -4.4754   -0.0742 H   0  0  0  0  0  0  0  0  0  0  0  0
   -1.8971   -2.5281   -1.0613 H   0  0  0  0  0  0  0  0  0  0  0  0
  1  2  1  0
  2  3  2  0
  2  4  1  0
  4  5  1  0
  5  6  1  0
  6  7  1  0
  7  8  1  0
  8  9  1  0
  9 10  2  0
  9 11  2  0
  9 12  1  0
 12 13  1  0
 13 14  1  0
 14 15  1  0
 14 16  1  0
 14 17  1  0
  7 18  1  0
 18 19  2  0
 19 20  1  0
 20 21  2  0
 21 22  1  0
 22 23  2  0
 23 18  1  0
  1 24  1  0
  1 25  1  0
  1 26  1  0
  5 27  1  0
  5 28  1  0
  6 29  1  0
  6 30  1  0
  7 31  1  0
  8 32  1  0
 13 33  1  0
 13 34  1  0
 19 35  1  0
 20 36  1  0
 21 37  1  0
 22 38  1  0
 23 39  1  0
M  END
$$$$
