
     RDKit          3D

 37 39  0  0  0  0  0  0  0  0999 V2000
    2.9722    1.6788    4.4726 C   0  0  0  0  0  0  0  0  0  0  0  0
    2.1561    1.4044    3.3398 O   0  0  0  0  0  0  0  0  0  0  0  0
    2.0667    0.0956    2.9448 C   0  0  0  0  0  0  0  0  0  0  0  0
    2.7174   -0.9838    3.5374 C   0  0  0  0  0  0  0  0  0  0  0  0
    2.5439   -2.2867    3.0532 C   0  0  0  0  0  0  0  0  0  0  0  0
    1.7027   -2.4701    1.9500 C   0  0  0  0  0  0  0  0  0  0  0  0
    1.3470   -3.6266    1.2948 N   0  0  0  0  0  0  0  0  0  0  0  0
    0.4834   -3.3434    0.2694 C   0  0  0  0  0  0  0  0  0  0  0  0
    0.2956   -1.9784    0.2368 C   0  0  0  0  0  0  0  0  0  0  0  0
   -0.5421   -1.3399   -0.7283 C   0  0  0  0  0  0  0  0  0  0  0  0
   -0.3285   -0.1197   -1.2488 C   0  0  0  0  0  0  0  0  0  0  0  0
   -1.2024    0.5258   -2.2339 C   0  0  0  0  0  0  0  0  0  0  0  0
   -1.7744   -0.1701   -3.2974 C   0  0  0  0  0  0  0  0  0  0  0  0
   -2.5715    0.5059   -4.2146 C   0  0  0  0  0  0  0  0  0  0  0  0
   -2.7867    1.8347   -4.0929 N   0  0  0  0  0  4  0  0  0  0  0  0
   -3.6451    2.5267   -5.0692 C   0  0  0  0  0  0  0  0  0  0  0  0
   -2.2371    2.5321   -3.0740 C   0  0  0  0  0  0  0  0  0  0  0  0
   -1.4317    1.8973   -2.1356 C   0  0  0  0  0  0  0  0  0  0  0  0
    1.0465   -1.4134    1.3156 C   0  0  0  0  0  0  0  0  0  0  0  0
    1.2299   -0.1150    1.8399 C   0  0  0  0  0  0  0  0  0  0  0  0
    2.5943    1.1685    5.3647 H   0  0  0  0  0  0  0  0  0  0  0  0
    2.9290    2.7557    4.6620 H   0  0  0  0  0  0  0  0  0  0  0  0
    4.0175    1.4168    4.2782 H   0  0  0  0  0  0  0  0  0  0  0  0
    3.3720   -0.8524    4.3936 H   0  0  0  0  0  0  0  0  0  0  0  0
    3.0469   -3.1235    3.5284 H   0  0  0  0  0  0  0  0  0  0  0  0
    1.6716   -4.5502    1.5478 H   0  0  0  0  0  0  0  0  0  0  0  0
    0.0955   -4.1404   -0.3509 H   0  0  0  0  0  0  0  0  0  0  0  0
   -1.4013   -1.9209   -1.0563 H   0  0  0  0  0  0  0  0  0  0  0  0
    0.5400    0.4575   -0.9372 H   0  0  0  0  0  0  0  0  0  0  0  0
   -1.5983   -1.2361   -3.4278 H   0  0  0  0  0  0  0  0  0  0  0  0
   -3.0381   -0.0075   -5.0506 H   0  0  0  0  0  0  0  0  0  0  0  0
   -3.5686    2.0219   -6.0357 H   0  0  0  0  0  0  0  0  0  0  0  0
   -3.3069    3.5608   -5.1742 H   0  0  0  0  0  0  0  0  0  0  0  0
   -4.6691    2.4881   -4.6894 H   0  0  0  0  0  0  0  0  0  0  0  0
   -2.4471    3.5965   -3.0176 H   0  0  0  0  0  0  0  0  0  0  0  0
   -0.9955    2.4770   -1.3234 H   0  0  0  0  0  0  0  0  0  0  0  0
    0.7163    0.7339    1.4017 H   0  0  0  0  0  0  0  0  0  0  0  0
  1  2  1  0
  2  3  1  0
  3  4  2  0
  4  5  1  0
  5  6  2  0
  6  7  1  0
  7  8  1  0
  8  9  2  0
  9 10  1  0
 10 11  2  3
 11 12  1  0
 12 13  2  0
 13 14  1  0
 14 15  2  0
 15 16  1  0
 15 17  1  0
 17 18  2  0
  9 19  1  0
 19 20  2  0
 20  3  1  0
 19  6  1  0
 18 12  1  0
  1 21  1  0
  1 22  1  0
  1 23  1  0
  4 24  1  0
  5 25  1  0
  7 26  1  0
  8 27  1  0
 10 28  1  0
 11 29  1  0
 13 30  1  0
 14 31  1  0
 16 32  1  0
 16 33  1  0
 16 34  1  0
 17 35  1  0
 18 36  1  0
 20 37  1  0
M  CHG  1  15   1
M  END
$$$$
