
     RDKit          3D

 40 41  0  0  0  0  0  0  0  0999 V2000
    4.9927   -1.9140   -4.6763 C   0  0  0  0  0  0  0  0  0  0  0  0
    4.8846   -0.4205   -4.9513 C   0  0  0  0  0  0  0  0  0  0  0  0
    4.6059    0.3897   -3.6867 C   0  0  0  0  0  0  0  0  0  0  0  0
    3.1766    0.2607   -3.1747 C   0  0  0  0  0  0  0  0  0  0  0  0
    2.3040   -0.3234   -3.8052 O   0  0  0  0  0  0  0  0  0  0  0  0
    3.0211    0.8978   -1.9526 N   0  0  0  0  0  0  0  0  0  0  0  0
    1.8478    0.9963   -1.1774 C   0  0  0  0  0  0  0  0  0  0  0  0
    1.9387    1.6957    0.0323 C   0  0  0  0  0  0  0  0  0  0  0  0
    0.8205    1.8384    0.8607 C   0  0  0  0  0  0  0  0  0  0  0  0
   -0.4065    1.2755    0.4944 C   0  0  0  0  0  0  0  0  0  0  0  0
   -1.5677    1.4559    1.4089 C   0  0  0  0  0  0  0  0  0  0  0  0
   -1.5714    2.3497    2.2526 O   0  0  0  0  0  0  0  0  0  0  0  0
   -2.6075    0.5538    1.2786 N   0  0  0  0  0  0  0  0  0  0  0  0
   -3.5882    0.5703    2.2882 N   0  0  0  0  0  0  0  0  0  0  0  0
   -4.0391   -0.6453    2.7777 C   0  0  0  0  0  0  0  0  0  0  0  0
   -3.7677   -1.6948    2.1894 O   0  0  0  0  0  0  0  0  0  0  0  0
   -4.8211   -0.5976    4.0048 C   0  0  0  0  0  0  0  0  0  0  0  0
   -5.3751   -1.6759    4.6722 C   0  0  0  0  0  0  0  0  0  0  0  0
   -6.0827   -1.2919    5.8476 C   0  0  0  0  0  0  0  0  0  0  0  0
   -6.0480    0.0697    6.0443 C   0  0  0  0  0  0  0  0  0  0  0  0
   -5.1680    0.8720    4.8182 S   0  0  0  0  0  0  0  0  0  0  0  0
   -0.5059    0.5878   -0.7192 C   0  0  0  0  0  0  0  0  0  0  0  0
    0.6177    0.4478   -1.5459 C   0  0  0  0  0  0  0  0  0  0  0  0
    4.0576   -2.3192   -4.2788 H   0  0  0  0  0  0  0  0  0  0  0  0
    5.2253   -2.4508   -5.6015 H   0  0  0  0  0  0  0  0  0  0  0  0
    5.7902   -2.1224   -3.9558 H   0  0  0  0  0  0  0  0  0  0  0  0
    4.1076   -0.2424   -5.7034 H   0  0  0  0  0  0  0  0  0  0  0  0
    5.8328   -0.0804   -5.3843 H   0  0  0  0  0  0  0  0  0  0  0  0
    5.3018    0.0974   -2.8915 H   0  0  0  0  0  0  0  0  0  0  0  0
    4.7728    1.4513   -3.9066 H   0  0  0  0  0  0  0  0  0  0  0  0
    3.8440    1.3461   -1.5693 H   0  0  0  0  0  0  0  0  0  0  0  0
    2.8771    2.1430    0.3505 H   0  0  0  0  0  0  0  0  0  0  0  0
    0.9126    2.3896    1.7950 H   0  0  0  0  0  0  0  0  0  0  0  0
   -2.4684   -0.3528    0.8329 H   0  0  0  0  0  0  0  0  0  0  0  0
   -3.5971    1.3965    2.8863 H   0  0  0  0  0  0  0  0  0  0  0  0
   -5.2725   -2.6981    4.3240 H   0  0  0  0  0  0  0  0  0  0  0  0
   -6.5901   -1.9796    6.5134 H   0  0  0  0  0  0  0  0  0  0  0  0
   -6.4974    0.6341    6.8502 H   0  0  0  0  0  0  0  0  0  0  0  0
   -1.4486    0.1701   -1.0619 H   0  0  0  0  0  0  0  0  0  0  0  0
    0.4919   -0.0926   -2.4797 H   0  0  0  0  0  0  0  0  0  0  0  0
  1  2  1  0
  2  3  1  0
  3  4  1  0
  4  5  2  0
  4  6  1  0
  6  7  1  0
  7  8  2  0
  8  9  1  0
  9 10  2  0
 10 11  1  0
 11 12  2  0
 11 13  1  0
 13 14  1  0
 14 15  1  0
 15 16  2  0
 15 17  1  0
 17 18  2  0
 18 19  1  0
 19 20  2  0
 20 21  1  0
 10 22  1  0
 22 23  2  0
 23  7  1  0
 21 17  1  0
  1 24  1  0
  1 25  1  0
  1 26  1  0
  2 27  1  0
  2 28  1  0
  3 29  1  0
  3 30  1  0
  6 31  1  0
  8 32  1  0
  9 33  1  0
 13 34  1  0
 14 35  1  0
 18 36  1  0
 19 37  1  0
 20 38  1  0
 22 39  1  0
 23 40  1  0
M  END
$$$$
