
     RDKit          3D

 53 58  0  0  0  0  0  0  0  0999 V2000
   -0.9636    1.5714    0.3968 O   0  0  0  0  0  0  0  0  0  0  0  0
   -1.4225    0.4399    0.5837 C   0  0  0  0  0  0  0  0  0  0  0  0
   -0.4421   -0.6848    0.9871 C   0  0  0  0  0  0  0  0  0  0  0  0
    0.9235   -0.3957    0.5022 N   0  0  0  0  0  4  0  0  0  0  0  0
    2.0676   -0.2248    1.2802 C   0  0  0  0  0  0  0  0  0  0  0  0
    3.1365    0.0953    0.4498 C   0  0  0  0  0  0  0  0  0  0  0  0
    4.6234    0.3456    0.8973 C   0  0  0  0  0  0  0  0  0  0  0  0
    5.6258    0.5769   -0.0467 C   0  0  0  0  0  0  0  0  0  0  0  0
    6.9444    0.7996    0.3682 C   0  0  0  0  0  0  0  0  0  0  0  0
    7.2624    0.7890    1.7235 C   0  0  0  0  0  0  0  0  0  0  0  0
    8.8808    1.0659    2.2286 Cl  0  0  0  0  0  0  0  0  0  0  0  0
    6.2711    0.5538    2.6703 C   0  0  0  0  0  0  0  0  0  0  0  0
    4.9528    0.3292    2.2590 C   0  0  0  0  0  0  0  0  0  0  0  0
    2.5616    0.1324   -0.8079 N   0  0  0  0  0  0  0  0  0  0  0  0
    1.2629   -0.1547   -0.7617 C   0  0  0  0  0  0  0  0  0  0  0  0
    0.6116   -0.1218   -2.0929 C   0  0  0  0  0  0  0  0  0  0  0  0
    1.6712    0.6002   -2.9495 C   0  0  0  0  0  0  0  0  0  0  0  0
    2.9995    0.4498   -2.1602 C   0  0  0  0  0  0  0  0  0  0  0  0
   -2.7383    0.0322    0.2942 N   0  0  0  0  0  0  0  0  0  0  0  0
   -3.3423   -1.1170    0.9140 C   0  0  0  0  0  0  0  0  0  0  0  0
   -3.0948   -1.3821    2.2750 C   0  0  0  0  0  0  0  0  0  0  0  0
   -3.6577   -2.4909    2.9107 C   0  0  0  0  0  0  0  0  0  0  0  0
   -4.4901   -3.3491    2.2008 C   0  0  0  0  0  0  0  0  0  0  0  0
   -4.7773   -3.0831    0.8647 C   0  0  0  0  0  0  0  0  0  0  0  0
   -4.2256   -1.9637    0.2264 C   0  0  0  0  0  0  0  0  0  0  0  0
   -4.6488   -1.6771   -1.4707 S   0  0  0  0  0  0  0  0  0  0  0  0
   -4.4850    0.0944   -1.4789 C   0  0  0  0  0  0  0  0  0  0  0  0
   -5.2626    0.8080   -2.4039 C   0  0  0  0  0  0  0  0  0  0  0  0
   -5.1391    2.1889   -2.5138 C   0  0  0  0  0  0  0  0  0  0  0  0
   -4.2343    2.8618   -1.7022 C   0  0  0  0  0  0  0  0  0  0  0  0
   -3.4510    2.1537   -0.7844 C   0  0  0  0  0  0  0  0  0  0  0  0
   -3.5582    0.7578   -0.6494 C   0  0  0  0  0  0  0  0  0  0  0  0
   -0.4049   -0.7643    2.0762 H   0  0  0  0  0  0  0  0  0  0  0  0
   -0.7299   -1.6454    0.5479 H   0  0  0  0  0  0  0  0  0  0  0  0
    1.9776   -0.3608    2.3442 H   0  0  0  0  0  0  0  0  0  0  0  0
    5.4273    0.5782   -1.1100 H   0  0  0  0  0  0  0  0  0  0  0  0
    7.7225    0.9773   -0.3707 H   0  0  0  0  0  0  0  0  0  0  0  0
    6.5180    0.5461    3.7297 H   0  0  0  0  0  0  0  0  0  0  0  0
    4.2087    0.1530    3.0300 H   0  0  0  0  0  0  0  0  0  0  0  0
    0.4680   -1.1624   -2.3950 H   0  0  0  0  0  0  0  0  0  0  0  0
   -0.3330    0.4182   -2.0320 H   0  0  0  0  0  0  0  0  0  0  0  0
    1.7370    0.2097   -3.9688 H   0  0  0  0  0  0  0  0  0  0  0  0
    1.4158    1.6653   -3.0125 H   0  0  0  0  0  0  0  0  0  0  0  0
    3.5943   -0.3838   -2.5427 H   0  0  0  0  0  0  0  0  0  0  0  0
    3.5728    1.3796   -2.1790 H   0  0  0  0  0  0  0  0  0  0  0  0
   -2.5193   -0.6941    2.8882 H   0  0  0  0  0  0  0  0  0  0  0  0
   -3.4734   -2.6718    3.9677 H   0  0  0  0  0  0  0  0  0  0  0  0
   -4.9394   -4.2094    2.6923 H   0  0  0  0  0  0  0  0  0  0  0  0
   -5.4507   -3.7502    0.3253 H   0  0  0  0  0  0  0  0  0  0  0  0
   -5.9698    0.2904   -3.0493 H   0  0  0  0  0  0  0  0  0  0  0  0
   -5.7504    2.7371   -3.2276 H   0  0  0  0  0  0  0  0  0  0  0  0
   -4.1415    3.9438   -1.7732 H   0  0  0  0  0  0  0  0  0  0  0  0
   -2.7912    2.7424   -0.1514 H   0  0  0  0  0  0  0  0  0  0  0  0
  1  2  2  0
  2  3  1  0
  3  4  1  0
  4  5  1  0
  5  6  2  0
  6  7  1  0
  7  8  2  0
  8  9  1  0
  9 10  2  0
 10 11  1  0
 10 12  1  0
 12 13  2  0
  6 14  1  0
 14 15  1  0
 15 16  1  0
 16 17  1  0
 17 18  1  0
  2 19  1  0
 19 20  1  0
 20 21  2  0
 21 22  1  0
 22 23  2  0
 23 24  1  0
 24 25  2  0
 25 26  1  0
 26 27  1  0
 27 28  2  0
 28 29  1  0
 29 30  2  0
 30 31  1  0
 31 32  2  0
 15  4  2  0
 32 19  1  0
 13  7  1  0
 18 14  1  0
 25 20  1  0
 32 27  1  0
  3 33  1  0
  3 34  1  0
  5 35  1  0
  8 36  1  0
  9 37  1  0
 12 38  1  0
 13 39  1  0
 16 40  1  0
 16 41  1  0
 17 42  1  0
 17 43  1  0
 18 44  1  0
 18 45  1  0
 21 46  1  0
 22 47  1  0
 23 48  1  0
 24 49  1  0
 28 50  1  0
 29 51  1  0
 30 52  1  0
 31 53  1  0
M  CHG  1   4   1
M  END
$$$$
