
     RDKit          3D

 39 41  0  0  0  0  0  0  0  0999 V2000
   -1.3635   -2.0696   -1.8168 O   0  0  0  0  0  0  0  0  0  0  0  0
   -2.0125   -2.4845   -0.5940 S   0  0  0  0  0  6  0  0  0  0  0  0
   -2.6873   -3.7576   -0.4804 O   0  0  0  0  0  0  0  0  0  0  0  0
   -0.8966   -2.4246    0.6452 N   0  0  0  0  0  0  0  0  0  0  0  0
    0.1416   -1.3871    0.6670 C   0  0  0  0  0  0  0  0  0  0  0  0
    1.4165   -1.8757   -0.0192 C   0  0  0  0  0  0  0  0  0  0  0  0
    2.4720   -0.8276   -0.0369 C   0  0  0  0  0  0  0  0  0  0  0  0
    3.0935   -0.2421   -1.1206 C   0  0  0  0  0  0  0  0  0  0  0  0
    3.9877    0.6557   -0.5970 N   0  0  0  0  0  0  0  0  0  0  0  0
    4.8728    1.5117   -1.2476 C   0  0  0  0  0  0  0  0  0  0  0  0
    5.6626    2.3152   -0.5146 C   0  0  0  0  0  0  0  0  0  0  0  0
    5.5661    2.2640    0.9372 C   0  0  0  0  0  0  0  0  0  0  0  0
    4.7060    1.4324    1.5581 C   0  0  0  0  0  0  0  0  0  0  0  0
    3.8672    0.5787    0.7866 C   0  0  0  0  0  0  0  0  0  0  0  0
    2.9592   -0.3072    1.1408 N   0  0  0  0  0  0  0  0  0  0  0  0
   -3.1685   -1.2223   -0.1118 C   0  0  0  0  0  0  0  0  0  0  0  0
   -4.1131   -1.5047    0.8800 C   0  0  0  0  0  0  0  0  0  0  0  0
   -5.0348   -0.5244    1.2452 C   0  0  0  0  0  0  0  0  0  0  0  0
   -5.0099    0.7191    0.6155 C   0  0  0  0  0  0  0  0  0  0  0  0
   -5.9063    1.6435    0.9838 F   0  0  0  0  0  0  0  0  0  0  0  0
   -4.0804    1.0117   -0.3825 C   0  0  0  0  0  0  0  0  0  0  0  0
   -4.1061    2.3644   -1.0296 C   0  0  0  0  0  0  0  0  0  0  0  0
   -3.1220    2.5259   -1.9604 F   0  0  0  0  0  0  0  0  0  0  0  0
   -5.2722    2.6176   -1.6834 F   0  0  0  0  0  0  0  0  0  0  0  0
   -3.9348    3.3807   -0.1408 F   0  0  0  0  0  0  0  0  0  0  0  0
   -3.1531    0.0235   -0.7524 C   0  0  0  0  0  0  0  0  0  0  0  0
   -0.7457   -3.2985    1.1465 H   0  0  0  0  0  0  0  0  0  0  0  0
    0.3442   -1.1427    1.7166 H   0  0  0  0  0  0  0  0  0  0  0  0
   -0.2246   -0.4648    0.2023 H   0  0  0  0  0  0  0  0  0  0  0  0
    1.1984   -2.1959   -1.0446 H   0  0  0  0  0  0  0  0  0  0  0  0
    1.8016   -2.7602    0.5032 H   0  0  0  0  0  0  0  0  0  0  0  0
    2.9796   -0.3851   -2.1858 H   0  0  0  0  0  0  0  0  0  0  0  0
    4.8850    1.4914   -2.3296 H   0  0  0  0  0  0  0  0  0  0  0  0
    6.3689    3.0000   -0.9715 H   0  0  0  0  0  0  0  0  0  0  0  0
    6.2125    2.9208    1.5116 H   0  0  0  0  0  0  0  0  0  0  0  0
    4.6323    1.3916    2.6385 H   0  0  0  0  0  0  0  0  0  0  0  0
   -4.1361   -2.4791    1.3641 H   0  0  0  0  0  0  0  0  0  0  0  0
   -5.7768   -0.7210    2.0141 H   0  0  0  0  0  0  0  0  0  0  0  0
   -2.4238    0.2268   -1.5367 H   0  0  0  0  0  0  0  0  0  0  0  0
  1  2  2  0
  2  3  2  0
  2  4  1  0
  4  5  1  0
  5  6  1  0
  6  7  1  0
  7  8  2  0
  8  9  1  0
  9 10  1  0
 10 11  2  0
 11 12  1  0
 12 13  2  0
 13 14  1  0
 14 15  2  0
  2 16  1  0
 16 17  2  0
 17 18  1  0
 18 19  2  0
 19 20  1  0
 19 21  1  0
 21 22  1  0
 22 23  1  0
 22 24  1  0
 22 25  1  0
 21 26  2  0
 15  7  1  0
 26 16  1  0
 14  9  1  0
  4 27  1  0
  5 28  1  0
  5 29  1  0
  6 30  1  0
  6 31  1  0
  8 32  1  0
 10 33  1  0
 11 34  1  0
 12 35  1  0
 13 36  1  0
 17 37  1  0
 18 38  1  0
 26 39  1  0
M  END
$$$$
