
     RDKit          3D

 57 59  0  0  0  0  0  0  0  0999 V2000
   -7.3582    1.5496   -2.5628 C   0  0  0  0  0  0  0  0  0  0  0  0
   -6.9791    0.1865   -2.4373 O   0  0  0  0  0  0  0  0  0  0  0  0
   -5.6564   -0.0903   -2.1964 C   0  0  0  0  0  0  0  0  0  0  0  0
   -4.6727    0.8843   -1.9841 C   0  0  0  0  0  0  0  0  0  0  0  0
   -3.3510    0.5108   -1.7360 C   0  0  0  0  0  0  0  0  0  0  0  0
   -3.0184   -0.8425   -1.6935 C   0  0  0  0  0  0  0  0  0  0  0  0
   -1.3483   -1.3393   -1.3695 S   0  0  0  0  0  6  0  0  0  0  0  0
   -1.0147   -2.4003   -2.2938 O   0  0  0  0  0  0  0  0  0  0  0  0
   -0.5252   -0.1521   -1.2633 O   0  0  0  0  0  0  0  0  0  0  0  0
   -1.4589   -2.0037    0.1566 N   0  0  0  0  0  0  0  0  0  0  0  0
   -1.8862   -1.1789    1.2932 C   0  0  0  0  0  0  0  0  0  0  0  0
   -1.0985   -1.7203    2.4720 C   0  0  0  0  0  0  0  0  0  0  0  0
   -0.5614   -2.9757    2.0455 O   0  0  0  0  0  0  0  0  0  0  0  0
   -0.3786   -2.8862    0.6220 C   0  0  0  0  0  0  0  0  0  0  0  0
    1.0690   -2.4367    0.2939 C   0  0  0  0  0  0  0  0  0  0  0  0
    1.3571   -1.0422    0.5985 N   0  0  0  0  0  0  0  0  0  0  0  0
    2.5532   -0.6337    1.1364 C   0  0  0  0  0  0  0  0  0  0  0  0
    3.4561   -1.3571    1.5323 O   0  0  0  0  0  0  0  0  0  0  0  0
    2.7147    0.9020    1.2063 C   0  0  0  0  0  0  0  0  0  0  0  0
    1.7423    1.6337    1.0890 O   0  0  0  0  0  0  0  0  0  0  0  0
    4.0121    1.3053    1.4129 N   0  0  0  0  0  0  0  0  0  0  0  0
    4.3393    2.6818    1.6689 C   0  0  0  0  0  0  0  0  0  0  0  0
    5.8206    2.9122    1.5356 C   0  0  0  0  0  0  0  0  0  0  0  0
    6.3899    3.1298    0.2701 C   0  0  0  0  0  0  0  0  0  0  0  0
    7.7664    3.3176    0.1378 C   0  0  0  0  0  0  0  0  0  0  0  0
    8.5743    3.2808    1.2676 C   0  0  0  0  0  0  0  0  0  0  0  0
    9.8956    3.4598    1.1400 F   0  0  0  0  0  0  0  0  0  0  0  0
    8.0325    3.0565    2.5278 C   0  0  0  0  0  0  0  0  0  0  0  0
    6.6560    2.8680    2.6630 C   0  0  0  0  0  0  0  0  0  0  0  0
   -3.9839   -1.8298   -1.9136 C   0  0  0  0  0  0  0  0  0  0  0  0
   -5.3073   -1.4586   -2.1650 C   0  0  0  0  0  0  0  0  0  0  0  0
   -6.3310   -2.3468   -2.3848 O   0  0  0  0  0  0  0  0  0  0  0  0
   -6.0011   -3.7259   -2.4738 C   0  0  0  0  0  0  0  0  0  0  0  0
   -8.4267    1.5797   -2.7985 H   0  0  0  0  0  0  0  0  0  0  0  0
   -7.2111    2.0874   -1.6202 H   0  0  0  0  0  0  0  0  0  0  0  0
   -6.8234    2.0364   -3.3850 H   0  0  0  0  0  0  0  0  0  0  0  0
   -4.9049    1.9443   -2.0055 H   0  0  0  0  0  0  0  0  0  0  0  0
   -2.5970    1.2789   -1.5773 H   0  0  0  0  0  0  0  0  0  0  0  0
   -2.9602   -1.3225    1.4512 H   0  0  0  0  0  0  0  0  0  0  0  0
   -1.6967   -0.1106    1.1577 H   0  0  0  0  0  0  0  0  0  0  0  0
   -1.7245   -1.8701    3.3566 H   0  0  0  0  0  0  0  0  0  0  0  0
   -0.2748   -1.0552    2.7501 H   0  0  0  0  0  0  0  0  0  0  0  0
   -0.5354   -3.8939    0.2228 H   0  0  0  0  0  0  0  0  0  0  0  0
    1.2768   -2.5662   -0.7733 H   0  0  0  0  0  0  0  0  0  0  0  0
    1.7719   -3.0700    0.8465 H   0  0  0  0  0  0  0  0  0  0  0  0
    0.8082   -0.3161    0.1299 H   0  0  0  0  0  0  0  0  0  0  0  0
    4.6814    0.5740    1.6391 H   0  0  0  0  0  0  0  0  0  0  0  0
    3.9953    2.9299    2.6797 H   0  0  0  0  0  0  0  0  0  0  0  0
    3.7834    3.3272    0.9788 H   0  0  0  0  0  0  0  0  0  0  0  0
    5.7609    3.1495   -0.6180 H   0  0  0  0  0  0  0  0  0  0  0  0
    8.2128    3.4878   -0.8366 H   0  0  0  0  0  0  0  0  0  0  0  0
    8.6853    3.0266    3.3944 H   0  0  0  0  0  0  0  0  0  0  0  0
    6.2395    2.6852    3.6514 H   0  0  0  0  0  0  0  0  0  0  0  0
   -3.6803   -2.8714   -1.8784 H   0  0  0  0  0  0  0  0  0  0  0  0
   -5.6295   -4.1027   -1.5152 H   0  0  0  0  0  0  0  0  0  0  0  0
   -6.9173   -4.2742   -2.7138 H   0  0  0  0  0  0  0  0  0  0  0  0
   -5.2817   -3.9124   -3.2785 H   0  0  0  0  0  0  0  0  0  0  0  0
  1  2  1  0
  2  3  1  0
  3  4  2  0
  4  5  1  0
  5  6  2  0
  6  7  1  0
  7  8  2  0
  7  9  2  0
  7 10  1  0
 10 11  1  0
 11 12  1  0
 12 13  1  0
 13 14  1  0
 14 15  1  0
 15 16  1  0
 16 17  1  0
 17 18  2  0
 17 19  1  0
 19 20  2  0
 19 21  1  0
 21 22  1  0
 22 23  1  0
 23 24  2  0
 24 25  1  0
 25 26  2  0
 26 27  1  0
 26 28  1  0
 28 29  2  0
  6 30  1  0
 30 31  2  0
 31 32  1  0
 32 33  1  0
 31  3  1  0
 14 10  1  0
 29 23  1  0
  1 34  1  0
  1 35  1  0
  1 36  1  0
  4 37  1  0
  5 38  1  0
 11 39  1  0
 11 40  1  0
 12 41  1  0
 12 42  1  0
 14 43  1  0
 15 44  1  0
 15 45  1  0
 16 46  1  0
 21 47  1  0
 22 48  1  0
 22 49  1  0
 24 50  1  0
 25 51  1  0
 28 52  1  0
 29 53  1  0
 30 54  1  0
 33 55  1  0
 33 56  1  0
 33 57  1  0
M  END
$$$$
