
     RDKit          3D

 54 57  0  0  0  0  0  0  0  0999 V2000
    3.9613    2.1694    4.4267 C   0  0  0  0  0  0  0  0  0  0  0  0
    3.1686    1.1578    3.6153 C   0  0  0  0  0  0  0  0  0  0  0  0
    3.7949    0.8863    2.2552 C   0  0  0  0  0  0  0  0  0  0  0  0
    4.8828    1.3659    1.9380 O   0  0  0  0  0  0  0  0  0  0  0  0
    3.0766    0.0655    1.3982 N   0  0  0  0  0  0  0  0  0  0  0  0
    3.5951   -0.1934    0.0496 C   0  0  0  0  0  0  0  0  0  0  0  0
    2.4807   -0.2357   -1.0110 C   0  0  0  0  0  0  0  0  0  0  0  0
    1.3616   -1.1473   -0.6484 N   0  0  0  0  0  0  0  0  0  0  0  0
    1.1473   -2.1874   -1.5914 C   0  0  0  0  0  0  0  0  0  0  0  0
    2.1234   -3.1497   -1.8843 C   0  0  0  0  0  0  0  0  0  0  0  0
    1.8573   -4.1631   -2.8063 C   0  0  0  0  0  0  0  0  0  0  0  0
    0.6151   -4.2197   -3.4377 C   0  0  0  0  0  0  0  0  0  0  0  0
    0.3010   -5.4797   -4.5690 Cl  0  0  0  0  0  0  0  0  0  0  0  0
   -0.3710   -3.2730   -3.1636 C   0  0  0  0  0  0  0  0  0  0  0  0
   -0.1084   -2.2559   -2.2467 C   0  0  0  0  0  0  0  0  0  0  0  0
   -1.0263   -1.2434   -1.8977 N   0  0  0  0  0  0  0  0  0  0  0  0
   -2.2913   -1.0232   -2.3932 C   0  0  0  0  0  0  0  0  0  0  0  0
   -2.8452   -1.6574   -3.2833 O   0  0  0  0  0  0  0  0  0  0  0  0
   -3.0137    0.1313   -1.7838 C   0  0  0  0  0  0  0  0  0  0  0  0
   -3.9325    0.8366   -2.5749 C   0  0  0  0  0  0  0  0  0  0  0  0
   -4.6319    1.9226   -2.0435 C   0  0  0  0  0  0  0  0  0  0  0  0
   -4.4235    2.2988   -0.7187 C   0  0  0  0  0  0  0  0  0  0  0  0
   -3.4997    1.6050    0.0709 C   0  0  0  0  0  0  0  0  0  0  0  0
   -2.8102    0.5108   -0.4502 C   0  0  0  0  0  0  0  0  0  0  0  0
   -3.2259    1.9361    1.3742 O   0  0  0  0  0  0  0  0  0  0  0  0
   -3.7195    3.2429    1.6954 C   0  0  0  0  0  0  0  0  0  0  0  0
   -5.1351    3.4273    1.1738 C   0  0  0  0  0  0  0  0  0  0  0  0
   -5.1579    3.3602   -0.2564 O   0  0  0  0  0  0  0  0  0  0  0  0
    1.3920   -1.6660    0.7397 C   0  0  0  0  0  0  0  0  0  0  0  0
    1.7843   -0.5513    1.7254 C   0  0  0  0  0  0  0  0  0  0  0  0
    4.9802    1.8140    4.6131 H   0  0  0  0  0  0  0  0  0  0  0  0
    4.0304    3.1273    3.9006 H   0  0  0  0  0  0  0  0  0  0  0  0
    3.4791    2.3437    5.3937 H   0  0  0  0  0  0  0  0  0  0  0  0
    2.1522    1.5378    3.4711 H   0  0  0  0  0  0  0  0  0  0  0  0
    3.1226    0.2166    4.1733 H   0  0  0  0  0  0  0  0  0  0  0  0
    4.1118   -1.1597    0.0916 H   0  0  0  0  0  0  0  0  0  0  0  0
    4.3372    0.5611   -0.2312 H   0  0  0  0  0  0  0  0  0  0  0  0
    2.9142   -0.4735   -1.9905 H   0  0  0  0  0  0  0  0  0  0  0  0
    2.0487    0.7688   -1.1008 H   0  0  0  0  0  0  0  0  0  0  0  0
    3.0934   -3.1217   -1.3970 H   0  0  0  0  0  0  0  0  0  0  0  0
    2.6193   -4.9061   -3.0268 H   0  0  0  0  0  0  0  0  0  0  0  0
   -1.3271   -3.3442   -3.6709 H   0  0  0  0  0  0  0  0  0  0  0  0
   -0.6196   -0.5810   -1.2428 H   0  0  0  0  0  0  0  0  0  0  0  0
   -4.1050    0.5394   -3.6081 H   0  0  0  0  0  0  0  0  0  0  0  0
   -5.3456    2.4645   -2.6590 H   0  0  0  0  0  0  0  0  0  0  0  0
   -2.1354   -0.0393    0.1980 H   0  0  0  0  0  0  0  0  0  0  0  0
   -3.7010    3.3450    2.7850 H   0  0  0  0  0  0  0  0  0  0  0  0
   -3.0348    3.9874    1.2698 H   0  0  0  0  0  0  0  0  0  0  0  0
   -5.8126    2.6608    1.5704 H   0  0  0  0  0  0  0  0  0  0  0  0
   -5.5215    4.4087    1.4663 H   0  0  0  0  0  0  0  0  0  0  0  0
    0.4003   -2.0488    1.0097 H   0  0  0  0  0  0  0  0  0  0  0  0
    2.1086   -2.4920    0.8370 H   0  0  0  0  0  0  0  0  0  0  0  0
    1.0349    0.2488    1.7034 H   0  0  0  0  0  0  0  0  0  0  0  0
    1.8201   -0.9539    2.7422 H   0  0  0  0  0  0  0  0  0  0  0  0
  1  2  1  0
  2  3  1  0
  3  4  2  0
  3  5  1  0
  5  6  1  0
  6  7  1  0
  7  8  1  0
  8  9  1  0
  9 10  2  0
 10 11  1  0
 11 12  2  0
 12 13  1  0
 12 14  1  0
 14 15  2  0
 15 16  1  0
 16 17  1  0
 17 18  2  0
 17 19  1  0
 19 20  2  0
 20 21  1  0
 21 22  2  0
 22 23  1  0
 23 24  2  0
 23 25  1  0
 25 26  1  0
 26 27  1  0
 27 28  1  0
  8 29  1  0
 29 30  1  0
 30  5  1  0
 15  9  1  0
 24 19  1  0
 28 22  1  0
  1 31  1  0
  1 32  1  0
  1 33  1  0
  2 34  1  0
  2 35  1  0
  6 36  1  0
  6 37  1  0
  7 38  1  0
  7 39  1  0
 10 40  1  0
 11 41  1  0
 14 42  1  0
 16 43  1  0
 20 44  1  0
 21 45  1  0
 24 46  1  0
 26 47  1  0
 26 48  1  0
 27 49  1  0
 27 50  1  0
 29 51  1  0
 29 52  1  0
 30 53  1  0
 30 54  1  0
M  END
$$$$
