
     RDKit          3D

 54 58  0  0  0  0  0  0  0  0999 V2000
    4.5673   -2.4107   -2.5606 F   0  0  0  0  0  0  0  0  0  0  0  0
    5.7195   -2.2172   -1.8587 C   0  0  0  0  0  0  0  0  0  0  0  0
    6.7194   -2.6509   -2.6798 F   0  0  0  0  0  0  0  0  0  0  0  0
    5.6857   -3.1040   -0.8254 F   0  0  0  0  0  0  0  0  0  0  0  0
    5.8974   -0.7848   -1.3933 C   0  0  0  0  0  0  0  0  0  0  0  0
    7.1187   -0.1351   -1.6630 C   0  0  0  0  0  0  0  0  0  0  0  0
    7.3349    1.1814   -1.2642 C   0  0  0  0  0  0  0  0  0  0  0  0
    6.3338    1.8696   -0.5916 C   0  0  0  0  0  0  0  0  0  0  0  0
    5.1183    1.2429   -0.3089 C   0  0  0  0  0  0  0  0  0  0  0  0
    4.8805   -0.0908   -0.6862 C   0  0  0  0  0  0  0  0  0  0  0  0
    3.5515   -0.7757   -0.3967 C   0  0  0  0  0  0  0  0  0  0  0  0
    2.6338   -0.1147    0.6540 C   0  0  0  0  0  0  0  0  0  0  0  0
    1.4598   -0.9363    1.0029 N   0  0  0  0  0  0  0  0  0  0  0  0
    0.6989   -0.3443    2.1285 C   0  0  0  0  0  0  0  0  0  0  0  0
   -0.5819    0.4126    1.7225 C   0  0  0  0  0  0  0  0  0  0  0  0
   -1.5143   -0.4714    1.0026 N   0  0  0  0  0  0  0  0  0  0  0  0
   -2.8020   -0.0218    0.7278 C   0  0  0  0  0  0  0  0  0  0  0  0
   -3.0376    1.2641    0.8333 N   0  0  0  0  0  0  0  0  0  0  0  0
   -4.3059    1.7945    0.5314 C   0  0  0  0  0  0  0  0  0  0  0  0
   -4.4917    3.1738    0.6449 C   0  0  0  0  0  0  0  0  0  0  0  0
   -5.7268    3.7550    0.3457 C   0  0  0  0  0  0  0  0  0  0  0  0
   -6.7924    2.9573   -0.0723 C   0  0  0  0  0  0  0  0  0  0  0  0
   -6.6293    1.5767   -0.1921 C   0  0  0  0  0  0  0  0  0  0  0  0
   -5.3872    1.0101    0.1103 C   0  0  0  0  0  0  0  0  0  0  0  0
   -5.1398   -0.3698    0.0313 N   0  0  0  0  0  0  0  0  0  0  0  0
   -5.9942   -1.3891   -0.3168 C   0  0  0  0  0  0  0  0  0  0  0  0
   -5.3221   -2.5824   -0.1719 C   0  0  0  0  0  0  0  0  0  0  0  0
   -4.0125   -2.2738    0.2633 C   0  0  0  0  0  0  0  0  0  0  0  0
   -3.9036   -0.8956    0.3437 C   0  0  0  0  0  0  0  0  0  0  0  0
   -0.8776   -1.5343    0.2113 C   0  0  0  0  0  0  0  0  0  0  0  0
    0.5770   -1.1704   -0.1628 C   0  0  0  0  0  0  0  0  0  0  0  0
    7.9132   -0.6585   -2.1944 H   0  0  0  0  0  0  0  0  0  0  0  0
    8.2815    1.6697   -1.4823 H   0  0  0  0  0  0  0  0  0  0  0  0
    6.4962    2.9003   -0.2849 H   0  0  0  0  0  0  0  0  0  0  0  0
    4.3648    1.8271    0.2131 H   0  0  0  0  0  0  0  0  0  0  0  0
    3.7602   -1.7949   -0.0490 H   0  0  0  0  0  0  0  0  0  0  0  0
    3.0151   -0.8485   -1.3504 H   0  0  0  0  0  0  0  0  0  0  0  0
    2.3081    0.8737    0.3052 H   0  0  0  0  0  0  0  0  0  0  0  0
    3.2296    0.0413    1.5630 H   0  0  0  0  0  0  0  0  0  0  0  0
    1.3316    0.3096    2.7411 H   0  0  0  0  0  0  0  0  0  0  0  0
    0.4106   -1.1745    2.7869 H   0  0  0  0  0  0  0  0  0  0  0  0
   -1.0637    0.7903    2.6322 H   0  0  0  0  0  0  0  0  0  0  0  0
   -0.3205    1.2744    1.0958 H   0  0  0  0  0  0  0  0  0  0  0  0
   -3.6627    3.7977    0.9682 H   0  0  0  0  0  0  0  0  0  0  0  0
   -5.8547    4.8303    0.4391 H   0  0  0  0  0  0  0  0  0  0  0  0
   -7.7520    3.4133   -0.3037 H   0  0  0  0  0  0  0  0  0  0  0  0
   -7.4733    0.9769   -0.5158 H   0  0  0  0  0  0  0  0  0  0  0  0
   -7.0138   -1.2005   -0.6197 H   0  0  0  0  0  0  0  0  0  0  0  0
   -5.7354   -3.5673   -0.3479 H   0  0  0  0  0  0  0  0  0  0  0  0
   -3.2361   -2.9893    0.4957 H   0  0  0  0  0  0  0  0  0  0  0  0
   -0.8898   -2.4669    0.7871 H   0  0  0  0  0  0  0  0  0  0  0  0
   -1.4237   -1.7067   -0.7230 H   0  0  0  0  0  0  0  0  0  0  0  0
    0.5439   -0.2765   -0.8010 H   0  0  0  0  0  0  0  0  0  0  0  0
    0.9935   -1.9865   -0.7643 H   0  0  0  0  0  0  0  0  0  0  0  0
  1  2  1  0
  2  3  1  0
  2  4  1  0
  2  5  1  0
  5  6  2  0
  6  7  1  0
  7  8  2  0
  8  9  1  0
  9 10  2  0
 10 11  1  0
 11 12  1  0
 12 13  1  0
 13 14  1  0
 14 15  1  0
 15 16  1  0
 16 17  1  0
 17 18  2  0
 18 19  1  0
 19 20  2  0
 20 21  1  0
 21 22  2  0
 22 23  1  0
 23 24  2  0
 24 25  1  0
 25 26  1  0
 26 27  2  0
 27 28  1  0
 28 29  2  0
 16 30  1  0
 30 31  1  0
 10  5  1  0
 31 13  1  0
 29 17  1  0
 24 19  1  0
 29 25  1  0
  6 32  1  0
  7 33  1  0
  8 34  1  0
  9 35  1  0
 11 36  1  0
 11 37  1  0
 12 38  1  0
 12 39  1  0
 14 40  1  0
 14 41  1  0
 15 42  1  0
 15 43  1  0
 20 44  1  0
 21 45  1  0
 22 46  1  0
 23 47  1  0
 26 48  1  0
 27 49  1  0
 28 50  1  0
 30 51  1  0
 30 52  1  0
 31 53  1  0
 31 54  1  0
M  END
$$$$
