
     RDKit          3D

 50 53  0  0  0  0  0  0  0  0999 V2000
   -1.1694    2.4647   -1.7099 C   0  0  0  0  0  0  0  0  0  0  0  0
   -2.3805    1.9918   -1.0673 N   0  0  0  0  0  0  0  0  0  0  0  0
   -3.1645    2.7688   -0.2567 C   0  0  0  0  0  0  0  0  0  0  0  0
   -4.2305    2.0136    0.1685 C   0  0  0  0  0  0  0  0  0  0  0  0
   -4.0875    0.7358   -0.4056 C   0  0  0  0  0  0  0  0  0  0  0  0
   -2.9318    0.7327   -1.1696 C   0  0  0  0  0  0  0  0  0  0  0  0
   -2.3285   -0.3834   -1.9723 C   0  0  0  0  0  0  0  0  0  0  0  0
   -1.0708   -0.9177   -1.3677 C   0  0  0  0  0  0  0  0  0  0  0  0
    0.1389   -0.7034   -1.8560 N   0  0  0  0  0  0  0  0  0  0  0  0
    1.0491   -1.2239   -0.9861 N   0  0  0  0  0  0  0  0  0  0  0  0
    0.3961   -1.7374    0.0313 C   0  0  0  0  0  0  0  0  0  0  0  0
    1.1440   -2.6280    1.3244 S   0  0  0  0  0  0  0  0  0  0  0  0
    2.8837   -2.6358    0.7986 C   0  0  0  0  0  0  0  0  0  0  0  0
    3.5704   -1.3247    1.1701 C   0  0  0  0  0  0  0  0  0  0  0  0
    4.1605   -1.2030    2.2421 O   0  0  0  0  0  0  0  0  0  0  0  0
    3.4478   -0.3528    0.1915 N   0  0  0  0  0  0  0  0  0  0  0  0
    4.0698    0.9118    0.1535 C   0  0  0  0  0  0  0  0  0  0  0  0
    3.6638    1.7924   -0.8568 C   0  0  0  0  0  0  0  0  0  0  0  0
    4.2556    3.0551   -0.9807 C   0  0  0  0  0  0  0  0  0  0  0  0
    5.2689    3.4414   -0.1032 C   0  0  0  0  0  0  0  0  0  0  0  0
    5.6762    2.5736    0.9045 C   0  0  0  0  0  0  0  0  0  0  0  0
    5.0762    1.3160    1.0390 C   0  0  0  0  0  0  0  0  0  0  0  0
   -0.9676   -1.5905   -0.1541 N   0  0  0  0  0  0  0  0  0  0  0  0
   -2.0194   -2.0298    0.6869 C   0  0  0  0  0  0  0  0  0  0  0  0
   -3.0743   -2.7835    0.1501 C   0  0  0  0  0  0  0  0  0  0  0  0
   -4.1007   -3.2228    0.9868 C   0  0  0  0  0  0  0  0  0  0  0  0
   -4.0674   -2.9050    2.3443 C   0  0  0  0  0  0  0  0  0  0  0  0
   -5.0536   -3.3343    3.1418 F   0  0  0  0  0  0  0  0  0  0  0  0
   -3.0273   -2.1554    2.8844 C   0  0  0  0  0  0  0  0  0  0  0  0
   -1.9917   -1.7214    2.0577 C   0  0  0  0  0  0  0  0  0  0  0  0
   -1.1408    3.5554   -1.6638 H   0  0  0  0  0  0  0  0  0  0  0  0
   -1.1740    2.1513   -2.7556 H   0  0  0  0  0  0  0  0  0  0  0  0
   -0.3131    2.0570   -1.1691 H   0  0  0  0  0  0  0  0  0  0  0  0
   -2.8981    3.8000   -0.0403 H   0  0  0  0  0  0  0  0  0  0  0  0
   -5.0239    2.3457    0.8244 H   0  0  0  0  0  0  0  0  0  0  0  0
   -4.7547   -0.1088   -0.2679 H   0  0  0  0  0  0  0  0  0  0  0  0
   -2.1103   -0.0163   -2.9812 H   0  0  0  0  0  0  0  0  0  0  0  0
   -3.0610   -1.1871   -2.1173 H   0  0  0  0  0  0  0  0  0  0  0  0
    3.4008   -3.4503    1.3191 H   0  0  0  0  0  0  0  0  0  0  0  0
    2.9889   -2.8391   -0.2769 H   0  0  0  0  0  0  0  0  0  0  0  0
    2.7490   -0.5266   -0.5344 H   0  0  0  0  0  0  0  0  0  0  0  0
    2.8812    1.5079   -1.5551 H   0  0  0  0  0  0  0  0  0  0  0  0
    3.9312    3.7325   -1.7670 H   0  0  0  0  0  0  0  0  0  0  0  0
    5.7378    4.4224   -0.1985 H   0  0  0  0  0  0  0  0  0  0  0  0
    6.4639    2.8712    1.5931 H   0  0  0  0  0  0  0  0  0  0  0  0
    5.4283    0.6708    1.8360 H   0  0  0  0  0  0  0  0  0  0  0  0
   -3.0929   -3.0768   -0.8971 H   0  0  0  0  0  0  0  0  0  0  0  0
   -4.9228   -3.8225    0.5944 H   0  0  0  0  0  0  0  0  0  0  0  0
   -3.0271   -1.9156    3.9453 H   0  0  0  0  0  0  0  0  0  0  0  0
   -1.1982   -1.1159    2.4942 H   0  0  0  0  0  0  0  0  0  0  0  0
  1  2  1  0
  2  3  1  0
  3  4  2  0
  4  5  1  0
  5  6  2  0
  6  7  1  0
  7  8  1  0
  8  9  2  0
  9 10  1  0
 10 11  2  0
 11 12  1  0
 12 13  1  0
 13 14  1  0
 14 15  2  0
 14 16  1  0
 16 17  1  0
 17 18  2  0
 18 19  1  0
 19 20  2  0
 20 21  1  0
 21 22  2  0
 11 23  1  0
 23 24  1  0
 24 25  2  0
 25 26  1  0
 26 27  2  0
 27 28  1  0
 27 29  1  0
 29 30  2  0
  6  2  1  0
 23  8  1  0
 30 24  1  0
 22 17  1  0
  1 31  1  0
  1 32  1  0
  1 33  1  0
  3 34  1  0
  4 35  1  0
  5 36  1  0
  7 37  1  0
  7 38  1  0
 13 39  1  0
 13 40  1  0
 16 41  1  0
 18 42  1  0
 19 43  1  0
 20 44  1  0
 21 45  1  0
 22 46  1  0
 25 47  1  0
 26 48  1  0
 29 49  1  0
 30 50  1  0
M  END
$$$$
