
     RDKit          3D

 46 47  0  0  0  0  0  0  0  0999 V2000
    3.1758    4.6531    1.0585 C   0  0  0  0  0  0  0  0  0  0  0  0
    3.4583    3.6827   -0.0610 C   0  0  0  0  0  0  0  0  0  0  0  0
    4.2653    3.9575   -0.9417 O   0  0  0  0  0  0  0  0  0  0  0  0
    2.7008    2.5341    0.0400 N   0  0  0  0  0  0  0  0  0  0  0  0
    2.6870    1.4213   -0.8290 C   0  0  0  0  0  0  0  0  0  0  0  0
    3.4801    1.3142   -1.9717 C   0  0  0  0  0  0  0  0  0  0  0  0
    3.3890    0.1839   -2.7907 C   0  0  0  0  0  0  0  0  0  0  0  0
    2.4997   -0.8433   -2.4795 C   0  0  0  0  0  0  0  0  0  0  0  0
    1.7041   -0.7520   -1.3393 C   0  0  0  0  0  0  0  0  0  0  0  0
    1.8168    0.3639   -0.5049 C   0  0  0  0  0  0  0  0  0  0  0  0
    1.0228    0.5104    0.6093 O   0  0  0  0  0  0  0  0  0  0  0  0
    1.1510   -0.5614    1.5588 C   0  0  0  0  0  0  0  0  0  0  0  0
    1.9673   -0.0575    2.7431 C   0  0  0  0  0  0  0  0  0  0  0  0
   -0.2552   -0.9935    2.0086 C   0  0  0  0  0  0  0  0  0  0  0  0
   -0.5161   -1.3704    3.1473 O   0  0  0  0  0  0  0  0  0  0  0  0
   -1.1834   -0.9869    0.9877 N   0  0  0  0  0  0  0  0  0  0  0  0
   -2.5827   -1.3018    1.2091 C   0  0  0  0  0  0  0  0  0  0  0  0
   -3.3188   -0.1348    1.8734 C   0  0  0  0  0  0  0  0  0  0  0  0
   -3.2130   -1.7214   -0.1083 C   0  0  0  0  0  0  0  0  0  0  0  0
   -3.4891   -3.0804   -0.3421 C   0  0  0  0  0  0  0  0  0  0  0  0
   -4.0460   -3.4960   -1.5530 C   0  0  0  0  0  0  0  0  0  0  0  0
   -4.3220   -2.5572   -2.5382 C   0  0  0  0  0  0  0  0  0  0  0  0
   -4.8539   -2.9566   -3.7007 F   0  0  0  0  0  0  0  0  0  0  0  0
   -4.0493   -1.2104   -2.3372 C   0  0  0  0  0  0  0  0  0  0  0  0
   -3.4926   -0.7921   -1.1267 C   0  0  0  0  0  0  0  0  0  0  0  0
    2.9902    4.1241    1.9979 H   0  0  0  0  0  0  0  0  0  0  0  0
    2.3040    5.2597    0.7998 H   0  0  0  0  0  0  0  0  0  0  0  0
    4.0429    5.3043    1.2021 H   0  0  0  0  0  0  0  0  0  0  0  0
    2.0475    2.4634    0.8128 H   0  0  0  0  0  0  0  0  0  0  0  0
    4.1761    2.0963   -2.2588 H   0  0  0  0  0  0  0  0  0  0  0  0
    4.0101    0.1151   -3.6811 H   0  0  0  0  0  0  0  0  0  0  0  0
    2.4234   -1.7105   -3.1311 H   0  0  0  0  0  0  0  0  0  0  0  0
    0.9985   -1.5488   -1.1237 H   0  0  0  0  0  0  0  0  0  0  0  0
    1.6391   -1.4525    1.1443 H   0  0  0  0  0  0  0  0  0  0  0  0
    2.0874   -0.8327    3.5064 H   0  0  0  0  0  0  0  0  0  0  0  0
    1.4855    0.8099    3.2084 H   0  0  0  0  0  0  0  0  0  0  0  0
    2.9613    0.2663    2.4173 H   0  0  0  0  0  0  0  0  0  0  0  0
   -0.9404   -0.4558    0.1588 H   0  0  0  0  0  0  0  0  0  0  0  0
   -2.6241   -2.1462    1.9093 H   0  0  0  0  0  0  0  0  0  0  0  0
   -3.2281    0.7909    1.2945 H   0  0  0  0  0  0  0  0  0  0  0  0
   -2.9063    0.0702    2.8673 H   0  0  0  0  0  0  0  0  0  0  0  0
   -4.3846   -0.3588    1.9919 H   0  0  0  0  0  0  0  0  0  0  0  0
   -3.2690   -3.8257    0.4202 H   0  0  0  0  0  0  0  0  0  0  0  0
   -4.2629   -4.5440   -1.7335 H   0  0  0  0  0  0  0  0  0  0  0  0
   -4.2693   -0.4955   -3.1238 H   0  0  0  0  0  0  0  0  0  0  0  0
   -3.2772    0.2651   -0.9895 H   0  0  0  0  0  0  0  0  0  0  0  0
  1  2  1  0
  2  3  2  0
  2  4  1  0
  4  5  1  0
  5  6  2  0
  6  7  1  0
  7  8  2  0
  8  9  1  0
  9 10  2  0
 10 11  1  0
 11 12  1  0
 12 13  1  0
 12 14  1  0
 14 15  2  0
 14 16  1  0
 16 17  1  0
 17 18  1  0
 17 19  1  0
 19 20  2  0
 20 21  1  0
 21 22  2  0
 22 23  1  0
 22 24  1  0
 24 25  2  0
 10  5  1  0
 25 19  1  0
  1 26  1  0
  1 27  1  0
  1 28  1  0
  4 29  1  0
  6 30  1  0
  7 31  1  0
  8 32  1  0
  9 33  1  0
 12 34  1  0
 13 35  1  0
 13 36  1  0
 13 37  1  0
 16 38  1  0
 17 39  1  0
 18 40  1  0
 18 41  1  0
 18 42  1  0
 20 43  1  0
 21 44  1  0
 24 45  1  0
 25 46  1  0
M  END
$$$$
