
     RDKit          3D

 51 55  0  0  0  0  0  0  0  0999 V2000
    2.5934   -0.4193    1.5377 O   0  0  0  0  0  0  0  0  0  0  0  0
    1.7273   -0.3900    0.6660 C   0  0  0  0  0  0  0  0  0  0  0  0
    0.6189   -1.4434    0.5874 C   0  0  0  0  0  0  0  0  0  0  0  0
   -0.7188   -0.8707    0.7813 N   0  0  0  0  0  0  0  0  0  0  0  0
   -1.3229   -0.2434   -0.3027 C   0  0  0  0  0  0  0  0  0  0  0  0
   -0.8016   -0.2148   -1.4223 O   0  0  0  0  0  0  0  0  0  0  0  0
   -2.6101    0.5026   -0.0543 C   0  0  0  0  0  0  0  0  0  0  0  0
   -3.8101   -0.4204   -0.1714 C   0  0  0  0  0  0  0  0  0  0  0  0
   -5.0897    0.2941    0.1294 C   0  0  0  0  0  0  0  0  0  0  0  0
   -6.3157    0.3349   -0.5051 C   0  0  0  0  0  0  0  0  0  0  0  0
   -7.1380    1.1918    0.2652 C   0  0  0  0  0  0  0  0  0  0  0  0
   -6.3654    1.6200    1.3184 C   0  0  0  0  0  0  0  0  0  0  0  0
   -5.1216    1.0828    1.2446 O   0  0  0  0  0  0  0  0  0  0  0  0
   -3.7152   -1.9532    0.8288 S   0  0  0  0  0  0  0  0  0  0  0  0
   -2.6970   -1.4090    2.1981 C   0  0  0  0  0  0  0  0  0  0  0  0
   -3.2586   -1.5333    3.4780 C   0  0  0  0  0  0  0  0  0  0  0  0
   -2.4948   -1.2886    4.6179 C   0  0  0  0  0  0  0  0  0  0  0  0
   -1.1554   -0.9402    4.4895 C   0  0  0  0  0  0  0  0  0  0  0  0
   -0.5814   -0.8206    3.2218 C   0  0  0  0  0  0  0  0  0  0  0  0
   -1.3426   -1.0306    2.0593 C   0  0  0  0  0  0  0  0  0  0  0  0
    1.6853    0.5589   -0.3305 N   0  0  0  0  0  0  0  0  0  0  0  0
    2.7323    1.5323   -0.5172 C   0  0  0  0  0  0  0  0  0  0  0  0
    3.6996    1.0757   -1.5796 C   0  0  0  0  0  0  0  0  0  0  0  0
    3.4920    1.4268   -2.9341 C   0  0  0  0  0  0  0  0  0  0  0  0
    4.3656    0.9860   -3.9335 C   0  0  0  0  0  0  0  0  0  0  0  0
    5.4262    0.1932   -3.5538 C   0  0  0  0  0  0  0  0  0  0  0  0
    5.6309   -0.1628   -2.2417 C   0  0  0  0  0  0  0  0  0  0  0  0
    4.7882    0.2568   -1.2345 C   0  0  0  0  0  0  0  0  0  0  0  0
    6.7259   -0.9537   -2.0837 O   0  0  0  0  0  0  0  0  0  0  0  0
    7.1830   -1.0588   -3.4475 C   0  0  0  0  0  0  0  0  0  0  0  0
    6.3674   -0.3271   -4.3861 O   0  0  0  0  0  0  0  0  0  0  0  0
    0.6719   -1.9192   -0.3996 H   0  0  0  0  0  0  0  0  0  0  0  0
    0.8121   -2.2308    1.3250 H   0  0  0  0  0  0  0  0  0  0  0  0
   -2.5590    1.0337    0.9038 H   0  0  0  0  0  0  0  0  0  0  0  0
   -2.6814    1.3002   -0.8066 H   0  0  0  0  0  0  0  0  0  0  0  0
   -3.8645   -0.7716   -1.2101 H   0  0  0  0  0  0  0  0  0  0  0  0
   -6.5831   -0.1955   -1.4089 H   0  0  0  0  0  0  0  0  0  0  0  0
   -8.1680    1.4614    0.0788 H   0  0  0  0  0  0  0  0  0  0  0  0
   -6.5434    2.2728    2.1618 H   0  0  0  0  0  0  0  0  0  0  0  0
   -4.2961   -1.8401    3.5963 H   0  0  0  0  0  0  0  0  0  0  0  0
   -2.9422   -1.3870    5.6038 H   0  0  0  0  0  0  0  0  0  0  0  0
   -0.5527   -0.7569    5.3760 H   0  0  0  0  0  0  0  0  0  0  0  0
    0.4632   -0.5234    3.1672 H   0  0  0  0  0  0  0  0  0  0  0  0
    1.0222    0.4163   -1.0915 H   0  0  0  0  0  0  0  0  0  0  0  0
    2.2569    2.4732   -0.8154 H   0  0  0  0  0  0  0  0  0  0  0  0
    3.2590    1.7195    0.4257 H   0  0  0  0  0  0  0  0  0  0  0  0
    2.6405    2.0449   -3.2127 H   0  0  0  0  0  0  0  0  0  0  0  0
    4.2119    1.2530   -4.9728 H   0  0  0  0  0  0  0  0  0  0  0  0
    4.9619   -0.0479   -0.2067 H   0  0  0  0  0  0  0  0  0  0  0  0
    7.1845   -2.1162   -3.7359 H   0  0  0  0  0  0  0  0  0  0  0  0
    8.2091   -0.6780   -3.5039 H   0  0  0  0  0  0  0  0  0  0  0  0
  1  2  2  0
  2  3  1  0
  3  4  1  0
  4  5  1  0
  5  6  2  0
  5  7  1  0
  7  8  1  0
  8  9  1  0
  9 10  2  0
 10 11  1  0
 11 12  2  0
 12 13  1  0
  8 14  1  0
 14 15  1  0
 15 16  2  0
 16 17  1  0
 17 18  2  0
 18 19  1  0
 19 20  2  0
  2 21  1  0
 21 22  1  0
 22 23  1  0
 23 24  2  0
 24 25  1  0
 25 26  2  0
 26 27  1  0
 27 28  2  0
 27 29  1  0
 29 30  1  0
 30 31  1  0
 20  4  1  0
 28 23  1  0
 13  9  1  0
 20 15  1  0
 31 26  1  0
  3 32  1  0
  3 33  1  0
  7 34  1  0
  7 35  1  0
  8 36  1  0
 10 37  1  0
 11 38  1  0
 12 39  1  0
 16 40  1  0
 17 41  1  0
 18 42  1  0
 19 43  1  0
 21 44  1  0
 22 45  1  0
 22 46  1  0
 24 47  1  0
 25 48  1  0
 28 49  1  0
 30 50  1  0
 30 51  1  0
M  END
$$$$
