
     RDKit          3D

 61 67  0  0  0  0  0  0  0  0999 V2000
    3.6411   -1.2309   -2.7083 O   0  0  0  0  0  0  0  0  0  0  0  0
    3.3183   -0.6247   -1.6896 C   0  0  0  0  0  0  0  0  0  0  0  0
    4.3336    0.2531   -1.0662 C   0  0  0  0  0  0  0  0  0  0  0  0
    4.0441    1.6134   -0.8211 C   0  0  0  0  0  0  0  0  0  0  0  0
    5.0137    2.4485   -0.2590 C   0  0  0  0  0  0  0  0  0  0  0  0
    6.2459    1.8967    0.0241 C   0  0  0  0  0  0  0  0  0  0  0  0
    6.5311    0.5750   -0.2364 C   0  0  0  0  0  0  0  0  0  0  0  0
    5.5998   -0.2757   -0.7902 C   0  0  0  0  0  0  0  0  0  0  0  0
    7.8033    0.2422    0.1104 O   0  0  0  0  0  0  0  0  0  0  0  0
    8.2913    1.5060    0.6067 C   0  0  0  0  0  0  0  0  0  0  0  0
    7.3033    2.5574    0.5668 O   0  0  0  0  0  0  0  0  0  0  0  0
    2.0407   -0.6964   -1.1164 N   0  0  0  0  0  0  0  0  0  0  0  0
    1.8418   -0.5680    0.3278 C   0  0  0  0  0  0  0  0  0  0  0  0
    0.4187   -0.1225    0.6563 C   0  0  0  0  0  0  0  0  0  0  0  0
   -0.6475   -1.0463    0.0104 C   0  0  0  0  0  0  0  0  0  0  0  0
   -0.3558   -1.1471   -1.5058 C   0  0  0  0  0  0  0  0  0  0  0  0
    1.0838   -1.5656   -1.7913 C   0  0  0  0  0  0  0  0  0  0  0  0
   -0.4053   -2.3397    0.6241 O   0  0  0  0  0  0  0  0  0  0  0  0
   -1.4027   -3.2663    0.5760 C   0  0  0  0  0  0  0  0  0  0  0  0
   -1.0443   -4.5695    0.9263 C   0  0  0  0  0  0  0  0  0  0  0  0
   -1.9954   -5.5905    0.8861 C   0  0  0  0  0  0  0  0  0  0  0  0
   -3.2995   -5.3001    0.4985 C   0  0  0  0  0  0  0  0  0  0  0  0
   -4.2076   -6.2830    0.4566 F   0  0  0  0  0  0  0  0  0  0  0  0
   -3.6735   -4.0073    0.1577 C   0  0  0  0  0  0  0  0  0  0  0  0
   -2.7166   -2.9903    0.2105 C   0  0  0  0  0  0  0  0  0  0  0  0
   -3.0791   -1.6076   -0.1258 C   0  0  0  0  0  0  0  0  0  0  0  0
   -4.1264   -1.3841   -0.7274 O   0  0  0  0  0  0  0  0  0  0  0  0
   -2.0863   -0.5324    0.3024 C   0  0  0  0  0  0  0  0  0  0  0  0
   -2.4405    0.8136   -0.3151 C   0  0  0  0  0  0  0  0  0  0  0  0
   -3.2069    1.3980    0.8223 C   0  0  0  0  0  0  0  0  0  0  0  0
   -4.0189    2.6294    0.6740 C   0  0  0  0  0  0  0  0  0  0  0  0
   -4.0631    3.3385   -0.5319 C   0  0  0  0  0  0  0  0  0  0  0  0
   -4.8360    4.4986   -0.6338 C   0  0  0  0  0  0  0  0  0  0  0  0
   -5.5640    4.9547    0.4643 C   0  0  0  0  0  0  0  0  0  0  0  0
   -5.5224    4.2535    1.6677 C   0  0  0  0  0  0  0  0  0  0  0  0
   -4.7519    3.0940    1.7736 C   0  0  0  0  0  0  0  0  0  0  0  0
   -3.0749    0.7689    1.9466 N   0  0  0  0  0  0  0  0  0  0  0  0
   -2.2480   -0.3513    1.7196 O   0  0  0  0  0  0  0  0  0  0  0  0
    3.0678    2.0173   -1.0784 H   0  0  0  0  0  0  0  0  0  0  0  0
    4.8116    3.4952   -0.0604 H   0  0  0  0  0  0  0  0  0  0  0  0
    5.8408   -1.3105   -1.0074 H   0  0  0  0  0  0  0  0  0  0  0  0
    8.6185    1.3722    1.6442 H   0  0  0  0  0  0  0  0  0  0  0  0
    9.1533    1.8113    0.0023 H   0  0  0  0  0  0  0  0  0  0  0  0
    2.0656   -1.5436    0.7768 H   0  0  0  0  0  0  0  0  0  0  0  0
    2.5474    0.1384    0.7699 H   0  0  0  0  0  0  0  0  0  0  0  0
    0.2987    0.9107    0.3146 H   0  0  0  0  0  0  0  0  0  0  0  0
    0.3123   -0.1219    1.7479 H   0  0  0  0  0  0  0  0  0  0  0  0
   -1.0196   -1.8743   -1.9870 H   0  0  0  0  0  0  0  0  0  0  0  0
   -0.5371   -0.1780   -1.9863 H   0  0  0  0  0  0  0  0  0  0  0  0
    1.2720   -2.5952   -1.4638 H   0  0  0  0  0  0  0  0  0  0  0  0
    1.2521   -1.5359   -2.8741 H   0  0  0  0  0  0  0  0  0  0  0  0
   -0.0227   -4.7928    1.2247 H   0  0  0  0  0  0  0  0  0  0  0  0
   -1.7279   -6.6087    1.1525 H   0  0  0  0  0  0  0  0  0  0  0  0
   -4.6996   -3.8021   -0.1335 H   0  0  0  0  0  0  0  0  0  0  0  0
   -1.5767    1.4561   -0.5018 H   0  0  0  0  0  0  0  0  0  0  0  0
   -3.0319    0.7427   -1.2307 H   0  0  0  0  0  0  0  0  0  0  0  0
   -3.5084    3.0122   -1.4060 H   0  0  0  0  0  0  0  0  0  0  0  0
   -4.8724    5.0471   -1.5721 H   0  0  0  0  0  0  0  0  0  0  0  0
   -6.1661    5.8564    0.3820 H   0  0  0  0  0  0  0  0  0  0  0  0
   -6.0908    4.6063    2.5248 H   0  0  0  0  0  0  0  0  0  0  0  0
   -4.7307    2.5552    2.7190 H   0  0  0  0  0  0  0  0  0  0  0  0
  1  2  2  0
  2  3  1  0
  3  4  2  0
  4  5  1  0
  5  6  2  0
  6  7  1  0
  7  8  2  0
  7  9  1  0
  9 10  1  0
 10 11  1  0
  2 12  1  0
 12 13  1  0
 13 14  1  0
 14 15  1  0
 15 16  1  0
 16 17  1  0
 15 18  1  0
 18 19  1  0
 19 20  2  0
 20 21  1  0
 21 22  2  0
 22 23  1  0
 22 24  1  0
 24 25  2  0
 25 26  1  0
 26 27  2  0
 26 28  1  0
 28 29  1  0
 29 30  1  0
 30 31  1  0
 31 32  2  0
 32 33  1  0
 33 34  2  0
 34 35  1  0
 35 36  2  0
 30 37  2  0
 37 38  1  0
  8  3  1  0
 17 12  1  0
 25 19  1  0
 38 28  1  0
 11  6  1  0
 28 15  1  0
 36 31  1  0
  4 39  1  0
  5 40  1  0
  8 41  1  0
 10 42  1  0
 10 43  1  0
 13 44  1  0
 13 45  1  0
 14 46  1  0
 14 47  1  0
 16 48  1  0
 16 49  1  0
 17 50  1  0
 17 51  1  0
 20 52  1  0
 21 53  1  0
 24 54  1  0
 29 55  1  0
 29 56  1  0
 32 57  1  0
 33 58  1  0
 34 59  1  0
 35 60  1  0
 36 61  1  0
M  END
$$$$
