
     RDKit          3D

 40 42  0  0  0  0  0  0  0  0999 V2000
   -5.9162    1.2211    0.6659 C   0  0  0  0  0  0  0  0  0  0  0  0
   -5.6109   -0.2880    0.6610 C   0  0  0  0  0  0  0  0  0  0  0  0
   -5.6312   -0.8268    2.1033 C   0  0  0  0  0  0  0  0  0  0  0  0
   -6.7323   -0.9980   -0.1281 C   0  0  0  0  0  0  0  0  0  0  0  0
   -4.2657   -0.5617    0.0044 C   0  0  0  0  0  0  0  0  0  0  0  0
   -4.0920   -1.2973   -1.0780 N   0  0  0  0  0  0  0  0  0  0  0  0
   -2.7683   -1.3779   -1.4552 N   0  0  0  0  0  0  0  0  0  0  0  0
   -1.9811   -0.7027   -0.6495 C   0  0  0  0  0  0  0  0  0  0  0  0
   -0.6237   -0.6512   -0.8454 N   0  0  0  0  0  0  0  0  0  0  0  0
    0.3028    0.0215   -0.0709 C   0  0  0  0  0  0  0  0  0  0  0  0
    0.0635    0.6896    0.9287 O   0  0  0  0  0  0  0  0  0  0  0  0
    1.7260   -0.1638   -0.6177 C   0  0  0  0  0  0  0  0  0  0  0  0
    2.6811    0.5248    0.1732 O   0  0  0  0  0  0  0  0  0  0  0  0
    3.9928    0.4416   -0.2063 C   0  0  0  0  0  0  0  0  0  0  0  0
    4.4852   -0.2696   -1.3172 C   0  0  0  0  0  0  0  0  0  0  0  0
    5.8561   -0.2811   -1.6064 C   0  0  0  0  0  0  0  0  0  0  0  0
    6.6969    0.4220   -0.7723 C   0  0  0  0  0  0  0  0  0  0  0  0
    6.2204    1.1169    0.3122 C   0  0  0  0  0  0  0  0  0  0  0  0
    4.8772    1.1453    0.6200 C   0  0  0  0  0  0  0  0  0  0  0  0
    7.2107    1.7411    1.0040 O   0  0  0  0  0  0  0  0  0  0  0  0
    8.3658    1.3586    0.2294 C   0  0  0  0  0  0  0  0  0  0  0  0
    8.0465    0.5201   -0.9011 O   0  0  0  0  0  0  0  0  0  0  0  0
   -2.7880    0.0795    0.6249 S   0  0  0  0  0  0  0  0  0  0  0  0
   -6.9141    1.4206    1.0733 H   0  0  0  0  0  0  0  0  0  0  0  0
   -5.8801    1.6370   -0.3480 H   0  0  0  0  0  0  0  0  0  0  0  0
   -5.1998    1.7815    1.2770 H   0  0  0  0  0  0  0  0  0  0  0  0
   -4.9089   -0.3084    2.7439 H   0  0  0  0  0  0  0  0  0  0  0  0
   -5.3884   -1.8956    2.1315 H   0  0  0  0  0  0  0  0  0  0  0  0
   -6.6194   -0.6966    2.5593 H   0  0  0  0  0  0  0  0  0  0  0  0
   -6.5770   -2.0831   -0.1554 H   0  0  0  0  0  0  0  0  0  0  0  0
   -7.7136   -0.8162    0.3254 H   0  0  0  0  0  0  0  0  0  0  0  0
   -6.7772   -0.6445   -1.1652 H   0  0  0  0  0  0  0  0  0  0  0  0
   -0.3239   -1.1774   -1.6545 H   0  0  0  0  0  0  0  0  0  0  0  0
    1.9399   -1.2397   -0.6123 H   0  0  0  0  0  0  0  0  0  0  0  0
    1.7352    0.2275   -1.6424 H   0  0  0  0  0  0  0  0  0  0  0  0
    3.8280   -0.8251   -1.9777 H   0  0  0  0  0  0  0  0  0  0  0  0
    6.2469   -0.8252   -2.4590 H   0  0  0  0  0  0  0  0  0  0  0  0
    4.5158    1.6987    1.4801 H   0  0  0  0  0  0  0  0  0  0  0  0
    8.8593    2.2665   -0.1362 H   0  0  0  0  0  0  0  0  0  0  0  0
    9.0619    0.8181    0.8810 H   0  0  0  0  0  0  0  0  0  0  0  0
  1  2  1  0
  2  3  1  0
  2  4  1  0
  2  5  1  0
  5  6  2  0
  6  7  1  0
  7  8  2  0
  8  9  1  0
  9 10  1  0
 10 11  2  0
 10 12  1  0
 12 13  1  0
 13 14  1  0
 14 15  2  0
 15 16  1  0
 16 17  2  0
 17 18  1  0
 18 19  2  0
 18 20  1  0
 20 21  1  0
 21 22  1  0
  8 23  1  0
 23  5  1  0
 19 14  1  0
 22 17  1  0
  1 24  1  0
  1 25  1  0
  1 26  1  0
  3 27  1  0
  3 28  1  0
  3 29  1  0
  4 30  1  0
  4 31  1  0
  4 32  1  0
  9 33  1  0
 12 34  1  0
 12 35  1  0
 15 36  1  0
 16 37  1  0
 19 38  1  0
 21 39  1  0
 21 40  1  0
M  END
$$$$
