
     RDKit          3D

 59 61  0  0  0  0  0  0  0  0999 V2000
   -6.0065    0.2385   -3.2458 C   0  0  0  0  0  0  0  0  0  0  0  0
   -5.4203   -0.2257   -2.1313 C   0  0  0  0  0  0  0  0  0  0  0  0
   -4.0620   -0.9285   -2.0086 C   0  0  0  0  0  0  0  0  0  0  0  0
   -3.2853   -1.0688   -3.3467 C   0  0  0  0  0  0  0  0  0  0  0  0
   -4.4141   -2.3782   -1.5806 C   0  0  0  0  0  0  0  0  0  0  0  0
   -3.1789   -0.1752   -0.9811 C   0  0  0  0  0  0  0  0  0  0  0  0
   -2.7621   -0.7786    0.2251 C   0  0  0  0  0  0  0  0  0  0  0  0
   -1.9861   -0.1036    1.2072 C   0  0  0  0  0  0  0  0  0  0  0  0
   -1.6021   -0.8973    2.4518 C   0  0  2  0  0  0  0  0  0  0  0  0
   -1.2546   -0.1928    3.7613 C   0  0  0  0  0  0  0  0  0  0  0  0
    0.1856    0.2343    3.8181 C   0  0  0  0  0  0  0  0  0  0  0  0
    0.6043    1.0326    4.6584 O   0  0  0  0  0  0  0  0  0  0  0  0
    1.1213   -0.3730    2.8536 C   0  0  0  0  0  0  0  0  0  0  0  0
    0.6555   -1.4090    2.0471 C   0  0  0  0  0  0  0  0  0  0  0  0
    1.5171   -2.0307    1.1460 C   0  0  0  0  0  0  0  0  0  0  0  0
    2.8348   -1.5822    1.0254 C   0  0  0  0  0  0  0  0  0  0  0  0
    3.6650   -2.1867    0.1193 O   0  0  0  0  0  0  0  0  0  0  0  0
    3.3268   -0.5277    1.8145 C   0  0  0  0  0  0  0  0  0  0  0  0
    4.7461   -0.0216    1.6510 C   0  0  0  0  0  0  0  0  0  0  0  0
    4.8157    1.2419    0.8295 C   0  0  0  0  0  0  0  0  0  0  0  0
    5.2613    1.4010   -0.4322 C   0  0  0  0  0  0  0  0  0  0  0  0
    5.2602    2.7606   -1.0835 C   0  0  0  0  0  0  0  0  0  0  0  0
    5.7712    0.2976   -1.3154 C   0  0  0  0  0  0  0  0  0  0  0  0
    2.4517    0.0660    2.7423 C   0  0  0  0  0  0  0  0  0  0  0  0
    2.9381    1.0854    3.5305 O   0  0  0  0  0  0  0  0  0  0  0  0
   -0.6258   -1.8931    2.1019 O   0  0  0  0  0  0  0  0  0  0  0  0
   -1.6046    1.2083    0.9346 C   0  0  0  0  0  0  0  0  0  0  0  0
   -0.8393    1.8956    1.8302 O   0  0  0  0  0  0  0  0  0  0  0  0
   -1.9839    1.8333   -0.2590 C   0  0  0  0  0  0  0  0  0  0  0  0
   -2.7694    1.1513   -1.1902 C   0  0  0  0  0  0  0  0  0  0  0  0
   -3.1390    1.8045   -2.3358 O   0  0  0  0  0  0  0  0  0  0  0  0
   -5.5383    0.1618   -4.2215 H   0  0  0  0  0  0  0  0  0  0  0  0
   -6.9801    0.7228   -3.1947 H   0  0  0  0  0  0  0  0  0  0  0  0
   -5.9573   -0.0915   -1.1899 H   0  0  0  0  0  0  0  0  0  0  0  0
   -2.3100   -1.5498   -3.1852 H   0  0  0  0  0  0  0  0  0  0  0  0
   -3.8408   -1.6858   -4.0661 H   0  0  0  0  0  0  0  0  0  0  0  0
   -3.0919   -0.1108   -3.8386 H   0  0  0  0  0  0  0  0  0  0  0  0
   -5.0570   -2.8674   -2.3277 H   0  0  0  0  0  0  0  0  0  0  0  0
   -3.5138   -2.9967   -1.4760 H   0  0  0  0  0  0  0  0  0  0  0  0
   -4.9610   -2.4068   -0.6261 H   0  0  0  0  0  0  0  0  0  0  0  0
   -3.0349   -1.8120    0.4370 H   0  0  0  0  0  0  0  0  0  0  0  0
   -2.5088   -1.4695    2.6998 H   0  0  0  0  0  0  0  0  0  0  0  0
   -1.9054    0.6688    3.9343 H   0  0  0  0  0  0  0  0  0  0  0  0
   -1.3858   -0.8951    4.5932 H   0  0  0  0  0  0  0  0  0  0  0  0
    1.1426   -2.8431    0.5300 H   0  0  0  0  0  0  0  0  0  0  0  0
    3.1780   -2.8856   -0.3408 H   0  0  0  0  0  0  0  0  0  0  0  0
    5.1701    0.1889    2.6433 H   0  0  0  0  0  0  0  0  0  0  0  0
    5.3951   -0.8098    1.2495 H   0  0  0  0  0  0  0  0  0  0  0  0
    4.4564    2.1196    1.3610 H   0  0  0  0  0  0  0  0  0  0  0  0
    4.8600    3.5304   -0.4258 H   0  0  0  0  0  0  0  0  0  0  0  0
    6.2784    3.0552   -1.3614 H   0  0  0  0  0  0  0  0  0  0  0  0
    4.6424    2.7494   -1.9898 H   0  0  0  0  0  0  0  0  0  0  0  0
    5.7720   -0.6824   -0.8362 H   0  0  0  0  0  0  0  0  0  0  0  0
    5.1423    0.2210   -2.2112 H   0  0  0  0  0  0  0  0  0  0  0  0
    6.7980    0.5087   -1.6337 H   0  0  0  0  0  0  0  0  0  0  0  0
    2.2322    1.3390    4.1667 H   0  0  0  0  0  0  0  0  0  0  0  0
   -0.5814    2.7570    1.4559 H   0  0  0  0  0  0  0  0  0  0  0  0
   -1.6704    2.8506   -0.4617 H   0  0  0  0  0  0  0  0  0  0  0  0
   -2.9513    2.7545   -2.2404 H   0  0  0  0  0  0  0  0  0  0  0  0
  1  2  2  0
  2  3  1  0
  3  4  1  0
  3  5  1  0
  3  6  1  0
  6  7  2  0
  7  8  1  0
  8  9  1  0
  9 10  1  0
 10 11  1  0
 11 12  2  0
 11 13  1  0
 13 14  2  0
 14 15  1  0
 15 16  2  0
 16 17  1  0
 16 18  1  0
 18 19  1  0
 19 20  1  0
 20 21  2  3
 21 22  1  0
 21 23  1  0
 18 24  2  0
 24 25  1  0
 14 26  1  0
  8 27  2  0
 27 28  1  0
 27 29  1  0
 29 30  2  0
 30 31  1  0
 30  6  1  0
 26  9  1  0
 24 13  1  0
  1 32  1  0
  1 33  1  0
  2 34  1  0
  4 35  1  0
  4 36  1  0
  4 37  1  0
  5 38  1  0
  5 39  1  0
  5 40  1  0
  7 41  1  0
  9 42  1  1
 10 43  1  0
 10 44  1  0
 15 45  1  0
 17 46  1  0
 19 47  1  0
 19 48  1  0
 20 49  1  0
 22 50  1  0
 22 51  1  0
 22 52  1  0
 23 53  1  0
 23 54  1  0
 23 55  1  0
 25 56  1  0
 28 57  1  0
 29 58  1  0
 31 59  1  0
M  END
$$$$
