
     RDKit          3D

 42 41  0  0  0  0  0  0  0  0999 V2000
   -3.3335    1.1450   -0.5866 C   0  0  0  0  0  0  0  0  0  0  0  0
   -2.6348    0.9395    0.7273 C   0  0  0  0  0  0  0  0  0  0  0  0
   -2.2186    2.2176    1.4066 C   0  0  0  0  0  0  0  0  0  0  0  0
   -2.3661   -0.2532    1.2933 C   0  0  0  0  0  0  0  0  0  0  0  0
   -2.7020   -1.6282    0.7785 C   0  0  0  0  0  0  0  0  0  0  0  0
   -1.4587   -2.4649    0.4334 C   0  0  0  0  0  0  0  0  0  0  0  0
   -0.6688   -1.9596   -0.7596 C   0  0  0  0  0  0  0  0  0  0  0  0
   -1.3466   -2.1400   -2.0946 C   0  0  0  0  0  0  0  0  0  0  0  0
    0.5607   -1.4078   -0.7024 C   0  0  0  0  0  0  0  0  0  0  0  0
    1.4283   -1.1680    0.5052 C   0  0  0  0  0  0  0  0  0  0  0  0
    1.5499    0.3123    0.9033 C   0  0  0  0  0  0  0  0  0  0  0  0
    2.2367    1.1948   -0.1219 C   0  0  0  0  0  0  0  0  0  0  0  0
    1.3178    2.0512   -0.9554 C   0  0  0  0  0  0  0  0  0  0  0  0
    3.5728    1.2662   -0.2877 C   0  0  0  0  0  0  0  0  0  0  0  0
    4.6263    0.5125    0.4577 C   0  0  0  0  0  0  0  0  0  0  0  0
    5.3644   -0.2661   -0.4701 O   0  0  0  0  0  0  0  0  0  0  0  0
   -2.6722    1.6689   -1.2829 H   0  0  0  0  0  0  0  0  0  0  0  0
   -3.6431    0.2176   -1.0692 H   0  0  0  0  0  0  0  0  0  0  0  0
   -4.2325    1.7521   -0.4432 H   0  0  0  0  0  0  0  0  0  0  0  0
   -1.5455    2.7884    0.7611 H   0  0  0  0  0  0  0  0  0  0  0  0
   -1.6957    2.0366    2.3511 H   0  0  0  0  0  0  0  0  0  0  0  0
   -3.0965    2.8318    1.6246 H   0  0  0  0  0  0  0  0  0  0  0  0
   -1.8434   -0.2613    2.2499 H   0  0  0  0  0  0  0  0  0  0  0  0
   -3.2522   -2.1466    1.5750 H   0  0  0  0  0  0  0  0  0  0  0  0
   -3.3873   -1.5993   -0.0729 H   0  0  0  0  0  0  0  0  0  0  0  0
   -1.7816   -3.4909    0.2153 H   0  0  0  0  0  0  0  0  0  0  0  0
   -0.8313   -2.5520    1.3254 H   0  0  0  0  0  0  0  0  0  0  0  0
   -1.5983   -3.1951   -2.2522 H   0  0  0  0  0  0  0  0  0  0  0  0
   -2.2661   -1.5506   -2.1480 H   0  0  0  0  0  0  0  0  0  0  0  0
   -0.7084   -1.8299   -2.9287 H   0  0  0  0  0  0  0  0  0  0  0  0
    1.0209   -1.0867   -1.6378 H   0  0  0  0  0  0  0  0  0  0  0  0
    1.0701   -1.7292    1.3734 H   0  0  0  0  0  0  0  0  0  0  0  0
    2.4222   -1.5789    0.2869 H   0  0  0  0  0  0  0  0  0  0  0  0
    0.5562    0.7184    1.1276 H   0  0  0  0  0  0  0  0  0  0  0  0
    2.0976    0.3760    1.8532 H   0  0  0  0  0  0  0  0  0  0  0  0
    1.8488    2.5590   -1.7672 H   0  0  0  0  0  0  0  0  0  0  0  0
    0.8514    2.8179   -0.3296 H   0  0  0  0  0  0  0  0  0  0  0  0
    0.5297    1.4491   -1.4109 H   0  0  0  0  0  0  0  0  0  0  0  0
    3.9714    1.9484   -1.0378 H   0  0  0  0  0  0  0  0  0  0  0  0
    5.3128    1.2101    0.9429 H   0  0  0  0  0  0  0  0  0  0  0  0
    4.2264   -0.1534    1.2251 H   0  0  0  0  0  0  0  0  0  0  0  0
    4.7187   -0.6924   -1.0579 H   0  0  0  0  0  0  0  0  0  0  0  0
  1  2  1  0
  2  3  1  0
  2  4  2  3
  4  5  1  0
  5  6  1  0
  6  7  1  0
  7  8  1  0
  7  9  2  3
  9 10  1  0
 10 11  1  0
 11 12  1  0
 12 13  1  0
 12 14  2  3
 14 15  1  0
 15 16  1  0
  1 17  1  0
  1 18  1  0
  1 19  1  0
  3 20  1  0
  3 21  1  0
  3 22  1  0
  4 23  1  0
  5 24  1  0
  5 25  1  0
  6 26  1  0
  6 27  1  0
  8 28  1  0
  8 29  1  0
  8 30  1  0
  9 31  1  0
 10 32  1  0
 10 33  1  0
 11 34  1  0
 11 35  1  0
 13 36  1  0
 13 37  1  0
 13 38  1  0
 14 39  1  0
 15 40  1  0
 15 41  1  0
 16 42  1  0
M  END
$$$$
