
     RDKit          3D

 29 29  0  0  0  0  0  0  0  0999 V2000
   -6.2830   -2.2284   -0.6069 C   0  0  0  0  0  0  0  0  0  0  0  0
   -5.1050   -2.0007   -0.6669 C   0  0  0  0  0  0  0  0  0  0  0  0
   -3.6639   -1.7221   -0.7405 C   0  0  0  0  0  0  0  0  0  0  0  0
   -3.1123   -1.6584    0.6113 N   0  0  0  0  0  0  0  0  0  0  0  0
   -1.6527   -1.5638    0.6295 C   0  0  0  0  0  0  0  0  0  0  0  0
   -1.1236   -0.2310    0.1008 C   0  0  0  0  0  0  0  0  0  0  0  0
    0.3893   -0.1277    0.2840 C   0  0  0  0  0  0  0  0  0  0  0  0
    0.8142    1.1153   -0.2732 O   0  0  0  0  0  0  0  0  0  0  0  0
    2.1488    1.4199   -0.2299 C   0  0  0  0  0  0  0  0  0  0  0  0
    3.1288    0.6103    0.3546 C   0  0  0  0  0  0  0  0  0  0  0  0
    4.4701    1.0090    0.3505 C   0  0  0  0  0  0  0  0  0  0  0  0
    4.8376    2.2174   -0.2368 C   0  0  0  0  0  0  0  0  0  0  0  0
    6.4891    2.6981   -0.2369 Cl  0  0  0  0  0  0  0  0  0  0  0  0
    3.8783    3.0359   -0.8222 C   0  0  0  0  0  0  0  0  0  0  0  0
    2.5395    2.6368   -0.8174 C   0  0  0  0  0  0  0  0  0  0  0  0
    1.3830    3.6883   -1.5601 Cl  0  0  0  0  0  0  0  0  0  0  0  0
   -7.3289   -2.4234   -0.5487 H   0  0  0  0  0  0  0  0  0  0  0  0
   -3.1750   -2.5133   -1.3207 H   0  0  0  0  0  0  0  0  0  0  0  0
   -3.5141   -0.7728   -1.2647 H   0  0  0  0  0  0  0  0  0  0  0  0
   -3.3968   -2.5029    1.1076 H   0  0  0  0  0  0  0  0  0  0  0  0
   -1.3318   -1.6771    1.6720 H   0  0  0  0  0  0  0  0  0  0  0  0
   -1.2086   -2.4003    0.0761 H   0  0  0  0  0  0  0  0  0  0  0  0
   -1.3591   -0.1079   -0.9630 H   0  0  0  0  0  0  0  0  0  0  0  0
   -1.6072    0.6075    0.6181 H   0  0  0  0  0  0  0  0  0  0  0  0
    0.8785   -0.9583   -0.2389 H   0  0  0  0  0  0  0  0  0  0  0  0
    0.6301   -0.1622    1.3532 H   0  0  0  0  0  0  0  0  0  0  0  0
    2.8854   -0.3371    0.8246 H   0  0  0  0  0  0  0  0  0  0  0  0
    5.2222    0.3708    0.8088 H   0  0  0  0  0  0  0  0  0  0  0  0
    4.1671    3.9781   -1.2795 H   0  0  0  0  0  0  0  0  0  0  0  0
  1  2  3  0
  2  3  1  0
  3  4  1  0
  4  5  1  0
  5  6  1  0
  6  7  1  0
  7  8  1  0
  8  9  1  0
  9 10  2  0
 10 11  1  0
 11 12  2  0
 12 13  1  0
 12 14  1  0
 14 15  2  0
 15 16  1  0
 15  9  1  0
  1 17  1  0
  3 18  1  0
  3 19  1  0
  4 20  1  0
  5 21  1  0
  5 22  1  0
  6 23  1  0
  6 24  1  0
  7 25  1  0
  7 26  1  0
 10 27  1  0
 11 28  1  0
 14 29  1  0
M  END
$$$$
