
     RDKit          3D

 67 72  0  0  0  0  0  0  0  0999 V2000
   -4.3293   -4.9427   -0.1393 C   0  0  0  0  0  0  0  0  0  0  0  0
   -3.5955   -3.8418    0.5663 C   0  0  0  0  0  0  0  0  0  0  0  0
   -3.6463   -3.7031    1.9672 C   0  0  0  0  0  0  0  0  0  0  0  0
   -4.5653   -4.7978    2.9426 Cl  0  0  0  0  0  0  0  0  0  0  0  0
   -2.9530   -2.6733    2.6342 C   0  0  0  0  0  0  0  0  0  0  0  0
   -2.1870   -1.7495    1.9235 C   0  0  0  0  0  0  0  0  0  0  0  0
   -2.1350   -1.8729    0.5451 C   0  0  0  0  0  0  0  0  0  0  0  0
   -2.8232   -2.9059   -0.1105 C   0  0  0  0  0  0  0  0  0  0  0  0
   -2.5932   -2.8215   -1.4832 N   0  0  0  0  0  0  0  0  0  0  0  0
   -1.7457   -1.7589   -1.8069 C   0  0  0  0  0  0  0  0  0  0  0  0
   -1.3605   -1.4938   -2.9352 O   0  0  0  0  0  0  0  0  0  0  0  0
   -1.4062   -1.0469   -0.4739 C   0  0  1  0  0  0  0  0  0  0  0  0
   -1.8938    0.3594   -0.4165 C   0  0  0  0  0  0  0  0  0  0  0  0
   -0.8118    1.2418   -0.5708 C   0  0  0  0  0  0  0  0  0  0  0  0
   -1.2754    2.5277   -0.5249 C   0  0  0  0  0  0  0  0  0  0  0  0
   -0.6239    3.6729   -0.7106 O   0  0  0  0  0  0  0  0  0  0  0  0
   -2.6715    2.4657   -0.3057 N   0  0  0  0  0  0  0  0  0  0  0  0
   -3.5603    3.5903   -0.1703 C   0  0  0  0  0  0  0  0  0  0  0  0
   -3.0790    4.8369    0.2640 C   0  0  0  0  0  0  0  0  0  0  0  0
   -3.9432    5.9286    0.3978 C   0  0  0  0  0  0  0  0  0  0  0  0
   -5.2894    5.7805    0.0973 C   0  0  0  0  0  0  0  0  0  0  0  0
   -6.1157    6.8267    0.2255 F   0  0  0  0  0  0  0  0  0  0  0  0
   -5.7891    4.5606   -0.3345 C   0  0  0  0  0  0  0  0  0  0  0  0
   -4.9277    3.4665   -0.4679 C   0  0  0  0  0  0  0  0  0  0  0  0
   -3.0361    1.0994   -0.2450 C   0  0  0  0  0  0  0  0  0  0  0  0
   -4.2804    0.6966    0.0040 O   0  0  0  0  0  0  0  0  0  0  0  0
    0.4340    0.4767   -0.7927 C   0  0  1  0  0  0  0  0  0  0  0  0
    1.7184    0.9329   -0.1116 C   0  0  0  0  0  0  0  0  0  0  0  0
    2.7770   -0.0790   -0.2700 N   0  0  0  0  0  0  0  0  0  0  0  0
    4.0914    0.3453   -0.1682 C   0  0  0  0  0  0  0  0  0  0  0  0
    4.4171    1.5254   -0.1521 O   0  0  0  0  0  0  0  0  0  0  0  0
    4.9600   -0.6946   -0.0921 O   0  0  0  0  0  0  0  0  0  0  0  0
    6.3892   -0.4714    0.0161 C   0  0  0  0  0  0  0  0  0  0  0  0
    6.9977   -1.8811    0.0749 C   0  0  0  0  0  0  0  0  0  0  0  0
    6.7420    0.2671    1.3119 C   0  0  0  0  0  0  0  0  0  0  0  0
    6.9377    0.2459   -1.2222 C   0  0  0  0  0  0  0  0  0  0  0  0
    2.3952   -1.4830   -0.0230 C   0  0  0  0  0  0  0  0  0  0  0  0
    1.0016   -1.8681   -0.5858 C   0  0  0  0  0  0  0  0  0  0  0  0
    0.0358   -0.8466   -0.2153 N   0  0  0  0  0  0  0  0  0  0  0  0
   -5.4032   -4.8752    0.0633 H   0  0  0  0  0  0  0  0  0  0  0  0
   -4.2064   -4.8994   -1.2249 H   0  0  0  0  0  0  0  0  0  0  0  0
   -3.9570   -5.9185    0.1894 H   0  0  0  0  0  0  0  0  0  0  0  0
   -3.0100   -2.5929    3.7183 H   0  0  0  0  0  0  0  0  0  0  0  0
   -1.6491   -0.9566    2.4362 H   0  0  0  0  0  0  0  0  0  0  0  0
   -2.9512   -3.4477   -2.1892 H   0  0  0  0  0  0  0  0  0  0  0  0
    0.2958    3.4723   -0.9550 H   0  0  0  0  0  0  0  0  0  0  0  0
   -2.0395    4.9834    0.5416 H   0  0  0  0  0  0  0  0  0  0  0  0
   -3.5705    6.8886    0.7401 H   0  0  0  0  0  0  0  0  0  0  0  0
   -6.8434    4.4650   -0.5725 H   0  0  0  0  0  0  0  0  0  0  0  0
   -5.3498    2.5394   -0.8433 H   0  0  0  0  0  0  0  0  0  0  0  0
   -4.2752   -0.2695    0.1171 H   0  0  0  0  0  0  0  0  0  0  0  0
    0.5995    0.3828   -1.8758 H   0  0  0  0  0  0  0  0  0  0  0  0
    2.0498    1.8893   -0.5313 H   0  0  0  0  0  0  0  0  0  0  0  0
    1.5719    1.0882    0.9653 H   0  0  0  0  0  0  0  0  0  0  0  0
    6.6002   -2.4417    0.9291 H   0  0  0  0  0  0  0  0  0  0  0  0
    6.7354   -2.4563   -0.8207 H   0  0  0  0  0  0  0  0  0  0  0  0
    8.0891   -1.8504    0.1589 H   0  0  0  0  0  0  0  0  0  0  0  0
    6.2659   -0.2126    2.1744 H   0  0  0  0  0  0  0  0  0  0  0  0
    6.3956    1.3048    1.2994 H   0  0  0  0  0  0  0  0  0  0  0  0
    7.8246    0.2861    1.4773 H   0  0  0  0  0  0  0  0  0  0  0  0
    8.0329    0.2643   -1.2194 H   0  0  0  0  0  0  0  0  0  0  0  0
    6.5997   -0.2491   -2.1396 H   0  0  0  0  0  0  0  0  0  0  0  0
    6.5941    1.2830   -1.2807 H   0  0  0  0  0  0  0  0  0  0  0  0
    3.1486   -2.1558   -0.4461 H   0  0  0  0  0  0  0  0  0  0  0  0
    2.4050   -1.6208    1.0656 H   0  0  0  0  0  0  0  0  0  0  0  0
    1.0701   -1.9726   -1.6753 H   0  0  0  0  0  0  0  0  0  0  0  0
    0.7174   -2.8434   -0.1754 H   0  0  0  0  0  0  0  0  0  0  0  0
  1  2  1  0
  2  3  2  0
  3  4  1  0
  3  5  1  0
  5  6  2  0
  6  7  1  0
  7  8  2  0
  8  9  1  0
  9 10  1  0
 10 11  2  0
 10 12  1  0
 12 13  1  0
 13 14  1  0
 14 15  2  0
 15 16  1  0
 15 17  1  0
 17 18  1  0
 18 19  2  0
 19 20  1  0
 20 21  2  0
 21 22  1  0
 21 23  1  0
 23 24  2  0
 17 25  1  0
 25 26  1  0
 14 27  1  0
 27 28  1  0
 28 29  1  0
 29 30  1  0
 30 31  2  0
 30 32  1  0
 32 33  1  0
 33 34  1  0
 33 35  1  0
 33 36  1  0
 29 37  1  0
 37 38  1  0
 38 39  1  0
  8  2  1  0
 12 39  1  1
 12  7  1  0
 25 13  2  0
 39 27  1  0
 24 18  1  0
  1 40  1  0
  1 41  1  0
  1 42  1  0
  5 43  1  0
  6 44  1  0
  9 45  1  0
 16 46  1  0
 19 47  1  0
 20 48  1  0
 23 49  1  0
 24 50  1  0
 26 51  1  0
 27 52  1  6
 28 53  1  0
 28 54  1  0
 34 55  1  0
 34 56  1  0
 34 57  1  0
 35 58  1  0
 35 59  1  0
 35 60  1  0
 36 61  1  0
 36 62  1  0
 36 63  1  0
 37 64  1  0
 37 65  1  0
 38 66  1  0
 38 67  1  0
M  END
$$$$
