
     RDKit          3D

 67 72  0  0  0  0  0  0  0  0999 V2000
   -4.0213    5.0288   -0.6272 C   0  0  0  0  0  0  0  0  0  0  0  0
   -3.2302    3.8229   -1.0238 C   0  0  0  0  0  0  0  0  0  0  0  0
   -3.0884    3.4591   -2.3708 C   0  0  0  0  0  0  0  0  0  0  0  0
   -2.3629    2.3131   -2.7440 C   0  0  0  0  0  0  0  0  0  0  0  0
   -1.7576    1.5039   -1.7804 C   0  0  0  0  0  0  0  0  0  0  0  0
   -1.8838    1.8621   -0.4451 C   0  0  0  0  0  0  0  0  0  0  0  0
   -2.6202    3.0000   -0.0889 C   0  0  0  0  0  0  0  0  0  0  0  0
   -2.6468    3.1407    1.2946 N   0  0  0  0  0  0  0  0  0  0  0  0
   -1.9605    2.1051    1.9325 C   0  0  0  0  0  0  0  0  0  0  0  0
   -1.8616    1.9894    3.1460 O   0  0  0  0  0  0  0  0  0  0  0  0
   -1.3634    1.2086    0.8117 C   0  0  1  0  0  0  0  0  0  0  0  0
   -1.8518   -0.1852    0.8178 C   0  0  0  0  0  0  0  0  0  0  0  0
   -0.7971   -1.0953    0.8866 C   0  0  0  0  0  0  0  0  0  0  0  0
   -1.3099   -2.3662    0.9194 C   0  0  0  0  0  0  0  0  0  0  0  0
   -0.6850   -3.5395    0.9725 O   0  0  0  0  0  0  0  0  0  0  0  0
   -2.7110   -2.2502    0.8133 N   0  0  0  0  0  0  0  0  0  0  0  0
   -3.6470   -3.3246    0.6722 C   0  0  0  0  0  0  0  0  0  0  0  0
   -4.8238   -3.1389   -0.0709 C   0  0  0  0  0  0  0  0  0  0  0  0
   -5.7435   -4.1814   -0.2100 C   0  0  0  0  0  0  0  0  0  0  0  0
   -5.4953   -5.4159    0.3851 C   0  0  0  0  0  0  0  0  0  0  0  0
   -4.3235   -5.6128    1.1124 C   0  0  0  0  0  0  0  0  0  0  0  0
   -3.3985   -4.5743    1.2526 C   0  0  0  0  0  0  0  0  0  0  0  0
   -3.0319   -0.8778    0.8483 C   0  0  0  0  0  0  0  0  0  0  0  0
   -4.2662   -0.3871    0.9515 O   0  0  0  0  0  0  0  0  0  0  0  0
    0.5072   -0.4037    0.9508 C   0  0  1  0  0  0  0  0  0  0  0  0
    1.4714   -0.7397   -0.1993 C   0  0  0  0  0  0  0  0  0  0  0  0
    2.6567    0.1200   -0.1710 N   0  0  0  0  0  0  0  0  0  0  0  0
    3.8919   -0.3991   -0.4955 C   0  0  0  0  0  0  0  0  0  0  0  0
    4.0609   -1.5515   -0.8715 O   0  0  0  0  0  0  0  0  0  0  0  0
    4.8814    0.5163   -0.3385 O   0  0  0  0  0  0  0  0  0  0  0  0
    6.2644    0.1803   -0.6182 C   0  0  0  0  0  0  0  0  0  0  0  0
    6.7700   -0.9252    0.3148 C   0  0  0  0  0  0  0  0  0  0  0  0
    7.0447    1.4693   -0.3173 C   0  0  0  0  0  0  0  0  0  0  0  0
    6.4635   -0.1780   -2.0950 C   0  0  0  0  0  0  0  0  0  0  0  0
    2.4693    1.4951    0.3059 C   0  0  0  0  0  0  0  0  0  0  0  0
    0.9945    1.9398    0.2441 C   0  0  0  0  0  0  0  0  0  0  0  0
    0.1152    1.0447    0.9933 N   0  0  0  0  0  0  0  0  0  0  0  0
   -4.3698    5.5860   -1.5031 H   0  0  0  0  0  0  0  0  0  0  0  0
   -3.4060    5.7076   -0.0279 H   0  0  0  0  0  0  0  0  0  0  0  0
   -4.9004    4.7308   -0.0470 H   0  0  0  0  0  0  0  0  0  0  0  0
   -3.5513    4.0607   -3.1511 H   0  0  0  0  0  0  0  0  0  0  0  0
   -2.2801    2.0508   -3.7967 H   0  0  0  0  0  0  0  0  0  0  0  0
   -1.2103    0.6136   -2.0733 H   0  0  0  0  0  0  0  0  0  0  0  0
   -3.1410    3.8536    1.8073 H   0  0  0  0  0  0  0  0  0  0  0  0
    0.2708   -3.3764    1.0518 H   0  0  0  0  0  0  0  0  0  0  0  0
   -5.0229   -2.2073   -0.5969 H   0  0  0  0  0  0  0  0  0  0  0  0
   -6.6470   -4.0338   -0.7966 H   0  0  0  0  0  0  0  0  0  0  0  0
   -6.2093   -6.2279    0.2744 H   0  0  0  0  0  0  0  0  0  0  0  0
   -4.1263   -6.5768    1.5748 H   0  0  0  0  0  0  0  0  0  0  0  0
   -2.5087   -4.7586    1.8482 H   0  0  0  0  0  0  0  0  0  0  0  0
   -4.8363   -1.0696    1.3508 H   0  0  0  0  0  0  0  0  0  0  0  0
    0.9960   -0.6347    1.9060 H   0  0  0  0  0  0  0  0  0  0  0  0
    1.7638   -1.7948   -0.1537 H   0  0  0  0  0  0  0  0  0  0  0  0
    0.9902   -0.5861   -1.1737 H   0  0  0  0  0  0  0  0  0  0  0  0
    7.8527   -1.0619    0.2201 H   0  0  0  0  0  0  0  0  0  0  0  0
    6.2993   -1.8893    0.1003 H   0  0  0  0  0  0  0  0  0  0  0  0
    6.5386   -0.6882    1.3594 H   0  0  0  0  0  0  0  0  0  0  0  0
    6.8971    1.7808    0.7235 H   0  0  0  0  0  0  0  0  0  0  0  0
    6.6850    2.2963   -0.9407 H   0  0  0  0  0  0  0  0  0  0  0  0
    8.1186    1.3457   -0.4921 H   0  0  0  0  0  0  0  0  0  0  0  0
    5.9868   -1.1282   -2.3538 H   0  0  0  0  0  0  0  0  0  0  0  0
    6.0169    0.5842   -2.7434 H   0  0  0  0  0  0  0  0  0  0  0  0
    7.5266   -0.2674   -2.3437 H   0  0  0  0  0  0  0  0  0  0  0  0
    2.8382    1.5349    1.3380 H   0  0  0  0  0  0  0  0  0  0  0  0
    3.0863    2.1728   -0.2945 H   0  0  0  0  0  0  0  0  0  0  0  0
    0.7248    1.9727   -0.8163 H   0  0  0  0  0  0  0  0  0  0  0  0
    0.9079    2.9578    0.6396 H   0  0  0  0  0  0  0  0  0  0  0  0
  1  2  1  0
  2  3  2  0
  3  4  1  0
  4  5  2  0
  5  6  1  0
  6  7  2  0
  7  8  1  0
  8  9  1  0
  9 10  2  0
  9 11  1  0
 11 12  1  0
 12 13  1  0
 13 14  2  0
 14 15  1  0
 14 16  1  0
 16 17  1  0
 17 18  2  0
 18 19  1  0
 19 20  2  0
 20 21  1  0
 21 22  2  0
 16 23  1  0
 23 24  1  0
 13 25  1  0
 25 26  1  0
 26 27  1  0
 27 28  1  0
 28 29  2  0
 28 30  1  0
 30 31  1  0
 31 32  1  0
 31 33  1  0
 31 34  1  0
 27 35  1  0
 35 36  1  0
 36 37  1  0
  7  2  1  0
 11 37  1  6
 11  6  1  0
 23 12  2  0
 37 25  1  0
 22 17  1  0
  1 38  1  0
  1 39  1  0
  1 40  1  0
  3 41  1  0
  4 42  1  0
  5 43  1  0
  8 44  1  0
 15 45  1  0
 18 46  1  0
 19 47  1  0
 20 48  1  0
 21 49  1  0
 22 50  1  0
 24 51  1  0
 25 52  1  1
 26 53  1  0
 26 54  1  0
 32 55  1  0
 32 56  1  0
 32 57  1  0
 33 58  1  0
 33 59  1  0
 33 60  1  0
 34 61  1  0
 34 62  1  0
 34 63  1  0
 35 64  1  0
 35 65  1  0
 36 66  1  0
 36 67  1  0
M  END
$$$$
