
     RDKit          3D

 74 78  0  0  0  0  0  0  0  0999 V2000
   -1.7697    0.1735   -2.0278 C   0  0  0  0  0  0  0  0  0  0  0  0
   -2.3518    0.9737   -0.8548 C   0  0  0  0  0  0  0  0  0  0  0  0
   -2.3736    2.4598   -1.2761 C   0  0  0  0  0  0  0  0  0  0  0  0
   -2.5680    3.3477   -0.1306 N   0  0  0  0  0  0  0  0  0  0  0  0
   -3.9116    3.9096    0.1502 C   0  0  0  0  0  0  0  0  0  0  0  0
   -5.0635    2.9253   -0.0693 C   0  0  0  0  0  0  0  0  0  0  0  0
   -4.1305    5.2334   -0.6105 C   0  0  0  0  0  0  0  0  0  0  0  0
   -4.2673    5.0202   -2.0150 O   0  0  0  0  0  0  0  0  0  0  0  0
   -1.4949    3.8106    0.6420 C   0  0  0  0  0  0  0  0  0  0  0  0
   -1.6476    4.5794    1.5901 O   0  0  0  0  0  0  0  0  0  0  0  0
   -0.1033    3.4246    0.2907 C   0  0  0  0  0  0  0  0  0  0  0  0
    0.7507    4.5315    0.1117 C   0  0  0  0  0  0  0  0  0  0  0  0
    2.0881    4.3644   -0.2349 C   0  0  0  0  0  0  0  0  0  0  0  0
    2.6012    3.0841   -0.4117 C   0  0  0  0  0  0  0  0  0  0  0  0
    1.7775    1.9726   -0.2301 C   0  0  0  0  0  0  0  0  0  0  0  0
    2.2249    0.6481   -0.4475 N   0  0  0  0  0  0  0  0  0  0  0  0
    3.5200    0.1822   -0.5771 C   0  0  0  0  0  0  0  0  0  0  0  0
    4.5259    0.8609   -0.4238 O   0  0  0  0  0  0  0  0  0  0  0  0
    3.5015   -1.1687   -0.8901 N   0  0  0  0  0  0  0  0  0  0  0  0
    4.5945   -2.0573   -0.9291 C   0  0  0  0  0  0  0  0  0  0  0  0
    4.3375   -3.3613   -1.4123 C   0  0  0  0  0  0  0  0  0  0  0  0
    5.3465   -4.3309   -1.4587 C   0  0  0  0  0  0  0  0  0  0  0  0
    6.5974   -3.9684   -1.0169 C   0  0  0  0  0  0  0  0  0  0  0  0
    6.8563   -2.7012   -0.5483 C   0  0  0  0  0  0  0  0  0  0  0  0
    5.8794   -1.7265   -0.4872 C   0  0  0  0  0  0  0  0  0  0  0  0
    8.1508   -2.5512   -0.1563 O   0  0  0  0  0  0  0  0  0  0  0  0
    8.6785   -3.8612   -0.4447 C   0  0  0  0  0  0  0  0  0  0  0  0
    7.6924   -4.7731   -0.9760 O   0  0  0  0  0  0  0  0  0  0  0  0
    0.4132    2.1283    0.1417 C   0  0  0  0  0  0  0  0  0  0  0  0
   -0.1979    0.9122    0.3314 O   0  0  0  0  0  0  0  0  0  0  0  0
   -1.6063    0.7776    0.4911 C   0  0  0  0  0  0  0  0  0  0  0  0
   -1.9110   -0.5690    1.2001 C   0  0  0  0  0  0  0  0  0  0  0  0
   -1.3116   -1.7565    0.5267 N   0  0  0  0  0  0  0  0  0  0  0  0
   -0.0453   -2.2078    1.1418 C   0  0  0  0  0  0  0  0  0  0  0  0
   -2.4015   -3.0031    0.0975 S   0  0  0  0  0  6  0  0  0  0  0  0
   -3.5590   -2.3784   -0.5110 O   0  0  0  0  0  0  0  0  0  0  0  0
   -1.6613   -4.0396   -0.5901 O   0  0  0  0  0  0  0  0  0  0  0  0
   -3.0449   -3.7260    1.5982 C   0  0  0  0  0  0  0  0  0  0  0  0
   -4.2085   -3.4729    2.3024 C   0  0  0  0  0  0  0  0  0  0  0  0
   -4.3200   -4.2666    3.4771 C   0  0  0  0  0  0  0  0  0  0  0  0
   -3.2444   -5.1133    3.6266 C   0  0  0  0  0  0  0  0  0  0  0  0
   -2.1185   -4.9523    2.3500 S   0  0  0  0  0  0  0  0  0  0  0  0
   -1.8158   -0.9017   -1.8599 H   0  0  0  0  0  0  0  0  0  0  0  0
   -0.7245    0.4345   -2.2186 H   0  0  0  0  0  0  0  0  0  0  0  0
   -2.3353    0.3768   -2.9443 H   0  0  0  0  0  0  0  0  0  0  0  0
   -3.3918    0.6561   -0.7078 H   0  0  0  0  0  0  0  0  0  0  0  0
   -1.4394    2.7341   -1.7788 H   0  0  0  0  0  0  0  0  0  0  0  0
   -3.1564    2.6326   -2.0213 H   0  0  0  0  0  0  0  0  0  0  0  0
   -3.9309    4.1679    1.2167 H   0  0  0  0  0  0  0  0  0  0  0  0
   -5.1736    2.6312   -1.1158 H   0  0  0  0  0  0  0  0  0  0  0  0
   -6.0114    3.3755    0.2488 H   0  0  0  0  0  0  0  0  0  0  0  0
   -4.9124    2.0197    0.5263 H   0  0  0  0  0  0  0  0  0  0  0  0
   -3.2913    5.9183   -0.4513 H   0  0  0  0  0  0  0  0  0  0  0  0
   -5.0463    5.7206   -0.2575 H   0  0  0  0  0  0  0  0  0  0  0  0
   -4.3274    5.9017   -2.4199 H   0  0  0  0  0  0  0  0  0  0  0  0
    0.3661    5.5426    0.2446 H   0  0  0  0  0  0  0  0  0  0  0  0
    2.7289    5.2316   -0.3765 H   0  0  0  0  0  0  0  0  0  0  0  0
    3.6411    2.9805   -0.7048 H   0  0  0  0  0  0  0  0  0  0  0  0
    1.5001   -0.0445   -0.3181 H   0  0  0  0  0  0  0  0  0  0  0  0
    2.6311   -1.5138   -1.2659 H   0  0  0  0  0  0  0  0  0  0  0  0
    3.3432   -3.6378   -1.7561 H   0  0  0  0  0  0  0  0  0  0  0  0
    5.1510   -5.3339   -1.8239 H   0  0  0  0  0  0  0  0  0  0  0  0
    6.1342   -0.7494   -0.0958 H   0  0  0  0  0  0  0  0  0  0  0  0
    9.0875   -4.2851    0.4795 H   0  0  0  0  0  0  0  0  0  0  0  0
    9.4911   -3.7606   -1.1751 H   0  0  0  0  0  0  0  0  0  0  0  0
   -1.9566    1.4951    1.2392 H   0  0  0  0  0  0  0  0  0  0  0  0
   -1.5149   -0.5206    2.2236 H   0  0  0  0  0  0  0  0  0  0  0  0
   -2.9962   -0.6712    1.3075 H   0  0  0  0  0  0  0  0  0  0  0  0
   -0.2141   -2.6504    2.1266 H   0  0  0  0  0  0  0  0  0  0  0  0
    0.4619   -2.9276    0.4916 H   0  0  0  0  0  0  0  0  0  0  0  0
    0.6391   -1.3639    1.2732 H   0  0  0  0  0  0  0  0  0  0  0  0
   -4.9423   -2.7439    1.9778 H   0  0  0  0  0  0  0  0  0  0  0  0
   -5.1484   -4.2244    4.1741 H   0  0  0  0  0  0  0  0  0  0  0  0
   -3.0703   -5.8244    4.4223 H   0  0  0  0  0  0  0  0  0  0  0  0
  1  2  1  0
  2  3  1  0
  3  4  1  0
  4  5  1  0
  5  6  1  0
  5  7  1  0
  7  8  1  0
  4  9  1  0
  9 10  2  0
  9 11  1  0
 11 12  2  0
 12 13  1  0
 13 14  2  0
 14 15  1  0
 15 16  1  0
 16 17  1  0
 17 18  2  0
 17 19  1  0
 19 20  1  0
 20 21  2  0
 21 22  1  0
 22 23  2  0
 23 24  1  0
 24 25  2  0
 24 26  1  0
 26 27  1  0
 27 28  1  0
 15 29  2  0
 29 30  1  0
 30 31  1  0
 31 32  1  0
 32 33  1  0
 33 34  1  0
 33 35  1  0
 35 36  2  0
 35 37  2  0
 35 38  1  0
 38 39  2  0
 39 40  1  0
 40 41  2  0
 41 42  1  0
 31  2  1  0
 42 38  1  0
 29 11  1  0
 25 20  1  0
 28 23  1  0
  1 43  1  0
  1 44  1  0
  1 45  1  0
  2 46  1  0
  3 47  1  0
  3 48  1  0
  5 49  1  0
  6 50  1  0
  6 51  1  0
  6 52  1  0
  7 53  1  0
  7 54  1  0
  8 55  1  0
 12 56  1  0
 13 57  1  0
 14 58  1  0
 16 59  1  0
 19 60  1  0
 21 61  1  0
 22 62  1  0
 25 63  1  0
 27 64  1  0
 27 65  1  0
 31 66  1  0
 32 67  1  0
 32 68  1  0
 34 69  1  0
 34 70  1  0
 34 71  1  0
 39 72  1  0
 40 73  1  0
 41 74  1  0
M  END
$$$$
