
     RDKit          3D

 44 46  0  0  0  0  0  0  0  0999 V2000
   -4.3115   -0.6172   -0.1927 C   0  0  0  0  0  0  0  0  0  0  0  0
   -2.9764   -0.7488    0.4889 C   0  0  0  0  0  0  0  0  0  0  0  0
   -2.1730    0.3934    0.6516 C   0  0  0  0  0  0  0  0  0  0  0  0
   -0.9149    0.3428    1.2808 C   0  0  0  0  0  0  0  0  0  0  0  0
   -0.1528    1.6286    1.4315 C   0  0  0  0  0  0  0  0  0  0  0  0
   -0.4625   -0.9018    1.7442 C   0  0  0  0  0  0  0  0  0  0  0  0
    1.1176   -1.1527    2.5502 S   0  0  0  0  0  6  0  0  0  0  0  0
    1.7342    0.1163    2.8631 O   0  0  0  0  0  0  0  0  0  0  0  0
    0.9096   -2.1438    3.5877 O   0  0  0  0  0  0  0  0  0  0  0  0
    2.0290   -1.9326    1.3562 N   0  0  0  0  0  0  0  0  0  0  0  0
    2.1649   -1.3312    0.0749 C   0  0  0  0  0  0  0  0  0  0  0  0
    1.5427   -1.9300   -1.0211 C   0  0  0  0  0  0  0  0  0  0  0  0
    1.6429   -1.3471   -2.2850 C   0  0  0  0  0  0  0  0  0  0  0  0
    2.3661   -0.1644   -2.4457 C   0  0  0  0  0  0  0  0  0  0  0  0
    2.4755    0.3917   -3.6917 O   0  0  0  0  0  0  0  0  0  0  0  0
    2.9869    0.4512   -1.3488 C   0  0  0  0  0  0  0  0  0  0  0  0
    3.9295    1.9584   -1.5062 S   0  0  0  0  0  0  0  0  0  0  0  0
    2.6773    3.1597   -1.6979 C   0  0  0  0  0  0  0  0  0  0  0  0
    1.3405    2.9394   -1.4704 N   0  0  0  0  0  0  0  0  0  0  0  0
    0.7996    4.1098   -1.7088 C   0  0  0  0  0  0  0  0  0  0  0  0
    1.7698    4.9942   -2.0529 N   0  0  0  0  0  0  0  0  0  0  0  0
    2.9789    4.4177   -2.0447 N   0  0  0  0  0  0  0  0  0  0  0  0
    2.8865   -0.1490   -0.0864 C   0  0  0  0  0  0  0  0  0  0  0  0
   -1.2699   -2.0470    1.6045 C   0  0  0  0  0  0  0  0  0  0  0  0
   -2.5223   -1.9845    0.9778 C   0  0  0  0  0  0  0  0  0  0  0  0
   -3.3498   -3.2340    0.8507 C   0  0  0  0  0  0  0  0  0  0  0  0
   -5.1175   -0.8935    0.4947 H   0  0  0  0  0  0  0  0  0  0  0  0
   -4.4966    0.4108   -0.5224 H   0  0  0  0  0  0  0  0  0  0  0  0
   -4.3507   -1.2582   -1.0792 H   0  0  0  0  0  0  0  0  0  0  0  0
   -2.5392    1.3507    0.2807 H   0  0  0  0  0  0  0  0  0  0  0  0
   -0.0636    1.8963    2.4887 H   0  0  0  0  0  0  0  0  0  0  0  0
   -0.6669    2.4597    0.9356 H   0  0  0  0  0  0  0  0  0  0  0  0
    0.8348    1.5568    0.9726 H   0  0  0  0  0  0  0  0  0  0  0  0
    1.9232   -2.9439    1.4026 H   0  0  0  0  0  0  0  0  0  0  0  0
    0.9701   -2.8457   -0.9037 H   0  0  0  0  0  0  0  0  0  0  0  0
    1.1556   -1.8261   -3.1286 H   0  0  0  0  0  0  0  0  0  0  0  0
    1.9205   -0.1025   -4.3149 H   0  0  0  0  0  0  0  0  0  0  0  0
   -0.2479    4.3661   -1.6480 H   0  0  0  0  0  0  0  0  0  0  0  0
    1.6894    5.9753   -2.2951 H   0  0  0  0  0  0  0  0  0  0  0  0
    3.3713    0.3095    0.7728 H   0  0  0  0  0  0  0  0  0  0  0  0
   -0.9190   -3.0010    1.9963 H   0  0  0  0  0  0  0  0  0  0  0  0
   -3.5341   -3.4623   -0.2040 H   0  0  0  0  0  0  0  0  0  0  0  0
   -4.3050   -3.1122    1.3712 H   0  0  0  0  0  0  0  0  0  0  0  0
   -2.8428   -4.0992    1.2911 H   0  0  0  0  0  0  0  0  0  0  0  0
  1  2  1  0
  2  3  2  0
  3  4  1  0
  4  5  1  0
  4  6  2  0
  6  7  1  0
  7  8  2  0
  7  9  2  0
  7 10  1  0
 10 11  1  0
 11 12  2  0
 12 13  1  0
 13 14  2  0
 14 15  1  0
 14 16  1  0
 16 17  1  0
 17 18  1  0
 18 19  1  0
 19 20  2  0
 20 21  1  0
 21 22  1  0
 16 23  2  0
  6 24  1  0
 24 25  2  0
 25 26  1  0
 25  2  1  0
 23 11  1  0
 22 18  2  0
  1 27  1  0
  1 28  1  0
  1 29  1  0
  3 30  1  0
  5 31  1  0
  5 32  1  0
  5 33  1  0
 10 34  1  0
 12 35  1  0
 13 36  1  0
 15 37  1  0
 20 38  1  0
 21 39  1  0
 23 40  1  0
 24 41  1  0
 26 42  1  0
 26 43  1  0
 26 44  1  0
M  END
$$$$
