
     RDKit          3D

 59 62  0  0  0  0  0  0  0  0999 V2000
    6.8073   -0.9305    4.9629 C   0  0  0  0  0  0  0  0  0  0  0  0
    6.1773    0.2994    4.6292 O   0  0  0  0  0  0  0  0  0  0  0  0
    5.6861    0.4195    3.3588 C   0  0  0  0  0  0  0  0  0  0  0  0
    5.7908   -0.5337    2.3444 C   0  0  0  0  0  0  0  0  0  0  0  0
    5.2420   -0.2841    1.0793 C   0  0  0  0  0  0  0  0  0  0  0  0
    4.5784    0.9209    0.8256 C   0  0  0  0  0  0  0  0  0  0  0  0
    3.9931    1.2415   -0.5074 C   0  0  0  0  0  0  0  0  0  0  0  0
    3.9891    2.4160   -0.8818 O   0  0  0  0  0  0  0  0  0  0  0  0
    3.5039    0.1353   -1.4185 C   0  0  0  0  0  0  0  0  0  0  0  0
    2.2982   -0.9834   -0.6560 S   0  0  0  0  0  0  0  0  0  0  0  0
    1.0308    0.1278   -0.2819 C   0  0  0  0  0  0  0  0  0  0  0  0
    1.0828    1.0288    0.6680 N   0  0  0  0  0  0  0  0  0  0  0  0
   -0.0935    1.7301    0.6389 N   0  0  0  0  0  0  0  0  0  0  0  0
   -0.8461    1.2391   -0.3291 C   0  0  0  0  0  0  0  0  0  0  0  0
   -2.1865    1.7733   -0.7206 C   0  0  0  0  0  0  0  0  0  0  0  0
   -3.2342    0.8119   -1.0748 N   0  0  0  0  0  0  0  0  0  0  0  0
   -3.8954    0.0578   -0.0908 C   0  0  0  0  0  0  0  0  0  0  0  0
   -3.4332   -0.0549    1.2278 C   0  0  0  0  0  0  0  0  0  0  0  0
   -4.0832   -0.8633    2.1672 C   0  0  0  0  0  0  0  0  0  0  0  0
   -5.2139   -1.5952    1.8113 C   0  0  0  0  0  0  0  0  0  0  0  0
   -5.8935   -2.4843    2.8088 C   0  0  0  0  0  0  0  0  0  0  0  0
   -5.6602   -1.5353    0.4892 C   0  0  0  0  0  0  0  0  0  0  0  0
   -5.0083   -0.7307   -0.4652 C   0  0  0  0  0  0  0  0  0  0  0  0
   -5.5338   -0.7320   -1.8775 C   0  0  0  0  0  0  0  0  0  0  0  0
   -0.1757    0.1907   -0.9251 N   0  0  0  0  0  0  0  0  0  0  0  0
   -0.6537   -0.6700   -1.9886 C   0  0  0  0  0  0  0  0  0  0  0  0
   -0.5971    0.0172   -3.3024 C   0  0  0  0  0  0  0  0  0  0  0  0
   -1.5615    0.4239   -4.2019 C   0  0  0  0  0  0  0  0  0  0  0  0
   -0.8727    1.0284   -5.2805 C   0  0  0  0  0  0  0  0  0  0  0  0
    0.4655    0.9434   -4.9771 C   0  0  0  0  0  0  0  0  0  0  0  0
    0.6432    0.3219   -3.7837 O   0  0  0  0  0  0  0  0  0  0  0  0
    4.4838    1.8802    1.8382 C   0  0  0  0  0  0  0  0  0  0  0  0
    5.0328    1.6261    3.0972 C   0  0  0  0  0  0  0  0  0  0  0  0
    7.1176   -0.8737    6.0107 H   0  0  0  0  0  0  0  0  0  0  0  0
    6.1115   -1.7706    4.8667 H   0  0  0  0  0  0  0  0  0  0  0  0
    7.7060   -1.0895    4.3579 H   0  0  0  0  0  0  0  0  0  0  0  0
    6.2960   -1.4808    2.5027 H   0  0  0  0  0  0  0  0  0  0  0  0
    5.3545   -1.0411    0.3091 H   0  0  0  0  0  0  0  0  0  0  0  0
    4.3647   -0.4371   -1.7779 H   0  0  0  0  0  0  0  0  0  0  0  0
    3.0382    0.5951   -2.2969 H   0  0  0  0  0  0  0  0  0  0  0  0
   -2.0251    2.4118   -1.5988 H   0  0  0  0  0  0  0  0  0  0  0  0
   -2.5575    2.4487    0.0612 H   0  0  0  0  0  0  0  0  0  0  0  0
   -3.9221    1.2450   -1.6871 H   0  0  0  0  0  0  0  0  0  0  0  0
   -2.5589    0.4892    1.5742 H   0  0  0  0  0  0  0  0  0  0  0  0
   -3.6906   -0.9127    3.1807 H   0  0  0  0  0  0  0  0  0  0  0  0
   -5.7939   -2.0823    3.8226 H   0  0  0  0  0  0  0  0  0  0  0  0
   -6.9647   -2.5633    2.5953 H   0  0  0  0  0  0  0  0  0  0  0  0
   -5.4519   -3.4853    2.7804 H   0  0  0  0  0  0  0  0  0  0  0  0
   -6.5232   -2.1294    0.1936 H   0  0  0  0  0  0  0  0  0  0  0  0
   -5.9700    0.2425   -2.1187 H   0  0  0  0  0  0  0  0  0  0  0  0
   -6.3116   -1.4902   -2.0183 H   0  0  0  0  0  0  0  0  0  0  0  0
   -4.7301   -0.9597   -2.5854 H   0  0  0  0  0  0  0  0  0  0  0  0
   -0.0467   -1.5795   -2.0211 H   0  0  0  0  0  0  0  0  0  0  0  0
   -1.6644   -1.0018   -1.7434 H   0  0  0  0  0  0  0  0  0  0  0  0
   -2.6299    0.3012   -4.0881 H   0  0  0  0  0  0  0  0  0  0  0  0
   -1.2961    1.4714   -6.1712 H   0  0  0  0  0  0  0  0  0  0  0  0
    1.3697    1.2591   -5.4795 H   0  0  0  0  0  0  0  0  0  0  0  0
    3.9703    2.8223    1.6547 H   0  0  0  0  0  0  0  0  0  0  0  0
    4.9455    2.3751    3.8807 H   0  0  0  0  0  0  0  0  0  0  0  0
  1  2  1  0
  2  3  1  0
  3  4  2  0
  4  5  1  0
  5  6  2  0
  6  7  1  0
  7  8  2  0
  7  9  1  0
  9 10  1  0
 10 11  1  0
 11 12  2  0
 12 13  1  0
 13 14  2  0
 14 15  1  0
 15 16  1  0
 16 17  1  0
 17 18  2  0
 18 19  1  0
 19 20  2  0
 20 21  1  0
 20 22  1  0
 22 23  2  0
 23 24  1  0
 14 25  1  0
 25 26  1  0
 26 27  1  0
 27 28  2  0
 28 29  1  0
 29 30  2  0
 30 31  1  0
  6 32  1  0
 32 33  2  0
 33  3  1  0
 25 11  1  0
 31 27  1  0
 23 17  1  0
  1 34  1  0
  1 35  1  0
  1 36  1  0
  4 37  1  0
  5 38  1  0
  9 39  1  0
  9 40  1  0
 15 41  1  0
 15 42  1  0
 16 43  1  0
 18 44  1  0
 19 45  1  0
 21 46  1  0
 21 47  1  0
 21 48  1  0
 22 49  1  0
 24 50  1  0
 24 51  1  0
 24 52  1  0
 26 53  1  0
 26 54  1  0
 28 55  1  0
 29 56  1  0
 30 57  1  0
 32 58  1  0
 33 59  1  0
M  END
$$$$
