
     RDKit          3D

 42 44  0  0  0  0  0  0  0  0999 V2000
   -5.0736    1.6027    0.4407 C   0  0  0  0  0  0  0  0  0  0  0  0
   -4.0856    1.1573   -0.5974 C   0  0  0  0  0  0  0  0  0  0  0  0
   -4.4116    1.2239   -1.9526 C   0  0  0  0  0  0  0  0  0  0  0  0
   -3.4965    0.8466   -2.9408 C   0  0  0  0  0  0  0  0  0  0  0  0
   -2.2254    0.4036   -2.5397 C   0  0  0  0  0  0  0  0  0  0  0  0
   -1.8640    0.3285   -1.1943 C   0  0  0  0  0  0  0  0  0  0  0  0
   -2.8061    0.7233   -0.2162 C   0  0  0  0  0  0  0  0  0  0  0  0
   -0.5218   -0.1577   -1.1444 C   0  0  0  0  0  0  0  0  0  0  0  0
    0.2235   -0.3800    0.0565 C   0  0  0  0  0  0  0  0  0  0  0  0
    1.5230   -0.0840    0.2275 C   0  0  0  0  0  0  0  0  0  0  0  0
    2.2564   -0.2989    1.4789 C   0  0  0  0  0  0  0  0  0  0  0  0
    3.5725   -0.7536    1.4252 C   0  0  0  0  0  0  0  0  0  0  0  0
    4.2881   -0.9373    2.6031 C   0  0  0  0  0  0  0  0  0  0  0  0
    3.7218   -0.6715    3.8012 N   0  0  0  0  0  4  0  0  0  0  0  0
    4.5025   -0.8631    5.0352 C   0  0  0  0  0  0  0  0  0  0  0  0
    2.4556   -0.2051    3.8772 C   0  0  0  0  0  0  0  0  0  0  0  0
    1.7026   -0.0089    2.7251 C   0  0  0  0  0  0  0  0  0  0  0  0
   -0.1065   -0.4154   -2.4415 C   0  0  0  0  0  0  0  0  0  0  0  0
    1.1537   -1.0165   -2.9663 C   0  0  0  0  0  0  0  0  0  0  0  0
   -1.1342   -0.0153   -3.2767 N   0  0  0  0  0  0  0  0  0  0  0  0
   -1.0948   -0.0480   -4.7257 C   0  0  0  0  0  0  0  0  0  0  0  0
   -4.9578    2.6740    0.6316 H   0  0  0  0  0  0  0  0  0  0  0  0
   -6.1001    1.4098    0.1118 H   0  0  0  0  0  0  0  0  0  0  0  0
   -4.9264    1.0579    1.3792 H   0  0  0  0  0  0  0  0  0  0  0  0
   -5.3956    1.5750   -2.2593 H   0  0  0  0  0  0  0  0  0  0  0  0
   -3.7774    0.9020   -3.9877 H   0  0  0  0  0  0  0  0  0  0  0  0
   -2.5376    0.6870    0.8351 H   0  0  0  0  0  0  0  0  0  0  0  0
   -0.3496   -0.7913    0.8843 H   0  0  0  0  0  0  0  0  0  0  0  0
    2.0921    0.3429   -0.5963 H   0  0  0  0  0  0  0  0  0  0  0  0
    4.0453   -0.9752    0.4699 H   0  0  0  0  0  0  0  0  0  0  0  0
    5.3145   -1.2935    2.5967 H   0  0  0  0  0  0  0  0  0  0  0  0
    3.8242   -1.1264    5.8508 H   0  0  0  0  0  0  0  0  0  0  0  0
    5.2182   -1.6753    4.8841 H   0  0  0  0  0  0  0  0  0  0  0  0
    5.0185    0.0771    5.2451 H   0  0  0  0  0  0  0  0  0  0  0  0
    2.0557    0.0145    4.8633 H   0  0  0  0  0  0  0  0  0  0  0  0
    0.6908    0.3831    2.8098 H   0  0  0  0  0  0  0  0  0  0  0  0
    0.9590   -1.6668   -3.8251 H   0  0  0  0  0  0  0  0  0  0  0  0
    1.8493   -0.2297   -3.2746 H   0  0  0  0  0  0  0  0  0  0  0  0
    1.6463   -1.6357   -2.2106 H   0  0  0  0  0  0  0  0  0  0  0  0
   -1.7508    0.7257   -5.1306 H   0  0  0  0  0  0  0  0  0  0  0  0
   -1.4224   -1.0385   -5.0506 H   0  0  0  0  0  0  0  0  0  0  0  0
   -0.0760    0.1531   -5.0656 H   0  0  0  0  0  0  0  0  0  0  0  0
  1  2  1  0
  2  3  2  0
  3  4  1  0
  4  5  2  0
  5  6  1  0
  6  7  2  0
  6  8  1  0
  8  9  1  0
  9 10  2  3
 10 11  1  0
 11 12  2  0
 12 13  1  0
 13 14  2  0
 14 15  1  0
 14 16  1  0
 16 17  2  0
  8 18  2  0
 18 19  1  0
 18 20  1  0
 20 21  1  0
  7  2  1  0
 17 11  1  0
 20  5  1  0
  1 22  1  0
  1 23  1  0
  1 24  1  0
  3 25  1  0
  4 26  1  0
  7 27  1  0
  9 28  1  0
 10 29  1  0
 12 30  1  0
 13 31  1  0
 15 32  1  0
 15 33  1  0
 15 34  1  0
 16 35  1  0
 17 36  1  0
 19 37  1  0
 19 38  1  0
 19 39  1  0
 21 40  1  0
 21 41  1  0
 21 42  1  0
M  CHG  1  14   1
M  END
$$$$
