
     RDKit          3D

 55 60  0  0  0  0  0  0  0  0999 V2000
   -5.1013    0.1570    1.2674 O   0  0  0  0  0  0  0  0  0  0  0  0
   -4.3859    0.4999    0.3279 C   0  0  0  0  0  0  0  0  0  0  0  0
   -4.9806    0.9540   -0.9178 C   0  0  0  0  0  0  0  0  0  0  0  0
   -4.6217    0.6865   -2.2722 C   0  0  0  0  0  0  0  0  0  0  0  0
   -5.5426    1.3378   -3.0574 C   0  0  0  0  0  0  0  0  0  0  0  0
   -6.4631    1.9665   -2.2841 O   0  0  0  0  0  0  0  0  0  0  0  0
   -6.1330    1.7109   -0.9930 C   0  0  0  0  0  0  0  0  0  0  0  0
   -2.9938    0.4430    0.4121 N   0  0  0  0  0  0  0  0  0  0  0  0
   -2.4285   -0.2081    1.5873 C   0  0  0  0  0  0  0  0  0  0  0  0
   -0.8995   -0.2486    1.5718 C   0  0  0  0  0  0  0  0  0  0  0  0
   -0.3379   -0.5760    0.1632 C   0  0  0  0  0  0  0  0  0  0  0  0
   -0.9245    0.4010   -0.9008 C   0  0  0  0  0  0  0  0  0  0  0  0
   -2.0741    1.2547   -0.3685 C   0  0  0  0  0  0  0  0  0  0  0  0
   -0.8664   -1.9055   -0.1044 O   0  0  0  0  0  0  0  0  0  0  0  0
   -0.2403   -2.6660   -1.0459 C   0  0  0  0  0  0  0  0  0  0  0  0
   -0.9108   -3.8232   -1.4459 C   0  0  0  0  0  0  0  0  0  0  0  0
   -0.3532   -4.6532   -2.4213 C   0  0  0  0  0  0  0  0  0  0  0  0
    0.8734   -4.3213   -2.9884 C   0  0  0  0  0  0  0  0  0  0  0  0
    1.4069   -5.1202   -3.9222 F   0  0  0  0  0  0  0  0  0  0  0  0
    1.5560   -3.1782   -2.5954 C   0  0  0  0  0  0  0  0  0  0  0  0
    0.9936   -2.3596   -1.6116 C   0  0  0  0  0  0  0  0  0  0  0  0
    1.6993   -1.1582   -1.1504 C   0  0  0  0  0  0  0  0  0  0  0  0
    2.6044   -0.6855   -1.8321 O   0  0  0  0  0  0  0  0  0  0  0  0
    1.2183   -0.5721    0.1694 C   0  0  0  0  0  0  0  0  0  0  0  0
    1.8584    0.7830    0.4445 C   0  0  0  0  0  0  0  0  0  0  0  0
    2.8632    0.3821    1.4670 C   0  0  0  0  0  0  0  0  0  0  0  0
    3.8833    1.3289    1.9784 C   0  0  0  0  0  0  0  0  0  0  0  0
    4.7884    0.8874    2.9516 C   0  0  0  0  0  0  0  0  0  0  0  0
    5.7540    1.7568    3.4609 C   0  0  0  0  0  0  0  0  0  0  0  0
    5.8207    3.0708    3.0008 C   0  0  0  0  0  0  0  0  0  0  0  0
    4.9235    3.5165    2.0313 C   0  0  0  0  0  0  0  0  0  0  0  0
    3.9547    2.6494    1.5195 C   0  0  0  0  0  0  0  0  0  0  0  0
    2.7548   -0.8339    1.8944 N   0  0  0  0  0  0  0  0  0  0  0  0
    1.6915   -1.4488    1.2051 O   0  0  0  0  0  0  0  0  0  0  0  0
   -3.7999    0.0810   -2.6285 H   0  0  0  0  0  0  0  0  0  0  0  0
   -5.6854    1.4323   -4.1242 H   0  0  0  0  0  0  0  0  0  0  0  0
   -6.7965    2.1281   -0.2474 H   0  0  0  0  0  0  0  0  0  0  0  0
   -2.7693    0.3299    2.4786 H   0  0  0  0  0  0  0  0  0  0  0  0
   -2.8415   -1.2218    1.6449 H   0  0  0  0  0  0  0  0  0  0  0  0
   -0.5781   -0.9965    2.3071 H   0  0  0  0  0  0  0  0  0  0  0  0
   -0.5242    0.7187    1.9227 H   0  0  0  0  0  0  0  0  0  0  0  0
   -0.1578    1.0818   -1.2884 H   0  0  0  0  0  0  0  0  0  0  0  0
   -1.2949   -0.1676   -1.7633 H   0  0  0  0  0  0  0  0  0  0  0  0
   -1.6889    2.0397    0.2956 H   0  0  0  0  0  0  0  0  0  0  0  0
   -2.5659    1.7836   -1.1861 H   0  0  0  0  0  0  0  0  0  0  0  0
   -1.8701   -4.0780   -1.0009 H   0  0  0  0  0  0  0  0  0  0  0  0
   -0.8653   -5.5557   -2.7402 H   0  0  0  0  0  0  0  0  0  0  0  0
    2.5172   -2.9442   -3.0432 H   0  0  0  0  0  0  0  0  0  0  0  0
    1.1744    1.5091    0.8908 H   0  0  0  0  0  0  0  0  0  0  0  0
    2.3280    1.2435   -0.4279 H   0  0  0  0  0  0  0  0  0  0  0  0
    4.7491   -0.1362    3.3199 H   0  0  0  0  0  0  0  0  0  0  0  0
    6.4533    1.4063    4.2156 H   0  0  0  0  0  0  0  0  0  0  0  0
    6.5746    3.7468    3.3967 H   0  0  0  0  0  0  0  0  0  0  0  0
    4.9805    4.5422    1.6725 H   0  0  0  0  0  0  0  0  0  0  0  0
    3.2739    3.0292    0.7648 H   0  0  0  0  0  0  0  0  0  0  0  0
  1  2  2  0
  2  3  1  0
  3  4  1  0
  4  5  2  0
  5  6  1  0
  6  7  1  0
  2  8  1  0
  8  9  1  0
  9 10  1  0
 10 11  1  0
 11 12  1  0
 12 13  1  0
 11 14  1  0
 14 15  1  0
 15 16  2  0
 16 17  1  0
 17 18  2  0
 18 19  1  0
 18 20  1  0
 20 21  2  0
 21 22  1  0
 22 23  2  0
 22 24  1  0
 24 25  1  0
 25 26  1  0
 26 27  1  0
 27 28  2  0
 28 29  1  0
 29 30  2  0
 30 31  1  0
 31 32  2  0
 26 33  2  0
 33 34  1  0
  7  3  2  0
 13  8  1  0
 21 15  1  0
 34 24  1  0
 24 11  1  0
 32 27  1  0
  4 35  1  0
  5 36  1  0
  7 37  1  0
  9 38  1  0
  9 39  1  0
 10 40  1  0
 10 41  1  0
 12 42  1  0
 12 43  1  0
 13 44  1  0
 13 45  1  0
 16 46  1  0
 17 47  1  0
 20 48  1  0
 25 49  1  0
 25 50  1  0
 28 51  1  0
 29 52  1  0
 30 53  1  0
 31 54  1  0
 32 55  1  0
M  END
$$$$
