
     RDKit          3D

 46 49  0  0  0  0  0  0  0  0999 V2000
    2.9887    2.9804    0.9070 O   0  0  0  0  0  0  0  0  0  0  0  0
    2.9109    1.7722    0.7029 C   0  0  0  0  0  0  0  0  0  0  0  0
    3.4326    1.1667   -0.5931 C   0  0  0  0  0  0  0  0  0  0  0  0
    2.1194    1.0828   -1.8473 S   0  0  0  0  0  0  0  0  0  0  0  0
    1.1839   -0.2429   -1.2564 C   0  0  0  0  0  0  0  0  0  0  0  0
    1.5564   -1.0736   -0.3093 N   0  0  0  0  0  0  0  0  0  0  0  0
    0.5139   -1.9326   -0.0760 N   0  0  0  0  0  0  0  0  0  0  0  0
   -0.4712   -1.6211   -0.8984 C   0  0  0  0  0  0  0  0  0  0  0  0
   -1.8082   -2.2919   -0.9480 C   0  0  0  0  0  0  0  0  0  0  0  0
   -2.8767   -1.4993   -0.2408 C   0  0  0  0  0  0  0  0  0  0  0  0
   -2.8102   -0.8477    0.9797 C   0  0  0  0  0  0  0  0  0  0  0  0
   -4.0328   -0.2001    1.3178 C   0  0  0  0  0  0  0  0  0  0  0  0
   -4.9918   -0.3702    0.3428 C   0  0  0  0  0  0  0  0  0  0  0  0
   -4.4301   -1.3354   -0.9523 S   0  0  0  0  0  0  0  0  0  0  0  0
   -0.0762   -0.5602   -1.6877 N   0  0  0  0  0  0  0  0  0  0  0  0
   -0.8559    0.1114   -2.7100 C   0  0  0  0  0  0  0  0  0  0  0  0
   -0.4766   -0.3456   -4.0715 C   0  0  0  0  0  0  0  0  0  0  0  0
   -0.1073   -1.5587   -4.6206 C   0  0  0  0  0  0  0  0  0  0  0  0
    0.1235   -1.3232   -6.0001 C   0  0  0  0  0  0  0  0  0  0  0  0
   -0.1322    0.0108   -6.2088 C   0  0  0  0  0  0  0  0  0  0  0  0
   -0.5020    0.6098   -5.0475 O   0  0  0  0  0  0  0  0  0  0  0  0
    2.3643    0.8389    1.5687 N   0  0  0  0  0  0  0  0  0  0  0  0
    1.8726    1.0565    2.8730 C   0  0  0  0  0  0  0  0  0  0  0  0
    1.2020   -0.0122    3.4875 C   0  0  0  0  0  0  0  0  0  0  0  0
    0.6994    0.1097    4.7865 C   0  0  0  0  0  0  0  0  0  0  0  0
    0.8754    1.3002    5.4873 C   0  0  0  0  0  0  0  0  0  0  0  0
    1.5435    2.3624    4.8810 C   0  0  0  0  0  0  0  0  0  0  0  0
    1.7662    3.8327    5.7580 Cl  0  0  0  0  0  0  0  0  0  0  0  0
    2.0389    2.2483    3.5795 C   0  0  0  0  0  0  0  0  0  0  0  0
    3.8795    0.1829   -0.4122 H   0  0  0  0  0  0  0  0  0  0  0  0
    4.2327    1.8135   -0.9666 H   0  0  0  0  0  0  0  0  0  0  0  0
   -2.0762   -2.4864   -1.9934 H   0  0  0  0  0  0  0  0  0  0  0  0
   -1.7284   -3.2738   -0.4646 H   0  0  0  0  0  0  0  0  0  0  0  0
   -1.9207   -0.8296    1.6007 H   0  0  0  0  0  0  0  0  0  0  0  0
   -4.1925    0.3763    2.2208 H   0  0  0  0  0  0  0  0  0  0  0  0
   -6.0030    0.0155    0.3348 H   0  0  0  0  0  0  0  0  0  0  0  0
   -1.9163   -0.0886   -2.5397 H   0  0  0  0  0  0  0  0  0  0  0  0
   -0.7173    1.1905   -2.5906 H   0  0  0  0  0  0  0  0  0  0  0  0
   -0.0037   -2.4983   -4.0951 H   0  0  0  0  0  0  0  0  0  0  0  0
    0.4317   -2.0392   -6.7538 H   0  0  0  0  0  0  0  0  0  0  0  0
   -0.1004    0.6536   -7.0794 H   0  0  0  0  0  0  0  0  0  0  0  0
    2.1969   -0.0934    1.1776 H   0  0  0  0  0  0  0  0  0  0  0  0
    1.0616   -0.9555    2.9549 H   0  0  0  0  0  0  0  0  0  0  0  0
    0.1809   -0.7241    5.2540 H   0  0  0  0  0  0  0  0  0  0  0  0
    0.4936    1.3948    6.5027 H   0  0  0  0  0  0  0  0  0  0  0  0
    2.5614    3.0936    3.1474 H   0  0  0  0  0  0  0  0  0  0  0  0
  1  2  2  0
  2  3  1  0
  3  4  1  0
  4  5  1  0
  5  6  2  0
  6  7  1  0
  7  8  2  0
  8  9  1  0
  9 10  1  0
 10 11  2  0
 11 12  1  0
 12 13  2  0
 13 14  1  0
  8 15  1  0
 15 16  1  0
 16 17  1  0
 17 18  2  0
 18 19  1  0
 19 20  2  0
 20 21  1  0
  2 22  1  0
 22 23  1  0
 23 24  2  0
 24 25  1  0
 25 26  2  0
 26 27  1  0
 27 28  1  0
 27 29  2  0
 15  5  1  0
 21 17  1  0
 29 23  1  0
 14 10  1  0
  3 30  1  0
  3 31  1  0
  9 32  1  0
  9 33  1  0
 11 34  1  0
 12 35  1  0
 13 36  1  0
 16 37  1  0
 16 38  1  0
 18 39  1  0
 19 40  1  0
 20 41  1  0
 22 42  1  0
 24 43  1  0
 25 44  1  0
 26 45  1  0
 29 46  1  0
M  END
$$$$
