
     RDKit          3D

 60 63  0  0  0  0  0  0  0  0999 V2000
    8.0573   -0.5865   -3.1307 C   0  0  0  0  0  0  0  0  0  0  0  0
    6.9993   -1.5233   -2.9852 O   0  0  0  0  0  0  0  0  0  0  0  0
    6.2634   -1.4489   -1.8354 C   0  0  0  0  0  0  0  0  0  0  0  0
    6.5073   -0.5964   -0.7598 C   0  0  0  0  0  0  0  0  0  0  0  0
    5.6698   -0.6254    0.3617 C   0  0  0  0  0  0  0  0  0  0  0  0
    4.5820   -1.5088    0.4245 C   0  0  0  0  0  0  0  0  0  0  0  0
    3.6772   -1.5152    1.6263 C   0  0  0  0  0  0  0  0  0  0  0  0
    2.7158   -0.4447    1.5474 N   0  0  0  0  0  0  0  0  0  0  0  0
    2.8448    0.7298    2.2581 C   0  0  0  0  0  0  0  0  0  0  0  0
    3.8064    0.9501    2.9938 O   0  0  0  0  0  0  0  0  0  0  0  0
    1.8001    1.8082    1.9113 C   0  0  0  0  0  0  0  0  0  0  0  0
    1.7189    2.8851    2.9895 C   0  0  0  0  0  0  0  0  0  0  0  0
    0.4688    1.2476    1.6274 N   0  0  0  0  0  0  0  0  0  0  0  0
   -0.0855    0.4317    2.6261 N   0  0  0  0  0  0  0  0  0  0  0  0
   -1.2972   -0.0380    2.5249 C   0  0  0  0  0  0  0  0  0  0  0  0
   -1.8148   -0.9167    3.6272 C   0  0  0  0  0  0  0  0  0  0  0  0
   -2.0923    0.3042    1.3718 C   0  0  0  0  0  0  0  0  0  0  0  0
   -3.3969    0.0426    0.9860 C   0  0  0  0  0  0  0  0  0  0  0  0
   -4.5002   -0.6048    1.7431 C   0  0  0  0  0  0  0  0  0  0  0  0
   -3.5232    0.5929   -0.2956 N   0  0  0  0  0  0  0  0  0  0  0  0
   -4.5650    0.4645   -1.2647 C   0  0  0  0  0  0  0  0  0  0  0  0
   -5.4970   -0.5787   -1.2306 C   0  0  0  0  0  0  0  0  0  0  0  0
   -6.5034   -0.6614   -2.2023 C   0  0  0  0  0  0  0  0  0  0  0  0
   -6.5926    0.2899   -3.2246 C   0  0  0  0  0  0  0  0  0  0  0  0
   -7.6533    0.1802   -4.2783 C   0  0  0  0  0  0  0  0  0  0  0  0
   -5.6362    1.3072   -3.2855 C   0  0  0  0  0  0  0  0  0  0  0  0
   -4.6292    1.3924   -2.3177 C   0  0  0  0  0  0  0  0  0  0  0  0
   -2.4399    1.3566   -0.6038 N   0  0  0  0  0  0  0  0  0  0  0  0
   -1.5618    1.1279    0.3743 C   0  0  0  0  0  0  0  0  0  0  0  0
   -0.2136    1.6723    0.4668 C   0  0  0  0  0  0  0  0  0  0  0  0
    0.2764    2.4189   -0.3767 O   0  0  0  0  0  0  0  0  0  0  0  0
    4.3387   -2.3563   -0.6623 C   0  0  0  0  0  0  0  0  0  0  0  0
    5.1781   -2.3277   -1.7790 C   0  0  0  0  0  0  0  0  0  0  0  0
    8.8304   -0.7424   -2.3710 H   0  0  0  0  0  0  0  0  0  0  0  0
    7.6819    0.4412   -3.1091 H   0  0  0  0  0  0  0  0  0  0  0  0
    8.5169   -0.7521   -4.1121 H   0  0  0  0  0  0  0  0  0  0  0  0
    7.3379    0.1022   -0.7558 H   0  0  0  0  0  0  0  0  0  0  0  0
    5.8681    0.0527    1.1917 H   0  0  0  0  0  0  0  0  0  0  0  0
    4.2685   -1.4434    2.5447 H   0  0  0  0  0  0  0  0  0  0  0  0
    3.1166   -2.4548    1.6775 H   0  0  0  0  0  0  0  0  0  0  0  0
    1.9293   -0.5430    0.9187 H   0  0  0  0  0  0  0  0  0  0  0  0
    2.1824    2.2822    0.9989 H   0  0  0  0  0  0  0  0  0  0  0  0
    2.6885    3.3722    3.1290 H   0  0  0  0  0  0  0  0  0  0  0  0
    1.4193    2.4618    3.9539 H   0  0  0  0  0  0  0  0  0  0  0  0
    0.9868    3.6531    2.7192 H   0  0  0  0  0  0  0  0  0  0  0  0
   -0.9906   -1.2555    4.2576 H   0  0  0  0  0  0  0  0  0  0  0  0
   -2.5147   -0.3498    4.2453 H   0  0  0  0  0  0  0  0  0  0  0  0
   -2.3145   -1.7946    3.2118 H   0  0  0  0  0  0  0  0  0  0  0  0
   -4.4883   -1.6884    1.5961 H   0  0  0  0  0  0  0  0  0  0  0  0
   -4.3994   -0.4122    2.8139 H   0  0  0  0  0  0  0  0  0  0  0  0
   -5.4810   -0.2095    1.4688 H   0  0  0  0  0  0  0  0  0  0  0  0
   -5.4542   -1.3714   -0.4948 H   0  0  0  0  0  0  0  0  0  0  0  0
   -7.2134   -1.4852   -2.1614 H   0  0  0  0  0  0  0  0  0  0  0  0
   -8.5496   -0.3087   -3.8824 H   0  0  0  0  0  0  0  0  0  0  0  0
   -7.9529    1.1724   -4.6315 H   0  0  0  0  0  0  0  0  0  0  0  0
   -7.2800   -0.4019   -5.1268 H   0  0  0  0  0  0  0  0  0  0  0  0
   -5.6633    2.0419   -4.0863 H   0  0  0  0  0  0  0  0  0  0  0  0
   -3.9057    2.2034   -2.3950 H   0  0  0  0  0  0  0  0  0  0  0  0
    3.4974   -3.0461   -0.6501 H   0  0  0  0  0  0  0  0  0  0  0  0
    4.9815   -2.9933   -2.6164 H   0  0  0  0  0  0  0  0  0  0  0  0
  1  2  1  0
  2  3  1  0
  3  4  2  0
  4  5  1  0
  5  6  2  0
  6  7  1  0
  7  8  1  0
  8  9  1  0
  9 10  2  0
  9 11  1  0
 11 12  1  0
 11 13  1  0
 13 14  1  0
 14 15  2  0
 15 16  1  0
 15 17  1  0
 17 18  2  0
 18 19  1  0
 18 20  1  0
 20 21  1  0
 21 22  2  0
 22 23  1  0
 23 24  2  0
 24 25  1  0
 24 26  1  0
 26 27  2  0
 20 28  1  0
 28 29  2  0
 29 30  1  0
 30 31  2  0
  6 32  1  0
 32 33  2  0
 33  3  1  0
 30 13  1  0
 29 17  1  0
 27 21  1  0
  1 34  1  0
  1 35  1  0
  1 36  1  0
  4 37  1  0
  5 38  1  0
  7 39  1  0
  7 40  1  0
  8 41  1  0
 11 42  1  0
 12 43  1  0
 12 44  1  0
 12 45  1  0
 16 46  1  0
 16 47  1  0
 16 48  1  0
 19 49  1  0
 19 50  1  0
 19 51  1  0
 22 52  1  0
 23 53  1  0
 25 54  1  0
 25 55  1  0
 25 56  1  0
 26 57  1  0
 27 58  1  0
 32 59  1  0
 33 60  1  0
M  END
$$$$
