
     RDKit          3D

 63 65  0  0  0  0  0  0  0  0999 V2000
    1.8956    2.0588    5.7072 C   0  0  0  0  0  0  0  0  0  0  0  0
    2.1180    2.2398    4.3140 O   0  0  0  0  0  0  0  0  0  0  0  0
    1.2190    3.0208    3.6412 C   0  0  0  0  0  0  0  0  0  0  0  0
    0.0968    3.6398    4.1905 C   0  0  0  0  0  0  0  0  0  0  0  0
   -0.7487    4.4038    3.3823 C   0  0  0  0  0  0  0  0  0  0  0  0
   -0.4793    4.5524    2.0218 C   0  0  0  0  0  0  0  0  0  0  0  0
    0.6423    3.9371    1.4541 C   0  0  0  0  0  0  0  0  0  0  0  0
    0.9189    4.0424   -0.0241 C   0  0  0  0  0  0  0  0  0  0  0  0
    0.4402    2.8759   -0.7735 N   0  0  0  0  0  0  0  0  0  0  0  0
   -1.0037    2.8016   -1.0571 C   0  0  0  0  0  0  0  0  0  0  0  0
   -1.8603    2.0294   -0.0399 C   0  0  0  0  0  0  0  0  0  0  0  0
   -3.0884    2.0582   -0.0913 O   0  0  0  0  0  0  0  0  0  0  0  0
   -1.1638    1.2427    0.8498 N   0  0  0  0  0  0  0  0  0  0  0  0
   -1.8295    0.5256    1.9210 C   0  0  0  0  0  0  0  0  0  0  0  0
   -2.6690   -0.6657    1.4514 C   0  0  0  0  0  0  0  0  0  0  0  0
   -1.8997   -1.6750    0.6125 C   0  0  0  0  0  0  0  0  0  0  0  0
   -2.7308   -2.9171    0.8046 C   0  0  0  0  0  0  0  0  0  0  0  0
   -3.1489   -2.8026    2.2556 C   0  0  0  0  0  0  0  0  0  0  0  0
   -3.1518   -1.4067    2.5909 O   0  0  0  0  0  0  0  0  0  0  0  0
    1.3618    1.9155   -1.1730 C   0  0  0  0  0  0  0  0  0  0  0  0
    2.5551    1.9975   -0.8812 O   0  0  0  0  0  0  0  0  0  0  0  0
    0.8451    0.7479   -1.9944 C   0  0  0  0  0  0  0  0  0  0  0  0
    1.9277   -0.3057   -2.2122 C   0  0  0  0  0  0  0  0  0  0  0  0
    1.3962   -1.5036   -2.9731 C   0  0  0  0  0  0  0  0  0  0  0  0
    0.2429   -1.5578   -3.3877 O   0  0  0  0  0  0  0  0  0  0  0  0
    2.3528   -2.4809   -3.1247 N   0  0  0  0  0  0  0  0  0  0  0  0
    2.1655   -3.6857   -3.7648 C   0  0  0  0  0  0  0  0  0  0  0  0
    1.0210   -4.1888   -4.4227 C   0  0  0  0  0  0  0  0  0  0  0  0
    1.3974   -5.4306   -4.8693 C   0  0  0  0  0  0  0  0  0  0  0  0
    0.7232   -6.5029   -5.6208 C   0  0  0  0  0  0  0  0  0  0  0  0
    2.6843   -5.6628   -4.5028 O   0  0  0  0  0  0  0  0  0  0  0  0
    3.1697   -4.5683   -3.8107 N   0  0  0  0  0  0  0  0  0  0  0  0
    1.4868    3.1758    2.2779 C   0  0  0  0  0  0  0  0  0  0  0  0
    0.9402    1.5567    5.8927 H   0  0  0  0  0  0  0  0  0  0  0  0
    1.9522    3.0123    6.2422 H   0  0  0  0  0  0  0  0  0  0  0  0
    2.6901    1.4123    6.0917 H   0  0  0  0  0  0  0  0  0  0  0  0
   -0.1506    3.5476    5.2427 H   0  0  0  0  0  0  0  0  0  0  0  0
   -1.6249    4.8801    3.8157 H   0  0  0  0  0  0  0  0  0  0  0  0
   -1.1572    5.1435    1.4108 H   0  0  0  0  0  0  0  0  0  0  0  0
    1.9968    4.1795   -0.1740 H   0  0  0  0  0  0  0  0  0  0  0  0
    0.4497    4.9407   -0.4440 H   0  0  0  0  0  0  0  0  0  0  0  0
   -1.1592    2.3294   -2.0315 H   0  0  0  0  0  0  0  0  0  0  0  0
   -1.3966    3.8224   -1.1227 H   0  0  0  0  0  0  0  0  0  0  0  0
   -0.1954    1.4984    1.0071 H   0  0  0  0  0  0  0  0  0  0  0  0
   -1.0526    0.1861    2.6169 H   0  0  0  0  0  0  0  0  0  0  0  0
   -2.4598    1.2303    2.4781 H   0  0  0  0  0  0  0  0  0  0  0  0
   -3.5498   -0.3184    0.8981 H   0  0  0  0  0  0  0  0  0  0  0  0
   -0.8947   -1.8377    1.0175 H   0  0  0  0  0  0  0  0  0  0  0  0
   -1.8063   -1.3787   -0.4353 H   0  0  0  0  0  0  0  0  0  0  0  0
   -3.6147   -2.8776    0.1588 H   0  0  0  0  0  0  0  0  0  0  0  0
   -2.1947   -3.8442    0.5860 H   0  0  0  0  0  0  0  0  0  0  0  0
   -4.1414   -3.2246    2.4377 H   0  0  0  0  0  0  0  0  0  0  0  0
   -2.4330   -3.3020    2.9163 H   0  0  0  0  0  0  0  0  0  0  0  0
   -0.0043    0.2876   -1.4813 H   0  0  0  0  0  0  0  0  0  0  0  0
    0.5047    1.1284   -2.9640 H   0  0  0  0  0  0  0  0  0  0  0  0
    2.7644    0.1221   -2.7780 H   0  0  0  0  0  0  0  0  0  0  0  0
    2.3133   -0.6533   -1.2454 H   0  0  0  0  0  0  0  0  0  0  0  0
    3.2762   -2.3651   -2.7319 H   0  0  0  0  0  0  0  0  0  0  0  0
    0.0582   -3.7183   -4.5569 H   0  0  0  0  0  0  0  0  0  0  0  0
   -0.2918   -6.2082   -5.9009 H   0  0  0  0  0  0  0  0  0  0  0  0
    0.6561   -7.4112   -5.0152 H   0  0  0  0  0  0  0  0  0  0  0  0
    1.2750   -6.7372   -6.5352 H   0  0  0  0  0  0  0  0  0  0  0  0
    2.3639    2.6881    1.8522 H   0  0  0  0  0  0  0  0  0  0  0  0
  1  2  1  0
  2  3  1  0
  3  4  2  0
  4  5  1  0
  5  6  2  0
  6  7  1  0
  7  8  1  0
  8  9  1  0
  9 10  1  0
 10 11  1  0
 11 12  2  0
 11 13  1  0
 13 14  1  0
 14 15  1  0
 15 16  1  0
 16 17  1  0
 17 18  1  0
 18 19  1  0
  9 20  1  0
 20 21  2  0
 20 22  1  0
 22 23  1  0
 23 24  1  0
 24 25  2  0
 24 26  1  0
 26 27  1  0
 27 28  1  0
 28 29  2  0
 29 30  1  0
 29 31  1  0
 31 32  1  0
  7 33  2  0
 33  3  1  0
 19 15  1  0
 32 27  2  0
  1 34  1  0
  1 35  1  0
  1 36  1  0
  4 37  1  0
  5 38  1  0
  6 39  1  0
  8 40  1  0
  8 41  1  0
 10 42  1  0
 10 43  1  0
 13 44  1  0
 14 45  1  0
 14 46  1  0
 15 47  1  0
 16 48  1  0
 16 49  1  0
 17 50  1  0
 17 51  1  0
 18 52  1  0
 18 53  1  0
 22 54  1  0
 22 55  1  0
 23 56  1  0
 23 57  1  0
 26 58  1  0
 28 59  1  0
 30 60  1  0
 30 61  1  0
 30 62  1  0
 33 63  1  0
M  END
$$$$
