
     RDKit          3D

 43 45  0  0  0  0  0  0  0  0999 V2000
    5.0585   -0.1279   -3.4702 C   0  0  0  0  0  0  0  0  0  0  0  0
    5.3387   -0.2576   -2.0820 O   0  0  0  0  0  0  0  0  0  0  0  0
    4.2729   -0.2162   -1.2259 C   0  0  0  0  0  0  0  0  0  0  0  0
    2.9371   -0.0629   -1.5881 C   0  0  0  0  0  0  0  0  0  0  0  0
    1.9403   -0.0313   -0.6064 C   0  0  0  0  0  0  0  0  0  0  0  0
    2.2603   -0.1483    0.7515 C   0  0  0  0  0  0  0  0  0  0  0  0
    1.2972   -0.0616    1.7879 N   0  0  0  0  0  0  0  0  0  0  0  0
   -0.0382    0.2015    1.6978 C   0  0  0  0  0  0  0  0  0  0  0  0
   -0.8815   -0.4943    2.3973 N   0  0  0  0  0  0  0  0  0  0  0  0
   -2.1947   -0.0937    2.2586 C   0  0  0  0  0  0  0  0  0  0  0  0
   -3.1048   -0.6096    2.8983 O   0  0  0  0  0  0  0  0  0  0  0  0
   -2.5716    1.0528    1.3181 C   0  0  0  0  0  0  0  0  0  0  0  0
   -4.0302    1.3771    1.1467 C   0  0  0  0  0  0  0  0  0  0  0  0
   -4.7070    0.4589    0.1594 C   0  0  0  0  0  0  0  0  0  0  0  0
   -5.5283   -0.5835    0.6073 C   0  0  0  0  0  0  0  0  0  0  0  0
   -6.1462   -1.4388   -0.3047 C   0  0  0  0  0  0  0  0  0  0  0  0
   -5.9403   -1.2673   -1.6716 C   0  0  0  0  0  0  0  0  0  0  0  0
   -5.1178   -0.2392   -2.1280 C   0  0  0  0  0  0  0  0  0  0  0  0
   -4.5024    0.6211   -1.2188 C   0  0  0  0  0  0  0  0  0  0  0  0
   -1.6519    1.7257    0.6825 N   0  0  0  0  0  0  0  0  0  0  0  0
   -0.3885    1.2746    0.9117 N   0  0  0  0  0  0  0  0  0  0  0  0
    3.6189   -0.2951    1.1125 C   0  0  0  0  0  0  0  0  0  0  0  0
    3.8597   -0.4168    2.4613 O   0  0  0  0  0  0  0  0  0  0  0  0
    5.2002   -0.1969    2.8873 C   0  0  0  0  0  0  0  0  0  0  0  0
    4.6080   -0.3417    0.1254 C   0  0  0  0  0  0  0  0  0  0  0  0
    4.5904    0.8385   -3.6896 H   0  0  0  0  0  0  0  0  0  0  0  0
    4.4369   -0.9565   -3.8236 H   0  0  0  0  0  0  0  0  0  0  0  0
    6.0100   -0.1667   -4.0096 H   0  0  0  0  0  0  0  0  0  0  0  0
    2.6319    0.0256   -2.6259 H   0  0  0  0  0  0  0  0  0  0  0  0
    0.9083    0.0578   -0.9338 H   0  0  0  0  0  0  0  0  0  0  0  0
    1.5370   -0.7111    2.5335 H   0  0  0  0  0  0  0  0  0  0  0  0
   -4.1251    2.4132    0.7950 H   0  0  0  0  0  0  0  0  0  0  0  0
   -4.5325    1.3464    2.1213 H   0  0  0  0  0  0  0  0  0  0  0  0
   -5.6893   -0.7405    1.6728 H   0  0  0  0  0  0  0  0  0  0  0  0
   -6.7850   -2.2412    0.0553 H   0  0  0  0  0  0  0  0  0  0  0  0
   -6.4169   -1.9370   -2.3801 H   0  0  0  0  0  0  0  0  0  0  0  0
   -4.9531   -0.1112   -3.1951 H   0  0  0  0  0  0  0  0  0  0  0  0
   -3.8621    1.4192   -1.5885 H   0  0  0  0  0  0  0  0  0  0  0  0
    0.3801    1.8449    0.5640 H   0  0  0  0  0  0  0  0  0  0  0  0
    5.8424   -1.0316    2.5898 H   0  0  0  0  0  0  0  0  0  0  0  0
    5.5873    0.7552    2.5084 H   0  0  0  0  0  0  0  0  0  0  0  0
    5.1978   -0.1522    3.9803 H   0  0  0  0  0  0  0  0  0  0  0  0
    5.6537   -0.4820    0.3748 H   0  0  0  0  0  0  0  0  0  0  0  0
  1  2  1  0
  2  3  1  0
  3  4  2  0
  4  5  1  0
  5  6  2  0
  6  7  1  0
  7  8  1  0
  8  9  2  0
  9 10  1  0
 10 11  2  0
 10 12  1  0
 12 13  1  0
 13 14  1  0
 14 15  2  0
 15 16  1  0
 16 17  2  0
 17 18  1  0
 18 19  2  0
 12 20  2  0
 20 21  1  0
  6 22  1  0
 22 23  1  0
 23 24  1  0
 22 25  2  0
 25  3  1  0
 21  8  1  0
 19 14  1  0
  1 26  1  0
  1 27  1  0
  1 28  1  0
  4 29  1  0
  5 30  1  0
  7 31  1  0
 13 32  1  0
 13 33  1  0
 15 34  1  0
 16 35  1  0
 17 36  1  0
 18 37  1  0
 19 38  1  0
 21 39  1  0
 24 40  1  0
 24 41  1  0
 24 42  1  0
 25 43  1  0
M  END
$$$$
