
     RDKit          3D

 36 37  0  0  0  0  0  0  0  0999 V2000
   -0.6048   -0.2664   -2.0741 C   0  0  0  0  0  0  0  0  0  0  0  0
   -1.5056    0.7766   -1.4176 C   0  0  0  0  0  0  0  0  0  0  0  0
   -2.2325    0.3783   -0.2102 N   0  0  0  0  0  0  0  0  0  0  0  0
   -2.9300   -0.9060   -0.2655 C   0  0  0  0  0  0  0  0  0  0  0  0
   -4.0254   -0.9689   -1.3425 C   0  0  0  0  0  0  0  0  0  0  0  0
   -4.7566   -2.1890   -1.2374 O   0  0  0  0  0  0  0  0  0  0  0  0
   -1.5495    0.6549    1.0588 C   0  0  0  0  0  0  0  0  0  0  0  0
   -0.3232   -0.1790    1.3108 C   0  0  0  0  0  0  0  0  0  0  0  0
   -0.3549   -1.4774    1.7854 C   0  0  0  0  0  0  0  0  0  0  0  0
    1.1897   -2.1583    1.9838 S   0  0  0  0  0  0  0  0  0  0  0  0
    1.9711   -0.7104    1.4866 C   0  0  0  0  0  0  0  0  0  0  0  0
    3.3624   -0.4935    1.4014 C   0  0  0  0  0  0  0  0  0  0  0  0
    3.8441    0.7567    0.9922 C   0  0  0  0  0  0  0  0  0  0  0  0
    5.3215    0.9894    0.8668 C   0  0  0  0  0  0  0  0  0  0  0  0
    2.9413    1.7589    0.6506 C   0  0  0  0  0  0  0  0  0  0  0  0
    1.5619    1.5375    0.7349 C   0  0  0  0  0  0  0  0  0  0  0  0
    1.0464    0.2851    1.1584 C   0  0  0  0  0  0  0  0  0  0  0  0
   -1.1761   -1.1235   -2.4426 H   0  0  0  0  0  0  0  0  0  0  0  0
    0.1678   -0.6377   -1.3989 H   0  0  0  0  0  0  0  0  0  0  0  0
   -0.0985    0.1787   -2.9374 H   0  0  0  0  0  0  0  0  0  0  0  0
   -0.9193    1.6826   -1.2212 H   0  0  0  0  0  0  0  0  0  0  0  0
   -2.2454    1.0908   -2.1648 H   0  0  0  0  0  0  0  0  0  0  0  0
   -2.2383   -1.7455   -0.4041 H   0  0  0  0  0  0  0  0  0  0  0  0
   -3.4241   -1.0958    0.6969 H   0  0  0  0  0  0  0  0  0  0  0  0
   -4.7318   -0.1385   -1.2370 H   0  0  0  0  0  0  0  0  0  0  0  0
   -3.5994   -0.9283   -2.3489 H   0  0  0  0  0  0  0  0  0  0  0  0
   -5.2466   -2.1589   -0.3979 H   0  0  0  0  0  0  0  0  0  0  0  0
   -1.2992    1.7216    1.1063 H   0  0  0  0  0  0  0  0  0  0  0  0
   -2.2540    0.5083    1.8889 H   0  0  0  0  0  0  0  0  0  0  0  0
   -1.2288   -2.0703    2.0176 H   0  0  0  0  0  0  0  0  0  0  0  0
    4.0513   -1.2947    1.6568 H   0  0  0  0  0  0  0  0  0  0  0  0
    5.6602    0.7106   -0.1357 H   0  0  0  0  0  0  0  0  0  0  0  0
    5.8740    0.3982    1.6048 H   0  0  0  0  0  0  0  0  0  0  0  0
    5.5681    2.0415    1.0442 H   0  0  0  0  0  0  0  0  0  0  0  0
    3.2995    2.7294    0.3131 H   0  0  0  0  0  0  0  0  0  0  0  0
    0.8849    2.3431    0.4630 H   0  0  0  0  0  0  0  0  0  0  0  0
  1  2  1  0
  2  3  1  0
  3  4  1  0
  4  5  1  0
  5  6  1  0
  3  7  1  0
  7  8  1  0
  8  9  2  0
  9 10  1  0
 10 11  1  0
 11 12  2  0
 12 13  1  0
 13 14  1  0
 13 15  2  0
 15 16  1  0
 16 17  2  0
 17  8  1  0
 17 11  1  0
  1 18  1  0
  1 19  1  0
  1 20  1  0
  2 21  1  0
  2 22  1  0
  4 23  1  0
  4 24  1  0
  5 25  1  0
  5 26  1  0
  6 27  1  0
  7 28  1  0
  7 29  1  0
  9 30  1  0
 12 31  1  0
 14 32  1  0
 14 33  1  0
 14 34  1  0
 15 35  1  0
 16 36  1  0
M  END
$$$$
