
     RDKit          3D

 43 45  0  0  0  0  0  0  0  0999 V2000
   -4.9981   -0.5165    2.6212 C   0  0  0  0  0  0  0  0  0  0  0  0
   -5.2612   -0.7134    1.1959 N   0  0  0  0  0  0  0  0  0  0  0  0
   -5.9463   -1.9573    0.8496 C   0  0  0  0  0  0  0  0  0  0  0  0
   -4.3813   -0.1377    0.2699 C   0  0  0  0  0  0  0  0  0  0  0  0
   -4.3013   -0.5759   -1.0644 C   0  0  0  0  0  0  0  0  0  0  0  0
   -3.4305    0.0092   -1.9967 C   0  0  0  0  0  0  0  0  0  0  0  0
   -2.6073    1.0679   -1.6244 C   0  0  0  0  0  0  0  0  0  0  0  0
   -1.7133    1.6794   -2.6105 C   0  0  0  0  0  0  0  0  0  0  0  0
   -0.3698    1.6650   -2.5926 C   0  0  0  0  0  0  0  0  0  0  0  0
    0.4694    1.0137   -1.6024 C   0  0  0  0  0  0  0  0  0  0  0  0
    1.8102    1.0230   -1.5606 C   0  0  0  0  0  0  0  0  0  0  0  0
    2.8884    1.8015   -2.6371 S   0  0  0  0  0  0  0  0  0  0  0  0
    4.3179    1.1601   -1.8247 C   0  0  0  0  0  0  0  0  0  0  0  0
    5.8233    1.3685   -2.5298 S   0  0  0  0  0  0  0  0  0  0  0  0
    3.9414    0.4610   -0.6821 N   0  0  0  0  0  0  0  0  0  0  0  0
    4.8573   -0.1103    0.2643 C   0  0  0  0  0  0  0  0  0  0  0  0
    4.6011   -1.3644    0.8428 C   0  0  0  0  0  0  0  0  0  0  0  0
    5.4817   -1.9273    1.7723 C   0  0  0  0  0  0  0  0  0  0  0  0
    6.6307   -1.2406    2.1497 C   0  0  0  0  0  0  0  0  0  0  0  0
    6.8942    0.0115    1.6042 C   0  0  0  0  0  0  0  0  0  0  0  0
    6.0127    0.5731    0.6739 C   0  0  0  0  0  0  0  0  0  0  0  0
    2.5662    0.3191   -0.4862 C   0  0  0  0  0  0  0  0  0  0  0  0
    1.9921   -0.2543    0.4326 O   0  0  0  0  0  0  0  0  0  0  0  0
   -2.6823    1.5445   -0.3181 C   0  0  0  0  0  0  0  0  0  0  0  0
   -3.5546    0.9499    0.6060 C   0  0  0  0  0  0  0  0  0  0  0  0
   -3.9979   -0.8737    2.8914 H   0  0  0  0  0  0  0  0  0  0  0  0
   -5.7203   -1.0631    3.2382 H   0  0  0  0  0  0  0  0  0  0  0  0
   -5.1011    0.5370    2.9021 H   0  0  0  0  0  0  0  0  0  0  0  0
   -5.2301   -2.7708    0.6862 H   0  0  0  0  0  0  0  0  0  0  0  0
   -6.6269   -2.2695    1.6500 H   0  0  0  0  0  0  0  0  0  0  0  0
   -6.5717   -1.8312   -0.0412 H   0  0  0  0  0  0  0  0  0  0  0  0
   -4.9172   -1.3950   -1.4223 H   0  0  0  0  0  0  0  0  0  0  0  0
   -3.4061   -0.3784   -3.0121 H   0  0  0  0  0  0  0  0  0  0  0  0
   -2.2240    2.1806   -3.4311 H   0  0  0  0  0  0  0  0  0  0  0  0
    0.1345    2.1784   -3.4102 H   0  0  0  0  0  0  0  0  0  0  0  0
   -0.0557    0.4587   -0.8240 H   0  0  0  0  0  0  0  0  0  0  0  0
    3.7216   -1.9419    0.5658 H   0  0  0  0  0  0  0  0  0  0  0  0
    5.2650   -2.9032    2.1999 H   0  0  0  0  0  0  0  0  0  0  0  0
    7.3143   -1.6763    2.8738 H   0  0  0  0  0  0  0  0  0  0  0  0
    7.7819    0.5610    1.9089 H   0  0  0  0  0  0  0  0  0  0  0  0
    6.2356    1.5754    0.3176 H   0  0  0  0  0  0  0  0  0  0  0  0
   -2.0696    2.3851   -0.0013 H   0  0  0  0  0  0  0  0  0  0  0  0
   -3.5728    1.3774    1.6038 H   0  0  0  0  0  0  0  0  0  0  0  0
  1  2  1  0
  2  3  1  0
  2  4  1  0
  4  5  2  0
  5  6  1  0
  6  7  2  0
  7  8  1  0
  8  9  2  3
  9 10  1  0
 10 11  2  3
 11 12  1  0
 12 13  1  0
 13 14  2  0
 13 15  1  0
 15 16  1  0
 16 17  2  0
 17 18  1  0
 18 19  2  0
 19 20  1  0
 20 21  2  0
 15 22  1  0
 22 23  2  0
  7 24  1  0
 24 25  2  0
 25  4  1  0
 22 11  1  0
 21 16  1  0
  1 26  1  0
  1 27  1  0
  1 28  1  0
  3 29  1  0
  3 30  1  0
  3 31  1  0
  5 32  1  0
  6 33  1  0
  8 34  1  0
  9 35  1  0
 10 36  1  0
 17 37  1  0
 18 38  1  0
 19 39  1  0
 20 40  1  0
 21 41  1  0
 24 42  1  0
 25 43  1  0
M  END
$$$$
