
     RDKit          3D

 48 51  0  0  0  0  0  0  0  0999 V2000
    3.3965    2.9809    0.1420 C   0  0  0  0  0  0  0  0  0  0  0  0
    3.3414    2.0944   -1.0932 C   0  0  0  0  0  0  0  0  0  0  0  0
    2.9875    0.7243   -0.7332 N   0  0  0  0  0  0  0  0  0  0  0  0
    1.7073    0.1699   -0.6455 C   0  0  0  0  0  0  0  0  0  0  0  0
    0.5426    0.8174   -0.8424 C   0  0  0  0  0  0  0  0  0  0  0  0
   -0.7937    0.2135   -0.7529 C   0  0  0  0  0  0  0  0  0  0  0  0
   -1.3102   -0.3794   -1.9048 C   0  0  0  0  0  0  0  0  0  0  0  0
   -2.5663   -0.9537   -1.8842 C   0  0  0  0  0  0  0  0  0  0  0  0
   -3.3123   -0.9217   -0.7129 C   0  0  0  0  0  0  0  0  0  0  0  0
   -4.5934   -1.4959   -0.6946 C   0  0  0  0  0  0  0  0  0  0  0  0
   -5.3751   -1.4804    0.4633 C   0  0  0  0  0  0  0  0  0  0  0  0
   -6.7566   -2.0702    0.4582 C   0  0  0  0  0  0  0  0  0  0  0  0
   -4.8756   -0.8556    1.6037 C   0  0  0  0  0  0  0  0  0  0  0  0
   -3.5985   -0.2812    1.5999 C   0  0  0  0  0  0  0  0  0  0  0  0
   -2.7803   -0.3065    0.4536 C   0  0  0  0  0  0  0  0  0  0  0  0
   -1.5165    0.2405    0.4078 N   0  0  0  0  0  4  0  0  0  0  0  0
   -0.9093    0.8431    1.6332 C   0  0  0  0  0  0  0  0  0  0  0  0
   -1.2997    2.3059    1.7335 C   0  0  0  0  0  0  0  0  0  0  0  0
    1.7000   -1.5552   -0.1749 S   0  0  0  0  0  0  0  0  0  0  0  0
    3.4823   -1.4893   -0.0592 C   0  0  0  0  0  0  0  0  0  0  0  0
    4.3078   -2.5429    0.3086 C   0  0  0  0  0  0  0  0  0  0  0  0
    5.6818   -2.3194    0.3608 C   0  0  0  0  0  0  0  0  0  0  0  0
    6.2035   -1.0580    0.0498 C   0  0  0  0  0  0  0  0  0  0  0  0
    5.3598   -0.0023   -0.3207 C   0  0  0  0  0  0  0  0  0  0  0  0
    3.9858   -0.2090   -0.3823 C   0  0  0  0  0  0  0  0  0  0  0  0
    4.1538    2.6314    0.8510 H   0  0  0  0  0  0  0  0  0  0  0  0
    3.6444    4.0087   -0.1405 H   0  0  0  0  0  0  0  0  0  0  0  0
    2.4330    2.9943    0.6624 H   0  0  0  0  0  0  0  0  0  0  0  0
    4.2933    2.1379   -1.6342 H   0  0  0  0  0  0  0  0  0  0  0  0
    2.6039    2.5030   -1.7942 H   0  0  0  0  0  0  0  0  0  0  0  0
    0.5375    1.8684   -1.1131 H   0  0  0  0  0  0  0  0  0  0  0  0
   -0.7270   -0.4058   -2.8247 H   0  0  0  0  0  0  0  0  0  0  0  0
   -2.9538   -1.4215   -2.7889 H   0  0  0  0  0  0  0  0  0  0  0  0
   -4.9969   -1.9650   -1.5933 H   0  0  0  0  0  0  0  0  0  0  0  0
   -7.0328   -2.4269    1.4560 H   0  0  0  0  0  0  0  0  0  0  0  0
   -7.4831   -1.3173    0.1377 H   0  0  0  0  0  0  0  0  0  0  0  0
   -6.8114   -2.9284   -0.2199 H   0  0  0  0  0  0  0  0  0  0  0  0
   -5.4808   -0.8110    2.5095 H   0  0  0  0  0  0  0  0  0  0  0  0
   -3.2919    0.1906    2.5281 H   0  0  0  0  0  0  0  0  0  0  0  0
   -1.2229    0.2685    2.5086 H   0  0  0  0  0  0  0  0  0  0  0  0
    0.1767    0.7348    1.6056 H   0  0  0  0  0  0  0  0  0  0  0  0
   -0.9455    2.8707    0.8656 H   0  0  0  0  0  0  0  0  0  0  0  0
   -2.3851    2.4311    1.7866 H   0  0  0  0  0  0  0  0  0  0  0  0
   -0.8617    2.7530    2.6311 H   0  0  0  0  0  0  0  0  0  0  0  0
    3.9005   -3.5195    0.5496 H   0  0  0  0  0  0  0  0  0  0  0  0
    6.3538   -3.1271    0.6438 H   0  0  0  0  0  0  0  0  0  0  0  0
    7.2792   -0.8971    0.0955 H   0  0  0  0  0  0  0  0  0  0  0  0
    5.8080    0.9583   -0.5497 H   0  0  0  0  0  0  0  0  0  0  0  0
  1  2  1  0
  2  3  1  0
  3  4  1  0
  4  5  2  3
  5  6  1  0
  6  7  2  0
  7  8  1  0
  8  9  2  0
  9 10  1  0
 10 11  2  0
 11 12  1  0
 11 13  1  0
 13 14  2  0
 14 15  1  0
 15 16  2  0
 16 17  1  0
 17 18  1  0
  4 19  1  0
 19 20  1  0
 20 21  2  0
 21 22  1  0
 22 23  2  0
 23 24  1  0
 24 25  2  0
 25  3  1  0
 16  6  1  0
 25 20  1  0
 15  9  1  0
  1 26  1  0
  1 27  1  0
  1 28  1  0
  2 29  1  0
  2 30  1  0
  5 31  1  0
  7 32  1  0
  8 33  1  0
 10 34  1  0
 12 35  1  0
 12 36  1  0
 12 37  1  0
 13 38  1  0
 14 39  1  0
 17 40  1  0
 17 41  1  0
 18 42  1  0
 18 43  1  0
 18 44  1  0
 21 45  1  0
 22 46  1  0
 23 47  1  0
 24 48  1  0
M  CHG  1  16   1
M  END
$$$$
