
     RDKit          3D

 48 51  0  0  0  0  0  0  0  0999 V2000
    3.0522   -1.7545   -3.0362 C   0  0  0  0  0  0  0  0  0  0  0  0
    2.9360   -0.3297   -2.5154 C   0  0  0  0  0  0  0  0  0  0  0  0
    2.6980   -0.3138   -1.0737 N   0  0  0  0  0  0  0  0  0  0  0  0
    1.4684   -0.4209   -0.4135 C   0  0  0  0  0  0  0  0  0  0  0  0
    0.2517   -0.4139   -0.9927 C   0  0  0  0  0  0  0  0  0  0  0  0
   -1.0467   -0.5375   -0.3079 C   0  0  0  0  0  0  0  0  0  0  0  0
   -1.4024   -1.8080    0.1320 C   0  0  0  0  0  0  0  0  0  0  0  0
   -2.6014   -1.9991    0.7754 C   0  0  0  0  0  0  0  0  0  0  0  0
   -3.4790   -0.9353    0.9058 C   0  0  0  0  0  0  0  0  0  0  0  0
   -4.6895   -1.1948    1.5560 C   0  0  0  0  0  0  0  0  0  0  0  0
   -5.6401   -0.2014    1.6975 C   0  0  0  0  0  0  0  0  0  0  0  0
   -5.4013    1.0475    1.1478 C   0  0  0  0  0  0  0  0  0  0  0  0
   -4.1968    1.3501    0.4650 C   0  0  0  0  0  0  0  0  0  0  0  0
   -4.2054    2.7119   -0.1837 C   0  0  0  0  0  0  0  0  0  0  0  0
   -3.1609    0.3693    0.3845 C   0  0  0  0  0  0  0  0  0  0  0  0
   -1.8840    0.5397   -0.1444 N   0  0  0  0  0  4  0  0  0  0  0  0
   -1.3115    1.8948   -0.4086 C   0  0  0  0  0  0  0  0  0  0  0  0
   -0.9277    2.5659    0.8985 C   0  0  0  0  0  0  0  0  0  0  0  0
    1.6148   -0.5487    1.3625 S   0  0  0  0  0  0  0  0  0  0  0  0
    3.3912   -0.5138    1.1811 C   0  0  0  0  0  0  0  0  0  0  0  0
    4.3111   -0.6025    2.2170 C   0  0  0  0  0  0  0  0  0  0  0  0
    5.6675   -0.5743    1.9014 C   0  0  0  0  0  0  0  0  0  0  0  0
    6.0788   -0.4612    0.5682 C   0  0  0  0  0  0  0  0  0  0  0  0
    5.1404   -0.3727   -0.4688 C   0  0  0  0  0  0  0  0  0  0  0  0
    3.7816   -0.3967   -0.1716 C   0  0  0  0  0  0  0  0  0  0  0  0
    3.2110   -1.7494   -4.1191 H   0  0  0  0  0  0  0  0  0  0  0  0
    3.8916   -2.2829   -2.5731 H   0  0  0  0  0  0  0  0  0  0  0  0
    2.1420   -2.3269   -2.8293 H   0  0  0  0  0  0  0  0  0  0  0  0
    2.1156    0.1761   -3.0377 H   0  0  0  0  0  0  0  0  0  0  0  0
    3.8294    0.2457   -2.7825 H   0  0  0  0  0  0  0  0  0  0  0  0
    0.1654   -0.3284   -2.0718 H   0  0  0  0  0  0  0  0  0  0  0  0
   -0.7273   -2.6534    0.0022 H   0  0  0  0  0  0  0  0  0  0  0  0
   -2.8471   -2.9923    1.1513 H   0  0  0  0  0  0  0  0  0  0  0  0
   -4.9127   -2.1809    1.9647 H   0  0  0  0  0  0  0  0  0  0  0  0
   -6.5792   -0.4068    2.2083 H   0  0  0  0  0  0  0  0  0  0  0  0
   -6.1922    1.7949    1.2376 H   0  0  0  0  0  0  0  0  0  0  0  0
   -3.4962    3.3910    0.2927 H   0  0  0  0  0  0  0  0  0  0  0  0
   -4.0207    2.6210   -1.2583 H   0  0  0  0  0  0  0  0  0  0  0  0
   -5.1856    3.1972   -0.1011 H   0  0  0  0  0  0  0  0  0  0  0  0
   -0.4257    1.8255   -1.0430 H   0  0  0  0  0  0  0  0  0  0  0  0
   -2.0012    2.4702   -1.0164 H   0  0  0  0  0  0  0  0  0  0  0  0
   -1.7683    2.6398    1.5932 H   0  0  0  0  0  0  0  0  0  0  0  0
   -0.1386    2.0075    1.4086 H   0  0  0  0  0  0  0  0  0  0  0  0
   -0.5535    3.5763    0.7070 H   0  0  0  0  0  0  0  0  0  0  0  0
    3.9889   -0.6955    3.2491 H   0  0  0  0  0  0  0  0  0  0  0  0
    6.4114   -0.6436    2.6924 H   0  0  0  0  0  0  0  0  0  0  0  0
    7.1421   -0.4432    0.3352 H   0  0  0  0  0  0  0  0  0  0  0  0
    5.5061   -0.2893   -1.4862 H   0  0  0  0  0  0  0  0  0  0  0  0
  1  2  1  0
  2  3  1  0
  3  4  1  0
  4  5  2  3
  5  6  1  0
  6  7  2  0
  7  8  1  0
  8  9  2  0
  9 10  1  0
 10 11  2  0
 11 12  1  0
 12 13  2  0
 13 14  1  0
 13 15  1  0
 15 16  2  0
 16 17  1  0
 17 18  1  0
  4 19  1  0
 19 20  1  0
 20 21  2  0
 21 22  1  0
 22 23  2  0
 23 24  1  0
 24 25  2  0
 25  3  1  0
 16  6  1  0
 25 20  1  0
 15  9  1  0
  1 26  1  0
  1 27  1  0
  1 28  1  0
  2 29  1  0
  2 30  1  0
  5 31  1  0
  7 32  1  0
  8 33  1  0
 10 34  1  0
 11 35  1  0
 12 36  1  0
 14 37  1  0
 14 38  1  0
 14 39  1  0
 17 40  1  0
 17 41  1  0
 18 42  1  0
 18 43  1  0
 18 44  1  0
 21 45  1  0
 22 46  1  0
 23 47  1  0
 24 48  1  0
M  CHG  1  16   1
M  END
$$$$
