
     RDKit          3D

 52 55  0  0  0  0  0  0  0  0999 V2000
   -6.9101    2.5933    0.0184 C   0  0  0  0  0  0  0  0  0  0  0  0
   -5.7476    3.1927    0.7970 C   0  0  0  0  0  0  0  0  0  0  0  0
   -4.6589    2.1652    1.1003 C   0  0  0  0  0  0  0  0  0  0  0  0
   -4.1003    1.7084   -0.1306 O   0  0  0  0  0  0  0  0  0  0  0  0
   -3.1182    0.7600   -0.0558 C   0  0  0  0  0  0  0  0  0  0  0  0
   -2.6404    0.3177   -1.2916 C   0  0  0  0  0  0  0  0  0  0  0  0
   -1.6351   -0.6499   -1.3642 C   0  0  0  0  0  0  0  0  0  0  0  0
   -1.0986   -1.1911   -0.1923 C   0  0  0  0  0  0  0  0  0  0  0  0
   -0.0454   -2.1955   -0.2595 C   0  0  0  0  0  0  0  0  0  0  0  0
    1.3323   -2.0512   -0.1594 C   0  0  0  0  0  0  0  0  0  0  0  0
    2.1120   -0.8343    0.0651 C   0  0  0  0  0  0  0  0  0  0  0  0
    1.5877    0.2557    0.2689 O   0  0  0  0  0  0  0  0  0  0  0  0
    3.4829   -1.0811    0.0380 N   0  0  0  0  0  0  0  0  0  0  0  0
    4.4831   -0.2020    0.3681 N   0  0  0  0  0  0  0  0  0  0  0  0
    4.3072    1.0583    0.1232 C   0  0  0  0  0  0  0  0  0  0  0  0
    5.3209    2.0684    0.4933 C   0  0  0  0  0  0  0  0  0  0  0  0
    5.0619    3.4135    0.2129 C   0  0  0  0  0  0  0  0  0  0  0  0
    6.0048    4.3857    0.5514 C   0  0  0  0  0  0  0  0  0  0  0  0
    7.2004    4.0148    1.1683 C   0  0  0  0  0  0  0  0  0  0  0  0
    7.4567    2.6722    1.4497 C   0  0  0  0  0  0  0  0  0  0  0  0
    6.5175    1.6962    1.1132 C   0  0  0  0  0  0  0  0  0  0  0  0
    1.9287   -3.2766   -0.3093 N   0  0  0  0  0  0  0  0  0  0  0  0
    0.9836   -4.1794   -0.4932 N   0  0  0  0  0  0  0  0  0  0  0  0
   -0.2376   -3.5658   -0.4579 N   0  0  0  0  0  0  0  0  0  0  0  0
   -1.4392   -4.3081   -0.5889 C   0  0  0  0  0  0  0  0  0  0  0  0
   -2.6322   -3.7228   -0.4818 N   0  0  0  0  0  0  0  0  0  0  0  0
   -3.5406   -4.7662   -0.6452 O   0  0  0  0  0  0  0  0  0  0  0  0
   -2.8868   -5.9778   -0.8432 N   0  0  0  0  0  0  0  0  0  0  0  0
   -1.5862   -5.6898   -0.8155 C   0  0  0  0  0  0  0  0  0  0  0  0
   -0.6054   -6.5976   -0.9818 N   0  0  0  0  0  0  0  0  0  0  0  0
   -1.5689   -0.7418    1.0463 C   0  0  0  0  0  0  0  0  0  0  0  0
   -2.5760    0.2283    1.1142 C   0  0  0  0  0  0  0  0  0  0  0  0
   -6.5855    2.2183   -0.9573 H   0  0  0  0  0  0  0  0  0  0  0  0
   -7.6805    3.3520   -0.1526 H   0  0  0  0  0  0  0  0  0  0  0  0
   -7.3658    1.7652    0.5705 H   0  0  0  0  0  0  0  0  0  0  0  0
   -5.3231    4.0147    0.2088 H   0  0  0  0  0  0  0  0  0  0  0  0
   -6.1213    3.6132    1.7372 H   0  0  0  0  0  0  0  0  0  0  0  0
   -3.8818    2.6486    1.7043 H   0  0  0  0  0  0  0  0  0  0  0  0
   -5.0932    1.3265    1.6579 H   0  0  0  0  0  0  0  0  0  0  0  0
   -3.0558    0.7321   -2.2072 H   0  0  0  0  0  0  0  0  0  0  0  0
   -1.2813   -0.9706   -2.3407 H   0  0  0  0  0  0  0  0  0  0  0  0
    3.7693   -2.0580    0.0497 H   0  0  0  0  0  0  0  0  0  0  0  0
    3.4174    1.4495   -0.3973 H   0  0  0  0  0  0  0  0  0  0  0  0
    4.1322    3.7145   -0.2633 H   0  0  0  0  0  0  0  0  0  0  0  0
    5.8072    5.4331    0.3363 H   0  0  0  0  0  0  0  0  0  0  0  0
    7.9332    4.7736    1.4322 H   0  0  0  0  0  0  0  0  0  0  0  0
    8.3879    2.3851    1.9318 H   0  0  0  0  0  0  0  0  0  0  0  0
    6.7234    0.6520    1.3350 H   0  0  0  0  0  0  0  0  0  0  0  0
    0.3632   -6.3776   -0.7562 H   0  0  0  0  0  0  0  0  0  0  0  0
   -0.8360   -7.5845   -0.9327 H   0  0  0  0  0  0  0  0  0  0  0  0
   -1.1542   -1.1357    1.9713 H   0  0  0  0  0  0  0  0  0  0  0  0
   -2.9074    0.5487    2.0960 H   0  0  0  0  0  0  0  0  0  0  0  0
  1  2  1  0
  2  3  1  0
  3  4  1  0
  4  5  1  0
  5  6  2  0
  6  7  1  0
  7  8  2  0
  8  9  1  0
  9 10  2  0
 10 11  1  0
 11 12  2  0
 11 13  1  0
 13 14  1  0
 14 15  2  3
 15 16  1  0
 16 17  2  0
 17 18  1  0
 18 19  2  0
 19 20  1  0
 20 21  2  0
 10 22  1  0
 22 23  2  0
 23 24  1  0
 24 25  1  0
 25 26  2  0
 26 27  1  0
 27 28  1  0
 28 29  2  0
 29 30  1  0
  8 31  1  0
 31 32  2  0
 32  5  1  0
 24  9  1  0
 29 25  1  0
 21 16  1  0
  1 33  1  0
  1 34  1  0
  1 35  1  0
  2 36  1  0
  2 37  1  0
  3 38  1  0
  3 39  1  0
  6 40  1  0
  7 41  1  0
 13 42  1  0
 15 43  1  0
 17 44  1  0
 18 45  1  0
 19 46  1  0
 20 47  1  0
 21 48  1  0
 30 49  1  0
 30 50  1  0
 31 51  1  0
 32 52  1  0
M  END
$$$$
