
     RDKit          3D

 63 67  0  0  0  0  0  0  0  0999 V2000
    4.5678    6.0676   -1.4040 C   0  0  0  0  0  0  0  0  0  0  0  0
    3.7180    5.1581   -2.0918 O   0  0  0  0  0  0  0  0  0  0  0  0
    3.8555    3.8324   -1.7864 C   0  0  0  0  0  0  0  0  0  0  0  0
    2.9865    2.9820   -2.4733 C   0  0  0  0  0  0  0  0  0  0  0  0
    3.0189    1.6016   -2.2570 C   0  0  0  0  0  0  0  0  0  0  0  0
    3.9259    1.0499   -1.3459 C   0  0  0  0  0  0  0  0  0  0  0  0
    3.9493   -0.3975   -1.1038 C   0  0  0  0  0  0  0  0  0  0  0  0
    5.3535   -1.2727   -1.5403 S   0  0  0  0  0  0  0  0  0  0  0  0
    4.6940   -2.7704   -1.0216 C   0  0  0  0  0  0  0  0  0  0  0  0
    5.3209   -4.0291   -1.0694 C   0  0  0  0  0  0  0  0  0  0  0  0
    4.6302   -5.1450   -0.5907 C   0  0  0  0  0  0  0  0  0  0  0  0
    3.3468   -5.0284   -0.0707 C   0  0  0  0  0  0  0  0  0  0  0  0
    2.7982   -6.2032    0.3662 O   0  0  0  0  0  0  0  0  0  0  0  0
    1.5041   -6.1312    0.9515 C   0  0  0  0  0  0  0  0  0  0  0  0
    2.7320   -3.7735   -0.0325 C   0  0  0  0  0  0  0  0  0  0  0  0
    3.4027   -2.6147   -0.5166 C   0  0  0  0  0  0  0  0  0  0  0  0
    2.9750   -1.2329   -0.5789 C   0  0  0  0  0  0  0  0  0  0  0  0
    1.6794   -0.7248   -0.1403 C   0  0  0  0  0  0  0  0  0  0  0  0
    0.5242   -1.0387   -0.8647 C   0  0  0  0  0  0  0  0  0  0  0  0
   -0.7236   -0.5595   -0.4501 C   0  0  0  0  0  0  0  0  0  0  0  0
   -0.8249    0.2331    0.6939 C   0  0  0  0  0  0  0  0  0  0  0  0
   -1.9765    0.7620    1.2075 O   0  0  0  0  0  0  0  0  0  0  0  0
   -3.1831    0.5330    0.4730 C   0  0  0  0  0  0  0  0  0  0  0  0
   -4.3237    1.2673    1.1973 C   0  0  0  0  0  0  0  0  0  0  0  0
   -5.6247    1.1336    0.5227 N   0  0  0  0  0  0  0  0  0  0  0  0
   -6.2406   -0.2002    0.7016 C   0  0  0  0  0  0  0  0  0  0  0  0
   -7.3774   -0.2249    1.7374 C   0  0  0  0  0  0  0  0  0  0  0  0
   -8.4488    0.6726    1.4202 O   0  0  0  0  0  0  0  0  0  0  0  0
   -8.0155    1.8303    0.6921 C   0  0  0  0  0  0  0  0  0  0  0  0
   -6.5514    2.1959    0.9751 C   0  0  0  0  0  0  0  0  0  0  0  0
    0.3300    0.5391    1.4190 C   0  0  0  0  0  0  0  0  0  0  0  0
    1.5777    0.0644    1.0080 C   0  0  0  0  0  0  0  0  0  0  0  0
    4.7961    1.9060   -0.6580 C   0  0  0  0  0  0  0  0  0  0  0  0
    4.7626    3.2888   -0.8773 C   0  0  0  0  0  0  0  0  0  0  0  0
    4.3288    7.0772   -1.7520 H   0  0  0  0  0  0  0  0  0  0  0  0
    5.6207    5.8762   -1.6360 H   0  0  0  0  0  0  0  0  0  0  0  0
    4.3880    6.0367   -0.3241 H   0  0  0  0  0  0  0  0  0  0  0  0
    2.2756    3.3977   -3.1831 H   0  0  0  0  0  0  0  0  0  0  0  0
    2.3314    0.9632   -2.8064 H   0  0  0  0  0  0  0  0  0  0  0  0
    6.3256   -4.1351   -1.4682 H   0  0  0  0  0  0  0  0  0  0  0  0
    5.1096   -6.1210   -0.6229 H   0  0  0  0  0  0  0  0  0  0  0  0
    0.7610   -5.7889    0.2239 H   0  0  0  0  0  0  0  0  0  0  0  0
    1.2223   -7.1413    1.2643 H   0  0  0  0  0  0  0  0  0  0  0  0
    1.5082   -5.4957    1.8433 H   0  0  0  0  0  0  0  0  0  0  0  0
    1.7326   -3.6478    0.3692 H   0  0  0  0  0  0  0  0  0  0  0  0
    0.5884   -1.6521   -1.7610 H   0  0  0  0  0  0  0  0  0  0  0  0
   -1.5925   -0.8224   -1.0442 H   0  0  0  0  0  0  0  0  0  0  0  0
   -3.0858    0.9335   -0.5437 H   0  0  0  0  0  0  0  0  0  0  0  0
   -3.3858   -0.5426    0.4328 H   0  0  0  0  0  0  0  0  0  0  0  0
   -4.0380    2.3276    1.2405 H   0  0  0  0  0  0  0  0  0  0  0  0
   -4.3817    0.9368    2.2429 H   0  0  0  0  0  0  0  0  0  0  0  0
   -6.6604   -0.4847   -0.2713 H   0  0  0  0  0  0  0  0  0  0  0  0
   -5.5015   -0.9675    0.9543 H   0  0  0  0  0  0  0  0  0  0  0  0
   -6.9994    0.0308    2.7344 H   0  0  0  0  0  0  0  0  0  0  0  0
   -7.8037   -1.2313    1.8013 H   0  0  0  0  0  0  0  0  0  0  0  0
   -8.1721    1.6415   -0.3766 H   0  0  0  0  0  0  0  0  0  0  0  0
   -8.6723    2.6591    0.9752 H   0  0  0  0  0  0  0  0  0  0  0  0
   -6.4411    2.3633    2.0549 H   0  0  0  0  0  0  0  0  0  0  0  0
   -6.3008    3.1304    0.4613 H   0  0  0  0  0  0  0  0  0  0  0  0
    0.2585    1.1570    2.3109 H   0  0  0  0  0  0  0  0  0  0  0  0
    2.4625    0.3170    1.5870 H   0  0  0  0  0  0  0  0  0  0  0  0
    5.5058    1.5026    0.0612 H   0  0  0  0  0  0  0  0  0  0  0  0
    5.4571    3.9087   -0.3209 H   0  0  0  0  0  0  0  0  0  0  0  0
  1  2  1  0
  2  3  1  0
  3  4  2  0
  4  5  1  0
  5  6  2  0
  6  7  1  0
  7  8  1  0
  8  9  1  0
  9 10  2  0
 10 11  1  0
 11 12  2  0
 12 13  1  0
 13 14  1  0
 12 15  1  0
 15 16  2  0
 16 17  1  0
 17 18  1  0
 18 19  2  0
 19 20  1  0
 20 21  2  0
 21 22  1  0
 22 23  1  0
 23 24  1  0
 24 25  1  0
 25 26  1  0
 26 27  1  0
 27 28  1  0
 28 29  1  0
 29 30  1  0
 21 31  1  0
 31 32  2  0
  6 33  1  0
 33 34  2  0
 34  3  1  0
 17  7  2  0
 32 18  1  0
 16  9  1  0
 30 25  1  0
  1 35  1  0
  1 36  1  0
  1 37  1  0
  4 38  1  0
  5 39  1  0
 10 40  1  0
 11 41  1  0
 14 42  1  0
 14 43  1  0
 14 44  1  0
 15 45  1  0
 19 46  1  0
 20 47  1  0
 23 48  1  0
 23 49  1  0
 24 50  1  0
 24 51  1  0
 26 52  1  0
 26 53  1  0
 27 54  1  0
 27 55  1  0
 29 56  1  0
 29 57  1  0
 30 58  1  0
 30 59  1  0
 31 60  1  0
 32 61  1  0
 33 62  1  0
 34 63  1  0
M  END
$$$$
