
     RDKit          3D

 28 30  0  0  0  0  0  0  0  0999 V2000
   -0.2094    3.3005   -0.9643 O   0  0  0  0  0  0  0  0  0  0  0  0
    0.0557    2.0987   -0.8470 C   0  0  0  0  0  0  0  0  0  0  0  0
   -0.9476    1.0735   -1.2623 C   0  0  0  0  0  0  0  0  0  0  0  0
   -1.1537    0.0423   -0.1731 C   0  0  0  0  0  0  0  0  0  0  0  0
   -2.5899   -0.4384   -0.0923 C   0  0  0  0  0  0  0  0  0  0  0  0
   -3.3713   -0.4265    1.1148 C   0  0  0  0  0  0  0  0  0  0  0  0
   -4.6491   -0.9054    0.9308 C   0  0  0  0  0  0  0  0  0  0  0  0
   -4.9300   -1.3742   -0.6862 S   0  0  0  0  0  0  0  0  0  0  0  0
   -3.3419   -0.9388   -1.1443 C   0  0  0  0  0  0  0  0  0  0  0  0
   -0.0744   -1.3744   -0.5382 S   0  0  0  0  0  0  0  0  0  0  0  0
    1.5484   -0.7328   -0.1733 C   0  0  0  0  0  0  0  0  0  0  0  0
    2.4733   -1.7682    0.1004 C   0  0  0  0  0  0  0  0  0  0  0  0
    3.7987   -1.5099    0.4461 C   0  0  0  0  0  0  0  0  0  0  0  0
    4.2339   -0.2004    0.5266 C   0  0  0  0  0  0  0  0  0  0  0  0
    3.3420    0.8355    0.2495 C   0  0  0  0  0  0  0  0  0  0  0  0
    1.9960    0.5977   -0.1154 C   0  0  0  0  0  0  0  0  0  0  0  0
    1.2848    1.7852   -0.3783 N   0  0  0  0  0  0  0  0  0  0  0  0
   -1.8830    1.6236   -1.4373 H   0  0  0  0  0  0  0  0  0  0  0  0
   -0.6559    0.6589   -2.2349 H   0  0  0  0  0  0  0  0  0  0  0  0
   -0.8801    0.4382    0.8134 H   0  0  0  0  0  0  0  0  0  0  0  0
   -3.0086   -0.0826    2.0766 H   0  0  0  0  0  0  0  0  0  0  0  0
   -5.4326   -1.0036    1.6696 H   0  0  0  0  0  0  0  0  0  0  0  0
   -3.0317   -1.0759   -2.1718 H   0  0  0  0  0  0  0  0  0  0  0  0
    2.1586   -2.8114    0.0542 H   0  0  0  0  0  0  0  0  0  0  0  0
    4.4791   -2.3316    0.6537 H   0  0  0  0  0  0  0  0  0  0  0  0
    5.2631    0.0206    0.7976 H   0  0  0  0  0  0  0  0  0  0  0  0
    3.7266    1.8527    0.3128 H   0  0  0  0  0  0  0  0  0  0  0  0
    1.7993    2.6465   -0.2222 H   0  0  0  0  0  0  0  0  0  0  0  0
  1  2  2  0
  2  3  1  0
  3  4  1  0
  4  5  1  0
  5  6  1  0
  6  7  2  0
  7  8  1  0
  8  9  1  0
  4 10  1  0
 10 11  1  0
 11 12  2  0
 12 13  1  0
 13 14  2  0
 14 15  1  0
 15 16  2  0
 16 17  1  0
 17  2  1  0
  9  5  2  0
 16 11  1  0
  3 18  1  0
  3 19  1  0
  4 20  1  0
  6 21  1  0
  7 22  1  0
  9 23  1  0
 12 24  1  0
 13 25  1  0
 14 26  1  0
 15 27  1  0
 17 28  1  0
M  END
$$$$
