
     RDKit          3D

 46 48  0  0  0  0  0  0  0  0999 V2000
    8.1152    0.5405    2.4675 C   0  0  0  0  0  0  0  0  0  0  0  0
    7.7566   -0.8078    1.8717 C   0  0  0  0  0  0  0  0  0  0  0  0
    6.8886   -0.6340    0.7419 O   0  0  0  0  0  0  0  0  0  0  0  0
    5.5639   -0.5614    1.0211 C   0  0  0  0  0  0  0  0  0  0  0  0
    5.0583   -0.6260    2.1307 O   0  0  0  0  0  0  0  0  0  0  0  0
    4.7724   -0.3838   -0.2261 C   0  0  0  0  0  0  0  0  0  0  0  0
    5.3668   -0.3138   -1.4903 C   0  0  0  0  0  0  0  0  0  0  0  0
    4.5698   -0.1484   -2.6222 C   0  0  0  0  0  0  0  0  0  0  0  0
    3.1802   -0.0507   -2.4992 C   0  0  0  0  0  0  0  0  0  0  0  0
    2.5718   -0.1145   -1.2447 C   0  0  0  0  0  0  0  0  0  0  0  0
    1.1784   -0.0297   -1.0377 N   0  0  0  0  0  0  0  0  0  0  0  0
    0.2024    0.2114   -1.9881 C   0  0  0  0  0  0  0  0  0  0  0  0
    0.3784    0.4644   -3.1738 O   0  0  0  0  0  0  0  0  0  0  0  0
   -1.1964    0.1965   -1.4716 C   0  0  0  0  0  0  0  0  0  0  0  0
   -1.6032   -0.6743   -0.4552 C   0  0  0  0  0  0  0  0  0  0  0  0
   -2.9283   -0.6557    0.0002 C   0  0  0  0  0  0  0  0  0  0  0  0
   -3.8607    0.2213   -0.5587 C   0  0  0  0  0  0  0  0  0  0  0  0
   -5.2059    0.3009   -0.1570 N   0  0  0  0  0  0  0  0  0  0  0  0
   -5.8530   -0.4151    0.8350 C   0  0  0  0  0  0  0  0  0  0  0  0
   -5.3346   -1.2623    1.5547 O   0  0  0  0  0  0  0  0  0  0  0  0
   -7.2557   -0.0562    0.9545 C   0  0  0  0  0  0  0  0  0  0  0  0
   -8.2458   -0.5210    1.7996 C   0  0  0  0  0  0  0  0  0  0  0  0
   -9.4276    0.1854    1.4721 C   0  0  0  0  0  0  0  0  0  0  0  0
   -9.0921    1.0390    0.4484 C   0  0  0  0  0  0  0  0  0  0  0  0
   -7.7800    0.9041    0.1245 O   0  0  0  0  0  0  0  0  0  0  0  0
   -3.4521    1.0763   -1.5900 C   0  0  0  0  0  0  0  0  0  0  0  0
   -2.1309    1.0621   -2.0479 C   0  0  0  0  0  0  0  0  0  0  0  0
    3.3766   -0.2848   -0.1112 C   0  0  0  0  0  0  0  0  0  0  0  0
    8.8233    0.4239    3.2927 H   0  0  0  0  0  0  0  0  0  0  0  0
    8.5617    1.1901    1.7075 H   0  0  0  0  0  0  0  0  0  0  0  0
    7.2240    1.0542    2.8417 H   0  0  0  0  0  0  0  0  0  0  0  0
    8.6629   -1.3013    1.5056 H   0  0  0  0  0  0  0  0  0  0  0  0
    7.3088   -1.4714    2.6204 H   0  0  0  0  0  0  0  0  0  0  0  0
    6.4446   -0.3872   -1.6108 H   0  0  0  0  0  0  0  0  0  0  0  0
    5.0267   -0.0956   -3.6078 H   0  0  0  0  0  0  0  0  0  0  0  0
    2.5993    0.0712   -3.4087 H   0  0  0  0  0  0  0  0  0  0  0  0
    0.8754   -0.0878   -0.0737 H   0  0  0  0  0  0  0  0  0  0  0  0
   -0.9172   -1.3979   -0.0230 H   0  0  0  0  0  0  0  0  0  0  0  0
   -3.2011   -1.3520    0.7877 H   0  0  0  0  0  0  0  0  0  0  0  0
   -5.7965    0.9666   -0.6452 H   0  0  0  0  0  0  0  0  0  0  0  0
   -8.1153   -1.2814    2.5582 H   0  0  0  0  0  0  0  0  0  0  0  0
  -10.4038    0.0846    1.9260 H   0  0  0  0  0  0  0  0  0  0  0  0
   -9.6446    1.7686   -0.1279 H   0  0  0  0  0  0  0  0  0  0  0  0
   -4.1541    1.7642   -2.0554 H   0  0  0  0  0  0  0  0  0  0  0  0
   -1.8324    1.7293   -2.8545 H   0  0  0  0  0  0  0  0  0  0  0  0
    2.9254   -0.3405    0.8776 H   0  0  0  0  0  0  0  0  0  0  0  0
  1  2  1  0
  2  3  1  0
  3  4  1  0
  4  5  2  0
  4  6  1  0
  6  7  2  0
  7  8  1  0
  8  9  2  0
  9 10  1  0
 10 11  1  0
 11 12  1  0
 12 13  2  0
 12 14  1  0
 14 15  2  0
 15 16  1  0
 16 17  2  0
 17 18  1  0
 18 19  1  0
 19 20  2  0
 19 21  1  0
 21 22  2  0
 22 23  1  0
 23 24  2  0
 24 25  1  0
 17 26  1  0
 26 27  2  0
 10 28  2  0
 28  6  1  0
 27 14  1  0
 25 21  1  0
  1 29  1  0
  1 30  1  0
  1 31  1  0
  2 32  1  0
  2 33  1  0
  7 34  1  0
  8 35  1  0
  9 36  1  0
 11 37  1  0
 15 38  1  0
 16 39  1  0
 18 40  1  0
 22 41  1  0
 23 42  1  0
 24 43  1  0
 26 44  1  0
 27 45  1  0
 28 46  1  0
M  END
$$$$
