
     RDKit          3D

 58 60  0  0  0  0  0  0  0  0999 V2000
    0.4094    2.3737    1.2211 C   0  0  0  0  0  0  0  0  0  0  0  0
   -0.9696    2.4256    0.6189 C   0  0  0  0  0  0  0  0  0  0  0  0
   -1.8020    3.5094    0.9486 C   0  0  0  0  0  0  0  0  0  0  0  0
   -3.0966    3.5980    0.4404 C   0  0  0  0  0  0  0  0  0  0  0  0
   -3.5636    2.6035   -0.4154 C   0  0  0  0  0  0  0  0  0  0  0  0
   -5.2051    2.7210   -1.0980 S   0  0  0  0  0  6  0  0  0  0  0  0
   -5.1245    2.3266   -2.4901 O   0  0  0  0  0  0  0  0  0  0  0  0
   -5.7365    4.0145   -0.7206 O   0  0  0  0  0  0  0  0  0  0  0  0
   -6.0812    1.5493   -0.2515 N   0  0  0  0  0  0  0  0  0  0  0  0
   -6.3031    1.7717    1.1986 C   0  0  0  0  0  0  0  0  0  0  0  0
   -7.0442    0.5708    1.7968 C   0  0  0  0  0  0  0  0  0  0  0  0
   -6.3052   -0.6552    1.7038 O   0  0  0  0  0  0  0  0  0  0  0  0
   -5.4219   -0.7057    0.5778 C   0  0  0  0  0  0  0  0  0  0  0  0
   -5.9093    0.1149   -0.6179 C   0  0  0  0  0  0  0  0  0  0  0  0
   -2.7383    1.5385   -0.7812 C   0  0  0  0  0  0  0  0  0  0  0  0
   -1.4526    1.4196   -0.2444 C   0  0  0  0  0  0  0  0  0  0  0  0
   -0.6186    0.3260   -0.5593 N   0  0  0  0  0  0  0  0  0  0  0  0
   -0.9840   -0.8737   -1.1528 C   0  0  0  0  0  0  0  0  0  0  0  0
   -2.1280   -1.2310   -1.4211 O   0  0  0  0  0  0  0  0  0  0  0  0
    0.2113   -1.7957   -1.3914 C   0  0  0  0  0  0  0  0  0  0  0  0
    1.3660   -1.0091   -1.7103 O   0  0  0  0  0  0  0  0  0  0  0  0
    2.4960   -1.7400   -1.9183 C   0  0  0  0  0  0  0  0  0  0  0  0
    2.5670   -2.9578   -1.8443 O   0  0  0  0  0  0  0  0  0  0  0  0
    3.6428   -0.8286   -2.3262 C   0  0  0  0  0  0  0  0  0  0  0  0
    4.9140   -1.3750   -1.8847 N   0  0  0  0  0  0  0  0  0  0  0  0
    5.3522   -1.1251   -0.5976 C   0  0  0  0  0  0  0  0  0  0  0  0
    4.7469   -0.3870    0.1744 O   0  0  0  0  0  0  0  0  0  0  0  0
    6.5825   -1.8459   -0.1617 C   0  0  0  0  0  0  0  0  0  0  0  0
    6.8135   -1.9988    1.2162 C   0  0  0  0  0  0  0  0  0  0  0  0
    7.9495   -2.6764    1.6658 C   0  0  0  0  0  0  0  0  0  0  0  0
    8.8604   -3.1991    0.7425 C   0  0  0  0  0  0  0  0  0  0  0  0
    8.6435   -3.0374   -0.6260 C   0  0  0  0  0  0  0  0  0  0  0  0
    7.5097   -2.3584   -1.0800 C   0  0  0  0  0  0  0  0  0  0  0  0
    0.5863    3.2184    1.8911 H   0  0  0  0  0  0  0  0  0  0  0  0
    1.1710    2.4126    0.4387 H   0  0  0  0  0  0  0  0  0  0  0  0
    0.5299    1.4594    1.8109 H   0  0  0  0  0  0  0  0  0  0  0  0
   -1.4451    4.2956    1.6121 H   0  0  0  0  0  0  0  0  0  0  0  0
   -3.7235    4.4446    0.7061 H   0  0  0  0  0  0  0  0  0  0  0  0
   -5.3428    1.8889    1.7053 H   0  0  0  0  0  0  0  0  0  0  0  0
   -6.8978    2.6750    1.3437 H   0  0  0  0  0  0  0  0  0  0  0  0
   -8.0082    0.4218    1.2946 H   0  0  0  0  0  0  0  0  0  0  0  0
   -7.2496    0.7459    2.8566 H   0  0  0  0  0  0  0  0  0  0  0  0
   -4.4405   -0.3550    0.9120 H   0  0  0  0  0  0  0  0  0  0  0  0
   -5.3150   -1.7582    0.2966 H   0  0  0  0  0  0  0  0  0  0  0  0
   -5.2274   -0.0111   -1.4570 H   0  0  0  0  0  0  0  0  0  0  0  0
   -6.8872   -0.2529   -0.9420 H   0  0  0  0  0  0  0  0  0  0  0  0
   -3.1073    0.8224   -1.5065 H   0  0  0  0  0  0  0  0  0  0  0  0
    0.3463    0.3810   -0.2645 H   0  0  0  0  0  0  0  0  0  0  0  0
   -0.0255   -2.4604   -2.2331 H   0  0  0  0  0  0  0  0  0  0  0  0
    0.3820   -2.3706   -0.4738 H   0  0  0  0  0  0  0  0  0  0  0  0
    3.5021    0.1675   -1.8984 H   0  0  0  0  0  0  0  0  0  0  0  0
    3.6585   -0.7592   -3.4150 H   0  0  0  0  0  0  0  0  0  0  0  0
    5.2011   -2.2455   -2.3123 H   0  0  0  0  0  0  0  0  0  0  0  0
    6.1060   -1.5939    1.9431 H   0  0  0  0  0  0  0  0  0  0  0  0
    8.1209   -2.7972    2.7362 H   0  0  0  0  0  0  0  0  0  0  0  0
    9.7444   -3.7277    1.0917 H   0  0  0  0  0  0  0  0  0  0  0  0
    9.3617   -3.4382   -1.3414 H   0  0  0  0  0  0  0  0  0  0  0  0
    7.3796   -2.2260   -2.1477 H   0  0  0  0  0  0  0  0  0  0  0  0
  1  2  1  0
  2  3  2  0
  3  4  1  0
  4  5  2  0
  5  6  1  0
  6  7  2  0
  6  8  2  0
  6  9  1  0
  9 10  1  0
 10 11  1  0
 11 12  1  0
 12 13  1  0
 13 14  1  0
  5 15  1  0
 15 16  2  0
 16 17  1  0
 17 18  1  0
 18 19  2  0
 18 20  1  0
 20 21  1  0
 21 22  1  0
 22 23  2  0
 22 24  1  0
 24 25  1  0
 25 26  1  0
 26 27  2  0
 26 28  1  0
 28 29  2  0
 29 30  1  0
 30 31  2  0
 31 32  1  0
 32 33  2  0
 16  2  1  0
 33 28  1  0
 14  9  1  0
  1 34  1  0
  1 35  1  0
  1 36  1  0
  3 37  1  0
  4 38  1  0
 10 39  1  0
 10 40  1  0
 11 41  1  0
 11 42  1  0
 13 43  1  0
 13 44  1  0
 14 45  1  0
 14 46  1  0
 15 47  1  0
 17 48  1  0
 20 49  1  0
 20 50  1  0
 24 51  1  0
 24 52  1  0
 25 53  1  0
 29 54  1  0
 30 55  1  0
 31 56  1  0
 32 57  1  0
 33 58  1  0
M  END
$$$$
