
     RDKit          3D

 32 34  0  0  0  0  0  0  0  0999 V2000
    5.1045   -0.5664   -0.3129 C   0  0  0  0  0  0  0  0  0  0  0  0
    4.3530    0.0498    0.8520 C   0  0  0  0  0  0  0  0  0  0  0  0
    2.9436   -0.1706    0.7025 O   0  0  0  0  0  0  0  0  0  0  0  0
    2.2668    0.7265   -0.0480 C   0  0  0  0  0  0  0  0  0  0  0  0
    2.7521    1.7332   -0.5570 O   0  0  0  0  0  0  0  0  0  0  0  0
    0.8233    0.4126   -0.1291 C   0  0  0  0  0  0  0  0  0  0  0  0
   -0.0255    1.4411   -0.3904 C   0  0  0  0  0  0  0  0  0  0  0  0
    0.3537    2.7519   -0.6256 O   0  0  0  0  0  0  0  0  0  0  0  0
   -1.4770    1.2209   -0.4284 C   0  0  0  0  0  0  0  0  0  0  0  0
   -2.4666    2.1713   -0.6780 C   0  0  0  0  0  0  0  0  0  0  0  0
   -3.8298    1.7995   -0.6780 C   0  0  0  0  0  0  0  0  0  0  0  0
   -4.2258    0.4750   -0.4302 C   0  0  0  0  0  0  0  0  0  0  0  0
   -3.2424   -0.4620   -0.1858 C   0  0  0  0  0  0  0  0  0  0  0  0
   -1.9160   -0.0623   -0.1881 C   0  0  0  0  0  0  0  0  0  0  0  0
   -1.0646   -1.1205    0.0638 N   0  0  0  0  0  0  0  0  0  0  0  0
    0.3011   -0.9916    0.0671 C   0  0  0  0  0  0  0  0  0  0  0  0
    1.0411   -1.9628    0.1945 O   0  0  0  0  0  0  0  0  0  0  0  0
   -1.8492   -2.3475    0.2030 C   0  0  0  0  0  0  0  0  0  0  0  0
   -3.3382   -1.9274    0.1110 C   0  0  0  0  0  0  0  0  0  0  0  0
    4.8189   -0.0943   -1.2582 H   0  0  0  0  0  0  0  0  0  0  0  0
    6.1844   -0.4561   -0.1798 H   0  0  0  0  0  0  0  0  0  0  0  0
    4.8662   -1.6312   -0.4040 H   0  0  0  0  0  0  0  0  0  0  0  0
    4.5796    1.1170    0.9562 H   0  0  0  0  0  0  0  0  0  0  0  0
    4.6562   -0.4366    1.7849 H   0  0  0  0  0  0  0  0  0  0  0  0
    1.3323    2.7930   -0.7047 H   0  0  0  0  0  0  0  0  0  0  0  0
   -2.1947    3.2062   -0.8740 H   0  0  0  0  0  0  0  0  0  0  0  0
   -4.5858    2.5575   -0.8745 H   0  0  0  0  0  0  0  0  0  0  0  0
   -5.2768    0.2038   -0.4332 H   0  0  0  0  0  0  0  0  0  0  0  0
   -1.6122   -2.8243    1.1600 H   0  0  0  0  0  0  0  0  0  0  0  0
   -1.5711   -3.0363   -0.6027 H   0  0  0  0  0  0  0  0  0  0  0  0
   -3.8505   -2.4697   -0.6892 H   0  0  0  0  0  0  0  0  0  0  0  0
   -3.8503   -2.0995    1.0628 H   0  0  0  0  0  0  0  0  0  0  0  0
  1  2  1  0
  2  3  1  0
  3  4  1  0
  4  5  2  0
  4  6  1  0
  6  7  2  0
  7  8  1  0
  7  9  1  0
  9 10  2  0
 10 11  1  0
 11 12  2  0
 12 13  1  0
 13 14  2  0
 14 15  1  0
 15 16  1  0
 16 17  2  0
 15 18  1  0
 18 19  1  0
 16  6  1  0
 14  9  1  0
 19 13  1  0
  1 20  1  0
  1 21  1  0
  1 22  1  0
  2 23  1  0
  2 24  1  0
  8 25  1  0
 10 26  1  0
 11 27  1  0
 12 28  1  0
 18 29  1  0
 18 30  1  0
 19 31  1  0
 19 32  1  0
M  END
$$$$
