
     RDKit          3D

 84 89  0  0  0  0  0  0  0  0999 V2000
    7.3230    4.2140   -1.8046 C   0  0  0  0  0  0  0  0  0  0  0  0
    6.7761    2.9743   -2.2549 O   0  0  0  0  0  0  0  0  0  0  0  0
    7.6001    2.2794   -3.0863 C   0  0  0  0  0  0  0  0  0  0  0  0
    8.7015    2.6585   -3.4631 O   0  0  0  0  0  0  0  0  0  0  0  0
    6.9599    0.9881   -3.5341 C   0  0  0  0  0  0  0  0  0  0  0  0
    6.4384    0.1229   -2.3865 C   0  0  0  0  0  0  0  0  0  0  0  0
    7.5454   -0.2901   -1.4102 C   0  0  0  0  0  0  0  0  0  0  0  0
    7.1211   -1.3828   -0.4239 C   0  0  0  0  0  0  0  0  0  0  0  0
    6.4932   -0.8922    0.8837 C   0  0  0  0  0  0  0  0  0  0  0  0
    5.1292   -0.2214    0.7235 C   0  0  0  0  0  0  0  0  0  0  0  0
    4.4262   -0.0669    2.0781 C   0  0  0  0  0  0  0  0  0  0  0  0
    3.0300    0.5488    1.9585 C   0  0  0  0  0  0  0  0  0  0  0  0
    1.9797   -0.4245    1.4357 C   0  0  0  0  0  0  0  0  0  0  0  0
    2.2840   -1.5406    1.0172 O   0  0  0  0  0  0  0  0  0  0  0  0
    0.6645    0.0167    1.4482 N   0  0  0  0  0  0  0  0  0  0  0  0
    0.2250    1.3342    1.9309 C   0  0  0  0  0  0  0  0  0  0  0  0
   -1.1923    1.6998    1.4408 C   0  0  0  0  0  0  0  0  0  0  0  0
   -2.1864    0.7126    1.8490 N   0  0  0  0  0  0  0  0  0  0  0  0
   -1.6930   -0.7092    1.8393 C   0  0  2  0  0  0  0  0  0  0  0  0
   -0.3987   -0.9120    1.0320 C   0  0  0  0  0  0  0  0  0  0  0  0
   -2.8587   -1.4485    1.3196 C   0  0  0  0  0  0  0  0  0  0  0  0
   -3.9169   -0.5998    1.0027 C   0  0  0  0  0  0  0  0  0  0  0  0
   -4.9774   -1.3583    0.5802 C   0  0  0  0  0  0  0  0  0  0  0  0
   -6.2122   -0.9520    0.2855 O   0  0  0  0  0  0  0  0  0  0  0  0
   -4.5496   -2.6999    0.5844 N   0  0  0  0  0  0  0  0  0  0  0  0
   -5.3296   -3.8277    0.1976 C   0  0  0  0  0  0  0  0  0  0  0  0
   -5.2519   -5.0180    0.9335 C   0  0  0  0  0  0  0  0  0  0  0  0
   -6.0169   -6.1220    0.5545 C   0  0  0  0  0  0  0  0  0  0  0  0
   -6.8568   -6.0438   -0.5556 C   0  0  0  0  0  0  0  0  0  0  0  0
   -6.9354   -4.8607   -1.2901 C   0  0  0  0  0  0  0  0  0  0  0  0
   -6.1761   -3.7503   -0.9165 C   0  0  0  0  0  0  0  0  0  0  0  0
   -3.2163   -2.7366    1.0338 C   0  0  0  0  0  0  0  0  0  0  0  0
   -2.4556   -3.8281    1.0902 O   0  0  0  0  0  0  0  0  0  0  0  0
   -3.5624    0.8101    1.2636 C   0  0  1  0  0  0  0  0  0  0  0  0
   -4.5283    1.5354    2.2387 C   0  0  0  0  0  0  0  0  0  0  0  0
   -4.7648    1.2915    3.4135 O   0  0  0  0  0  0  0  0  0  0  0  0
   -5.1057    2.5873    1.5243 N   0  0  0  0  0  0  0  0  0  0  0  0
   -4.6827    2.6111    0.1974 C   0  0  0  0  0  0  0  0  0  0  0  0
   -3.7665    1.5707   -0.0255 C   0  0  0  0  0  0  0  0  0  0  0  0
   -3.2328    1.3645   -1.2895 C   0  0  0  0  0  0  0  0  0  0  0  0
   -3.6228    2.2230   -2.3176 C   0  0  0  0  0  0  0  0  0  0  0  0
   -4.5374    3.2672   -2.0783 C   0  0  0  0  0  0  0  0  0  0  0  0
   -4.9691    4.2623   -3.4267 Cl  0  0  0  0  0  0  0  0  0  0  0  0
   -5.0869    3.4895   -0.8016 C   0  0  0  0  0  0  0  0  0  0  0  0
   -6.0818    4.5830   -0.5524 C   0  0  0  0  0  0  0  0  0  0  0  0
    6.6150    4.6629   -1.1022 H   0  0  0  0  0  0  0  0  0  0  0  0
    7.4576    4.8982   -2.6483 H   0  0  0  0  0  0  0  0  0  0  0  0
    8.2708    4.0511   -1.2824 H   0  0  0  0  0  0  0  0  0  0  0  0
    6.1438    1.2375   -4.2211 H   0  0  0  0  0  0  0  0  0  0  0  0
    7.7033    0.4234   -4.1085 H   0  0  0  0  0  0  0  0  0  0  0  0
    5.6437    0.6583   -1.8601 H   0  0  0  0  0  0  0  0  0  0  0  0
    5.9792   -0.7739   -2.8191 H   0  0  0  0  0  0  0  0  0  0  0  0
    7.9277    0.5809   -0.8669 H   0  0  0  0  0  0  0  0  0  0  0  0
    8.3847   -0.6836   -1.9976 H   0  0  0  0  0  0  0  0  0  0  0  0
    6.4572   -2.1047   -0.9130 H   0  0  0  0  0  0  0  0  0  0  0  0
    8.0247   -1.9421   -0.1473 H   0  0  0  0  0  0  0  0  0  0  0  0
    6.3838   -1.7646    1.5384 H   0  0  0  0  0  0  0  0  0  0  0  0
    7.1818   -0.2091    1.3922 H   0  0  0  0  0  0  0  0  0  0  0  0
    4.5113   -0.8114    0.0385 H   0  0  0  0  0  0  0  0  0  0  0  0
    5.2559    0.7721    0.2807 H   0  0  0  0  0  0  0  0  0  0  0  0
    4.3605   -1.0395    2.5809 H   0  0  0  0  0  0  0  0  0  0  0  0
    5.0400    0.5806    2.7176 H   0  0  0  0  0  0  0  0  0  0  0  0
    3.0645    1.4259    1.3031 H   0  0  0  0  0  0  0  0  0  0  0  0
    2.7184    0.8709    2.9589 H   0  0  0  0  0  0  0  0  0  0  0  0
    0.9332    2.0987    1.5994 H   0  0  0  0  0  0  0  0  0  0  0  0
    0.2525    1.3049    3.0263 H   0  0  0  0  0  0  0  0  0  0  0  0
   -1.4663    2.6830    1.8393 H   0  0  0  0  0  0  0  0  0  0  0  0
   -1.1346    1.7876    0.3511 H   0  0  0  0  0  0  0  0  0  0  0  0
   -1.5112   -0.9935    2.8834 H   0  0  0  0  0  0  0  0  0  0  0  0
   -0.0586   -1.9502    1.1233 H   0  0  0  0  0  0  0  0  0  0  0  0
   -0.5729   -0.7286   -0.0362 H   0  0  0  0  0  0  0  0  0  0  0  0
   -6.8206   -1.7078    0.3615 H   0  0  0  0  0  0  0  0  0  0  0  0
   -4.6389   -5.0910    1.8302 H   0  0  0  0  0  0  0  0  0  0  0  0
   -5.9676   -7.0420    1.1336 H   0  0  0  0  0  0  0  0  0  0  0  0
   -7.4511   -6.9062   -0.8488 H   0  0  0  0  0  0  0  0  0  0  0  0
   -7.5831   -4.8083   -2.1624 H   0  0  0  0  0  0  0  0  0  0  0  0
   -6.2240   -2.8536   -1.5323 H   0  0  0  0  0  0  0  0  0  0  0  0
   -2.8397   -4.5198    0.5226 H   0  0  0  0  0  0  0  0  0  0  0  0
   -5.7903    3.1956    1.9456 H   0  0  0  0  0  0  0  0  0  0  0  0
   -2.5397    0.5510   -1.4814 H   0  0  0  0  0  0  0  0  0  0  0  0
   -3.2201    2.0726   -3.3172 H   0  0  0  0  0  0  0  0  0  0  0  0
   -6.2866    4.7251    0.5122 H   0  0  0  0  0  0  0  0  0  0  0  0
   -7.0306    4.3479   -1.0452 H   0  0  0  0  0  0  0  0  0  0  0  0
   -5.7057    5.5418   -0.9256 H   0  0  0  0  0  0  0  0  0  0  0  0
  1  2  1  0
  2  3  1  0
  3  4  2  0
  3  5  1  0
  5  6  1  0
  6  7  1  0
  7  8  1  0
  8  9  1  0
  9 10  1  0
 10 11  1  0
 11 12  1  0
 12 13  1  0
 13 14  2  0
 13 15  1  0
 15 16  1  0
 16 17  1  0
 17 18  1  0
 18 19  1  0
 19 20  1  0
 19 21  1  0
 21 22  1  0
 22 23  2  0
 23 24  1  0
 23 25  1  0
 25 26  1  0
 26 27  2  0
 27 28  1  0
 28 29  2  0
 29 30  1  0
 30 31  2  0
 25 32  1  0
 32 33  1  0
 22 34  1  0
 34 35  1  0
 35 36  2  0
 35 37  1  0
 37 38  1  0
 38 39  2  0
 39 40  1  0
 40 41  2  0
 41 42  1  0
 42 43  1  0
 42 44  2  0
 44 45  1  0
 20 15  1  0
 32 21  2  0
 39 34  1  0
 34 18  1  1
 44 38  1  0
 31 26  1  0
  1 46  1  0
  1 47  1  0
  1 48  1  0
  5 49  1  0
  5 50  1  0
  6 51  1  0
  6 52  1  0
  7 53  1  0
  7 54  1  0
  8 55  1  0
  8 56  1  0
  9 57  1  0
  9 58  1  0
 10 59  1  0
 10 60  1  0
 11 61  1  0
 11 62  1  0
 12 63  1  0
 12 64  1  0
 16 65  1  0
 16 66  1  0
 17 67  1  0
 17 68  1  0
 19 69  1  1
 20 70  1  0
 20 71  1  0
 24 72  1  0
 27 73  1  0
 28 74  1  0
 29 75  1  0
 30 76  1  0
 31 77  1  0
 33 78  1  0
 37 79  1  0
 40 80  1  0
 41 81  1  0
 45 82  1  0
 45 83  1  0
 45 84  1  0
M  END
$$$$
