
     RDKit          3D

 34 35  0  0  0  0  0  0  0  0999 V2000
    1.7790   -0.2733    1.6117 C   0  0  0  0  0  0  0  0  0  0  0  0
    2.2037    0.1712    0.2246 C   0  0  0  0  0  0  0  0  0  0  0  0
    1.4718   -0.0077   -0.8393 N   0  0  0  0  0  0  0  0  0  0  0  0
    0.2381   -0.5730   -0.7261 N   0  0  0  0  0  0  0  0  0  0  0  0
   -0.5586   -0.7113   -1.8530 C   0  0  0  0  0  0  0  0  0  0  0  0
   -0.2105   -0.4663   -3.0057 O   0  0  0  0  0  0  0  0  0  0  0  0
   -1.9332   -1.2644   -1.5506 C   0  0  0  0  0  0  0  0  0  0  0  0
   -2.7028   -0.4398   -0.5219 C   0  0  0  0  0  0  0  0  0  0  0  0
   -2.8496    1.0278   -0.9159 C   0  0  0  0  0  0  0  0  0  0  0  0
   -2.0340   -0.5340    0.7574 O   0  0  0  0  0  0  0  0  0  0  0  0
   -3.0809   -0.8051    1.6928 C   0  0  0  0  0  0  0  0  0  0  0  0
   -4.0577   -1.6157    0.8882 C   0  0  0  0  0  0  0  0  0  0  0  0
   -4.0292   -0.9909   -0.3939 O   0  0  0  0  0  0  0  0  0  0  0  0
    3.4761    0.8639    0.0315 C   0  0  0  0  0  0  0  0  0  0  0  0
    4.0794    1.1767   -1.1765 C   0  0  0  0  0  0  0  0  0  0  0  0
    5.3134    1.8703   -1.0195 C   0  0  0  0  0  0  0  0  0  0  0  0
    5.6167    2.0784    0.3057 C   0  0  0  0  0  0  0  0  0  0  0  0
    4.4156    1.4460    1.3423 S   0  0  0  0  0  0  0  0  0  0  0  0
    1.1328    0.4927    2.0504 H   0  0  0  0  0  0  0  0  0  0  0  0
    2.6327   -0.4449    2.2705 H   0  0  0  0  0  0  0  0  0  0  0  0
    1.2328   -1.2197    1.5657 H   0  0  0  0  0  0  0  0  0  0  0  0
   -0.2102   -0.6377    0.1874 H   0  0  0  0  0  0  0  0  0  0  0  0
   -1.8063   -2.2962   -1.1991 H   0  0  0  0  0  0  0  0  0  0  0  0
   -2.5012   -1.3225   -2.4872 H   0  0  0  0  0  0  0  0  0  0  0  0
   -3.4811    1.5576   -0.1931 H   0  0  0  0  0  0  0  0  0  0  0  0
   -3.3309    1.1280   -1.8944 H   0  0  0  0  0  0  0  0  0  0  0  0
   -1.8853    1.5449   -0.9327 H   0  0  0  0  0  0  0  0  0  0  0  0
   -3.5111    0.1505    2.0111 H   0  0  0  0  0  0  0  0  0  0  0  0
   -2.6905   -1.3351    2.5649 H   0  0  0  0  0  0  0  0  0  0  0  0
   -5.0698   -1.6107    1.2997 H   0  0  0  0  0  0  0  0  0  0  0  0
   -3.7195   -2.6505    0.7686 H   0  0  0  0  0  0  0  0  0  0  0  0
    3.6447    0.9135   -2.1356 H   0  0  0  0  0  0  0  0  0  0  0  0
    5.9412    2.2005   -1.8382 H   0  0  0  0  0  0  0  0  0  0  0  0
    6.4842    2.5771    0.7157 H   0  0  0  0  0  0  0  0  0  0  0  0
  1  2  1  0
  2  3  2  3
  3  4  1  0
  4  5  1  0
  5  6  2  0
  5  7  1  0
  7  8  1  0
  8  9  1  0
  8 10  1  0
 10 11  1  0
 11 12  1  0
 12 13  1  0
  2 14  1  0
 14 15  2  0
 15 16  1  0
 16 17  2  0
 17 18  1  0
 13  8  1  0
 18 14  1  0
  1 19  1  0
  1 20  1  0
  1 21  1  0
  4 22  1  0
  7 23  1  0
  7 24  1  0
  9 25  1  0
  9 26  1  0
  9 27  1  0
 11 28  1  0
 11 29  1  0
 12 30  1  0
 12 31  1  0
 15 32  1  0
 16 33  1  0
 17 34  1  0
M  END
$$$$
