
     RDKit          3D

 64 67  0  0  0  0  0  0  0  0999 V2000
    5.5713   -2.0290   -7.9985 C   0  0  0  0  0  0  0  0  0  0  0  0
    5.3352   -1.8581   -6.5556 C   0  0  0  0  0  0  0  0  0  0  0  0
    4.2647   -1.4462   -5.8005 C   0  0  0  0  0  0  0  0  0  0  0  0
    4.7276   -1.5059   -4.4667 C   0  0  0  0  0  0  0  0  0  0  0  0
    4.0701   -1.1924   -3.2980 N   0  0  0  0  0  0  0  0  0  0  0  0
    2.8021   -0.6601   -3.2191 C   0  0  0  0  0  0  0  0  0  0  0  0
    2.0756   -0.3909   -4.1739 O   0  0  0  0  0  0  0  0  0  0  0  0
    2.3699   -0.4451   -1.7826 C   0  0  0  0  0  0  0  0  0  0  0  0
    1.1060    0.4082   -1.6896 C   0  0  0  0  0  0  0  0  0  0  0  0
    0.6283    0.5295   -0.2476 C   0  0  0  0  0  0  0  0  0  0  0  0
    1.3133    0.0650    0.6659 O   0  0  0  0  0  0  0  0  0  0  0  0
   -0.6285    1.0974   -0.0291 N   0  0  0  0  0  0  0  0  0  0  0  0
   -1.3216    1.8930   -0.9847 C   0  0  0  0  0  0  0  0  0  0  0  0
   -2.6738    1.6717   -1.2555 C   0  0  0  0  0  0  0  0  0  0  0  0
   -3.3432    2.4887   -2.1654 C   0  0  0  0  0  0  0  0  0  0  0  0
   -2.6383    3.5157   -2.7678 C   0  0  0  0  0  0  0  0  0  0  0  0
   -1.3392    3.7789   -2.5172 N   0  0  0  0  0  0  0  0  0  0  0  0
   -0.7131    2.9656   -1.6337 C   0  0  0  0  0  0  0  0  0  0  0  0
   -1.2344    0.9890    1.3196 C   0  0  0  0  0  0  0  0  0  0  0  0
   -1.5416   -0.4862    1.6986 C   0  0  0  0  0  0  0  0  0  0  0  0
   -1.5472   -1.3994    0.8714 O   0  0  0  0  0  0  0  0  0  0  0  0
   -1.9567   -0.6891    3.0053 N   0  0  0  0  0  0  0  0  0  0  0  0
   -2.3985   -1.9872    3.4705 C   0  0  0  0  0  0  0  0  0  0  0  0
   -3.8139   -2.3390    2.9973 C   0  0  0  0  0  0  0  0  0  0  0  0
   -4.4291   -3.1905    4.1102 C   0  0  0  0  0  0  0  0  0  0  0  0
   -3.3707   -3.2871    5.2060 C   0  0  0  0  0  0  0  0  0  0  0  0
   -2.4977   -2.0623    4.9898 C   0  0  0  0  0  0  0  0  0  0  0  0
   -0.5215    1.8491    2.3645 C   0  0  0  0  0  0  0  0  0  0  0  0
   -0.8445    3.2153    2.4609 C   0  0  0  0  0  0  0  0  0  0  0  0
   -0.2083    4.0383    3.3923 C   0  0  0  0  0  0  0  0  0  0  0  0
    0.7698    3.5146    4.2326 C   0  0  0  0  0  0  0  0  0  0  0  0
    1.1120    2.1675    4.1426 C   0  0  0  0  0  0  0  0  0  0  0  0
    0.4747    1.3430    3.2128 C   0  0  0  0  0  0  0  0  0  0  0  0
    5.9949   -1.9368   -4.4173 N   0  0  0  0  0  0  0  0  0  0  0  0
    6.3699   -2.1649   -5.7297 O   0  0  0  0  0  0  0  0  0  0  0  0
    4.6324   -1.9819   -8.5593 H   0  0  0  0  0  0  0  0  0  0  0  0
    6.2324   -1.2411   -8.3716 H   0  0  0  0  0  0  0  0  0  0  0  0
    6.0395   -2.9966   -8.2023 H   0  0  0  0  0  0  0  0  0  0  0  0
    3.2938   -1.1425   -6.1662 H   0  0  0  0  0  0  0  0  0  0  0  0
    4.6234   -1.3367   -2.4625 H   0  0  0  0  0  0  0  0  0  0  0  0
    3.1850    0.0418   -1.2348 H   0  0  0  0  0  0  0  0  0  0  0  0
    2.2013   -1.4303   -1.3330 H   0  0  0  0  0  0  0  0  0  0  0  0
    0.3054   -0.0416   -2.2875 H   0  0  0  0  0  0  0  0  0  0  0  0
    1.3396    1.3960   -2.0921 H   0  0  0  0  0  0  0  0  0  0  0  0
   -3.2073    0.8433   -0.7975 H   0  0  0  0  0  0  0  0  0  0  0  0
   -4.3872    2.3196   -2.4054 H   0  0  0  0  0  0  0  0  0  0  0  0
   -3.1142    4.1761   -3.4879 H   0  0  0  0  0  0  0  0  0  0  0  0
    0.3157    3.2462   -1.4285 H   0  0  0  0  0  0  0  0  0  0  0  0
   -2.2493    1.4114    1.2682 H   0  0  0  0  0  0  0  0  0  0  0  0
   -2.0021    0.1020    3.6391 H   0  0  0  0  0  0  0  0  0  0  0  0
   -1.6961   -2.7472    3.1051 H   0  0  0  0  0  0  0  0  0  0  0  0
   -4.4218   -1.4366    2.8430 H   0  0  0  0  0  0  0  0  0  0  0  0
   -3.7922   -2.8790    2.0429 H   0  0  0  0  0  0  0  0  0  0  0  0
   -4.7206   -4.1832    3.7493 H   0  0  0  0  0  0  0  0  0  0  0  0
   -5.3336   -2.7014    4.4935 H   0  0  0  0  0  0  0  0  0  0  0  0
   -2.7790   -4.2011    5.0699 H   0  0  0  0  0  0  0  0  0  0  0  0
   -3.8104   -3.3152    6.2078 H   0  0  0  0  0  0  0  0  0  0  0  0
   -2.9896   -1.1705    5.3976 H   0  0  0  0  0  0  0  0  0  0  0  0
   -1.5185   -2.1529    5.4701 H   0  0  0  0  0  0  0  0  0  0  0  0
   -1.5938    3.6506    1.8021 H   0  0  0  0  0  0  0  0  0  0  0  0
   -0.4622    5.0943    3.4514 H   0  0  0  0  0  0  0  0  0  0  0  0
    1.2751    4.1561    4.9509 H   0  0  0  0  0  0  0  0  0  0  0  0
    1.8881    1.7603    4.7840 H   0  0  0  0  0  0  0  0  0  0  0  0
    0.7825    0.2998    3.1460 H   0  0  0  0  0  0  0  0  0  0  0  0
  1  2  1  0
  2  3  2  0
  3  4  1  0
  4  5  1  0
  5  6  1  0
  6  7  2  0
  6  8  1  0
  8  9  1  0
  9 10  1  0
 10 11  2  0
 10 12  1  0
 12 13  1  0
 13 14  2  0
 14 15  1  0
 15 16  2  0
 16 17  1  0
 17 18  2  0
 12 19  1  0
 19 20  1  0
 20 21  2  0
 20 22  1  0
 22 23  1  0
 23 24  1  0
 24 25  1  0
 25 26  1  0
 26 27  1  0
 19 28  1  0
 28 29  2  0
 29 30  1  0
 30 31  2  0
 31 32  1  0
 32 33  2  0
  4 34  2  0
 34 35  1  0
 35  2  1  0
 18 13  1  0
 27 23  1  0
 33 28  1  0
  1 36  1  0
  1 37  1  0
  1 38  1  0
  3 39  1  0
  5 40  1  0
  8 41  1  0
  8 42  1  0
  9 43  1  0
  9 44  1  0
 14 45  1  0
 15 46  1  0
 16 47  1  0
 18 48  1  0
 19 49  1  0
 22 50  1  0
 23 51  1  0
 24 52  1  0
 24 53  1  0
 25 54  1  0
 25 55  1  0
 26 56  1  0
 26 57  1  0
 27 58  1  0
 27 59  1  0
 29 60  1  0
 30 61  1  0
 31 62  1  0
 32 63  1  0
 33 64  1  0
M  END
$$$$
