
     RDKit          3D

 33 34  0  0  0  0  0  0  0  0999 V2000
   -2.0145    3.8039    1.5407 C   0  0  0  0  0  0  0  0  0  0  0  0
   -1.2507    2.6199    1.3107 O   0  0  0  0  0  0  0  0  0  0  0  0
   -0.2885    2.7746    0.3704 C   0  0  0  0  0  0  0  0  0  0  0  0
    0.0568    3.8012   -0.1869 O   0  0  0  0  0  0  0  0  0  0  0  0
    0.4138    1.4947    0.2225 C   0  0  0  0  0  0  0  0  0  0  0  0
    1.7617    1.4863    0.5762 C   0  0  0  0  0  0  0  0  0  0  0  0
    2.4268    0.2845    0.5117 C   0  0  0  0  0  0  0  0  0  0  0  0
    3.7551    0.2960    0.8777 O   0  0  0  0  0  0  0  0  0  0  0  0
    4.3833   -0.9775    0.7661 C   0  0  0  0  0  0  0  0  0  0  0  0
    1.8390   -0.8681    0.1329 N   0  0  0  0  0  0  0  0  0  0  0  0
    0.5296   -0.8398   -0.2264 C   0  0  0  0  0  0  0  0  0  0  0  0
   -0.2134    0.3255   -0.2157 C   0  0  0  0  0  0  0  0  0  0  0  0
   -1.5935    0.2762   -0.7122 C   0  0  0  0  0  0  0  0  0  0  0  0
   -2.1843    1.3159   -0.9862 O   0  0  0  0  0  0  0  0  0  0  0  0
   -2.1430   -0.9831   -0.8984 N   0  0  0  0  0  0  0  0  0  0  0  0
   -3.5331   -1.0534   -1.3128 C   0  0  0  0  0  0  0  0  0  0  0  0
   -1.4026   -2.1562   -0.9562 C   0  0  0  0  0  0  0  0  0  0  0  0
   -1.9100   -3.2242   -1.3036 O   0  0  0  0  0  0  0  0  0  0  0  0
   -0.0663   -2.0546   -0.6217 N   0  0  0  0  0  0  0  0  0  0  0  0
    0.7781   -3.2406   -0.6425 C   0  0  0  0  0  0  0  0  0  0  0  0
   -2.4801    4.1504    0.6125 H   0  0  0  0  0  0  0  0  0  0  0  0
   -2.8063    3.5628    2.2552 H   0  0  0  0  0  0  0  0  0  0  0  0
   -1.3827    4.5860    1.9730 H   0  0  0  0  0  0  0  0  0  0  0  0
    2.2708    2.3875    0.9023 H   0  0  0  0  0  0  0  0  0  0  0  0
    4.3709   -1.3366   -0.2689 H   0  0  0  0  0  0  0  0  0  0  0  0
    3.9223   -1.7070    1.4410 H   0  0  0  0  0  0  0  0  0  0  0  0
    5.4292   -0.8607    1.0659 H   0  0  0  0  0  0  0  0  0  0  0  0
   -3.5693   -1.0390   -2.4069 H   0  0  0  0  0  0  0  0  0  0  0  0
   -3.9954   -1.9785   -0.9550 H   0  0  0  0  0  0  0  0  0  0  0  0
   -4.1031   -0.2038   -0.9253 H   0  0  0  0  0  0  0  0  0  0  0  0
    1.6189   -3.0780   -1.3249 H   0  0  0  0  0  0  0  0  0  0  0  0
    1.1484   -3.4401    0.3685 H   0  0  0  0  0  0  0  0  0  0  0  0
    0.2319   -4.1244   -0.9838 H   0  0  0  0  0  0  0  0  0  0  0  0
  1  2  1  0
  2  3  1  0
  3  4  2  0
  3  5  1  0
  5  6  2  0
  6  7  1  0
  7  8  1  0
  8  9  1  0
  7 10  2  0
 10 11  1  0
 11 12  2  0
 12 13  1  0
 13 14  2  0
 13 15  1  0
 15 16  1  0
 15 17  1  0
 17 18  2  0
 17 19  1  0
 19 20  1  0
 12  5  1  0
 19 11  1  0
  1 21  1  0
  1 22  1  0
  1 23  1  0
  6 24  1  0
  9 25  1  0
  9 26  1  0
  9 27  1  0
 16 28  1  0
 16 29  1  0
 16 30  1  0
 20 31  1  0
 20 32  1  0
 20 33  1  0
M  END
$$$$
