
     RDKit          3D

 60 66  0  0  0  0  0  0  0  0999 V2000
    0.7317    2.5850   -2.5592 O   0  0  0  0  0  0  0  0  0  0  0  0
    0.1964    2.8001   -1.4819 C   0  0  0  0  0  0  0  0  0  0  0  0
   -0.3287    4.0314   -1.0830 N   0  0  0  0  0  0  0  0  0  0  0  0
   -0.7788    3.9850    0.2302 C   0  0  0  0  0  0  0  0  0  0  0  0
   -1.3262    5.0219    0.9559 C   0  0  0  0  0  0  0  0  0  0  0  0
   -1.7047    4.7527    2.2733 C   0  0  0  0  0  0  0  0  0  0  0  0
   -1.5247    3.4720    2.8276 C   0  0  0  0  0  0  0  0  0  0  0  0
   -0.9649    2.4368    2.0733 C   0  0  0  0  0  0  0  0  0  0  0  0
   -0.5984    2.7050    0.7639 C   0  0  0  0  0  0  0  0  0  0  0  0
    0.0055    1.8218   -0.2867 C   0  0  0  0  0  0  0  0  0  0  0  0
    1.2819    1.1517    0.1055 N   0  0  0  0  0  0  0  0  0  0  0  0
    1.2351   -0.2929   -0.3239 C   0  0  2  0  0  0  0  0  0  0  0  0
    2.0943   -0.6004   -1.5680 C   0  0  0  0  0  0  0  0  0  0  0  0
    3.5595   -0.3572   -1.3658 C   0  0  0  0  0  0  0  0  0  0  0  0
    4.2886    0.6916   -1.8929 C   0  0  0  0  0  0  0  0  0  0  0  0
    5.5876    0.5612   -1.4847 N   0  0  0  0  0  0  0  0  0  0  0  0
    5.7296   -0.5596   -0.7009 C   0  0  0  0  0  0  0  0  0  0  0  0
    6.8674   -1.0817   -0.0738 C   0  0  0  0  0  0  0  0  0  0  0  0
    6.7169   -2.2559    0.6691 C   0  0  0  0  0  0  0  0  0  0  0  0
    5.4775   -2.8813    0.7777 C   0  0  0  0  0  0  0  0  0  0  0  0
    4.3502   -2.3458    0.1437 C   0  0  0  0  0  0  0  0  0  0  0  0
    4.4735   -1.1604   -0.6105 C   0  0  0  0  0  0  0  0  0  0  0  0
   -0.2089   -0.5030   -0.5829 C   0  0  0  0  0  0  0  0  0  0  0  0
   -0.9125    0.7069   -0.5663 C   0  0  0  0  0  0  0  0  0  0  0  0
   -2.2339    0.4459   -0.8232 C   0  0  0  0  0  0  0  0  0  0  0  0
   -3.2978    1.2346   -0.9130 O   0  0  0  0  0  0  0  0  0  0  0  0
   -2.3367   -0.9281   -0.9809 N   0  0  0  0  0  0  0  0  0  0  0  0
   -3.5708   -1.6430   -1.2804 C   0  0  0  0  0  0  0  0  0  0  0  0
   -4.2858   -2.0804   -0.0247 C   0  0  0  0  0  0  0  0  0  0  0  0
   -5.2183   -1.2367    0.5964 C   0  0  0  0  0  0  0  0  0  0  0  0
   -5.8738   -1.6388    1.7612 C   0  0  0  0  0  0  0  0  0  0  0  0
   -5.6014   -2.8859    2.3202 C   0  0  0  0  0  0  0  0  0  0  0  0
   -4.6705   -3.7301    1.7178 C   0  0  0  0  0  0  0  0  0  0  0  0
   -4.0142   -3.3292    0.5530 C   0  0  0  0  0  0  0  0  0  0  0  0
   -1.0884   -1.5180   -0.8503 C   0  0  0  0  0  0  0  0  0  0  0  0
   -0.9234   -2.8277   -0.9834 O   0  0  0  0  0  0  0  0  0  0  0  0
   -0.3106    4.8493   -1.6734 H   0  0  0  0  0  0  0  0  0  0  0  0
   -1.4584    6.0108    0.5322 H   0  0  0  0  0  0  0  0  0  0  0  0
   -2.1394    5.5419    2.8831 H   0  0  0  0  0  0  0  0  0  0  0  0
   -1.8225    3.2846    3.8573 H   0  0  0  0  0  0  0  0  0  0  0  0
   -0.8232    1.4474    2.4991 H   0  0  0  0  0  0  0  0  0  0  0  0
    2.0537    1.6090   -0.3784 H   0  0  0  0  0  0  0  0  0  0  0  0
    1.5595   -0.9031    0.5264 H   0  0  0  0  0  0  0  0  0  0  0  0
    1.9529   -1.6508   -1.8567 H   0  0  0  0  0  0  0  0  0  0  0  0
    1.7440   -0.0117   -2.4266 H   0  0  0  0  0  0  0  0  0  0  0  0
    3.9891    1.5165   -2.5276 H   0  0  0  0  0  0  0  0  0  0  0  0
    6.3405    1.1904   -1.7260 H   0  0  0  0  0  0  0  0  0  0  0  0
    7.8347   -0.5975   -0.1577 H   0  0  0  0  0  0  0  0  0  0  0  0
    7.5815   -2.6867    1.1688 H   0  0  0  0  0  0  0  0  0  0  0  0
    5.3827   -3.7941    1.3605 H   0  0  0  0  0  0  0  0  0  0  0  0
    3.3911   -2.8448    0.2372 H   0  0  0  0  0  0  0  0  0  0  0  0
   -3.0213    2.1293   -0.6445 H   0  0  0  0  0  0  0  0  0  0  0  0
   -3.3248   -2.5045   -1.9122 H   0  0  0  0  0  0  0  0  0  0  0  0
   -4.2088   -0.9899   -1.8874 H   0  0  0  0  0  0  0  0  0  0  0  0
   -5.4315   -0.2558    0.1760 H   0  0  0  0  0  0  0  0  0  0  0  0
   -6.5934   -0.9760    2.2340 H   0  0  0  0  0  0  0  0  0  0  0  0
   -6.1100   -3.1975    3.2284 H   0  0  0  0  0  0  0  0  0  0  0  0
   -4.4509   -4.6995    2.1569 H   0  0  0  0  0  0  0  0  0  0  0  0
   -3.2810   -3.9928    0.0987 H   0  0  0  0  0  0  0  0  0  0  0  0
    0.0138   -3.0221   -0.8100 H   0  0  0  0  0  0  0  0  0  0  0  0
  1  2  2  0
  2  3  1  0
  3  4  1  0
  4  5  2  0
  5  6  1  0
  6  7  2  0
  7  8  1  0
  8  9  2  0
  9 10  1  0
 10 11  1  0
 11 12  1  0
 12 13  1  0
 13 14  1  0
 14 15  2  0
 15 16  1  0
 16 17  1  0
 17 18  2  0
 18 19  1  0
 19 20  2  0
 20 21  1  0
 21 22  2  0
 12 23  1  0
 23 24  1  0
 24 25  2  0
 25 26  1  0
 25 27  1  0
 27 28  1  0
 28 29  1  0
 29 30  2  0
 30 31  1  0
 31 32  2  0
 32 33  1  0
 33 34  2  0
 27 35  1  0
 35 36  1  0
 10  2  1  0
 22 14  1  0
 35 23  2  0
  9  4  1  0
 24 10  1  0
 34 29  1  0
 22 17  1  0
  3 37  1  0
  5 38  1  0
  6 39  1  0
  7 40  1  0
  8 41  1  0
 11 42  1  0
 12 43  1  1
 13 44  1  0
 13 45  1  0
 15 46  1  0
 16 47  1  0
 18 48  1  0
 19 49  1  0
 20 50  1  0
 21 51  1  0
 26 52  1  0
 28 53  1  0
 28 54  1  0
 30 55  1  0
 31 56  1  0
 32 57  1  0
 33 58  1  0
 34 59  1  0
 36 60  1  0
M  END
$$$$
