
     RDKit          3D

 40 42  0  0  0  0  0  0  0  0999 V2000
   -0.4060   -2.5587    0.7657 O   0  0  0  0  0  0  0  0  0  0  0  0
    0.3523   -1.6040    0.6051 C   0  0  0  0  0  0  0  0  0  0  0  0
    1.2949   -1.1372    1.7032 C   0  0  0  0  0  0  0  0  0  0  0  0
    2.6992   -0.8349    1.2335 C   0  0  0  0  0  0  0  0  0  0  0  0
    3.4972   -1.8497    0.6865 C   0  0  0  0  0  0  0  0  0  0  0  0
    4.7892   -1.5682    0.2363 C   0  0  0  0  0  0  0  0  0  0  0  0
    5.2970   -0.2752    0.3337 C   0  0  0  0  0  0  0  0  0  0  0  0
    4.5153    0.7400    0.8853 C   0  0  0  0  0  0  0  0  0  0  0  0
    3.2217    0.4629    1.3340 C   0  0  0  0  0  0  0  0  0  0  0  0
    0.3759   -0.8451   -0.5441 N   0  0  0  0  0  0  0  0  0  0  0  0
   -0.4936   -1.1155   -1.6787 C   0  0  0  0  0  0  0  0  0  0  0  0
   -1.6147   -0.0660   -1.8886 C   0  0  0  0  0  0  0  0  0  0  0  0
   -1.0390    1.1429   -2.4360 O   0  0  0  0  0  0  0  0  0  0  0  0
   -0.7923    2.1615   -1.4703 C   0  0  0  0  0  0  0  0  0  0  0  0
   -2.0989    2.6113   -0.8331 C   0  0  0  0  0  0  0  0  0  0  0  0
   -2.7784    1.4337   -0.1910 C   0  0  0  0  0  0  0  0  0  0  0  0
   -3.6700    1.6239    0.8744 C   0  0  0  0  0  0  0  0  0  0  0  0
   -4.3230    0.5337    1.4461 C   0  0  0  0  0  0  0  0  0  0  0  0
   -4.0984   -0.7465    0.9499 C   0  0  0  0  0  0  0  0  0  0  0  0
   -3.2229   -0.9409   -0.1210 C   0  0  0  0  0  0  0  0  0  0  0  0
   -2.5486    0.1439   -0.7030 C   0  0  0  0  0  0  0  0  0  0  0  0
    1.3490   -1.9184    2.4719 H   0  0  0  0  0  0  0  0  0  0  0  0
    0.8407   -0.2555    2.1738 H   0  0  0  0  0  0  0  0  0  0  0  0
    3.1145   -2.8664    0.6044 H   0  0  0  0  0  0  0  0  0  0  0  0
    5.3998   -2.3585   -0.1944 H   0  0  0  0  0  0  0  0  0  0  0  0
    6.3037   -0.0589   -0.0158 H   0  0  0  0  0  0  0  0  0  0  0  0
    4.9156    1.7482    0.9679 H   0  0  0  0  0  0  0  0  0  0  0  0
    2.6285    1.2672    1.7657 H   0  0  0  0  0  0  0  0  0  0  0  0
    1.1117   -0.1606   -0.6668 H   0  0  0  0  0  0  0  0  0  0  0  0
   -0.9266   -2.1161   -1.5737 H   0  0  0  0  0  0  0  0  0  0  0  0
    0.1609   -1.1280   -2.5582 H   0  0  0  0  0  0  0  0  0  0  0  0
   -2.2426   -0.4476   -2.7044 H   0  0  0  0  0  0  0  0  0  0  0  0
   -0.3332    3.0066   -1.9960 H   0  0  0  0  0  0  0  0  0  0  0  0
   -0.0715    1.8135   -0.7214 H   0  0  0  0  0  0  0  0  0  0  0  0
   -1.8977    3.3935   -0.0932 H   0  0  0  0  0  0  0  0  0  0  0  0
   -2.7725    3.0171   -1.5980 H   0  0  0  0  0  0  0  0  0  0  0  0
   -3.8578    2.6219    1.2631 H   0  0  0  0  0  0  0  0  0  0  0  0
   -5.0092    0.6820    2.2759 H   0  0  0  0  0  0  0  0  0  0  0  0
   -4.6052   -1.5992    1.3939 H   0  0  0  0  0  0  0  0  0  0  0  0
   -3.0650   -1.9528   -0.4887 H   0  0  0  0  0  0  0  0  0  0  0  0
  1  2  2  0
  2  3  1  0
  3  4  1  0
  4  5  2  0
  5  6  1  0
  6  7  2  0
  7  8  1  0
  8  9  2  0
  2 10  1  0
 10 11  1  0
 11 12  1  0
 12 13  1  0
 13 14  1  0
 14 15  1  0
 15 16  1  0
 16 17  2  0
 17 18  1  0
 18 19  2  0
 19 20  1  0
 20 21  2  0
  9  4  1  0
 21 12  1  0
 21 16  1  0
  3 22  1  0
  3 23  1  0
  5 24  1  0
  6 25  1  0
  7 26  1  0
  8 27  1  0
  9 28  1  0
 10 29  1  0
 11 30  1  0
 11 31  1  0
 12 32  1  0
 14 33  1  0
 14 34  1  0
 15 35  1  0
 15 36  1  0
 17 37  1  0
 18 38  1  0
 19 39  1  0
 20 40  1  0
M  END
$$$$
