
     RDKit          3D

 49 53  0  0  0  0  0  0  0  0999 V2000
   -1.2134   -1.7197    2.8199 O   0  0  0  0  0  0  0  0  0  0  0  0
   -1.0376   -1.0646    1.7905 C   0  0  0  0  0  0  0  0  0  0  0  0
   -2.1679   -0.5291    1.0513 C   0  0  0  0  0  0  0  0  0  0  0  0
   -3.4617   -0.2738    1.4701 C   0  0  0  0  0  0  0  0  0  0  0  0
   -4.1927    0.1864    0.3394 C   0  0  0  0  0  0  0  0  0  0  0  0
   -3.2894    0.1560   -0.7151 C   0  0  0  0  0  0  0  0  0  0  0  0
   -3.5925    0.5249   -2.0221 C   0  0  0  0  0  0  0  0  0  0  0  0
   -4.9023    0.9526   -2.2666 C   0  0  0  0  0  0  0  0  0  0  0  0
   -5.8657    1.0052   -1.2453 C   0  0  0  0  0  0  0  0  0  0  0  0
   -7.1776    1.4328   -1.4996 C   0  0  0  0  0  0  0  0  0  0  0  0
   -8.1278    1.4778   -0.4754 C   0  0  0  0  0  0  0  0  0  0  0  0
   -7.7841    1.0969    0.8203 C   0  0  0  0  0  0  0  0  0  0  0  0
   -6.4874    0.6684    1.1019 C   0  0  0  0  0  0  0  0  0  0  0  0
   -5.5211    0.6191    0.0772 C   0  0  0  0  0  0  0  0  0  0  0  0
   -2.0744   -0.2867   -0.2932 O   0  0  0  0  0  0  0  0  0  0  0  0
    0.2562   -0.8503    1.2961 N   0  0  0  0  0  0  0  0  0  0  0  0
    0.6520    0.4081    0.6488 C   0  0  0  0  0  0  0  0  0  0  0  0
    1.8768    0.2311   -0.2686 C   0  0  0  0  0  0  0  0  0  0  0  0
    2.9746   -0.4164    0.4568 N   0  0  0  0  0  0  0  0  0  0  0  0
    4.3034   -0.3343    0.0772 C   0  0  0  0  0  0  0  0  0  0  0  0
    5.1808   -0.6281    1.0770 N   0  0  0  0  0  0  0  0  0  0  0  0
    6.5141   -0.5278    0.8696 C   0  0  0  0  0  0  0  0  0  0  0  0
    7.0761   -0.1375   -0.3264 C   0  0  0  0  0  0  0  0  0  0  0  0
    8.5611   -0.0737   -0.4842 C   0  0  0  0  0  0  0  0  0  0  0  0
    9.0952   -1.2738   -0.8379 F   0  0  0  0  0  0  0  0  0  0  0  0
    8.9574    0.8092   -1.4421 F   0  0  0  0  0  0  0  0  0  0  0  0
    9.2033    0.3015    0.6557 F   0  0  0  0  0  0  0  0  0  0  0  0
    6.1966    0.1397   -1.3707 C   0  0  0  0  0  0  0  0  0  0  0  0
    4.8087    0.0455   -1.1799 C   0  0  0  0  0  0  0  0  0  0  0  0
    3.8567    0.3363   -2.5954 Cl  0  0  0  0  0  0  0  0  0  0  0  0
    2.6057   -1.6861    1.1178 C   0  0  0  0  0  0  0  0  0  0  0  0
    1.3582   -1.5109    2.0013 C   0  0  0  0  0  0  0  0  0  0  0  0
   -3.8241   -0.4119    2.4793 H   0  0  0  0  0  0  0  0  0  0  0  0
   -2.8490    0.4787   -2.8085 H   0  0  0  0  0  0  0  0  0  0  0  0
   -5.1685    1.2468   -3.2807 H   0  0  0  0  0  0  0  0  0  0  0  0
   -7.4739    1.7347   -2.5019 H   0  0  0  0  0  0  0  0  0  0  0  0
   -9.1400    1.8104   -0.6916 H   0  0  0  0  0  0  0  0  0  0  0  0
   -8.5278    1.1328    1.6123 H   0  0  0  0  0  0  0  0  0  0  0  0
   -6.2379    0.3741    2.1179 H   0  0  0  0  0  0  0  0  0  0  0  0
   -0.1609    0.8650    0.0853 H   0  0  0  0  0  0  0  0  0  0  0  0
    0.8941    1.1098    1.4581 H   0  0  0  0  0  0  0  0  0  0  0  0
    2.1683    1.2306   -0.6094 H   0  0  0  0  0  0  0  0  0  0  0  0
    1.5838   -0.3810   -1.1296 H   0  0  0  0  0  0  0  0  0  0  0  0
    7.1253   -0.7797    1.7341 H   0  0  0  0  0  0  0  0  0  0  0  0
    6.5918    0.4239   -2.3452 H   0  0  0  0  0  0  0  0  0  0  0  0
    3.4052   -2.0873    1.7518 H   0  0  0  0  0  0  0  0  0  0  0  0
    2.3991   -2.4354    0.3423 H   0  0  0  0  0  0  0  0  0  0  0  0
    1.0347   -2.4932    2.3638 H   0  0  0  0  0  0  0  0  0  0  0  0
    1.5982   -0.8969    2.8785 H   0  0  0  0  0  0  0  0  0  0  0  0
  1  2  2  0
  2  3  1  0
  3  4  2  0
  4  5  1  0
  5  6  2  0
  6  7  1  0
  7  8  2  0
  8  9  1  0
  9 10  2  0
 10 11  1  0
 11 12  2  0
 12 13  1  0
 13 14  2  0
  6 15  1  0
  2 16  1  0
 16 17  1  0
 17 18  1  0
 18 19  1  0
 19 20  1  0
 20 21  2  0
 21 22  1  0
 22 23  2  0
 23 24  1  0
 24 25  1  0
 24 26  1  0
 24 27  1  0
 23 28  1  0
 28 29  2  0
 29 30  1  0
 19 31  1  0
 31 32  1  0
 15  3  1  0
 32 16  1  0
 14  5  1  0
 29 20  1  0
 14  9  1  0
  4 33  1  0
  7 34  1  0
  8 35  1  0
 10 36  1  0
 11 37  1  0
 12 38  1  0
 13 39  1  0
 17 40  1  0
 17 41  1  0
 18 42  1  0
 18 43  1  0
 22 44  1  0
 28 45  1  0
 31 46  1  0
 31 47  1  0
 32 48  1  0
 32 49  1  0
M  END
$$$$
