
     RDKit          3D

 37 39  0  0  0  0  0  0  0  0999 V2000
    5.1986   -0.0201   -0.1529 N   0  0  0  0  0  0  0  0  0  0  0  0
    3.7958   -0.4127   -0.1475 C   0  0  0  0  0  0  0  0  0  0  0  0
    2.9577    0.6325   -0.8830 C   0  0  0  0  0  0  0  0  0  0  0  0
    1.4713    0.2700   -0.9534 C   0  0  0  0  0  0  0  0  0  0  0  0
    0.7767    0.3141    0.4174 C   0  0  0  0  0  0  0  0  0  0  0  0
   -0.6836    0.0926    0.2931 N   0  0  0  0  0  0  0  0  0  0  0  0
   -1.1526   -1.2476    0.4282 C   0  0  0  0  0  0  0  0  0  0  0  0
   -0.2891   -2.3633    0.3288 C   0  0  0  0  0  0  0  0  0  0  0  0
   -0.7417   -3.6835    0.4475 C   0  0  0  0  0  0  0  0  0  0  0  0
   -2.0840   -3.9374    0.6678 C   0  0  0  0  0  0  0  0  0  0  0  0
   -2.9659   -2.8682    0.7654 C   0  0  0  0  0  0  0  0  0  0  0  0
   -2.5151   -1.5380    0.6443 C   0  0  0  0  0  0  0  0  0  0  0  0
   -3.7696   -0.2932    0.8228 S   0  0  0  0  0  0  0  0  0  0  0  0
   -2.9063    1.1858    0.3534 C   0  0  0  0  0  0  0  0  0  0  0  0
   -3.7143    2.3324    0.2095 C   0  0  0  0  0  0  0  0  0  0  0  0
   -3.1618    3.5604   -0.1351 C   0  0  0  0  0  0  0  0  0  0  0  0
   -1.7955    3.6434   -0.3376 C   0  0  0  0  0  0  0  0  0  0  0  0
   -1.0886    5.1512   -0.7748 Cl  0  0  0  0  0  0  0  0  0  0  0  0
   -0.9851    2.5122   -0.1946 C   0  0  0  0  0  0  0  0  0  0  0  0
   -1.5097    1.2482    0.1611 C   0  0  0  0  0  0  0  0  0  0  0  0
    5.7586   -0.7446    0.2955 H   0  0  0  0  0  0  0  0  0  0  0  0
    5.5377    0.0470   -1.1123 H   0  0  0  0  0  0  0  0  0  0  0  0
    3.4689   -0.5108    0.8917 H   0  0  0  0  0  0  0  0  0  0  0  0
    3.6879   -1.3915   -0.6272 H   0  0  0  0  0  0  0  0  0  0  0  0
    3.3312    0.7368   -1.9100 H   0  0  0  0  0  0  0  0  0  0  0  0
    3.0726    1.6139   -0.4056 H   0  0  0  0  0  0  0  0  0  0  0  0
    0.9841    0.9706   -1.6414 H   0  0  0  0  0  0  0  0  0  0  0  0
    1.3588   -0.7168   -1.4157 H   0  0  0  0  0  0  0  0  0  0  0  0
    1.2212   -0.4148    1.1051 H   0  0  0  0  0  0  0  0  0  0  0  0
    0.9886    1.2659    0.9213 H   0  0  0  0  0  0  0  0  0  0  0  0
    0.7720   -2.2466    0.1382 H   0  0  0  0  0  0  0  0  0  0  0  0
   -0.0382   -4.5079    0.3618 H   0  0  0  0  0  0  0  0  0  0  0  0
   -2.4458   -4.9574    0.7616 H   0  0  0  0  0  0  0  0  0  0  0  0
   -4.0201   -3.0758    0.9400 H   0  0  0  0  0  0  0  0  0  0  0  0
   -4.7894    2.2696    0.3690 H   0  0  0  0  0  0  0  0  0  0  0  0
   -3.7981    4.4337   -0.2433 H   0  0  0  0  0  0  0  0  0  0  0  0
    0.0729    2.6501   -0.3889 H   0  0  0  0  0  0  0  0  0  0  0  0
  1  2  1  0
  2  3  1  0
  3  4  1  0
  4  5  1  0
  5  6  1  0
  6  7  1  0
  7  8  2  0
  8  9  1  0
  9 10  2  0
 10 11  1  0
 11 12  2  0
 12 13  1  0
 13 14  1  0
 14 15  2  0
 15 16  1  0
 16 17  2  0
 17 18  1  0
 17 19  1  0
 19 20  2  0
 20  6  1  0
 12  7  1  0
 20 14  1  0
  1 21  1  0
  1 22  1  0
  2 23  1  0
  2 24  1  0
  3 25  1  0
  3 26  1  0
  4 27  1  0
  4 28  1  0
  5 29  1  0
  5 30  1  0
  8 31  1  0
  9 32  1  0
 10 33  1  0
 11 34  1  0
 15 35  1  0
 16 36  1  0
 19 37  1  0
M  END
$$$$
