
     RDKit          3D

 53 56  0  0  0  0  0  0  0  0999 V2000
   -7.3201    2.0298    2.2752 C   0  0  0  0  0  0  0  0  0  0  0  0
   -6.1223    1.5180    1.5317 C   0  0  0  0  0  0  0  0  0  0  0  0
   -5.6685    0.2119    1.7306 C   0  0  0  0  0  0  0  0  0  0  0  0
   -4.5691   -0.2726    1.0158 C   0  0  0  0  0  0  0  0  0  0  0  0
   -3.9172    0.5324    0.0665 C   0  0  0  0  0  0  0  0  0  0  0  0
   -2.7938   -0.0044   -0.6362 N   0  0  0  0  0  0  0  0  0  0  0  0
   -2.1873   -1.1164   -0.1383 N   0  0  0  0  0  0  0  0  0  0  0  0
   -1.0713   -1.2572   -0.8546 C   0  0  0  0  0  0  0  0  0  0  0  0
   -0.0416   -2.2692   -0.6590 C   0  0  0  0  0  0  0  0  0  0  0  0
   -0.0641   -3.1035    0.2418 O   0  0  0  0  0  0  0  0  0  0  0  0
    0.9890   -2.1859   -1.6179 N   0  0  0  0  0  0  0  0  0  0  0  0
    2.0834   -3.1541   -1.5472 C   0  0  0  0  0  0  0  0  0  0  0  0
    3.2369   -2.6602   -0.6735 C   0  0  0  0  0  0  0  0  0  0  0  0
    4.0621   -3.4273   -0.1822 O   0  0  0  0  0  0  0  0  0  0  0  0
    3.3565   -1.2895   -0.5905 N   0  0  0  0  0  0  0  0  0  0  0  0
    4.4114   -0.6397    0.1600 C   0  0  0  0  0  0  0  0  0  0  0  0
    4.1359   -0.6394    1.6658 C   0  0  0  0  0  0  0  0  0  0  0  0
    5.2204    0.0688    2.4230 C   0  0  0  0  0  0  0  0  0  0  0  0
    6.3704   -0.4708    2.9643 C   0  0  0  0  0  0  0  0  0  0  0  0
    7.1732    0.5093    3.6153 C   0  0  0  0  0  0  0  0  0  0  0  0
    6.6086    1.7632    3.5511 C   0  0  0  0  0  0  0  0  0  0  0  0
    5.1201    1.7548    2.7100 S   0  0  0  0  0  0  0  0  0  0  0  0
    1.0799   -1.2119   -2.6232 N   0  0  0  0  0  0  0  0  0  0  0  0
    0.1443   -0.3149   -2.7767 C   0  0  0  0  0  0  0  0  0  0  0  0
    0.2964    0.6931   -3.8801 C   0  0  0  0  0  0  0  0  0  0  0  0
   -0.9893   -0.3156   -1.8854 C   0  0  0  0  0  0  0  0  0  0  0  0
   -2.1554    0.4281   -1.8064 C   0  0  0  0  0  0  0  0  0  0  0  0
   -2.7108    1.4318   -2.7510 C   0  0  0  0  0  0  0  0  0  0  0  0
   -4.3669    1.8434   -0.1228 C   0  0  0  0  0  0  0  0  0  0  0  0
   -5.4679    2.3258    0.5964 C   0  0  0  0  0  0  0  0  0  0  0  0
   -8.2289    1.8399    1.6959 H   0  0  0  0  0  0  0  0  0  0  0  0
   -7.2346    3.1060    2.4584 H   0  0  0  0  0  0  0  0  0  0  0  0
   -7.4142    1.5412    3.2507 H   0  0  0  0  0  0  0  0  0  0  0  0
   -6.1624   -0.4412    2.4471 H   0  0  0  0  0  0  0  0  0  0  0  0
   -4.2402   -1.2942    1.2042 H   0  0  0  0  0  0  0  0  0  0  0  0
    1.7151   -4.0973   -1.1311 H   0  0  0  0  0  0  0  0  0  0  0  0
    2.4621   -3.3359   -2.5584 H   0  0  0  0  0  0  0  0  0  0  0  0
    2.6835   -0.7340   -1.1109 H   0  0  0  0  0  0  0  0  0  0  0  0
    5.3577   -1.1493   -0.0569 H   0  0  0  0  0  0  0  0  0  0  0  0
    4.4892    0.3838   -0.2229 H   0  0  0  0  0  0  0  0  0  0  0  0
    3.1620   -0.1743    1.8657 H   0  0  0  0  0  0  0  0  0  0  0  0
    4.0553   -1.6707    2.0320 H   0  0  0  0  0  0  0  0  0  0  0  0
    6.6234   -1.5228    2.8964 H   0  0  0  0  0  0  0  0  0  0  0  0
    8.1158    0.3037    4.1075 H   0  0  0  0  0  0  0  0  0  0  0  0
    6.9969    2.6859    3.9594 H   0  0  0  0  0  0  0  0  0  0  0  0
    1.3123    0.6618   -4.2854 H   0  0  0  0  0  0  0  0  0  0  0  0
   -0.4048    0.4601   -4.6857 H   0  0  0  0  0  0  0  0  0  0  0  0
    0.1044    1.7008   -3.5027 H   0  0  0  0  0  0  0  0  0  0  0  0
   -2.3651    2.4379   -2.4964 H   0  0  0  0  0  0  0  0  0  0  0  0
   -2.3961    1.2193   -3.7765 H   0  0  0  0  0  0  0  0  0  0  0  0
   -3.8043    1.4126   -2.7728 H   0  0  0  0  0  0  0  0  0  0  0  0
   -3.8671    2.5409   -0.7833 H   0  0  0  0  0  0  0  0  0  0  0  0
   -5.8030    3.3480    0.4310 H   0  0  0  0  0  0  0  0  0  0  0  0
  1  2  1  0
  2  3  2  0
  3  4  1  0
  4  5  2  0
  5  6  1  0
  6  7  1  0
  7  8  2  0
  8  9  1  0
  9 10  2  0
  9 11  1  0
 11 12  1  0
 12 13  1  0
 13 14  2  0
 13 15  1  0
 15 16  1  0
 16 17  1  0
 17 18  1  0
 18 19  2  0
 19 20  1  0
 20 21  2  0
 21 22  1  0
 11 23  1  0
 23 24  2  0
 24 25  1  0
 24 26  1  0
 26 27  2  0
 27 28  1  0
  5 29  1  0
 29 30  2  0
 30  2  1  0
 27  6  1  0
 26  8  1  0
 22 18  1  0
  1 31  1  0
  1 32  1  0
  1 33  1  0
  3 34  1  0
  4 35  1  0
 12 36  1  0
 12 37  1  0
 15 38  1  0
 16 39  1  0
 16 40  1  0
 17 41  1  0
 17 42  1  0
 19 43  1  0
 20 44  1  0
 21 45  1  0
 25 46  1  0
 25 47  1  0
 25 48  1  0
 28 49  1  0
 28 50  1  0
 28 51  1  0
 29 52  1  0
 30 53  1  0
M  END
$$$$
