
     RDKit          3D

 46 47  0  0  0  0  0  0  0  0999 V2000
    4.4027   -2.3762   -2.4965 C   0  0  0  0  0  0  0  0  0  0  0  0
    4.7099   -0.9242   -2.2412 C   0  0  0  0  0  0  0  0  0  0  0  0
    5.6259   -0.3545   -2.8240 O   0  0  0  0  0  0  0  0  0  0  0  0
    3.8516   -0.3768   -1.3124 N   0  0  0  0  0  0  0  0  0  0  0  0
    3.7948    0.9597   -0.8537 C   0  0  0  0  0  0  0  0  0  0  0  0
    4.6385    1.9763   -1.3101 C   0  0  0  0  0  0  0  0  0  0  0  0
    4.4962    3.2789   -0.8242 C   0  0  0  0  0  0  0  0  0  0  0  0
    3.5174    3.5718    0.1238 C   0  0  0  0  0  0  0  0  0  0  0  0
    2.6752    2.5614    0.5963 C   0  0  0  0  0  0  0  0  0  0  0  0
    2.8005    1.2606    0.1010 C   0  0  0  0  0  0  0  0  0  0  0  0
    2.0438    0.1941    0.5256 O   0  0  0  0  0  0  0  0  0  0  0  0
    0.6998    0.4606    0.9339 C   0  0  0  0  0  0  0  0  0  0  0  0
    0.6321    0.4151    2.4570 C   0  0  0  0  0  0  0  0  0  0  0  0
   -0.2062   -0.6353    0.3341 C   0  0  0  0  0  0  0  0  0  0  0  0
    0.2159   -1.5709   -0.3405 O   0  0  0  0  0  0  0  0  0  0  0  0
   -1.5476   -0.4645    0.6086 N   0  0  0  0  0  0  0  0  0  0  0  0
   -2.5637   -1.3932    0.1393 C   0  0  0  0  0  0  0  0  0  0  0  0
   -2.5336   -2.7063    0.9256 C   0  0  0  0  0  0  0  0  0  0  0  0
   -3.9327   -0.7365    0.2167 C   0  0  0  0  0  0  0  0  0  0  0  0
   -4.4658   -0.2968    1.4435 C   0  0  0  0  0  0  0  0  0  0  0  0
   -5.7176    0.3183    1.4945 C   0  0  0  0  0  0  0  0  0  0  0  0
   -6.4426    0.4954    0.3221 C   0  0  0  0  0  0  0  0  0  0  0  0
   -7.6427    1.0872    0.3729 F   0  0  0  0  0  0  0  0  0  0  0  0
   -5.9464    0.0540   -0.8992 C   0  0  0  0  0  0  0  0  0  0  0  0
   -4.6940   -0.5636   -0.9517 C   0  0  0  0  0  0  0  0  0  0  0  0
    3.3913   -2.4750   -2.9004 H   0  0  0  0  0  0  0  0  0  0  0  0
    4.4858   -2.9430   -1.5661 H   0  0  0  0  0  0  0  0  0  0  0  0
    5.1178   -2.7804   -3.2196 H   0  0  0  0  0  0  0  0  0  0  0  0
    3.1412   -0.9828   -0.9027 H   0  0  0  0  0  0  0  0  0  0  0  0
    5.4150    1.7857   -2.0456 H   0  0  0  0  0  0  0  0  0  0  0  0
    5.1542    4.0652   -1.1924 H   0  0  0  0  0  0  0  0  0  0  0  0
    3.4145    4.5873    0.4955 H   0  0  0  0  0  0  0  0  0  0  0  0
    1.9435    2.8177    1.3544 H   0  0  0  0  0  0  0  0  0  0  0  0
    0.3304    1.4155    0.5393 H   0  0  0  0  0  0  0  0  0  0  0  0
    0.8726   -0.5871    2.8274 H   0  0  0  0  0  0  0  0  0  0  0  0
   -0.3629    0.6738    2.8252 H   0  0  0  0  0  0  0  0  0  0  0  0
    1.3546    1.1000    2.9109 H   0  0  0  0  0  0  0  0  0  0  0  0
   -1.8574    0.3892    1.0545 H   0  0  0  0  0  0  0  0  0  0  0  0
   -2.3302   -1.6248   -0.9061 H   0  0  0  0  0  0  0  0  0  0  0  0
   -2.6672   -2.5392    2.0004 H   0  0  0  0  0  0  0  0  0  0  0  0
   -1.5764   -3.2227    0.7947 H   0  0  0  0  0  0  0  0  0  0  0  0
   -3.3253   -3.3839    0.5889 H   0  0  0  0  0  0  0  0  0  0  0  0
   -3.9096   -0.4350    2.3672 H   0  0  0  0  0  0  0  0  0  0  0  0
   -6.1331    0.6562    2.4393 H   0  0  0  0  0  0  0  0  0  0  0  0
   -6.5440    0.1712   -1.7945 H   0  0  0  0  0  0  0  0  0  0  0  0
   -4.3267   -0.9224   -1.9102 H   0  0  0  0  0  0  0  0  0  0  0  0
  1  2  1  0
  2  3  2  0
  2  4  1  0
  4  5  1  0
  5  6  2  0
  6  7  1  0
  7  8  2  0
  8  9  1  0
  9 10  2  0
 10 11  1  0
 11 12  1  0
 12 13  1  0
 12 14  1  0
 14 15  2  0
 14 16  1  0
 16 17  1  0
 17 18  1  0
 17 19  1  0
 19 20  2  0
 20 21  1  0
 21 22  2  0
 22 23  1  0
 22 24  1  0
 24 25  2  0
 10  5  1  0
 25 19  1  0
  1 26  1  0
  1 27  1  0
  1 28  1  0
  4 29  1  0
  6 30  1  0
  7 31  1  0
  8 32  1  0
  9 33  1  0
 12 34  1  0
 13 35  1  0
 13 36  1  0
 13 37  1  0
 16 38  1  0
 17 39  1  0
 18 40  1  0
 18 41  1  0
 18 42  1  0
 20 43  1  0
 21 44  1  0
 24 45  1  0
 25 46  1  0
M  END
$$$$
