
     RDKit          3D

 43 46  0  0  0  0  0  0  0  0999 V2000
    6.4700    1.6307    1.3136 C   0  0  0  0  0  0  0  0  0  0  0  0
    5.0782    1.1663    0.9956 C   0  0  0  0  0  0  0  0  0  0  0  0
    4.4082    1.6524   -0.1310 C   0  0  0  0  0  0  0  0  0  0  0  0
    3.1236    1.1987   -0.4479 C   0  0  0  0  0  0  0  0  0  0  0  0
    2.4992    0.2426    0.3535 C   0  0  0  0  0  0  0  0  0  0  0  0
    1.0554   -0.2732    0.0118 C   0  0  0  0  0  0  0  0  0  0  0  0
    0.2969   -1.1610    0.7663 C   0  0  0  0  0  0  0  0  0  0  0  0
   -0.9441   -1.3379    0.1513 N   0  0  0  0  0  4  0  0  0  0  0  0
   -2.0344   -2.1916    0.6142 C   0  0  0  0  0  0  0  0  0  0  0  0
   -3.2457   -1.3402    0.9013 C   0  0  0  0  0  0  0  0  0  0  0  0
   -3.2025   -0.3323    1.8761 C   0  0  0  0  0  0  0  0  0  0  0  0
   -4.3267    0.4587    2.1315 C   0  0  0  0  0  0  0  0  0  0  0  0
   -5.5115    0.2549    1.4194 C   0  0  0  0  0  0  0  0  0  0  0  0
   -6.8530    1.2787    1.7772 Cl  0  0  0  0  0  0  0  0  0  0  0  0
   -5.5704   -0.7513    0.4517 C   0  0  0  0  0  0  0  0  0  0  0  0
   -6.9898   -1.0633   -0.4799 Cl  0  0  0  0  0  0  0  0  0  0  0  0
   -4.4442   -1.5465    0.1991 C   0  0  0  0  0  0  0  0  0  0  0  0
   -0.9412   -0.6040   -0.9573 C   0  0  0  0  0  0  0  0  0  0  0  0
    0.2310    0.0149   -1.0609 N   0  0  0  0  0  0  0  0  0  0  0  0
    0.3148    0.8208   -2.2712 C   0  0  0  0  0  0  0  0  0  0  0  0
   -0.9115    0.3536   -3.1030 C   0  0  0  0  0  0  0  0  0  0  0  0
   -1.8581   -0.3094   -2.0830 C   0  0  0  0  0  0  0  0  0  0  0  0
    3.1695   -0.2547    1.4772 C   0  0  0  0  0  0  0  0  0  0  0  0
    4.4538    0.2008    1.7902 C   0  0  0  0  0  0  0  0  0  0  0  0
    6.6546    1.6008    2.3926 H   0  0  0  0  0  0  0  0  0  0  0  0
    6.6204    2.6651    0.9871 H   0  0  0  0  0  0  0  0  0  0  0  0
    7.2015    0.9905    0.8110 H   0  0  0  0  0  0  0  0  0  0  0  0
    4.8856    2.3951   -0.7689 H   0  0  0  0  0  0  0  0  0  0  0  0
    2.6441    1.6243   -1.3193 H   0  0  0  0  0  0  0  0  0  0  0  0
    0.4803   -1.6865    1.6882 H   0  0  0  0  0  0  0  0  0  0  0  0
   -2.2351   -2.9327   -0.1675 H   0  0  0  0  0  0  0  0  0  0  0  0
   -1.7325   -2.7295    1.5194 H   0  0  0  0  0  0  0  0  0  0  0  0
   -2.2947   -0.1511    2.4499 H   0  0  0  0  0  0  0  0  0  0  0  0
   -4.2751    1.2360    2.8925 H   0  0  0  0  0  0  0  0  0  0  0  0
   -4.5141   -2.3316   -0.5531 H   0  0  0  0  0  0  0  0  0  0  0  0
    1.2470    0.6291   -2.8072 H   0  0  0  0  0  0  0  0  0  0  0  0
    0.2285    1.8765   -1.9984 H   0  0  0  0  0  0  0  0  0  0  0  0
   -0.5825   -0.3997   -3.8286 H   0  0  0  0  0  0  0  0  0  0  0  0
   -1.3842    1.1693   -3.6566 H   0  0  0  0  0  0  0  0  0  0  0  0
   -2.2980   -1.2415   -2.4392 H   0  0  0  0  0  0  0  0  0  0  0  0
   -2.6109    0.3842   -1.7028 H   0  0  0  0  0  0  0  0  0  0  0  0
    2.7301   -1.0035    2.1291 H   0  0  0  0  0  0  0  0  0  0  0  0
    4.9679   -0.2026    2.6616 H   0  0  0  0  0  0  0  0  0  0  0  0
  1  2  1  0
  2  3  2  0
  3  4  1  0
  4  5  2  0
  5  6  1  0
  6  7  2  0
  7  8  1  0
  8  9  1  0
  9 10  1  0
 10 11  2  0
 11 12  1  0
 12 13  2  0
 13 14  1  0
 13 15  1  0
 15 16  1  0
 15 17  2  0
  8 18  2  0
 18 19  1  0
 19 20  1  0
 20 21  1  0
 21 22  1  0
  5 23  1  0
 23 24  2  0
 24  2  1  0
 19  6  1  0
 17 10  1  0
 22 18  1  0
  1 25  1  0
  1 26  1  0
  1 27  1  0
  3 28  1  0
  4 29  1  0
  7 30  1  0
  9 31  1  0
  9 32  1  0
 11 33  1  0
 12 34  1  0
 17 35  1  0
 20 36  1  0
 20 37  1  0
 21 38  1  0
 21 39  1  0
 22 40  1  0
 22 41  1  0
 23 42  1  0
 24 43  1  0
M  CHG  1   8   1
M  END
$$$$
