
     RDKit          3D

 64 69  0  0  0  0  0  0  0  0999 V2000
   -5.1940    3.5622    4.5545 C   0  0  0  0  0  0  0  0  0  0  0  0
   -4.1957    3.6688    3.5474 O   0  0  0  0  0  0  0  0  0  0  0  0
   -4.1839    2.6979    2.5843 C   0  0  0  0  0  0  0  0  0  0  0  0
   -3.1580    2.8174    1.6453 C   0  0  0  0  0  0  0  0  0  0  0  0
   -3.0287    1.8921    0.6053 C   0  0  0  0  0  0  0  0  0  0  0  0
   -3.9284    0.8269    0.4882 C   0  0  0  0  0  0  0  0  0  0  0  0
   -3.7842   -0.1576   -0.5941 C   0  0  0  0  0  0  0  0  0  0  0  0
   -5.0763   -0.3364   -1.7030 S   0  0  0  0  0  0  0  0  0  0  0  0
   -4.2584   -1.5405   -2.6146 C   0  0  0  0  0  0  0  0  0  0  0  0
   -4.7563   -2.2053   -3.7570 C   0  0  0  0  0  0  0  0  0  0  0  0
   -3.9289   -3.1441   -4.3363 C   0  0  0  0  0  0  0  0  0  0  0  0
   -2.6889   -3.4303   -3.8367 C   0  0  0  0  0  0  0  0  0  0  0  0
   -2.1837   -2.7948   -2.7195 C   0  0  0  0  0  0  0  0  0  0  0  0
   -2.9881   -1.8086   -2.0821 C   0  0  0  0  0  0  0  0  0  0  0  0
   -2.7223   -0.9915   -0.9139 C   0  0  0  0  0  0  0  0  0  0  0  0
   -1.4886   -1.0111   -0.1310 C   0  0  0  0  0  0  0  0  0  0  0  0
   -1.4916   -1.4330    1.2011 C   0  0  0  0  0  0  0  0  0  0  0  0
   -0.3007   -1.4475    1.9313 C   0  0  0  0  0  0  0  0  0  0  0  0
    0.9056   -1.0607    1.3413 C   0  0  0  0  0  0  0  0  0  0  0  0
    1.9916   -1.1258    2.1700 O   0  0  0  0  0  0  0  0  0  0  0  0
    3.2944   -1.0276    1.5833 C   0  0  0  0  0  0  0  0  0  0  0  0
    3.7806    0.4313    1.5809 C   0  0  0  0  0  0  0  0  0  0  0  0
    5.1383    0.6077    1.0274 N   0  0  0  0  0  0  0  0  0  0  0  0
    5.1598    0.4149   -0.4324 C   0  0  0  0  0  0  0  0  0  0  0  0
    6.5727    0.5674   -0.9969 C   0  0  0  0  0  0  0  0  0  0  0  0
    7.1781    1.9152   -0.6258 C   0  0  0  0  0  0  0  0  0  0  0  0
    7.0853    2.1380    0.8778 C   0  0  0  0  0  0  0  0  0  0  0  0
    5.6526    1.9420    1.3793 C   0  0  0  0  0  0  0  0  0  0  0  0
    0.9085   -0.6366    0.0124 C   0  0  0  0  0  0  0  0  0  0  0  0
   -0.2835   -0.6118   -0.7207 C   0  0  0  0  0  0  0  0  0  0  0  0
   -2.0449   -4.3890   -4.5558 O   0  0  0  0  0  0  0  0  0  0  0  0
   -3.0315   -4.6768   -5.5673 C   0  0  0  0  0  0  0  0  0  0  0  0
   -4.2289   -3.8844   -5.4381 O   0  0  0  0  0  0  0  0  0  0  0  0
   -4.9560    0.7107    1.4341 C   0  0  0  0  0  0  0  0  0  0  0  0
   -5.0843    1.6401    2.4741 C   0  0  0  0  0  0  0  0  0  0  0  0
   -5.0902    2.6276    5.1164 H   0  0  0  0  0  0  0  0  0  0  0  0
   -5.0490    4.3897    5.2557 H   0  0  0  0  0  0  0  0  0  0  0  0
   -6.1984    3.6589    4.1276 H   0  0  0  0  0  0  0  0  0  0  0  0
   -2.4490    3.6376    1.7239 H   0  0  0  0  0  0  0  0  0  0  0  0
   -2.2185    2.0121   -0.1096 H   0  0  0  0  0  0  0  0  0  0  0  0
   -5.7398   -1.9914   -4.1564 H   0  0  0  0  0  0  0  0  0  0  0  0
   -1.2000   -3.0509   -2.3400 H   0  0  0  0  0  0  0  0  0  0  0  0
   -2.4136   -1.7497    1.6827 H   0  0  0  0  0  0  0  0  0  0  0  0
   -0.3134   -1.7708    2.9694 H   0  0  0  0  0  0  0  0  0  0  0  0
    3.9626   -1.6177    2.2224 H   0  0  0  0  0  0  0  0  0  0  0  0
    3.3279   -1.5082    0.5995 H   0  0  0  0  0  0  0  0  0  0  0  0
    3.0617    1.0803    1.0675 H   0  0  0  0  0  0  0  0  0  0  0  0
    3.7675    0.7630    2.6280 H   0  0  0  0  0  0  0  0  0  0  0  0
    4.4873    1.1259   -0.9275 H   0  0  0  0  0  0  0  0  0  0  0  0
    4.8156   -0.5907   -0.6905 H   0  0  0  0  0  0  0  0  0  0  0  0
    6.5483    0.4624   -2.0876 H   0  0  0  0  0  0  0  0  0  0  0  0
    7.2093   -0.2389   -0.6113 H   0  0  0  0  0  0  0  0  0  0  0  0
    8.2228    1.9617   -0.9506 H   0  0  0  0  0  0  0  0  0  0  0  0
    6.6401    2.7149   -1.1491 H   0  0  0  0  0  0  0  0  0  0  0  0
    7.7538    1.4349    1.3947 H   0  0  0  0  0  0  0  0  0  0  0  0
    7.4320    3.1497    1.1246 H   0  0  0  0  0  0  0  0  0  0  0  0
    5.0059    2.7290    0.9691 H   0  0  0  0  0  0  0  0  0  0  0  0
    5.6600    2.0610    2.4699 H   0  0  0  0  0  0  0  0  0  0  0  0
    1.8147   -0.3086   -0.4849 H   0  0  0  0  0  0  0  0  0  0  0  0
   -0.2635   -0.2724   -1.7542 H   0  0  0  0  0  0  0  0  0  0  0  0
   -2.5893   -4.4873   -6.5518 H   0  0  0  0  0  0  0  0  0  0  0  0
   -3.3031   -5.7364   -5.5021 H   0  0  0  0  0  0  0  0  0  0  0  0
   -5.6659   -0.1111    1.3734 H   0  0  0  0  0  0  0  0  0  0  0  0
   -5.8976    1.5061    3.1781 H   0  0  0  0  0  0  0  0  0  0  0  0
  1  2  1  0
  2  3  1  0
  3  4  2  0
  4  5  1  0
  5  6  2  0
  6  7  1  0
  7  8  1  0
  8  9  1  0
  9 10  2  0
 10 11  1  0
 11 12  2  0
 12 13  1  0
 13 14  2  0
 14 15  1  0
 15 16  1  0
 16 17  2  0
 17 18  1  0
 18 19  2  0
 19 20  1  0
 20 21  1  0
 21 22  1  0
 22 23  1  0
 23 24  1  0
 24 25  1  0
 25 26  1  0
 26 27  1  0
 27 28  1  0
 19 29  1  0
 29 30  2  0
 12 31  1  0
 31 32  1  0
 32 33  1  0
  6 34  1  0
 34 35  2  0
 35  3  1  0
 15  7  2  0
 30 16  1  0
 14  9  1  0
 28 23  1  0
 33 11  1  0
  1 36  1  0
  1 37  1  0
  1 38  1  0
  4 39  1  0
  5 40  1  0
 10 41  1  0
 13 42  1  0
 17 43  1  0
 18 44  1  0
 21 45  1  0
 21 46  1  0
 22 47  1  0
 22 48  1  0
 24 49  1  0
 24 50  1  0
 25 51  1  0
 25 52  1  0
 26 53  1  0
 26 54  1  0
 27 55  1  0
 27 56  1  0
 28 57  1  0
 28 58  1  0
 29 59  1  0
 30 60  1  0
 32 61  1  0
 32 62  1  0
 34 63  1  0
 35 64  1  0
M  END
$$$$
