
     RDKit          3D

 43 45  0  0  0  0  0  0  0  0999 V2000
   -0.8052    3.4553    2.1394 C   0  0  0  0  0  0  0  0  0  0  0  0
   -1.9188    2.6567    1.5295 C   0  0  0  0  0  0  0  0  0  0  0  0
   -2.6190    1.8687    2.1515 O   0  0  0  0  0  0  0  0  0  0  0  0
   -2.0153    2.9868    0.1829 O   0  0  0  0  0  0  0  0  0  0  0  0
   -2.9453    2.1995   -0.5057 C   0  0  0  0  0  0  0  0  0  0  0  0
   -4.1960    2.7560   -0.7768 C   0  0  0  0  0  0  0  0  0  0  0  0
   -5.1327    2.0118   -1.4931 C   0  0  0  0  0  0  0  0  0  0  0  0
   -4.8112    0.7289   -1.9420 C   0  0  0  0  0  0  0  0  0  0  0  0
   -3.5489    0.1857   -1.6825 C   0  0  0  0  0  0  0  0  0  0  0  0
   -2.5978    0.9204   -0.9664 C   0  0  0  0  0  0  0  0  0  0  0  0
   -1.2759    0.3394   -0.7246 C   0  0  0  0  0  0  0  0  0  0  0  0
   -0.2085    0.6770   -1.4640 C   0  0  0  0  0  0  0  0  0  0  0  0
    1.1396    0.1405   -1.2347 C   0  0  0  0  0  0  0  0  0  0  0  0
    2.1689    0.4347   -2.1165 C   0  0  0  0  0  0  0  0  0  0  0  0
    3.4335   -0.0875   -1.8622 C   0  0  0  0  0  0  0  0  0  0  0  0
    3.6439   -0.8911   -0.7350 C   0  0  0  0  0  0  0  0  0  0  0  0
    4.9115   -1.4317   -0.4415 C   0  0  0  0  0  0  0  0  0  0  0  0
    5.1058   -2.2186    0.6939 C   0  0  0  0  0  0  0  0  0  0  0  0
    4.0357   -2.4785    1.5400 C   0  0  0  0  0  0  0  0  0  0  0  0
    2.7794   -1.9544    1.2248 C   0  0  0  0  0  0  0  0  0  0  0  0
    1.7262   -2.2133    2.1152 O   0  0  0  0  0  0  0  0  0  0  0  0
    0.8619   -3.1840    1.6257 C   0  0  0  0  0  0  0  0  0  0  0  0
   -0.3665   -3.2138    2.4853 C   0  0  0  0  0  0  0  0  0  0  0  0
    1.0588   -3.9382    0.6811 O   0  0  0  0  0  0  0  0  0  0  0  0
    2.5457   -1.1436    0.1094 C   0  0  0  0  0  0  0  0  0  0  0  0
    1.3210   -0.6255   -0.1353 N   0  0  0  0  0  0  0  0  0  0  0  0
   -1.0483    4.5202    2.1006 H   0  0  0  0  0  0  0  0  0  0  0  0
   -0.6800    3.1619    3.1856 H   0  0  0  0  0  0  0  0  0  0  0  0
    0.1293    3.2524    1.6108 H   0  0  0  0  0  0  0  0  0  0  0  0
   -4.4418    3.7536   -0.4271 H   0  0  0  0  0  0  0  0  0  0  0  0
   -6.1148    2.4293   -1.7003 H   0  0  0  0  0  0  0  0  0  0  0  0
   -5.5444    0.1488   -2.4985 H   0  0  0  0  0  0  0  0  0  0  0  0
   -3.3123   -0.8130   -2.0446 H   0  0  0  0  0  0  0  0  0  0  0  0
   -1.2102   -0.3713    0.0940 H   0  0  0  0  0  0  0  0  0  0  0  0
   -0.3151    1.3846   -2.2803 H   0  0  0  0  0  0  0  0  0  0  0  0
    2.0025    1.0551   -2.9910 H   0  0  0  0  0  0  0  0  0  0  0  0
    4.2487    0.1358   -2.5458 H   0  0  0  0  0  0  0  0  0  0  0  0
    5.7565   -1.2394   -1.0992 H   0  0  0  0  0  0  0  0  0  0  0  0
    6.0885   -2.6284    0.9134 H   0  0  0  0  0  0  0  0  0  0  0  0
    4.1695   -3.0884    2.4274 H   0  0  0  0  0  0  0  0  0  0  0  0
   -0.8393   -2.2279    2.4871 H   0  0  0  0  0  0  0  0  0  0  0  0
   -0.1015   -3.5170    3.5021 H   0  0  0  0  0  0  0  0  0  0  0  0
   -1.0778   -3.9373    2.0753 H   0  0  0  0  0  0  0  0  0  0  0  0
  1  2  1  0
  2  3  2  0
  2  4  1  0
  4  5  1  0
  5  6  2  0
  6  7  1  0
  7  8  2  0
  8  9  1  0
  9 10  2  0
 10 11  1  0
 11 12  2  0
 12 13  1  0
 13 14  2  0
 14 15  1  0
 15 16  2  0
 16 17  1  0
 17 18  2  0
 18 19  1  0
 19 20  2  0
 20 21  1  0
 21 22  1  0
 22 23  1  0
 22 24  2  0
 20 25  1  0
 25 26  2  0
 10  5  1  0
 26 13  1  0
 25 16  1  0
  1 27  1  0
  1 28  1  0
  1 29  1  0
  6 30  1  0
  7 31  1  0
  8 32  1  0
  9 33  1  0
 11 34  1  0
 12 35  1  0
 14 36  1  0
 15 37  1  0
 17 38  1  0
 18 39  1  0
 19 40  1  0
 23 41  1  0
 23 42  1  0
 23 43  1  0
M  END
$$$$
