
     RDKit          3D

 42 44  0  0  0  0  0  0  0  0999 V2000
   -5.9407   -2.6141   -1.5711 C   0  0  0  0  0  0  0  0  0  0  0  0
   -4.9813   -1.8348   -0.8693 O   0  0  0  0  0  0  0  0  0  0  0  0
   -5.4424   -0.7770   -0.1242 C   0  0  0  0  0  0  0  0  0  0  0  0
   -6.7913   -0.4162   -0.0178 C   0  0  0  0  0  0  0  0  0  0  0  0
   -7.1741    0.6757    0.7648 C   0  0  0  0  0  0  0  0  0  0  0  0
   -6.2157    1.4132    1.4518 C   0  0  0  0  0  0  0  0  0  0  0  0
   -4.8689    1.0644    1.3538 C   0  0  0  0  0  0  0  0  0  0  0  0
   -4.4645   -0.0206    0.5582 C   0  0  0  0  0  0  0  0  0  0  0  0
   -3.0400   -0.3994    0.4856 C   0  0  0  0  0  0  0  0  0  0  0  0
   -2.0419    0.4873    0.3547 C   0  0  0  0  0  0  0  0  0  0  0  0
   -0.6329    0.0963    0.2614 C   0  0  0  0  0  0  0  0  0  0  0  0
    0.3720    0.8966    0.1275 N   0  0  0  0  0  0  0  0  0  0  0  0
    1.4375    0.0353    0.0939 C   0  0  0  0  0  0  0  0  0  0  0  0
    2.7338    0.3454   -0.0339 C   0  0  0  0  0  0  0  0  0  0  0  0
    3.2341    1.7000   -0.1598 C   0  0  0  0  0  0  0  0  0  0  0  0
    4.5184    2.0642   -0.3046 C   0  0  0  0  0  0  0  0  0  0  0  0
    5.6657    1.1572   -0.3831 C   0  0  0  0  0  0  0  0  0  0  0  0
    6.5318    1.0365    0.7083 C   0  0  0  0  0  0  0  0  0  0  0  0
    7.6284    0.1746    0.6426 C   0  0  0  0  0  0  0  0  0  0  0  0
    7.8650   -0.5675   -0.5140 C   0  0  0  0  0  0  0  0  0  0  0  0
    7.0068   -0.4487   -1.6064 C   0  0  0  0  0  0  0  0  0  0  0  0
    5.9100    0.4127   -1.5426 C   0  0  0  0  0  0  0  0  0  0  0  0
    0.9714   -1.3701    0.2222 C   0  0  0  0  0  0  0  0  0  0  0  0
    1.6115   -2.4017    0.2339 O   0  0  0  0  0  0  0  0  0  0  0  0
   -0.3778   -1.2309    0.3267 O   0  0  0  0  0  0  0  0  0  0  0  0
   -5.4036   -3.4057   -2.1023 H   0  0  0  0  0  0  0  0  0  0  0  0
   -6.4684   -2.0120   -2.3181 H   0  0  0  0  0  0  0  0  0  0  0  0
   -6.6414   -3.0942   -0.8802 H   0  0  0  0  0  0  0  0  0  0  0  0
   -7.5731   -0.9658   -0.5313 H   0  0  0  0  0  0  0  0  0  0  0  0
   -8.2245    0.9461    0.8415 H   0  0  0  0  0  0  0  0  0  0  0  0
   -6.5157    2.2563    2.0692 H   0  0  0  0  0  0  0  0  0  0  0  0
   -4.1397    1.6427    1.9164 H   0  0  0  0  0  0  0  0  0  0  0  0
   -2.8475   -1.4700    0.5107 H   0  0  0  0  0  0  0  0  0  0  0  0
   -2.2236    1.5548    0.2929 H   0  0  0  0  0  0  0  0  0  0  0  0
    3.4635   -0.4624   -0.0385 H   0  0  0  0  0  0  0  0  0  0  0  0
    2.4860    2.4922   -0.1207 H   0  0  0  0  0  0  0  0  0  0  0  0
    4.7681    3.1212   -0.3665 H   0  0  0  0  0  0  0  0  0  0  0  0
    6.3542    1.6066    1.6170 H   0  0  0  0  0  0  0  0  0  0  0  0
    8.2963    0.0808    1.4948 H   0  0  0  0  0  0  0  0  0  0  0  0
    8.7177   -1.2398   -0.5635 H   0  0  0  0  0  0  0  0  0  0  0  0
    7.1902   -1.0274   -2.5079 H   0  0  0  0  0  0  0  0  0  0  0  0
    5.2468    0.4984   -2.4001 H   0  0  0  0  0  0  0  0  0  0  0  0
  1  2  1  0
  2  3  1  0
  3  4  2  0
  4  5  1  0
  5  6  2  0
  6  7  1  0
  7  8  2  0
  8  9  1  0
  9 10  2  3
 10 11  1  0
 11 12  2  0
 12 13  1  0
 13 14  2  3
 14 15  1  0
 15 16  2  3
 16 17  1  0
 17 18  2  0
 18 19  1  0
 19 20  2  0
 20 21  1  0
 21 22  2  0
 13 23  1  0
 23 24  2  0
 23 25  1  0
  8  3  1  0
 25 11  1  0
 22 17  1  0
  1 26  1  0
  1 27  1  0
  1 28  1  0
  4 29  1  0
  5 30  1  0
  6 31  1  0
  7 32  1  0
  9 33  1  0
 10 34  1  0
 14 35  1  0
 15 36  1  0
 16 37  1  0
 18 38  1  0
 19 39  1  0
 20 40  1  0
 21 41  1  0
 22 42  1  0
M  END
$$$$
