
     RDKit          3D

 42 44  0  0  0  0  0  0  0  0999 V2000
   -2.2038    2.2482   -1.3625 C   0  0  0  0  0  0  0  0  0  0  0  0
   -3.1158    1.7622   -0.2520 C   0  0  0  0  0  0  0  0  0  0  0  0
   -3.6223    2.5967    0.5036 O   0  0  0  0  0  0  0  0  0  0  0  0
   -3.3705    0.3751   -0.2025 N   0  0  0  0  0  0  0  0  0  0  0  0
   -2.4103   -0.5674   -0.5794 C   0  0  0  0  0  0  0  0  0  0  0  0
   -1.0864   -0.5587   -0.3490 C   0  0  0  0  0  0  0  0  0  0  0  0
   -0.3484    0.3574    0.4959 C   0  0  0  0  0  0  0  0  0  0  0  0
    0.9860    0.4743    0.6013 C   0  0  0  0  0  0  0  0  0  0  0  0
    1.9918   -0.2524   -0.1503 C   0  0  0  0  0  0  0  0  0  0  0  0
    3.3223   -0.1477   -0.0141 C   0  0  0  0  0  0  0  0  0  0  0  0
    4.2025    0.8659    1.0895 S   0  0  0  0  0  0  0  0  0  0  0  0
    5.7568    0.2720    0.4811 C   0  0  0  0  0  0  0  0  0  0  0  0
    7.0137    0.6618    0.9214 C   0  0  0  0  0  0  0  0  0  0  0  0
    8.1447    0.0894    0.3284 C   0  0  0  0  0  0  0  0  0  0  0  0
    8.0127   -0.8626   -0.6939 C   0  0  0  0  0  0  0  0  0  0  0  0
    6.7477   -1.2527   -1.1346 C   0  0  0  0  0  0  0  0  0  0  0  0
    5.6381   -0.6728   -0.5334 C   0  0  0  0  0  0  0  0  0  0  0  0
    4.2396   -0.9631   -0.8694 C   0  0  0  0  0  0  0  0  0  0  0  0
    3.8997   -1.7603   -1.7274 O   0  0  0  0  0  0  0  0  0  0  0  0
   -4.6973   -0.0755    0.1847 C   0  0  0  0  0  0  0  0  0  0  0  0
   -5.8151    0.7736    0.1411 C   0  0  0  0  0  0  0  0  0  0  0  0
   -7.0899    0.3189    0.4999 C   0  0  0  0  0  0  0  0  0  0  0  0
   -7.2747   -0.9963    0.9115 C   0  0  0  0  0  0  0  0  0  0  0  0
   -6.1846   -1.8571    0.9673 C   0  0  0  0  0  0  0  0  0  0  0  0
   -4.9110   -1.4015    0.6075 C   0  0  0  0  0  0  0  0  0  0  0  0
   -2.6786    3.1131   -1.8379 H   0  0  0  0  0  0  0  0  0  0  0  0
   -1.2434    2.5632   -0.9496 H   0  0  0  0  0  0  0  0  0  0  0  0
   -2.0534    1.5017   -2.1452 H   0  0  0  0  0  0  0  0  0  0  0  0
   -2.8192   -1.4379   -1.0918 H   0  0  0  0  0  0  0  0  0  0  0  0
   -0.5227   -1.3959   -0.7568 H   0  0  0  0  0  0  0  0  0  0  0  0
   -0.9454    0.9954    1.1486 H   0  0  0  0  0  0  0  0  0  0  0  0
    1.3511    1.2066    1.3214 H   0  0  0  0  0  0  0  0  0  0  0  0
    1.6272   -0.9449   -0.9067 H   0  0  0  0  0  0  0  0  0  0  0  0
    7.1248    1.3981    1.7123 H   0  0  0  0  0  0  0  0  0  0  0  0
    9.1372    0.3851    0.6631 H   0  0  0  0  0  0  0  0  0  0  0  0
    8.9019   -1.2984   -1.1449 H   0  0  0  0  0  0  0  0  0  0  0  0
    6.6307   -1.9885   -1.9250 H   0  0  0  0  0  0  0  0  0  0  0  0
   -5.7311    1.8059   -0.1880 H   0  0  0  0  0  0  0  0  0  0  0  0
   -7.9360    1.0002    0.4565 H   0  0  0  0  0  0  0  0  0  0  0  0
   -8.2640   -1.3462    1.1938 H   0  0  0  0  0  0  0  0  0  0  0  0
   -6.3191   -2.8831    1.3004 H   0  0  0  0  0  0  0  0  0  0  0  0
   -4.0855   -2.1019    0.7013 H   0  0  0  0  0  0  0  0  0  0  0  0
  1  2  1  0
  2  3  2  0
  2  4  1  0
  4  5  1  0
  5  6  2  3
  6  7  1  0
  7  8  2  3
  8  9  1  0
  9 10  2  3
 10 11  1  0
 11 12  1  0
 12 13  2  0
 13 14  1  0
 14 15  2  0
 15 16  1  0
 16 17  2  0
 17 18  1  0
 18 19  2  0
  4 20  1  0
 20 21  2  0
 21 22  1  0
 22 23  2  0
 23 24  1  0
 24 25  2  0
 18 10  1  0
 25 20  1  0
 17 12  1  0
  1 26  1  0
  1 27  1  0
  1 28  1  0
  5 29  1  0
  6 30  1  0
  7 31  1  0
  8 32  1  0
  9 33  1  0
 13 34  1  0
 14 35  1  0
 15 36  1  0
 16 37  1  0
 21 38  1  0
 22 39  1  0
 23 40  1  0
 24 41  1  0
 25 42  1  0
M  END
$$$$
