
     RDKit          3D

 62 65  0  0  0  0  0  0  0  0999 V2000
   -5.0273   -1.8875   -2.3157 C   0  0  0  0  0  0  0  0  0  0  0  0
   -5.6093   -0.5648   -1.8925 C   0  0  0  0  0  0  0  0  0  0  0  0
   -6.9053   -0.2278   -2.3179 C   0  0  0  0  0  0  0  0  0  0  0  0
   -7.4917    0.9813   -1.9403 C   0  0  0  0  0  0  0  0  0  0  0  0
   -6.7938    1.8686   -1.1294 C   0  0  0  0  0  0  0  0  0  0  0  0
   -5.5069    1.5500   -0.6969 C   0  0  0  0  0  0  0  0  0  0  0  0
   -4.9042    0.3422   -1.0775 C   0  0  0  0  0  0  0  0  0  0  0  0
   -3.2547    0.0114   -0.4699 S   0  0  0  0  0  0  0  0  0  0  0  0
   -2.3066    0.6927   -1.8725 C   0  0  0  0  0  0  0  0  0  0  0  0
   -0.8297    0.3731   -1.7042 C   0  0  0  0  0  0  0  0  0  0  0  0
   -0.2384   -0.3372   -2.5130 O   0  0  0  0  0  0  0  0  0  0  0  0
   -0.2709    0.9809   -0.6009 N   0  0  0  0  0  0  0  0  0  0  0  0
    1.0458    0.8851   -0.1097 C   0  0  0  0  0  0  0  0  0  0  0  0
    2.0820    0.2324   -0.7734 C   0  0  0  0  0  0  0  0  0  0  0  0
    3.3351    0.1500   -0.1611 C   0  0  0  0  0  0  0  0  0  0  0  0
    4.6639   -0.7068   -0.9682 S   0  0  0  0  0  6  0  0  0  0  0  0
    5.8765    0.0426   -0.7152 O   0  0  0  0  0  0  0  0  0  0  0  0
    4.2612   -1.0479   -2.3149 O   0  0  0  0  0  0  0  0  0  0  0  0
    4.7544   -2.1603   -0.0801 N   0  0  0  0  0  0  0  0  0  0  0  0
    3.5669   -3.0733   -0.1958 C   0  0  0  0  0  0  0  0  0  0  0  0
    3.8849   -4.2930   -1.0651 C   0  0  0  0  0  0  0  0  0  0  0  0
    4.9525   -5.0963   -0.5389 O   0  0  0  0  0  0  0  0  0  0  0  0
    5.9255   -4.3372    0.1942 C   0  0  0  0  0  0  0  0  0  0  0  0
    6.0474   -2.8914   -0.2938 C   0  0  0  0  0  0  0  0  0  0  0  0
    3.5737    0.7458    1.0812 C   0  0  0  0  0  0  0  0  0  0  0  0
    2.5409    1.4192    1.7340 C   0  0  0  0  0  0  0  0  0  0  0  0
    1.2676    1.4975    1.1517 C   0  0  0  0  0  0  0  0  0  0  0  0
    0.1696    2.1451    1.7790 N   0  0  0  0  0  0  0  0  0  0  0  0
    0.4335    3.5745    2.0795 C   0  0  0  0  0  0  0  0  0  0  0  0
   -0.8363    4.2035    2.6772 C   0  0  0  0  0  0  0  0  0  0  0  0
   -1.2517    3.5072    3.8662 O   0  0  0  0  0  0  0  0  0  0  0  0
   -1.5241    2.1261    3.5684 C   0  0  0  0  0  0  0  0  0  0  0  0
   -0.2846    1.4199    2.9923 C   0  0  0  0  0  0  0  0  0  0  0  0
   -4.1199   -1.7378   -2.9107 H   0  0  0  0  0  0  0  0  0  0  0  0
   -5.7320   -2.4525   -2.9362 H   0  0  0  0  0  0  0  0  0  0  0  0
   -4.7970   -2.5033   -1.4408 H   0  0  0  0  0  0  0  0  0  0  0  0
   -7.4740   -0.9114   -2.9444 H   0  0  0  0  0  0  0  0  0  0  0  0
   -8.4966    1.2247   -2.2743 H   0  0  0  0  0  0  0  0  0  0  0  0
   -7.2535    2.8068   -0.8290 H   0  0  0  0  0  0  0  0  0  0  0  0
   -4.9805    2.2516   -0.0545 H   0  0  0  0  0  0  0  0  0  0  0  0
   -2.4357    1.7781   -1.9288 H   0  0  0  0  0  0  0  0  0  0  0  0
   -2.6527    0.2532   -2.8132 H   0  0  0  0  0  0  0  0  0  0  0  0
   -0.8882    1.4671    0.0476 H   0  0  0  0  0  0  0  0  0  0  0  0
    1.9312   -0.2222   -1.7476 H   0  0  0  0  0  0  0  0  0  0  0  0
    2.6947   -2.5548   -0.6005 H   0  0  0  0  0  0  0  0  0  0  0  0
    3.3100   -3.3907    0.8211 H   0  0  0  0  0  0  0  0  0  0  0  0
    4.1606   -3.9882   -2.0813 H   0  0  0  0  0  0  0  0  0  0  0  0
    3.0036   -4.9375   -1.1461 H   0  0  0  0  0  0  0  0  0  0  0  0
    5.6442   -4.3674    1.2536 H   0  0  0  0  0  0  0  0  0  0  0  0
    6.8851   -4.8538    0.0959 H   0  0  0  0  0  0  0  0  0  0  0  0
    6.8381   -2.3813    0.2657 H   0  0  0  0  0  0  0  0  0  0  0  0
    6.3006   -2.8916   -1.3593 H   0  0  0  0  0  0  0  0  0  0  0  0
    4.5575    0.6827    1.5419 H   0  0  0  0  0  0  0  0  0  0  0  0
    2.7387    1.8677    2.7037 H   0  0  0  0  0  0  0  0  0  0  0  0
    1.2522    3.6752    2.8044 H   0  0  0  0  0  0  0  0  0  0  0  0
    0.7057    4.1112    1.1621 H   0  0  0  0  0  0  0  0  0  0  0  0
   -1.6612    4.1920    1.9532 H   0  0  0  0  0  0  0  0  0  0  0  0
   -0.6428    5.2461    2.9509 H   0  0  0  0  0  0  0  0  0  0  0  0
   -2.3683    2.0730    2.8702 H   0  0  0  0  0  0  0  0  0  0  0  0
   -1.8281    1.6409    4.5004 H   0  0  0  0  0  0  0  0  0  0  0  0
   -0.5447    0.3851    2.7430 H   0  0  0  0  0  0  0  0  0  0  0  0
    0.5069    1.4112    3.7517 H   0  0  0  0  0  0  0  0  0  0  0  0
  1  2  1  0
  2  3  2  0
  3  4  1  0
  4  5  2  0
  5  6  1  0
  6  7  2  0
  7  8  1  0
  8  9  1  0
  9 10  1  0
 10 11  2  0
 10 12  1  0
 12 13  1  0
 13 14  2  0
 14 15  1  0
 15 16  1  0
 16 17  2  0
 16 18  2  0
 16 19  1  0
 19 20  1  0
 20 21  1  0
 21 22  1  0
 22 23  1  0
 23 24  1  0
 15 25  2  0
 25 26  1  0
 26 27  2  0
 27 28  1  0
 28 29  1  0
 29 30  1  0
 30 31  1  0
 31 32  1  0
 32 33  1  0
  7  2  1  0
 27 13  1  0
 33 28  1  0
 24 19  1  0
  1 34  1  0
  1 35  1  0
  1 36  1  0
  3 37  1  0
  4 38  1  0
  5 39  1  0
  6 40  1  0
  9 41  1  0
  9 42  1  0
 12 43  1  0
 14 44  1  0
 20 45  1  0
 20 46  1  0
 21 47  1  0
 21 48  1  0
 23 49  1  0
 23 50  1  0
 24 51  1  0
 24 52  1  0
 25 53  1  0
 26 54  1  0
 29 55  1  0
 29 56  1  0
 30 57  1  0
 30 58  1  0
 32 59  1  0
 32 60  1  0
 33 61  1  0
 33 62  1  0
M  END
$$$$
