
     RDKit          3D

 37 39  0  0  0  0  0  0  0  0999 V2000
   -7.5698    2.4707   -0.6338 C   0  0  0  0  0  0  0  0  0  0  0  0
   -7.1661    1.0858   -1.1146 C   0  0  0  0  0  0  0  0  0  0  0  0
   -5.9799    0.5718   -0.3693 C   0  0  0  0  0  0  0  0  0  0  0  0
   -6.0344   -0.0621    0.7841 N   0  0  0  0  0  0  0  0  0  0  0  0
   -4.7794   -0.4178    1.2356 N   0  0  0  0  0  0  0  0  0  0  0  0
   -3.8287   -0.0414    0.4091 C   0  0  0  0  0  0  0  0  0  0  0  0
   -2.5055   -0.2967    0.6686 N   0  0  0  0  0  0  0  0  0  0  0  0
   -1.4226    0.0476   -0.1186 C   0  0  0  0  0  0  0  0  0  0  0  0
   -1.4653    0.6437   -1.1890 O   0  0  0  0  0  0  0  0  0  0  0  0
   -0.1030   -0.4155    0.5161 C   0  0  0  0  0  0  0  0  0  0  0  0
    1.0120   -0.0612   -0.2857 O   0  0  0  0  0  0  0  0  0  0  0  0
    2.2513   -0.4177    0.1681 C   0  0  0  0  0  0  0  0  0  0  0  0
    2.5289   -1.1002    1.3504 C   0  0  0  0  0  0  0  0  0  0  0  0
    3.8521   -1.4014    1.6924 C   0  0  0  0  0  0  0  0  0  0  0  0
    4.9169   -1.0255    0.8591 C   0  0  0  0  0  0  0  0  0  0  0  0
    6.2495   -1.3212    1.1898 C   0  0  0  0  0  0  0  0  0  0  0  0
    7.2948   -0.9388    0.3474 C   0  0  0  0  0  0  0  0  0  0  0  0
    7.0213   -0.2569   -0.8347 C   0  0  0  0  0  0  0  0  0  0  0  0
    5.7021    0.0442   -1.1769 C   0  0  0  0  0  0  0  0  0  0  0  0
    4.6395   -0.3336   -0.3400 C   0  0  0  0  0  0  0  0  0  0  0  0
    3.3059   -0.0393   -0.6680 C   0  0  0  0  0  0  0  0  0  0  0  0
   -4.3866    0.7716   -0.9780 S   0  0  0  0  0  0  0  0  0  0  0  0
   -8.4531    2.8186   -1.1787 H   0  0  0  0  0  0  0  0  0  0  0  0
   -6.7654    3.1970   -0.7923 H   0  0  0  0  0  0  0  0  0  0  0  0
   -7.8104    2.4646    0.4349 H   0  0  0  0  0  0  0  0  0  0  0  0
   -6.9679    1.1135   -2.1924 H   0  0  0  0  0  0  0  0  0  0  0  0
   -8.0046    0.3949   -0.9677 H   0  0  0  0  0  0  0  0  0  0  0  0
   -2.3641   -0.7899    1.5393 H   0  0  0  0  0  0  0  0  0  0  0  0
   -0.1575   -1.5060    0.6227 H   0  0  0  0  0  0  0  0  0  0  0  0
   -0.0268    0.0659    1.4988 H   0  0  0  0  0  0  0  0  0  0  0  0
    1.7470   -1.4152    2.0321 H   0  0  0  0  0  0  0  0  0  0  0  0
    4.0470   -1.9351    2.6201 H   0  0  0  0  0  0  0  0  0  0  0  0
    6.4836   -1.8533    2.1089 H   0  0  0  0  0  0  0  0  0  0  0  0
    8.3217   -1.1737    0.6147 H   0  0  0  0  0  0  0  0  0  0  0  0
    7.8338    0.0416   -1.4921 H   0  0  0  0  0  0  0  0  0  0  0  0
    5.5072    0.5779   -2.1047 H   0  0  0  0  0  0  0  0  0  0  0  0
    3.0760    0.4934   -1.5890 H   0  0  0  0  0  0  0  0  0  0  0  0
  1  2  1  0
  2  3  1  0
  3  4  2  0
  4  5  1  0
  5  6  2  0
  6  7  1  0
  7  8  1  0
  8  9  2  0
  8 10  1  0
 10 11  1  0
 11 12  1  0
 12 13  2  0
 13 14  1  0
 14 15  2  0
 15 16  1  0
 16 17  2  0
 17 18  1  0
 18 19  2  0
 19 20  1  0
 20 21  2  0
  6 22  1  0
 22  3  1  0
 21 12  1  0
 20 15  1  0
  1 23  1  0
  1 24  1  0
  1 25  1  0
  2 26  1  0
  2 27  1  0
  7 28  1  0
 10 29  1  0
 10 30  1  0
 13 31  1  0
 14 32  1  0
 16 33  1  0
 17 34  1  0
 18 35  1  0
 19 36  1  0
 21 37  1  0
M  END
$$$$
