
     RDKit          3D

 46 48  0  0  0  0  0  0  0  0999 V2000
    0.6587    3.2960    0.2323 O   0  0  0  0  0  0  0  0  0  0  0  0
    0.9468    2.9056    1.3619 C   0  0  0  0  0  0  0  0  0  0  0  0
   -0.0329    2.8112    2.5359 C   0  0  0  0  0  0  0  0  0  0  0  0
   -1.3974    3.0278    2.2229 O   0  0  0  0  0  0  0  0  0  0  0  0
   -2.0998    2.0031    1.6526 C   0  0  0  0  0  0  0  0  0  0  0  0
   -3.4617    2.2586    1.4857 C   0  0  0  0  0  0  0  0  0  0  0  0
   -4.3043    1.3029    0.9091 C   0  0  0  0  0  0  0  0  0  0  0  0
   -3.8039    0.0651    0.4805 C   0  0  0  0  0  0  0  0  0  0  0  0
   -4.6848   -0.9400   -0.1374 C   0  0  0  0  0  0  0  0  0  0  0  0
   -5.5267   -0.6018   -1.2116 C   0  0  0  0  0  0  0  0  0  0  0  0
   -6.3624   -1.5533   -1.8011 C   0  0  0  0  0  0  0  0  0  0  0  0
   -6.3722   -2.8626   -1.3253 C   0  0  0  0  0  0  0  0  0  0  0  0
   -5.5451   -3.2200   -0.2625 C   0  0  0  0  0  0  0  0  0  0  0  0
   -4.7095   -2.2663    0.3257 C   0  0  0  0  0  0  0  0  0  0  0  0
   -2.4317   -0.1787    0.6528 C   0  0  0  0  0  0  0  0  0  0  0  0
   -1.5862    0.7779    1.2317 C   0  0  0  0  0  0  0  0  0  0  0  0
    2.2352    2.5039    1.6885 N   0  0  0  0  0  0  0  0  0  0  0  0
    3.1055    2.2683    0.5904 N   0  0  0  0  0  0  0  0  0  0  0  0
    3.6589    0.9961    0.5334 C   0  0  0  0  0  0  0  0  0  0  0  0
    3.5398    0.2100    1.4692 O   0  0  0  0  0  0  0  0  0  0  0  0
    4.3388    0.7920   -0.6428 N   0  0  0  0  0  0  0  0  0  0  0  0
    5.0324   -0.3643   -1.0505 C   0  0  0  0  0  0  0  0  0  0  0  0
    5.0619   -1.5613   -0.3312 C   0  0  0  0  0  0  0  0  0  0  0  0
    5.7953   -2.6512   -0.8161 C   0  0  0  0  0  0  0  0  0  0  0  0
    6.4931   -2.5417   -2.0151 C   0  0  0  0  0  0  0  0  0  0  0  0
    7.2007   -3.5856   -2.4630 F   0  0  0  0  0  0  0  0  0  0  0  0
    6.4706   -1.3661   -2.7497 C   0  0  0  0  0  0  0  0  0  0  0  0
    5.7386   -0.2905   -2.2615 C   0  0  0  0  0  0  0  0  0  0  0  0
    5.7146    0.8513   -2.9686 F   0  0  0  0  0  0  0  0  0  0  0  0
    0.2531    3.6067    3.2356 H   0  0  0  0  0  0  0  0  0  0  0  0
    0.1027    1.8652    3.0764 H   0  0  0  0  0  0  0  0  0  0  0  0
   -3.8740    3.2131    1.8054 H   0  0  0  0  0  0  0  0  0  0  0  0
   -5.3626    1.5340    0.8035 H   0  0  0  0  0  0  0  0  0  0  0  0
   -5.5269    0.4114   -1.6082 H   0  0  0  0  0  0  0  0  0  0  0  0
   -7.0032   -1.2699   -2.6326 H   0  0  0  0  0  0  0  0  0  0  0  0
   -7.0213   -3.6039   -1.7841 H   0  0  0  0  0  0  0  0  0  0  0  0
   -5.5501   -4.2405    0.1120 H   0  0  0  0  0  0  0  0  0  0  0  0
   -4.0808   -2.5663    1.1626 H   0  0  0  0  0  0  0  0  0  0  0  0
   -2.0014   -1.1201    0.3157 H   0  0  0  0  0  0  0  0  0  0  0  0
   -0.5347    0.5280    1.3174 H   0  0  0  0  0  0  0  0  0  0  0  0
    2.3826    1.8645    2.4714 H   0  0  0  0  0  0  0  0  0  0  0  0
    2.7437    2.6513   -0.2844 H   0  0  0  0  0  0  0  0  0  0  0  0
    4.4332    1.5925   -1.2563 H   0  0  0  0  0  0  0  0  0  0  0  0
    4.5268   -1.6815    0.6062 H   0  0  0  0  0  0  0  0  0  0  0  0
    5.8261   -3.5842   -0.2596 H   0  0  0  0  0  0  0  0  0  0  0  0
    7.0148   -1.2868   -3.6837 H   0  0  0  0  0  0  0  0  0  0  0  0
  1  2  2  0
  2  3  1  0
  3  4  1  0
  4  5  1  0
  5  6  2  0
  6  7  1  0
  7  8  2  0
  8  9  1  0
  9 10  2  0
 10 11  1  0
 11 12  2  0
 12 13  1  0
 13 14  2  0
  8 15  1  0
 15 16  2  0
  2 17  1  0
 17 18  1  0
 18 19  1  0
 19 20  2  0
 19 21  1  0
 21 22  1  0
 22 23  2  0
 23 24  1  0
 24 25  2  0
 25 26  1  0
 25 27  1  0
 27 28  2  0
 28 29  1  0
 16  5  1  0
 28 22  1  0
 14  9  1  0
  3 30  1  0
  3 31  1  0
  6 32  1  0
  7 33  1  0
 10 34  1  0
 11 35  1  0
 12 36  1  0
 13 37  1  0
 14 38  1  0
 15 39  1  0
 16 40  1  0
 17 41  1  0
 18 42  1  0
 21 43  1  0
 23 44  1  0
 24 45  1  0
 27 46  1  0
M  END
$$$$
