
     RDKit          3D

 39 41  0  0  0  0  0  0  0  0999 V2000
   -2.7088    1.6229    4.5154 C   0  0  0  0  0  0  0  0  0  0  0  0
   -2.5647    2.1647    3.2088 O   0  0  0  0  0  0  0  0  0  0  0  0
   -2.6825    1.2957    2.1596 C   0  0  0  0  0  0  0  0  0  0  0  0
   -2.5173    1.8801    0.8992 C   0  0  0  0  0  0  0  0  0  0  0  0
   -2.6108    1.1115   -0.2621 C   0  0  0  0  0  0  0  0  0  0  0  0
   -2.8572   -0.2582   -0.1560 C   0  0  0  0  0  0  0  0  0  0  0  0
   -2.9759   -1.2542   -1.6253 S   0  0  0  0  0  6  0  0  0  0  0  0
   -3.8333   -2.3802   -1.3178 O   0  0  0  0  0  0  0  0  0  0  0  0
   -3.2580   -0.3813   -2.7440 O   0  0  0  0  0  0  0  0  0  0  0  0
   -1.4156   -1.8873   -1.7815 N   0  0  0  0  0  0  0  0  0  0  0  0
   -0.3045   -0.9990   -1.8056 C   0  0  0  0  0  0  0  0  0  0  0  0
   -0.1346   -0.1002   -2.8557 C   0  0  0  0  0  0  0  0  0  0  0  0
    0.9356    0.7925   -2.8366 C   0  0  0  0  0  0  0  0  0  0  0  0
    1.8354    0.7802   -1.7718 C   0  0  0  0  0  0  0  0  0  0  0  0
    2.8545    1.6891   -1.8446 O   0  0  0  0  0  0  0  0  0  0  0  0
    1.6754   -0.1147   -0.7043 C   0  0  0  0  0  0  0  0  0  0  0  0
    2.7121   -0.1315    0.7508 S   0  0  0  0  0  0  0  0  0  0  0  0
    4.2553   -0.5892    0.0939 C   0  0  0  0  0  0  0  0  0  0  0  0
    4.9147    0.1833   -0.8276 N   0  0  0  0  0  0  0  0  0  0  0  0
    6.0205   -0.4935   -1.0367 C   0  0  0  0  0  0  0  0  0  0  0  0
    6.0208   -1.6135   -0.2658 N   0  0  0  0  0  0  0  0  0  0  0  0
    4.9016   -1.6946    0.4712 N   0  0  0  0  0  0  0  0  0  0  0  0
    0.5917   -1.0054   -0.7335 C   0  0  0  0  0  0  0  0  0  0  0  0
   -3.0428   -0.8519    1.0956 C   0  0  0  0  0  0  0  0  0  0  0  0
   -2.9503   -0.0722    2.2533 C   0  0  0  0  0  0  0  0  0  0  0  0
   -1.9376    0.8727    4.7193 H   0  0  0  0  0  0  0  0  0  0  0  0
   -3.7119    1.2093    4.6624 H   0  0  0  0  0  0  0  0  0  0  0  0
   -2.5770    2.4390    5.2323 H   0  0  0  0  0  0  0  0  0  0  0  0
   -2.3148    2.9464    0.8233 H   0  0  0  0  0  0  0  0  0  0  0  0
   -2.4831    1.5852   -1.2329 H   0  0  0  0  0  0  0  0  0  0  0  0
   -1.3140   -2.7677   -1.2795 H   0  0  0  0  0  0  0  0  0  0  0  0
   -0.8263   -0.0869   -3.6949 H   0  0  0  0  0  0  0  0  0  0  0  0
    1.0716    1.4969   -3.6532 H   0  0  0  0  0  0  0  0  0  0  0  0
    3.6044    1.3519   -1.3104 H   0  0  0  0  0  0  0  0  0  0  0  0
    6.8274   -0.2318   -1.7069 H   0  0  0  0  0  0  0  0  0  0  0  0
    6.7236   -2.3410   -0.1892 H   0  0  0  0  0  0  0  0  0  0  0  0
    0.4375   -1.6927    0.0947 H   0  0  0  0  0  0  0  0  0  0  0  0
   -3.2635   -1.9138    1.1804 H   0  0  0  0  0  0  0  0  0  0  0  0
   -3.0976   -0.5606    3.2111 H   0  0  0  0  0  0  0  0  0  0  0  0
  1  2  1  0
  2  3  1  0
  3  4  2  0
  4  5  1  0
  5  6  2  0
  6  7  1  0
  7  8  2  0
  7  9  2  0
  7 10  1  0
 10 11  1  0
 11 12  2  0
 12 13  1  0
 13 14  2  0
 14 15  1  0
 14 16  1  0
 16 17  1  0
 17 18  1  0
 18 19  1  0
 19 20  2  0
 20 21  1  0
 21 22  1  0
 16 23  2  0
  6 24  1  0
 24 25  2  0
 25  3  1  0
 23 11  1  0
 22 18  2  0
  1 26  1  0
  1 27  1  0
  1 28  1  0
  4 29  1  0
  5 30  1  0
 10 31  1  0
 12 32  1  0
 13 33  1  0
 15 34  1  0
 20 35  1  0
 21 36  1  0
 23 37  1  0
 24 38  1  0
 25 39  1  0
M  END
$$$$
