
     RDKit          3D

 50 53  0  0  0  0  0  0  0  0999 V2000
    7.7415    2.9042    0.8955 C   0  0  0  0  0  0  0  0  0  0  0  0
    7.5846    1.5503    0.4920 O   0  0  0  0  0  0  0  0  0  0  0  0
    6.3050    1.0910    0.3537 C   0  0  0  0  0  0  0  0  0  0  0  0
    5.1403    1.8183    0.5844 C   0  0  0  0  0  0  0  0  0  0  0  0
    3.8837    1.2193    0.4035 C   0  0  0  0  0  0  0  0  0  0  0  0
    3.7557   -0.1177   -0.0151 C   0  0  0  0  0  0  0  0  0  0  0  0
    2.4402   -0.7642   -0.2134 C   0  0  0  0  0  0  0  0  0  0  0  0
    1.3013   -0.0704   -0.5820 C   0  0  0  0  0  0  0  0  0  0  0  0
    0.1066   -0.7777   -0.7234 C   0  0  0  0  0  0  0  0  0  0  0  0
   -1.0936    0.0258   -1.0489 C   0  0  0  0  0  0  0  0  0  0  0  0
   -1.0765    0.6969   -2.0715 O   0  0  0  0  0  0  0  0  0  0  0  0
   -2.0867   -0.0439   -0.0912 N   0  0  0  0  0  0  0  0  0  0  0  0
   -3.3467    0.5895   -0.1161 C   0  0  0  0  0  0  0  0  0  0  0  0
   -3.8041    1.3665   -1.1752 C   0  0  0  0  0  0  0  0  0  0  0  0
   -5.0849    1.9241   -1.1352 C   0  0  0  0  0  0  0  0  0  0  0  0
   -5.9248    1.7299   -0.0281 C   0  0  0  0  0  0  0  0  0  0  0  0
   -7.3092    2.3161   -0.0503 C   0  0  0  0  0  0  0  0  0  0  0  0
   -5.4458    1.0069    1.0763 C   0  0  0  0  0  0  0  0  0  0  0  0
   -6.2765    0.6925    2.1647 N   0  0  0  0  0  0  0  0  0  0  0  0
   -4.1824    0.4010    0.9933 C   0  0  0  0  0  0  0  0  0  0  0  0
    0.0554   -2.1767   -0.5500 C   0  0  0  0  0  0  0  0  0  0  0  0
   -1.0960   -2.9837   -0.7434 C   0  0  0  0  0  0  0  0  0  0  0  0
   -1.0502   -4.3611   -0.5379 C   0  0  0  0  0  0  0  0  0  0  0  0
    0.1416   -4.9525   -0.1457 C   0  0  0  0  0  0  0  0  0  0  0  0
    1.2812   -4.1633    0.0263 C   0  0  0  0  0  0  0  0  0  0  0  0
    1.2634   -2.7896   -0.1759 C   0  0  0  0  0  0  0  0  0  0  0  0
    2.4071   -2.1051   -0.0052 N   0  0  0  0  0  0  0  0  0  0  0  0
    4.9463   -0.8323   -0.2333 C   0  0  0  0  0  0  0  0  0  0  0  0
    6.2002   -0.2372   -0.0540 C   0  0  0  0  0  0  0  0  0  0  0  0
    8.8140    3.1126    0.9564 H   0  0  0  0  0  0  0  0  0  0  0  0
    7.3127    3.0738    1.8891 H   0  0  0  0  0  0  0  0  0  0  0  0
    7.3104    3.5886    0.1573 H   0  0  0  0  0  0  0  0  0  0  0  0
    5.1681    2.8525    0.9105 H   0  0  0  0  0  0  0  0  0  0  0  0
    3.0024    1.8213    0.6136 H   0  0  0  0  0  0  0  0  0  0  0  0
    1.3207    0.9987   -0.7680 H   0  0  0  0  0  0  0  0  0  0  0  0
   -1.8884   -0.5988    0.7329 H   0  0  0  0  0  0  0  0  0  0  0  0
   -3.1998    1.5427   -2.0597 H   0  0  0  0  0  0  0  0  0  0  0  0
   -5.4267    2.5039   -1.9903 H   0  0  0  0  0  0  0  0  0  0  0  0
   -7.4101    3.0777    0.7295 H   0  0  0  0  0  0  0  0  0  0  0  0
   -8.0579    1.5326    0.1045 H   0  0  0  0  0  0  0  0  0  0  0  0
   -7.5304    2.7926   -1.0110 H   0  0  0  0  0  0  0  0  0  0  0  0
   -5.7715    0.4659    3.0152 H   0  0  0  0  0  0  0  0  0  0  0  0
   -7.0097    1.3740    2.3321 H   0  0  0  0  0  0  0  0  0  0  0  0
   -3.8512   -0.2255    1.8169 H   0  0  0  0  0  0  0  0  0  0  0  0
   -2.0361   -2.5472   -1.0772 H   0  0  0  0  0  0  0  0  0  0  0  0
   -1.9390   -4.9681   -0.6932 H   0  0  0  0  0  0  0  0  0  0  0  0
    0.1955   -6.0262    0.0157 H   0  0  0  0  0  0  0  0  0  0  0  0
    2.2155   -4.6368    0.3214 H   0  0  0  0  0  0  0  0  0  0  0  0
    4.9044   -1.8724   -0.5537 H   0  0  0  0  0  0  0  0  0  0  0  0
    7.1001   -0.8192   -0.2363 H   0  0  0  0  0  0  0  0  0  0  0  0
  1  2  1  0
  2  3  1  0
  3  4  2  0
  4  5  1  0
  5  6  2  0
  6  7  1  0
  7  8  2  0
  8  9  1  0
  9 10  1  0
 10 11  2  0
 10 12  1  0
 12 13  1  0
 13 14  2  0
 14 15  1  0
 15 16  2  0
 16 17  1  0
 16 18  1  0
 18 19  1  0
 18 20  2  0
  9 21  2  0
 21 22  1  0
 22 23  2  0
 23 24  1  0
 24 25  2  0
 25 26  1  0
 26 27  2  0
  6 28  1  0
 28 29  2  0
 29  3  1  0
 27  7  1  0
 20 13  1  0
 26 21  1  0
  1 30  1  0
  1 31  1  0
  1 32  1  0
  4 33  1  0
  5 34  1  0
  8 35  1  0
 12 36  1  0
 14 37  1  0
 15 38  1  0
 17 39  1  0
 17 40  1  0
 17 41  1  0
 19 42  1  0
 19 43  1  0
 20 44  1  0
 22 45  1  0
 23 46  1  0
 24 47  1  0
 25 48  1  0
 28 49  1  0
 29 50  1  0
M  END
$$$$
