
     RDKit          3D

 53 56  0  0  0  0  0  0  0  0999 V2000
    9.6399   -1.3196   -0.5427 C   0  0  0  0  0  0  0  0  0  0  0  0
    8.8727   -0.2933   -1.1611 O   0  0  0  0  0  0  0  0  0  0  0  0
    7.5804   -0.1526   -0.7350 C   0  0  0  0  0  0  0  0  0  0  0  0
    6.8648    0.8684   -1.3607 C   0  0  0  0  0  0  0  0  0  0  0  0
    5.5348    1.1262   -1.0128 C   0  0  0  0  0  0  0  0  0  0  0  0
    4.8981    0.3684   -0.0248 C   0  0  0  0  0  0  0  0  0  0  0  0
    3.5647    0.7047    0.2913 N   0  0  0  0  0  0  0  0  0  0  0  0
    2.7621    0.1519    1.2794 C   0  0  0  0  0  0  0  0  0  0  0  0
    3.0666   -0.7547    2.0502 O   0  0  0  0  0  0  0  0  0  0  0  0
    1.3965    0.8103    1.3565 C   0  0  0  0  0  0  0  0  0  0  0  0
    0.2874    0.0539    0.1303 S   0  0  0  0  0  0  0  0  0  0  0  0
   -0.9429    1.2750    0.0695 C   0  0  0  0  0  0  0  0  0  0  0  0
   -0.6798    2.5562   -0.0302 N   0  0  0  0  0  0  0  0  0  0  0  0
   -1.8617    3.2346    0.0554 N   0  0  0  0  0  0  0  0  0  0  0  0
   -2.8392    2.3521    0.2002 C   0  0  0  0  0  0  0  0  0  0  0  0
   -4.2933    2.7042    0.1621 C   0  0  0  0  0  0  0  0  0  0  0  0
   -5.0266    2.1297   -1.0213 C   0  0  0  0  0  0  0  0  0  0  0  0
   -6.0422    1.1932   -1.0302 C   0  0  0  0  0  0  0  0  0  0  0  0
   -6.4964    0.8925   -2.3468 C   0  0  0  0  0  0  0  0  0  0  0  0
   -5.8269    1.6238   -3.3025 C   0  0  0  0  0  0  0  0  0  0  0  0
   -4.6602    2.6634   -2.6132 S   0  0  0  0  0  0  0  0  0  0  0  0
   -2.3008    1.0696    0.2602 N   0  0  0  0  0  0  0  0  0  0  0  0
   -2.9873   -0.1486    0.5009 C   0  0  0  0  0  0  0  0  0  0  0  0
   -2.7216   -1.2768   -0.2832 C   0  0  0  0  0  0  0  0  0  0  0  0
   -3.3964   -2.4788   -0.0323 C   0  0  0  0  0  0  0  0  0  0  0  0
   -4.3232   -2.5720    1.0102 C   0  0  0  0  0  0  0  0  0  0  0  0
   -5.0558   -3.8570    1.2706 C   0  0  0  0  0  0  0  0  0  0  0  0
   -4.5954   -1.4357    1.7821 C   0  0  0  0  0  0  0  0  0  0  0  0
   -3.9305   -0.2292    1.5335 C   0  0  0  0  0  0  0  0  0  0  0  0
    5.6124   -0.6599    0.5901 C   0  0  0  0  0  0  0  0  0  0  0  0
    6.9445   -0.9204    0.2384 C   0  0  0  0  0  0  0  0  0  0  0  0
   10.6568   -1.2664   -0.9449 H   0  0  0  0  0  0  0  0  0  0  0  0
    9.2362   -2.3109   -0.7864 H   0  0  0  0  0  0  0  0  0  0  0  0
    9.7062   -1.1701    0.5412 H   0  0  0  0  0  0  0  0  0  0  0  0
    7.3464    1.4712   -2.1262 H   0  0  0  0  0  0  0  0  0  0  0  0
    5.0133    1.9333   -1.5203 H   0  0  0  0  0  0  0  0  0  0  0  0
    3.1537    1.4461   -0.2659 H   0  0  0  0  0  0  0  0  0  0  0  0
    1.5075    1.8916    1.2093 H   0  0  0  0  0  0  0  0  0  0  0  0
    0.9848    0.6491    2.3594 H   0  0  0  0  0  0  0  0  0  0  0  0
   -4.7859    2.4068    1.0944 H   0  0  0  0  0  0  0  0  0  0  0  0
   -4.3849    3.7998    0.1309 H   0  0  0  0  0  0  0  0  0  0  0  0
   -6.4486    0.7340   -0.1382 H   0  0  0  0  0  0  0  0  0  0  0  0
   -7.2793    0.1823   -2.5812 H   0  0  0  0  0  0  0  0  0  0  0  0
   -5.9687    1.6011   -4.3747 H   0  0  0  0  0  0  0  0  0  0  0  0
   -2.0286   -1.2408   -1.1215 H   0  0  0  0  0  0  0  0  0  0  0  0
   -3.1888   -3.3449   -0.6595 H   0  0  0  0  0  0  0  0  0  0  0  0
   -4.4753   -4.7157    0.9167 H   0  0  0  0  0  0  0  0  0  0  0  0
   -5.2250   -3.9943    2.3452 H   0  0  0  0  0  0  0  0  0  0  0  0
   -6.0249   -3.8504    0.7549 H   0  0  0  0  0  0  0  0  0  0  0  0
   -5.3199   -1.4908    2.5906 H   0  0  0  0  0  0  0  0  0  0  0  0
   -4.1306    0.6108    2.1941 H   0  0  0  0  0  0  0  0  0  0  0  0
    5.1603   -1.2885    1.3498 H   0  0  0  0  0  0  0  0  0  0  0  0
    7.4502   -1.7330    0.7489 H   0  0  0  0  0  0  0  0  0  0  0  0
  1  2  1  0
  2  3  1  0
  3  4  2  0
  4  5  1  0
  5  6  2  0
  6  7  1  0
  7  8  1  0
  8  9  2  0
  8 10  1  0
 10 11  1  0
 11 12  1  0
 12 13  2  0
 13 14  1  0
 14 15  2  0
 15 16  1  0
 16 17  1  0
 17 18  2  0
 18 19  1  0
 19 20  2  0
 20 21  1  0
 15 22  1  0
 22 23  1  0
 23 24  2  0
 24 25  1  0
 25 26  2  0
 26 27  1  0
 26 28  1  0
 28 29  2  0
  6 30  1  0
 30 31  2  0
 31  3  1  0
 22 12  1  0
 29 23  1  0
 21 17  1  0
  1 32  1  0
  1 33  1  0
  1 34  1  0
  4 35  1  0
  5 36  1  0
  7 37  1  0
 10 38  1  0
 10 39  1  0
 16 40  1  0
 16 41  1  0
 18 42  1  0
 19 43  1  0
 20 44  1  0
 24 45  1  0
 25 46  1  0
 27 47  1  0
 27 48  1  0
 27 49  1  0
 28 50  1  0
 29 51  1  0
 30 52  1  0
 31 53  1  0
M  END
$$$$
