
     RDKit          3D

 60 65  0  0  0  0  0  0  0  0999 V2000
    6.8676    1.6042   -1.2679 C   0  0  0  0  0  0  0  0  0  0  0  0
    5.7880    2.1509   -0.5209 O   0  0  0  0  0  0  0  0  0  0  0  0
    4.5448    1.6366   -0.7694 C   0  0  0  0  0  0  0  0  0  0  0  0
    3.5112    2.2252   -0.0340 C   0  0  0  0  0  0  0  0  0  0  0  0
    2.1849    1.8103   -0.1950 C   0  0  0  0  0  0  0  0  0  0  0  0
    1.8778    0.7770   -1.0821 C   0  0  0  0  0  0  0  0  0  0  0  0
    2.9247    0.1859   -1.7991 C   0  0  0  0  0  0  0  0  0  0  0  0
    4.2446    0.6150   -1.6674 C   0  0  0  0  0  0  0  0  0  0  0  0
    2.6586   -0.8148   -2.7001 O   0  0  0  0  0  0  0  0  0  0  0  0
    1.7853   -1.7893   -2.1203 C   0  0  0  0  0  0  0  0  0  0  0  0
    0.4691   -1.2091   -1.5947 C   0  0  0  0  0  0  0  0  0  0  0  0
    0.4817    0.3075   -1.4132 C   0  0  0  0  0  0  0  0  0  0  0  0
   -0.5265    0.5669   -0.3820 N   0  0  0  0  0  0  0  0  0  0  0  0
   -1.1932    1.7750   -0.3813 C   0  0  0  0  0  0  0  0  0  0  0  0
   -0.9897    2.6166   -1.2574 O   0  0  0  0  0  0  0  0  0  0  0  0
   -2.1562    2.1224    0.6957 C   0  0  0  0  0  0  0  0  0  0  0  0
   -3.0901    3.1315    0.3693 C   0  0  0  0  0  0  0  0  0  0  0  0
   -3.9667    3.6650    1.3211 C   0  0  0  0  0  0  0  0  0  0  0  0
   -4.9205    4.7606    0.9481 C   0  0  0  0  0  0  0  0  0  0  0  0
   -3.8768    3.2146    2.6348 C   0  0  0  0  0  0  0  0  0  0  0  0
   -2.9581    2.2186    2.9724 C   0  0  0  0  0  0  0  0  0  0  0  0
   -2.1117    1.6399    2.0087 C   0  0  0  0  0  0  0  0  0  0  0  0
   -1.2836    0.6211    2.4972 N   0  0  0  0  0  0  0  0  0  0  0  0
   -0.6633   -0.4102    1.8578 C   0  0  0  0  0  0  0  0  0  0  0  0
   -0.0251   -1.1897    2.5717 O   0  0  0  0  0  0  0  0  0  0  0  0
   -0.9000   -0.6564    0.3555 C   0  0  0  0  0  0  0  0  0  0  0  0
   -2.3565   -1.0729    0.0815 C   0  0  0  0  0  0  0  0  0  0  0  0
    0.1246   -1.7248   -0.1772 C   0  0  0  0  0  0  0  0  0  0  0  0
   -0.2738   -3.1929   -0.1071 C   0  0  0  0  0  0  0  0  0  0  0  0
   -1.0216   -3.8359   -1.1063 C   0  0  0  0  0  0  0  0  0  0  0  0
   -1.3588   -5.1879   -0.9942 C   0  0  0  0  0  0  0  0  0  0  0  0
   -0.9553   -5.9210    0.1175 C   0  0  0  0  0  0  0  0  0  0  0  0
   -0.2149   -5.3022    1.1191 C   0  0  0  0  0  0  0  0  0  0  0  0
    0.1222   -3.9517    1.0069 C   0  0  0  0  0  0  0  0  0  0  0  0
    7.0006    0.5398   -1.0479 H   0  0  0  0  0  0  0  0  0  0  0  0
    6.7312    1.7729   -2.3412 H   0  0  0  0  0  0  0  0  0  0  0  0
    7.7814    2.1233   -0.9631 H   0  0  0  0  0  0  0  0  0  0  0  0
    3.7386    3.0320    0.6591 H   0  0  0  0  0  0  0  0  0  0  0  0
    1.4071    2.3215    0.3644 H   0  0  0  0  0  0  0  0  0  0  0  0
    5.0051    0.1300   -2.2677 H   0  0  0  0  0  0  0  0  0  0  0  0
    2.3426   -2.3357   -1.3478 H   0  0  0  0  0  0  0  0  0  0  0  0
    1.5650   -2.5256   -2.9021 H   0  0  0  0  0  0  0  0  0  0  0  0
   -0.3375   -1.4481   -2.2984 H   0  0  0  0  0  0  0  0  0  0  0  0
    0.1825    0.7970   -2.3493 H   0  0  0  0  0  0  0  0  0  0  0  0
   -3.1163    3.5262   -0.6474 H   0  0  0  0  0  0  0  0  0  0  0  0
   -4.4322    5.7343    1.0533 H   0  0  0  0  0  0  0  0  0  0  0  0
   -5.2621    4.6445   -0.0858 H   0  0  0  0  0  0  0  0  0  0  0  0
   -5.8091    4.7397    1.5877 H   0  0  0  0  0  0  0  0  0  0  0  0
   -4.5203    3.6321    3.4066 H   0  0  0  0  0  0  0  0  0  0  0  0
   -2.9309    1.8817    4.0074 H   0  0  0  0  0  0  0  0  0  0  0  0
   -1.1879    0.5358    3.5033 H   0  0  0  0  0  0  0  0  0  0  0  0
   -2.6201   -1.9805    0.6354 H   0  0  0  0  0  0  0  0  0  0  0  0
   -2.5249   -1.2502   -0.9862 H   0  0  0  0  0  0  0  0  0  0  0  0
   -3.0888   -0.3219    0.3855 H   0  0  0  0  0  0  0  0  0  0  0  0
    1.0529   -1.6285    0.4084 H   0  0  0  0  0  0  0  0  0  0  0  0
   -1.3689   -3.3029   -1.9869 H   0  0  0  0  0  0  0  0  0  0  0  0
   -1.9402   -5.6685   -1.7772 H   0  0  0  0  0  0  0  0  0  0  0  0
   -1.2181   -6.9717    0.2040 H   0  0  0  0  0  0  0  0  0  0  0  0
    0.1029   -5.8679    1.9912 H   0  0  0  0  0  0  0  0  0  0  0  0
    0.7044   -3.4956    1.8069 H   0  0  0  0  0  0  0  0  0  0  0  0
  1  2  1  0
  2  3  1  0
  3  4  2  0
  4  5  1  0
  5  6  2  0
  6  7  1  0
  7  8  2  0
  7  9  1  0
  9 10  1  0
 10 11  1  0
 11 12  1  0
 12 13  1  0
 13 14  1  0
 14 15  2  0
 14 16  1  0
 16 17  2  0
 17 18  1  0
 18 19  1  0
 18 20  2  0
 20 21  1  0
 21 22  2  0
 22 23  1  0
 23 24  1  0
 24 25  2  0
 24 26  1  0
 26 27  1  0
 26 28  1  0
 28 29  1  0
 29 30  2  0
 30 31  1  0
 31 32  2  0
 32 33  1  0
 33 34  2  0
  8  3  1  0
 28 11  1  0
 34 29  1  0
 12  6  1  0
 26 13  1  0
 22 16  1  0
  1 35  1  0
  1 36  1  0
  1 37  1  0
  4 38  1  0
  5 39  1  0
  8 40  1  0
 10 41  1  0
 10 42  1  0
 11 43  1  0
 12 44  1  0
 17 45  1  0
 19 46  1  0
 19 47  1  0
 19 48  1  0
 20 49  1  0
 21 50  1  0
 23 51  1  0
 27 52  1  0
 27 53  1  0
 27 54  1  0
 28 55  1  0
 30 56  1  0
 31 57  1  0
 32 58  1  0
 33 59  1  0
 34 60  1  0
M  END
$$$$
