
     RDKit          3D

 33 34  0  0  0  0  0  0  0  0999 V2000
   -2.6163   -1.7140   -1.1534 N   0  0  0  0  0  0  0  0  0  0  0  0
   -2.4336   -0.5788   -0.5468 C   0  0  0  0  0  0  0  0  0  0  0  0
   -1.2914    0.1750   -0.7138 N   0  0  0  0  0  0  0  0  0  0  0  0
   -0.2031   -0.5867   -1.1772 O   0  0  0  0  0  0  0  0  0  0  0  0
    0.9815   -0.1859   -0.6128 C   0  0  0  0  0  0  0  0  0  0  0  0
    1.0680    0.7251    0.2033 O   0  0  0  0  0  0  0  0  0  0  0  0
    2.0985   -1.0701   -1.1158 C   0  0  0  0  0  0  0  0  0  0  0  0
    3.4772   -0.4857   -0.9245 C   0  0  0  0  0  0  0  0  0  0  0  0
    4.1493   -0.6314    0.2972 C   0  0  0  0  0  0  0  0  0  0  0  0
    5.4206   -0.0831    0.4752 C   0  0  0  0  0  0  0  0  0  0  0  0
    6.0301    0.6183   -0.5635 C   0  0  0  0  0  0  0  0  0  0  0  0
    5.3677    0.7767   -1.7793 C   0  0  0  0  0  0  0  0  0  0  0  0
    4.0957    0.2307   -1.9592 C   0  0  0  0  0  0  0  0  0  0  0  0
   -3.5141   -0.0367    0.3265 C   0  0  0  0  0  0  0  0  0  0  0  0
   -4.7920    0.0975   -0.2377 C   0  0  0  0  0  0  0  0  0  0  0  0
   -5.8444    0.6054    0.5245 C   0  0  0  0  0  0  0  0  0  0  0  0
   -5.6266    0.9786    1.8500 C   0  0  0  0  0  0  0  0  0  0  0  0
   -4.3560    0.8465    2.4151 C   0  0  0  0  0  0  0  0  0  0  0  0
   -3.2956    0.3402    1.6564 C   0  0  0  0  0  0  0  0  0  0  0  0
   -1.7625    0.1778    2.4317 Cl  0  0  0  0  0  0  0  0  0  0  0  0
   -3.5183   -2.1310   -0.9046 H   0  0  0  0  0  0  0  0  0  0  0  0
   -1.0300    0.8000    0.0549 H   0  0  0  0  0  0  0  0  0  0  0  0
    2.0316   -2.0341   -0.5970 H   0  0  0  0  0  0  0  0  0  0  0  0
    1.9399   -1.2663   -2.1841 H   0  0  0  0  0  0  0  0  0  0  0  0
    3.6834   -1.1665    1.1219 H   0  0  0  0  0  0  0  0  0  0  0  0
    5.9331   -0.1987    1.4266 H   0  0  0  0  0  0  0  0  0  0  0  0
    7.0189    1.0468   -0.4223 H   0  0  0  0  0  0  0  0  0  0  0  0
    5.8410    1.3288   -2.5871 H   0  0  0  0  0  0  0  0  0  0  0  0
    3.5919    0.3690   -2.9138 H   0  0  0  0  0  0  0  0  0  0  0  0
   -4.9649   -0.1770   -1.2768 H   0  0  0  0  0  0  0  0  0  0  0  0
   -6.8327    0.7159    0.0822 H   0  0  0  0  0  0  0  0  0  0  0  0
   -6.4466    1.3752    2.4453 H   0  0  0  0  0  0  0  0  0  0  0  0
   -4.2002    1.1386    3.4515 H   0  0  0  0  0  0  0  0  0  0  0  0
  1  2  2  3
  2  3  1  0
  3  4  1  0
  4  5  1  0
  5  6  2  0
  5  7  1  0
  7  8  1  0
  8  9  2  0
  9 10  1  0
 10 11  2  0
 11 12  1  0
 12 13  2  0
  2 14  1  0
 14 15  2  0
 15 16  1  0
 16 17  2  0
 17 18  1  0
 18 19  2  0
 19 20  1  0
 13  8  1  0
 19 14  1  0
  1 21  1  0
  3 22  1  0
  7 23  1  0
  7 24  1  0
  9 25  1  0
 10 26  1  0
 11 27  1  0
 12 28  1  0
 13 29  1  0
 15 30  1  0
 16 31  1  0
 17 32  1  0
 18 33  1  0
M  END
$$$$
