
     RDKit          3D

 42 44  0  0  0  0  0  0  0  0999 V2000
   -8.3744    0.9558   -0.4055 C   0  0  0  0  0  0  0  0  0  0  0  0
   -7.6197   -0.2144    0.1700 C   0  0  0  0  0  0  0  0  0  0  0  0
   -8.2123   -1.1586    0.6886 O   0  0  0  0  0  0  0  0  0  0  0  0
   -6.1277   -0.2123    0.1088 C   0  0  0  0  0  0  0  0  0  0  0  0
   -5.4378   -1.3568    0.5235 C   0  0  0  0  0  0  0  0  0  0  0  0
   -4.0384   -1.4019    0.4823 C   0  0  0  0  0  0  0  0  0  0  0  0
   -3.3081   -0.3040    0.0272 C   0  0  0  0  0  0  0  0  0  0  0  0
   -1.9000   -0.2652   -0.0393 N   0  0  0  0  0  0  0  0  0  0  0  0
   -1.0204   -1.3023    0.2168 C   0  0  0  0  0  0  0  0  0  0  0  0
   -1.3080   -2.4644    0.4747 O   0  0  0  0  0  0  0  0  0  0  0  0
    0.4217   -0.9415    0.1072 C   0  0  0  0  0  0  0  0  0  0  0  0
    1.3155   -1.8958   -0.3867 C   0  0  0  0  0  0  0  0  0  0  0  0
    2.6739   -1.5879   -0.5124 C   0  0  0  0  0  0  0  0  0  0  0  0
    3.1590   -0.3284   -0.1383 C   0  0  0  0  0  0  0  0  0  0  0  0
    4.5353   -0.0954   -0.3092 N   0  0  0  0  0  0  0  0  0  0  0  0
    5.2527    1.0585   -0.0449 C   0  0  0  0  0  0  0  0  0  0  0  0
    4.7849    2.1000    0.4041 O   0  0  0  0  0  0  0  0  0  0  0  0
    6.6630    0.9229   -0.3660 C   0  0  0  0  0  0  0  0  0  0  0  0
    7.7122    1.8157   -0.2523 C   0  0  0  0  0  0  0  0  0  0  0  0
    8.8697    1.1479   -0.7185 C   0  0  0  0  0  0  0  0  0  0  0  0
    8.4618   -0.1116   -1.0895 C   0  0  0  0  0  0  0  0  0  0  0  0
    7.1276   -0.2618   -0.8822 O   0  0  0  0  0  0  0  0  0  0  0  0
    2.2657    0.6123    0.3791 C   0  0  0  0  0  0  0  0  0  0  0  0
    0.9041    0.3092    0.5078 C   0  0  0  0  0  0  0  0  0  0  0  0
   -4.0001    0.8443   -0.3786 C   0  0  0  0  0  0  0  0  0  0  0  0
   -5.3997    0.8926   -0.3418 C   0  0  0  0  0  0  0  0  0  0  0  0
   -9.4467    0.7347   -0.3904 H   0  0  0  0  0  0  0  0  0  0  0  0
   -8.0844    1.1222   -1.4462 H   0  0  0  0  0  0  0  0  0  0  0  0
   -8.1989    1.8507    0.1973 H   0  0  0  0  0  0  0  0  0  0  0  0
   -5.9834   -2.2281    0.8836 H   0  0  0  0  0  0  0  0  0  0  0  0
   -3.5522   -2.3122    0.8212 H   0  0  0  0  0  0  0  0  0  0  0  0
   -1.4999    0.5982   -0.3825 H   0  0  0  0  0  0  0  0  0  0  0  0
    0.9556   -2.8804   -0.6799 H   0  0  0  0  0  0  0  0  0  0  0  0
    3.3433   -2.3492   -0.9063 H   0  0  0  0  0  0  0  0  0  0  0  0
    5.0907   -0.8567   -0.6872 H   0  0  0  0  0  0  0  0  0  0  0  0
    7.6351    2.8280    0.1232 H   0  0  0  0  0  0  0  0  0  0  0  0
    9.8772    1.5363   -0.7774 H   0  0  0  0  0  0  0  0  0  0  0  0
    8.9727   -0.9728   -1.4985 H   0  0  0  0  0  0  0  0  0  0  0  0
    2.5972    1.5937    0.7061 H   0  0  0  0  0  0  0  0  0  0  0  0
    0.2457    1.0528    0.9480 H   0  0  0  0  0  0  0  0  0  0  0  0
   -3.4614    1.7203   -0.7316 H   0  0  0  0  0  0  0  0  0  0  0  0
   -5.8911    1.8056   -0.6638 H   0  0  0  0  0  0  0  0  0  0  0  0
  1  2  1  0
  2  3  2  0
  2  4  1  0
  4  5  2  0
  5  6  1  0
  6  7  2  0
  7  8  1  0
  8  9  1  0
  9 10  2  0
  9 11  1  0
 11 12  2  0
 12 13  1  0
 13 14  2  0
 14 15  1  0
 15 16  1  0
 16 17  2  0
 16 18  1  0
 18 19  2  0
 19 20  1  0
 20 21  2  0
 21 22  1  0
 14 23  1  0
 23 24  2  0
  7 25  1  0
 25 26  2  0
 26  4  1  0
 24 11  1  0
 22 18  1  0
  1 27  1  0
  1 28  1  0
  1 29  1  0
  5 30  1  0
  6 31  1  0
  8 32  1  0
 12 33  1  0
 13 34  1  0
 15 35  1  0
 19 36  1  0
 20 37  1  0
 21 38  1  0
 23 39  1  0
 24 40  1  0
 25 41  1  0
 26 42  1  0
M  END
$$$$
