
     RDKit          3D

 56 58  0  0  0  0  0  0  0  0999 V2000
   10.2057    2.6370   -0.7214 C   0  0  0  0  0  0  0  0  0  0  0  0
    8.7022    2.8433   -0.7249 C   0  0  0  0  0  0  0  0  0  0  0  0
    8.1029    1.7237   -0.0754 O   0  0  0  0  0  0  0  0  0  0  0  0
    6.7418    1.7361    0.0564 C   0  0  0  0  0  0  0  0  0  0  0  0
    5.8751    2.7020   -0.4470 C   0  0  0  0  0  0  0  0  0  0  0  0
    4.4936    2.5836   -0.2411 C   0  0  0  0  0  0  0  0  0  0  0  0
    3.9594    1.5023    0.4699 C   0  0  0  0  0  0  0  0  0  0  0  0
    2.5581    1.4644    0.6294 N   0  0  0  0  0  0  0  0  0  0  0  0
    1.8079    0.5041    1.2889 C   0  0  0  0  0  0  0  0  0  0  0  0
    2.2335   -0.5081    1.8346 O   0  0  0  0  0  0  0  0  0  0  0  0
    0.3226    0.8169    1.2342 C   0  0  0  0  0  0  0  0  0  0  0  0
   -0.4984   -0.0806    2.1534 C   0  0  0  0  0  0  0  0  0  0  0  0
   -0.4938   -1.4649    1.6513 N   0  0  0  0  0  0  0  0  0  0  0  0
   -1.6641   -2.5204    2.2370 S   0  0  0  0  0  6  0  0  0  0  0  0
   -1.1273   -3.8552    2.0966 O   0  0  0  0  0  0  0  0  0  0  0  0
   -2.1587   -2.0205    3.4985 O   0  0  0  0  0  0  0  0  0  0  0  0
   -2.9389   -2.3330    1.0152 C   0  0  0  0  0  0  0  0  0  0  0  0
   -2.9353   -3.1452   -0.1180 C   0  0  0  0  0  0  0  0  0  0  0  0
   -3.9523   -3.0133   -1.0695 C   0  0  0  0  0  0  0  0  0  0  0  0
   -4.9823   -2.0725   -0.9016 C   0  0  0  0  0  0  0  0  0  0  0  0
   -4.9675   -1.2752    0.2431 C   0  0  0  0  0  0  0  0  0  0  0  0
   -3.9595   -1.4054    1.2111 C   0  0  0  0  0  0  0  0  0  0  0  0
   -6.0274   -0.2743    0.4361 C   0  0  0  0  0  0  0  0  0  0  0  0
   -6.0182    0.4158    1.4529 O   0  0  0  0  0  0  0  0  0  0  0  0
   -6.9798   -0.1715   -0.5652 N   0  0  0  0  0  0  0  0  0  0  0  0
   -8.0428    0.8005   -0.3829 C   0  0  0  0  0  0  0  0  0  0  0  0
   -7.0533   -0.9924   -1.6840 C   0  0  0  0  0  0  0  0  0  0  0  0
   -7.9821   -0.8992   -2.4894 O   0  0  0  0  0  0  0  0  0  0  0  0
   -6.0298   -1.9213   -1.8484 N   0  0  0  0  0  0  0  0  0  0  0  0
   -6.0640   -2.7792   -3.0266 C   0  0  0  0  0  0  0  0  0  0  0  0
    4.8318    0.5393    0.9722 C   0  0  0  0  0  0  0  0  0  0  0  0
    6.2117    0.6571    0.7636 C   0  0  0  0  0  0  0  0  0  0  0  0
   10.5790    2.5281    0.3023 H   0  0  0  0  0  0  0  0  0  0  0  0
   10.4696    1.7190   -1.2554 H   0  0  0  0  0  0  0  0  0  0  0  0
   10.7150    3.4801   -1.1967 H   0  0  0  0  0  0  0  0  0  0  0  0
    8.4662    3.7680   -0.1850 H   0  0  0  0  0  0  0  0  0  0  0  0
    8.3541    2.9136   -1.7612 H   0  0  0  0  0  0  0  0  0  0  0  0
    6.2373    3.5564   -1.0070 H   0  0  0  0  0  0  0  0  0  0  0  0
    3.8461    3.3546   -0.6489 H   0  0  0  0  0  0  0  0  0  0  0  0
    2.0493    2.2308    0.2096 H   0  0  0  0  0  0  0  0  0  0  0  0
    0.1788    1.8600    1.5383 H   0  0  0  0  0  0  0  0  0  0  0  0
   -0.0109    0.7101    0.1958 H   0  0  0  0  0  0  0  0  0  0  0  0
   -1.5241    0.3021    2.1797 H   0  0  0  0  0  0  0  0  0  0  0  0
   -0.0899   -0.0646    3.1702 H   0  0  0  0  0  0  0  0  0  0  0  0
    0.4334   -1.9094    1.6359 H   0  0  0  0  0  0  0  0  0  0  0  0
   -2.1494   -3.8830   -0.2682 H   0  0  0  0  0  0  0  0  0  0  0  0
   -3.9109   -3.6685   -1.9357 H   0  0  0  0  0  0  0  0  0  0  0  0
   -3.9764   -0.7853    2.1060 H   0  0  0  0  0  0  0  0  0  0  0  0
   -8.3566    1.2176   -1.3452 H   0  0  0  0  0  0  0  0  0  0  0  0
   -8.8969    0.2918    0.0761 H   0  0  0  0  0  0  0  0  0  0  0  0
   -7.7289    1.6230    0.2665 H   0  0  0  0  0  0  0  0  0  0  0  0
   -6.1471   -3.8244   -2.7126 H   0  0  0  0  0  0  0  0  0  0  0  0
   -6.9139   -2.5580   -3.6770 H   0  0  0  0  0  0  0  0  0  0  0  0
   -5.1526   -2.6288   -3.6124 H   0  0  0  0  0  0  0  0  0  0  0  0
    4.4799   -0.3212    1.5315 H   0  0  0  0  0  0  0  0  0  0  0  0
    6.8786   -0.1061    1.1607 H   0  0  0  0  0  0  0  0  0  0  0  0
  1  2  1  0
  2  3  1  0
  3  4  1  0
  4  5  2  0
  5  6  1  0
  6  7  2  0
  7  8  1  0
  8  9  1  0
  9 10  2  0
  9 11  1  0
 11 12  1  0
 12 13  1  0
 13 14  1  0
 14 15  2  0
 14 16  2  0
 14 17  1  0
 17 18  2  0
 18 19  1  0
 19 20  2  0
 20 21  1  0
 21 22  2  0
 21 23  1  0
 23 24  2  0
 23 25  1  0
 25 26  1  0
 25 27  1  0
 27 28  2  0
 27 29  1  0
 29 30  1  0
  7 31  1  0
 31 32  2  0
 32  4  1  0
 22 17  1  0
 29 20  1  0
  1 33  1  0
  1 34  1  0
  1 35  1  0
  2 36  1  0
  2 37  1  0
  5 38  1  0
  6 39  1  0
  8 40  1  0
 11 41  1  0
 11 42  1  0
 12 43  1  0
 12 44  1  0
 13 45  1  0
 18 46  1  0
 19 47  1  0
 22 48  1  0
 26 49  1  0
 26 50  1  0
 26 51  1  0
 30 52  1  0
 30 53  1  0
 30 54  1  0
 31 55  1  0
 32 56  1  0
M  END
$$$$
