
     RDKit          3D

 56 58  0  0  0  0  0  0  0  0999 V2000
   10.1968    2.1878   -1.0114 C   0  0  0  0  0  0  0  0  0  0  0  0
    9.0428    1.2155   -0.8423 C   0  0  0  0  0  0  0  0  0  0  0  0
    7.8298    1.9658   -0.9068 O   0  0  0  0  0  0  0  0  0  0  0  0
    6.7053    1.3046   -0.4973 C   0  0  0  0  0  0  0  0  0  0  0  0
    6.4932   -0.0666   -0.6192 C   0  0  0  0  0  0  0  0  0  0  0  0
    5.2857   -0.6283   -0.1906 C   0  0  0  0  0  0  0  0  0  0  0  0
    4.2757    0.1698    0.3619 C   0  0  0  0  0  0  0  0  0  0  0  0
    3.0842   -0.4769    0.7484 N   0  0  0  0  0  0  0  0  0  0  0  0
    1.9748    0.0901    1.3545 C   0  0  0  0  0  0  0  0  0  0  0  0
    1.8486    1.2598    1.7014 O   0  0  0  0  0  0  0  0  0  0  0  0
    0.8489   -0.9185    1.5269 C   0  0  0  0  0  0  0  0  0  0  0  0
   -0.2540   -0.4101    2.4481 C   0  0  0  0  0  0  0  0  0  0  0  0
   -0.9797    0.7034    1.8143 N   0  0  0  0  0  0  0  0  0  0  0  0
   -2.4270    1.1963    2.5192 S   0  0  0  0  0  6  0  0  0  0  0  0
   -2.6217    2.5833    2.1646 O   0  0  0  0  0  0  0  0  0  0  0  0
   -2.4508    0.7428    3.8934 O   0  0  0  0  0  0  0  0  0  0  0  0
   -3.6138    0.2499    1.5981 C   0  0  0  0  0  0  0  0  0  0  0  0
   -4.2585   -0.8338    2.1926 C   0  0  0  0  0  0  0  0  0  0  0  0
   -5.2268   -1.5431    1.4706 C   0  0  0  0  0  0  0  0  0  0  0  0
   -5.5684   -1.1744    0.1570 C   0  0  0  0  0  0  0  0  0  0  0  0
   -4.9068   -0.0874   -0.4169 C   0  0  0  0  0  0  0  0  0  0  0  0
   -3.9342    0.6325    0.2947 C   0  0  0  0  0  0  0  0  0  0  0  0
   -5.2365    0.3102   -1.7948 C   0  0  0  0  0  0  0  0  0  0  0  0
   -4.5922    1.2127   -2.3250 O   0  0  0  0  0  0  0  0  0  0  0  0
   -6.2618   -0.3842   -2.4147 N   0  0  0  0  0  0  0  0  0  0  0  0
   -6.6252    0.0003   -3.7664 C   0  0  0  0  0  0  0  0  0  0  0  0
   -6.9132   -1.4911   -1.8829 C   0  0  0  0  0  0  0  0  0  0  0  0
   -7.7602   -2.1095   -2.5324 O   0  0  0  0  0  0  0  0  0  0  0  0
   -6.5557   -1.8694   -0.5916 N   0  0  0  0  0  0  0  0  0  0  0  0
   -7.2352   -3.0159    0.0005 C   0  0  0  0  0  0  0  0  0  0  0  0
    4.4936    1.5429    0.4769 C   0  0  0  0  0  0  0  0  0  0  0  0
    5.6985    2.1051    0.0395 C   0  0  0  0  0  0  0  0  0  0  0  0
   10.1785    2.9486   -0.2264 H   0  0  0  0  0  0  0  0  0  0  0  0
   10.1179    2.7192   -1.9689 H   0  0  0  0  0  0  0  0  0  0  0  0
   11.1573    1.6624   -0.9814 H   0  0  0  0  0  0  0  0  0  0  0  0
    9.1339    0.7090    0.1270 H   0  0  0  0  0  0  0  0  0  0  0  0
    9.0766    0.4782   -1.6507 H   0  0  0  0  0  0  0  0  0  0  0  0
    7.2356   -0.7165   -1.0675 H   0  0  0  0  0  0  0  0  0  0  0  0
    5.1480   -1.7003   -0.3067 H   0  0  0  0  0  0  0  0  0  0  0  0
    3.0442   -1.4701    0.5576 H   0  0  0  0  0  0  0  0  0  0  0  0
    1.2655   -1.8389    1.9502 H   0  0  0  0  0  0  0  0  0  0  0  0
    0.4440   -1.1465    0.5343 H   0  0  0  0  0  0  0  0  0  0  0  0
   -0.9481   -1.2348    2.6441 H   0  0  0  0  0  0  0  0  0  0  0  0
    0.1723   -0.0709    3.3994 H   0  0  0  0  0  0  0  0  0  0  0  0
   -0.3960    1.5170    1.5837 H   0  0  0  0  0  0  0  0  0  0  0  0
   -4.0248   -1.1289    3.2154 H   0  0  0  0  0  0  0  0  0  0  0  0
   -5.7066   -2.3792    1.9722 H   0  0  0  0  0  0  0  0  0  0  0  0
   -3.4379    1.4878   -0.1643 H   0  0  0  0  0  0  0  0  0  0  0  0
   -6.1847    0.9574   -4.0605 H   0  0  0  0  0  0  0  0  0  0  0  0
   -6.2788   -0.7784   -4.4538 H   0  0  0  0  0  0  0  0  0  0  0  0
   -7.7166    0.0766   -3.8473 H   0  0  0  0  0  0  0  0  0  0  0  0
   -7.9763   -3.4541   -0.6744 H   0  0  0  0  0  0  0  0  0  0  0  0
   -7.7605   -2.6987    0.9091 H   0  0  0  0  0  0  0  0  0  0  0  0
   -6.4978   -3.7916    0.2356 H   0  0  0  0  0  0  0  0  0  0  0  0
    3.7473    2.2108    0.8931 H   0  0  0  0  0  0  0  0  0  0  0  0
    5.8506    3.1784    0.1261 H   0  0  0  0  0  0  0  0  0  0  0  0
  1  2  1  0
  2  3  1  0
  3  4  1  0
  4  5  2  0
  5  6  1  0
  6  7  2  0
  7  8  1  0
  8  9  1  0
  9 10  2  0
  9 11  1  0
 11 12  1  0
 12 13  1  0
 13 14  1  0
 14 15  2  0
 14 16  2  0
 14 17  1  0
 17 18  2  0
 18 19  1  0
 19 20  2  0
 20 21  1  0
 21 22  2  0
 21 23  1  0
 23 24  2  0
 23 25  1  0
 25 26  1  0
 25 27  1  0
 27 28  2  0
 27 29  1  0
 29 30  1  0
  7 31  1  0
 31 32  2  0
 32  4  1  0
 22 17  1  0
 29 20  1  0
  1 33  1  0
  1 34  1  0
  1 35  1  0
  2 36  1  0
  2 37  1  0
  5 38  1  0
  6 39  1  0
  8 40  1  0
 11 41  1  0
 11 42  1  0
 12 43  1  0
 12 44  1  0
 13 45  1  0
 18 46  1  0
 19 47  1  0
 22 48  1  0
 26 49  1  0
 26 50  1  0
 26 51  1  0
 30 52  1  0
 30 53  1  0
 30 54  1  0
 31 55  1  0
 32 56  1  0
M  END
$$$$
