
     RDKit          3D

 28 30  0  0  0  0  0  0  0  0999 V2000
   -0.3784   -0.0527   -4.9892 N   0  0  0  0  0  0  0  0  0  0  0  0
   -0.0901   -0.1058   -3.8658 C   0  0  0  0  0  0  0  0  0  0  0  0
    0.2915   -0.1890   -2.4943 C   0  0  0  0  0  0  0  0  0  0  0  0
    1.3369   -0.9674   -2.1487 C   0  0  0  0  0  0  0  0  0  0  0  0
    1.8933   -1.1282   -0.8029 C   0  0  0  0  0  0  0  0  0  0  0  0
    2.2458   -2.3876   -0.3315 C   0  0  0  0  0  0  0  0  0  0  0  0
    2.7971   -2.4913    0.9431 C   0  0  0  0  0  0  0  0  0  0  0  0
    2.9861   -1.3403    1.6987 C   0  0  0  0  0  0  0  0  0  0  0  0
    2.6209   -0.1262    1.1424 C   0  0  0  0  0  0  0  0  0  0  0  0
    2.0922    0.0052   -0.0936 N   0  0  0  0  0  0  0  0  0  0  0  0
   -0.4964    0.4860   -1.5139 C   0  0  0  0  0  0  0  0  0  0  0  0
   -1.2342   -0.0914   -0.5834 N   0  0  0  0  0  0  0  0  0  0  0  0
   -1.8484    0.8595    0.2126 C   0  0  0  0  0  0  0  0  0  0  0  0
   -2.6885    0.5961    1.3136 C   0  0  0  0  0  0  0  0  0  0  0  0
   -3.2496    1.6575    2.0313 C   0  0  0  0  0  0  0  0  0  0  0  0
   -2.9844    2.9729    1.6646 C   0  0  0  0  0  0  0  0  0  0  0  0
   -2.1551    3.2600    0.5759 C   0  0  0  0  0  0  0  0  0  0  0  0
   -1.5966    2.1855   -0.1368 C   0  0  0  0  0  0  0  0  0  0  0  0
   -0.5552    2.2162   -1.5039 S   0  0  0  0  0  0  0  0  0  0  0  0
    1.8651   -1.5318   -2.9141 H   0  0  0  0  0  0  0  0  0  0  0  0
    2.0859   -3.2777   -0.9306 H   0  0  0  0  0  0  0  0  0  0  0  0
    3.0723   -3.4626    1.3442 H   0  0  0  0  0  0  0  0  0  0  0  0
    3.4074   -1.3873    2.6966 H   0  0  0  0  0  0  0  0  0  0  0  0
    2.7485    0.8023    1.6914 H   0  0  0  0  0  0  0  0  0  0  0  0
   -2.8926   -0.4322    1.5949 H   0  0  0  0  0  0  0  0  0  0  0  0
   -3.8973    1.4496    2.8797 H   0  0  0  0  0  0  0  0  0  0  0  0
   -3.4275    3.7901    2.2301 H   0  0  0  0  0  0  0  0  0  0  0  0
   -1.9489    4.2870    0.2898 H   0  0  0  0  0  0  0  0  0  0  0  0
  1  2  3  0
  2  3  1  0
  3  4  2  3
  4  5  1  0
  5  6  2  0
  6  7  1  0
  7  8  2  0
  8  9  1  0
  9 10  2  0
  3 11  1  0
 11 12  2  0
 12 13  1  0
 13 14  2  0
 14 15  1  0
 15 16  2  0
 16 17  1  0
 17 18  2  0
 18 19  1  0
 10  5  1  0
 19 11  1  0
 18 13  1  0
  4 20  1  0
  6 21  1  0
  7 22  1  0
  8 23  1  0
  9 24  1  0
 14 25  1  0
 15 26  1  0
 16 27  1  0
 17 28  1  0
M  END
$$$$
