
     RDKit          3D

 51 55  0  0  0  0  0  0  0  0999 V2000
    5.1626   -0.5794   -1.8139 F   0  0  0  0  0  0  0  0  0  0  0  0
    5.9019   -0.2141   -0.7564 C   0  0  0  0  0  0  0  0  0  0  0  0
    7.2083   -0.6826   -0.6557 C   0  0  0  0  0  0  0  0  0  0  0  0
    7.9875   -0.3193    0.4410 C   0  0  0  0  0  0  0  0  0  0  0  0
    7.4529    0.5083    1.4291 C   0  0  0  0  0  0  0  0  0  0  0  0
    6.1400    0.9754    1.3222 C   0  0  0  0  0  0  0  0  0  0  0  0
    5.3504    0.6199    0.2209 C   0  0  0  0  0  0  0  0  0  0  0  0
    3.9272    1.1037    0.0984 C   0  0  0  0  0  0  0  0  0  0  0  0
    2.9195    0.0184    0.5153 C   0  0  0  0  0  0  0  0  0  0  0  0
    1.5215    0.4873    0.5172 N   0  0  0  0  0  0  0  0  0  0  0  0
    1.0700    0.8850   -0.8368 C   0  0  0  0  0  0  0  0  0  0  0  0
   -0.4662    0.9201   -0.9985 C   0  0  0  0  0  0  0  0  0  0  0  0
   -1.0985   -0.3890   -0.7077 N   0  0  0  0  0  0  0  0  0  0  0  0
   -2.4588   -0.3684   -0.3918 C   0  0  0  0  0  0  0  0  0  0  0  0
   -2.8473   -0.7947    0.7842 N   0  0  0  0  0  0  0  0  0  0  0  0
   -4.2053   -0.7466    1.1545 C   0  0  0  0  0  0  0  0  0  0  0  0
   -4.5625   -1.2021    2.4251 C   0  0  0  0  0  0  0  0  0  0  0  0
   -5.8940   -1.1662    2.8482 C   0  0  0  0  0  0  0  0  0  0  0  0
   -6.8850   -0.6711    1.9998 C   0  0  0  0  0  0  0  0  0  0  0  0
   -6.5512   -0.2106    0.7256 C   0  0  0  0  0  0  0  0  0  0  0  0
   -5.2148   -0.2525    0.3169 C   0  0  0  0  0  0  0  0  0  0  0  0
   -4.7930    0.1781   -0.9512 N   0  0  0  0  0  0  0  0  0  0  0  0
   -5.5324    0.6839   -1.9942 C   0  0  0  0  0  0  0  0  0  0  0  0
   -4.6843    0.8971   -3.0591 C   0  0  0  0  0  0  0  0  0  0  0  0
   -3.3862    0.5216   -2.6420 C   0  0  0  0  0  0  0  0  0  0  0  0
   -3.4680    0.1147   -1.3221 C   0  0  0  0  0  0  0  0  0  0  0  0
   -0.2192   -1.3054    0.0495 C   0  0  0  0  0  0  0  0  0  0  0  0
    0.6119   -0.5359    1.0941 C   0  0  0  0  0  0  0  0  0  0  0  0
    7.6084   -1.3275   -1.4313 H   0  0  0  0  0  0  0  0  0  0  0  0
    9.0090   -0.6808    0.5272 H   0  0  0  0  0  0  0  0  0  0  0  0
    8.0596    0.7908    2.2864 H   0  0  0  0  0  0  0  0  0  0  0  0
    5.7382    1.6173    2.1036 H   0  0  0  0  0  0  0  0  0  0  0  0
    3.7585    1.4222   -0.9375 H   0  0  0  0  0  0  0  0  0  0  0  0
    3.7886    1.9989    0.7183 H   0  0  0  0  0  0  0  0  0  0  0  0
    3.0253   -0.8669   -0.1259 H   0  0  0  0  0  0  0  0  0  0  0  0
    3.1820   -0.3005    1.5332 H   0  0  0  0  0  0  0  0  0  0  0  0
    1.4753    0.1986   -1.5928 H   0  0  0  0  0  0  0  0  0  0  0  0
    1.4598    1.8841   -1.0630 H   0  0  0  0  0  0  0  0  0  0  0  0
   -0.8768    1.6862   -0.3278 H   0  0  0  0  0  0  0  0  0  0  0  0
   -0.6948    1.2199   -2.0254 H   0  0  0  0  0  0  0  0  0  0  0  0
   -3.7924   -1.5858    3.0889 H   0  0  0  0  0  0  0  0  0  0  0  0
   -6.1550   -1.5245    3.8406 H   0  0  0  0  0  0  0  0  0  0  0  0
   -7.9197   -0.6455    2.3331 H   0  0  0  0  0  0  0  0  0  0  0  0
   -7.3390    0.1673    0.0829 H   0  0  0  0  0  0  0  0  0  0  0  0
   -6.5986    0.8378   -1.9152 H   0  0  0  0  0  0  0  0  0  0  0  0
   -4.9732    1.2702   -4.0333 H   0  0  0  0  0  0  0  0  0  0  0  0
   -2.4887    0.5399   -3.2449 H   0  0  0  0  0  0  0  0  0  0  0  0
    0.4491   -1.8108   -0.6592 H   0  0  0  0  0  0  0  0  0  0  0  0
   -0.7876   -2.1058    0.5373 H   0  0  0  0  0  0  0  0  0  0  0  0
   -0.0741   -0.0104    1.7708 H   0  0  0  0  0  0  0  0  0  0  0  0
    1.1594   -1.2502    1.7208 H   0  0  0  0  0  0  0  0  0  0  0  0
  1  2  1  0
  2  3  2  0
  3  4  1  0
  4  5  2  0
  5  6  1  0
  6  7  2  0
  7  8  1  0
  8  9  1  0
  9 10  1  0
 10 11  1  0
 11 12  1  0
 12 13  1  0
 13 14  1  0
 14 15  2  0
 15 16  1  0
 16 17  2  0
 17 18  1  0
 18 19  2  0
 19 20  1  0
 20 21  2  0
 21 22  1  0
 22 23  1  0
 23 24  2  0
 24 25  1  0
 25 26  2  0
 13 27  1  0
 27 28  1  0
  7  2  1  0
 28 10  1  0
 26 14  1  0
 21 16  1  0
 26 22  1  0
  3 29  1  0
  4 30  1  0
  5 31  1  0
  6 32  1  0
  8 33  1  0
  8 34  1  0
  9 35  1  0
  9 36  1  0
 11 37  1  0
 11 38  1  0
 12 39  1  0
 12 40  1  0
 17 41  1  0
 18 42  1  0
 19 43  1  0
 20 44  1  0
 23 45  1  0
 24 46  1  0
 25 47  1  0
 27 48  1  0
 27 49  1  0
 28 50  1  0
 28 51  1  0
M  END
$$$$
