
     RDKit          3D

 38 39  0  0  0  0  0  0  0  0999 V2000
   -5.1425    2.3074    2.1692 C   0  0  0  0  0  0  0  0  0  0  0  0
   -3.8451    2.0109    2.0157 C   0  0  0  0  0  0  0  0  0  0  0  0
   -3.1503    0.8614    2.6899 C   0  0  0  0  0  0  0  0  0  0  0  0
   -2.5413   -0.1003    1.6980 C   0  0  0  0  0  0  0  0  0  0  0  0
   -3.3314   -1.0695    1.0700 C   0  0  0  0  0  0  0  0  0  0  0  0
   -2.7673   -1.9495    0.1470 C   0  0  0  0  0  0  0  0  0  0  0  0
   -1.4067   -1.8612   -0.1584 C   0  0  0  0  0  0  0  0  0  0  0  0
   -0.8706   -2.7390   -1.0652 O   0  0  0  0  0  0  0  0  0  0  0  0
   -0.5813   -0.8964    0.4446 C   0  0  0  0  0  0  0  0  0  0  0  0
    0.8566   -0.7665    0.1274 C   0  0  0  0  0  0  0  0  0  0  0  0
    1.2619   -0.4913   -1.1930 C   0  0  0  0  0  0  0  0  0  0  0  0
    2.6161   -0.3510   -1.5394 C   0  0  0  0  0  0  0  0  0  0  0  0
    3.0154   -0.0466   -2.9633 C   0  0  0  0  0  0  0  0  0  0  0  0
    3.2775    1.4172   -3.1807 C   0  0  0  0  0  0  0  0  0  0  0  0
    4.4421    1.9231   -3.6080 C   0  0  0  0  0  0  0  0  0  0  0  0
    3.5868   -0.4729   -0.5390 C   0  0  0  0  0  0  0  0  0  0  0  0
    3.2133   -0.7444    0.7769 C   0  0  0  0  0  0  0  0  0  0  0  0
    1.8622   -0.8900    1.1018 C   0  0  0  0  0  0  0  0  0  0  0  0
    1.5164   -1.1613    2.4006 O   0  0  0  0  0  0  0  0  0  0  0  0
   -1.1772   -0.0200    1.3721 C   0  0  0  0  0  0  0  0  0  0  0  0
   -5.5816    3.1550    1.6519 H   0  0  0  0  0  0  0  0  0  0  0  0
   -5.7924    1.7163    2.8066 H   0  0  0  0  0  0  0  0  0  0  0  0
   -3.2345    2.6356    1.3665 H   0  0  0  0  0  0  0  0  0  0  0  0
   -3.8373    0.3106    3.3451 H   0  0  0  0  0  0  0  0  0  0  0  0
   -2.3682    1.2602    3.3479 H   0  0  0  0  0  0  0  0  0  0  0  0
   -4.3928   -1.1395    1.2971 H   0  0  0  0  0  0  0  0  0  0  0  0
   -3.4018   -2.6919   -0.3265 H   0  0  0  0  0  0  0  0  0  0  0  0
   -1.5417   -3.4012   -1.2924 H   0  0  0  0  0  0  0  0  0  0  0  0
    0.5002   -0.3883   -1.9649 H   0  0  0  0  0  0  0  0  0  0  0  0
    2.2203   -0.3670   -3.6480 H   0  0  0  0  0  0  0  0  0  0  0  0
    3.8936   -0.6509   -3.2244 H   0  0  0  0  0  0  0  0  0  0  0  0
    2.4511    2.0953   -2.9761 H   0  0  0  0  0  0  0  0  0  0  0  0
    4.5636    2.9933   -3.7451 H   0  0  0  0  0  0  0  0  0  0  0  0
    5.2949    1.2886   -3.8273 H   0  0  0  0  0  0  0  0  0  0  0  0
    4.6400   -0.3536   -0.7829 H   0  0  0  0  0  0  0  0  0  0  0  0
    3.9856   -0.8339    1.5342 H   0  0  0  0  0  0  0  0  0  0  0  0
    2.3246   -1.3271    2.9103 H   0  0  0  0  0  0  0  0  0  0  0  0
   -0.5581    0.7382    1.8502 H   0  0  0  0  0  0  0  0  0  0  0  0
  1  2  2  0
  2  3  1  0
  3  4  1  0
  4  5  2  0
  5  6  1  0
  6  7  2  0
  7  8  1  0
  7  9  1  0
  9 10  1  0
 10 11  2  0
 11 12  1  0
 12 13  1  0
 13 14  1  0
 14 15  2  0
 12 16  2  0
 16 17  1  0
 17 18  2  0
 18 19  1  0
  9 20  2  0
 20  4  1  0
 18 10  1  0
  1 21  1  0
  1 22  1  0
  2 23  1  0
  3 24  1  0
  3 25  1  0
  5 26  1  0
  6 27  1  0
  8 28  1  0
 11 29  1  0
 13 30  1  0
 13 31  1  0
 14 32  1  0
 15 33  1  0
 15 34  1  0
 16 35  1  0
 17 36  1  0
 19 37  1  0
 20 38  1  0
M  END
$$$$
