
     RDKit          3D

 47 49  0  0  0  0  0  0  0  0999 V2000
    8.0683   -1.1513   -0.3114 C   0  0  0  0  0  0  0  0  0  0  0  0
    6.7184   -1.2565   -1.0065 C   0  0  0  0  0  0  0  0  0  0  0  0
    5.6321   -0.5584   -0.2282 C   0  0  0  0  0  0  0  0  0  0  0  0
    5.2207    0.7326   -0.5818 C   0  0  0  0  0  0  0  0  0  0  0  0
    4.2260    1.3814    0.1516 C   0  0  0  0  0  0  0  0  0  0  0  0
    3.6259    0.7526    1.2434 C   0  0  0  0  0  0  0  0  0  0  0  0
    2.6265    1.4103    1.9696 N   0  0  0  0  0  0  0  0  0  0  0  0
    1.3970    1.2586    1.6162 C   0  0  0  0  0  0  0  0  0  0  0  0
    0.9162    0.5051    0.5956 N   0  0  0  0  0  0  0  0  0  0  0  0
   -0.4357    0.4723    0.4039 C   0  0  0  0  0  0  0  0  0  0  0  0
   -0.9816   -0.1941   -0.4606 O   0  0  0  0  0  0  0  0  0  0  0  0
   -1.1074    1.3495    1.4075 C   0  0  0  0  0  0  0  0  0  0  0  0
   -2.4169    1.6050    1.5296 C   0  0  0  0  0  0  0  0  0  0  0  0
   -3.4633    1.0573    0.6645 C   0  0  0  0  0  0  0  0  0  0  0  0
   -4.0935   -0.1518    1.0011 C   0  0  0  0  0  0  0  0  0  0  0  0
   -5.0989   -0.6699    0.1816 C   0  0  0  0  0  0  0  0  0  0  0  0
   -5.8039   -1.8249    0.4040 O   0  0  0  0  0  0  0  0  0  0  0  0
   -5.4473   -2.5791    1.5583 C   0  0  0  0  0  0  0  0  0  0  0  0
   -5.4619    0.0260   -0.9800 C   0  0  0  0  0  0  0  0  0  0  0  0
   -6.4735   -0.4721   -1.7609 O   0  0  0  0  0  0  0  0  0  0  0  0
   -4.8183    1.2134   -1.3328 C   0  0  0  0  0  0  0  0  0  0  0  0
   -5.1507    1.9436   -2.4432 O   0  0  0  0  0  0  0  0  0  0  0  0
   -4.7718    1.2568   -3.6353 C   0  0  0  0  0  0  0  0  0  0  0  0
   -3.8362    1.7404   -0.4976 C   0  0  0  0  0  0  0  0  0  0  0  0
    0.0856    2.0439    2.4566 S   0  0  0  0  0  0  0  0  0  0  0  0
    4.0517   -0.5237    1.6149 C   0  0  0  0  0  0  0  0  0  0  0  0
    5.0465   -1.1774    0.8834 C   0  0  0  0  0  0  0  0  0  0  0  0
    8.8472   -1.6110   -0.9270 H   0  0  0  0  0  0  0  0  0  0  0  0
    8.0537   -1.6684    0.6529 H   0  0  0  0  0  0  0  0  0  0  0  0
    8.3479   -0.1055   -0.1336 H   0  0  0  0  0  0  0  0  0  0  0  0
    6.7927   -0.8246   -2.0082 H   0  0  0  0  0  0  0  0  0  0  0  0
    6.4471   -2.3108   -1.1489 H   0  0  0  0  0  0  0  0  0  0  0  0
    5.6737    1.2470   -1.4262 H   0  0  0  0  0  0  0  0  0  0  0  0
    3.9256    2.3885   -0.1228 H   0  0  0  0  0  0  0  0  0  0  0  0
    1.5188   -0.0373   -0.0030 H   0  0  0  0  0  0  0  0  0  0  0  0
   -2.7805    2.2729    2.3069 H   0  0  0  0  0  0  0  0  0  0  0  0
   -3.7865   -0.6590    1.9082 H   0  0  0  0  0  0  0  0  0  0  0  0
   -4.4093   -2.9196    1.5040 H   0  0  0  0  0  0  0  0  0  0  0  0
   -5.6319   -2.0081    2.4736 H   0  0  0  0  0  0  0  0  0  0  0  0
   -6.0847   -3.4678    1.5872 H   0  0  0  0  0  0  0  0  0  0  0  0
   -6.7598   -1.2881   -1.3122 H   0  0  0  0  0  0  0  0  0  0  0  0
   -3.7353    0.9066   -3.5812 H   0  0  0  0  0  0  0  0  0  0  0  0
   -4.8412    1.9675   -4.4658 H   0  0  0  0  0  0  0  0  0  0  0  0
   -5.4478    0.4259   -3.8561 H   0  0  0  0  0  0  0  0  0  0  0  0
   -3.3612    2.6798   -0.7669 H   0  0  0  0  0  0  0  0  0  0  0  0
    3.6135   -1.0070    2.4837 H   0  0  0  0  0  0  0  0  0  0  0  0
    5.3635   -2.1707    1.1896 H   0  0  0  0  0  0  0  0  0  0  0  0
  1  2  1  0
  2  3  1  0
  3  4  2  0
  4  5  1  0
  5  6  2  0
  6  7  1  0
  7  8  2  3
  8  9  1  0
  9 10  1  0
 10 11  2  0
 10 12  1  0
 12 13  2  3
 13 14  1  0
 14 15  2  0
 15 16  1  0
 16 17  1  0
 17 18  1  0
 16 19  2  0
 19 20  1  0
 19 21  1  0
 21 22  1  0
 22 23  1  0
 21 24  2  0
 12 25  1  0
  6 26  1  0
 26 27  2  0
 27  3  1  0
 25  8  1  0
 24 14  1  0
  1 28  1  0
  1 29  1  0
  1 30  1  0
  2 31  1  0
  2 32  1  0
  4 33  1  0
  5 34  1  0
  9 35  1  0
 13 36  1  0
 15 37  1  0
 18 38  1  0
 18 39  1  0
 18 40  1  0
 20 41  1  0
 23 42  1  0
 23 43  1  0
 23 44  1  0
 24 45  1  0
 26 46  1  0
 27 47  1  0
M  END
$$$$
