
     RDKit          3D

 60 64  0  0  0  0  0  0  0  0999 V2000
   -7.9995   -1.4352   -0.2061 C   0  0  0  0  0  0  0  0  0  0  0  0
   -7.0133   -0.4350    0.3197 C   0  0  0  0  0  0  0  0  0  0  0  0
   -5.7499   -0.8488    0.7563 C   0  0  0  0  0  0  0  0  0  0  0  0
   -4.8394    0.0770    1.2710 C   0  0  0  0  0  0  0  0  0  0  0  0
   -5.1830    1.4320    1.3734 C   0  0  0  0  0  0  0  0  0  0  0  0
   -4.1951    2.4355    1.9126 C   0  0  0  0  0  0  0  0  0  0  0  0
   -3.5000    3.1201    0.8430 N   0  0  0  0  0  0  0  0  0  0  0  0
   -3.9151    4.3366    0.4077 N   0  0  0  0  0  0  0  0  0  0  0  0
   -3.0955    4.7188   -0.5719 N   0  0  0  0  0  0  0  0  0  0  0  0
   -2.1622    3.7407   -0.7217 C   0  0  0  0  0  0  0  0  0  0  0  0
   -1.0513    3.6296   -1.6257 C   0  0  0  0  0  0  0  0  0  0  0  0
   -0.7249    4.4537   -2.4725 O   0  0  0  0  0  0  0  0  0  0  0  0
   -0.3428    2.4482   -1.4409 N   0  0  0  0  0  0  0  0  0  0  0  0
   -0.6542    1.4906   -0.4810 C   0  0  0  0  0  0  0  0  0  0  0  0
    0.2483    0.2666   -0.4256 C   0  0  0  0  0  0  0  0  0  0  0  0
    1.6992    0.6462   -0.0874 C   0  0  0  0  0  0  0  0  0  0  0  0
    2.7057    0.0578   -1.0730 C   0  0  0  0  0  0  0  0  0  0  0  0
    2.4445   -1.3919   -1.2052 N   0  0  0  0  0  0  0  0  0  0  0  0
    3.6952   -2.3102   -1.9302 S   0  0  0  0  0  6  0  0  0  0  0  0
    3.2900   -3.6994   -1.9267 O   0  0  0  0  0  0  0  0  0  0  0  0
    4.0531   -1.6297   -3.1578 O   0  0  0  0  0  0  0  0  0  0  0  0
    5.0292   -2.1450   -0.7742 C   0  0  0  0  0  0  0  0  0  0  0  0
    6.2200   -1.5266   -1.1598 C   0  0  0  0  0  0  0  0  0  0  0  0
    7.2561   -1.3992   -0.2335 C   0  0  0  0  0  0  0  0  0  0  0  0
    7.1042   -1.8801    1.0749 C   0  0  0  0  0  0  0  0  0  0  0  0
    8.2341   -1.7732    2.0573 C   0  0  0  0  0  0  0  0  0  0  0  0
    5.9102   -2.5184    1.4394 C   0  0  0  0  0  0  0  0  0  0  0  0
    4.8701   -2.6499    0.5188 C   0  0  0  0  0  0  0  0  0  0  0  0
    1.0890   -1.7349   -1.7204 C   0  0  0  0  0  0  0  0  0  0  0  0
    0.1450   -0.5367   -1.7240 C   0  0  0  0  0  0  0  0  0  0  0  0
   -1.6564    1.5867    0.3491 N   0  0  0  0  0  0  0  0  0  0  0  0
   -2.3765    2.7227    0.1759 C   0  0  0  0  0  0  0  0  0  0  0  0
   -6.4518    1.8429    0.9423 C   0  0  0  0  0  0  0  0  0  0  0  0
   -7.3607    0.9160    0.4270 C   0  0  0  0  0  0  0  0  0  0  0  0
   -8.6976   -0.9671   -0.9076 H   0  0  0  0  0  0  0  0  0  0  0  0
   -7.4883   -2.2388   -0.7456 H   0  0  0  0  0  0  0  0  0  0  0  0
   -8.5690   -1.8693    0.6208 H   0  0  0  0  0  0  0  0  0  0  0  0
   -5.4645   -1.8966    0.6928 H   0  0  0  0  0  0  0  0  0  0  0  0
   -3.8563   -0.2680    1.5864 H   0  0  0  0  0  0  0  0  0  0  0  0
   -3.4445    1.9526    2.5490 H   0  0  0  0  0  0  0  0  0  0  0  0
   -4.7024    3.1858    2.5305 H   0  0  0  0  0  0  0  0  0  0  0  0
    0.4423    2.3349   -2.0642 H   0  0  0  0  0  0  0  0  0  0  0  0
   -0.1272   -0.3683    0.3898 H   0  0  0  0  0  0  0  0  0  0  0  0
    1.9266    0.2625    0.9167 H   0  0  0  0  0  0  0  0  0  0  0  0
    1.8412    1.7316   -0.0280 H   0  0  0  0  0  0  0  0  0  0  0  0
    3.7108    0.2407   -0.6819 H   0  0  0  0  0  0  0  0  0  0  0  0
    2.6327    0.5523   -2.0483 H   0  0  0  0  0  0  0  0  0  0  0  0
    6.3527   -1.1498   -2.1713 H   0  0  0  0  0  0  0  0  0  0  0  0
    8.1869   -0.9251   -0.5391 H   0  0  0  0  0  0  0  0  0  0  0  0
    7.8527   -1.6573    3.0770 H   0  0  0  0  0  0  0  0  0  0  0  0
    8.8578   -0.8993    1.8429 H   0  0  0  0  0  0  0  0  0  0  0  0
    8.8567   -2.6716    2.0105 H   0  0  0  0  0  0  0  0  0  0  0  0
    5.7873   -2.9207    2.4431 H   0  0  0  0  0  0  0  0  0  0  0  0
    3.9465   -3.1470    0.8075 H   0  0  0  0  0  0  0  0  0  0  0  0
    1.1427   -2.1360   -2.7389 H   0  0  0  0  0  0  0  0  0  0  0  0
    0.6813   -2.5204   -1.0731 H   0  0  0  0  0  0  0  0  0  0  0  0
   -0.8857   -0.8805   -1.8758 H   0  0  0  0  0  0  0  0  0  0  0  0
    0.3756    0.0974   -2.5895 H   0  0  0  0  0  0  0  0  0  0  0  0
   -6.7395    2.8918    0.9976 H   0  0  0  0  0  0  0  0  0  0  0  0
   -8.3410    1.2590    0.1028 H   0  0  0  0  0  0  0  0  0  0  0  0
  1  2  1  0
  2  3  2  0
  3  4  1  0
  4  5  2  0
  5  6  1  0
  6  7  1  0
  7  8  1  0
  8  9  2  0
  9 10  1  0
 10 11  1  0
 11 12  2  0
 11 13  1  0
 13 14  1  0
 14 15  1  0
 15 16  1  0
 16 17  1  0
 17 18  1  0
 18 19  1  0
 19 20  2  0
 19 21  2  0
 19 22  1  0
 22 23  2  0
 23 24  1  0
 24 25  2  0
 25 26  1  0
 25 27  1  0
 27 28  2  0
 18 29  1  0
 29 30  1  0
 14 31  2  0
 31 32  1  0
  5 33  1  0
 33 34  2  0
 34  2  1  0
 32  7  1  0
 32 10  2  0
 30 15  1  0
 28 22  1  0
  1 35  1  0
  1 36  1  0
  1 37  1  0
  3 38  1  0
  4 39  1  0
  6 40  1  0
  6 41  1  0
 13 42  1  0
 15 43  1  0
 16 44  1  0
 16 45  1  0
 17 46  1  0
 17 47  1  0
 23 48  1  0
 24 49  1  0
 26 50  1  0
 26 51  1  0
 26 52  1  0
 27 53  1  0
 28 54  1  0
 29 55  1  0
 29 56  1  0
 30 57  1  0
 30 58  1  0
 33 59  1  0
 34 60  1  0
M  END
$$$$
