
     RDKit          3D

 67 72  0  0  0  0  0  0  0  0999 V2000
   -4.8604   -3.5569   -2.4936 C   0  0  0  0  0  0  0  0  0  0  0  0
   -3.9905   -3.0265   -1.3935 C   0  0  0  0  0  0  0  0  0  0  0  0
   -4.0113   -3.5865   -0.1011 C   0  0  0  0  0  0  0  0  0  0  0  0
   -5.0531   -4.9136    0.2836 Cl  0  0  0  0  0  0  0  0  0  0  0  0
   -3.1844   -3.0976    0.9301 C   0  0  0  0  0  0  0  0  0  0  0  0
   -2.3072   -2.0374    0.7023 C   0  0  0  0  0  0  0  0  0  0  0  0
   -2.2771   -1.4809   -0.5653 C   0  0  0  0  0  0  0  0  0  0  0  0
   -3.0995   -1.9783   -1.5884 C   0  0  0  0  0  0  0  0  0  0  0  0
   -2.8609   -1.2689   -2.7652 N   0  0  0  0  0  0  0  0  0  0  0  0
   -1.8752   -0.2928   -2.5957 C   0  0  0  0  0  0  0  0  0  0  0  0
   -1.4493    0.4306   -3.4832 O   0  0  0  0  0  0  0  0  0  0  0  0
   -1.4470   -0.3561   -1.1087 C   0  0  1  0  0  0  0  0  0  0  0  0
   -1.7543    0.8944   -0.3631 C   0  0  0  0  0  0  0  0  0  0  0  0
   -0.5683    1.5981   -0.1014 C   0  0  0  0  0  0  0  0  0  0  0  0
   -0.8734    2.7485    0.5734 C   0  0  0  0  0  0  0  0  0  0  0  0
   -0.0769    3.7436    0.9557 O   0  0  0  0  0  0  0  0  0  0  0  0
   -2.2755    2.7690    0.7647 N   0  0  0  0  0  0  0  0  0  0  0  0
   -3.0268    3.7945    1.4399 C   0  0  0  0  0  0  0  0  0  0  0  0
   -2.4197    4.6147    2.4025 C   0  0  0  0  0  0  0  0  0  0  0  0
   -3.1510    5.6105    3.0592 C   0  0  0  0  0  0  0  0  0  0  0  0
   -4.4968    5.8020    2.7628 C   0  0  0  0  0  0  0  0  0  0  0  0
   -5.1129    4.9971    1.8098 C   0  0  0  0  0  0  0  0  0  0  0  0
   -4.3845    3.9994    1.1527 C   0  0  0  0  0  0  0  0  0  0  0  0
   -2.8042    1.5974    0.1711 C   0  0  0  0  0  0  0  0  0  0  0  0
   -4.0967    1.2825    0.2242 O   0  0  0  0  0  0  0  0  0  0  0  0
    0.5909    0.8879   -0.6865 C   0  0  1  0  0  0  0  0  0  0  0  0
    1.8437    0.7302    0.1742 C   0  0  0  0  0  0  0  0  0  0  0  0
    2.7320   -0.3362   -0.3169 N   0  0  0  0  0  0  0  0  0  0  0  0
    3.9621   -0.4837    0.2931 C   0  0  0  0  0  0  0  0  0  0  0  0
    4.3053    0.1678    1.2712 O   0  0  0  0  0  0  0  0  0  0  0  0
    4.7326   -1.4146   -0.3233 O   0  0  0  0  0  0  0  0  0  0  0  0
    6.0645   -1.7241    0.1606 C   0  0  0  0  0  0  0  0  0  0  0  0
    6.5822   -2.8078   -0.7977 C   0  0  0  0  0  0  0  0  0  0  0  0
    6.0218   -2.3054    1.5779 C   0  0  0  0  0  0  0  0  0  0  0  0
    6.9903   -0.5065    0.0658 C   0  0  0  0  0  0  0  0  0  0  0  0
    2.3519   -1.0316   -1.5580 C   0  0  0  0  0  0  0  0  0  0  0  0
    0.8339   -1.3511   -1.6759 C   0  0  0  0  0  0  0  0  0  0  0  0
    0.0055   -0.4621   -0.8842 N   0  0  0  0  0  0  0  0  0  0  0  0
   -4.8187   -2.9375   -3.3938 H   0  0  0  0  0  0  0  0  0  0  0  0
   -5.9089   -3.5780   -2.1788 H   0  0  0  0  0  0  0  0  0  0  0  0
   -4.5434   -4.5671   -2.7717 H   0  0  0  0  0  0  0  0  0  0  0  0
   -3.2223   -3.5509    1.9191 H   0  0  0  0  0  0  0  0  0  0  0  0
   -1.6654   -1.6618    1.4948 H   0  0  0  0  0  0  0  0  0  0  0  0
   -3.2973   -1.4324   -3.6605 H   0  0  0  0  0  0  0  0  0  0  0  0
    0.8273    3.5510    0.6562 H   0  0  0  0  0  0  0  0  0  0  0  0
   -1.3825    4.4819    2.6939 H   0  0  0  0  0  0  0  0  0  0  0  0
   -2.6649    6.2313    3.8072 H   0  0  0  0  0  0  0  0  0  0  0  0
   -5.0633    6.5763    3.2725 H   0  0  0  0  0  0  0  0  0  0  0  0
   -6.1621    5.1462    1.5682 H   0  0  0  0  0  0  0  0  0  0  0  0
   -4.9008    3.4224    0.3920 H   0  0  0  0  0  0  0  0  0  0  0  0
   -4.2101    0.3844   -0.1312 H   0  0  0  0  0  0  0  0  0  0  0  0
    0.8391    1.3399   -1.6566 H   0  0  0  0  0  0  0  0  0  0  0  0
    2.4083    1.6703    0.1973 H   0  0  0  0  0  0  0  0  0  0  0  0
    1.5891    0.4868    1.2141 H   0  0  0  0  0  0  0  0  0  0  0  0
    7.5944   -3.1333   -0.5359 H   0  0  0  0  0  0  0  0  0  0  0  0
    5.9234   -3.6839   -0.7880 H   0  0  0  0  0  0  0  0  0  0  0  0
    6.5927   -2.4411   -1.8306 H   0  0  0  0  0  0  0  0  0  0  0  0
    5.2900   -3.1185    1.6424 H   0  0  0  0  0  0  0  0  0  0  0  0
    5.7250   -1.5572    2.3189 H   0  0  0  0  0  0  0  0  0  0  0  0
    7.0009   -2.6933    1.8791 H   0  0  0  0  0  0  0  0  0  0  0  0
    6.7156    0.2740    0.7814 H   0  0  0  0  0  0  0  0  0  0  0  0
    6.9351   -0.0530   -0.9300 H   0  0  0  0  0  0  0  0  0  0  0  0
    8.0315   -0.7813    0.2662 H   0  0  0  0  0  0  0  0  0  0  0  0
    2.6425   -0.3594   -2.3752 H   0  0  0  0  0  0  0  0  0  0  0  0
    2.9254   -1.9557   -1.6813 H   0  0  0  0  0  0  0  0  0  0  0  0
    0.6676   -2.3762   -1.3248 H   0  0  0  0  0  0  0  0  0  0  0  0
    0.5725   -1.3334   -2.7396 H   0  0  0  0  0  0  0  0  0  0  0  0
  1  2  1  0
  2  3  2  0
  3  4  1  0
  3  5  1  0
  5  6  2  0
  6  7  1  0
  7  8  2  0
  8  9  1  0
  9 10  1  0
 10 11  2  0
 10 12  1  0
 12 13  1  0
 13 14  1  0
 14 15  2  0
 15 16  1  0
 15 17  1  0
 17 18  1  0
 18 19  2  0
 19 20  1  0
 20 21  2  0
 21 22  1  0
 22 23  2  0
 17 24  1  0
 24 25  1  0
 14 26  1  0
 26 27  1  0
 27 28  1  0
 28 29  1  0
 29 30  2  0
 29 31  1  0
 31 32  1  0
 32 33  1  0
 32 34  1  0
 32 35  1  0
 28 36  1  0
 36 37  1  0
 37 38  1  0
  8  2  1  0
 12 38  1  6
 12  7  1  0
 24 13  2  0
 38 26  1  0
 23 18  1  0
  1 39  1  0
  1 40  1  0
  1 41  1  0
  5 42  1  0
  6 43  1  0
  9 44  1  0
 16 45  1  0
 19 46  1  0
 20 47  1  0
 21 48  1  0
 22 49  1  0
 23 50  1  0
 25 51  1  0
 26 52  1  6
 27 53  1  0
 27 54  1  0
 33 55  1  0
 33 56  1  0
 33 57  1  0
 34 58  1  0
 34 59  1  0
 34 60  1  0
 35 61  1  0
 35 62  1  0
 35 63  1  0
 36 64  1  0
 36 65  1  0
 37 66  1  0
 37 67  1  0
M  END
$$$$
