
     RDKit          3D

 48 49  0  0  0  0  0  0  0  0999 V2000
   -7.2403   -0.4106    2.8085 C   0  0  0  0  0  0  0  0  0  0  0  0
   -6.8059   -0.2637    1.3799 C   0  0  0  0  0  0  0  0  0  0  0  0
   -7.7516   -0.1460    0.3624 C   0  0  0  0  0  0  0  0  0  0  0  0
   -7.3401    0.0202   -0.9586 C   0  0  0  0  0  0  0  0  0  0  0  0
   -5.9750    0.0823   -1.2886 C   0  0  0  0  0  0  0  0  0  0  0  0
   -5.6033    0.2616   -2.7365 C   0  0  0  0  0  0  0  0  0  0  0  0
   -5.0091   -0.0176   -0.2630 C   0  0  0  0  0  0  0  0  0  0  0  0
   -3.6389    0.0568   -0.6099 N   0  0  0  0  0  0  0  0  0  0  0  0
   -2.5367   -0.0271    0.2249 C   0  0  0  0  0  0  0  0  0  0  0  0
   -2.5372   -0.1796    1.4410 O   0  0  0  0  0  0  0  0  0  0  0  0
   -1.2433    0.0954   -0.5584 C   0  0  0  0  0  0  0  0  0  0  0  0
   -0.0245   -0.0067    0.3495 C   0  0  0  0  0  0  0  0  0  0  0  0
    1.2627    0.1024   -0.4361 C   0  0  0  0  0  0  0  0  0  0  0  0
    1.2928    0.2705   -1.6516 O   0  0  0  0  0  0  0  0  0  0  0  0
    2.3812   -0.0102    0.3785 N   0  0  0  0  0  0  0  0  0  0  0  0
    3.6195    0.0650   -0.1769 N   0  0  0  0  0  0  0  0  0  0  0  0
    4.6173   -0.0650    0.6365 C   0  0  0  0  0  0  0  0  0  0  0  0
    6.0057    0.0007    0.1362 C   0  0  0  0  0  0  0  0  0  0  0  0
    7.0452   -0.1518    1.0599 C   0  0  0  0  0  0  0  0  0  0  0  0
    8.3742   -0.0944    0.6116 C   0  0  0  0  0  0  0  0  0  0  0  0
    9.4701   -0.2582    1.5754 N   0  0  0  0  0  4  0  0  0  0  0  0
   10.6305   -0.1778    1.1509 O   0  0  0  0  0  0  0  0  0  0  0  0
    9.1641   -0.4685    2.7576 O   0  0  0  0  0  1  0  0  0  0  0  0
    8.6675    0.1136   -0.7431 C   0  0  0  0  0  0  0  0  0  0  0  0
    7.6222    0.2639   -1.6559 C   0  0  0  0  0  0  0  0  0  0  0  0
    6.2990    0.2073   -1.2191 C   0  0  0  0  0  0  0  0  0  0  0  0
    5.3414    0.3640   -2.1823 O   0  0  0  0  0  0  0  0  0  0  0  0
   -5.4416   -0.1848    1.0594 C   0  0  0  0  0  0  0  0  0  0  0  0
   -8.1867   -0.9574    2.8740 H   0  0  0  0  0  0  0  0  0  0  0  0
   -7.3696    0.5763    3.2631 H   0  0  0  0  0  0  0  0  0  0  0  0
   -6.5003   -0.9730    3.3878 H   0  0  0  0  0  0  0  0  0  0  0  0
   -8.8143   -0.1842    0.5903 H   0  0  0  0  0  0  0  0  0  0  0  0
   -8.0987    0.1039   -1.7342 H   0  0  0  0  0  0  0  0  0  0  0  0
   -6.4884    0.2932   -3.3812 H   0  0  0  0  0  0  0  0  0  0  0  0
   -5.0620    1.2031   -2.8762 H   0  0  0  0  0  0  0  0  0  0  0  0
   -4.9836   -0.5746   -3.0766 H   0  0  0  0  0  0  0  0  0  0  0  0
   -3.4368    0.1839   -1.5926 H   0  0  0  0  0  0  0  0  0  0  0  0
   -1.2438    1.0594   -1.0817 H   0  0  0  0  0  0  0  0  0  0  0  0
   -1.2182   -0.7002   -1.3131 H   0  0  0  0  0  0  0  0  0  0  0  0
   -0.0425    0.7938    1.0991 H   0  0  0  0  0  0  0  0  0  0  0  0
   -0.0270   -0.9668    0.8795 H   0  0  0  0  0  0  0  0  0  0  0  0
    2.2785   -0.1569    1.3777 H   0  0  0  0  0  0  0  0  0  0  0  0
    4.4734   -0.2284    1.7197 H   0  0  0  0  0  0  0  0  0  0  0  0
    6.8228   -0.3137    2.1122 H   0  0  0  0  0  0  0  0  0  0  0  0
    9.6939    0.1601   -1.1026 H   0  0  0  0  0  0  0  0  0  0  0  0
    7.8347    0.4265   -2.7104 H   0  0  0  0  0  0  0  0  0  0  0  0
    4.4517    0.3043   -1.7624 H   0  0  0  0  0  0  0  0  0  0  0  0
   -4.7291   -0.2579    1.8751 H   0  0  0  0  0  0  0  0  0  0  0  0
  1  2  1  0
  2  3  2  0
  3  4  1  0
  4  5  2  0
  5  6  1  0
  5  7  1  0
  7  8  1  0
  8  9  1  0
  9 10  2  0
  9 11  1  0
 11 12  1  0
 12 13  1  0
 13 14  2  0
 13 15  1  0
 15 16  1  0
 16 17  2  3
 17 18  1  0
 18 19  2  0
 19 20  1  0
 20 21  1  0
 21 22  2  0
 21 23  1  0
 20 24  2  0
 24 25  1  0
 25 26  2  0
 26 27  1  0
  7 28  2  0
 28  2  1  0
 26 18  1  0
  1 29  1  0
  1 30  1  0
  1 31  1  0
  3 32  1  0
  4 33  1  0
  6 34  1  0
  6 35  1  0
  6 36  1  0
  8 37  1  0
 11 38  1  0
 11 39  1  0
 12 40  1  0
 12 41  1  0
 15 42  1  0
 17 43  1  0
 19 44  1  0
 24 45  1  0
 25 46  1  0
 27 47  1  0
 28 48  1  0
M  CHG  2  21   1  23  -1
M  END
$$$$
