
     RDKit          3D

 22 22  0  0  0  0  0  0  0  0999 V2000
    3.0549    0.5973   -1.6468 N   0  0  0  0  0  0  0  0  0  0  0  0
    2.8903   -0.6452   -1.3761 C   0  0  0  0  0  0  0  0  0  0  0  0
    3.7930   -1.6064   -1.6683 N   0  0  0  0  0  0  0  0  0  0  0  0
    1.4381   -1.2203   -0.6145 S   0  0  0  0  0  0  0  0  0  0  0  0
    0.6201    0.3485   -0.2367 C   0  0  0  0  0  0  0  0  0  0  0  0
   -0.6954    0.2101    0.4898 C   0  0  0  0  0  0  0  0  0  0  0  0
   -1.3280   -0.8995    0.9131 C   0  0  0  0  0  0  0  0  0  0  0  0
   -2.6385   -0.7342    1.6162 C   0  0  0  0  0  0  0  0  0  0  0  0
   -2.9009    1.0317    1.6295 S   0  0  0  0  0  6  0  0  0  0  0  0
   -2.8349    1.5035    3.0001 O   0  0  0  0  0  0  0  0  0  0  0  0
   -4.0350    1.3414    0.7786 O   0  0  0  0  0  0  0  0  0  0  0  0
   -1.4010    1.5112    0.7839 C   0  0  0  0  0  0  0  0  0  0  0  0
    3.9792    0.7234   -2.0651 H   0  0  0  0  0  0  0  0  0  0  0  0
    3.4025   -2.5426   -1.6603 H   0  0  0  0  0  0  0  0  0  0  0  0
    4.3872   -1.4311   -2.4671 H   0  0  0  0  0  0  0  0  0  0  0  0
    0.4394    0.8812   -1.1771 H   0  0  0  0  0  0  0  0  0  0  0  0
    1.2929    0.9545    0.3806 H   0  0  0  0  0  0  0  0  0  0  0  0
   -0.9393   -1.9020    0.7732 H   0  0  0  0  0  0  0  0  0  0  0  0
   -2.5906   -1.0981    2.6446 H   0  0  0  0  0  0  0  0  0  0  0  0
   -3.4515   -1.2141    1.0677 H   0  0  0  0  0  0  0  0  0  0  0  0
   -0.8126    2.1490    1.4479 H   0  0  0  0  0  0  0  0  0  0  0  0
   -1.6699    2.0418   -0.1327 H   0  0  0  0  0  0  0  0  0  0  0  0
  1  2  2  3
  2  3  1  0
  2  4  1  0
  4  5  1  0
  5  6  1  0
  6  7  2  0
  7  8  1  0
  8  9  1  0
  9 10  2  0
  9 11  2  0
  9 12  1  0
 12  6  1  0
  1 13  1  0
  3 14  1  0
  3 15  1  0
  5 16  1  0
  5 17  1  0
  7 18  1  0
  8 19  1  0
  8 20  1  0
 12 21  1  0
 12 22  1  0
M  END
$$$$
