
     RDKit          3D

 46 48  0  0  0  0  0  0  0  0999 V2000
    3.4492    2.2316   -3.1861 C   0  0  0  0  0  0  0  0  0  0  0  0
    2.5714    1.0984   -2.6783 C   0  0  0  0  0  0  0  0  0  0  0  0
    2.2862    1.1616   -1.1693 N   0  0  0  0  0  4  0  0  0  0  0  0
    1.4813    2.4072   -0.7960 C   0  0  0  0  0  0  0  0  0  0  0  0
    3.5943    1.1800   -0.3674 C   0  0  0  0  0  0  0  0  0  0  0  0
    1.5158   -0.1121   -0.7192 C   0  0  0  0  0  0  0  0  0  0  0  0
    0.2057   -0.3627   -1.4844 C   0  0  0  0  0  0  0  0  0  0  0  0
   -0.6434   -1.3792   -0.7653 C   0  0  0  0  0  0  0  0  0  0  0  0
   -1.4768   -1.1709    0.2803 C   0  0  0  0  0  0  0  0  0  0  0  0
   -1.6659    0.1685    0.8921 C   0  0  0  0  0  0  0  0  0  0  0  0
   -2.1332    1.2668    0.1571 C   0  0  0  0  0  0  0  0  0  0  0  0
   -2.2952    2.5106    0.7700 C   0  0  0  0  0  0  0  0  0  0  0  0
   -2.0119    2.6622    2.1258 C   0  0  0  0  0  0  0  0  0  0  0  0
   -1.5950    1.5641    2.8797 C   0  0  0  0  0  0  0  0  0  0  0  0
   -1.4423    0.3111    2.2755 C   0  0  0  0  0  0  0  0  0  0  0  0
   -0.9988   -1.0918    3.3022 S   0  0  0  0  0  0  0  0  0  0  0  0
   -1.8010   -2.4256    2.4026 C   0  0  0  0  0  0  0  0  0  0  0  0
   -2.2463   -3.5444    3.1160 C   0  0  0  0  0  0  0  0  0  0  0  0
   -2.8780   -4.5963    2.4484 C   0  0  0  0  0  0  0  0  0  0  0  0
   -3.0666   -4.5296    1.0693 C   0  0  0  0  0  0  0  0  0  0  0  0
   -3.8511   -5.8233    0.2513 Cl  0  0  0  0  0  0  0  0  0  0  0  0
   -2.6231   -3.4246    0.3434 C   0  0  0  0  0  0  0  0  0  0  0  0
   -1.9748   -2.3712    1.0029 C   0  0  0  0  0  0  0  0  0  0  0  0
    3.0147    3.2138   -2.9822 H   0  0  0  0  0  0  0  0  0  0  0  0
    4.4550    2.1956   -2.7586 H   0  0  0  0  0  0  0  0  0  0  0  0
    3.5611    2.1453   -4.2724 H   0  0  0  0  0  0  0  0  0  0  0  0
    1.6064    1.1289   -3.1943 H   0  0  0  0  0  0  0  0  0  0  0  0
    3.0481    0.1316   -2.8757 H   0  0  0  0  0  0  0  0  0  0  0  0
    1.1624    2.3151    0.2463 H   0  0  0  0  0  0  0  0  0  0  0  0
    2.1212    3.2866   -0.9083 H   0  0  0  0  0  0  0  0  0  0  0  0
    0.6197    2.4876   -1.4623 H   0  0  0  0  0  0  0  0  0  0  0  0
    4.1136    2.1238   -0.5524 H   0  0  0  0  0  0  0  0  0  0  0  0
    3.3487    1.1010    0.6962 H   0  0  0  0  0  0  0  0  0  0  0  0
    4.2056    0.3307   -0.6855 H   0  0  0  0  0  0  0  0  0  0  0  0
    1.3375    0.0026    0.3568 H   0  0  0  0  0  0  0  0  0  0  0  0
    2.1986   -0.9597   -0.8606 H   0  0  0  0  0  0  0  0  0  0  0  0
   -0.3533    0.5561   -1.6601 H   0  0  0  0  0  0  0  0  0  0  0  0
    0.4317   -0.7605   -2.4814 H   0  0  0  0  0  0  0  0  0  0  0  0
   -0.4699   -2.4044   -1.0995 H   0  0  0  0  0  0  0  0  0  0  0  0
   -2.4118    1.1547   -0.8884 H   0  0  0  0  0  0  0  0  0  0  0  0
   -2.6744    3.3557    0.1989 H   0  0  0  0  0  0  0  0  0  0  0  0
   -2.1576    3.6263    2.6092 H   0  0  0  0  0  0  0  0  0  0  0  0
   -1.4244    1.6873    3.9476 H   0  0  0  0  0  0  0  0  0  0  0  0
   -2.1137   -3.6041    4.1944 H   0  0  0  0  0  0  0  0  0  0  0  0
   -3.2261   -5.4597    3.0109 H   0  0  0  0  0  0  0  0  0  0  0  0
   -2.7938   -3.3845   -0.7292 H   0  0  0  0  0  0  0  0  0  0  0  0
  1  2  1  0
  2  3  1  0
  3  4  1  0
  3  5  1  0
  3  6  1  0
  6  7  1  0
  7  8  1  0
  8  9  2  3
  9 10  1  0
 10 11  2  0
 11 12  1  0
 12 13  2  0
 13 14  1  0
 14 15  2  0
 15 16  1  0
 16 17  1  0
 17 18  2  0
 18 19  1  0
 19 20  2  0
 20 21  1  0
 20 22  1  0
 22 23  2  0
 23  9  1  0
 15 10  1  0
 23 17  1  0
  1 24  1  0
  1 25  1  0
  1 26  1  0
  2 27  1  0
  2 28  1  0
  4 29  1  0
  4 30  1  0
  4 31  1  0
  5 32  1  0
  5 33  1  0
  5 34  1  0
  6 35  1  0
  6 36  1  0
  7 37  1  0
  7 38  1  0
  8 39  1  0
 11 40  1  0
 12 41  1  0
 13 42  1  0
 14 43  1  0
 18 44  1  0
 19 45  1  0
 22 46  1  0
M  CHG  1   3   1
M  END
$$$$
