
     RDKit          3D

 38 40  0  0  0  0  0  0  0  0999 V2000
   -0.0441    3.2827    0.9451 S   0  0  0  0  0  0  0  0  0  0  0  0
    0.0970    1.6779    0.4584 C   0  0  0  0  0  0  0  0  0  0  0  0
    1.3140    1.0324    0.3687 N   0  0  0  0  0  0  0  0  0  0  0  0
    2.6123    1.6054    0.6932 C   0  0  0  0  0  0  0  0  0  0  0  0
    3.7117    0.6314    0.3590 C   0  0  0  0  0  0  0  0  0  0  0  0
    4.3048   -0.1499    1.3604 C   0  0  0  0  0  0  0  0  0  0  0  0
    5.3048   -1.0695    1.0398 C   0  0  0  0  0  0  0  0  0  0  0  0
    5.7160   -1.2216   -0.2834 C   0  0  0  0  0  0  0  0  0  0  0  0
    5.1265   -0.4569   -1.2883 C   0  0  0  0  0  0  0  0  0  0  0  0
    4.1267    0.4631   -0.9700 C   0  0  0  0  0  0  0  0  0  0  0  0
   -0.9923    0.8728    0.0834 N   0  0  0  0  0  0  0  0  0  0  0  0
   -0.8269   -0.4018   -0.6377 C   0  0  0  0  0  0  0  0  0  0  0  0
   -1.9896   -0.7400   -1.5694 C   0  0  0  0  0  0  0  0  0  0  0  0
   -3.2743   -0.7385   -0.7942 C   0  0  0  0  0  0  0  0  0  0  0  0
   -4.3009   -1.6475   -1.0708 C   0  0  0  0  0  0  0  0  0  0  0  0
   -5.4856   -1.6066   -0.3368 C   0  0  0  0  0  0  0  0  0  0  0  0
   -5.6537   -0.6518    0.6643 C   0  0  0  0  0  0  0  0  0  0  0  0
   -4.6383    0.2673    0.9314 C   0  0  0  0  0  0  0  0  0  0  0  0
   -3.4380    0.2281    0.2090 C   0  0  0  0  0  0  0  0  0  0  0  0
   -2.3687    1.2683    0.4478 C   0  0  0  0  0  0  0  0  0  0  0  0
    1.2752    0.0303    0.4797 H   0  0  0  0  0  0  0  0  0  0  0  0
    2.7534    2.5372    0.1338 H   0  0  0  0  0  0  0  0  0  0  0  0
    2.6257    1.8533    1.7609 H   0  0  0  0  0  0  0  0  0  0  0  0
    3.9925   -0.0457    2.3974 H   0  0  0  0  0  0  0  0  0  0  0  0
    5.7639   -1.6677    1.8228 H   0  0  0  0  0  0  0  0  0  0  0  0
    6.4957   -1.9370   -0.5315 H   0  0  0  0  0  0  0  0  0  0  0  0
    5.4449   -0.5770   -2.3206 H   0  0  0  0  0  0  0  0  0  0  0  0
    3.6678    1.0504   -1.7630 H   0  0  0  0  0  0  0  0  0  0  0  0
   -0.7102   -1.1814    0.1260 H   0  0  0  0  0  0  0  0  0  0  0  0
    0.0923   -0.3773   -1.2331 H   0  0  0  0  0  0  0  0  0  0  0  0
   -1.8123   -1.7218   -2.0230 H   0  0  0  0  0  0  0  0  0  0  0  0
   -2.0621   -0.0017   -2.3768 H   0  0  0  0  0  0  0  0  0  0  0  0
   -4.1841   -2.3910   -1.8555 H   0  0  0  0  0  0  0  0  0  0  0  0
   -6.2810   -2.3161   -0.5492 H   0  0  0  0  0  0  0  0  0  0  0  0
   -6.5806   -0.6165    1.2309 H   0  0  0  0  0  0  0  0  0  0  0  0
   -4.7913    1.0195    1.7023 H   0  0  0  0  0  0  0  0  0  0  0  0
   -2.6258    2.1589   -0.1385 H   0  0  0  0  0  0  0  0  0  0  0  0
   -2.3654    1.5382    1.5107 H   0  0  0  0  0  0  0  0  0  0  0  0
  1  2  2  0
  2  3  1  0
  3  4  1  0
  4  5  1  0
  5  6  2  0
  6  7  1  0
  7  8  2  0
  8  9  1  0
  9 10  2  0
  2 11  1  0
 11 12  1  0
 12 13  1  0
 13 14  1  0
 14 15  2  0
 15 16  1  0
 16 17  2  0
 17 18  1  0
 18 19  2  0
 19 20  1  0
 10  5  1  0
 20 11  1  0
 19 14  1  0
  3 21  1  0
  4 22  1  0
  4 23  1  0
  6 24  1  0
  7 25  1  0
  8 26  1  0
  9 27  1  0
 10 28  1  0
 12 29  1  0
 12 30  1  0
 13 31  1  0
 13 32  1  0
 15 33  1  0
 16 34  1  0
 17 35  1  0
 18 36  1  0
 20 37  1  0
 20 38  1  0
M  END
$$$$
