
     RDKit          3D

 28 28  0  0  0  0  0  0  0  0999 V2000
   -1.0757   -1.5006   -0.3355 C   0  0  0  0  0  0  0  0  0  0  0  0
   -1.8751   -0.2727    0.1163 C   0  0  0  0  0  0  0  0  0  0  0  0
   -2.9117    0.1074   -0.9499 C   0  0  0  0  0  0  0  0  0  0  0  0
   -2.6230   -0.6209    1.4163 C   0  0  0  0  0  0  0  0  0  0  0  0
   -0.9053    0.9045    0.3772 C   0  0  0  0  0  0  0  0  0  0  0  0
   -0.6585    1.2677    1.5308 O   0  0  0  0  0  0  0  0  0  0  0  0
   -0.3104    1.6045   -0.8423 C   0  0  0  0  0  0  0  0  0  0  0  0
    1.1738    2.5766   -0.4623 S   0  0  0  0  0  0  0  0  0  0  0  0
    2.2612    1.2821    0.0777 C   0  0  0  0  0  0  0  0  0  0  0  0
    2.0135    0.0203   -0.3217 N   0  0  0  0  0  0  0  0  0  0  0  0
    2.8840   -0.9173    0.0986 C   0  0  0  0  0  0  0  0  0  0  0  0
    3.9805   -0.6431    0.8795 C   0  0  0  0  0  0  0  0  0  0  0  0
    4.1504    0.6778    1.2146 C   0  0  0  0  0  0  0  0  0  0  0  0
    3.3159    1.6560    0.8212 N   0  0  0  0  0  0  0  0  0  0  0  0
   -0.3118   -1.7666    0.4038 H   0  0  0  0  0  0  0  0  0  0  0  0
   -0.5624   -1.3254   -1.2866 H   0  0  0  0  0  0  0  0  0  0  0  0
   -1.7286   -2.3704   -0.4705 H   0  0  0  0  0  0  0  0  0  0  0  0
   -3.4336    1.0324   -0.6792 H   0  0  0  0  0  0  0  0  0  0  0  0
   -3.6632   -0.6808   -1.0717 H   0  0  0  0  0  0  0  0  0  0  0  0
   -2.4484    0.2672   -1.9295 H   0  0  0  0  0  0  0  0  0  0  0  0
   -3.1878    0.2408    1.7904 H   0  0  0  0  0  0  0  0  0  0  0  0
   -1.9285   -0.9266    2.2075 H   0  0  0  0  0  0  0  0  0  0  0  0
   -3.3303   -1.4435    1.2612 H   0  0  0  0  0  0  0  0  0  0  0  0
   -1.0672    2.2922   -1.2323 H   0  0  0  0  0  0  0  0  0  0  0  0
   -0.0743    0.8818   -1.6269 H   0  0  0  0  0  0  0  0  0  0  0  0
    2.6652   -1.9316   -0.2225 H   0  0  0  0  0  0  0  0  0  0  0  0
    4.6643   -1.4132    1.2073 H   0  0  0  0  0  0  0  0  0  0  0  0
    4.9870    1.0017    1.8268 H   0  0  0  0  0  0  0  0  0  0  0  0
  1  2  1  0
  2  3  1  0
  2  4  1  0
  2  5  1  0
  5  6  2  0
  5  7  1  0
  7  8  1  0
  8  9  1  0
  9 10  2  0
 10 11  1  0
 11 12  2  0
 12 13  1  0
 13 14  2  0
 14  9  1  0
  1 15  1  0
  1 16  1  0
  1 17  1  0
  3 18  1  0
  3 19  1  0
  3 20  1  0
  4 21  1  0
  4 22  1  0
  4 23  1  0
  7 24  1  0
  7 25  1  0
 11 26  1  0
 12 27  1  0
 13 28  1  0
M  END
$$$$
