
     RDKit          3D

 33 34  0  0  0  0  0  0  0  0999 V2000
   -5.0694   -1.4552   -0.8447 C   0  0  0  0  0  0  0  0  0  0  0  0
   -5.0151    0.0604   -0.7626 C   0  0  0  0  0  0  0  0  0  0  0  0
   -3.9376    0.5716   -1.5453 O   0  0  0  0  0  0  0  0  0  0  0  0
   -2.7117    0.7283   -0.9639 C   0  0  0  0  0  0  0  0  0  0  0  0
   -2.3393    0.3053    0.3122 C   0  0  0  0  0  0  0  0  0  0  0  0
   -1.0367    0.5273    0.7795 C   0  0  0  0  0  0  0  0  0  0  0  0
   -0.0938    1.1675   -0.0338 C   0  0  0  0  0  0  0  0  0  0  0  0
    1.3005    1.4265    0.4217 C   0  0  0  0  0  0  0  0  0  0  0  0
    1.9410    2.3574   -0.0536 O   0  0  0  0  0  0  0  0  0  0  0  0
    1.8089    0.5512    1.3571 N   0  0  0  0  0  0  0  0  0  0  0  0
    3.2024    0.5998    1.7407 C   0  0  0  0  0  0  0  0  0  0  0  0
    3.9551   -0.3555    0.8923 C   0  0  0  0  0  0  0  0  0  0  0  0
    4.6183   -0.2311   -0.3110 C   0  0  0  0  0  0  0  0  0  0  0  0
    5.1304   -1.5138   -0.6189 C   0  0  0  0  0  0  0  0  0  0  0  0
    4.7441   -2.3384    0.4115 C   0  0  0  0  0  0  0  0  0  0  0  0
    4.0258   -1.6459    1.3331 O   0  0  0  0  0  0  0  0  0  0  0  0
   -0.4702    1.6013   -1.3081 C   0  0  0  0  0  0  0  0  0  0  0  0
   -1.7696    1.3747   -1.7690 C   0  0  0  0  0  0  0  0  0  0  0  0
   -4.1676   -1.9118   -0.4264 H   0  0  0  0  0  0  0  0  0  0  0  0
   -5.1337   -1.7798   -1.8885 H   0  0  0  0  0  0  0  0  0  0  0  0
   -5.9380   -1.8405   -0.3029 H   0  0  0  0  0  0  0  0  0  0  0  0
   -5.9347    0.4628   -1.2027 H   0  0  0  0  0  0  0  0  0  0  0  0
   -4.9943    0.4235    0.2708 H   0  0  0  0  0  0  0  0  0  0  0  0
   -3.0345   -0.2015    0.9728 H   0  0  0  0  0  0  0  0  0  0  0  0
   -0.7852    0.2150    1.7891 H   0  0  0  0  0  0  0  0  0  0  0  0
    1.3450   -0.3354    1.4958 H   0  0  0  0  0  0  0  0  0  0  0  0
    3.2629    0.3109    2.7947 H   0  0  0  0  0  0  0  0  0  0  0  0
    3.5981    1.6149    1.6365 H   0  0  0  0  0  0  0  0  0  0  0  0
    4.7078    0.6776   -0.8915 H   0  0  0  0  0  0  0  0  0  0  0  0
    5.7061   -1.8031   -1.4866 H   0  0  0  0  0  0  0  0  0  0  0  0
    4.8903   -3.3879    0.6254 H   0  0  0  0  0  0  0  0  0  0  0  0
    0.2459    2.1131   -1.9477 H   0  0  0  0  0  0  0  0  0  0  0  0
   -2.0513    1.7106   -2.7645 H   0  0  0  0  0  0  0  0  0  0  0  0
  1  2  1  0
  2  3  1  0
  3  4  1  0
  4  5  2  0
  5  6  1  0
  6  7  2  0
  7  8  1  0
  8  9  2  0
  8 10  1  0
 10 11  1  0
 11 12  1  0
 12 13  2  0
 13 14  1  0
 14 15  2  0
 15 16  1  0
  7 17  1  0
 17 18  2  0
 18  4  1  0
 16 12  1  0
  1 19  1  0
  1 20  1  0
  1 21  1  0
  2 22  1  0
  2 23  1  0
  5 24  1  0
  6 25  1  0
 10 26  1  0
 11 27  1  0
 11 28  1  0
 13 29  1  0
 14 30  1  0
 15 31  1  0
 17 32  1  0
 18 33  1  0
M  END
$$$$
