
     RDKit          3D

 30 32  0  0  0  0  0  0  0  0999 V2000
   -1.6048    1.6614    2.1776 O   0  0  0  0  0  0  0  0  0  0  0  0
   -2.5879    1.3243    1.5396 C   0  0  0  0  0  0  0  0  0  0  0  0
   -3.9319    1.6749    2.0116 C   0  0  0  0  0  0  0  0  0  0  0  0
   -4.8069    1.2234    1.1204 C   0  0  0  0  0  0  0  0  0  0  0  0
   -4.0558    0.5598    0.0493 C   0  0  0  0  0  0  0  0  0  0  0  0
   -4.6437    0.0512   -0.8905 O   0  0  0  0  0  0  0  0  0  0  0  0
   -2.7227    0.6440    0.3572 N   0  0  0  0  0  0  0  0  0  0  0  0
   -1.6503    0.1202   -0.4312 C   0  0  0  0  0  0  0  0  0  0  0  0
   -1.8761   -0.4376   -1.6987 C   0  0  0  0  0  0  0  0  0  0  0  0
   -0.8277   -0.9457   -2.4714 C   0  0  0  0  0  0  0  0  0  0  0  0
    0.4775   -0.9104   -1.9917 C   0  0  0  0  0  0  0  0  0  0  0  0
    0.7571   -0.3697   -0.7318 C   0  0  0  0  0  0  0  0  0  0  0  0
    2.1366   -0.3324   -0.2125 C   0  0  0  0  0  0  0  0  0  0  0  0
    2.9401   -1.4855   -0.2031 C   0  0  0  0  0  0  0  0  0  0  0  0
    4.2482   -1.4507    0.2884 C   0  0  0  0  0  0  0  0  0  0  0  0
    4.7768   -0.2602    0.7799 C   0  0  0  0  0  0  0  0  0  0  0  0
    3.9986    0.8942    0.7814 C   0  0  0  0  0  0  0  0  0  0  0  0
    2.6906    0.8574    0.2899 C   0  0  0  0  0  0  0  0  0  0  0  0
   -0.3194    0.1374    0.0281 C   0  0  0  0  0  0  0  0  0  0  0  0
   -4.1176    2.2116    2.9252 H   0  0  0  0  0  0  0  0  0  0  0  0
   -5.8798    1.2995    1.1324 H   0  0  0  0  0  0  0  0  0  0  0  0
   -2.8679   -0.4874   -2.1382 H   0  0  0  0  0  0  0  0  0  0  0  0
   -1.0344   -1.3649   -3.4533 H   0  0  0  0  0  0  0  0  0  0  0  0
    1.2805   -1.2987   -2.6149 H   0  0  0  0  0  0  0  0  0  0  0  0
    2.5442   -2.4304   -0.5696 H   0  0  0  0  0  0  0  0  0  0  0  0
    4.8508   -2.3552    0.2900 H   0  0  0  0  0  0  0  0  0  0  0  0
    5.7932   -0.2323    1.1634 H   0  0  0  0  0  0  0  0  0  0  0  0
    4.4066    1.8258    1.1644 H   0  0  0  0  0  0  0  0  0  0  0  0
    2.1042    1.7744    0.2947 H   0  0  0  0  0  0  0  0  0  0  0  0
   -0.0779    0.5273    1.0135 H   0  0  0  0  0  0  0  0  0  0  0  0
  1  2  2  0
  2  3  1  0
  3  4  2  0
  4  5  1  0
  5  6  2  0
  5  7  1  0
  7  8  1  0
  8  9  2  0
  9 10  1  0
 10 11  2  0
 11 12  1  0
 12 13  1  0
 13 14  2  0
 14 15  1  0
 15 16  2  0
 16 17  1  0
 17 18  2  0
 12 19  2  0
  7  2  1  0
 19  8  1  0
 18 13  1  0
  3 20  1  0
  4 21  1  0
  9 22  1  0
 10 23  1  0
 11 24  1  0
 14 25  1  0
 15 26  1  0
 16 27  1  0
 17 28  1  0
 18 29  1  0
 19 30  1  0
M  END
$$$$
