
     RDKit          3D

 23 24  0  0  0  0  0  0  0  0999 V2000
    2.6386    2.5950   -1.2914 O   0  0  0  0  0  0  0  0  0  0  0  0
    2.6244    1.5082   -0.7454 C   0  0  0  0  0  0  0  0  0  0  0  0
    3.7193    0.7692   -0.4132 O   0  0  0  0  0  0  0  0  0  0  0  0
    3.3061   -0.5294    0.0190 C   0  0  0  0  0  0  0  0  0  0  0  0
    1.8885   -0.3858    0.5154 C   0  0  0  0  0  0  0  0  0  0  0  0
    1.4279    0.7570   -0.3063 C   0  0  0  0  0  0  0  0  0  0  0  0
    0.1949    1.1142   -0.6911 C   0  0  0  0  0  0  0  0  0  0  0  0
   -1.0230    0.3947   -0.3123 C   0  0  0  0  0  0  0  0  0  0  0  0
   -1.8503   -0.1255   -1.3137 C   0  0  0  0  0  0  0  0  0  0  0  0
   -3.0223   -0.8064   -0.9774 C   0  0  0  0  0  0  0  0  0  0  0  0
   -3.3786   -0.9638    0.3610 C   0  0  0  0  0  0  0  0  0  0  0  0
   -2.5667   -0.4370    1.3641 C   0  0  0  0  0  0  0  0  0  0  0  0
   -1.3941    0.2436    1.0292 C   0  0  0  0  0  0  0  0  0  0  0  0
    3.9766   -0.8805    0.8095 H   0  0  0  0  0  0  0  0  0  0  0  0
    3.3814   -1.2186   -0.8302 H   0  0  0  0  0  0  0  0  0  0  0  0
    1.8799   -0.1075    1.5750 H   0  0  0  0  0  0  0  0  0  0  0  0
    1.3175   -1.3080    0.3806 H   0  0  0  0  0  0  0  0  0  0  0  0
    0.0499    1.9761   -1.3411 H   0  0  0  0  0  0  0  0  0  0  0  0
   -1.5872   -0.0082   -2.3627 H   0  0  0  0  0  0  0  0  0  0  0  0
   -3.6586   -1.2107   -1.7605 H   0  0  0  0  0  0  0  0  0  0  0  0
   -4.2928   -1.4909    0.6219 H   0  0  0  0  0  0  0  0  0  0  0  0
   -2.8501   -0.5496    2.4074 H   0  0  0  0  0  0  0  0  0  0  0  0
   -0.7813    0.6638    1.8230 H   0  0  0  0  0  0  0  0  0  0  0  0
  1  2  2  0
  2  3  1  0
  3  4  1  0
  4  5  1  0
  5  6  1  0
  6  7  2  3
  7  8  1  0
  8  9  2  0
  9 10  1  0
 10 11  2  0
 11 12  1  0
 12 13  2  0
  6  2  1  0
 13  8  1  0
  4 14  1  0
  4 15  1  0
  5 16  1  0
  5 17  1  0
  7 18  1  0
  9 19  1  0
 10 20  1  0
 11 21  1  0
 12 22  1  0
 13 23  1  0
M  END
$$$$
