
     RDKit          3D

 51 53  0  0  0  0  0  0  0  0999 V2000
  -10.3174    0.3012   -0.3582 C   0  0  0  0  0  0  0  0  0  0  0  0
   -8.8207    0.2901   -0.2670 C   0  0  0  0  0  0  0  0  0  0  0  0
   -8.0382    0.7869   -1.3132 C   0  0  0  0  0  0  0  0  0  0  0  0
   -6.6415    0.8048   -1.2161 C   0  0  0  0  0  0  0  0  0  0  0  0
   -6.0049    0.3354   -0.0677 C   0  0  0  0  0  0  0  0  0  0  0  0
   -4.6056    0.3212    0.1140 N   0  0  0  0  0  0  0  0  0  0  0  0
   -3.6291    0.7263   -0.7907 C   0  0  0  0  0  0  0  0  0  0  0  0
   -3.8285    1.1621   -1.9198 O   0  0  0  0  0  0  0  0  0  0  0  0
   -2.2183    0.5786   -0.2016 C   0  0  0  0  0  0  0  0  0  0  0  0
   -1.2174    0.8031   -1.1829 O   0  0  0  0  0  0  0  0  0  0  0  0
    0.0817    0.6206   -0.8021 C   0  0  0  0  0  0  0  0  0  0  0  0
    1.0036    0.6370   -1.8514 C   0  0  0  0  0  0  0  0  0  0  0  0
    2.3667    0.4619   -1.6037 C   0  0  0  0  0  0  0  0  0  0  0  0
    2.8186    0.2525   -0.3011 C   0  0  0  0  0  0  0  0  0  0  0  0
    4.2425    0.1707   -0.0923 N   0  0  0  0  0  0  0  0  0  0  0  0
    4.8682    1.4712    0.2500 C   0  0  0  0  0  0  0  0  0  0  0  0
    4.7490   -1.1549    0.8725 S   0  0  0  0  0  6  0  0  0  0  0  0
    4.6955   -0.7454    2.2624 O   0  0  0  0  0  0  0  0  0  0  0  0
    4.0891   -2.3624    0.4221 O   0  0  0  0  0  0  0  0  0  0  0  0
    6.4628   -1.3153    0.4157 C   0  0  0  0  0  0  0  0  0  0  0  0
    6.7777   -1.7162   -0.8890 C   0  0  0  0  0  0  0  0  0  0  0  0
    8.1158   -1.8459   -1.2599 C   0  0  0  0  0  0  0  0  0  0  0  0
    9.1160   -1.5811   -0.3279 C   0  0  0  0  0  0  0  0  0  0  0  0
   10.3998   -1.7041   -0.6878 F   0  0  0  0  0  0  0  0  0  0  0  0
    8.8055   -1.1925    0.9729 C   0  0  0  0  0  0  0  0  0  0  0  0
    7.4697   -1.0600    1.3537 C   0  0  0  0  0  0  0  0  0  0  0  0
    1.9052    0.2806    0.7562 C   0  0  0  0  0  0  0  0  0  0  0  0
    0.5381    0.4500    0.5052 C   0  0  0  0  0  0  0  0  0  0  0  0
   -6.7899   -0.1491    0.9859 C   0  0  0  0  0  0  0  0  0  0  0  0
   -8.1851   -0.1679    0.8899 C   0  0  0  0  0  0  0  0  0  0  0  0
  -10.6495    0.3060   -1.4017 H   0  0  0  0  0  0  0  0  0  0  0  0
  -10.7399   -0.5921    0.1134 H   0  0  0  0  0  0  0  0  0  0  0  0
  -10.7159    1.1900    0.1404 H   0  0  0  0  0  0  0  0  0  0  0  0
   -8.5060    1.1666   -2.2192 H   0  0  0  0  0  0  0  0  0  0  0  0
   -6.0834    1.2002   -2.0592 H   0  0  0  0  0  0  0  0  0  0  0  0
   -4.2863   -0.0422    1.0027 H   0  0  0  0  0  0  0  0  0  0  0  0
   -2.1266   -0.4381    0.2000 H   0  0  0  0  0  0  0  0  0  0  0  0
   -2.1307    1.3203    0.6014 H   0  0  0  0  0  0  0  0  0  0  0  0
    0.6552    0.7855   -2.8712 H   0  0  0  0  0  0  0  0  0  0  0  0
    3.0692    0.4801   -2.4321 H   0  0  0  0  0  0  0  0  0  0  0  0
    5.9584    1.4012    0.2142 H   0  0  0  0  0  0  0  0  0  0  0  0
    4.5793    2.2325   -0.4833 H   0  0  0  0  0  0  0  0  0  0  0  0
    4.5588    1.8127    1.2427 H   0  0  0  0  0  0  0  0  0  0  0  0
    5.9887   -1.9293   -1.6078 H   0  0  0  0  0  0  0  0  0  0  0  0
    8.3864   -2.1551   -2.2650 H   0  0  0  0  0  0  0  0  0  0  0  0
    9.6064   -1.0004    1.6806 H   0  0  0  0  0  0  0  0  0  0  0  0
    7.2258   -0.7639    2.3717 H   0  0  0  0  0  0  0  0  0  0  0  0
    2.2401    0.1730    1.7848 H   0  0  0  0  0  0  0  0  0  0  0  0
   -0.1351    0.4569    1.3554 H   0  0  0  0  0  0  0  0  0  0  0  0
   -6.3319   -0.5197    1.8992 H   0  0  0  0  0  0  0  0  0  0  0  0
   -8.7719   -0.5438    1.7250 H   0  0  0  0  0  0  0  0  0  0  0  0
  1  2  1  0
  2  3  2  0
  3  4  1  0
  4  5  2  0
  5  6  1  0
  6  7  1  0
  7  8  2  0
  7  9  1  0
  9 10  1  0
 10 11  1  0
 11 12  2  0
 12 13  1  0
 13 14  2  0
 14 15  1  0
 15 16  1  0
 15 17  1  0
 17 18  2  0
 17 19  2  0
 17 20  1  0
 20 21  2  0
 21 22  1  0
 22 23  2  0
 23 24  1  0
 23 25  1  0
 25 26  2  0
 14 27  1  0
 27 28  2  0
  5 29  1  0
 29 30  2  0
 30  2  1  0
 28 11  1  0
 26 20  1  0
  1 31  1  0
  1 32  1  0
  1 33  1  0
  3 34  1  0
  4 35  1  0
  6 36  1  0
  9 37  1  0
  9 38  1  0
 12 39  1  0
 13 40  1  0
 16 41  1  0
 16 42  1  0
 16 43  1  0
 21 44  1  0
 22 45  1  0
 25 46  1  0
 26 47  1  0
 27 48  1  0
 28 49  1  0
 29 50  1  0
 30 51  1  0
M  END
$$$$
