
     RDKit          3D

 48 51  0  0  0  0  0  0  0  0999 V2000
   -2.2577   -0.9561   -2.2360 C   0  0  0  0  0  0  0  0  0  0  0  0
   -1.5530   -2.0970   -1.5216 C   0  0  0  0  0  0  0  0  0  0  0  0
   -1.1880   -1.7634   -0.1635 N   0  0  0  0  0  0  0  0  0  0  0  0
   -1.9222   -2.0128    0.9661 C   0  0  0  0  0  0  0  0  0  0  0  0
   -3.5044   -2.7077    0.9747 S   0  0  0  0  0  0  0  0  0  0  0  0
   -4.3559   -1.5319    2.0739 C   0  0  0  0  0  0  0  0  0  0  0  0
   -4.6014   -0.2015    1.3996 C   0  0  0  0  0  0  0  0  0  0  0  0
   -3.7164    0.8714    1.6002 C   0  0  0  0  0  0  0  0  0  0  0  0
   -3.9232    2.0893    0.9516 C   0  0  0  0  0  0  0  0  0  0  0  0
   -5.0132    2.2371    0.1034 C   0  0  0  0  0  0  0  0  0  0  0  0
   -5.2095    3.4049   -0.5225 F   0  0  0  0  0  0  0  0  0  0  0  0
   -5.9013    1.1897   -0.1099 C   0  0  0  0  0  0  0  0  0  0  0  0
   -5.6960   -0.0305    0.5357 C   0  0  0  0  0  0  0  0  0  0  0  0
   -1.2694   -1.6039    2.0253 N   0  0  0  0  0  0  0  0  0  0  0  0
   -0.0965   -1.0460    1.5928 N   0  0  0  0  0  0  0  0  0  0  0  0
   -0.0530   -1.1164    0.2762 C   0  0  0  0  0  0  0  0  0  0  0  0
    1.1512   -0.5441   -0.5336 C   0  0  0  0  0  0  0  0  0  0  0  0
    1.4034   -0.5496   -1.9081 C   0  0  0  0  0  0  0  0  0  0  0  0
    2.5626    0.0289   -2.2107 N   0  0  0  0  0  0  0  0  0  0  0  0
    3.1451    0.2903   -1.0047 N   0  0  0  0  0  0  0  0  0  0  0  0
    4.5419    0.5877   -0.9779 C   0  0  0  0  0  0  0  0  0  0  0  0
    5.1664    1.0195   -2.1610 C   0  0  0  0  0  0  0  0  0  0  0  0
    6.5341    1.3021   -2.1809 C   0  0  0  0  0  0  0  0  0  0  0  0
    7.2954    1.1406   -1.0270 C   0  0  0  0  0  0  0  0  0  0  0  0
    6.6922    0.6858    0.1435 C   0  0  0  0  0  0  0  0  0  0  0  0
    5.3225    0.4017    0.1699 C   0  0  0  0  0  0  0  0  0  0  0  0
    2.2183    0.1531    0.0118 C   0  0  0  0  0  0  0  0  0  0  0  0
    2.3942    0.7325    1.3524 C   0  0  0  0  0  0  0  0  0  0  0  0
    3.2487    1.7890    1.3574 F   0  0  0  0  0  0  0  0  0  0  0  0
    1.2365    1.2232    1.8621 F   0  0  0  0  0  0  0  0  0  0  0  0
    2.8816   -0.1696    2.2382 F   0  0  0  0  0  0  0  0  0  0  0  0
   -2.4937   -1.2425   -3.2654 H   0  0  0  0  0  0  0  0  0  0  0  0
   -1.6366   -0.0554   -2.2662 H   0  0  0  0  0  0  0  0  0  0  0  0
   -3.1945   -0.6938   -1.7338 H   0  0  0  0  0  0  0  0  0  0  0  0
   -2.1942   -2.9843   -1.5077 H   0  0  0  0  0  0  0  0  0  0  0  0
   -0.6488   -2.4035   -2.0527 H   0  0  0  0  0  0  0  0  0  0  0  0
   -3.7952   -1.4010    3.0064 H   0  0  0  0  0  0  0  0  0  0  0  0
   -5.3185   -1.9714    2.3598 H   0  0  0  0  0  0  0  0  0  0  0  0
   -2.8541    0.7602    2.2577 H   0  0  0  0  0  0  0  0  0  0  0  0
   -3.2402    2.9193    1.1031 H   0  0  0  0  0  0  0  0  0  0  0  0
   -6.7453    1.3296   -0.7775 H   0  0  0  0  0  0  0  0  0  0  0  0
   -6.3912   -0.8489    0.3596 H   0  0  0  0  0  0  0  0  0  0  0  0
    0.8096   -0.9286   -2.7270 H   0  0  0  0  0  0  0  0  0  0  0  0
    4.5957    1.1548   -3.0785 H   0  0  0  0  0  0  0  0  0  0  0  0
    7.0029    1.6466   -3.0993 H   0  0  0  0  0  0  0  0  0  0  0  0
    8.3601    1.3587   -1.0418 H   0  0  0  0  0  0  0  0  0  0  0  0
    7.2918    0.5410    1.0395 H   0  0  0  0  0  0  0  0  0  0  0  0
    4.9191    0.0027    1.0944 H   0  0  0  0  0  0  0  0  0  0  0  0
  1  2  1  0
  2  3  1  0
  3  4  1  0
  4  5  1  0
  5  6  1  0
  6  7  1  0
  7  8  2  0
  8  9  1  0
  9 10  2  0
 10 11  1  0
 10 12  1  0
 12 13  2  0
  4 14  2  0
 14 15  1  0
 15 16  2  0
 16 17  1  0
 17 18  1  0
 18 19  2  0
 19 20  1  0
 20 21  1  0
 21 22  2  0
 22 23  1  0
 23 24  2  0
 24 25  1  0
 25 26  2  0
 20 27  1  0
 27 28  1  0
 28 29  1  0
 28 30  1  0
 28 31  1  0
 16  3  1  0
 27 17  2  0
 13  7  1  0
 26 21  1  0
  1 32  1  0
  1 33  1  0
  1 34  1  0
  2 35  1  0
  2 36  1  0
  6 37  1  0
  6 38  1  0
  8 39  1  0
  9 40  1  0
 12 41  1  0
 13 42  1  0
 18 43  1  0
 22 44  1  0
 23 45  1  0
 24 46  1  0
 25 47  1  0
 26 48  1  0
M  END
$$$$
