
     RDKit          3D

 31 32  0  0  0  0  0  0  0  0999 V2000
   -3.0213    1.3251    1.6314 C   0  0  0  0  0  0  0  0  0  0  0  0
   -2.6360   -0.0879    1.2170 C   0  0  0  0  0  0  0  0  0  0  0  0
   -1.7213   -0.0693    0.0667 N   0  0  0  0  0  0  0  0  0  0  0  0
   -2.3612   -0.1506   -1.2545 C   0  0  0  0  0  0  0  0  0  0  0  0
   -2.4696   -1.5952   -1.7214 C   0  0  0  0  0  0  0  0  0  0  0  0
   -0.3425    0.0158    0.2167 C   0  0  0  0  0  0  0  0  0  0  0  0
    0.2691    0.2186    1.4656 C   0  0  0  0  0  0  0  0  0  0  0  0
    1.6651    0.3067    1.6289 C   0  0  0  0  0  0  0  0  0  0  0  0
    2.5257    0.1939    0.5372 C   0  0  0  0  0  0  0  0  0  0  0  0
    3.9903    0.2707    0.6009 C   0  0  0  0  0  0  0  0  0  0  0  0
    4.7186    0.5244    2.1606 Cl  0  0  0  0  0  0  0  0  0  0  0  0
    4.7354    0.1481   -0.5122 C   0  0  0  0  0  0  0  0  0  0  0  0
    6.6181    0.2328   -0.5293 Br  0  0  0  0  0  0  0  0  0  0  0  0
    4.0918   -0.0686   -1.8366 C   0  0  0  0  0  0  0  0  0  0  0  0
    4.7325   -0.1861   -2.8764 O   0  0  0  0  0  0  0  0  0  0  0  0
    2.7061   -0.1356   -1.8617 O   0  0  0  0  0  0  0  0  0  0  0  0
    1.9306   -0.0063   -0.6973 C   0  0  0  0  0  0  0  0  0  0  0  0
    0.5409   -0.0938   -0.8660 C   0  0  0  0  0  0  0  0  0  0  0  0
   -2.1487    1.9116    1.9341 H   0  0  0  0  0  0  0  0  0  0  0  0
   -3.5086    1.8572    0.8077 H   0  0  0  0  0  0  0  0  0  0  0  0
   -3.7184    1.2944    2.4746 H   0  0  0  0  0  0  0  0  0  0  0  0
   -3.5516   -0.6321    0.9517 H   0  0  0  0  0  0  0  0  0  0  0  0
   -2.2165   -0.6445    2.0625 H   0  0  0  0  0  0  0  0  0  0  0  0
   -3.3726    0.2724   -1.2010 H   0  0  0  0  0  0  0  0  0  0  0  0
   -1.8412    0.4643   -1.9976 H   0  0  0  0  0  0  0  0  0  0  0  0
   -1.4864   -2.0649   -1.8204 H   0  0  0  0  0  0  0  0  0  0  0  0
   -2.9668   -1.6408   -2.6954 H   0  0  0  0  0  0  0  0  0  0  0  0
   -3.0532   -2.1941   -1.0144 H   0  0  0  0  0  0  0  0  0  0  0  0
   -0.3274    0.3279    2.3670 H   0  0  0  0  0  0  0  0  0  0  0  0
    2.0417    0.4677    2.6365 H   0  0  0  0  0  0  0  0  0  0  0  0
    0.1776   -0.2620   -1.8746 H   0  0  0  0  0  0  0  0  0  0  0  0
  1  2  1  0
  2  3  1  0
  3  4  1  0
  4  5  1  0
  3  6  1  0
  6  7  2  0
  7  8  1  0
  8  9  2  0
  9 10  1  0
 10 11  1  0
 10 12  2  0
 12 13  1  0
 12 14  1  0
 14 15  2  0
 14 16  1  0
 16 17  1  0
 17 18  2  0
 18  6  1  0
 17  9  1  0
  1 19  1  0
  1 20  1  0
  1 21  1  0
  2 22  1  0
  2 23  1  0
  4 24  1  0
  4 25  1  0
  5 26  1  0
  5 27  1  0
  5 28  1  0
  7 29  1  0
  8 30  1  0
 18 31  1  0
M  END
$$$$
