
     RDKit          3D

 61 67  0  0  0  0  0  0  0  0999 V2000
    3.5416   -1.4095    2.8455 O   0  0  0  0  0  0  0  0  0  0  0  0
    3.2170   -0.7768    1.8446 C   0  0  0  0  0  0  0  0  0  0  0  0
    4.2191   -0.6577    0.7642 C   0  0  0  0  0  0  0  0  0  0  0  0
    4.7273   -1.8391    0.1851 C   0  0  0  0  0  0  0  0  0  0  0  0
    5.6925   -1.7694   -0.8233 C   0  0  0  0  0  0  0  0  0  0  0  0
    6.1268   -0.5174   -1.2062 C   0  0  0  0  0  0  0  0  0  0  0  0
    5.6431    0.6324   -0.6227 C   0  0  0  0  0  0  0  0  0  0  0  0
    4.6924    0.6003    0.3740 C   0  0  0  0  0  0  0  0  0  0  0  0
    6.2119    1.7543   -1.1398 O   0  0  0  0  0  0  0  0  0  0  0  0
    7.1261    1.1802   -2.0980 C   0  0  0  0  0  0  0  0  0  0  0  0
    7.0583   -0.2597   -2.1629 O   0  0  0  0  0  0  0  0  0  0  0  0
    1.9636   -0.1914    1.6627 N   0  0  0  0  0  0  0  0  0  0  0  0
    1.4699    0.2652    0.3659 C   0  0  0  0  0  0  0  0  0  0  0  0
   -0.0224    0.5956    0.3900 C   0  0  0  0  0  0  0  0  0  0  0  0
   -0.8671   -0.5860    0.9429 C   0  0  0  0  0  0  0  0  0  0  0  0
   -0.2083   -1.1421    2.2504 C   0  0  0  0  0  0  0  0  0  0  0  0
    0.9757   -0.3080    2.7272 C   0  0  0  0  0  0  0  0  0  0  0  0
   -0.7938   -1.6005   -0.0964 O   0  0  0  0  0  0  0  0  0  0  0  0
   -1.6425   -2.6631    0.0441 C   0  0  0  0  0  0  0  0  0  0  0  0
   -1.3213   -3.8074   -0.6873 C   0  0  0  0  0  0  0  0  0  0  0  0
   -2.1233   -4.9451   -0.5860 C   0  0  0  0  0  0  0  0  0  0  0  0
   -3.2420   -4.9283    0.2415 C   0  0  0  0  0  0  0  0  0  0  0  0
   -4.0075   -6.0224    0.3337 F   0  0  0  0  0  0  0  0  0  0  0  0
   -3.5821   -3.7921    0.9639 C   0  0  0  0  0  0  0  0  0  0  0  0
   -2.7797   -2.6538    0.8524 C   0  0  0  0  0  0  0  0  0  0  0  0
   -3.1414   -1.4130    1.5624 C   0  0  0  0  0  0  0  0  0  0  0  0
   -4.0640   -1.4225    2.3707 O   0  0  0  0  0  0  0  0  0  0  0  0
   -2.3498   -0.1711    1.1653 C   0  0  0  0  0  0  0  0  0  0  0  0
   -3.0573    0.4573   -0.0300 C   0  0  0  0  0  0  0  0  0  0  0  0
   -3.0539    1.8803    0.4064 C   0  0  0  0  0  0  0  0  0  0  0  0
   -3.4283    2.9853   -0.5078 C   0  0  0  0  0  0  0  0  0  0  0  0
   -3.8735    2.7386   -1.8124 C   0  0  0  0  0  0  0  0  0  0  0  0
   -4.2065    3.8072   -2.6518 C   0  0  0  0  0  0  0  0  0  0  0  0
   -4.0977    5.1180   -2.1889 C   0  0  0  0  0  0  0  0  0  0  0  0
   -4.5004    6.4268   -3.2284 Cl  0  0  0  0  0  0  0  0  0  0  0  0
   -3.6623    5.3721   -0.8905 C   0  0  0  0  0  0  0  0  0  0  0  0
   -3.3292    4.3066   -0.0498 C   0  0  0  0  0  0  0  0  0  0  0  0
   -2.7012    2.0704    1.6366 N   0  0  0  0  0  0  0  0  0  0  0  0
   -2.4366    0.8053    2.2091 O   0  0  0  0  0  0  0  0  0  0  0  0
    4.3712   -2.8071    0.5316 H   0  0  0  0  0  0  0  0  0  0  0  0
    6.0950   -2.6662   -1.2809 H   0  0  0  0  0  0  0  0  0  0  0  0
    4.3409    1.5122    0.8425 H   0  0  0  0  0  0  0  0  0  0  0  0
    8.1476    1.4718   -1.8268 H   0  0  0  0  0  0  0  0  0  0  0  0
    6.8952    1.5867   -3.0893 H   0  0  0  0  0  0  0  0  0  0  0  0
    1.6779   -0.5134   -0.3774 H   0  0  0  0  0  0  0  0  0  0  0  0
    2.0293    1.1605    0.0768 H   0  0  0  0  0  0  0  0  0  0  0  0
   -0.3241    0.8452   -0.6339 H   0  0  0  0  0  0  0  0  0  0  0  0
   -0.1669    1.4950    0.9989 H   0  0  0  0  0  0  0  0  0  0  0  0
   -0.9334   -1.1923    3.0707 H   0  0  0  0  0  0  0  0  0  0  0  0
    0.1431   -2.1691    2.0870 H   0  0  0  0  0  0  0  0  0  0  0  0
    1.4109   -0.7618    3.6234 H   0  0  0  0  0  0  0  0  0  0  0  0
    0.6583    0.7028    3.0086 H   0  0  0  0  0  0  0  0  0  0  0  0
   -0.4401   -3.8204   -1.3242 H   0  0  0  0  0  0  0  0  0  0  0  0
   -1.8811   -5.8461   -1.1420 H   0  0  0  0  0  0  0  0  0  0  0  0
   -4.4665   -3.8006    1.5949 H   0  0  0  0  0  0  0  0  0  0  0  0
   -2.5366    0.3045   -0.9777 H   0  0  0  0  0  0  0  0  0  0  0  0
   -4.0971    0.1296   -0.1369 H   0  0  0  0  0  0  0  0  0  0  0  0
   -3.9734    1.7290   -2.2007 H   0  0  0  0  0  0  0  0  0  0  0  0
   -4.5507    3.6108   -3.6647 H   0  0  0  0  0  0  0  0  0  0  0  0
   -3.5803    6.3924   -0.5247 H   0  0  0  0  0  0  0  0  0  0  0  0
   -2.9921    4.5168    0.9643 H   0  0  0  0  0  0  0  0  0  0  0  0
  1  2  2  0
  2  3  1  0
  3  4  2  0
  4  5  1  0
  5  6  2  0
  6  7  1  0
  7  8  2  0
  7  9  1  0
  9 10  1  0
 10 11  1  0
  2 12  1  0
 12 13  1  0
 13 14  1  0
 14 15  1  0
 15 16  1  0
 16 17  1  0
 15 18  1  0
 18 19  1  0
 19 20  2  0
 20 21  1  0
 21 22  2  0
 22 23  1  0
 22 24  1  0
 24 25  2  0
 25 26  1  0
 26 27  2  0
 26 28  1  0
 28 29  1  0
 29 30  1  0
 30 31  1  0
 31 32  2  0
 32 33  1  0
 33 34  2  0
 34 35  1  0
 34 36  1  0
 36 37  2  0
 30 38  2  0
 38 39  1  0
  8  3  1  0
 17 12  1  0
 25 19  1  0
 39 28  1  0
 11  6  1  0
 28 15  1  0
 37 31  1  0
  4 40  1  0
  5 41  1  0
  8 42  1  0
 10 43  1  0
 10 44  1  0
 13 45  1  0
 13 46  1  0
 14 47  1  0
 14 48  1  0
 16 49  1  0
 16 50  1  0
 17 51  1  0
 17 52  1  0
 20 53  1  0
 21 54  1  0
 24 55  1  0
 29 56  1  0
 29 57  1  0
 32 58  1  0
 33 59  1  0
 36 60  1  0
 37 61  1  0
M  END
$$$$
