
     RDKit          3D

 33 33  0  0  0  0  0  0  0  0999 V2000
   -2.6025    1.5070    1.6196 C   0  0  0  0  0  0  0  0  0  0  0  0
   -3.0286    0.1077    1.1678 C   0  0  0  0  0  0  0  0  0  0  0  0
   -4.5539   -0.0085    1.2208 C   0  0  0  0  0  0  0  0  0  0  0  0
   -2.5296   -0.2177   -0.2536 C   0  0  0  0  0  0  0  0  0  0  0  0
   -1.0282   -0.3402   -0.3601 C   0  0  0  0  0  0  0  0  0  0  0  0
   -0.2744    0.6566   -0.9893 C   0  0  0  0  0  0  0  0  0  0  0  0
    1.1154    0.5454   -1.0810 C   0  0  0  0  0  0  0  0  0  0  0  0
    1.7823   -0.5683   -0.5503 C   0  0  0  0  0  0  0  0  0  0  0  0
    3.2921   -0.7033   -0.6327 C   0  0  0  0  0  0  0  0  0  0  0  0
    3.8094   -0.6592   -2.0731 C   0  0  0  0  0  0  0  0  0  0  0  0
    3.9935    0.2989    0.2662 C   0  0  0  0  0  0  0  0  0  0  0  0
    4.2523    0.1379    1.4498 O   0  0  0  0  0  0  0  0  0  0  0  0
    4.2975    1.4694   -0.3301 O   0  0  0  0  0  0  0  0  0  0  0  0
    1.0239   -1.5623    0.0839 C   0  0  0  0  0  0  0  0  0  0  0  0
   -0.3657   -1.4504    0.1759 C   0  0  0  0  0  0  0  0  0  0  0  0
   -2.9622    2.2750    0.9265 H   0  0  0  0  0  0  0  0  0  0  0  0
   -3.0063    1.7331    2.6124 H   0  0  0  0  0  0  0  0  0  0  0  0
   -1.5132    1.5899    1.6848 H   0  0  0  0  0  0  0  0  0  0  0  0
   -2.6140   -0.6196    1.8774 H   0  0  0  0  0  0  0  0  0  0  0  0
   -4.9251    0.1932    2.2312 H   0  0  0  0  0  0  0  0  0  0  0  0
   -4.8770   -1.0175    0.9432 H   0  0  0  0  0  0  0  0  0  0  0  0
   -5.0311    0.7012    0.5363 H   0  0  0  0  0  0  0  0  0  0  0  0
   -2.8931    0.5402   -0.9600 H   0  0  0  0  0  0  0  0  0  0  0  0
   -2.9654   -1.1676   -0.5917 H   0  0  0  0  0  0  0  0  0  0  0  0
   -0.7634    1.5333   -1.4082 H   0  0  0  0  0  0  0  0  0  0  0  0
    1.6722    1.3438   -1.5676 H   0  0  0  0  0  0  0  0  0  0  0  0
    3.5825   -1.6900   -0.2450 H   0  0  0  0  0  0  0  0  0  0  0  0
    3.3555   -1.4552   -2.6738 H   0  0  0  0  0  0  0  0  0  0  0  0
    4.8964   -0.7957   -2.0955 H   0  0  0  0  0  0  0  0  0  0  0  0
    3.5917    0.2935   -2.5678 H   0  0  0  0  0  0  0  0  0  0  0  0
    4.6893    2.0014    0.3942 H   0  0  0  0  0  0  0  0  0  0  0  0
    1.5086   -2.4348    0.5174 H   0  0  0  0  0  0  0  0  0  0  0  0
   -0.9291   -2.2372    0.6727 H   0  0  0  0  0  0  0  0  0  0  0  0
  1  2  1  0
  2  3  1  0
  2  4  1  0
  4  5  1  0
  5  6  2  0
  6  7  1  0
  7  8  2  0
  8  9  1  0
  9 10  1  0
  9 11  1  0
 11 12  2  0
 11 13  1  0
  8 14  1  0
 14 15  2  0
 15  5  1  0
  1 16  1  0
  1 17  1  0
  1 18  1  0
  2 19  1  0
  3 20  1  0
  3 21  1  0
  3 22  1  0
  4 23  1  0
  4 24  1  0
  6 25  1  0
  7 26  1  0
  9 27  1  0
 10 28  1  0
 10 29  1  0
 10 30  1  0
 13 31  1  0
 14 32  1  0
 15 33  1  0
M  END
$$$$
