
     RDKit          3D

 37 39  0  0  0  0  0  0  0  0999 V2000
    3.1726    1.4483    5.0257 C   0  0  0  0  0  0  0  0  0  0  0  0
    2.4129    1.3689    3.8253 O   0  0  0  0  0  0  0  0  0  0  0  0
    2.2624    0.1263    3.2687 C   0  0  0  0  0  0  0  0  0  0  0  0
    2.7907   -1.0626    3.7674 C   0  0  0  0  0  0  0  0  0  0  0  0
    2.5728   -2.2825    3.1132 C   0  0  0  0  0  0  0  0  0  0  0  0
    1.8078   -2.2693    1.9419 C   0  0  0  0  0  0  0  0  0  0  0  0
    1.4435   -3.3031    1.1112 N   0  0  0  0  0  0  0  0  0  0  0  0
    0.6861   -2.8313    0.0693 C   0  0  0  0  0  0  0  0  0  0  0  0
    0.5526   -1.4678    0.2230 C   0  0  0  0  0  0  0  0  0  0  0  0
   -0.1579   -0.5791   -0.6443 C   0  0  0  0  0  0  0  0  0  0  0  0
   -0.8624   -0.9296   -1.7340 C   0  0  0  0  0  0  0  0  0  0  0  0
   -1.5739    0.0338   -2.5810 C   0  0  0  0  0  0  0  0  0  0  0  0
   -2.8466   -0.2823   -3.0520 C   0  0  0  0  0  0  0  0  0  0  0  0
   -3.5218    0.6163   -3.8706 C   0  0  0  0  0  0  0  0  0  0  0  0
   -2.9520    1.7909   -4.2208 N   0  0  0  0  0  4  0  0  0  0  0  0
   -3.6826    2.7231   -5.0962 C   0  0  0  0  0  0  0  0  0  0  0  0
   -1.7081    2.1077   -3.7976 C   0  0  0  0  0  0  0  0  0  0  0  0
   -0.9975    1.2404   -2.9757 C   0  0  0  0  0  0  0  0  0  0  0  0
    1.2625   -1.1006    1.4105 C   0  0  0  0  0  0  0  0  0  0  0  0
    1.4991    0.1125    2.0930 C   0  0  0  0  0  0  0  0  0  0  0  0
    2.7029    0.8712    5.8290 H   0  0  0  0  0  0  0  0  0  0  0  0
    4.2067    1.1290    4.8599 H   0  0  0  0  0  0  0  0  0  0  0  0
    3.1943    2.4968    5.3382 H   0  0  0  0  0  0  0  0  0  0  0  0
    3.3857   -1.0824    4.6754 H   0  0  0  0  0  0  0  0  0  0  0  0
    2.9885   -3.2037    3.5099 H   0  0  0  0  0  0  0  0  0  0  0  0
    1.7028   -4.2699    1.2543 H   0  0  0  0  0  0  0  0  0  0  0  0
    0.3195   -3.5182   -0.6808 H   0  0  0  0  0  0  0  0  0  0  0  0
   -0.1173    0.4713   -0.3636 H   0  0  0  0  0  0  0  0  0  0  0  0
   -0.9500   -1.9748   -2.0213 H   0  0  0  0  0  0  0  0  0  0  0  0
   -3.3236   -1.2215   -2.7770 H   0  0  0  0  0  0  0  0  0  0  0  0
   -4.5168    0.4033   -4.2513 H   0  0  0  0  0  0  0  0  0  0  0  0
   -3.3826    3.7470   -4.8585 H   0  0  0  0  0  0  0  0  0  0  0  0
   -3.4265    2.4714   -6.1283 H   0  0  0  0  0  0  0  0  0  0  0  0
   -4.7559    2.6116   -4.9224 H   0  0  0  0  0  0  0  0  0  0  0  0
   -1.2877    3.0543   -4.1256 H   0  0  0  0  0  0  0  0  0  0  0  0
    0.0082    1.5098   -2.6577 H   0  0  0  0  0  0  0  0  0  0  0  0
    1.0919    1.0451    1.7156 H   0  0  0  0  0  0  0  0  0  0  0  0
  1  2  1  0
  2  3  1  0
  3  4  2  0
  4  5  1  0
  5  6  2  0
  6  7  1  0
  7  8  1  0
  8  9  2  0
  9 10  1  0
 10 11  2  3
 11 12  1  0
 12 13  2  0
 13 14  1  0
 14 15  2  0
 15 16  1  0
 15 17  1  0
 17 18  2  0
  9 19  1  0
 19 20  2  0
 20  3  1  0
 19  6  1  0
 18 12  1  0
  1 21  1  0
  1 22  1  0
  1 23  1  0
  4 24  1  0
  5 25  1  0
  7 26  1  0
  8 27  1  0
 10 28  1  0
 11 29  1  0
 13 30  1  0
 14 31  1  0
 16 32  1  0
 16 33  1  0
 16 34  1  0
 17 35  1  0
 18 36  1  0
 20 37  1  0
M  CHG  1  15   1
M  END
$$$$
