
     RDKit          3D

 61 67  0  0  0  0  0  0  0  0999 V2000
    3.0216    0.1536    3.0289 O   0  0  0  0  0  0  0  0  0  0  0  0
    3.0400   -0.1501    1.8384 C   0  0  0  0  0  0  0  0  0  0  0  0
    4.3406   -0.1068    1.1330 C   0  0  0  0  0  0  0  0  0  0  0  0
    4.8147   -1.2376    0.4335 C   0  0  0  0  0  0  0  0  0  0  0  0
    6.0532   -1.1968   -0.2134 C   0  0  0  0  0  0  0  0  0  0  0  0
    6.7825   -0.0294   -0.1251 C   0  0  0  0  0  0  0  0  0  0  0  0
    6.3268    1.0641    0.5764 C   0  0  0  0  0  0  0  0  0  0  0  0
    5.1119    1.0578    1.2258 C   0  0  0  0  0  0  0  0  0  0  0  0
    7.2039    2.1027    0.5428 O   0  0  0  0  0  0  0  0  0  0  0  0
    8.2690    1.5360   -0.2486 C   0  0  0  0  0  0  0  0  0  0  0  0
    8.0020    0.1869   -0.6863 O   0  0  0  0  0  0  0  0  0  0  0  0
    1.8979   -0.5334    1.1336 N   0  0  0  0  0  0  0  0  0  0  0  0
    1.7999   -0.5423   -0.3278 C   0  0  0  0  0  0  0  0  0  0  0  0
    0.4202   -0.0845   -0.7913 C   0  0  0  0  0  0  0  0  0  0  0  0
   -0.6942   -1.0285   -0.2638 C   0  0  0  0  0  0  0  0  0  0  0  0
   -0.3544   -1.5512    1.1597 C   0  0  0  0  0  0  0  0  0  0  0  0
    0.6629   -0.6848    1.8909 C   0  0  0  0  0  0  0  0  0  0  0  0
   -0.6063   -2.1653   -1.1726 O   0  0  0  0  0  0  0  0  0  0  0  0
   -1.6866   -2.9893   -1.2720 C   0  0  0  0  0  0  0  0  0  0  0  0
   -1.4720   -4.2030   -1.9285 C   0  0  0  0  0  0  0  0  0  0  0  0
   -2.5155   -5.1209   -2.0602 C   0  0  0  0  0  0  0  0  0  0  0  0
   -3.7679   -4.8168   -1.5367 C   0  0  0  0  0  0  0  0  0  0  0  0
   -4.7651   -5.7014   -1.6607 F   0  0  0  0  0  0  0  0  0  0  0  0
   -3.9996   -3.6095   -0.8917 C   0  0  0  0  0  0  0  0  0  0  0  0
   -2.9510   -2.6932   -0.7738 C   0  0  0  0  0  0  0  0  0  0  0  0
   -3.1654   -1.3972   -0.1193 C   0  0  0  0  0  0  0  0  0  0  0  0
   -4.1651   -1.2241    0.5734 O   0  0  0  0  0  0  0  0  0  0  0  0
   -2.0873   -0.3422   -0.3482 C   0  0  0  0  0  0  0  0  0  0  0  0
   -2.2886    0.8467    0.5817 C   0  0  0  0  0  0  0  0  0  0  0  0
   -3.0766    1.7207   -0.3348 C   0  0  0  0  0  0  0  0  0  0  0  0
   -3.8016    2.9200    0.1475 C   0  0  0  0  0  0  0  0  0  0  0  0
   -4.5926    3.6420   -0.7570 C   0  0  0  0  0  0  0  0  0  0  0  0
   -5.2872    4.7796   -0.3364 C   0  0  0  0  0  0  0  0  0  0  0  0
   -5.1906    5.1976    0.9885 C   0  0  0  0  0  0  0  0  0  0  0  0
   -6.0428    6.5978    1.5090 Cl  0  0  0  0  0  0  0  0  0  0  0  0
   -4.4050    4.4880    1.8957 C   0  0  0  0  0  0  0  0  0  0  0  0
   -3.7088    3.3487    1.4771 C   0  0  0  0  0  0  0  0  0  0  0  0
   -3.0450    1.3681   -1.5807 N   0  0  0  0  0  0  0  0  0  0  0  0
   -2.2811    0.1848   -1.6716 O   0  0  0  0  0  0  0  0  0  0  0  0
    4.2257   -2.1513    0.4085 H   0  0  0  0  0  0  0  0  0  0  0  0
    6.4353   -2.0540   -0.7564 H   0  0  0  0  0  0  0  0  0  0  0  0
    4.7703    1.9198    1.7883 H   0  0  0  0  0  0  0  0  0  0  0  0
    8.4229    2.1667   -1.1317 H   0  0  0  0  0  0  0  0  0  0  0  0
    9.1882    1.5359    0.3485 H   0  0  0  0  0  0  0  0  0  0  0  0
    2.0027   -1.5644   -0.6663 H   0  0  0  0  0  0  0  0  0  0  0  0
    2.5599    0.1156   -0.7602 H   0  0  0  0  0  0  0  0  0  0  0  0
    0.2715    0.9454   -0.4509 H   0  0  0  0  0  0  0  0  0  0  0  0
    0.4117   -0.0628   -1.8885 H   0  0  0  0  0  0  0  0  0  0  0  0
   -1.2562   -1.6332    1.7771 H   0  0  0  0  0  0  0  0  0  0  0  0
    0.0526   -2.5696    1.0925 H   0  0  0  0  0  0  0  0  0  0  0  0
    0.2649    0.3179    2.0809 H   0  0  0  0  0  0  0  0  0  0  0  0
    0.8895   -1.1282    2.8676 H   0  0  0  0  0  0  0  0  0  0  0  0
   -0.4904   -4.4379   -2.3331 H   0  0  0  0  0  0  0  0  0  0  0  0
   -2.3601   -6.0693   -2.5654 H   0  0  0  0  0  0  0  0  0  0  0  0
   -4.9884   -3.3893   -0.5000 H   0  0  0  0  0  0  0  0  0  0  0  0
   -2.8214    0.6079    1.5048 H   0  0  0  0  0  0  0  0  0  0  0  0
   -1.3665    1.3765    0.8298 H   0  0  0  0  0  0  0  0  0  0  0  0
   -4.6764    3.3227   -1.7945 H   0  0  0  0  0  0  0  0  0  0  0  0
   -5.8991    5.3298   -1.0465 H   0  0  0  0  0  0  0  0  0  0  0  0
   -4.3305    4.8160    2.9297 H   0  0  0  0  0  0  0  0  0  0  0  0
   -3.1028    2.8194    2.2063 H   0  0  0  0  0  0  0  0  0  0  0  0
  1  2  2  0
  2  3  1  0
  3  4  2  0
  4  5  1  0
  5  6  2  0
  6  7  1  0
  7  8  2  0
  7  9  1  0
  9 10  1  0
 10 11  1  0
  2 12  1  0
 12 13  1  0
 13 14  1  0
 14 15  1  0
 15 16  1  0
 16 17  1  0
 15 18  1  0
 18 19  1  0
 19 20  2  0
 20 21  1  0
 21 22  2  0
 22 23  1  0
 22 24  1  0
 24 25  2  0
 25 26  1  0
 26 27  2  0
 26 28  1  0
 28 29  1  0
 29 30  1  0
 30 31  1  0
 31 32  2  0
 32 33  1  0
 33 34  2  0
 34 35  1  0
 34 36  1  0
 36 37  2  0
 30 38  2  0
 38 39  1  0
  8  3  1  0
 17 12  1  0
 25 19  1  0
 39 28  1  0
 11  6  1  0
 28 15  1  0
 37 31  1  0
  4 40  1  0
  5 41  1  0
  8 42  1  0
 10 43  1  0
 10 44  1  0
 13 45  1  0
 13 46  1  0
 14 47  1  0
 14 48  1  0
 16 49  1  0
 16 50  1  0
 17 51  1  0
 17 52  1  0
 20 53  1  0
 21 54  1  0
 24 55  1  0
 29 56  1  0
 29 57  1  0
 32 58  1  0
 33 59  1  0
 36 60  1  0
 37 61  1  0
M  END
$$$$
