
     RDKit          3D

 57 59  0  0  0  0  0  0  0  0999 V2000
    9.8962   -1.7140   -1.1564 C   0  0  0  0  0  0  0  0  0  0  0  0
    9.7071   -0.4478   -1.7798 O   0  0  0  0  0  0  0  0  0  0  0  0
    8.4235    0.0108   -1.8700 C   0  0  0  0  0  0  0  0  0  0  0  0
    7.3001   -0.5790   -1.2913 C   0  0  0  0  0  0  0  0  0  0  0  0
    6.0297   -0.0088   -1.4645 C   0  0  0  0  0  0  0  0  0  0  0  0
    5.8729    1.1500   -2.2245 C   0  0  0  0  0  0  0  0  0  0  0  0
    4.6962    1.7996   -2.4748 O   0  0  0  0  0  0  0  0  0  0  0  0
    3.4667    1.1264   -2.1653 C   0  0  0  0  0  0  0  0  0  0  0  0
    2.9905    1.5286   -0.7697 C   0  0  0  0  0  0  0  0  0  0  0  0
    1.7737    0.3763   -0.0659 S   0  0  0  0  0  0  0  0  0  0  0  0
    0.3687    0.7194   -1.0110 C   0  0  0  0  0  0  0  0  0  0  0  0
    0.2828    1.5687   -2.0052 N   0  0  0  0  0  0  0  0  0  0  0  0
   -0.9962    1.5026   -2.4991 N   0  0  0  0  0  0  0  0  0  0  0  0
   -1.6709    0.6194   -1.7879 C   0  0  0  0  0  0  0  0  0  0  0  0
   -3.0983    0.2533   -2.0168 C   0  0  0  0  0  0  0  0  0  0  0  0
   -4.0640    1.2683   -1.3922 C   0  0  0  0  0  0  0  0  0  0  0  0
   -4.8719    0.6980   -0.3229 N   0  0  0  0  0  0  0  0  0  0  0  0
   -4.4084    0.6115    0.9722 C   0  0  0  0  0  0  0  0  0  0  0  0
   -3.2769    0.9514    1.3018 O   0  0  0  0  0  0  0  0  0  0  0  0
   -5.3329    0.0228    1.9828 C   0  0  0  0  0  0  0  0  0  0  0  0
   -6.7237    0.0221    1.8255 C   0  0  0  0  0  0  0  0  0  0  0  0
   -7.5384   -0.5419    2.8165 C   0  0  0  0  0  0  0  0  0  0  0  0
   -6.9802   -1.0956    3.9733 C   0  0  0  0  0  0  0  0  0  0  0  0
   -7.8901   -1.6054    4.8575 O   0  0  0  0  0  0  0  0  0  0  0  0
   -7.3884   -2.0321    6.1193 C   0  0  0  0  0  0  0  0  0  0  0  0
   -5.5942   -1.0879    4.1345 C   0  0  0  0  0  0  0  0  0  0  0  0
   -4.7774   -0.5250    3.1471 C   0  0  0  0  0  0  0  0  0  0  0  0
   -0.8368    0.0964   -0.8276 N   0  0  0  0  0  0  0  0  0  0  0  0
   -1.1355   -0.9111    0.1583 C   0  0  0  0  0  0  0  0  0  0  0  0
    7.0033    1.7493   -2.7869 C   0  0  0  0  0  0  0  0  0  0  0  0
    8.2683    1.1832   -2.6118 C   0  0  0  0  0  0  0  0  0  0  0  0
    9.3450   -2.4996   -1.6827 H   0  0  0  0  0  0  0  0  0  0  0  0
    9.6193   -1.6781   -0.0959 H   0  0  0  0  0  0  0  0  0  0  0  0
   10.9604   -1.9601   -1.2146 H   0  0  0  0  0  0  0  0  0  0  0  0
    7.3735   -1.4796   -0.6931 H   0  0  0  0  0  0  0  0  0  0  0  0
    5.1880   -0.4933   -0.9790 H   0  0  0  0  0  0  0  0  0  0  0  0
    2.7404    1.4652   -2.9126 H   0  0  0  0  0  0  0  0  0  0  0  0
    3.5539    0.0422   -2.3064 H   0  0  0  0  0  0  0  0  0  0  0  0
    3.8393    1.5550   -0.0775 H   0  0  0  0  0  0  0  0  0  0  0  0
    2.5922    2.5504   -0.7834 H   0  0  0  0  0  0  0  0  0  0  0  0
   -3.3169   -0.7709   -1.6888 H   0  0  0  0  0  0  0  0  0  0  0  0
   -3.2555    0.2539   -3.1052 H   0  0  0  0  0  0  0  0  0  0  0  0
   -4.7787    1.6042   -2.1517 H   0  0  0  0  0  0  0  0  0  0  0  0
   -3.5464    2.1554   -1.0076 H   0  0  0  0  0  0  0  0  0  0  0  0
   -5.7451    0.2612   -0.5770 H   0  0  0  0  0  0  0  0  0  0  0  0
   -7.2012    0.4792    0.9641 H   0  0  0  0  0  0  0  0  0  0  0  0
   -8.6202   -0.5371    2.6945 H   0  0  0  0  0  0  0  0  0  0  0  0
   -6.8441   -1.2249    6.6263 H   0  0  0  0  0  0  0  0  0  0  0  0
   -6.7598   -2.9248    6.0094 H   0  0  0  0  0  0  0  0  0  0  0  0
   -8.2470   -2.2979    6.7469 H   0  0  0  0  0  0  0  0  0  0  0  0
   -5.1162   -1.5070    5.0138 H   0  0  0  0  0  0  0  0  0  0  0  0
   -3.6954   -0.5163    3.2920 H   0  0  0  0  0  0  0  0  0  0  0  0
   -2.1685   -1.2446    0.0730 H   0  0  0  0  0  0  0  0  0  0  0  0
   -0.4760   -1.7669   -0.0075 H   0  0  0  0  0  0  0  0  0  0  0  0
   -0.9710   -0.4922    1.1541 H   0  0  0  0  0  0  0  0  0  0  0  0
    6.8977    2.6602   -3.3726 H   0  0  0  0  0  0  0  0  0  0  0  0
    9.1367    1.6566   -3.0629 H   0  0  0  0  0  0  0  0  0  0  0  0
  1  2  1  0
  2  3  1  0
  3  4  2  0
  4  5  1  0
  5  6  2  0
  6  7  1  0
  7  8  1  0
  8  9  1  0
  9 10  1  0
 10 11  1  0
 11 12  2  0
 12 13  1  0
 13 14  2  0
 14 15  1  0
 15 16  1  0
 16 17  1  0
 17 18  1  0
 18 19  2  0
 18 20  1  0
 20 21  2  0
 21 22  1  0
 22 23  2  0
 23 24  1  0
 24 25  1  0
 23 26  1  0
 26 27  2  0
 14 28  1  0
 28 29  1  0
  6 30  1  0
 30 31  2  0
 31  3  1  0
 28 11  1  0
 27 20  1  0
  1 32  1  0
  1 33  1  0
  1 34  1  0
  4 35  1  0
  5 36  1  0
  8 37  1  0
  8 38  1  0
  9 39  1  0
  9 40  1  0
 15 41  1  0
 15 42  1  0
 16 43  1  0
 16 44  1  0
 17 45  1  0
 21 46  1  0
 22 47  1  0
 25 48  1  0
 25 49  1  0
 25 50  1  0
 26 51  1  0
 27 52  1  0
 29 53  1  0
 29 54  1  0
 29 55  1  0
 30 56  1  0
 31 57  1  0
M  END
$$$$
