
     RDKit          3D

 63 67  0  0  0  0  0  0  0  0999 V2000
   -0.4682   -1.9670    5.9947 C   0  0  0  0  0  0  0  0  0  0  0  0
   -1.6669   -1.9847    5.2197 O   0  0  0  0  0  0  0  0  0  0  0  0
   -1.4694   -1.7611    3.8948 C   0  0  0  0  0  0  0  0  0  0  0  0
   -0.3879   -1.5579    3.3627 O   0  0  0  0  0  0  0  0  0  0  0  0
   -2.7571   -1.8101    3.1512 C   0  0  0  0  0  0  0  0  0  0  0  0
   -3.8385   -2.5266    3.7008 C   0  0  0  0  0  0  0  0  0  0  0  0
   -5.0290   -2.6769    2.9894 C   0  0  0  0  0  0  0  0  0  0  0  0
   -5.1438   -2.1286    1.7180 C   0  0  0  0  0  0  0  0  0  0  0  0
   -4.0809   -1.4053    1.1688 C   0  0  0  0  0  0  0  0  0  0  0  0
   -2.8876   -1.2044    1.8815 C   0  0  0  0  0  0  0  0  0  0  0  0
   -1.8143   -0.4732    1.3007 N   0  0  0  0  0  0  0  0  0  0  0  0
   -1.8595    0.4509    0.2669 C   0  0  0  0  0  0  0  0  0  0  0  0
   -3.0478    1.6496    0.2023 S   0  0  0  0  0  0  0  0  0  0  0  0
   -0.7970    0.3210   -0.6584 N   0  0  0  0  0  0  0  0  0  0  0  0
   -0.7513    1.1015   -1.9122 C   0  0  0  0  0  0  0  0  0  0  0  0
   -1.5735    0.4968   -3.0360 C   0  0  0  0  0  0  0  0  0  0  0  0
   -1.1291   -0.6565   -3.7260 C   0  0  0  0  0  0  0  0  0  0  0  0
   -1.8893   -1.2297   -4.7512 C   0  0  0  0  0  0  0  0  0  0  0  0
   -3.0818   -0.6258   -5.0783 C   0  0  0  0  0  0  0  0  0  0  0  0
   -3.5181    0.5045   -4.4329 C   0  0  0  0  0  0  0  0  0  0  0  0
   -2.7907    1.0885   -3.4181 C   0  0  0  0  0  0  0  0  0  0  0  0
   -4.7120    0.9482   -4.9094 O   0  0  0  0  0  0  0  0  0  0  0  0
   -4.9797   -0.0374   -5.9262 C   0  0  0  0  0  0  0  0  0  0  0  0
   -3.9479   -1.0422   -6.0391 O   0  0  0  0  0  0  0  0  0  0  0  0
    0.3063   -0.6354   -0.4516 C   0  0  0  0  0  0  0  0  0  0  0  0
    1.5927    0.0788   -0.1373 C   0  0  0  0  0  0  0  0  0  0  0  0
    2.6556    0.0762   -0.9641 C   0  0  0  0  0  0  0  0  0  0  0  0
    3.8985    0.7564   -0.5997 C   0  0  0  0  0  0  0  0  0  0  0  0
    5.0069    0.7620   -1.4457 C   0  0  0  0  0  0  0  0  0  0  0  0
    6.1785    1.4127   -1.0501 C   0  0  0  0  0  0  0  0  0  0  0  0
    6.2575    2.0627    0.1861 C   0  0  0  0  0  0  0  0  0  0  0  0
    7.4667    2.6433    0.4467 O   0  0  0  0  0  0  0  0  0  0  0  0
    7.6111    3.2959    1.7020 C   0  0  0  0  0  0  0  0  0  0  0  0
    5.1474    2.0659    1.0310 C   0  0  0  0  0  0  0  0  0  0  0  0
    3.9785    1.4113    0.6338 C   0  0  0  0  0  0  0  0  0  0  0  0
    2.8658    1.3981    1.4810 N   0  0  0  0  0  0  0  0  0  0  0  0
    1.6855    0.7706    1.1842 C   0  0  0  0  0  0  0  0  0  0  0  0
    0.7525    0.7857    1.9798 O   0  0  0  0  0  0  0  0  0  0  0  0
    0.3020   -2.6058    5.5499 H   0  0  0  0  0  0  0  0  0  0  0  0
   -0.1063   -0.9378    6.0973 H   0  0  0  0  0  0  0  0  0  0  0  0
   -0.7048   -2.3587    6.9887 H   0  0  0  0  0  0  0  0  0  0  0  0
   -3.7574   -2.9920    4.6817 H   0  0  0  0  0  0  0  0  0  0  0  0
   -5.8568   -3.2338    3.4191 H   0  0  0  0  0  0  0  0  0  0  0  0
   -6.0583   -2.2638    1.1444 H   0  0  0  0  0  0  0  0  0  0  0  0
   -4.2000   -1.0232    0.1574 H   0  0  0  0  0  0  0  0  0  0  0  0
   -0.9465   -0.4363    1.8493 H   0  0  0  0  0  0  0  0  0  0  0  0
   -1.0751    2.1296   -1.7205 H   0  0  0  0  0  0  0  0  0  0  0  0
    0.2852    1.1925   -2.2530 H   0  0  0  0  0  0  0  0  0  0  0  0
   -0.1796   -1.1190   -3.4706 H   0  0  0  0  0  0  0  0  0  0  0  0
   -1.5529   -2.1185   -5.2721 H   0  0  0  0  0  0  0  0  0  0  0  0
   -3.1686    1.9822   -2.9312 H   0  0  0  0  0  0  0  0  0  0  0  0
   -5.0763    0.4751   -6.8913 H   0  0  0  0  0  0  0  0  0  0  0  0
   -5.9300   -0.5330   -5.6936 H   0  0  0  0  0  0  0  0  0  0  0  0
    0.4058   -1.2352   -1.3609 H   0  0  0  0  0  0  0  0  0  0  0  0
    0.0965   -1.3624    0.3366 H   0  0  0  0  0  0  0  0  0  0  0  0
    2.6222   -0.4312   -1.9220 H   0  0  0  0  0  0  0  0  0  0  0  0
    4.9774    0.2623   -2.4097 H   0  0  0  0  0  0  0  0  0  0  0  0
    7.0431    1.4110   -1.7102 H   0  0  0  0  0  0  0  0  0  0  0  0
    6.9369    4.1571    1.7789 H   0  0  0  0  0  0  0  0  0  0  0  0
    8.6367    3.6691    1.7656 H   0  0  0  0  0  0  0  0  0  0  0  0
    7.4578    2.5985    2.5310 H   0  0  0  0  0  0  0  0  0  0  0  0
    5.1710    2.5609    1.9941 H   0  0  0  0  0  0  0  0  0  0  0  0
    2.8961    1.8546    2.3815 H   0  0  0  0  0  0  0  0  0  0  0  0
  1  2  1  0
  2  3  1  0
  3  4  2  0
  3  5  1  0
  5  6  2  0
  6  7  1  0
  7  8  2  0
  8  9  1  0
  9 10  2  0
 10 11  1  0
 11 12  1  0
 12 13  2  0
 12 14  1  0
 14 15  1  0
 15 16  1  0
 16 17  2  0
 17 18  1  0
 18 19  2  0
 19 20  1  0
 20 21  2  0
 20 22  1  0
 22 23  1  0
 23 24  1  0
 14 25  1  0
 25 26  1  0
 26 27  2  0
 27 28  1  0
 28 29  2  0
 29 30  1  0
 30 31  2  0
 31 32  1  0
 32 33  1  0
 31 34  1  0
 34 35  2  0
 35 36  1  0
 36 37  1  0
 37 38  2  0
 10  5  1  0
 21 16  1  0
 37 26  1  0
 24 19  1  0
 35 28  1  0
  1 39  1  0
  1 40  1  0
  1 41  1  0
  6 42  1  0
  7 43  1  0
  8 44  1  0
  9 45  1  0
 11 46  1  0
 15 47  1  0
 15 48  1  0
 17 49  1  0
 18 50  1  0
 21 51  1  0
 23 52  1  0
 23 53  1  0
 25 54  1  0
 25 55  1  0
 27 56  1  0
 29 57  1  0
 30 58  1  0
 33 59  1  0
 33 60  1  0
 33 61  1  0
 34 62  1  0
 36 63  1  0
M  END
$$$$
