
     RDKit          3D

 36 35  0  0  0  0  0  0  0  0999 V2000
    3.3085   -3.4245   -1.7162 C   0  0  0  0  0  0  0  0  0  0  0  0
    2.1594   -2.4803   -2.0327 C   0  0  0  0  0  0  0  0  0  0  0  0
    2.1537   -1.2617   -1.2028 N   0  0  0  0  0  0  0  0  0  0  0  0
    3.1204   -0.2213   -1.6011 C   0  0  0  0  0  0  0  0  0  0  0  0
    4.3666   -0.2025   -0.7253 C   0  0  0  0  0  0  0  0  0  0  0  0
    1.3567   -1.1741   -0.0430 C   0  0  0  0  0  0  0  0  0  0  0  0
    0.6129   -2.4767    0.7319 S   0  0  0  0  0  0  0  0  0  0  0  0
    1.1437    0.4298    0.6867 S   0  0  0  0  0  0  0  0  0  0  0  0
   -0.1211    1.3559   -0.6639 S   0  0  0  0  0  0  0  0  0  0  0  0
   -1.6835    0.6033   -0.2863 C   0  0  0  0  0  0  0  0  0  0  0  0
   -2.3078   -0.4829   -1.4181 S   0  0  0  0  0  0  0  0  0  0  0  0
   -2.3148    0.9805    0.9168 N   0  0  0  0  0  0  0  0  0  0  0  0
   -3.4565    0.2153    1.4503 C   0  0  0  0  0  0  0  0  0  0  0  0
   -4.8081    0.8057    1.0809 C   0  0  0  0  0  0  0  0  0  0  0  0
   -1.9798    2.2129    1.6547 C   0  0  0  0  0  0  0  0  0  0  0  0
   -2.4938    3.4729    0.9700 C   0  0  0  0  0  0  0  0  0  0  0  0
    3.2005   -4.3526   -2.2863 H   0  0  0  0  0  0  0  0  0  0  0  0
    4.2699   -2.9807   -1.9901 H   0  0  0  0  0  0  0  0  0  0  0  0
    3.3443   -3.6771   -0.6525 H   0  0  0  0  0  0  0  0  0  0  0  0
    2.2041   -2.1761   -3.0852 H   0  0  0  0  0  0  0  0  0  0  0  0
    1.2099   -3.0131   -1.9231 H   0  0  0  0  0  0  0  0  0  0  0  0
    2.6456    0.7619   -1.5783 H   0  0  0  0  0  0  0  0  0  0  0  0
    3.4124   -0.3877   -2.6443 H   0  0  0  0  0  0  0  0  0  0  0  0
    4.1250   -0.0110    0.3240 H   0  0  0  0  0  0  0  0  0  0  0  0
    5.0500    0.5833   -1.0626 H   0  0  0  0  0  0  0  0  0  0  0  0
    4.9021   -1.1546   -0.7689 H   0  0  0  0  0  0  0  0  0  0  0  0
   -3.4063   -0.8222    1.1060 H   0  0  0  0  0  0  0  0  0  0  0  0
   -3.3549    0.1666    2.5409 H   0  0  0  0  0  0  0  0  0  0  0  0
   -4.9061    0.9499    0.0009 H   0  0  0  0  0  0  0  0  0  0  0  0
   -4.9608    1.7741    1.5657 H   0  0  0  0  0  0  0  0  0  0  0  0
   -5.6122    0.1413    1.4131 H   0  0  0  0  0  0  0  0  0  0  0  0
   -2.4034    2.1497    2.6636 H   0  0  0  0  0  0  0  0  0  0  0  0
   -0.8988    2.2884    1.7901 H   0  0  0  0  0  0  0  0  0  0  0  0
   -3.5822    3.4593    0.8692 H   0  0  0  0  0  0  0  0  0  0  0  0
   -2.2214    4.3560    1.5566 H   0  0  0  0  0  0  0  0  0  0  0  0
   -2.0741    3.5923   -0.0329 H   0  0  0  0  0  0  0  0  0  0  0  0
  1  2  1  0
  2  3  1  0
  3  4  1  0
  4  5  1  0
  3  6  1  0
  6  7  2  0
  6  8  1  0
  8  9  1  0
  9 10  1  0
 10 11  2  0
 10 12  1  0
 12 13  1  0
 13 14  1  0
 12 15  1  0
 15 16  1  0
  1 17  1  0
  1 18  1  0
  1 19  1  0
  2 20  1  0
  2 21  1  0
  4 22  1  0
  4 23  1  0
  5 24  1  0
  5 25  1  0
  5 26  1  0
 13 27  1  0
 13 28  1  0
 14 29  1  0
 14 30  1  0
 14 31  1  0
 15 32  1  0
 15 33  1  0
 16 34  1  0
 16 35  1  0
 16 36  1  0
M  END
$$$$
