
     RDKit          3D

 56 60  0  0  0  0  0  0  0  0999 V2000
   -1.3438    3.4478   -0.7389 C   0  0  0  0  0  0  0  0  0  0  0  0
   -2.5770    2.7990   -1.3035 C   0  0  0  0  0  0  0  0  0  0  0  0
   -3.3662    3.5305   -2.2009 C   0  0  0  0  0  0  0  0  0  0  0  0
   -4.5358    2.9865   -2.7271 C   0  0  0  0  0  0  0  0  0  0  0  0
   -4.9494    1.7124   -2.3438 C   0  0  0  0  0  0  0  0  0  0  0  0
   -4.2015    0.9627   -1.4249 C   0  0  0  0  0  0  0  0  0  0  0  0
   -4.7014   -0.4011   -1.0370 C   0  0  0  0  0  0  0  0  0  0  0  0
   -2.9951    1.5023   -0.9237 C   0  0  0  0  0  0  0  0  0  0  0  0
   -2.1891    0.7351   -0.0325 N   0  0  0  0  0  0  0  0  0  0  0  0
   -1.2848   -0.2189   -0.4895 C   0  0  0  0  0  0  0  0  0  0  0  0
   -1.1602   -0.5382   -2.2111 S   0  0  0  0  0  0  0  0  0  0  0  0
    0.5796   -0.0779   -2.4535 C   0  0  0  0  0  0  0  0  0  0  0  0
    1.5252   -1.1946   -1.9980 C   0  0  0  0  0  0  0  0  0  0  0  0
    1.4318   -2.3016   -2.5352 O   0  0  0  0  0  0  0  0  0  0  0  0
    2.4891   -0.8786   -1.0261 N   0  0  0  0  0  0  0  0  0  0  0  0
    2.8285    0.5180   -0.7427 C   0  0  0  0  0  0  0  0  0  0  0  0
    4.1518    0.8249   -0.0689 C   0  0  0  0  0  0  0  0  0  0  0  0
    4.5833    1.9728    0.0181 O   0  0  0  0  0  0  0  0  0  0  0  0
    4.8140   -0.2156    0.5010 N   0  0  0  0  0  0  0  0  0  0  0  0
    4.3664   -1.5325    0.4370 C   0  0  0  0  0  0  0  0  0  0  0  0
    5.1145   -2.4953    1.1260 C   0  0  0  0  0  0  0  0  0  0  0  0
    4.7115   -3.8259    1.1184 C   0  0  0  0  0  0  0  0  0  0  0  0
    3.5571   -4.1897    0.4345 C   0  0  0  0  0  0  0  0  0  0  0  0
    2.8197   -3.2274   -0.2656 C   0  0  0  0  0  0  0  0  0  0  0  0
    3.2186   -1.8834   -0.2999 C   0  0  0  0  0  0  0  0  0  0  0  0
   -0.4888   -0.8898    0.2770 N   0  0  0  0  0  0  0  0  0  0  0  0
   -0.5355   -0.6585    1.6518 C   0  0  0  0  0  0  0  0  0  0  0  0
    0.3136   -1.3930    2.4848 C   0  0  0  0  0  0  0  0  0  0  0  0
    0.3055   -1.1893    3.8659 C   0  0  0  0  0  0  0  0  0  0  0  0
   -0.5507   -0.2427    4.4267 C   0  0  0  0  0  0  0  0  0  0  0  0
   -1.4008    0.4987    3.6045 C   0  0  0  0  0  0  0  0  0  0  0  0
   -1.3889    0.2819    2.2220 C   0  0  0  0  0  0  0  0  0  0  0  0
   -2.2737    1.0469    1.3249 C   0  0  0  0  0  0  0  0  0  0  0  0
   -3.0092    1.9017    1.8145 O   0  0  0  0  0  0  0  0  0  0  0  0
   -0.9839    4.2563   -1.3876 H   0  0  0  0  0  0  0  0  0  0  0  0
   -1.5629    3.8704    0.2461 H   0  0  0  0  0  0  0  0  0  0  0  0
   -0.5193    2.7333   -0.6472 H   0  0  0  0  0  0  0  0  0  0  0  0
   -3.0738    4.5359   -2.4989 H   0  0  0  0  0  0  0  0  0  0  0  0
   -5.1339    3.5597   -3.4293 H   0  0  0  0  0  0  0  0  0  0  0  0
   -5.8701    1.3099   -2.7608 H   0  0  0  0  0  0  0  0  0  0  0  0
   -4.2097   -1.1703   -1.6348 H   0  0  0  0  0  0  0  0  0  0  0  0
   -4.5283   -0.6019    0.0220 H   0  0  0  0  0  0  0  0  0  0  0  0
   -5.7843   -0.4823   -1.1981 H   0  0  0  0  0  0  0  0  0  0  0  0
    0.7405    0.8799   -1.9610 H   0  0  0  0  0  0  0  0  0  0  0  0
    0.7566    0.0793   -3.5226 H   0  0  0  0  0  0  0  0  0  0  0  0
    2.8428    1.0647   -1.6942 H   0  0  0  0  0  0  0  0  0  0  0  0
    2.0353    0.9298   -0.1096 H   0  0  0  0  0  0  0  0  0  0  0  0
    5.6753    0.0126    0.9829 H   0  0  0  0  0  0  0  0  0  0  0  0
    6.0129   -2.2200    1.6752 H   0  0  0  0  0  0  0  0  0  0  0  0
    5.2898   -4.5754    1.6530 H   0  0  0  0  0  0  0  0  0  0  0  0
    3.2236   -5.2219    0.4379 H   0  0  0  0  0  0  0  0  0  0  0  0
    1.9122   -3.5665   -0.7602 H   0  0  0  0  0  0  0  0  0  0  0  0
    0.9816   -2.1352    2.0547 H   0  0  0  0  0  0  0  0  0  0  0  0
    0.9669   -1.7753    4.5043 H   0  0  0  0  0  0  0  0  0  0  0  0
   -0.5591   -0.0867    5.5030 H   0  0  0  0  0  0  0  0  0  0  0  0
   -2.0707    1.2368    4.0412 H   0  0  0  0  0  0  0  0  0  0  0  0
  1  2  1  0
  2  3  2  0
  3  4  1  0
  4  5  2  0
  5  6  1  0
  6  7  1  0
  6  8  2  0
  8  9  1  0
  9 10  1  0
 10 11  1  0
 11 12  1  0
 12 13  1  0
 13 14  2  0
 13 15  1  0
 15 16  1  0
 16 17  1  0
 17 18  2  0
 17 19  1  0
 19 20  1  0
 20 21  2  0
 21 22  1  0
 22 23  2  0
 23 24  1  0
 24 25  2  0
 10 26  2  0
 26 27  1  0
 27 28  2  0
 28 29  1  0
 29 30  2  0
 30 31  1  0
 31 32  2  0
 32 33  1  0
 33 34  2  0
  8  2  1  0
 33  9  1  0
 25 15  1  0
 32 27  1  0
 25 20  1  0
  1 35  1  0
  1 36  1  0
  1 37  1  0
  3 38  1  0
  4 39  1  0
  5 40  1  0
  7 41  1  0
  7 42  1  0
  7 43  1  0
 12 44  1  0
 12 45  1  0
 16 46  1  0
 16 47  1  0
 19 48  1  0
 21 49  1  0
 22 50  1  0
 23 51  1  0
 24 52  1  0
 28 53  1  0
 29 54  1  0
 30 55  1  0
 31 56  1  0
M  END
$$$$
