
     RDKit          3D

 68 69  0  0  0  0  0  0  0  0999 V2000
   -0.8005    0.9891    4.0960 C   0  0  0  0  0  0  0  0  0  0  0  0
    0.2037    0.8334    3.1062 O   0  0  0  0  0  0  0  0  0  0  0  0
    0.7121   -0.4961    3.0312 C   0  0  0  0  0  0  0  0  0  0  0  0
   -0.0564   -1.3736    2.0234 C   0  0  0  0  0  0  0  0  0  0  0  0
    0.2549   -1.0704    0.6096 N   0  0  0  0  0  0  0  0  0  0  0  0
    1.3501   -1.6085   -0.0596 C   0  0  0  0  0  0  0  0  0  0  0  0
    1.5194   -1.4484   -1.2711 O   0  0  0  0  0  0  0  0  0  0  0  0
    2.3305   -2.4609    0.7319 C   0  0  0  0  0  0  0  0  0  0  0  0
    3.6578   -2.6227   -0.0002 C   0  0  0  0  0  0  0  0  0  0  0  0
    4.3943   -1.2985   -0.0083 C   0  0  0  0  0  0  0  0  0  0  0  0
    4.9190   -0.8724    1.0175 O   0  0  0  0  0  0  0  0  0  0  0  0
    4.3622   -0.6640   -1.2275 N   0  0  0  0  0  0  0  0  0  0  0  0
    4.9237    0.5629   -1.5001 C   0  0  0  0  0  0  0  0  0  0  0  0
    5.6464    1.4303   -0.6489 C   0  0  0  0  0  0  0  0  0  0  0  0
    5.9672    2.5042   -1.4423 C   0  0  0  0  0  0  0  0  0  0  0  0
    6.7020    3.7628   -1.2246 C   0  0  0  0  0  0  0  0  0  0  0  0
    5.4790    2.2934   -2.6934 O   0  0  0  0  0  0  0  0  0  0  0  0
    4.8138    1.0827   -2.7294 N   0  0  0  0  0  0  0  0  0  0  0  0
   -0.8167   -0.5232   -0.2529 C   0  0  0  0  0  0  0  0  0  0  0  0
   -1.7359   -1.6883   -0.7355 C   0  0  0  0  0  0  0  0  0  0  0  0
   -1.8615   -2.7420   -0.1111 O   0  0  0  0  0  0  0  0  0  0  0  0
   -2.4327   -1.4112   -1.9012 N   0  0  0  0  0  0  0  0  0  0  0  0
   -3.4119   -2.3064   -2.5351 C   0  0  0  0  0  0  0  0  0  0  0  0
   -2.7664   -3.6434   -2.9332 C   0  0  0  0  0  0  0  0  0  0  0  0
   -3.9297   -1.6220   -3.8149 C   0  0  0  0  0  0  0  0  0  0  0  0
   -4.6062   -2.5564   -1.5980 C   0  0  0  0  0  0  0  0  0  0  0  0
   -1.5913    0.6434    0.3486 C   0  0  0  0  0  0  0  0  0  0  0  0
   -0.9973    1.9165    0.3764 C   0  0  0  0  0  0  0  0  0  0  0  0
   -1.6687    3.0152    0.9268 C   0  0  0  0  0  0  0  0  0  0  0  0
   -2.9450    2.8618    1.4636 C   0  0  0  0  0  0  0  0  0  0  0  0
   -3.6985    3.8399    2.0503 O   0  0  0  0  0  0  0  0  0  0  0  0
   -3.0994    5.1290    2.1628 C   0  0  0  0  0  0  0  0  0  0  0  0
   -3.5444    1.6030    1.4345 C   0  0  0  0  0  0  0  0  0  0  0  0
   -2.8760    0.5033    0.8903 C   0  0  0  0  0  0  0  0  0  0  0  0
   -1.6245    0.2927    3.9416 H   0  0  0  0  0  0  0  0  0  0  0  0
   -1.1895    2.0095    4.0425 H   0  0  0  0  0  0  0  0  0  0  0  0
   -0.3697    0.8401    5.0900 H   0  0  0  0  0  0  0  0  0  0  0  0
    0.6973   -0.9609    4.0229 H   0  0  0  0  0  0  0  0  0  0  0  0
    1.7582   -0.4021    2.7370 H   0  0  0  0  0  0  0  0  0  0  0  0
   -1.1324   -1.2811    2.1867 H   0  0  0  0  0  0  0  0  0  0  0  0
    0.1942   -2.4238    2.2040 H   0  0  0  0  0  0  0  0  0  0  0  0
    2.5208   -2.0376    1.7167 H   0  0  0  0  0  0  0  0  0  0  0  0
    1.8721   -3.4464    0.8638 H   0  0  0  0  0  0  0  0  0  0  0  0
    4.2937   -3.3476    0.5210 H   0  0  0  0  0  0  0  0  0  0  0  0
    3.5201   -3.0039   -1.0185 H   0  0  0  0  0  0  0  0  0  0  0  0
    3.8163   -1.0502   -1.9919 H   0  0  0  0  0  0  0  0  0  0  0  0
    5.8946    1.2984    0.3942 H   0  0  0  0  0  0  0  0  0  0  0  0
    7.7022    3.7024   -1.6667 H   0  0  0  0  0  0  0  0  0  0  0  0
    6.1739    4.6030   -1.6856 H   0  0  0  0  0  0  0  0  0  0  0  0
    6.8131    3.9752   -0.1545 H   0  0  0  0  0  0  0  0  0  0  0  0
   -0.3502   -0.1298   -1.1675 H   0  0  0  0  0  0  0  0  0  0  0  0
   -2.2941   -0.5001   -2.3190 H   0  0  0  0  0  0  0  0  0  0  0  0
   -3.4691   -4.2693   -3.4961 H   0  0  0  0  0  0  0  0  0  0  0  0
   -2.4499   -4.2201   -2.0593 H   0  0  0  0  0  0  0  0  0  0  0  0
   -1.8817   -3.4820   -3.5589 H   0  0  0  0  0  0  0  0  0  0  0  0
   -3.1116   -1.4224   -4.5165 H   0  0  0  0  0  0  0  0  0  0  0  0
   -4.4039   -0.6613   -3.5829 H   0  0  0  0  0  0  0  0  0  0  0  0
   -4.6685   -2.2469   -4.3311 H   0  0  0  0  0  0  0  0  0  0  0  0
   -5.0527   -1.6086   -1.2717 H   0  0  0  0  0  0  0  0  0  0  0  0
   -5.3864   -3.1449   -2.0976 H   0  0  0  0  0  0  0  0  0  0  0  0
   -4.3148   -3.1056   -0.6958 H   0  0  0  0  0  0  0  0  0  0  0  0
    0.0135    2.0527   -0.0060 H   0  0  0  0  0  0  0  0  0  0  0  0
   -1.1549    3.9699    0.9377 H   0  0  0  0  0  0  0  0  0  0  0  0
   -2.8829    5.5510    1.1703 H   0  0  0  0  0  0  0  0  0  0  0  0
   -3.8187    5.7861    2.6564 H   0  0  0  0  0  0  0  0  0  0  0  0
   -2.1951    5.0950    2.7860 H   0  0  0  0  0  0  0  0  0  0  0  0
   -4.5393    1.4679    1.8531 H   0  0  0  0  0  0  0  0  0  0  0  0
   -3.3777   -0.4621    0.9136 H   0  0  0  0  0  0  0  0  0  0  0  0
  1  2  1  0
  2  3  1  0
  3  4  1  0
  4  5  1  0
  5  6  1  0
  6  7  2  0
  6  8  1  0
  8  9  1  0
  9 10  1  0
 10 11  2  0
 10 12  1  0
 12 13  1  0
 13 14  1  0
 14 15  2  0
 15 16  1  0
 15 17  1  0
 17 18  1  0
  5 19  1  0
 19 20  1  0
 20 21  2  0
 20 22  1  0
 22 23  1  0
 23 24  1  0
 23 25  1  0
 23 26  1  0
 19 27  1  0
 27 28  2  0
 28 29  1  0
 29 30  2  0
 30 31  1  0
 31 32  1  0
 30 33  1  0
 33 34  2  0
 18 13  2  0
 34 27  1  0
  1 35  1  0
  1 36  1  0
  1 37  1  0
  3 38  1  0
  3 39  1  0
  4 40  1  0
  4 41  1  0
  8 42  1  0
  8 43  1  0
  9 44  1  0
  9 45  1  0
 12 46  1  0
 14 47  1  0
 16 48  1  0
 16 49  1  0
 16 50  1  0
 19 51  1  0
 22 52  1  0
 24 53  1  0
 24 54  1  0
 24 55  1  0
 25 56  1  0
 25 57  1  0
 25 58  1  0
 26 59  1  0
 26 60  1  0
 26 61  1  0
 28 62  1  0
 29 63  1  0
 32 64  1  0
 32 65  1  0
 32 66  1  0
 33 67  1  0
 34 68  1  0
M  END
$$$$
