
     RDKit          3D

 47 50  0  0  0  0  0  0  0  0999 V2000
   -5.5846   -1.6950    2.4952 C   0  0  0  0  0  0  0  0  0  0  0  0
   -5.7840   -0.1960    2.3195 C   0  0  0  0  0  0  0  0  0  0  0  0
   -4.5267    0.5009    1.8031 C   0  0  0  0  0  0  0  0  0  0  0  0
   -4.2261   -0.0001    0.5028 O   0  0  0  0  0  0  0  0  0  0  0  0
   -3.0362    0.3815   -0.0650 C   0  0  0  0  0  0  0  0  0  0  0  0
   -2.2432    1.4337    0.4016 C   0  0  0  0  0  0  0  0  0  0  0  0
   -1.0498    1.7613   -0.2475 C   0  0  0  0  0  0  0  0  0  0  0  0
   -0.6323    1.0366   -1.3655 C   0  0  0  0  0  0  0  0  0  0  0  0
    0.5975    1.3844   -2.0843 C   0  0  0  0  0  0  0  0  0  0  0  0
    1.8492    1.3187   -1.6052 C   0  0  0  0  0  0  0  0  0  0  0  0
    3.2340    1.7664   -2.6064 S   0  0  0  0  0  0  0  0  0  0  0  0
    4.2882    1.3867   -1.3115 C   0  0  0  0  0  0  0  0  0  0  0  0
    5.5764    1.4184   -1.1296 N   0  0  0  0  0  0  0  0  0  0  0  0
    5.6783    0.9674    0.1800 C   0  0  0  0  0  0  0  0  0  0  0  0
    7.0585    0.8180    0.8994 C   0  0  0  0  0  0  0  0  0  0  0  0
    8.2881    1.1052    0.3377 C   0  0  0  0  0  0  0  0  0  0  0  0
    9.2629    0.8312    1.3277 C   0  0  0  0  0  0  0  0  0  0  0  0
    8.5706    0.3942    2.4318 C   0  0  0  0  0  0  0  0  0  0  0  0
    7.2362    0.3825    2.1834 O   0  0  0  0  0  0  0  0  0  0  0  0
    4.5065    0.6724    0.7786 N   0  0  0  0  0  0  0  0  0  0  0  0
    3.6432    0.9535   -0.2112 N   0  0  0  0  0  0  0  0  0  0  0  0
    2.2667    0.8646   -0.2357 C   0  0  0  0  0  0  0  0  0  0  0  0
    1.6044    0.4868    0.7113 O   0  0  0  0  0  0  0  0  0  0  0  0
   -1.4330   -0.0077   -1.8469 C   0  0  0  0  0  0  0  0  0  0  0  0
   -2.6307   -0.3432   -1.2030 C   0  0  0  0  0  0  0  0  0  0  0  0
   -3.4736   -1.3498   -1.6053 O   0  0  0  0  0  0  0  0  0  0  0  0
   -3.0468   -2.1942   -2.6693 C   0  0  0  0  0  0  0  0  0  0  0  0
   -4.0993   -3.2714   -2.8617 C   0  0  0  0  0  0  0  0  0  0  0  0
   -5.3534   -2.1810    1.5421 H   0  0  0  0  0  0  0  0  0  0  0  0
   -4.7677   -1.9017    3.1940 H   0  0  0  0  0  0  0  0  0  0  0  0
   -6.4959   -2.1525    2.8935 H   0  0  0  0  0  0  0  0  0  0  0  0
   -6.0749    0.2448    3.2794 H   0  0  0  0  0  0  0  0  0  0  0  0
   -6.6082   -0.0359    1.6145 H   0  0  0  0  0  0  0  0  0  0  0  0
   -3.6952    0.3126    2.4934 H   0  0  0  0  0  0  0  0  0  0  0  0
   -4.7238    1.5777    1.7460 H   0  0  0  0  0  0  0  0  0  0  0  0
   -2.5286    2.0236    1.2660 H   0  0  0  0  0  0  0  0  0  0  0  0
   -0.4537    2.5854    0.1376 H   0  0  0  0  0  0  0  0  0  0  0  0
    0.4255    1.7062   -3.1108 H   0  0  0  0  0  0  0  0  0  0  0  0
    8.4516    1.4686   -0.6677 H   0  0  0  0  0  0  0  0  0  0  0  0
   10.3355    0.9380    1.2473 H   0  0  0  0  0  0  0  0  0  0  0  0
    8.8628    0.0691    3.4209 H   0  0  0  0  0  0  0  0  0  0  0  0
   -1.1054   -0.5491   -2.7281 H   0  0  0  0  0  0  0  0  0  0  0  0
   -2.0906   -2.6696   -2.4219 H   0  0  0  0  0  0  0  0  0  0  0  0
   -2.9529   -1.6171   -3.5962 H   0  0  0  0  0  0  0  0  0  0  0  0
   -4.2283   -3.8528   -1.9426 H   0  0  0  0  0  0  0  0  0  0  0  0
   -3.8197   -3.9498   -3.6726 H   0  0  0  0  0  0  0  0  0  0  0  0
   -5.0712   -2.8236   -3.0944 H   0  0  0  0  0  0  0  0  0  0  0  0
  1  2  1  0
  2  3  1  0
  3  4  1  0
  4  5  1  0
  5  6  2  0
  6  7  1  0
  7  8  2  0
  8  9  1  0
  9 10  2  3
 10 11  1  0
 11 12  1  0
 12 13  2  0
 13 14  1  0
 14 15  1  0
 15 16  2  0
 16 17  1  0
 17 18  2  0
 18 19  1  0
 14 20  2  0
 20 21  1  0
 21 22  1  0
 22 23  2  0
  8 24  1  0
 24 25  2  0
 25 26  1  0
 26 27  1  0
 27 28  1  0
 25  5  1  0
 22 10  1  0
 21 12  1  0
 19 15  1  0
  1 29  1  0
  1 30  1  0
  1 31  1  0
  2 32  1  0
  2 33  1  0
  3 34  1  0
  3 35  1  0
  6 36  1  0
  7 37  1  0
  9 38  1  0
 16 39  1  0
 17 40  1  0
 18 41  1  0
 24 42  1  0
 27 43  1  0
 27 44  1  0
 28 45  1  0
 28 46  1  0
 28 47  1  0
M  END
$$$$
