
     RDKit          3D

 32 33  0  0  0  0  0  0  0  0999 V2000
    4.3592    0.0818   -1.5266 C   0  0  0  0  0  0  0  0  0  0  0  0
    4.3099   -0.9048   -0.3725 C   0  0  0  0  0  0  0  0  0  0  0  0
    3.0954   -0.4101    0.8857 S   0  0  0  0  0  0  0  0  0  0  0  0
    1.5764   -0.7383    0.1137 C   0  0  0  0  0  0  0  0  0  0  0  0
    1.2001   -1.6829   -0.8108 C   0  0  0  0  0  0  0  0  0  0  0  0
   -0.1289   -1.5702   -1.1136 N   0  0  0  0  0  0  0  0  0  0  0  0
   -0.5852   -0.5625   -0.3923 C   0  0  0  0  0  0  0  0  0  0  0  0
   -1.9729   -0.1052   -0.3998 C   0  0  0  0  0  0  0  0  0  0  0  0
   -2.9758   -0.9201    0.1383 C   0  0  0  0  0  0  0  0  0  0  0  0
   -4.3056   -0.4948    0.1402 C   0  0  0  0  0  0  0  0  0  0  0  0
   -4.6422    0.7430   -0.4063 C   0  0  0  0  0  0  0  0  0  0  0  0
   -3.6524    1.5526   -0.9626 C   0  0  0  0  0  0  0  0  0  0  0  0
   -2.3221    1.1280   -0.9644 C   0  0  0  0  0  0  0  0  0  0  0  0
    0.4254   -0.0386    0.4001 N   0  0  0  0  0  0  0  0  0  0  0  0
    0.2655    1.0234    1.3792 C   0  0  0  0  0  0  0  0  0  0  0  0
   -0.1109    0.4944    2.7531 C   0  0  0  0  0  0  0  0  0  0  0  0
    5.1334   -0.2208   -2.2396 H   0  0  0  0  0  0  0  0  0  0  0  0
    3.4106    0.1234   -2.0711 H   0  0  0  0  0  0  0  0  0  0  0  0
    4.6060    1.0913   -1.1806 H   0  0  0  0  0  0  0  0  0  0  0  0
    5.2908   -0.9354    0.1132 H   0  0  0  0  0  0  0  0  0  0  0  0
    4.1002   -1.9165   -0.7323 H   0  0  0  0  0  0  0  0  0  0  0  0
    1.8079   -2.4481   -1.2738 H   0  0  0  0  0  0  0  0  0  0  0  0
   -2.7207   -1.8936    0.5519 H   0  0  0  0  0  0  0  0  0  0  0  0
   -5.0783   -1.1338    0.5596 H   0  0  0  0  0  0  0  0  0  0  0  0
   -5.6787    1.0707   -0.4106 H   0  0  0  0  0  0  0  0  0  0  0  0
   -3.9179    2.5096   -1.4043 H   0  0  0  0  0  0  0  0  0  0  0  0
   -1.5610    1.7573   -1.4196 H   0  0  0  0  0  0  0  0  0  0  0  0
   -0.4978    1.7191    1.0203 H   0  0  0  0  0  0  0  0  0  0  0  0
    1.1955    1.5983    1.4274 H   0  0  0  0  0  0  0  0  0  0  0  0
   -0.2197    1.3223    3.4604 H   0  0  0  0  0  0  0  0  0  0  0  0
   -1.0590   -0.0524    2.7218 H   0  0  0  0  0  0  0  0  0  0  0  0
    0.6530   -0.1868    3.1416 H   0  0  0  0  0  0  0  0  0  0  0  0
  1  2  1  0
  2  3  1  0
  3  4  1  0
  4  5  2  0
  5  6  1  0
  6  7  2  0
  7  8  1  0
  8  9  2  0
  9 10  1  0
 10 11  2  0
 11 12  1  0
 12 13  2  0
  7 14  1  0
 14 15  1  0
 15 16  1  0
 14  4  1  0
 13  8  1  0
  1 17  1  0
  1 18  1  0
  1 19  1  0
  2 20  1  0
  2 21  1  0
  5 22  1  0
  9 23  1  0
 10 24  1  0
 11 25  1  0
 12 26  1  0
 13 27  1  0
 15 28  1  0
 15 29  1  0
 16 30  1  0
 16 31  1  0
 16 32  1  0
M  END
$$$$
