
     RDKit          3D

 43 46  0  0  0  0  0  0  0  0999 V2000
   -8.1531   -0.5702    1.1506 C   0  0  0  0  0  0  0  0  0  0  0  0
   -7.1471    0.4257    1.2836 O   0  0  0  0  0  0  0  0  0  0  0  0
   -5.9476    0.1786    0.6755 C   0  0  0  0  0  0  0  0  0  0  0  0
   -4.9868    1.1767    0.8521 C   0  0  0  0  0  0  0  0  0  0  0  0
   -3.7162    1.0519    0.2834 C   0  0  0  0  0  0  0  0  0  0  0  0
   -3.3923   -0.0722   -0.4830 C   0  0  0  0  0  0  0  0  0  0  0  0
   -2.0615   -0.1842   -1.0620 C   0  0  0  0  0  0  0  0  0  0  0  0
   -0.9434    0.0838   -0.2863 N   0  0  0  0  0  0  0  0  0  0  0  0
    0.1453   -0.0874   -0.9955 C   0  0  0  0  0  0  0  0  0  0  0  0
    1.3812    0.1005   -0.4449 N   0  0  0  0  0  0  0  0  0  0  0  0
    2.6092   -0.0403   -1.0516 C   0  0  0  0  0  0  0  0  0  0  0  0
    2.8240   -0.3657   -2.2139 O   0  0  0  0  0  0  0  0  0  0  0  0
    3.7019    0.2594   -0.0971 C   0  0  0  0  0  0  0  0  0  0  0  0
    3.4392    0.6258    1.2082 N   0  0  0  0  0  0  0  0  0  0  0  0
    4.6305    0.8054    1.7323 C   0  0  0  0  0  0  0  0  0  0  0  0
    4.9606    1.1771    3.0038 N   0  0  0  0  0  0  0  0  0  0  0  0
    6.2300    1.2790    3.2494 C   0  0  0  0  0  0  0  0  0  0  0  0
    7.3398    1.0318    2.2877 C   0  0  0  0  0  0  0  0  0  0  0  0
    6.9718    0.6678    1.0463 C   0  0  0  0  0  0  0  0  0  0  0  0
    7.9530    0.3799   -0.0467 C   0  0  0  0  0  0  0  0  0  0  0  0
    5.6056    0.5511    0.7574 N   0  0  0  0  0  0  0  0  0  0  0  0
    5.0069    0.2042   -0.4039 N   0  0  0  0  0  0  0  0  0  0  0  0
   -0.0914   -0.5463   -2.6144 S   0  0  0  0  0  0  0  0  0  0  0  0
   -1.7939   -0.5109   -2.3822 C   0  0  0  0  0  0  0  0  0  0  0  0
   -2.7046   -0.7999   -3.5235 C   0  0  0  0  0  0  0  0  0  0  0  0
   -4.3511   -1.0795   -0.6455 C   0  0  0  0  0  0  0  0  0  0  0  0
   -5.6238   -0.9531   -0.0731 C   0  0  0  0  0  0  0  0  0  0  0  0
   -8.4366   -0.7073    0.1019 H   0  0  0  0  0  0  0  0  0  0  0  0
   -7.8347   -1.5159    1.6017 H   0  0  0  0  0  0  0  0  0  0  0  0
   -9.0390   -0.2249    1.6923 H   0  0  0  0  0  0  0  0  0  0  0  0
   -5.2264    2.0580    1.4421 H   0  0  0  0  0  0  0  0  0  0  0  0
   -2.9798    1.8369    0.4422 H   0  0  0  0  0  0  0  0  0  0  0  0
    1.3742    0.3747    0.5322 H   0  0  0  0  0  0  0  0  0  0  0  0
    6.5510    1.5765    4.2622 H   0  0  0  0  0  0  0  0  0  0  0  0
    8.3617    1.1523    2.6200 H   0  0  0  0  0  0  0  0  0  0  0  0
    8.9866    0.5032    0.2945 H   0  0  0  0  0  0  0  0  0  0  0  0
    7.8434   -0.6499   -0.4028 H   0  0  0  0  0  0  0  0  0  0  0  0
    7.8007    1.0601   -0.8915 H   0  0  0  0  0  0  0  0  0  0  0  0
   -2.2314   -0.5845   -4.4875 H   0  0  0  0  0  0  0  0  0  0  0  0
   -3.6109   -0.1886   -3.4666 H   0  0  0  0  0  0  0  0  0  0  0  0
   -2.9974   -1.8547   -3.5179 H   0  0  0  0  0  0  0  0  0  0  0  0
   -4.1147   -1.9823   -1.2032 H   0  0  0  0  0  0  0  0  0  0  0  0
   -6.3328   -1.7597   -0.2261 H   0  0  0  0  0  0  0  0  0  0  0  0
  1  2  1  0
  2  3  1  0
  3  4  2  0
  4  5  1  0
  5  6  2  0
  6  7  1  0
  7  8  1  0
  8  9  2  0
  9 10  1  0
 10 11  1  0
 11 12  2  0
 11 13  1  0
 13 14  1  0
 14 15  2  0
 15 16  1  0
 16 17  2  0
 17 18  1  0
 18 19  2  0
 19 20  1  0
 19 21  1  0
 21 22  1  0
  9 23  1  0
 23 24  1  0
 24 25  1  0
  6 26  1  0
 26 27  2  0
 27  3  1  0
 24  7  2  0
 22 13  2  0
 21 15  1  0
  1 28  1  0
  1 29  1  0
  1 30  1  0
  4 31  1  0
  5 32  1  0
 10 33  1  0
 17 34  1  0
 18 35  1  0
 20 36  1  0
 20 37  1  0
 20 38  1  0
 25 39  1  0
 25 40  1  0
 25 41  1  0
 26 42  1  0
 27 43  1  0
M  END
$$$$
