
     RDKit          3D

 60 62  0  0  0  0  0  0  0  0999 V2000
   -4.9816    2.6103   -3.2957 C   0  0  0  0  0  0  0  0  0  0  0  0
   -4.1456    2.5951   -2.0577 C   0  0  0  0  0  0  0  0  0  0  0  0
   -2.7550    2.5296   -2.1547 C   0  0  0  0  0  0  0  0  0  0  0  0
   -1.9713    2.4873   -1.0055 C   0  0  0  0  0  0  0  0  0  0  0  0
   -2.5728    2.4775    0.2604 C   0  0  0  0  0  0  0  0  0  0  0  0
   -1.4798    2.3988    1.6782 S   0  0  0  0  0  6  0  0  0  0  0  0
   -2.1460    2.9837    2.8218 O   0  0  0  0  0  0  0  0  0  0  0  0
   -0.1763    2.8798    1.2683 O   0  0  0  0  0  0  0  0  0  0  0  0
   -1.3801    0.7406    1.9893 N   0  0  0  0  0  0  0  0  0  0  0  0
   -0.8655   -0.1329    0.9836 C   0  0  0  0  0  0  0  0  0  0  0  0
    0.4990   -0.0418    0.6990 C   0  0  0  0  0  0  0  0  0  0  0  0
    1.0991   -0.8302   -0.2912 C   0  0  0  0  0  0  0  0  0  0  0  0
    2.5961   -0.6420   -0.5301 C   0  0  0  0  0  0  0  0  0  0  0  0
    3.4491   -1.0886    0.6386 C   0  0  0  0  0  0  0  0  0  0  0  0
    3.1068   -1.8498    1.5278 O   0  0  0  0  0  0  0  0  0  0  0  0
    4.6698   -0.4887    0.5580 O   0  0  0  0  0  0  0  0  0  0  0  0
    5.5866   -0.7298    1.6449 C   0  0  0  0  0  0  0  0  0  0  0  0
    6.3945   -1.9912    1.3550 C   0  0  0  0  0  0  0  0  0  0  0  0
    6.4969    0.4955    1.7424 C   0  0  0  0  0  0  0  0  0  0  0  0
    3.1271   -1.1395   -1.8518 C   0  0  0  0  0  0  0  0  0  0  0  0
    3.0114   -0.4453   -2.8692 O   0  0  0  0  0  0  0  0  0  0  0  0
    3.8151   -2.4909   -1.8601 C   0  0  0  0  0  0  0  0  0  0  0  0
    3.7729   -3.0986   -3.0784 F   0  0  0  0  0  0  0  0  0  0  0  0
    3.2966   -3.3772   -0.9730 F   0  0  0  0  0  0  0  0  0  0  0  0
    5.1365   -2.3788   -1.5411 F   0  0  0  0  0  0  0  0  0  0  0  0
    0.2774   -1.7222   -0.9894 C   0  0  0  0  0  0  0  0  0  0  0  0
    0.8665   -2.4611   -1.9823 O   0  0  0  0  0  0  0  0  0  0  0  0
   -1.1113   -1.8617   -0.7152 C   0  0  0  0  0  0  0  0  0  0  0  0
   -1.9405   -2.7952   -1.3872 C   0  0  0  0  0  0  0  0  0  0  0  0
   -3.3066   -2.8931   -1.1228 C   0  0  0  0  0  0  0  0  0  0  0  0
   -3.8805   -2.0698   -0.1675 C   0  0  0  0  0  0  0  0  0  0  0  0
   -3.0848   -1.1612    0.5315 C   0  0  0  0  0  0  0  0  0  0  0  0
   -1.6963   -1.0392    0.2828 C   0  0  0  0  0  0  0  0  0  0  0  0
   -3.9747    2.5372    0.3838 C   0  0  0  0  0  0  0  0  0  0  0  0
   -4.6998    2.5404    1.6995 C   0  0  0  0  0  0  0  0  0  0  0  0
   -4.7425    2.5987   -0.7923 C   0  0  0  0  0  0  0  0  0  0  0  0
   -5.9653    3.0502   -3.1012 H   0  0  0  0  0  0  0  0  0  0  0  0
   -4.5082    3.2128   -4.0736 H   0  0  0  0  0  0  0  0  0  0  0  0
   -5.1138    1.5922   -3.6688 H   0  0  0  0  0  0  0  0  0  0  0  0
   -2.2756    2.5081   -3.1290 H   0  0  0  0  0  0  0  0  0  0  0  0
   -0.8885    2.4439   -1.1080 H   0  0  0  0  0  0  0  0  0  0  0  0
   -2.1018    0.3980    2.6193 H   0  0  0  0  0  0  0  0  0  0  0  0
    1.1079    0.6581    1.2721 H   0  0  0  0  0  0  0  0  0  0  0  0
    2.7324    0.4496   -0.5739 H   0  0  0  0  0  0  0  0  0  0  0  0
    5.0445   -0.8292    2.5907 H   0  0  0  0  0  0  0  0  0  0  0  0
    6.9162   -1.9097    0.3960 H   0  0  0  0  0  0  0  0  0  0  0  0
    5.7350   -2.8669    1.2810 H   0  0  0  0  0  0  0  0  0  0  0  0
    7.1360   -2.1791    2.1396 H   0  0  0  0  0  0  0  0  0  0  0  0
    5.9019    1.3947    1.9422 H   0  0  0  0  0  0  0  0  0  0  0  0
    7.2408    0.3857    2.5410 H   0  0  0  0  0  0  0  0  0  0  0  0
    7.0217    0.6715    0.7960 H   0  0  0  0  0  0  0  0  0  0  0  0
    0.2114   -2.5995   -2.6860 H   0  0  0  0  0  0  0  0  0  0  0  0
   -1.5297   -3.4859   -2.1216 H   0  0  0  0  0  0  0  0  0  0  0  0
   -3.9150   -3.6178   -1.6593 H   0  0  0  0  0  0  0  0  0  0  0  0
   -4.9431   -2.1382    0.0457 H   0  0  0  0  0  0  0  0  0  0  0  0
   -3.5743   -0.5417    1.2794 H   0  0  0  0  0  0  0  0  0  0  0  0
   -4.3954    1.6864    2.3118 H   0  0  0  0  0  0  0  0  0  0  0  0
   -5.7809    2.4582    1.5569 H   0  0  0  0  0  0  0  0  0  0  0  0
   -4.5177    3.4713    2.2367 H   0  0  0  0  0  0  0  0  0  0  0  0
   -5.8287    2.6421   -0.7236 H   0  0  0  0  0  0  0  0  0  0  0  0
  1  2  1  0
  2  3  2  0
  3  4  1  0
  4  5  2  0
  5  6  1  0
  6  7  2  0
  6  8  2  0
  6  9  1  0
  9 10  1  0
 10 11  2  0
 11 12  1  0
 12 13  1  0
 13 14  1  0
 14 15  2  0
 14 16  1  0
 16 17  1  0
 17 18  1  0
 17 19  1  0
 13 20  1  0
 20 21  2  0
 20 22  1  0
 22 23  1  0
 22 24  1  0
 22 25  1  0
 12 26  2  0
 26 27  1  0
 26 28  1  0
 28 29  2  0
 29 30  1  0
 30 31  2  0
 31 32  1  0
 32 33  2  0
  5 34  1  0
 34 35  1  0
 34 36  2  0
 36  2  1  0
 33 10  1  0
 33 28  1  0
  1 37  1  0
  1 38  1  0
  1 39  1  0
  3 40  1  0
  4 41  1  0
  9 42  1  0
 11 43  1  0
 13 44  1  0
 17 45  1  0
 18 46  1  0
 18 47  1  0
 18 48  1  0
 19 49  1  0
 19 50  1  0
 19 51  1  0
 27 52  1  0
 29 53  1  0
 30 54  1  0
 31 55  1  0
 32 56  1  0
 35 57  1  0
 35 58  1  0
 35 59  1  0
 36 60  1  0
M  END
$$$$
