
     RDKit          3D

 50 53  0  0  0  0  0  0  0  0999 V2000
   -1.8258    3.5034    1.4107 C   0  0  0  0  0  0  0  0  0  0  0  0
   -2.5903    2.4499    0.7496 N   0  0  0  0  0  0  0  0  0  0  0  0
   -2.9403    1.3534    1.6794 C   0  0  0  0  0  0  0  0  0  0  0  0
   -1.9877    0.1366    1.6647 C   0  0  0  0  0  0  0  0  0  0  0  0
   -1.7828   -0.4177    0.3036 N   0  0  0  0  0  0  0  0  0  0  0  0
   -2.2970   -1.7300    0.1247 C   0  0  0  0  0  0  0  0  0  0  0  0
   -3.6471   -2.0466    0.3303 C   0  0  0  0  0  0  0  0  0  0  0  0
   -4.1098   -3.3465    0.1192 C   0  0  0  0  0  0  0  0  0  0  0  0
   -3.2292   -4.3421   -0.3002 C   0  0  0  0  0  0  0  0  0  0  0  0
   -1.8806   -4.0475   -0.5102 C   0  0  0  0  0  0  0  0  0  0  0  0
   -1.4112   -2.7515   -0.2989 C   0  0  0  0  0  0  0  0  0  0  0  0
   -0.0727   -2.3581   -0.4718 N   0  0  0  0  0  0  0  0  0  0  0  0
    1.0181   -3.0943   -0.8718 C   0  0  0  0  0  0  0  0  0  0  0  0
    1.0045   -4.2838   -1.1730 O   0  0  0  0  0  0  0  0  0  0  0  0
    2.2351   -2.3022   -0.9094 C   0  0  0  0  0  0  0  0  0  0  0  0
    3.5284   -2.6322   -1.2626 C   0  0  0  0  0  0  0  0  0  0  0  0
    4.3049   -1.4570   -1.1096 C   0  0  0  0  0  0  0  0  0  0  0  0
    3.4493   -0.4681   -0.6635 C   0  0  0  0  0  0  0  0  0  0  0  0
    3.6035    0.9404   -0.3090 C   0  0  0  0  0  0  0  0  0  0  0  0
    2.5303    1.6794    0.2124 C   0  0  0  0  0  0  0  0  0  0  0  0
    2.6816    3.0271    0.5549 C   0  0  0  0  0  0  0  0  0  0  0  0
    3.9137    3.6594    0.3841 C   0  0  0  0  0  0  0  0  0  0  0  0
    4.0352    5.3224    0.8343 Cl  0  0  0  0  0  0  0  0  0  0  0  0
    4.9933    2.9382   -0.1327 C   0  0  0  0  0  0  0  0  0  0  0  0
    6.5506    3.6496   -0.3717 Cl  0  0  0  0  0  0  0  0  0  0  0  0
    4.8360    1.5891   -0.4768 C   0  0  0  0  0  0  0  0  0  0  0  0
    2.1886   -0.9816   -0.5471 O   0  0  0  0  0  0  0  0  0  0  0  0
   -2.2109    0.4824   -0.7964 C   0  0  0  0  0  0  0  0  0  0  0  0
   -1.8676    1.9456   -0.4410 C   0  0  0  0  0  0  0  0  0  0  0  0
   -1.6029    4.3143    0.7092 H   0  0  0  0  0  0  0  0  0  0  0  0
   -2.4068    3.9448    2.2274 H   0  0  0  0  0  0  0  0  0  0  0  0
   -0.8813    3.1309    1.8225 H   0  0  0  0  0  0  0  0  0  0  0  0
   -3.0422    1.7254    2.7062 H   0  0  0  0  0  0  0  0  0  0  0  0
   -3.9428    1.0073    1.3988 H   0  0  0  0  0  0  0  0  0  0  0  0
   -2.3472   -0.6225    2.3702 H   0  0  0  0  0  0  0  0  0  0  0  0
   -1.0051    0.4541    2.0364 H   0  0  0  0  0  0  0  0  0  0  0  0
   -4.3513   -1.2832    0.6456 H   0  0  0  0  0  0  0  0  0  0  0  0
   -5.1590   -3.5822    0.2776 H   0  0  0  0  0  0  0  0  0  0  0  0
   -3.5909   -5.3534   -0.4674 H   0  0  0  0  0  0  0  0  0  0  0  0
   -1.2222   -4.8450   -0.8376 H   0  0  0  0  0  0  0  0  0  0  0  0
    0.0841   -1.3763   -0.2520 H   0  0  0  0  0  0  0  0  0  0  0  0
    3.8587   -3.6094   -1.5891 H   0  0  0  0  0  0  0  0  0  0  0  0
    5.3647   -1.3548   -1.2973 H   0  0  0  0  0  0  0  0  0  0  0  0
    1.5597    1.2097    0.3630 H   0  0  0  0  0  0  0  0  0  0  0  0
    1.8327    3.5752    0.9562 H   0  0  0  0  0  0  0  0  0  0  0  0
    5.6894    1.0467   -0.8778 H   0  0  0  0  0  0  0  0  0  0  0  0
   -1.6795    0.2045   -1.7140 H   0  0  0  0  0  0  0  0  0  0  0  0
   -3.2878    0.4017   -0.9958 H   0  0  0  0  0  0  0  0  0  0  0  0
   -2.1092    2.5902   -1.2940 H   0  0  0  0  0  0  0  0  0  0  0  0
   -0.7812    2.0043   -0.2857 H   0  0  0  0  0  0  0  0  0  0  0  0
  1  2  1  0
  2  3  1  0
  3  4  1  0
  4  5  1  0
  5  6  1  0
  6  7  2  0
  7  8  1  0
  8  9  2  0
  9 10  1  0
 10 11  2  0
 11 12  1  0
 12 13  1  0
 13 14  2  0
 13 15  1  0
 15 16  2  0
 16 17  1  0
 17 18  2  0
 18 19  1  0
 19 20  2  0
 20 21  1  0
 21 22  2  0
 22 23  1  0
 22 24  1  0
 24 25  1  0
 24 26  2  0
 18 27  1  0
  5 28  1  0
 28 29  1  0
 29  2  1  0
 11  6  1  0
 27 15  1  0
 26 19  1  0
  1 30  1  0
  1 31  1  0
  1 32  1  0
  3 33  1  0
  3 34  1  0
  4 35  1  0
  4 36  1  0
  7 37  1  0
  8 38  1  0
  9 39  1  0
 10 40  1  0
 12 41  1  0
 16 42  1  0
 17 43  1  0
 20 44  1  0
 21 45  1  0
 26 46  1  0
 28 47  1  0
 28 48  1  0
 29 49  1  0
 29 50  1  0
M  END
$$$$
