
     RDKit          3D

 24 24  0  0  0  0  0  0  0  0999 V2000
   -3.8853   -0.7255   -1.1892 C   0  0  0  0  0  0  0  0  0  0  0  0
   -3.6795   -0.3681    0.1971 N   0  0  0  0  0  0  0  0  0  0  0  0
   -2.4940   -0.0885    0.8292 C   0  0  0  0  0  0  0  0  0  0  0  0
   -2.6182    0.5604    2.3619 S   0  0  0  0  0  0  0  0  0  0  0  0
   -1.3715   -0.4186    0.1111 N   0  0  0  0  0  0  0  0  0  0  0  0
   -0.0077   -0.0963    0.2911 C   0  0  0  0  0  0  0  0  0  0  0  0
    0.9233   -0.8837   -0.3999 C   0  0  0  0  0  0  0  0  0  0  0  0
    2.2956   -0.6302   -0.3027 C   0  0  0  0  0  0  0  0  0  0  0  0
    2.7635    0.4354    0.4689 C   0  0  0  0  0  0  0  0  0  0  0  0
    4.2342    0.6921    0.6069 C   0  0  0  0  0  0  0  0  0  0  0  0
    1.8369    1.2284    1.1513 C   0  0  0  0  0  0  0  0  0  0  0  0
    0.4633    0.9716    1.0529 C   0  0  0  0  0  0  0  0  0  0  0  0
   -3.3436   -0.0273   -1.8324 H   0  0  0  0  0  0  0  0  0  0  0  0
   -3.5196   -1.7421   -1.3546 H   0  0  0  0  0  0  0  0  0  0  0  0
   -4.9552   -0.6804   -1.4052 H   0  0  0  0  0  0  0  0  0  0  0  0
   -4.4969   -0.0963    0.7338 H   0  0  0  0  0  0  0  0  0  0  0  0
   -1.5375   -1.1335   -0.5820 H   0  0  0  0  0  0  0  0  0  0  0  0
    0.5970   -1.7202   -1.0123 H   0  0  0  0  0  0  0  0  0  0  0  0
    2.9943   -1.2718   -0.8347 H   0  0  0  0  0  0  0  0  0  0  0  0
    4.7707    0.3880   -0.2981 H   0  0  0  0  0  0  0  0  0  0  0  0
    4.4322    1.7584    0.7582 H   0  0  0  0  0  0  0  0  0  0  0  0
    4.6332    0.1334    1.4590 H   0  0  0  0  0  0  0  0  0  0  0  0
    2.1729    2.0635    1.7626 H   0  0  0  0  0  0  0  0  0  0  0  0
   -0.2080    1.6514    1.5639 H   0  0  0  0  0  0  0  0  0  0  0  0
  1  2  1  0
  2  3  1  0
  3  4  2  0
  3  5  1  0
  5  6  1  0
  6  7  2  0
  7  8  1  0
  8  9  2  0
  9 10  1  0
  9 11  1  0
 11 12  2  0
 12  6  1  0
  1 13  1  0
  1 14  1  0
  1 15  1  0
  2 16  1  0
  5 17  1  0
  7 18  1  0
  8 19  1  0
 10 20  1  0
 10 21  1  0
 10 22  1  0
 11 23  1  0
 12 24  1  0
M  END
$$$$
