
     RDKit          3D

 53 55  0  0  0  0  0  0  0  0999 V2000
    8.4402   -2.1878    0.5464 C   0  0  0  0  0  0  0  0  0  0  0  0
    8.2562   -0.9343    1.1933 O   0  0  0  0  0  0  0  0  0  0  0  0
    6.9671   -0.5239    1.3934 C   0  0  0  0  0  0  0  0  0  0  0  0
    6.8432    0.6846    2.0886 C   0  0  0  0  0  0  0  0  0  0  0  0
    5.5858    1.2253    2.3639 C   0  0  0  0  0  0  0  0  0  0  0  0
    4.4456    0.5499    1.9291 C   0  0  0  0  0  0  0  0  0  0  0  0
    2.8330    1.2100    2.2585 S   0  0  0  0  0  6  0  0  0  0  0  0
    2.9768    2.4568    2.9801 O   0  0  0  0  0  0  0  0  0  0  0  0
    2.0161    0.1328    2.7709 O   0  0  0  0  0  0  0  0  0  0  0  0
    2.2773    1.5932    0.7102 N   0  0  0  0  0  0  0  0  0  0  0  0
    2.9688    2.6859   -0.0056 C   0  0  0  0  0  0  0  0  0  0  0  0
    1.9102    3.7577   -0.1303 C   0  0  0  0  0  0  0  0  0  0  0  0
    0.6979    3.0122   -0.2603 O   0  0  0  0  0  0  0  0  0  0  0  0
    0.8335    1.9185    0.6725 C   0  0  0  0  0  0  0  0  0  0  0  0
    0.0098    0.7261    0.1617 C   0  0  0  0  0  0  0  0  0  0  0  0
   -1.3978    1.0499    0.0048 N   0  0  0  0  0  0  0  0  0  0  0  0
   -2.3496    0.0715   -0.1599 C   0  0  0  0  0  0  0  0  0  0  0  0
   -2.1813   -1.1311   -0.0178 O   0  0  0  0  0  0  0  0  0  0  0  0
   -3.7342    0.6167   -0.5797 C   0  0  0  0  0  0  0  0  0  0  0  0
   -3.8943    1.8150   -0.7629 O   0  0  0  0  0  0  0  0  0  0  0  0
   -4.6946   -0.3579   -0.7077 N   0  0  0  0  0  0  0  0  0  0  0  0
   -6.0827   -0.0224   -0.8871 C   0  0  0  0  0  0  0  0  0  0  0  0
   -6.8742   -1.2087   -1.3681 C   0  0  0  0  0  0  0  0  0  0  0  0
   -7.0507   -1.3895   -2.7520 C   0  0  0  0  0  0  0  0  0  0  0  0
   -7.7638   -2.4827   -3.2480 C   0  0  0  0  0  0  0  0  0  0  0  0
   -8.3047   -3.4176   -2.3700 C   0  0  0  0  0  0  0  0  0  0  0  0
   -8.1272   -3.2623   -0.9958 C   0  0  0  0  0  0  0  0  0  0  0  0
   -7.4128   -2.1682   -0.4964 C   0  0  0  0  0  0  0  0  0  0  0  0
   -7.2112   -2.0594    1.2161 Cl  0  0  0  0  0  0  0  0  0  0  0  0
    4.5533   -0.6614    1.2401 C   0  0  0  0  0  0  0  0  0  0  0  0
    5.8172   -1.1958    0.9712 C   0  0  0  0  0  0  0  0  0  0  0  0
    7.9887   -3.0011    1.1247 H   0  0  0  0  0  0  0  0  0  0  0  0
    9.5160   -2.3785    0.4873 H   0  0  0  0  0  0  0  0  0  0  0  0
    8.0494   -2.1643   -0.4763 H   0  0  0  0  0  0  0  0  0  0  0  0
    7.7384    1.2044    2.4236 H   0  0  0  0  0  0  0  0  0  0  0  0
    5.5108    2.1602    2.9140 H   0  0  0  0  0  0  0  0  0  0  0  0
    3.2529    2.3036   -0.9925 H   0  0  0  0  0  0  0  0  0  0  0  0
    3.8705    3.0577    0.4861 H   0  0  0  0  0  0  0  0  0  0  0  0
    1.8480    4.3791    0.7701 H   0  0  0  0  0  0  0  0  0  0  0  0
    2.0557    4.4004   -1.0023 H   0  0  0  0  0  0  0  0  0  0  0  0
    0.4555    2.2713    1.6396 H   0  0  0  0  0  0  0  0  0  0  0  0
    0.3655    0.4166   -0.8286 H   0  0  0  0  0  0  0  0  0  0  0  0
    0.1048   -0.1364    0.8298 H   0  0  0  0  0  0  0  0  0  0  0  0
   -1.6487    1.9767   -0.3367 H   0  0  0  0  0  0  0  0  0  0  0  0
   -4.4350   -1.2864   -0.3834 H   0  0  0  0  0  0  0  0  0  0  0  0
   -6.1599    0.8048   -1.6038 H   0  0  0  0  0  0  0  0  0  0  0  0
   -6.4718    0.3695    0.0589 H   0  0  0  0  0  0  0  0  0  0  0  0
   -6.6268   -0.6738   -3.4550 H   0  0  0  0  0  0  0  0  0  0  0  0
   -7.8929   -2.6052   -4.3209 H   0  0  0  0  0  0  0  0  0  0  0  0
   -8.8589   -4.2702   -2.7545 H   0  0  0  0  0  0  0  0  0  0  0  0
   -8.5448   -4.0018   -0.3166 H   0  0  0  0  0  0  0  0  0  0  0  0
    3.6607   -1.1922    0.9149 H   0  0  0  0  0  0  0  0  0  0  0  0
    5.8690   -2.1375    0.4341 H   0  0  0  0  0  0  0  0  0  0  0  0
  1  2  1  0
  2  3  1  0
  3  4  2  0
  4  5  1  0
  5  6  2  0
  6  7  1  0
  7  8  2  0
  7  9  2  0
  7 10  1  0
 10 11  1  0
 11 12  1  0
 12 13  1  0
 13 14  1  0
 14 15  1  0
 15 16  1  0
 16 17  1  0
 17 18  2  0
 17 19  1  0
 19 20  2  0
 19 21  1  0
 21 22  1  0
 22 23  1  0
 23 24  2  0
 24 25  1  0
 25 26  2  0
 26 27  1  0
 27 28  2  0
 28 29  1  0
  6 30  1  0
 30 31  2  0
 31  3  1  0
 14 10  1  0
 28 23  1  0
  1 32  1  0
  1 33  1  0
  1 34  1  0
  4 35  1  0
  5 36  1  0
 11 37  1  0
 11 38  1  0
 12 39  1  0
 12 40  1  0
 14 41  1  0
 15 42  1  0
 15 43  1  0
 16 44  1  0
 21 45  1  0
 22 46  1  0
 22 47  1  0
 24 48  1  0
 25 49  1  0
 26 50  1  0
 27 51  1  0
 30 52  1  0
 31 53  1  0
M  END
$$$$
