
     RDKit          3D

 39 41  0  0  0  0  0  0  0  0999 V2000
   -4.3388    0.8364   -2.3923 C   0  0  0  0  0  0  0  0  0  0  0  0
   -3.9347    0.7082   -0.9524 C   0  0  0  0  0  0  0  0  0  0  0  0
   -4.9081    0.6696    0.0490 C   0  0  0  0  0  0  0  0  0  0  0  0
   -4.5608    0.5347    1.3963 C   0  0  0  0  0  0  0  0  0  0  0  0
   -3.2023    0.4205    1.7112 C   0  0  0  0  0  0  0  0  0  0  0  0
   -2.5919    0.2981    2.9369 N   0  0  0  0  0  0  0  0  0  0  0  0
   -1.2271    0.2198    2.7955 C   0  0  0  0  0  0  0  0  0  0  0  0
   -0.3396    0.0892    3.9806 C   0  0  0  0  0  0  0  0  0  0  0  0
   -0.9540    0.2710    1.4396 C   0  0  0  0  0  0  0  0  0  0  0  0
    0.3699    0.2048    0.9032 C   0  0  0  0  0  0  0  0  0  0  0  0
    0.7106   -0.4488   -0.2204 C   0  0  0  0  0  0  0  0  0  0  0  0
    2.0735   -0.5153   -0.7580 C   0  0  0  0  0  0  0  0  0  0  0  0
    2.2588   -0.4753   -2.1389 C   0  0  0  0  0  0  0  0  0  0  0  0
    3.5420   -0.5630   -2.6669 C   0  0  0  0  0  0  0  0  0  0  0  0
    4.6132   -0.6946   -1.8535 N   0  0  0  0  0  4  0  0  0  0  0  0
    5.9620   -0.7967   -2.4360 C   0  0  0  0  0  0  0  0  0  0  0  0
    4.4569   -0.7616   -0.5128 C   0  0  0  0  0  0  0  0  0  0  0  0
    3.1921   -0.6757    0.0585 C   0  0  0  0  0  0  0  0  0  0  0  0
   -2.1969    0.4213    0.7447 C   0  0  0  0  0  0  0  0  0  0  0  0
   -2.5782    0.5744   -0.6081 C   0  0  0  0  0  0  0  0  0  0  0  0
   -4.5082   -0.1555   -2.8225 H   0  0  0  0  0  0  0  0  0  0  0  0
   -3.5621    1.3459   -2.9722 H   0  0  0  0  0  0  0  0  0  0  0  0
   -5.2559    1.4268   -2.4900 H   0  0  0  0  0  0  0  0  0  0  0  0
   -5.9617    0.7547   -0.2123 H   0  0  0  0  0  0  0  0  0  0  0  0
   -5.3259    0.5227    2.1662 H   0  0  0  0  0  0  0  0  0  0  0  0
   -3.0895    0.2782    3.8167 H   0  0  0  0  0  0  0  0  0  0  0  0
   -0.9138   -0.0401    4.9038 H   0  0  0  0  0  0  0  0  0  0  0  0
    0.2808    0.9844    4.0905 H   0  0  0  0  0  0  0  0  0  0  0  0
    0.3199   -0.7777    3.8718 H   0  0  0  0  0  0  0  0  0  0  0  0
    1.1349    0.7159    1.4828 H   0  0  0  0  0  0  0  0  0  0  0  0
   -0.0538   -0.9733   -0.7911 H   0  0  0  0  0  0  0  0  0  0  0  0
    1.4089   -0.3679   -2.8109 H   0  0  0  0  0  0  0  0  0  0  0  0
    3.7208   -0.5319   -3.7381 H   0  0  0  0  0  0  0  0  0  0  0  0
    5.9938   -0.2262   -3.3679 H   0  0  0  0  0  0  0  0  0  0  0  0
    6.1596   -1.8556   -2.6201 H   0  0  0  0  0  0  0  0  0  0  0  0
    6.6883   -0.3809   -1.7330 H   0  0  0  0  0  0  0  0  0  0  0  0
    5.3485   -0.8907    0.0945 H   0  0  0  0  0  0  0  0  0  0  0  0
    3.0898   -0.7488    1.1395 H   0  0  0  0  0  0  0  0  0  0  0  0
   -1.8208    0.6028   -1.3844 H   0  0  0  0  0  0  0  0  0  0  0  0
  1  2  1  0
  2  3  2  0
  3  4  1  0
  4  5  2  0
  5  6  1  0
  6  7  1  0
  7  8  1  0
  7  9  2  0
  9 10  1  0
 10 11  2  3
 11 12  1  0
 12 13  2  0
 13 14  1  0
 14 15  2  0
 15 16  1  0
 15 17  1  0
 17 18  2  0
  9 19  1  0
 19 20  2  0
 20  2  1  0
 19  5  1  0
 18 12  1  0
  1 21  1  0
  1 22  1  0
  1 23  1  0
  3 24  1  0
  4 25  1  0
  6 26  1  0
  8 27  1  0
  8 28  1  0
  8 29  1  0
 10 30  1  0
 11 31  1  0
 13 32  1  0
 14 33  1  0
 16 34  1  0
 16 35  1  0
 16 36  1  0
 17 37  1  0
 18 38  1  0
 20 39  1  0
M  CHG  1  15   1
M  END
$$$$
