
     RDKit          3D

 50 54  0  0  0  0  0  0  0  0999 V2000
   -4.9531    0.2787    0.4226 C   0  0  0  0  0  0  0  0  0  0  0  0
   -4.2623   -0.9560   -0.0657 C   0  0  0  0  0  0  0  0  0  0  0  0
   -4.9106   -2.0905   -0.3745 C   0  0  0  0  0  0  0  0  0  0  0  0
   -4.2004   -3.2455   -0.8541 C   0  0  0  0  0  0  0  0  0  0  0  0
   -2.8724   -3.1963   -1.0058 C   0  0  0  0  0  0  0  0  0  0  0  0
   -2.1431   -2.0532   -0.6991 N   0  0  0  0  0  0  0  0  0  0  0  0
   -0.7702   -2.0635   -0.8747 C   0  0  0  0  0  0  0  0  0  0  0  0
   -0.1316   -3.0270   -1.3029 O   0  0  0  0  0  0  0  0  0  0  0  0
   -0.0521   -0.8128   -0.5038 C   0  0  0  0  0  0  0  0  0  0  0  0
    1.3963   -0.7550   -0.6254 C   0  0  0  0  0  0  0  0  0  0  0  0
    2.1049    0.3453   -0.3119 C   0  0  0  0  0  0  0  0  0  0  0  0
    3.8279    0.3304   -0.4886 S   0  0  0  0  0  6  0  0  0  0  0  0
    4.5091    1.3813    0.2451 O   0  0  0  0  0  0  0  0  0  0  0  0
    4.1582    0.0780   -1.8836 O   0  0  0  0  0  0  0  0  0  0  0  0
    4.2920   -1.1657    0.4021 C   0  0  0  0  0  0  0  0  0  0  0  0
    4.7245   -2.2962   -0.3032 C   0  0  0  0  0  0  0  0  0  0  0  0
    5.0858   -3.4439    0.4036 C   0  0  0  0  0  0  0  0  0  0  0  0
    5.0241   -3.4440    1.7954 C   0  0  0  0  0  0  0  0  0  0  0  0
    5.3739   -4.5477    2.4690 F   0  0  0  0  0  0  0  0  0  0  0  0
    4.6120   -2.3151    2.5004 C   0  0  0  0  0  0  0  0  0  0  0  0
    4.2463   -1.1624    1.8038 C   0  0  0  0  0  0  0  0  0  0  0  0
    1.3154    1.5523    0.0843 C   0  0  0  0  0  0  0  0  0  0  0  0
    1.9521    2.6796    0.1535 N   0  0  0  0  0  0  0  0  0  0  0  0
   -0.0624    1.4182    0.3287 N   0  0  0  0  0  0  0  0  0  0  0  0
   -0.8154    2.5249    0.9450 C   0  0  0  0  0  0  0  0  0  0  0  0
   -1.2399    3.5932   -0.0040 C   0  0  0  0  0  0  0  0  0  0  0  0
   -2.2558    3.6891   -0.9303 C   0  0  0  0  0  0  0  0  0  0  0  0
   -2.1156    4.9582   -1.5454 C   0  0  0  0  0  0  0  0  0  0  0  0
   -1.0256    5.5537   -0.9571 C   0  0  0  0  0  0  0  0  0  0  0  0
   -0.4871    4.7326   -0.0169 O   0  0  0  0  0  0  0  0  0  0  0  0
   -0.7613    0.2376   -0.0303 C   0  0  0  0  0  0  0  0  0  0  0  0
   -2.1294    0.1742    0.1011 N   0  0  0  0  0  0  0  0  0  0  0  0
   -2.7646   -0.9102   -0.2180 C   0  0  0  0  0  0  0  0  0  0  0  0
   -4.7966    1.1073   -0.2759 H   0  0  0  0  0  0  0  0  0  0  0  0
   -4.5733    0.5739    1.4070 H   0  0  0  0  0  0  0  0  0  0  0  0
   -6.0332    0.1271    0.5190 H   0  0  0  0  0  0  0  0  0  0  0  0
   -5.9902   -2.1682   -0.2798 H   0  0  0  0  0  0  0  0  0  0  0  0
   -4.7603   -4.1441   -1.0943 H   0  0  0  0  0  0  0  0  0  0  0  0
   -2.3171   -4.0577   -1.3738 H   0  0  0  0  0  0  0  0  0  0  0  0
    1.8853   -1.6573   -0.9914 H   0  0  0  0  0  0  0  0  0  0  0  0
    4.7853   -2.2919   -1.3900 H   0  0  0  0  0  0  0  0  0  0  0  0
    5.4210   -4.3346   -0.1208 H   0  0  0  0  0  0  0  0  0  0  0  0
    4.5901   -2.3407    3.5864 H   0  0  0  0  0  0  0  0  0  0  0  0
    3.9461   -0.2702    2.3509 H   0  0  0  0  0  0  0  0  0  0  0  0
    1.3364    3.4756    0.3455 H   0  0  0  0  0  0  0  0  0  0  0  0
   -1.7048    2.1533    1.4713 H   0  0  0  0  0  0  0  0  0  0  0  0
   -0.2101    2.9673    1.7482 H   0  0  0  0  0  0  0  0  0  0  0  0
   -2.9936    2.9271   -1.1417 H   0  0  0  0  0  0  0  0  0  0  0  0
   -2.7271    5.3853   -2.3286 H   0  0  0  0  0  0  0  0  0  0  0  0
   -0.5277    6.5057   -1.0913 H   0  0  0  0  0  0  0  0  0  0  0  0
  1  2  1  0
  2  3  2  0
  3  4  1  0
  4  5  2  0
  5  6  1  0
  6  7  1  0
  7  8  2  0
  7  9  1  0
  9 10  1  0
 10 11  2  0
 11 12  1  0
 12 13  2  0
 12 14  2  0
 12 15  1  0
 15 16  2  0
 16 17  1  0
 17 18  2  0
 18 19  1  0
 18 20  1  0
 20 21  2  0
 11 22  1  0
 22 23  2  3
 22 24  1  0
 24 25  1  0
 25 26  1  0
 26 27  2  0
 27 28  1  0
 28 29  2  0
 29 30  1  0
 24 31  1  0
 31 32  1  0
 32 33  2  0
 33  2  1  0
 33  6  1  0
 31  9  2  0
 21 15  1  0
 30 26  1  0
  1 34  1  0
  1 35  1  0
  1 36  1  0
  3 37  1  0
  4 38  1  0
  5 39  1  0
 10 40  1  0
 16 41  1  0
 17 42  1  0
 20 43  1  0
 21 44  1  0
 23 45  1  0
 25 46  1  0
 25 47  1  0
 27 48  1  0
 28 49  1  0
 29 50  1  0
M  END
$$$$
