
     RDKit          3D

 44 47  0  0  0  0  0  0  0  0999 V2000
   -5.6585   -2.7106    2.2732 C   0  0  0  0  0  0  0  0  0  0  0  0
   -4.4308   -1.8195    2.3337 C   0  0  0  0  0  0  0  0  0  0  0  0
   -4.3353   -1.1199    1.0964 O   0  0  0  0  0  0  0  0  0  0  0  0
   -3.2437   -0.3106    0.9018 C   0  0  0  0  0  0  0  0  0  0  0  0
   -2.2909   -0.0194    1.8825 C   0  0  0  0  0  0  0  0  0  0  0  0
   -1.2129    0.8223    1.5945 C   0  0  0  0  0  0  0  0  0  0  0  0
   -1.0697    1.3750    0.3206 C   0  0  0  0  0  0  0  0  0  0  0  0
    0.0333    2.2878    0.0045 C   0  0  0  0  0  0  0  0  0  0  0  0
    1.3403    1.9847   -0.0139 C   0  0  0  0  0  0  0  0  0  0  0  0
    2.5534    3.1992   -0.4303 S   0  0  0  0  0  0  0  0  0  0  0  0
    3.7873    2.0274   -0.2383 C   0  0  0  0  0  0  0  0  0  0  0  0
    5.0833    2.0225   -0.3472 N   0  0  0  0  0  0  0  0  0  0  0  0
    5.3822    0.7048   -0.0348 C   0  0  0  0  0  0  0  0  0  0  0  0
    6.8499    0.1642   -0.0219 C   0  0  0  0  0  0  0  0  0  0  0  0
    7.2326   -1.1298    0.2769 C   0  0  0  0  0  0  0  0  0  0  0  0
    8.6437   -1.1739    0.1673 C   0  0  0  0  0  0  0  0  0  0  0  0
    9.0366    0.0934   -0.1912 C   0  0  0  0  0  0  0  0  0  0  0  0
    7.9594    0.9109   -0.3084 O   0  0  0  0  0  0  0  0  0  0  0  0
    4.3174   -0.0725    0.2568 N   0  0  0  0  0  0  0  0  0  0  0  0
    3.3177    0.8153    0.1121 N   0  0  0  0  0  0  0  0  0  0  0  0
    1.9583    0.6468    0.2740 C   0  0  0  0  0  0  0  0  0  0  0  0
    1.4517   -0.4116    0.5925 O   0  0  0  0  0  0  0  0  0  0  0  0
   -2.0293    1.0972   -0.6616 C   0  0  0  0  0  0  0  0  0  0  0  0
   -3.1131    0.2551   -0.3822 C   0  0  0  0  0  0  0  0  0  0  0  0
   -4.0965   -0.0692   -1.2844 O   0  0  0  0  0  0  0  0  0  0  0  0
   -3.9475    0.3812   -2.6271 C   0  0  0  0  0  0  0  0  0  0  0  0
   -5.1070   -0.1705   -3.4371 C   0  0  0  0  0  0  0  0  0  0  0  0
   -6.5602   -2.1137    2.1000 H   0  0  0  0  0  0  0  0  0  0  0  0
   -5.7796   -3.2714    3.2043 H   0  0  0  0  0  0  0  0  0  0  0  0
   -5.5803   -3.4186    1.4414 H   0  0  0  0  0  0  0  0  0  0  0  0
   -4.5454   -1.1106    3.1616 H   0  0  0  0  0  0  0  0  0  0  0  0
   -3.5438   -2.4440    2.4909 H   0  0  0  0  0  0  0  0  0  0  0  0
   -2.3573   -0.4302    2.8842 H   0  0  0  0  0  0  0  0  0  0  0  0
   -0.4882    1.0317    2.3778 H   0  0  0  0  0  0  0  0  0  0  0  0
   -0.2940    3.2949   -0.2515 H   0  0  0  0  0  0  0  0  0  0  0  0
    6.5648   -1.9387    0.5412 H   0  0  0  0  0  0  0  0  0  0  0  0
    9.2929   -2.0229    0.3290 H   0  0  0  0  0  0  0  0  0  0  0  0
    9.9945    0.5532   -0.3913 H   0  0  0  0  0  0  0  0  0  0  0  0
   -1.9142    1.5487   -1.6414 H   0  0  0  0  0  0  0  0  0  0  0  0
   -3.9753    1.4761   -2.6647 H   0  0  0  0  0  0  0  0  0  0  0  0
   -3.0071    0.0124   -3.0529 H   0  0  0  0  0  0  0  0  0  0  0  0
   -5.1153   -1.2650   -3.4020 H   0  0  0  0  0  0  0  0  0  0  0  0
   -6.0624    0.1688   -3.0233 H   0  0  0  0  0  0  0  0  0  0  0  0
   -5.0406    0.1490   -4.4808 H   0  0  0  0  0  0  0  0  0  0  0  0
  1  2  1  0
  2  3  1  0
  3  4  1  0
  4  5  2  0
  5  6  1  0
  6  7  2  0
  7  8  1  0
  8  9  2  3
  9 10  1  0
 10 11  1  0
 11 12  2  0
 12 13  1  0
 13 14  1  0
 14 15  2  0
 15 16  1  0
 16 17  2  0
 17 18  1  0
 13 19  2  0
 19 20  1  0
 20 21  1  0
 21 22  2  0
  7 23  1  0
 23 24  2  0
 24 25  1  0
 25 26  1  0
 26 27  1  0
 24  4  1  0
 21  9  1  0
 20 11  1  0
 18 14  1  0
  1 28  1  0
  1 29  1  0
  1 30  1  0
  2 31  1  0
  2 32  1  0
  5 33  1  0
  6 34  1  0
  8 35  1  0
 15 36  1  0
 16 37  1  0
 17 38  1  0
 23 39  1  0
 26 40  1  0
 26 41  1  0
 27 42  1  0
 27 43  1  0
 27 44  1  0
M  END
$$$$
