
     RDKit          3D

 54 57  0  0  0  0  0  0  0  0999 V2000
   -5.3353   -3.0902    1.4606 C   0  0  0  0  0  0  0  0  0  0  0  0
   -4.9280   -1.7006    1.0706 C   0  0  0  0  0  0  0  0  0  0  0  0
   -5.6676   -0.5972    1.4963 C   0  0  0  0  0  0  0  0  0  0  0  0
   -5.3048    0.6895    1.0987 C   0  0  0  0  0  0  0  0  0  0  0  0
   -4.1942    0.9028    0.2645 C   0  0  0  0  0  0  0  0  0  0  0  0
   -3.8587    2.3144   -0.1416 C   0  0  0  0  0  0  0  0  0  0  0  0
   -3.4469   -0.2040   -0.1993 C   0  0  0  0  0  0  0  0  0  0  0  0
   -2.2845   -0.0546   -1.0910 C   0  0  0  0  0  0  0  0  0  0  0  0
   -1.0263   -0.5023   -0.7300 C   0  0  0  0  0  0  0  0  0  0  0  0
    0.0223   -0.3222   -1.6331 C   0  0  0  0  0  0  0  0  0  0  0  0
    1.3681   -0.7989   -1.2278 C   0  0  0  0  0  0  0  0  0  0  0  0
    1.9225   -1.6273   -1.9363 O   0  0  0  0  0  0  0  0  0  0  0  0
    1.8183   -0.2216   -0.0576 N   0  0  0  0  0  0  0  0  0  0  0  0
    3.0400   -0.4229    0.5703 C   0  0  0  0  0  0  0  0  0  0  0  0
    4.2088   -1.4545   -0.0792 S   0  0  0  0  0  0  0  0  0  0  0  0
    5.3313   -1.0943    1.1495 C   0  0  0  0  0  0  0  0  0  0  0  0
    6.6844   -1.7287    1.1095 C   0  0  0  0  0  0  0  0  0  0  0  0
    4.8276   -0.1859    2.0707 C   0  0  0  0  0  0  0  0  0  0  0  0
    5.6351    0.3669    3.2053 C   0  0  0  0  0  0  0  0  0  0  0  0
    3.4445    0.1610    1.7653 C   0  0  0  0  0  0  0  0  0  0  0  0
    2.5300    1.0228    2.5199 C   0  0  0  0  0  0  0  0  0  0  0  0
    2.7483    1.1277    3.8629 N   0  0  0  0  0  0  0  0  0  0  0  0
    1.5519    1.5688    2.0136 O   0  0  0  0  0  0  0  0  0  0  0  0
   -0.1939    0.2841   -2.8896 C   0  0  0  0  0  0  0  0  0  0  0  0
    0.8075    0.5065   -3.8688 C   0  0  0  0  0  0  0  0  0  0  0  0
    0.5047    1.1237   -5.0811 C   0  0  0  0  0  0  0  0  0  0  0  0
   -0.7973    1.5305   -5.3328 C   0  0  0  0  0  0  0  0  0  0  0  0
   -1.7864    1.3164   -4.3702 C   0  0  0  0  0  0  0  0  0  0  0  0
   -1.5111    0.7029   -3.1553 C   0  0  0  0  0  0  0  0  0  0  0  0
   -2.5200    0.5431   -2.2823 N   0  0  0  0  0  0  0  0  0  0  0  0
   -3.8358   -1.4954    0.2167 C   0  0  0  0  0  0  0  0  0  0  0  0
   -5.8682   -3.0888    2.4175 H   0  0  0  0  0  0  0  0  0  0  0  0
   -5.9883   -3.5195    0.6943 H   0  0  0  0  0  0  0  0  0  0  0  0
   -4.4565   -3.7331    1.5796 H   0  0  0  0  0  0  0  0  0  0  0  0
   -6.5360   -0.7297    2.1377 H   0  0  0  0  0  0  0  0  0  0  0  0
   -5.8994    1.5329    1.4436 H   0  0  0  0  0  0  0  0  0  0  0  0
   -4.2026    2.5069   -1.1623 H   0  0  0  0  0  0  0  0  0  0  0  0
   -4.3415    3.0413    0.5206 H   0  0  0  0  0  0  0  0  0  0  0  0
   -2.7817    2.4970   -0.0744 H   0  0  0  0  0  0  0  0  0  0  0  0
   -0.8652   -0.9836    0.2293 H   0  0  0  0  0  0  0  0  0  0  0  0
    1.2320    0.4854    0.3876 H   0  0  0  0  0  0  0  0  0  0  0  0
    6.9461   -2.1300    2.0946 H   0  0  0  0  0  0  0  0  0  0  0  0
    6.7374   -2.5559    0.3939 H   0  0  0  0  0  0  0  0  0  0  0  0
    7.4394   -0.9870    0.8278 H   0  0  0  0  0  0  0  0  0  0  0  0
    5.4042    1.4231    3.3733 H   0  0  0  0  0  0  0  0  0  0  0  0
    5.4379   -0.1948    4.1229 H   0  0  0  0  0  0  0  0  0  0  0  0
    6.7089    0.3085    2.9996 H   0  0  0  0  0  0  0  0  0  0  0  0
    3.2914    0.4265    4.3440 H   0  0  0  0  0  0  0  0  0  0  0  0
    2.0105    1.5784    4.3883 H   0  0  0  0  0  0  0  0  0  0  0  0
    1.8349    0.1890   -3.6946 H   0  0  0  0  0  0  0  0  0  0  0  0
    1.2834    1.2800   -5.8232 H   0  0  0  0  0  0  0  0  0  0  0  0
   -1.0502    2.0108   -6.2742 H   0  0  0  0  0  0  0  0  0  0  0  0
   -2.8057    1.6375   -4.5744 H   0  0  0  0  0  0  0  0  0  0  0  0
   -3.2850   -2.3614   -0.1498 H   0  0  0  0  0  0  0  0  0  0  0  0
  1  2  1  0
  2  3  2  0
  3  4  1  0
  4  5  2  0
  5  6  1  0
  5  7  1  0
  7  8  1  0
  8  9  2  0
  9 10  1  0
 10 11  1  0
 11 12  2  0
 11 13  1  0
 13 14  1  0
 14 15  1  0
 15 16  1  0
 16 17  1  0
 16 18  2  0
 18 19  1  0
 18 20  1  0
 20 21  1  0
 21 22  1  0
 21 23  2  0
 10 24  2  0
 24 25  1  0
 25 26  2  0
 26 27  1  0
 27 28  2  0
 28 29  1  0
 29 30  2  0
  7 31  2  0
 31  2  1  0
 30  8  1  0
 20 14  2  0
 29 24  1  0
  1 32  1  0
  1 33  1  0
  1 34  1  0
  3 35  1  0
  4 36  1  0
  6 37  1  0
  6 38  1  0
  6 39  1  0
  9 40  1  0
 13 41  1  0
 17 42  1  0
 17 43  1  0
 17 44  1  0
 19 45  1  0
 19 46  1  0
 19 47  1  0
 22 48  1  0
 22 49  1  0
 25 50  1  0
 26 51  1  0
 27 52  1  0
 28 53  1  0
 31 54  1  0
M  END
$$$$
