
     RDKit          3D

 56 61  0  0  0  0  0  0  0  0999 V2000
    5.8689   -0.8802    0.7487 C   0  0  0  0  0  0  0  0  0  0  0  0
    4.6409   -0.6150   -0.0699 C   0  0  0  0  0  0  0  0  0  0  0  0
    4.7261   -0.2320   -1.4221 C   0  0  0  0  0  0  0  0  0  0  0  0
    6.2574   -0.0422   -2.2054 Cl  0  0  0  0  0  0  0  0  0  0  0  0
    3.5736    0.0173   -2.1937 C   0  0  0  0  0  0  0  0  0  0  0  0
    2.2994   -0.1095   -1.6397 C   0  0  0  0  0  0  0  0  0  0  0  0
    2.2030   -0.4831   -0.3085 C   0  0  0  0  0  0  0  0  0  0  0  0
    3.3576   -0.7290    0.4511 C   0  0  0  0  0  0  0  0  0  0  0  0
    2.9950   -1.0788    1.7496 N   0  0  0  0  0  0  0  0  0  0  0  0
    1.6081   -1.0966    1.9209 C   0  0  0  0  0  0  0  0  0  0  0  0
    1.0465   -1.3603    2.9732 O   0  0  0  0  0  0  0  0  0  0  0  0
    0.9898   -0.7054    0.5519 C   0  0  0  0  0  0  0  0  0  0  0  0
    0.0452   -1.7499    0.0475 N   0  0  0  0  0  0  0  0  0  0  0  0
   -1.3664   -1.2711    0.3081 C   0  0  2  0  0  0  0  0  0  0  0  0
   -2.3455   -1.6374   -0.8229 C   0  0  0  0  0  0  0  0  0  0  0  0
   -2.5038   -3.1239   -1.0493 C   0  0  0  0  0  0  0  0  0  0  0  0
   -3.1012   -3.9335   -0.0733 C   0  0  0  0  0  0  0  0  0  0  0  0
   -3.2487   -5.3054   -0.2840 C   0  0  0  0  0  0  0  0  0  0  0  0
   -2.8050   -5.8811   -1.4726 C   0  0  0  0  0  0  0  0  0  0  0  0
   -2.2148   -5.0854   -2.4524 C   0  0  0  0  0  0  0  0  0  0  0  0
   -2.0657   -3.7131   -2.2435 C   0  0  0  0  0  0  0  0  0  0  0  0
   -1.1709    0.1912    0.4642 C   0  0  0  0  0  0  0  0  0  0  0  0
    0.1767    0.5205    0.5943 C   0  0  0  0  0  0  0  0  0  0  0  0
    0.2870    1.8826    0.7213 C   0  0  0  0  0  0  0  0  0  0  0  0
    1.3645    2.6446    0.8930 O   0  0  0  0  0  0  0  0  0  0  0  0
   -1.0221    2.4046    0.7247 N   0  0  0  0  0  0  0  0  0  0  0  0
   -1.3908    3.7665    0.9693 C   0  0  0  0  0  0  0  0  0  0  0  0
   -2.5965    4.0603    1.6297 C   0  0  0  0  0  0  0  0  0  0  0  0
   -2.9606    5.3873    1.8718 C   0  0  0  0  0  0  0  0  0  0  0  0
   -2.1217    6.4157    1.4619 C   0  0  0  0  0  0  0  0  0  0  0  0
   -2.4732    7.6868    1.6945 F   0  0  0  0  0  0  0  0  0  0  0  0
   -0.9205    6.1432    0.8200 C   0  0  0  0  0  0  0  0  0  0  0  0
   -0.5494    4.8178    0.5771 C   0  0  0  0  0  0  0  0  0  0  0  0
   -1.9116    1.3403    0.4712 C   0  0  0  0  0  0  0  0  0  0  0  0
   -3.2150    1.4743    0.2313 O   0  0  0  0  0  0  0  0  0  0  0  0
    6.4557   -1.6900    0.3029 H   0  0  0  0  0  0  0  0  0  0  0  0
    5.6331   -1.1826    1.7726 H   0  0  0  0  0  0  0  0  0  0  0  0
    6.4844    0.0231    0.8131 H   0  0  0  0  0  0  0  0  0  0  0  0
    3.6728    0.3128   -3.2366 H   0  0  0  0  0  0  0  0  0  0  0  0
    1.4144    0.0876   -2.2377 H   0  0  0  0  0  0  0  0  0  0  0  0
    3.6195   -1.3203    2.5043 H   0  0  0  0  0  0  0  0  0  0  0  0
    0.1553   -1.8074   -0.9614 H   0  0  0  0  0  0  0  0  0  0  0  0
   -1.6963   -1.6988    1.2626 H   0  0  0  0  0  0  0  0  0  0  0  0
   -3.3391   -1.2243   -0.6027 H   0  0  0  0  0  0  0  0  0  0  0  0
   -2.0333   -1.1532   -1.7587 H   0  0  0  0  0  0  0  0  0  0  0  0
   -3.4555   -3.5013    0.8600 H   0  0  0  0  0  0  0  0  0  0  0  0
   -3.7092   -5.9245    0.4813 H   0  0  0  0  0  0  0  0  0  0  0  0
   -2.9195   -6.9494   -1.6348 H   0  0  0  0  0  0  0  0  0  0  0  0
   -1.8704   -5.5341   -3.3802 H   0  0  0  0  0  0  0  0  0  0  0  0
   -1.6054   -3.1090   -3.0212 H   0  0  0  0  0  0  0  0  0  0  0  0
    2.1475    2.0668    0.9200 H   0  0  0  0  0  0  0  0  0  0  0  0
   -3.2407    3.2725    2.0161 H   0  0  0  0  0  0  0  0  0  0  0  0
   -3.8834    5.6235    2.3927 H   0  0  0  0  0  0  0  0  0  0  0  0
   -0.2782    6.9621    0.5116 H   0  0  0  0  0  0  0  0  0  0  0  0
    0.3858    4.6345    0.0548 H   0  0  0  0  0  0  0  0  0  0  0  0
   -3.3938    2.3921   -0.0416 H   0  0  0  0  0  0  0  0  0  0  0  0
  1  2  1  0
  2  3  2  0
  3  4  1  0
  3  5  1  0
  5  6  2  0
  6  7  1  0
  7  8  2  0
  8  9  1  0
  9 10  1  0
 10 11  2  0
 10 12  1  0
 12 13  1  0
 13 14  1  0
 14 15  1  0
 15 16  1  0
 16 17  2  0
 17 18  1  0
 18 19  2  0
 19 20  1  0
 20 21  2  0
 14 22  1  0
 22 23  1  0
 23 24  2  0
 24 25  1  0
 24 26  1  0
 26 27  1  0
 27 28  2  0
 28 29  1  0
 29 30  2  0
 30 31  1  0
 30 32  1  0
 32 33  2  0
 26 34  1  0
 34 35  1  0
  8  2  1  0
 23 12  1  0
 33 27  1  0
 12  7  1  0
 21 16  1  0
 34 22  2  0
  1 36  1  0
  1 37  1  0
  1 38  1  0
  5 39  1  0
  6 40  1  0
  9 41  1  0
 13 42  1  0
 14 43  1  1
 15 44  1  0
 15 45  1  0
 17 46  1  0
 18 47  1  0
 19 48  1  0
 20 49  1  0
 21 50  1  0
 25 51  1  0
 28 52  1  0
 29 53  1  0
 32 54  1  0
 33 55  1  0
 35 56  1  0
M  END
$$$$
