
     RDKit          3D

 42 44  0  0  0  0  0  0  0  0999 V2000
   -5.3507   -2.8734    1.3221 C   0  0  0  0  0  0  0  0  0  0  0  0
   -4.7100   -1.6706    0.9188 O   0  0  0  0  0  0  0  0  0  0  0  0
   -5.5049   -0.6413    0.4797 C   0  0  0  0  0  0  0  0  0  0  0  0
   -6.8988   -0.7163    0.3666 C   0  0  0  0  0  0  0  0  0  0  0  0
   -7.6374    0.3878   -0.0674 C   0  0  0  0  0  0  0  0  0  0  0  0
   -6.9930    1.5778   -0.3894 C   0  0  0  0  0  0  0  0  0  0  0  0
   -5.6056    1.6650   -0.2839 C   0  0  0  0  0  0  0  0  0  0  0  0
   -4.8485    0.5603    0.1374 C   0  0  0  0  0  0  0  0  0  0  0  0
   -3.3902    0.7439    0.2319 C   0  0  0  0  0  0  0  0  0  0  0  0
   -2.5194   -0.0677   -0.3862 C   0  0  0  0  0  0  0  0  0  0  0  0
   -1.0678    0.1051   -0.3067 C   0  0  0  0  0  0  0  0  0  0  0  0
   -0.1760   -0.6350   -0.8747 N   0  0  0  0  0  0  0  0  0  0  0  0
    1.0051   -0.0520   -0.4869 C   0  0  0  0  0  0  0  0  0  0  0  0
    2.2057   -0.5165   -0.8605 C   0  0  0  0  0  0  0  0  0  0  0  0
    3.5039    0.0165   -0.5045 C   0  0  0  0  0  0  0  0  0  0  0  0
    4.6507   -0.5171   -0.9560 C   0  0  0  0  0  0  0  0  0  0  0  0
    5.9900   -0.0134   -0.6134 C   0  0  0  0  0  0  0  0  0  0  0  0
    6.2593    1.3505   -0.4372 C   0  0  0  0  0  0  0  0  0  0  0  0
    7.5533    1.7886   -0.1422 C   0  0  0  0  0  0  0  0  0  0  0  0
    8.5940    0.8693   -0.0307 C   0  0  0  0  0  0  0  0  0  0  0  0
    8.3431   -0.4878   -0.2188 C   0  0  0  0  0  0  0  0  0  0  0  0
    7.0493   -0.9258   -0.5140 C   0  0  0  0  0  0  0  0  0  0  0  0
    0.7229    1.1317    0.3766 C   0  0  0  0  0  0  0  0  0  0  0  0
    1.4796    1.9171    0.9100 O   0  0  0  0  0  0  0  0  0  0  0  0
   -0.6369    1.1490    0.4349 O   0  0  0  0  0  0  0  0  0  0  0  0
   -6.0290   -2.6978    2.1636 H   0  0  0  0  0  0  0  0  0  0  0  0
   -5.8726   -3.3428    0.4819 H   0  0  0  0  0  0  0  0  0  0  0  0
   -4.5751   -3.5674    1.6602 H   0  0  0  0  0  0  0  0  0  0  0  0
   -7.4452   -1.6208    0.6124 H   0  0  0  0  0  0  0  0  0  0  0  0
   -8.7193    0.3176   -0.1497 H   0  0  0  0  0  0  0  0  0  0  0  0
   -7.5686    2.4375   -0.7227 H   0  0  0  0  0  0  0  0  0  0  0  0
   -5.1159    2.6019   -0.5416 H   0  0  0  0  0  0  0  0  0  0  0  0
   -3.0638    1.5973    0.8204 H   0  0  0  0  0  0  0  0  0  0  0  0
   -2.8518   -0.9116   -0.9822 H   0  0  0  0  0  0  0  0  0  0  0  0
    2.2105   -1.3958   -1.5035 H   0  0  0  0  0  0  0  0  0  0  0  0
    3.5352    0.8720    0.1661 H   0  0  0  0  0  0  0  0  0  0  0  0
    4.6344   -1.3893   -1.6058 H   0  0  0  0  0  0  0  0  0  0  0  0
    5.4687    2.0906   -0.5355 H   0  0  0  0  0  0  0  0  0  0  0  0
    7.7468    2.8491   -0.0036 H   0  0  0  0  0  0  0  0  0  0  0  0
    9.5998    1.2109    0.1989 H   0  0  0  0  0  0  0  0  0  0  0  0
    9.1535   -1.2072   -0.1364 H   0  0  0  0  0  0  0  0  0  0  0  0
    6.8750   -1.9899   -0.6563 H   0  0  0  0  0  0  0  0  0  0  0  0
  1  2  1  0
  2  3  1  0
  3  4  2  0
  4  5  1  0
  5  6  2  0
  6  7  1  0
  7  8  2  0
  8  9  1  0
  9 10  2  3
 10 11  1  0
 11 12  2  0
 12 13  1  0
 13 14  2  3
 14 15  1  0
 15 16  2  3
 16 17  1  0
 17 18  2  0
 18 19  1  0
 19 20  2  0
 20 21  1  0
 21 22  2  0
 13 23  1  0
 23 24  2  0
 23 25  1  0
  8  3  1  0
 25 11  1  0
 22 17  1  0
  1 26  1  0
  1 27  1  0
  1 28  1  0
  4 29  1  0
  5 30  1  0
  6 31  1  0
  7 32  1  0
  9 33  1  0
 10 34  1  0
 14 35  1  0
 15 36  1  0
 16 37  1  0
 18 38  1  0
 19 39  1  0
 20 40  1  0
 21 41  1  0
 22 42  1  0
M  END
$$$$
