
     RDKit          3D

 49 52  0  0  0  0  0  0  0  0999 V2000
   -5.2360    3.1302    1.6412 C   0  0  0  0  0  0  0  0  0  0  0  0
   -4.1323    2.1277    1.4598 C   0  0  0  0  0  0  0  0  0  0  0  0
   -2.8123    2.5560    1.2751 C   0  0  0  0  0  0  0  0  0  0  0  0
   -1.7734    1.6308    1.1369 C   0  0  0  0  0  0  0  0  0  0  0  0
   -2.0540    0.2615    1.1837 C   0  0  0  0  0  0  0  0  0  0  0  0
   -1.0151   -0.6907    1.0293 N   0  0  0  0  0  0  0  0  0  0  0  0
   -1.0176   -1.8102    0.2000 C   0  0  0  0  0  0  0  0  0  0  0  0
   -2.0163   -2.1058   -0.8780 C   0  0  0  0  0  0  0  0  0  0  0  0
   -2.0396   -1.0608   -1.9621 C   0  0  0  0  0  0  0  0  0  0  0  0
   -3.0339   -0.1431   -2.2524 C   0  0  0  0  0  0  0  0  0  0  0  0
   -2.6856    0.7084   -3.3416 C   0  0  0  0  0  0  0  0  0  0  0  0
   -1.4470    0.4020   -3.8622 C   0  0  0  0  0  0  0  0  0  0  0  0
   -0.7103   -0.9034   -3.0422 S   0  0  0  0  0  0  0  0  0  0  0  0
    0.0795   -2.5159    0.4136 N   0  0  0  0  0  0  0  0  0  0  0  0
    0.8501   -1.8476    1.3181 N   0  0  0  0  0  0  0  0  0  0  0  0
    0.2162   -0.7468    1.6578 C   0  0  0  0  0  0  0  0  0  0  0  0
    0.8067    0.3681    2.8473 S   0  0  0  0  0  0  0  0  0  0  0  0
    2.4598   -0.3166    3.1849 C   0  0  0  0  0  0  0  0  0  0  0  0
    3.4455    0.0557    2.0845 C   0  0  0  0  0  0  0  0  0  0  0  0
    4.1752    1.0378    2.2011 O   0  0  0  0  0  0  0  0  0  0  0  0
    3.4123   -0.8067    1.0011 N   0  0  0  0  0  0  0  0  0  0  0  0
    4.2237   -0.7764   -0.1514 C   0  0  0  0  0  0  0  0  0  0  0  0
    5.3575    0.0363   -0.2881 C   0  0  0  0  0  0  0  0  0  0  0  0
    6.1189    0.0036   -1.4645 C   0  0  0  0  0  0  0  0  0  0  0  0
    5.7432   -0.8371   -2.5036 C   0  0  0  0  0  0  0  0  0  0  0  0
    6.4562   -0.8442   -3.6388 F   0  0  0  0  0  0  0  0  0  0  0  0
    4.6248   -1.6500   -2.3725 C   0  0  0  0  0  0  0  0  0  0  0  0
    4.2625   -2.4616   -3.3762 F   0  0  0  0  0  0  0  0  0  0  0  0
    3.8662   -1.6309   -1.2025 C   0  0  0  0  0  0  0  0  0  0  0  0
   -3.3690   -0.1765    1.3881 C   0  0  0  0  0  0  0  0  0  0  0  0
   -4.3997    0.7553    1.5337 C   0  0  0  0  0  0  0  0  0  0  0  0
   -5.0388    4.0369    1.0559 H   0  0  0  0  0  0  0  0  0  0  0  0
   -6.1954    2.7245    1.2996 H   0  0  0  0  0  0  0  0  0  0  0  0
   -5.3248    3.4003    2.6974 H   0  0  0  0  0  0  0  0  0  0  0  0
   -2.5838    3.6205    1.2300 H   0  0  0  0  0  0  0  0  0  0  0  0
   -0.7675    2.0054    0.9533 H   0  0  0  0  0  0  0  0  0  0  0  0
   -1.7683   -3.0749   -1.3311 H   0  0  0  0  0  0  0  0  0  0  0  0
   -3.0144   -2.2378   -0.4536 H   0  0  0  0  0  0  0  0  0  0  0  0
   -3.9680   -0.0696   -1.7014 H   0  0  0  0  0  0  0  0  0  0  0  0
   -3.3128    1.5061   -3.7246 H   0  0  0  0  0  0  0  0  0  0  0  0
   -0.9323    0.8828   -4.6849 H   0  0  0  0  0  0  0  0  0  0  0  0
    2.8300    0.1065    4.1248 H   0  0  0  0  0  0  0  0  0  0  0  0
    2.4269   -1.4020    3.3250 H   0  0  0  0  0  0  0  0  0  0  0  0
    2.6371   -1.4726    0.9795 H   0  0  0  0  0  0  0  0  0  0  0  0
    5.6808    0.7000    0.5084 H   0  0  0  0  0  0  0  0  0  0  0  0
    7.0015    0.6306   -1.5677 H   0  0  0  0  0  0  0  0  0  0  0  0
    2.9954   -2.2776   -1.1345 H   0  0  0  0  0  0  0  0  0  0  0  0
   -3.6085   -1.2326    1.4879 H   0  0  0  0  0  0  0  0  0  0  0  0
   -5.4133    0.4043    1.7160 H   0  0  0  0  0  0  0  0  0  0  0  0
  1  2  1  0
  2  3  2  0
  3  4  1  0
  4  5  2  0
  5  6  1  0
  6  7  1  0
  7  8  1  0
  8  9  1  0
  9 10  2  0
 10 11  1  0
 11 12  2  0
 12 13  1  0
  7 14  2  0
 14 15  1  0
 15 16  2  0
 16 17  1  0
 17 18  1  0
 18 19  1  0
 19 20  2  0
 19 21  1  0
 21 22  1  0
 22 23  2  0
 23 24  1  0
 24 25  2  0
 25 26  1  0
 25 27  1  0
 27 28  1  0
 27 29  2  0
  5 30  1  0
 30 31  2  0
 31  2  1  0
 16  6  1  0
 29 22  1  0
 13  9  1  0
  1 32  1  0
  1 33  1  0
  1 34  1  0
  3 35  1  0
  4 36  1  0
  8 37  1  0
  8 38  1  0
 10 39  1  0
 11 40  1  0
 12 41  1  0
 18 42  1  0
 18 43  1  0
 21 44  1  0
 23 45  1  0
 24 46  1  0
 29 47  1  0
 30 48  1  0
 31 49  1  0
M  END
$$$$
