
     RDKit          3D

 38 38  0  0  0  0  0  0  0  0999 V2000
    4.2775   -1.5643    0.1519 C   0  0  0  0  0  0  0  0  0  0  0  0
    4.6150   -0.5415   -0.9176 C   0  0  0  0  0  0  0  0  0  0  0  0
    3.5564   -0.4704   -1.8856 O   0  0  0  0  0  0  0  0  0  0  0  0
    2.5210    0.3607   -1.5737 C   0  0  0  0  0  0  0  0  0  0  0  0
    2.4335    1.0203   -0.5492 O   0  0  0  0  0  0  0  0  0  0  0  0
    1.4970    0.3129   -2.6683 C   0  0  0  0  0  0  0  0  0  0  0  0
    0.2314    1.0706   -2.3613 C   0  0  0  0  0  0  0  0  0  0  0  0
   -0.1112    2.0248   -3.0607 O   0  0  0  0  0  0  0  0  0  0  0  0
   -0.6518    0.6420   -1.2294 C   0  0  0  0  0  0  0  0  0  0  0  0
   -1.6920    1.5064   -0.8496 C   0  0  0  0  0  0  0  0  0  0  0  0
   -2.5569    1.1646    0.1905 C   0  0  0  0  0  0  0  0  0  0  0  0
   -3.6013    1.9366    0.6285 O   0  0  0  0  0  0  0  0  0  0  0  0
   -3.8715    3.1388   -0.0808 C   0  0  0  0  0  0  0  0  0  0  0  0
   -2.3573   -0.0534    0.8612 C   0  0  0  0  0  0  0  0  0  0  0  0
   -3.2273   -0.4237    1.8636 O   0  0  0  0  0  0  0  0  0  0  0  0
   -2.7522    0.0596    3.1189 C   0  0  0  0  0  0  0  0  0  0  0  0
   -1.3326   -0.9387    0.4830 C   0  0  0  0  0  0  0  0  0  0  0  0
   -1.2511   -2.1074    1.1957 O   0  0  0  0  0  0  0  0  0  0  0  0
   -0.1978   -3.0068    0.8813 C   0  0  0  0  0  0  0  0  0  0  0  0
   -0.4824   -0.5829   -0.5674 C   0  0  0  0  0  0  0  0  0  0  0  0
    5.1025   -1.6713    0.8617 H   0  0  0  0  0  0  0  0  0  0  0  0
    3.3779   -1.2743    0.7037 H   0  0  0  0  0  0  0  0  0  0  0  0
    4.0717   -2.5399   -0.3007 H   0  0  0  0  0  0  0  0  0  0  0  0
    5.5173   -0.8535   -1.4535 H   0  0  0  0  0  0  0  0  0  0  0  0
    4.8217    0.4427   -0.4825 H   0  0  0  0  0  0  0  0  0  0  0  0
    1.2398   -0.7245   -2.9057 H   0  0  0  0  0  0  0  0  0  0  0  0
    1.9476    0.7605   -3.5621 H   0  0  0  0  0  0  0  0  0  0  0  0
   -1.8051    2.4449   -1.3848 H   0  0  0  0  0  0  0  0  0  0  0  0
   -3.0402    3.8453    0.0126 H   0  0  0  0  0  0  0  0  0  0  0  0
   -4.1046    2.9361   -1.1316 H   0  0  0  0  0  0  0  0  0  0  0  0
   -4.7534    3.6023    0.3716 H   0  0  0  0  0  0  0  0  0  0  0  0
   -1.7763   -0.3714    3.3687 H   0  0  0  0  0  0  0  0  0  0  0  0
   -3.4650   -0.2521    3.8884 H   0  0  0  0  0  0  0  0  0  0  0  0
   -2.6973    1.1537    3.1334 H   0  0  0  0  0  0  0  0  0  0  0  0
   -0.2715   -3.8599    1.5621 H   0  0  0  0  0  0  0  0  0  0  0  0
   -0.2964   -3.3872   -0.1405 H   0  0  0  0  0  0  0  0  0  0  0  0
    0.7805   -2.5404    1.0372 H   0  0  0  0  0  0  0  0  0  0  0  0
    0.3042   -1.2593   -0.8739 H   0  0  0  0  0  0  0  0  0  0  0  0
  1  2  1  0
  2  3  1  0
  3  4  1  0
  4  5  2  0
  4  6  1  0
  6  7  1  0
  7  8  2  0
  7  9  1  0
  9 10  2  0
 10 11  1  0
 11 12  1  0
 12 13  1  0
 11 14  2  0
 14 15  1  0
 15 16  1  0
 14 17  1  0
 17 18  1  0
 18 19  1  0
 17 20  2  0
 20  9  1  0
  1 21  1  0
  1 22  1  0
  1 23  1  0
  2 24  1  0
  2 25  1  0
  6 26  1  0
  6 27  1  0
 10 28  1  0
 13 29  1  0
 13 30  1  0
 13 31  1  0
 16 32  1  0
 16 33  1  0
 16 34  1  0
 19 35  1  0
 19 36  1  0
 19 37  1  0
 20 38  1  0
M  END
$$$$
