
     RDKit          3D

 56 58  0  0  0  0  0  0  0  0999 V2000
    7.7108    3.1011    1.5062 C   0  0  0  0  0  0  0  0  0  0  0  0
    6.8663    2.0596    1.9792 O   0  0  0  0  0  0  0  0  0  0  0  0
    6.4340    1.1474    1.0565 C   0  0  0  0  0  0  0  0  0  0  0  0
    6.7447    1.1436   -0.3032 C   0  0  0  0  0  0  0  0  0  0  0  0
    6.2317    0.1460   -1.1409 C   0  0  0  0  0  0  0  0  0  0  0  0
    5.4076   -0.8647   -0.6285 C   0  0  0  0  0  0  0  0  0  0  0  0
    4.8333   -1.9239   -1.5320 C   0  0  0  0  0  0  0  0  0  0  0  0
    3.5541   -1.5172   -2.0506 N   0  0  0  0  0  0  0  0  0  0  0  0
    2.3697   -1.8734   -1.4521 C   0  0  0  0  0  0  0  0  0  0  0  0
    2.2285   -2.6645   -0.5300 O   0  0  0  0  0  0  0  0  0  0  0  0
    1.1387   -1.1573   -2.0540 C   0  0  0  0  0  0  0  0  0  0  0  0
    1.2712   -0.4214   -3.0213 O   0  0  0  0  0  0  0  0  0  0  0  0
   -0.0392   -1.4471   -1.4074 N   0  0  0  0  0  0  0  0  0  0  0  0
   -1.3311   -1.0609   -1.9507 C   0  0  0  0  0  0  0  0  0  0  0  0
   -2.4438   -1.1068   -0.8856 C   0  0  0  0  0  0  0  0  0  0  0  0
   -2.5023   -2.4418   -0.3259 O   0  0  0  0  0  0  0  0  0  0  0  0
   -3.6413   -3.0851   -0.9102 C   0  0  0  0  0  0  0  0  0  0  0  0
   -4.6366   -1.9636   -1.1028 C   0  0  0  0  0  0  0  0  0  0  0  0
   -3.7610   -0.8563   -1.4791 N   0  0  0  0  0  0  0  0  0  0  0  0
   -4.3522    0.7087   -1.5050 S   0  0  0  0  0  6  0  0  0  0  0  0
   -3.2793    1.5756   -1.9417 O   0  0  0  0  0  0  0  0  0  0  0  0
   -5.6215    0.6818   -2.2009 O   0  0  0  0  0  0  0  0  0  0  0  0
   -4.6886    1.0905    0.2009 C   0  0  0  0  0  0  0  0  0  0  0  0
   -3.7155    1.7284    0.9748 C   0  0  0  0  0  0  0  0  0  0  0  0
   -3.9949    2.0533    2.3034 C   0  0  0  0  0  0  0  0  0  0  0  0
   -5.2455    1.7541    2.8605 C   0  0  0  0  0  0  0  0  0  0  0  0
   -5.5537    2.1402    4.2779 C   0  0  0  0  0  0  0  0  0  0  0  0
   -6.2282    1.1567    2.0601 C   0  0  0  0  0  0  0  0  0  0  0  0
   -5.9549    0.8284    0.7311 C   0  0  0  0  0  0  0  0  0  0  0  0
    5.0905   -0.8488    0.7350 C   0  0  0  0  0  0  0  0  0  0  0  0
    5.6042    0.1477    1.5680 C   0  0  0  0  0  0  0  0  0  0  0  0
    7.9643    3.7388    2.3585 H   0  0  0  0  0  0  0  0  0  0  0  0
    8.6456    2.6984    1.1021 H   0  0  0  0  0  0  0  0  0  0  0  0
    7.1949    3.7231    0.7670 H   0  0  0  0  0  0  0  0  0  0  0  0
    7.3802    1.9030   -0.7460 H   0  0  0  0  0  0  0  0  0  0  0  0
    6.4812    0.1662   -2.1995 H   0  0  0  0  0  0  0  0  0  0  0  0
    4.7415   -2.8748   -0.9947 H   0  0  0  0  0  0  0  0  0  0  0  0
    5.4968   -2.0961   -2.3865 H   0  0  0  0  0  0  0  0  0  0  0  0
    3.5030   -0.7636   -2.7300 H   0  0  0  0  0  0  0  0  0  0  0  0
   -0.0017   -2.2124   -0.7352 H   0  0  0  0  0  0  0  0  0  0  0  0
   -1.2474   -0.0649   -2.3970 H   0  0  0  0  0  0  0  0  0  0  0  0
   -1.5460   -1.7682   -2.7606 H   0  0  0  0  0  0  0  0  0  0  0  0
   -2.2102   -0.4354   -0.0561 H   0  0  0  0  0  0  0  0  0  0  0  0
   -3.3370   -3.5290   -1.8647 H   0  0  0  0  0  0  0  0  0  0  0  0
   -4.0088   -3.8743   -0.2492 H   0  0  0  0  0  0  0  0  0  0  0  0
   -5.3711   -2.1994   -1.8760 H   0  0  0  0  0  0  0  0  0  0  0  0
   -5.1439   -1.7570   -0.1566 H   0  0  0  0  0  0  0  0  0  0  0  0
   -2.7459    1.9860    0.5541 H   0  0  0  0  0  0  0  0  0  0  0  0
   -3.2335    2.5514    2.9009 H   0  0  0  0  0  0  0  0  0  0  0  0
   -5.9482    3.1604    4.3101 H   0  0  0  0  0  0  0  0  0  0  0  0
   -6.2921    1.4608    4.7162 H   0  0  0  0  0  0  0  0  0  0  0  0
   -4.6544    2.0874    4.9004 H   0  0  0  0  0  0  0  0  0  0  0  0
   -7.2170    0.9531    2.4666 H   0  0  0  0  0  0  0  0  0  0  0  0
   -6.7341    0.3808    0.1181 H   0  0  0  0  0  0  0  0  0  0  0  0
    4.4365   -1.6107    1.1558 H   0  0  0  0  0  0  0  0  0  0  0  0
    5.3518    0.1463    2.6255 H   0  0  0  0  0  0  0  0  0  0  0  0
  1  2  1  0
  2  3  1  0
  3  4  2  0
  4  5  1  0
  5  6  2  0
  6  7  1  0
  7  8  1  0
  8  9  1  0
  9 10  2  0
  9 11  1  0
 11 12  2  0
 11 13  1  0
 13 14  1  0
 14 15  1  0
 15 16  1  0
 16 17  1  0
 17 18  1  0
 18 19  1  0
 19 20  1  0
 20 21  2  0
 20 22  2  0
 20 23  1  0
 23 24  2  0
 24 25  1  0
 25 26  2  0
 26 27  1  0
 26 28  1  0
 28 29  2  0
  6 30  1  0
 30 31  2  0
 31  3  1  0
 19 15  1  0
 29 23  1  0
  1 32  1  0
  1 33  1  0
  1 34  1  0
  4 35  1  0
  5 36  1  0
  7 37  1  0
  7 38  1  0
  8 39  1  0
 13 40  1  0
 14 41  1  0
 14 42  1  0
 15 43  1  0
 17 44  1  0
 17 45  1  0
 18 46  1  0
 18 47  1  0
 24 48  1  0
 25 49  1  0
 27 50  1  0
 27 51  1  0
 27 52  1  0
 28 53  1  0
 29 54  1  0
 30 55  1  0
 31 56  1  0
M  END
$$$$
