
     RDKit          3D

 61 65  0  0  0  0  0  0  0  0999 V2000
   -8.0635    2.5859   -4.0813 C   0  0  0  0  0  0  0  0  0  0  0  0
   -7.1727    1.7763   -3.1871 C   0  0  0  0  0  0  0  0  0  0  0  0
   -5.7827    1.8482   -3.2982 C   0  0  0  0  0  0  0  0  0  0  0  0
   -4.9614    1.0958   -2.4492 C   0  0  0  0  0  0  0  0  0  0  0  0
   -5.5012    0.2557   -1.4585 C   0  0  0  0  0  0  0  0  0  0  0  0
   -4.6510   -0.5423   -0.5495 C   0  0  0  0  0  0  0  0  0  0  0  0
   -3.3883   -0.1437   -0.1495 C   0  0  0  0  0  0  0  0  0  0  0  0
   -2.6644   -0.9814    0.6994 C   0  0  0  0  0  0  0  0  0  0  0  0
   -1.2943   -0.5411    1.0414 C   0  0  0  0  0  0  0  0  0  0  0  0
   -1.1601    0.5247    1.6249 O   0  0  0  0  0  0  0  0  0  0  0  0
   -0.3075   -1.3940    0.5856 N   0  0  0  0  0  0  0  0  0  0  0  0
    1.0845   -1.2574    0.7567 C   0  0  0  0  0  0  0  0  0  0  0  0
    1.9010   -2.2120    0.1328 C   0  0  0  0  0  0  0  0  0  0  0  0
    3.2925   -2.1499    0.2515 C   0  0  0  0  0  0  0  0  0  0  0  0
    3.8736   -1.1241    0.9997 C   0  0  0  0  0  0  0  0  0  0  0  0
    5.6367   -1.0540    1.1931 S   0  0  0  0  0  6  0  0  0  0  0  0
    6.1793   -2.3153    0.7259 O   0  0  0  0  0  0  0  0  0  0  0  0
    5.9373   -0.5700    2.5210 O   0  0  0  0  0  0  0  0  0  0  0  0
    6.0731    0.0705    0.0163 N   0  0  0  0  0  0  0  0  0  0  0  0
    6.3828    1.3980    0.5158 C   0  0  0  0  0  0  0  0  0  0  0  0
    5.6025    2.1061    1.3738 O   0  0  0  0  0  0  0  0  0  0  0  0
    6.1689    3.3428    1.6095 N   0  0  0  0  0  0  0  0  0  0  0  0
    7.2946    3.3673    0.8880 C   0  0  0  0  0  0  0  0  0  0  0  0
    8.1720    4.5624    0.9233 C   0  0  0  0  0  0  0  0  0  0  0  0
    7.4754    2.1575    0.1574 C   0  0  0  0  0  0  0  0  0  0  0  0
    8.5802    1.8124   -0.7649 C   0  0  0  0  0  0  0  0  0  0  0  0
    3.0722   -0.1806    1.6451 C   0  0  0  0  0  0  0  0  0  0  0  0
    1.6804   -0.2458    1.5150 C   0  0  0  0  0  0  0  0  0  0  0  0
   -3.2108   -2.1861    1.1870 C   0  0  0  0  0  0  0  0  0  0  0  0
   -2.5711   -3.0610    2.1027 C   0  0  0  0  0  0  0  0  0  0  0  0
   -3.1901   -4.2367    2.5224 C   0  0  0  0  0  0  0  0  0  0  0  0
   -4.4531   -4.5512    2.0428 C   0  0  0  0  0  0  0  0  0  0  0  0
   -5.0918   -3.6824    1.1548 C   0  0  0  0  0  0  0  0  0  0  0  0
   -4.4988   -2.5031    0.7236 C   0  0  0  0  0  0  0  0  0  0  0  0
   -5.1857   -1.7137   -0.1197 N   0  0  0  0  0  0  0  0  0  0  0  0
   -6.9034    0.1964   -1.3648 C   0  0  0  0  0  0  0  0  0  0  0  0
   -7.7280    0.9456   -2.2111 C   0  0  0  0  0  0  0  0  0  0  0  0
   -7.4927    3.0796   -4.8749 H   0  0  0  0  0  0  0  0  0  0  0  0
   -8.8071    1.9417   -4.5605 H   0  0  0  0  0  0  0  0  0  0  0  0
   -8.5776    3.3584   -3.5007 H   0  0  0  0  0  0  0  0  0  0  0  0
   -5.3236    2.4877   -4.0495 H   0  0  0  0  0  0  0  0  0  0  0  0
   -3.8859    1.1687   -2.5897 H   0  0  0  0  0  0  0  0  0  0  0  0
   -2.9605    0.7995   -0.4728 H   0  0  0  0  0  0  0  0  0  0  0  0
   -0.6127   -2.1921    0.0403 H   0  0  0  0  0  0  0  0  0  0  0  0
    1.4667   -3.0176   -0.4554 H   0  0  0  0  0  0  0  0  0  0  0  0
    3.9067   -2.9038   -0.2363 H   0  0  0  0  0  0  0  0  0  0  0  0
    6.7260   -0.3382   -0.6477 H   0  0  0  0  0  0  0  0  0  0  0  0
    7.7560    5.3514    1.5593 H   0  0  0  0  0  0  0  0  0  0  0  0
    8.3013    4.9725   -0.0834 H   0  0  0  0  0  0  0  0  0  0  0  0
    9.1589    4.2948    1.3177 H   0  0  0  0  0  0  0  0  0  0  0  0
    8.2687    1.9689   -1.8018 H   0  0  0  0  0  0  0  0  0  0  0  0
    8.8796    0.7659   -0.6484 H   0  0  0  0  0  0  0  0  0  0  0  0
    9.4645    2.4301   -0.5781 H   0  0  0  0  0  0  0  0  0  0  0  0
    3.5141    0.6065    2.2540 H   0  0  0  0  0  0  0  0  0  0  0  0
    1.0885    0.5057    2.0303 H   0  0  0  0  0  0  0  0  0  0  0  0
   -1.5915   -2.8221    2.5143 H   0  0  0  0  0  0  0  0  0  0  0  0
   -2.6914   -4.8963    3.2283 H   0  0  0  0  0  0  0  0  0  0  0  0
   -4.9520   -5.4619    2.3641 H   0  0  0  0  0  0  0  0  0  0  0  0
   -6.0878   -3.9296    0.7928 H   0  0  0  0  0  0  0  0  0  0  0  0
   -7.3683   -0.4428   -0.6147 H   0  0  0  0  0  0  0  0  0  0  0  0
   -8.8070    0.8731   -2.0998 H   0  0  0  0  0  0  0  0  0  0  0  0
  1  2  1  0
  2  3  2  0
  3  4  1  0
  4  5  2  0
  5  6  1  0
  6  7  2  0
  7  8  1  0
  8  9  1  0
  9 10  2  0
  9 11  1  0
 11 12  1  0
 12 13  2  0
 13 14  1  0
 14 15  2  0
 15 16  1  0
 16 17  2  0
 16 18  2  0
 16 19  1  0
 19 20  1  0
 20 21  1  0
 21 22  1  0
 22 23  2  0
 23 24  1  0
 23 25  1  0
 25 26  1  0
 15 27  1  0
 27 28  2  0
  8 29  2  0
 29 30  1  0
 30 31  2  0
 31 32  1  0
 32 33  2  0
 33 34  1  0
 34 35  2  0
  5 36  1  0
 36 37  2  0
 37  2  1  0
 35  6  1  0
 28 12  1  0
 34 29  1  0
 25 20  2  0
  1 38  1  0
  1 39  1  0
  1 40  1  0
  3 41  1  0
  4 42  1  0
  7 43  1  0
 11 44  1  0
 13 45  1  0
 14 46  1  0
 19 47  1  0
 24 48  1  0
 24 49  1  0
 24 50  1  0
 26 51  1  0
 26 52  1  0
 26 53  1  0
 27 54  1  0
 28 55  1  0
 30 56  1  0
 31 57  1  0
 32 58  1  0
 33 59  1  0
 36 60  1  0
 37 61  1  0
M  END
$$$$
