
     RDKit          3D

 46 49  0  0  0  0  0  0  0  0999 V2000
    1.4648    2.2241    1.2595 O   0  0  0  0  0  0  0  0  0  0  0  0
    1.4701    1.0128    1.0590 C   0  0  0  0  0  0  0  0  0  0  0  0
    0.2912    0.1560    1.4859 C   0  0  0  0  0  0  0  0  0  0  0  0
   -0.2767   -0.5812    0.3724 N   0  0  0  0  0  0  0  0  0  0  0  0
   -1.0599   -0.0642   -0.6402 C   0  0  0  0  0  0  0  0  0  0  0  0
   -1.5347    1.3543   -0.7131 C   0  0  0  0  0  0  0  0  0  0  0  0
   -2.2749    1.6684    0.4688 O   0  0  0  0  0  0  0  0  0  0  0  0
   -3.6220    1.4339    0.4704 C   0  0  0  0  0  0  0  0  0  0  0  0
   -4.3219    2.0658    1.5024 C   0  0  0  0  0  0  0  0  0  0  0  0
   -5.7025    1.9036    1.6298 C   0  0  0  0  0  0  0  0  0  0  0  0
   -6.3920    1.0983    0.7271 C   0  0  0  0  0  0  0  0  0  0  0  0
   -5.6988    0.4551   -0.2967 C   0  0  0  0  0  0  0  0  0  0  0  0
   -4.3159    0.6193   -0.4245 C   0  0  0  0  0  0  0  0  0  0  0  0
   -1.3129   -0.9914   -1.5458 N   0  0  0  0  0  0  0  0  0  0  0  0
   -0.7187   -2.1391   -1.0933 C   0  0  0  0  0  0  0  0  0  0  0  0
   -0.6907   -3.4147   -1.6749 C   0  0  0  0  0  0  0  0  0  0  0  0
   -0.0040   -4.4411   -1.0172 C   0  0  0  0  0  0  0  0  0  0  0  0
    0.6397   -4.2024    0.1973 C   0  0  0  0  0  0  0  0  0  0  0  0
    0.6221   -2.9356    0.7929 C   0  0  0  0  0  0  0  0  0  0  0  0
   -0.0672   -1.9198    0.1161 C   0  0  0  0  0  0  0  0  0  0  0  0
    2.5072    0.2973    0.4850 N   0  0  0  0  0  0  0  0  0  0  0  0
    3.7414    0.7863   -0.0086 C   0  0  0  0  0  0  0  0  0  0  0  0
    4.1234    2.1293    0.0617 C   0  0  0  0  0  0  0  0  0  0  0  0
    5.3607    2.5472   -0.4495 C   0  0  0  0  0  0  0  0  0  0  0  0
    5.7571    4.2252   -0.3224 Cl  0  0  0  0  0  0  0  0  0  0  0  0
    6.2289    1.6204   -1.0364 C   0  0  0  0  0  0  0  0  0  0  0  0
    7.7663    2.0686   -1.6836 Cl  0  0  0  0  0  0  0  0  0  0  0  0
    5.8618    0.2769   -1.1111 C   0  0  0  0  0  0  0  0  0  0  0  0
    4.6293   -0.1336   -0.6002 C   0  0  0  0  0  0  0  0  0  0  0  0
    4.2232   -1.8138   -0.7097 Cl  0  0  0  0  0  0  0  0  0  0  0  0
    0.6187   -0.5451    2.2594 H   0  0  0  0  0  0  0  0  0  0  0  0
   -0.4895    0.7807    1.9265 H   0  0  0  0  0  0  0  0  0  0  0  0
   -0.6680    2.0235   -0.7435 H   0  0  0  0  0  0  0  0  0  0  0  0
   -2.1073    1.5540   -1.6263 H   0  0  0  0  0  0  0  0  0  0  0  0
   -3.7881    2.6952    2.2100 H   0  0  0  0  0  0  0  0  0  0  0  0
   -6.2364    2.4046    2.4327 H   0  0  0  0  0  0  0  0  0  0  0  0
   -7.4665    0.9673    0.8232 H   0  0  0  0  0  0  0  0  0  0  0  0
   -6.2325   -0.1832   -0.9966 H   0  0  0  0  0  0  0  0  0  0  0  0
   -3.8133    0.0817   -1.2230 H   0  0  0  0  0  0  0  0  0  0  0  0
   -1.1956   -3.5921   -2.6180 H   0  0  0  0  0  0  0  0  0  0  0  0
    0.0234   -5.4347   -1.4586 H   0  0  0  0  0  0  0  0  0  0  0  0
    1.1630   -5.0186    0.6922 H   0  0  0  0  0  0  0  0  0  0  0  0
    1.1211   -2.7700    1.7415 H   0  0  0  0  0  0  0  0  0  0  0  0
    2.3651   -0.7001    0.3348 H   0  0  0  0  0  0  0  0  0  0  0  0
    3.4784    2.8788    0.5105 H   0  0  0  0  0  0  0  0  0  0  0  0
    6.5331   -0.4478   -1.5655 H   0  0  0  0  0  0  0  0  0  0  0  0
  1  2  2  0
  2  3  1  0
  3  4  1  0
  4  5  1  0
  5  6  1  0
  6  7  1  0
  7  8  1  0
  8  9  2  0
  9 10  1  0
 10 11  2  0
 11 12  1  0
 12 13  2  0
  5 14  2  0
 14 15  1  0
 15 16  2  0
 16 17  1  0
 17 18  2  0
 18 19  1  0
 19 20  2  0
  2 21  1  0
 21 22  1  0
 22 23  2  0
 23 24  1  0
 24 25  1  0
 24 26  2  0
 26 27  1  0
 26 28  1  0
 28 29  2  0
 29 30  1  0
 20  4  1  0
 29 22  1  0
 13  8  1  0
 20 15  1  0
  3 31  1  0
  3 32  1  0
  6 33  1  0
  6 34  1  0
  9 35  1  0
 10 36  1  0
 11 37  1  0
 12 38  1  0
 13 39  1  0
 16 40  1  0
 17 41  1  0
 18 42  1  0
 19 43  1  0
 21 44  1  0
 23 45  1  0
 28 46  1  0
M  END
$$$$
