
     RDKit          3D

 34 35  0  0  0  0  0  0  0  0999 V2000
    5.3902   -0.7012    1.5087 C   0  0  0  0  0  0  0  0  0  0  0  0
    4.7820    0.6533    1.1916 C   0  0  0  0  0  0  0  0  0  0  0  0
    3.3411    0.5816    1.0244 N   0  0  0  0  0  0  0  0  0  0  0  0
    2.5610    0.6859    2.1178 N   0  0  0  0  0  0  0  0  0  0  0  0
    1.3221    0.6082    1.6322 C   0  0  0  0  0  0  0  0  0  0  0  0
    1.2984    0.4455    0.2315 C   0  0  0  0  0  0  0  0  0  0  0  0
    0.1789    0.3297   -0.6459 C   0  0  0  0  0  0  0  0  0  0  0  0
   -1.1080    0.2830   -0.2654 C   0  0  0  0  0  0  0  0  0  0  0  0
   -2.1757    0.1725   -1.2969 C   0  0  0  0  0  0  0  0  0  0  0  0
   -1.9390    0.3165   -2.4920 O   0  0  0  0  0  0  0  0  0  0  0  0
   -3.5673   -0.0810   -0.8365 C   0  0  0  0  0  0  0  0  0  0  0  0
   -4.6197    0.4087   -1.6216 C   0  0  0  0  0  0  0  0  0  0  0  0
   -5.9442    0.1945   -1.2366 C   0  0  0  0  0  0  0  0  0  0  0  0
   -6.2240   -0.5186   -0.0720 C   0  0  0  0  0  0  0  0  0  0  0  0
   -5.1821   -1.0251    0.7046 C   0  0  0  0  0  0  0  0  0  0  0  0
   -3.8546   -0.8124    0.3233 C   0  0  0  0  0  0  0  0  0  0  0  0
    2.6307    0.4230   -0.1441 C   0  0  0  0  0  0  0  0  0  0  0  0
    3.2870    0.2777   -1.4704 C   0  0  0  0  0  0  0  0  0  0  0  0
    4.9772   -1.1122    2.4360 H   0  0  0  0  0  0  0  0  0  0  0  0
    5.1926   -1.4218    0.7084 H   0  0  0  0  0  0  0  0  0  0  0  0
    6.4743   -0.6121    1.6283 H   0  0  0  0  0  0  0  0  0  0  0  0
    5.2138    1.0685    0.2756 H   0  0  0  0  0  0  0  0  0  0  0  0
    4.9854    1.3648    2.0000 H   0  0  0  0  0  0  0  0  0  0  0  0
    0.4944    0.6768    2.3251 H   0  0  0  0  0  0  0  0  0  0  0  0
    0.3945    0.2748   -1.7123 H   0  0  0  0  0  0  0  0  0  0  0  0
   -1.4015    0.3434    0.7735 H   0  0  0  0  0  0  0  0  0  0  0  0
   -4.4094    0.9605   -2.5362 H   0  0  0  0  0  0  0  0  0  0  0  0
   -6.7560    0.5804   -1.8483 H   0  0  0  0  0  0  0  0  0  0  0  0
   -7.2562   -0.6883    0.2254 H   0  0  0  0  0  0  0  0  0  0  0  0
   -5.4052   -1.5949    1.6036 H   0  0  0  0  0  0  0  0  0  0  0  0
   -3.0655   -1.2468    0.9303 H   0  0  0  0  0  0  0  0  0  0  0  0
    3.6791    1.2427   -1.8070 H   0  0  0  0  0  0  0  0  0  0  0  0
    2.5910   -0.0872   -2.2309 H   0  0  0  0  0  0  0  0  0  0  0  0
    4.1147   -0.4371   -1.4241 H   0  0  0  0  0  0  0  0  0  0  0  0
  1  2  1  0
  2  3  1  0
  3  4  1  0
  4  5  2  0
  5  6  1  0
  6  7  1  0
  7  8  2  3
  8  9  1  0
  9 10  2  0
  9 11  1  0
 11 12  2  0
 12 13  1  0
 13 14  2  0
 14 15  1  0
 15 16  2  0
  6 17  2  0
 17 18  1  0
 17  3  1  0
 16 11  1  0
  1 19  1  0
  1 20  1  0
  1 21  1  0
  2 22  1  0
  2 23  1  0
  5 24  1  0
  7 25  1  0
  8 26  1  0
 12 27  1  0
 13 28  1  0
 14 29  1  0
 15 30  1  0
 16 31  1  0
 18 32  1  0
 18 33  1  0
 18 34  1  0
M  END
$$$$
