
     RDKit          3D

 34 35  0  0  0  0  0  0  0  0999 V2000
    2.1601    2.0048   -1.3866 C   0  0  0  0  0  0  0  0  0  0  0  0
    0.8309    1.4290   -1.4936 N   0  0  0  0  0  0  0  0  0  0  0  0
    0.4017    0.5557   -0.6447 C   0  0  0  0  0  0  0  0  0  0  0  0
    1.1943   -0.0583    0.4597 C   0  0  0  0  0  0  0  0  0  0  0  0
    2.4105   -0.6927    0.1821 C   0  0  0  0  0  0  0  0  0  0  0  0
    3.1392   -1.2856    1.2140 C   0  0  0  0  0  0  0  0  0  0  0  0
    2.6522   -1.2504    2.5207 C   0  0  0  0  0  0  0  0  0  0  0  0
    1.4354   -0.6269    2.7984 C   0  0  0  0  0  0  0  0  0  0  0  0
    0.7027   -0.0330    1.7693 C   0  0  0  0  0  0  0  0  0  0  0  0
   -1.0294    0.1308   -0.7623 C   0  0  0  0  0  0  0  0  0  0  0  0
   -2.0464    1.0762   -0.4980 C   0  0  0  0  0  0  0  0  0  0  0  0
   -1.7399    2.5094   -0.1576 C   0  0  0  0  0  0  0  0  0  0  0  0
   -3.3865    0.6733   -0.5900 C   0  0  0  0  0  0  0  0  0  0  0  0
   -3.7126   -0.6398   -0.9216 C   0  0  0  0  0  0  0  0  0  0  0  0
   -2.7052   -1.5646   -1.1895 C   0  0  0  0  0  0  0  0  0  0  0  0
   -1.3534   -1.1916   -1.1344 C   0  0  0  0  0  0  0  0  0  0  0  0
   -0.3107   -2.2219   -1.4656 C   0  0  0  0  0  0  0  0  0  0  0  0
    2.4755    2.1694   -0.3515 H   0  0  0  0  0  0  0  0  0  0  0  0
    2.8968    1.3881   -1.9093 H   0  0  0  0  0  0  0  0  0  0  0  0
    2.1567    2.9869   -1.8709 H   0  0  0  0  0  0  0  0  0  0  0  0
    2.7845   -0.7421   -0.8369 H   0  0  0  0  0  0  0  0  0  0  0  0
    4.0839   -1.7783    0.9986 H   0  0  0  0  0  0  0  0  0  0  0  0
    3.2206   -1.7128    3.3242 H   0  0  0  0  0  0  0  0  0  0  0  0
    1.0569   -0.6037    3.8173 H   0  0  0  0  0  0  0  0  0  0  0  0
   -0.2424    0.4510    1.9997 H   0  0  0  0  0  0  0  0  0  0  0  0
   -2.6224    3.0178    0.2462 H   0  0  0  0  0  0  0  0  0  0  0  0
   -0.9616    2.5759    0.6088 H   0  0  0  0  0  0  0  0  0  0  0  0
   -1.4214    3.0514   -1.0534 H   0  0  0  0  0  0  0  0  0  0  0  0
   -4.1885    1.3845   -0.4034 H   0  0  0  0  0  0  0  0  0  0  0  0
   -4.7555   -0.9404   -0.9839 H   0  0  0  0  0  0  0  0  0  0  0  0
   -2.9837   -2.5815   -1.4592 H   0  0  0  0  0  0  0  0  0  0  0  0
   -0.7391   -3.0400   -2.0554 H   0  0  0  0  0  0  0  0  0  0  0  0
    0.4919   -1.7905   -2.0718 H   0  0  0  0  0  0  0  0  0  0  0  0
    0.1048   -2.6501   -0.5487 H   0  0  0  0  0  0  0  0  0  0  0  0
  1  2  1  0
  2  3  2  3
  3  4  1  0
  4  5  2  0
  5  6  1  0
  6  7  2  0
  7  8  1  0
  8  9  2  0
  3 10  1  0
 10 11  2  0
 11 12  1  0
 11 13  1  0
 13 14  2  0
 14 15  1  0
 15 16  2  0
 16 17  1  0
  9  4  1  0
 16 10  1  0
  1 18  1  0
  1 19  1  0
  1 20  1  0
  5 21  1  0
  6 22  1  0
  7 23  1  0
  8 24  1  0
  9 25  1  0
 12 26  1  0
 12 27  1  0
 12 28  1  0
 13 29  1  0
 14 30  1  0
 15 31  1  0
 17 32  1  0
 17 33  1  0
 17 34  1  0
M  END
$$$$
