
     RDKit          3D

 58 62  0  0  0  0  0  0  0  0999 V2000
    7.1590    1.8630   -0.7941 C   0  0  0  0  0  0  0  0  0  0  0  0
    6.1646    1.6454    0.3132 C   0  0  0  0  0  0  0  0  0  0  0  0
    6.1461    2.7417    1.3437 C   0  0  0  0  0  0  0  0  0  0  0  0
    5.3601    0.5694    0.3765 C   0  0  0  0  0  0  0  0  0  0  0  0
    4.2765    0.1701    1.3954 C   0  0  0  0  0  0  0  0  0  0  0  0
    4.9280   -1.1703    1.8178 C   0  0  0  0  0  0  0  0  0  0  0  0
    5.5539   -1.7191    0.4878 C   0  0  0  0  0  0  0  0  0  0  0  0
    5.2017   -0.6365   -0.5631 C   0  0  0  0  0  0  0  0  0  0  0  0
    3.7143   -0.6286   -0.7382 C   0  0  0  0  0  0  0  0  0  0  0  0
    3.1561   -0.1401    0.4562 C   0  0  0  0  0  0  0  0  0  0  0  0
    1.8003   -0.1258    0.3391 C   0  0  0  0  0  0  0  0  0  0  0  0
    0.8843    0.2555    1.2316 O   0  0  0  0  0  0  0  0  0  0  0  0
    1.4861   -0.6092   -0.9603 N   0  0  0  0  0  0  0  0  0  0  0  0
    0.1599   -0.7296   -1.4242 C   0  0  0  0  0  0  0  0  0  0  0  0
   -0.8664   -0.4023   -0.6620 N   0  0  0  0  0  0  0  0  0  0  0  0
   -2.0451   -0.6021   -1.3665 C   0  0  0  0  0  0  0  0  0  0  0  0
   -3.3239   -0.3056   -0.7385 C   0  0  0  0  0  0  0  0  0  0  0  0
   -3.5793   -0.7749    0.5542 C   0  0  0  0  0  0  0  0  0  0  0  0
   -4.7965   -0.4968    1.1833 C   0  0  0  0  0  0  0  0  0  0  0  0
   -5.7798    0.2649    0.5357 C   0  0  0  0  0  0  0  0  0  0  0  0
   -7.1079    0.5834    1.1998 C   0  0  0  0  0  0  0  0  0  0  0  0
   -7.9032   -0.6879    1.5070 C   0  0  0  0  0  0  0  0  0  0  0  0
   -6.9164    1.4259    2.4633 C   0  0  0  0  0  0  0  0  0  0  0  0
   -5.5115    0.7468   -0.7537 C   0  0  0  0  0  0  0  0  0  0  0  0
   -4.2940    0.4685   -1.3835 C   0  0  0  0  0  0  0  0  0  0  0  0
   -1.8881   -1.1218   -2.6428 C   0  0  0  0  0  0  0  0  0  0  0  0
   -2.8954   -1.5184   -3.6652 C   0  0  0  0  0  0  0  0  0  0  0  0
   -0.2101   -1.3004   -2.9780 S   0  0  0  0  0  0  0  0  0  0  0  0
    2.7063   -0.9162   -1.6136 C   0  0  0  0  0  0  0  0  0  0  0  0
    2.7717   -1.3945   -2.8524 O   0  0  0  0  0  0  0  0  0  0  0  0
    8.1705    1.9421   -0.3820 H   0  0  0  0  0  0  0  0  0  0  0  0
    7.1684    1.0540   -1.5283 H   0  0  0  0  0  0  0  0  0  0  0  0
    6.9301    2.7906   -1.3292 H   0  0  0  0  0  0  0  0  0  0  0  0
    7.1348    2.8427    1.8036 H   0  0  0  0  0  0  0  0  0  0  0  0
    5.4291    2.5640    2.1488 H   0  0  0  0  0  0  0  0  0  0  0  0
    5.8842    3.6957    0.8742 H   0  0  0  0  0  0  0  0  0  0  0  0
    4.0449    0.8631    2.2013 H   0  0  0  0  0  0  0  0  0  0  0  0
    4.1996   -1.8776    2.2301 H   0  0  0  0  0  0  0  0  0  0  0  0
    5.7164   -1.0129    2.5638 H   0  0  0  0  0  0  0  0  0  0  0  0
    6.6395   -1.8251    0.6027 H   0  0  0  0  0  0  0  0  0  0  0  0
    5.1370   -2.7000    0.2329 H   0  0  0  0  0  0  0  0  0  0  0  0
    5.7862   -0.6561   -1.4806 H   0  0  0  0  0  0  0  0  0  0  0  0
   -0.0026    0.1598    0.8160 H   0  0  0  0  0  0  0  0  0  0  0  0
   -2.8301   -1.3632    1.0802 H   0  0  0  0  0  0  0  0  0  0  0  0
   -4.9646   -0.8790    2.1875 H   0  0  0  0  0  0  0  0  0  0  0  0
   -7.7121    1.1798    0.5032 H   0  0  0  0  0  0  0  0  0  0  0  0
   -8.8916   -0.4362    1.9065 H   0  0  0  0  0  0  0  0  0  0  0  0
   -7.3977   -1.3198    2.2454 H   0  0  0  0  0  0  0  0  0  0  0  0
   -8.0505   -1.2860    0.6008 H   0  0  0  0  0  0  0  0  0  0  0  0
   -6.3681    0.8814    3.2398 H   0  0  0  0  0  0  0  0  0  0  0  0
   -7.8858    1.7163    2.8828 H   0  0  0  0  0  0  0  0  0  0  0  0
   -6.3589    2.3428    2.2418 H   0  0  0  0  0  0  0  0  0  0  0  0
   -6.2472    1.3529   -1.2785 H   0  0  0  0  0  0  0  0  0  0  0  0
   -4.1089    0.8785   -2.3730 H   0  0  0  0  0  0  0  0  0  0  0  0
   -3.7827   -1.9524   -3.1933 H   0  0  0  0  0  0  0  0  0  0  0  0
   -2.4997   -2.2684   -4.3583 H   0  0  0  0  0  0  0  0  0  0  0  0
   -3.2056   -0.6467   -4.2502 H   0  0  0  0  0  0  0  0  0  0  0  0
    3.7140   -1.4949   -3.0760 H   0  0  0  0  0  0  0  0  0  0  0  0
  1  2  1  0
  2  3  1  0
  2  4  2  3
  4  5  1  0
  5  6  1  0
  6  7  1  0
  7  8  1  0
  8  9  1  0
  9 10  1  0
 10 11  2  0
 11 12  1  0
 11 13  1  0
 13 14  1  0
 14 15  2  0
 15 16  1  0
 16 17  1  0
 17 18  2  0
 18 19  1  0
 19 20  2  0
 20 21  1  0
 21 22  1  0
 21 23  1  0
 20 24  1  0
 24 25  2  0
 16 26  2  0
 26 27  1  0
 26 28  1  0
 13 29  1  0
 29 30  1  0
  8  4  1  0
 29  9  2  0
 10  5  1  0
 28 14  1  0
 25 17  1  0
  1 31  1  0
  1 32  1  0
  1 33  1  0
  3 34  1  0
  3 35  1  0
  3 36  1  0
  5 37  1  0
  6 38  1  0
  6 39  1  0
  7 40  1  0
  7 41  1  0
  8 42  1  0
 12 43  1  0
 18 44  1  0
 19 45  1  0
 21 46  1  0
 22 47  1  0
 22 48  1  0
 22 49  1  0
 23 50  1  0
 23 51  1  0
 23 52  1  0
 24 53  1  0
 25 54  1  0
 27 55  1  0
 27 56  1  0
 27 57  1  0
 30 58  1  0
M  END
$$$$
