
     RDKit          3D

 67 69  0  0  0  0  0  0  0  0999 V2000
    8.2507   -4.0087   -2.1365 C   0  0  0  0  0  0  0  0  0  0  0  0
    7.2812   -3.2251   -1.2692 C   0  0  0  0  0  0  0  0  0  0  0  0
    6.9695   -1.9854   -1.9224 O   0  0  0  0  0  0  0  0  0  0  0  0
    5.6238   -1.8140   -2.1110 C   0  0  0  0  0  0  0  0  0  0  0  0
    4.8851   -2.6834   -2.9143 C   0  0  0  0  0  0  0  0  0  0  0  0
    3.5173   -2.4588   -3.1182 C   0  0  0  0  0  0  0  0  0  0  0  0
    2.8697   -1.3605   -2.5272 C   0  0  0  0  0  0  0  0  0  0  0  0
    1.4015   -1.1128   -2.7881 C   0  0  0  0  0  0  0  0  0  0  0  0
    0.5770   -0.8027   -1.5357 C   0  0  0  0  0  0  0  0  0  0  0  0
   -0.8234   -0.5878   -1.8668 N   0  0  0  0  0  0  0  0  0  0  0  0
   -1.5429    0.4608   -1.3234 C   0  0  0  0  0  0  0  0  0  0  0  0
   -1.0469    1.3103   -0.5840 O   0  0  0  0  0  0  0  0  0  0  0  0
   -3.0271    0.4781   -1.7200 C   0  0  0  0  0  0  0  0  0  0  0  0
   -3.9233    0.6399   -0.6239 O   0  0  0  0  0  0  0  0  0  0  0  0
   -3.9071   -0.3925    0.2503 C   0  0  0  0  0  0  0  0  0  0  0  0
   -3.2664   -1.4268    0.1160 O   0  0  0  0  0  0  0  0  0  0  0  0
   -4.8668   -0.1845    1.3659 C   0  0  0  0  0  0  0  0  0  0  0  0
   -5.6133   -1.3344    1.6970 C   0  0  0  0  0  0  0  0  0  0  0  0
   -6.5931   -1.2709    2.6871 C   0  0  0  0  0  0  0  0  0  0  0  0
   -7.3833   -2.4631    3.0173 N   0  0  0  0  0  4  0  0  0  0  0  0
   -8.1699   -2.3857    3.9718 O   0  0  0  0  0  0  0  0  0  0  0  0
   -7.2211   -3.4735    2.3187 O   0  0  0  0  0  1  0  0  0  0  0  0
   -6.8327   -0.0741    3.3550 C   0  0  0  0  0  0  0  0  0  0  0  0
   -6.0799    1.0600    3.0285 C   0  0  0  0  0  0  0  0  0  0  0  0
   -5.0714    1.0492    2.0397 C   0  0  0  0  0  0  0  0  0  0  0  0
   -4.3494    2.2076    1.7536 N   0  0  0  0  0  0  0  0  0  0  0  0
   -2.8718    2.1717    1.8957 C   0  0  0  0  0  0  0  0  0  0  0  0
   -2.4406    2.7801    3.2427 C   0  0  0  0  0  0  0  0  0  0  0  0
   -2.9484    4.1142    3.4168 O   0  0  0  0  0  0  0  0  0  0  0  0
   -4.3828    4.1158    3.3535 C   0  0  0  0  0  0  0  0  0  0  0  0
   -4.8937    3.5577    2.0142 C   0  0  0  0  0  0  0  0  0  0  0  0
    3.6325   -0.4727   -1.7536 C   0  0  0  0  0  0  0  0  0  0  0  0
    5.0006   -0.6926   -1.5630 C   0  0  0  0  0  0  0  0  0  0  0  0
    5.6964    0.1841   -0.7756 O   0  0  0  0  0  0  0  0  0  0  0  0
    6.1794    1.2851   -1.5575 C   0  0  0  0  0  0  0  0  0  0  0  0
    5.9456    2.5609   -0.7652 C   0  0  0  0  0  0  0  0  0  0  0  0
    8.5265   -4.9537   -1.6558 H   0  0  0  0  0  0  0  0  0  0  0  0
    7.8129   -4.2274   -3.1157 H   0  0  0  0  0  0  0  0  0  0  0  0
    9.1611   -3.4257   -2.3161 H   0  0  0  0  0  0  0  0  0  0  0  0
    7.7682   -2.9819   -0.3139 H   0  0  0  0  0  0  0  0  0  0  0  0
    6.3976   -3.8360   -1.0355 H   0  0  0  0  0  0  0  0  0  0  0  0
    5.3663   -3.5311   -3.3966 H   0  0  0  0  0  0  0  0  0  0  0  0
    2.9655   -3.1517   -3.7512 H   0  0  0  0  0  0  0  0  0  0  0  0
    1.3145   -0.2856   -3.5040 H   0  0  0  0  0  0  0  0  0  0  0  0
    0.9617   -1.9883   -3.2842 H   0  0  0  0  0  0  0  0  0  0  0  0
    0.9677    0.0778   -1.0186 H   0  0  0  0  0  0  0  0  0  0  0  0
    0.6196   -1.6383   -0.8288 H   0  0  0  0  0  0  0  0  0  0  0  0
   -1.3527   -1.4054   -2.1501 H   0  0  0  0  0  0  0  0  0  0  0  0
   -3.1674    1.3318   -2.3915 H   0  0  0  0  0  0  0  0  0  0  0  0
   -3.3023   -0.4170   -2.2894 H   0  0  0  0  0  0  0  0  0  0  0  0
   -5.4289   -2.2659    1.1620 H   0  0  0  0  0  0  0  0  0  0  0  0
   -7.5918   -0.0016    4.1322 H   0  0  0  0  0  0  0  0  0  0  0  0
   -6.2975    1.9633    3.5904 H   0  0  0  0  0  0  0  0  0  0  0  0
   -2.4595    1.1619    1.8081 H   0  0  0  0  0  0  0  0  0  0  0  0
   -2.4533    2.7800    1.0855 H   0  0  0  0  0  0  0  0  0  0  0  0
   -2.7782    2.1574    4.0783 H   0  0  0  0  0  0  0  0  0  0  0  0
   -1.3474    2.8362    3.2877 H   0  0  0  0  0  0  0  0  0  0  0  0
   -4.7175    5.1527    3.4721 H   0  0  0  0  0  0  0  0  0  0  0  0
   -4.7674    3.5425    4.2041 H   0  0  0  0  0  0  0  0  0  0  0  0
   -4.5427    4.2139    1.2089 H   0  0  0  0  0  0  0  0  0  0  0  0
   -5.9898    3.5699    1.9708 H   0  0  0  0  0  0  0  0  0  0  0  0
    3.1808    0.4046   -1.2984 H   0  0  0  0  0  0  0  0  0  0  0  0
    7.2533    1.1433   -1.7332 H   0  0  0  0  0  0  0  0  0  0  0  0
    5.6807    1.3682   -2.5326 H   0  0  0  0  0  0  0  0  0  0  0  0
    6.2579    3.4436   -1.3346 H   0  0  0  0  0  0  0  0  0  0  0  0
    6.5051    2.5352    0.1757 H   0  0  0  0  0  0  0  0  0  0  0  0
    4.8820    2.6614   -0.5044 H   0  0  0  0  0  0  0  0  0  0  0  0
  1  2  1  0
  2  3  1  0
  3  4  1  0
  4  5  2  0
  5  6  1  0
  6  7  2  0
  7  8  1  0
  8  9  1  0
  9 10  1  0
 10 11  1  0
 11 12  2  0
 11 13  1  0
 13 14  1  0
 14 15  1  0
 15 16  2  0
 15 17  1  0
 17 18  2  0
 18 19  1  0
 19 20  1  0
 20 21  2  0
 20 22  1  0
 19 23  2  0
 23 24  1  0
 24 25  2  0
 25 26  1  0
 26 27  1  0
 27 28  1  0
 28 29  1  0
 29 30  1  0
 30 31  1  0
  7 32  1  0
 32 33  2  0
 33 34  1  0
 34 35  1  0
 35 36  1  0
 33  4  1  0
 25 17  1  0
 31 26  1  0
  1 37  1  0
  1 38  1  0
  1 39  1  0
  2 40  1  0
  2 41  1  0
  5 42  1  0
  6 43  1  0
  8 44  1  0
  8 45  1  0
  9 46  1  0
  9 47  1  0
 10 48  1  0
 13 49  1  0
 13 50  1  0
 18 51  1  0
 23 52  1  0
 24 53  1  0
 27 54  1  0
 27 55  1  0
 28 56  1  0
 28 57  1  0
 30 58  1  0
 30 59  1  0
 31 60  1  0
 31 61  1  0
 32 62  1  0
 35 63  1  0
 35 64  1  0
 36 65  1  0
 36 66  1  0
 36 67  1  0
M  CHG  2  20   1  22  -1
M  END
$$$$
