
     RDKit          3D

 36 37  0  0  0  0  0  0  0  0999 V2000
    1.2364   -0.9874    1.7354 O   0  0  0  0  0  0  0  0  0  0  0  0
    0.5784   -1.3587    0.7638 C   0  0  0  0  0  0  0  0  0  0  0  0
   -0.7284   -2.1438    0.8931 C   0  0  0  0  0  0  0  0  0  0  0  0
   -1.8885   -1.3116    0.8649 O   0  0  0  0  0  0  0  0  0  0  0  0
   -2.2428   -0.8560   -0.3605 C   0  0  0  0  0  0  0  0  0  0  0  0
   -1.6389   -1.0825   -1.3987 O   0  0  0  0  0  0  0  0  0  0  0  0
   -3.4737   -0.0237   -0.2839 C   0  0  0  0  0  0  0  0  0  0  0  0
   -4.1142    0.2612    0.9307 C   0  0  0  0  0  0  0  0  0  0  0  0
   -5.2683    1.0508    0.9484 C   0  0  0  0  0  0  0  0  0  0  0  0
   -5.7820    1.5555   -0.2454 C   0  0  0  0  0  0  0  0  0  0  0  0
   -7.3420    2.6220   -0.2183 Br  0  0  0  0  0  0  0  0  0  0  0  0
   -5.1537    1.2799   -1.4585 C   0  0  0  0  0  0  0  0  0  0  0  0
   -4.0000    0.4911   -1.4777 C   0  0  0  0  0  0  0  0  0  0  0  0
    0.9737   -1.1029   -0.5339 N   0  0  0  0  0  0  0  0  0  0  0  0
    2.0793   -0.1990   -0.7939 C   0  0  0  0  0  0  0  0  0  0  0  0
    3.4369   -0.7560   -0.3385 C   0  0  0  0  0  0  0  0  0  0  0  0
    4.2806    0.2758    0.2290 N   0  0  0  0  0  0  0  0  0  0  0  0
    4.3692    0.5827    1.5663 C   0  0  0  0  0  0  0  0  0  0  0  0
    3.6359   -0.0696    2.5120 O   0  0  0  0  0  0  0  0  0  0  0  0
    5.2281    1.5655    1.8523 C   0  0  0  0  0  0  0  0  0  0  0  0
    5.9710    2.2020    0.4188 S   0  0  0  0  0  0  0  0  0  0  0  0
    5.0602    1.0734   -0.5982 C   0  0  0  0  0  0  0  0  0  0  0  0
    5.1269    1.0457   -1.8164 O   0  0  0  0  0  0  0  0  0  0  0  0
   -0.7141   -2.6609    1.8587 H   0  0  0  0  0  0  0  0  0  0  0  0
   -0.7841   -2.9233    0.1233 H   0  0  0  0  0  0  0  0  0  0  0  0
   -3.7278   -0.1210    1.8728 H   0  0  0  0  0  0  0  0  0  0  0  0
   -5.7563    1.2659    1.8961 H   0  0  0  0  0  0  0  0  0  0  0  0
   -5.5510    1.6723   -2.3915 H   0  0  0  0  0  0  0  0  0  0  0  0
   -3.5154    0.2807   -2.4297 H   0  0  0  0  0  0  0  0  0  0  0  0
    0.2357   -1.1566   -1.2404 H   0  0  0  0  0  0  0  0  0  0  0  0
    2.0968   -0.0047   -1.8718 H   0  0  0  0  0  0  0  0  0  0  0  0
    1.8472    0.7474   -0.2908 H   0  0  0  0  0  0  0  0  0  0  0  0
    3.9475   -1.1813   -1.2120 H   0  0  0  0  0  0  0  0  0  0  0  0
    3.3458   -1.5795    0.3780 H   0  0  0  0  0  0  0  0  0  0  0  0
    2.7976   -0.3939    2.1178 H   0  0  0  0  0  0  0  0  0  0  0  0
    5.4343    1.9404    2.8446 H   0  0  0  0  0  0  0  0  0  0  0  0
  1  2  2  0
  2  3  1  0
  3  4  1  0
  4  5  1  0
  5  6  2  0
  5  7  1  0
  7  8  2  0
  8  9  1  0
  9 10  2  0
 10 11  1  0
 10 12  1  0
 12 13  2  0
  2 14  1  0
 14 15  1  0
 15 16  1  0
 16 17  1  0
 17 18  1  0
 18 19  1  0
 18 20  2  0
 20 21  1  0
 21 22  1  0
 22 23  2  0
 13  7  1  0
 22 17  1  0
  3 24  1  0
  3 25  1  0
  8 26  1  0
  9 27  1  0
 12 28  1  0
 13 29  1  0
 14 30  1  0
 15 31  1  0
 15 32  1  0
 16 33  1  0
 16 34  1  0
 19 35  1  0
 20 36  1  0
M  END
$$$$
