
     RDKit          3D

 42 44  0  0  0  0  0  0  0  0999 V2000
   -0.4819   -2.9588   -1.0905 C   0  0  0  0  0  0  0  0  0  0  0  0
   -0.7362   -1.7393   -0.2647 C   0  0  0  0  0  0  0  0  0  0  0  0
    0.1549   -0.9123    0.3081 C   0  0  0  0  0  0  0  0  0  0  0  0
    1.5189   -0.8818    0.4313 N   0  0  0  0  0  0  0  0  0  0  0  0
    2.4375   -1.8814    0.1935 C   0  0  0  0  0  0  0  0  0  0  0  0
    2.1664   -3.0403   -0.1120 O   0  0  0  0  0  0  0  0  0  0  0  0
    3.8762   -1.4769    0.4279 C   0  0  0  0  0  0  0  0  0  0  0  0
    4.2374   -0.3031   -0.3430 N   0  0  0  0  0  0  0  0  0  0  0  0
    4.7987   -0.2751   -1.5884 C   0  0  0  0  0  0  0  0  0  0  0  0
    4.9655    1.0544   -1.9044 C   0  0  0  0  0  0  0  0  0  0  0  0
    4.4770    1.7545   -0.7783 C   0  0  0  0  0  0  0  0  0  0  0  0
    4.4236    3.1907   -0.5648 N   0  0  0  0  0  4  0  0  0  0  0  0
    4.8105    3.8958   -1.5097 O   0  0  0  0  0  0  0  0  0  0  0  0
    4.0152    3.6139    0.5257 O   0  0  0  0  0  1  0  0  0  0  0  0
    4.0216    0.9229    0.1781 N   0  0  0  0  0  0  0  0  0  0  0  0
   -0.6531    0.2107    0.8871 C   0  0  0  0  0  0  0  0  0  0  0  0
   -0.1273    1.1684    1.4357 O   0  0  0  0  0  0  0  0  0  0  0  0
   -1.9909   -0.0691    0.6050 N   0  0  0  0  0  0  0  0  0  0  0  0
   -3.0379    0.8857    0.5273 C   0  0  0  0  0  0  0  0  0  0  0  0
   -4.1463    0.6841   -0.3101 C   0  0  0  0  0  0  0  0  0  0  0  0
   -5.1778    1.6258   -0.3842 C   0  0  0  0  0  0  0  0  0  0  0  0
   -5.1160    2.7882    0.3778 C   0  0  0  0  0  0  0  0  0  0  0  0
   -4.0218    3.0100    1.2084 C   0  0  0  0  0  0  0  0  0  0  0  0
   -2.9906    2.0672    1.2800 C   0  0  0  0  0  0  0  0  0  0  0  0
   -2.0691   -1.3210   -0.0710 N   0  0  0  0  0  0  0  0  0  0  0  0
   -2.9832   -2.2779    0.5832 C   0  0  0  0  0  0  0  0  0  0  0  0
   -1.3219   -3.1493   -1.7683 H   0  0  0  0  0  0  0  0  0  0  0  0
   -0.3581   -3.8403   -0.4548 H   0  0  0  0  0  0  0  0  0  0  0  0
    0.3943   -2.8345   -1.7328 H   0  0  0  0  0  0  0  0  0  0  0  0
    1.8710   -0.0063    0.8316 H   0  0  0  0  0  0  0  0  0  0  0  0
    4.5437   -2.2911    0.1269 H   0  0  0  0  0  0  0  0  0  0  0  0
    4.0386   -1.2644    1.4896 H   0  0  0  0  0  0  0  0  0  0  0  0
    5.0256   -1.1811   -2.1356 H   0  0  0  0  0  0  0  0  0  0  0  0
    5.3830    1.4674   -2.8127 H   0  0  0  0  0  0  0  0  0  0  0  0
   -4.2090   -0.1949   -0.9454 H   0  0  0  0  0  0  0  0  0  0  0  0
   -6.0227    1.4533   -1.0458 H   0  0  0  0  0  0  0  0  0  0  0  0
   -5.9143    3.5233    0.3198 H   0  0  0  0  0  0  0  0  0  0  0  0
   -3.9641    3.9179    1.8037 H   0  0  0  0  0  0  0  0  0  0  0  0
   -2.1601    2.2736    1.9504 H   0  0  0  0  0  0  0  0  0  0  0  0
   -2.5948   -2.5792    1.5631 H   0  0  0  0  0  0  0  0  0  0  0  0
   -3.1011   -3.1742   -0.0348 H   0  0  0  0  0  0  0  0  0  0  0  0
   -3.9812   -1.8555    0.7299 H   0  0  0  0  0  0  0  0  0  0  0  0
  1  2  1  0
  2  3  2  0
  3  4  1  0
  4  5  1  0
  5  6  2  0
  5  7  1  0
  7  8  1  0
  8  9  1  0
  9 10  2  0
 10 11  1  0
 11 12  1  0
 12 13  2  0
 12 14  1  0
 11 15  2  0
  3 16  1  0
 16 17  2  0
 16 18  1  0
 18 19  1  0
 19 20  2  0
 20 21  1  0
 21 22  2  0
 22 23  1  0
 23 24  2  0
 18 25  1  0
 25 26  1  0
 25  2  1  0
 15  8  1  0
 24 19  1  0
  1 27  1  0
  1 28  1  0
  1 29  1  0
  4 30  1  0
  7 31  1  0
  7 32  1  0
  9 33  1  0
 10 34  1  0
 20 35  1  0
 21 36  1  0
 22 37  1  0
 23 38  1  0
 24 39  1  0
 26 40  1  0
 26 41  1  0
 26 42  1  0
M  CHG  2  12   1  14  -1
M  END
$$$$
