
     RDKit          3D

 49 52  0  0  0  0  0  0  0  0999 V2000
   -5.8971    2.3945   -0.1698 C   0  0  0  0  0  0  0  0  0  0  0  0
   -4.4737    2.0715    0.1791 C   0  0  0  0  0  0  0  0  0  0  0  0
   -3.5381    1.8228   -0.8338 C   0  0  0  0  0  0  0  0  0  0  0  0
   -2.2042    1.5502   -0.5205 C   0  0  0  0  0  0  0  0  0  0  0  0
   -1.7955    1.5289    0.8172 C   0  0  0  0  0  0  0  0  0  0  0  0
   -0.4483    1.2481    1.1518 N   0  0  0  0  0  0  0  0  0  0  0  0
    0.0151    0.3521    2.1136 C   0  0  0  0  0  0  0  0  0  0  0  0
   -0.8126   -0.6521    2.8453 C   0  0  0  0  0  0  0  0  0  0  0  0
   -1.3607   -1.7139    1.9381 C   0  0  0  0  0  0  0  0  0  0  0  0
   -0.6697   -2.5654    1.0991 C   0  0  0  0  0  0  0  0  0  0  0  0
   -1.5331   -3.4398    0.3803 C   0  0  0  0  0  0  0  0  0  0  0  0
   -2.8534   -3.2427    0.7094 C   0  0  0  0  0  0  0  0  0  0  0  0
   -3.0467   -2.0064    1.8723 S   0  0  0  0  0  0  0  0  0  0  0  0
    1.3328    0.4147    2.1793 N   0  0  0  0  0  0  0  0  0  0  0  0
    1.7647    1.2810    1.2224 N   0  0  0  0  0  0  0  0  0  0  0  0
    0.7121    1.7541    0.5926 C   0  0  0  0  0  0  0  0  0  0  0  0
    0.8027    2.9480   -0.6648 S   0  0  0  0  0  0  0  0  0  0  0  0
    2.5695    2.8923   -1.0753 C   0  0  0  0  0  0  0  0  0  0  0  0
    2.9173    1.6117   -1.8207 C   0  0  0  0  0  0  0  0  0  0  0  0
    2.8380    1.5543   -3.0457 O   0  0  0  0  0  0  0  0  0  0  0  0
    3.3085    0.5794   -0.9822 N   0  0  0  0  0  0  0  0  0  0  0  0
    3.7674   -0.7014   -1.3483 C   0  0  0  0  0  0  0  0  0  0  0  0
    3.9528   -1.6306   -0.3110 C   0  0  0  0  0  0  0  0  0  0  0  0
    4.4113   -2.9220   -0.5830 C   0  0  0  0  0  0  0  0  0  0  0  0
    4.6950   -3.2835   -1.8961 C   0  0  0  0  0  0  0  0  0  0  0  0
    5.1684   -4.5117   -2.1540 F   0  0  0  0  0  0  0  0  0  0  0  0
    4.5158   -2.3694   -2.9259 C   0  0  0  0  0  0  0  0  0  0  0  0
    4.8074   -2.7142   -4.1851 F   0  0  0  0  0  0  0  0  0  0  0  0
    4.0580   -1.0782   -2.6609 C   0  0  0  0  0  0  0  0  0  0  0  0
   -2.7208    1.7950    1.8352 C   0  0  0  0  0  0  0  0  0  0  0  0
   -4.0516    2.0692    1.5128 C   0  0  0  0  0  0  0  0  0  0  0  0
   -5.9939    3.4627   -0.3931 H   0  0  0  0  0  0  0  0  0  0  0  0
   -6.2219    1.8161   -1.0414 H   0  0  0  0  0  0  0  0  0  0  0  0
   -6.5716    2.1431    0.6564 H   0  0  0  0  0  0  0  0  0  0  0  0
   -3.8463    1.8325   -1.8780 H   0  0  0  0  0  0  0  0  0  0  0  0
   -1.5190    1.3232   -1.3375 H   0  0  0  0  0  0  0  0  0  0  0  0
   -1.5962   -0.1644    3.4238 H   0  0  0  0  0  0  0  0  0  0  0  0
   -0.1739   -1.1503    3.5875 H   0  0  0  0  0  0  0  0  0  0  0  0
    0.4092   -2.5563    0.9944 H   0  0  0  0  0  0  0  0  0  0  0  0
   -1.2029   -4.1793   -0.3368 H   0  0  0  0  0  0  0  0  0  0  0  0
   -3.7192   -3.7648    0.3234 H   0  0  0  0  0  0  0  0  0  0  0  0
    3.1893    3.0069   -0.1793 H   0  0  0  0  0  0  0  0  0  0  0  0
    2.8034    3.7381   -1.7305 H   0  0  0  0  0  0  0  0  0  0  0  0
    3.1462    0.7290    0.0141 H   0  0  0  0  0  0  0  0  0  0  0  0
    3.7450   -1.3551    0.7202 H   0  0  0  0  0  0  0  0  0  0  0  0
    4.5607   -3.6409    0.2166 H   0  0  0  0  0  0  0  0  0  0  0  0
    3.9446   -0.3996   -3.4993 H   0  0  0  0  0  0  0  0  0  0  0  0
   -2.4252    1.8397    2.8807 H   0  0  0  0  0  0  0  0  0  0  0  0
   -4.7594    2.2827    2.3075 H   0  0  0  0  0  0  0  0  0  0  0  0
  1  2  1  0
  2  3  2  0
  3  4  1  0
  4  5  2  0
  5  6  1  0
  6  7  1  0
  7  8  1  0
  8  9  1  0
  9 10  2  0
 10 11  1  0
 11 12  2  0
 12 13  1  0
  7 14  2  0
 14 15  1  0
 15 16  2  0
 16 17  1  0
 17 18  1  0
 18 19  1  0
 19 20  2  0
 19 21  1  0
 21 22  1  0
 22 23  2  0
 23 24  1  0
 24 25  2  0
 25 26  1  0
 25 27  1  0
 27 28  1  0
 27 29  2  0
  5 30  1  0
 30 31  2  0
 31  2  1  0
 16  6  1  0
 29 22  1  0
 13  9  1  0
  1 32  1  0
  1 33  1  0
  1 34  1  0
  3 35  1  0
  4 36  1  0
  8 37  1  0
  8 38  1  0
 10 39  1  0
 11 40  1  0
 12 41  1  0
 18 42  1  0
 18 43  1  0
 21 44  1  0
 23 45  1  0
 24 46  1  0
 29 47  1  0
 30 48  1  0
 31 49  1  0
M  END
$$$$
