
     RDKit          3D

 46 47  0  0  0  0  0  0  0  0999 V2000
    8.4031    0.0454   -0.4236 C   0  0  0  0  0  0  0  0  0  0  0  0
    7.3401    0.9860   -0.5127 O   0  0  0  0  0  0  0  0  0  0  0  0
    6.0696    0.4810   -0.5391 C   0  0  0  0  0  0  0  0  0  0  0  0
    5.7168   -0.8625   -0.4120 C   0  0  0  0  0  0  0  0  0  0  0  0
    4.3707   -1.2443   -0.4540 C   0  0  0  0  0  0  0  0  0  0  0  0
    3.3618   -0.2892   -0.6277 C   0  0  0  0  0  0  0  0  0  0  0  0
    1.9107   -0.7011   -0.6515 C   0  0  0  0  0  0  0  0  0  0  0  0
    1.2438   -0.4727    0.7026 C   0  0  0  0  0  0  0  0  0  0  0  0
   -0.2081   -0.8973    0.6885 C   0  0  0  0  0  0  0  0  0  0  0  0
   -0.7525   -1.4582   -0.2581 O   0  0  0  0  0  0  0  0  0  0  0  0
   -0.8607   -0.6011    1.8725 N   0  0  0  0  0  0  0  0  0  0  0  0
   -2.2665   -0.7177    1.8783 N   0  0  0  0  0  0  0  0  0  0  0  0
   -2.9758    0.3634    2.3769 C   0  0  0  0  0  0  0  0  0  0  0  0
   -2.4321    1.2753    3.0040 O   0  0  0  0  0  0  0  0  0  0  0  0
   -4.4679    0.3061    2.1584 C   0  0  0  0  0  0  0  0  0  0  0  0
   -4.7821    0.1967    0.7485 N   0  0  0  0  0  0  0  0  0  0  0  0
   -4.6289   -1.0061    0.1568 N   0  0  0  0  0  0  0  0  0  0  0  0
   -4.9211   -0.7813   -1.1286 C   0  0  0  0  0  0  0  0  0  0  0  0
   -4.8479   -1.8833   -2.1168 C   0  0  0  0  0  0  0  0  0  0  0  0
   -5.2795    0.5667   -1.3483 C   0  0  0  0  0  0  0  0  0  0  0  0
   -5.1776    1.1815   -0.1181 C   0  0  0  0  0  0  0  0  0  0  0  0
   -5.4058    2.5933    0.2753 C   0  0  0  0  0  0  0  0  0  0  0  0
    3.7208    1.0576   -0.7530 C   0  0  0  0  0  0  0  0  0  0  0  0
    5.0645    1.4361   -0.7066 C   0  0  0  0  0  0  0  0  0  0  0  0
    8.3665   -0.5017    0.5249 H   0  0  0  0  0  0  0  0  0  0  0  0
    9.3443    0.6028   -0.4513 H   0  0  0  0  0  0  0  0  0  0  0  0
    8.3978   -0.6406   -1.2771 H   0  0  0  0  0  0  0  0  0  0  0  0
    6.4618   -1.6392   -0.2765 H   0  0  0  0  0  0  0  0  0  0  0  0
    4.1168   -2.2978   -0.3532 H   0  0  0  0  0  0  0  0  0  0  0  0
    1.3887   -0.1367   -1.4356 H   0  0  0  0  0  0  0  0  0  0  0  0
    1.8303   -1.7562   -0.9442 H   0  0  0  0  0  0  0  0  0  0  0  0
    1.7599   -1.0432    1.4842 H   0  0  0  0  0  0  0  0  0  0  0  0
    1.2908    0.5890    0.9740 H   0  0  0  0  0  0  0  0  0  0  0  0
   -0.4946    0.1330    2.4788 H   0  0  0  0  0  0  0  0  0  0  0  0
   -2.6723   -1.2413    1.0881 H   0  0  0  0  0  0  0  0  0  0  0  0
   -4.9362    1.2094    2.5576 H   0  0  0  0  0  0  0  0  0  0  0  0
   -4.8900   -0.5609    2.6765 H   0  0  0  0  0  0  0  0  0  0  0  0
   -4.8442   -1.4962   -3.1416 H   0  0  0  0  0  0  0  0  0  0  0  0
   -5.7101   -2.5488   -2.0062 H   0  0  0  0  0  0  0  0  0  0  0  0
   -3.9350   -2.4722   -1.9767 H   0  0  0  0  0  0  0  0  0  0  0  0
   -5.5624    1.0299   -2.2832 H   0  0  0  0  0  0  0  0  0  0  0  0
   -6.2469    2.6665    0.9720 H   0  0  0  0  0  0  0  0  0  0  0  0
   -4.5148    3.0130    0.7535 H   0  0  0  0  0  0  0  0  0  0  0  0
   -5.6377    3.2088   -0.5998 H   0  0  0  0  0  0  0  0  0  0  0  0
    2.9598    1.8222   -0.8900 H   0  0  0  0  0  0  0  0  0  0  0  0
    5.3320    2.4860   -0.8040 H   0  0  0  0  0  0  0  0  0  0  0  0
  1  2  1  0
  2  3  1  0
  3  4  2  0
  4  5  1  0
  5  6  2  0
  6  7  1  0
  7  8  1  0
  8  9  1  0
  9 10  2  0
  9 11  1  0
 11 12  1  0
 12 13  1  0
 13 14  2  0
 13 15  1  0
 15 16  1  0
 16 17  1  0
 17 18  2  0
 18 19  1  0
 18 20  1  0
 20 21  2  0
 21 22  1  0
  6 23  1  0
 23 24  2  0
 24  3  1  0
 21 16  1  0
  1 25  1  0
  1 26  1  0
  1 27  1  0
  4 28  1  0
  5 29  1  0
  7 30  1  0
  7 31  1  0
  8 32  1  0
  8 33  1  0
 11 34  1  0
 12 35  1  0
 15 36  1  0
 15 37  1  0
 19 38  1  0
 19 39  1  0
 19 40  1  0
 20 41  1  0
 22 42  1  0
 22 43  1  0
 22 44  1  0
 23 45  1  0
 24 46  1  0
M  END
$$$$
