
     RDKit          3D

 73 75  0  0  0  0  0  0  0  0999 V2000
   -1.0845   -1.0453   -2.9750 C   0  0  0  0  0  0  0  0  0  0  0  0
   -1.9753    0.0507   -2.3986 C   0  0  0  0  0  0  0  0  0  0  0  0
   -2.4957   -0.1843   -0.9686 C   0  0  0  0  0  0  0  0  0  0  0  0
   -1.1594   -0.5287    0.2488 S   0  0  0  0  0  0  0  0  0  0  0  0
   -0.3777    1.0380    0.3554 C   0  0  0  0  0  0  0  0  0  0  0  0
   -1.0930    2.0821    0.0972 N   0  0  0  0  0  0  0  0  0  0  0  0
   -0.4972    3.3437    0.1709 C   0  0  0  0  0  0  0  0  0  0  0  0
   -1.2775    4.4725   -0.0903 C   0  0  0  0  0  0  0  0  0  0  0  0
   -0.7199    5.7560   -0.0385 C   0  0  0  0  0  0  0  0  0  0  0  0
   -1.4171    6.9136   -0.2812 O   0  0  0  0  0  0  0  0  0  0  0  0
   -2.8024    6.8024   -0.5754 C   0  0  0  0  0  0  0  0  0  0  0  0
    0.6464    5.9118    0.2776 C   0  0  0  0  0  0  0  0  0  0  0  0
    1.1158    7.2009    0.3064 O   0  0  0  0  0  0  0  0  0  0  0  0
    2.4907    7.3985    0.6061 C   0  0  0  0  0  0  0  0  0  0  0  0
    1.4257    4.7826    0.5387 C   0  0  0  0  0  0  0  0  0  0  0  0
    0.8447    3.5105    0.4837 C   0  0  0  0  0  0  0  0  0  0  0  0
    1.6369    2.2998    0.7548 C   0  0  0  0  0  0  0  0  0  0  0  0
    2.8405    2.4105    0.9757 O   0  0  0  0  0  0  0  0  0  0  0  0
    0.9575    1.0823    0.7265 N   0  0  0  0  0  0  0  0  0  0  0  0
    1.7688   -0.1064    1.0278 C   0  0  0  0  0  0  0  0  0  0  0  0
    2.4775   -0.6426   -0.2213 C   0  0  0  0  0  0  0  0  0  0  0  0
    3.1983   -1.9363    0.0618 C   0  0  0  0  0  0  0  0  0  0  0  0
    2.5653   -3.1619   -0.1636 C   0  0  0  0  0  0  0  0  0  0  0  0
    3.2234   -4.3608    0.1201 C   0  0  0  0  0  0  0  0  0  0  0  0
    4.5231   -4.3518    0.6367 C   0  0  0  0  0  0  0  0  0  0  0  0
    5.2425   -5.4799    0.9462 O   0  0  0  0  0  0  0  0  0  0  0  0
    4.6471   -6.7382    0.6657 C   0  0  0  0  0  0  0  0  0  0  0  0
    5.1677   -3.1210    0.8727 C   0  0  0  0  0  0  0  0  0  0  0  0
    6.4394   -3.1950    1.3862 O   0  0  0  0  0  0  0  0  0  0  0  0
    7.1442   -1.9777    1.5804 C   0  0  0  0  0  0  0  0  0  0  0  0
    4.4994   -1.9240    0.5858 C   0  0  0  0  0  0  0  0  0  0  0  0
   -3.5345   -1.3197   -0.9112 C   0  0  0  0  0  0  0  0  0  0  0  0
   -3.9634   -1.8966   -1.9068 O   0  0  0  0  0  0  0  0  0  0  0  0
   -4.0154   -1.5866    0.3587 N   0  0  0  0  0  0  0  0  0  0  0  0
   -4.9088   -2.7019    0.6142 C   0  0  0  0  0  0  0  0  0  0  0  0
   -6.3168   -2.5096    0.0489 C   0  0  0  0  0  0  0  0  0  0  0  0
   -7.1642   -3.5410    0.5629 O   0  0  0  0  0  0  0  0  0  0  0  0
   -8.4775   -3.4498    0.0257 C   0  0  0  0  0  0  0  0  0  0  0  0
   -1.5664   -2.0262   -2.9366 H   0  0  0  0  0  0  0  0  0  0  0  0
   -0.8607   -0.8252   -4.0241 H   0  0  0  0  0  0  0  0  0  0  0  0
   -0.1292   -1.1104   -2.4483 H   0  0  0  0  0  0  0  0  0  0  0  0
   -1.4231    0.9974   -2.4391 H   0  0  0  0  0  0  0  0  0  0  0  0
   -2.8338    0.1794   -3.0704 H   0  0  0  0  0  0  0  0  0  0  0  0
   -3.0453    0.7103   -0.6504 H   0  0  0  0  0  0  0  0  0  0  0  0
   -2.3227    4.3152   -0.3349 H   0  0  0  0  0  0  0  0  0  0  0  0
   -2.9646    6.2461   -1.5043 H   0  0  0  0  0  0  0  0  0  0  0  0
   -3.1953    7.8131   -0.7201 H   0  0  0  0  0  0  0  0  0  0  0  0
   -3.3489    6.3499    0.2584 H   0  0  0  0  0  0  0  0  0  0  0  0
    3.1306    6.9239   -0.1450 H   0  0  0  0  0  0  0  0  0  0  0  0
    2.6875    8.4747    0.5787 H   0  0  0  0  0  0  0  0  0  0  0  0
    2.7303    7.0423    1.6134 H   0  0  0  0  0  0  0  0  0  0  0  0
    2.4792    4.8607    0.7872 H   0  0  0  0  0  0  0  0  0  0  0  0
    1.1508   -0.8814    1.4920 H   0  0  0  0  0  0  0  0  0  0  0  0
    2.5170    0.1570    1.7869 H   0  0  0  0  0  0  0  0  0  0  0  0
    1.7602   -0.7973   -1.0353 H   0  0  0  0  0  0  0  0  0  0  0  0
    3.1910    0.0984   -0.6041 H   0  0  0  0  0  0  0  0  0  0  0  0
    1.5530   -3.1966   -0.5620 H   0  0  0  0  0  0  0  0  0  0  0  0
    2.6913   -5.2865   -0.0710 H   0  0  0  0  0  0  0  0  0  0  0  0
    4.4349   -6.8475   -0.4032 H   0  0  0  0  0  0  0  0  0  0  0  0
    5.3648   -7.5167    0.9421 H   0  0  0  0  0  0  0  0  0  0  0  0
    3.7447   -6.8902    1.2670 H   0  0  0  0  0  0  0  0  0  0  0  0
    8.1396   -2.2250    1.9620 H   0  0  0  0  0  0  0  0  0  0  0  0
    6.6494   -1.3504    2.3291 H   0  0  0  0  0  0  0  0  0  0  0  0
    7.2742   -1.4399    0.6354 H   0  0  0  0  0  0  0  0  0  0  0  0
    4.9721   -0.9626    0.7630 H   0  0  0  0  0  0  0  0  0  0  0  0
   -3.4460   -1.2586    1.1311 H   0  0  0  0  0  0  0  0  0  0  0  0
   -4.4601   -3.6148    0.2053 H   0  0  0  0  0  0  0  0  0  0  0  0
   -4.9595   -2.8322    1.7012 H   0  0  0  0  0  0  0  0  0  0  0  0
   -6.7136   -1.5338    0.3536 H   0  0  0  0  0  0  0  0  0  0  0  0
   -6.3047   -2.5539   -1.0456 H   0  0  0  0  0  0  0  0  0  0  0  0
   -8.9313   -2.4882    0.2837 H   0  0  0  0  0  0  0  0  0  0  0  0
   -9.0833   -4.2495    0.4598 H   0  0  0  0  0  0  0  0  0  0  0  0
   -8.4566   -3.5782   -1.0606 H   0  0  0  0  0  0  0  0  0  0  0  0
  1  2  1  0
  2  3  1  0
  3  4  1  0
  4  5  1  0
  5  6  2  0
  6  7  1  0
  7  8  2  0
  8  9  1  0
  9 10  1  0
 10 11  1  0
  9 12  2  0
 12 13  1  0
 13 14  1  0
 12 15  1  0
 15 16  2  0
 16 17  1  0
 17 18  2  0
 17 19  1  0
 19 20  1  0
 20 21  1  0
 21 22  1  0
 22 23  2  0
 23 24  1  0
 24 25  2  0
 25 26  1  0
 26 27  1  0
 25 28  1  0
 28 29  1  0
 29 30  1  0
 28 31  2  0
  3 32  1  0
 32 33  2  0
 32 34  1  0
 34 35  1  0
 35 36  1  0
 36 37  1  0
 37 38  1  0
 19  5  1  0
 31 22  1  0
 16  7  1  0
  1 39  1  0
  1 40  1  0
  1 41  1  0
  2 42  1  0
  2 43  1  0
  3 44  1  0
  8 45  1  0
 11 46  1  0
 11 47  1  0
 11 48  1  0
 14 49  1  0
 14 50  1  0
 14 51  1  0
 15 52  1  0
 20 53  1  0
 20 54  1  0
 21 55  1  0
 21 56  1  0
 23 57  1  0
 24 58  1  0
 27 59  1  0
 27 60  1  0
 27 61  1  0
 30 62  1  0
 30 63  1  0
 30 64  1  0
 31 65  1  0
 34 66  1  0
 35 67  1  0
 35 68  1  0
 36 69  1  0
 36 70  1  0
 38 71  1  0
 38 72  1  0
 38 73  1  0
M  END
$$$$
