
     RDKit          3D

 67 71  0  0  0  0  0  0  0  0999 V2000
   -0.9435   -4.7498    2.8685 C   0  0  0  0  0  0  0  0  0  0  0  0
   -1.1121   -3.3455    2.7205 O   0  0  0  0  0  0  0  0  0  0  0  0
   -2.0870   -2.9299    1.8538 C   0  0  0  0  0  0  0  0  0  0  0  0
   -2.9367   -3.7552    1.1173 C   0  0  0  0  0  0  0  0  0  0  0  0
   -3.9012   -3.2080    0.2619 C   0  0  0  0  0  0  0  0  0  0  0  0
   -4.6645   -4.1327   -0.3982 O   0  0  0  0  0  0  0  0  0  0  0  0
   -5.6375   -3.6335   -1.3086 C   0  0  0  0  0  0  0  0  0  0  0  0
   -4.0170   -1.8224    0.1486 C   0  0  0  0  0  0  0  0  0  0  0  0
   -3.1724   -0.9813    0.8870 C   0  0  0  0  0  0  0  0  0  0  0  0
   -3.2877    0.4757    0.7717 C   0  0  0  0  0  0  0  0  0  0  0  0
   -4.6526    1.2396    1.4632 S   0  0  0  0  0  0  0  0  0  0  0  0
   -4.1244    2.8057    0.9965 C   0  0  0  0  0  0  0  0  0  0  0  0
   -4.7831    4.0265    1.2377 C   0  0  0  0  0  0  0  0  0  0  0  0
   -4.2069    5.2172    0.7804 C   0  0  0  0  0  0  0  0  0  0  0  0
   -2.9997    5.2016    0.0951 C   0  0  0  0  0  0  0  0  0  0  0  0
   -2.3410    6.2941   -0.3995 O   0  0  0  0  0  0  0  0  0  0  0  0
   -2.9600    7.5604   -0.2114 C   0  0  0  0  0  0  0  0  0  0  0  0
   -2.3547    3.9808   -0.1374 C   0  0  0  0  0  0  0  0  0  0  0  0
   -2.9087    2.7541    0.3141 C   0  0  0  0  0  0  0  0  0  0  0  0
   -2.4319    1.3950    0.1875 C   0  0  0  0  0  0  0  0  0  0  0  0
   -1.2032    0.9819   -0.4788 C   0  0  0  0  0  0  0  0  0  0  0  0
    0.0325    1.1752    0.1457 C   0  0  0  0  0  0  0  0  0  0  0  0
    1.2160    0.7881   -0.4938 C   0  0  0  0  0  0  0  0  0  0  0  0
    1.1723    0.2148   -1.7654 C   0  0  0  0  0  0  0  0  0  0  0  0
    2.2427   -0.2084   -2.5028 O   0  0  0  0  0  0  0  0  0  0  0  0
    3.5599    0.0317   -1.9989 C   0  0  0  0  0  0  0  0  0  0  0  0
    4.0222   -1.1310   -1.1038 C   0  0  0  0  0  0  0  0  0  0  0  0
    5.2973   -0.8832   -0.4052 N   0  0  0  0  0  0  0  0  0  0  0  0
    6.4379   -0.7728   -1.3397 C   0  0  0  0  0  0  0  0  0  0  0  0
    7.7689   -0.6102   -0.5855 C   0  0  0  0  0  0  0  0  0  0  0  0
    7.9966   -1.7013    0.3151 O   0  0  0  0  0  0  0  0  0  0  0  0
    6.9213   -1.7899    1.2574 C   0  0  0  0  0  0  0  0  0  0  0  0
    5.5745   -1.9855    0.5449 C   0  0  0  0  0  0  0  0  0  0  0  0
   -0.0660    0.0233   -2.3850 C   0  0  0  0  0  0  0  0  0  0  0  0
   -1.2500    0.4049   -1.7499 C   0  0  0  0  0  0  0  0  0  0  0  0
   -2.2089   -1.5448    1.7329 C   0  0  0  0  0  0  0  0  0  0  0  0
   -1.8468   -5.2168    3.2753 H   0  0  0  0  0  0  0  0  0  0  0  0
   -0.1329   -4.9139    3.5845 H   0  0  0  0  0  0  0  0  0  0  0  0
   -0.6496   -5.2137    1.9210 H   0  0  0  0  0  0  0  0  0  0  0  0
   -2.8763   -4.8364    1.1850 H   0  0  0  0  0  0  0  0  0  0  0  0
   -5.1675   -3.0597   -2.1147 H   0  0  0  0  0  0  0  0  0  0  0  0
   -6.3955   -3.0379   -0.7886 H   0  0  0  0  0  0  0  0  0  0  0  0
   -6.1423   -4.4922   -1.7622 H   0  0  0  0  0  0  0  0  0  0  0  0
   -4.7533   -1.3686   -0.5072 H   0  0  0  0  0  0  0  0  0  0  0  0
   -5.7286    4.0470    1.7729 H   0  0  0  0  0  0  0  0  0  0  0  0
   -4.7380    6.1419    0.9818 H   0  0  0  0  0  0  0  0  0  0  0  0
   -3.0565    7.7982    0.8531 H   0  0  0  0  0  0  0  0  0  0  0  0
   -3.9302    7.6042   -0.7172 H   0  0  0  0  0  0  0  0  0  0  0  0
   -2.3142    8.3190   -0.6644 H   0  0  0  0  0  0  0  0  0  0  0  0
   -1.4104    3.9762   -0.6780 H   0  0  0  0  0  0  0  0  0  0  0  0
    0.0834    1.6220    1.1362 H   0  0  0  0  0  0  0  0  0  0  0  0
    2.1492    0.9436    0.0370 H   0  0  0  0  0  0  0  0  0  0  0  0
    4.2087    0.0870   -2.8803 H   0  0  0  0  0  0  0  0  0  0  0  0
    3.6424    1.0075   -1.5065 H   0  0  0  0  0  0  0  0  0  0  0  0
    4.0712   -2.0489   -1.7058 H   0  0  0  0  0  0  0  0  0  0  0  0
    3.2420   -1.3154   -0.3547 H   0  0  0  0  0  0  0  0  0  0  0  0
    6.4927   -1.6696   -1.9693 H   0  0  0  0  0  0  0  0  0  0  0  0
    6.3130    0.0958   -1.9942 H   0  0  0  0  0  0  0  0  0  0  0  0
    8.5977   -0.5928   -1.2999 H   0  0  0  0  0  0  0  0  0  0  0  0
    7.7946    0.3320   -0.0248 H   0  0  0  0  0  0  0  0  0  0  0  0
    7.1234   -2.6458    1.9094 H   0  0  0  0  0  0  0  0  0  0  0  0
    6.9122   -0.8901    1.8839 H   0  0  0  0  0  0  0  0  0  0  0  0
    4.7824   -2.0351    1.2998 H   0  0  0  0  0  0  0  0  0  0  0  0
    5.5942   -2.9433    0.0091 H   0  0  0  0  0  0  0  0  0  0  0  0
   -0.1091   -0.4265   -3.3740 H   0  0  0  0  0  0  0  0  0  0  0  0
   -2.2005    0.2503   -2.2534 H   0  0  0  0  0  0  0  0  0  0  0  0
   -1.5469   -0.9035    2.3100 H   0  0  0  0  0  0  0  0  0  0  0  0
  1  2  1  0
  2  3  1  0
  3  4  2  0
  4  5  1  0
  5  6  1  0
  6  7  1  0
  5  8  2  0
  8  9  1  0
  9 10  1  0
 10 11  1  0
 11 12  1  0
 12 13  2  0
 13 14  1  0
 14 15  2  0
 15 16  1  0
 16 17  1  0
 15 18  1  0
 18 19  2  0
 19 20  1  0
 20 21  1  0
 21 22  2  0
 22 23  1  0
 23 24  2  0
 24 25  1  0
 25 26  1  0
 26 27  1  0
 27 28  1  0
 28 29  1  0
 29 30  1  0
 30 31  1  0
 31 32  1  0
 32 33  1  0
 24 34  1  0
 34 35  2  0
  9 36  2  0
 36  3  1  0
 20 10  2  0
 35 21  1  0
 19 12  1  0
 33 28  1  0
  1 37  1  0
  1 38  1  0
  1 39  1  0
  4 40  1  0
  7 41  1  0
  7 42  1  0
  7 43  1  0
  8 44  1  0
 13 45  1  0
 14 46  1  0
 17 47  1  0
 17 48  1  0
 17 49  1  0
 18 50  1  0
 22 51  1  0
 23 52  1  0
 26 53  1  0
 26 54  1  0
 27 55  1  0
 27 56  1  0
 29 57  1  0
 29 58  1  0
 30 59  1  0
 30 60  1  0
 32 61  1  0
 32 62  1  0
 33 63  1  0
 33 64  1  0
 34 65  1  0
 35 66  1  0
 36 67  1  0
M  END
$$$$
