
     RDKit          3D

 42 45  0  0  0  0  0  0  0  0999 V2000
    2.6767    0.1487    2.5486 O   0  0  0  0  0  0  0  0  0  0  0  0
    2.8061    0.0907    1.3282 C   0  0  0  0  0  0  0  0  0  0  0  0
    4.1787    0.1629    0.7819 C   0  0  0  0  0  0  0  0  0  0  0  0
    5.0221    1.1992    1.2016 C   0  0  0  0  0  0  0  0  0  0  0  0
    6.3318    1.2678    0.7221 C   0  0  0  0  0  0  0  0  0  0  0  0
    6.7977    0.2933   -0.1610 C   0  0  0  0  0  0  0  0  0  0  0  0
    5.9562   -0.7458   -0.5493 C   0  0  0  0  0  0  0  0  0  0  0  0
    6.4143   -1.6845   -1.3876 F   0  0  0  0  0  0  0  0  0  0  0  0
    4.6511   -0.8286   -0.0816 C   0  0  0  0  0  0  0  0  0  0  0  0
    1.7350   -0.0678    0.4453 N   0  0  0  0  0  0  0  0  0  0  0  0
    1.7483    0.5006   -0.9117 C   0  0  0  0  0  0  0  0  0  0  0  0
    0.7188   -0.1641   -1.8343 C   0  0  0  0  0  0  0  0  0  0  0  0
   -0.6093   -0.2297   -1.2241 N   0  0  0  0  0  0  0  0  0  0  0  0
   -1.7041   -0.3309   -2.0959 C   0  0  0  0  0  0  0  0  0  0  0  0
   -1.5371   -0.4479   -3.3114 O   0  0  0  0  0  0  0  0  0  0  0  0
   -3.0747   -0.2565   -1.5472 C   0  0  0  0  0  0  0  0  0  0  0  0
   -4.2414   -0.7245   -2.2042 C   0  0  0  0  0  0  0  0  0  0  0  0
   -5.2933   -0.4119   -1.3797 C   0  0  0  0  0  0  0  0  0  0  0  0
   -6.6386   -0.6298   -1.4940 N   0  0  0  0  0  0  0  0  0  0  0  0
   -7.3667   -0.1781   -0.5140 C   0  0  0  0  0  0  0  0  0  0  0  0
   -6.8657    0.5399    0.6981 C   0  0  0  0  0  0  0  0  0  0  0  0
   -8.0624    1.1060    1.9871 Br  0  0  0  0  0  0  0  0  0  0  0  0
   -5.5393    0.7168    0.7463 C   0  0  0  0  0  0  0  0  0  0  0  0
   -4.7347    0.2474   -0.2843 N   0  0  0  0  0  0  0  0  0  0  0  0
   -3.3888    0.3459   -0.3844 N   0  0  0  0  0  0  0  0  0  0  0  0
   -0.6166   -0.8199    0.1213 C   0  0  0  0  0  0  0  0  0  0  0  0
    0.4004   -0.1467    1.0488 C   0  0  0  0  0  0  0  0  0  0  0  0
    4.6592    1.9459    1.9052 H   0  0  0  0  0  0  0  0  0  0  0  0
    6.9884    2.0726    1.0435 H   0  0  0  0  0  0  0  0  0  0  0  0
    7.8146    0.3299   -0.5400 H   0  0  0  0  0  0  0  0  0  0  0  0
    4.0232   -1.6606   -0.3823 H   0  0  0  0  0  0  0  0  0  0  0  0
    1.5159    1.5677   -0.8029 H   0  0  0  0  0  0  0  0  0  0  0  0
    2.7388    0.4390   -1.3662 H   0  0  0  0  0  0  0  0  0  0  0  0
    0.6730    0.3868   -2.7804 H   0  0  0  0  0  0  0  0  0  0  0  0
    1.0233   -1.1931   -2.0629 H   0  0  0  0  0  0  0  0  0  0  0  0
   -4.2995   -1.2231   -3.1615 H   0  0  0  0  0  0  0  0  0  0  0  0
   -8.4583   -0.3301   -0.5636 H   0  0  0  0  0  0  0  0  0  0  0  0
   -5.0264    1.2176    1.5559 H   0  0  0  0  0  0  0  0  0  0  0  0
   -0.3529   -1.8779   -0.0075 H   0  0  0  0  0  0  0  0  0  0  0  0
   -1.6003   -0.8087    0.5872 H   0  0  0  0  0  0  0  0  0  0  0  0
    0.4508   -0.6974    1.9947 H   0  0  0  0  0  0  0  0  0  0  0  0
    0.0858    0.8792    1.2770 H   0  0  0  0  0  0  0  0  0  0  0  0
  1  2  2  0
  2  3  1  0
  3  4  2  0
  4  5  1  0
  5  6  2  0
  6  7  1  0
  7  8  1  0
  7  9  2  0
  2 10  1  0
 10 11  1  0
 11 12  1  0
 12 13  1  0
 13 14  1  0
 14 15  2  0
 14 16  1  0
 16 17  1  0
 17 18  2  0
 18 19  1  0
 19 20  2  0
 20 21  1  0
 21 22  1  0
 21 23  2  0
 23 24  1  0
 24 25  1  0
 13 26  1  0
 26 27  1  0
  9  3  1  0
 27 10  1  0
 25 16  2  0
 24 18  1  0
  4 28  1  0
  5 29  1  0
  6 30  1  0
  9 31  1  0
 11 32  1  0
 11 33  1  0
 12 34  1  0
 12 35  1  0
 17 36  1  0
 20 37  1  0
 23 38  1  0
 26 39  1  0
 26 40  1  0
 27 41  1  0
 27 42  1  0
M  END
$$$$
