
     RDKit          3D

 57 62  0  0  0  0  0  0  0  0999 V2000
    7.5764   -2.0317    0.5865 C   0  0  0  0  0  0  0  0  0  0  0  0
    6.2598   -1.4203    0.9235 C   0  0  0  0  0  0  0  0  0  0  0  0
    5.1738   -2.0042    1.5408 C   0  0  0  0  0  0  0  0  0  0  0  0
    4.0898   -1.0917    1.6984 C   0  0  0  0  0  0  0  0  0  0  0  0
    4.3725    0.1572    1.1774 C   0  0  0  0  0  0  0  0  0  0  0  0
    3.5494    1.3576    1.1447 C   0  0  0  0  0  0  0  0  0  0  0  0
    3.9867    2.4603    1.4766 O   0  0  0  0  0  0  0  0  0  0  0  0
    2.2096    1.2213    0.7417 N   0  0  0  0  0  0  0  0  0  0  0  0
    1.6995    0.0917   -0.0315 C   0  0  0  0  0  0  0  0  0  0  0  0
    0.7071    0.5316   -1.1049 C   0  0  0  0  0  0  0  0  0  0  0  0
   -0.4829    1.3656   -0.5525 C   0  0  0  0  0  0  0  0  0  0  0  0
   -0.1234    2.0066    0.8141 C   0  0  0  0  0  0  0  0  0  0  0  0
    1.3492    2.3942    0.8645 C   0  0  0  0  0  0  0  0  0  0  0  0
   -0.6320    2.5258   -1.4225 O   0  0  0  0  0  0  0  0  0  0  0  0
   -1.3449    2.3786   -2.5737 C   0  0  0  0  0  0  0  0  0  0  0  0
   -1.2404    3.4202   -3.4958 C   0  0  0  0  0  0  0  0  0  0  0  0
   -1.9194    3.3492   -4.7148 C   0  0  0  0  0  0  0  0  0  0  0  0
   -2.7066    2.2353   -5.0071 C   0  0  0  0  0  0  0  0  0  0  0  0
   -3.5357    2.1474   -6.5110 Cl  0  0  0  0  0  0  0  0  0  0  0  0
   -2.8248    1.1956   -4.0890 C   0  0  0  0  0  0  0  0  0  0  0  0
   -2.1471    1.2829   -2.8685 C   0  0  0  0  0  0  0  0  0  0  0  0
   -2.2664    0.2129   -1.8715 C   0  0  0  0  0  0  0  0  0  0  0  0
   -2.6961   -0.8880   -2.2068 O   0  0  0  0  0  0  0  0  0  0  0  0
   -1.8087    0.5586   -0.4577 C   0  0  0  0  0  0  0  0  0  0  0  0
   -1.7580   -0.6909    0.4119 C   0  0  0  0  0  0  0  0  0  0  0  0
   -3.1225   -0.6033    1.0095 C   0  0  0  0  0  0  0  0  0  0  0  0
   -3.7425   -1.7351    1.7245 C   0  0  0  0  0  0  0  0  0  0  0  0
   -3.0896   -2.9529    1.9192 C   0  0  0  0  0  0  0  0  0  0  0  0
   -3.7417   -3.9760    2.6075 C   0  0  0  0  0  0  0  0  0  0  0  0
   -5.0232   -3.7436    3.0806 C   0  0  0  0  0  0  0  0  0  0  0  0
   -5.6805   -2.5771    2.9138 N   0  0  0  0  0  0  0  0  0  0  0  0
   -5.0277   -1.5987    2.2374 C   0  0  0  0  0  0  0  0  0  0  0  0
   -3.6957    0.5505    0.8824 N   0  0  0  0  0  0  0  0  0  0  0  0
   -2.8288    1.3779    0.1367 O   0  0  0  0  0  0  0  0  0  0  0  0
    5.9620    0.2213    0.5449 S   0  0  0  0  0  0  0  0  0  0  0  0
    7.6681   -3.0292    1.0292 H   0  0  0  0  0  0  0  0  0  0  0  0
    7.6858   -2.1329   -0.4983 H   0  0  0  0  0  0  0  0  0  0  0  0
    8.4033   -1.4217    0.9661 H   0  0  0  0  0  0  0  0  0  0  0  0
    5.1606   -3.0344    1.8762 H   0  0  0  0  0  0  0  0  0  0  0  0
    3.1538   -1.3380    2.1838 H   0  0  0  0  0  0  0  0  0  0  0  0
    2.5221   -0.4422   -0.5168 H   0  0  0  0  0  0  0  0  0  0  0  0
    1.2234   -0.5971    0.6735 H   0  0  0  0  0  0  0  0  0  0  0  0
    1.2570    1.1240   -1.8493 H   0  0  0  0  0  0  0  0  0  0  0  0
    0.3523   -0.3565   -1.6403 H   0  0  0  0  0  0  0  0  0  0  0  0
   -0.3254    1.3248    1.6464 H   0  0  0  0  0  0  0  0  0  0  0  0
   -0.7281    2.9065    0.9834 H   0  0  0  0  0  0  0  0  0  0  0  0
    1.5673    2.9015    1.8114 H   0  0  0  0  0  0  0  0  0  0  0  0
    1.6062    3.0874    0.0546 H   0  0  0  0  0  0  0  0  0  0  0  0
   -0.6256    4.2884   -3.2691 H   0  0  0  0  0  0  0  0  0  0  0  0
   -1.8305    4.1639   -5.4294 H   0  0  0  0  0  0  0  0  0  0  0  0
   -3.4457    0.3312   -4.3128 H   0  0  0  0  0  0  0  0  0  0  0  0
   -1.0370   -0.6326    1.2302 H   0  0  0  0  0  0  0  0  0  0  0  0
   -1.5922   -1.6167   -0.1432 H   0  0  0  0  0  0  0  0  0  0  0  0
   -2.0863   -3.1316    1.5479 H   0  0  0  0  0  0  0  0  0  0  0  0
   -3.2625   -4.9357    2.7702 H   0  0  0  0  0  0  0  0  0  0  0  0
   -5.5709   -4.5110    3.6210 H   0  0  0  0  0  0  0  0  0  0  0  0
   -5.5926   -0.6770    2.1197 H   0  0  0  0  0  0  0  0  0  0  0  0
  1  2  1  0
  2  3  2  0
  3  4  1  0
  4  5  2  0
  5  6  1  0
  6  7  2  0
  6  8  1  0
  8  9  1  0
  9 10  1  0
 10 11  1  0
 11 12  1  0
 12 13  1  0
 11 14  1  0
 14 15  1  0
 15 16  2  0
 16 17  1  0
 17 18  2  0
 18 19  1  0
 18 20  1  0
 20 21  2  0
 21 22  1  0
 22 23  2  0
 22 24  1  0
 24 25  1  0
 25 26  1  0
 26 27  1  0
 27 28  2  0
 28 29  1  0
 29 30  2  0
 30 31  1  0
 31 32  2  0
 26 33  2  0
 33 34  1  0
  5 35  1  0
 35  2  1  0
 13  8  1  0
 21 15  1  0
 34 24  1  0
 24 11  1  0
 32 27  1  0
  1 36  1  0
  1 37  1  0
  1 38  1  0
  3 39  1  0
  4 40  1  0
  9 41  1  0
  9 42  1  0
 10 43  1  0
 10 44  1  0
 12 45  1  0
 12 46  1  0
 13 47  1  0
 13 48  1  0
 16 49  1  0
 17 50  1  0
 20 51  1  0
 25 52  1  0
 25 53  1  0
 28 54  1  0
 29 55  1  0
 30 56  1  0
 32 57  1  0
M  END
$$$$
