
     RDKit          3D

 61 65  0  0  0  0  0  0  0  0999 V2000
    4.8812   -3.9106    2.1729 C   0  0  0  0  0  0  0  0  0  0  0  0
    5.8131   -3.0511    1.5271 O   0  0  0  0  0  0  0  0  0  0  0  0
    5.4114   -1.7654    1.2942 C   0  0  0  0  0  0  0  0  0  0  0  0
    6.3668   -0.9603    0.6713 C   0  0  0  0  0  0  0  0  0  0  0  0
    6.0900    0.3757    0.3730 C   0  0  0  0  0  0  0  0  0  0  0  0
    4.8459    0.9301    0.6993 C   0  0  0  0  0  0  0  0  0  0  0  0
    4.5368    2.3690    0.3694 C   0  0  0  0  0  0  0  0  0  0  0  0
    4.1917    2.5331   -1.0271 N   0  0  0  0  0  0  0  0  0  0  0  0
    5.0981    3.0090   -1.9170 N   0  0  0  0  0  0  0  0  0  0  0  0
    4.4999    3.0834   -3.1061 N   0  0  0  0  0  0  0  0  0  0  0  0
    3.2160    2.6659   -2.9392 C   0  0  0  0  0  0  0  0  0  0  0  0
    2.1349    2.5452   -3.8787 C   0  0  0  0  0  0  0  0  0  0  0  0
    2.1867    2.8044   -5.0760 O   0  0  0  0  0  0  0  0  0  0  0  0
    0.9712    2.0820   -3.2769 N   0  0  0  0  0  0  0  0  0  0  0  0
    0.8640    1.7500   -1.9278 C   0  0  0  0  0  0  0  0  0  0  0  0
   -0.5180    1.2758   -1.5045 C   0  0  0  0  0  0  0  0  0  0  0  0
   -0.4781    0.4760   -0.2002 C   0  0  0  0  0  0  0  0  0  0  0  0
   -1.8767    0.0652    0.2492 C   0  0  0  0  0  0  0  0  0  0  0  0
   -2.8668    1.1724    0.1160 N   0  0  0  0  0  0  0  0  0  0  0  0
   -4.1186    1.1779    1.2880 S   0  0  0  0  0  6  0  0  0  0  0  0
   -5.0755    2.1997    0.9212 O   0  0  0  0  0  0  0  0  0  0  0  0
   -3.4852    1.1768    2.5903 O   0  0  0  0  0  0  0  0  0  0  0  0
   -4.8940   -0.3964    1.0277 C   0  0  0  0  0  0  0  0  0  0  0  0
   -4.7941   -1.3970    1.9959 C   0  0  0  0  0  0  0  0  0  0  0  0
   -5.4147   -2.6275    1.7750 C   0  0  0  0  0  0  0  0  0  0  0  0
   -6.1297   -2.8624    0.5909 C   0  0  0  0  0  0  0  0  0  0  0  0
   -6.8246   -4.1759    0.3786 C   0  0  0  0  0  0  0  0  0  0  0  0
   -6.2396   -1.8393   -0.3608 C   0  0  0  0  0  0  0  0  0  0  0  0
   -5.6212   -0.6067   -0.1469 C   0  0  0  0  0  0  0  0  0  0  0  0
   -2.2556    2.5058   -0.0959 C   0  0  0  0  0  0  0  0  0  0  0  0
   -1.4690    2.4807   -1.4041 C   0  0  0  0  0  0  0  0  0  0  0  0
    1.8359    1.8714   -1.0662 N   0  0  0  0  0  0  0  0  0  0  0  0
    2.9842    2.3219   -1.6293 C   0  0  0  0  0  0  0  0  0  0  0  0
    3.8863    0.1165    1.3175 C   0  0  0  0  0  0  0  0  0  0  0  0
    4.1681   -1.2216    1.6158 C   0  0  0  0  0  0  0  0  0  0  0  0
    5.3527   -4.8909    2.2840 H   0  0  0  0  0  0  0  0  0  0  0  0
    4.6335   -3.5444    3.1753 H   0  0  0  0  0  0  0  0  0  0  0  0
    3.9792   -4.0428    1.5657 H   0  0  0  0  0  0  0  0  0  0  0  0
    7.3369   -1.3785    0.4118 H   0  0  0  0  0  0  0  0  0  0  0  0
    6.8514    0.9762   -0.1225 H   0  0  0  0  0  0  0  0  0  0  0  0
    5.3994    3.0083    0.5907 H   0  0  0  0  0  0  0  0  0  0  0  0
    3.6988    2.7446    0.9678 H   0  0  0  0  0  0  0  0  0  0  0  0
    0.1877    1.9733   -3.9046 H   0  0  0  0  0  0  0  0  0  0  0  0
   -0.8892    0.6136   -2.2993 H   0  0  0  0  0  0  0  0  0  0  0  0
    0.1458   -0.4187   -0.3212 H   0  0  0  0  0  0  0  0  0  0  0  0
   -0.0048    1.0657    0.5965 H   0  0  0  0  0  0  0  0  0  0  0  0
   -1.8162   -0.3007    1.2791 H   0  0  0  0  0  0  0  0  0  0  0  0
   -2.2267   -0.7646   -0.3761 H   0  0  0  0  0  0  0  0  0  0  0  0
   -4.2469   -1.2277    2.9207 H   0  0  0  0  0  0  0  0  0  0  0  0
   -5.3439   -3.4031    2.5351 H   0  0  0  0  0  0  0  0  0  0  0  0
   -7.7954   -4.1712    0.8829 H   0  0  0  0  0  0  0  0  0  0  0  0
   -6.2209   -5.0007    0.7724 H   0  0  0  0  0  0  0  0  0  0  0  0
   -6.9833   -4.3700   -0.6871 H   0  0  0  0  0  0  0  0  0  0  0  0
   -6.8126   -1.9953   -1.2735 H   0  0  0  0  0  0  0  0  0  0  0  0
   -5.7135    0.1841   -0.8883 H   0  0  0  0  0  0  0  0  0  0  0  0
   -3.0288    3.2771   -0.1813 H   0  0  0  0  0  0  0  0  0  0  0  0
   -1.6109    2.7712    0.7504 H   0  0  0  0  0  0  0  0  0  0  0  0
   -0.9364    3.4328   -1.5152 H   0  0  0  0  0  0  0  0  0  0  0  0
   -2.1759    2.4310   -2.2427 H   0  0  0  0  0  0  0  0  0  0  0  0
    2.9054    0.5173    1.5676 H   0  0  0  0  0  0  0  0  0  0  0  0
    3.3942   -1.8104    2.0955 H   0  0  0  0  0  0  0  0  0  0  0  0
  1  2  1  0
  2  3  1  0
  3  4  2  0
  4  5  1  0
  5  6  2  0
  6  7  1  0
  7  8  1  0
  8  9  1  0
  9 10  2  0
 10 11  1  0
 11 12  1  0
 12 13  2  0
 12 14  1  0
 14 15  1  0
 15 16  1  0
 16 17  1  0
 17 18  1  0
 18 19  1  0
 19 20  1  0
 20 21  2  0
 20 22  2  0
 20 23  1  0
 23 24  2  0
 24 25  1  0
 25 26  2  0
 26 27  1  0
 26 28  1  0
 28 29  2  0
 19 30  1  0
 30 31  1  0
 15 32  2  0
 32 33  1  0
  6 34  1  0
 34 35  2  0
 35  3  1  0
 33  8  1  0
 33 11  2  0
 31 16  1  0
 29 23  1  0
  1 36  1  0
  1 37  1  0
  1 38  1  0
  4 39  1  0
  5 40  1  0
  7 41  1  0
  7 42  1  0
 14 43  1  0
 16 44  1  0
 17 45  1  0
 17 46  1  0
 18 47  1  0
 18 48  1  0
 24 49  1  0
 25 50  1  0
 27 51  1  0
 27 52  1  0
 27 53  1  0
 28 54  1  0
 29 55  1  0
 30 56  1  0
 30 57  1  0
 31 58  1  0
 31 59  1  0
 34 60  1  0
 35 61  1  0
M  END
$$$$
