
     RDKit          3D

 43 45  0  0  0  0  0  0  0  0999 V2000
   -6.4654   -0.7196   -1.8802 C   0  0  0  0  0  0  0  0  0  0  0  0
   -6.1436   -0.8639   -0.4610 N   0  0  0  0  0  0  0  0  0  0  0  0
   -7.2061   -0.4776    0.4662 C   0  0  0  0  0  0  0  0  0  0  0  0
   -4.8094   -0.7342   -0.0550 C   0  0  0  0  0  0  0  0  0  0  0  0
   -4.4504   -0.5569    1.2931 C   0  0  0  0  0  0  0  0  0  0  0  0
   -3.1142   -0.4411    1.7070 C   0  0  0  0  0  0  0  0  0  0  0  0
   -2.0790   -0.5022    0.7778 C   0  0  0  0  0  0  0  0  0  0  0  0
   -0.6899   -0.4011    1.2339 C   0  0  0  0  0  0  0  0  0  0  0  0
    0.1921    0.5452    0.8846 C   0  0  0  0  0  0  0  0  0  0  0  0
   -0.0526    1.8981   -0.1607 S   0  0  0  0  0  0  0  0  0  0  0  0
    1.5960    2.4949    0.0476 C   0  0  0  0  0  0  0  0  0  0  0  0
    2.1533    3.8994   -0.6603 S   0  0  0  0  0  0  0  0  0  0  0  0
    2.2632    1.6236    0.8838 N   0  0  0  0  0  0  0  0  0  0  0  0
    3.6248    1.7999    1.2334 N   0  0  0  0  0  0  0  0  0  0  0  0
    4.4986    1.0737    0.3683 C   0  0  0  0  0  0  0  0  0  0  0  0
    4.0122    0.5515   -0.7884 N   0  0  0  0  0  0  0  0  0  0  0  0
    4.8727   -0.0866   -1.6172 C   0  0  0  0  0  0  0  0  0  0  0  0
    6.2270   -0.2367   -1.3643 C   0  0  0  0  0  0  0  0  0  0  0  0
    7.0962   -0.9801   -2.3304 C   0  0  0  0  0  0  0  0  0  0  0  0
    8.4028   -0.6034   -2.2701 F   0  0  0  0  0  0  0  0  0  0  0  0
    7.0815   -2.3217   -2.1077 F   0  0  0  0  0  0  0  0  0  0  0  0
    6.7178   -0.8099   -3.6264 F   0  0  0  0  0  0  0  0  0  0  0  0
    6.7217    0.2956   -0.1707 C   0  0  0  0  0  0  0  0  0  0  0  0
    5.8577    0.9614    0.6987 C   0  0  0  0  0  0  0  0  0  0  0  0
    6.4949    1.6059    2.1677 Cl  0  0  0  0  0  0  0  0  0  0  0  0
    1.5774    0.5523    1.4284 C   0  0  0  0  0  0  0  0  0  0  0  0
    2.0142   -0.2410    2.2531 O   0  0  0  0  0  0  0  0  0  0  0  0
   -2.3994   -0.7081   -0.5617 C   0  0  0  0  0  0  0  0  0  0  0  0
   -3.7394   -0.8222   -0.9634 C   0  0  0  0  0  0  0  0  0  0  0  0
   -6.1635    0.2647   -2.2550 H   0  0  0  0  0  0  0  0  0  0  0  0
   -7.5421   -0.8236   -2.0561 H   0  0  0  0  0  0  0  0  0  0  0  0
   -5.9883   -1.5043   -2.4769 H   0  0  0  0  0  0  0  0  0  0  0  0
   -8.1959   -0.6257    0.0197 H   0  0  0  0  0  0  0  0  0  0  0  0
   -7.1902   -1.0979    1.3687 H   0  0  0  0  0  0  0  0  0  0  0  0
   -7.1230    0.5793    0.7428 H   0  0  0  0  0  0  0  0  0  0  0  0
   -5.2064   -0.5060    2.0705 H   0  0  0  0  0  0  0  0  0  0  0  0
   -2.9025   -0.3017    2.7645 H   0  0  0  0  0  0  0  0  0  0  0  0
   -0.3920   -1.1784    1.9368 H   0  0  0  0  0  0  0  0  0  0  0  0
    3.7904    1.4662    2.1874 H   0  0  0  0  0  0  0  0  0  0  0  0
    4.4173   -0.4827   -2.5238 H   0  0  0  0  0  0  0  0  0  0  0  0
    7.7767    0.1952    0.0780 H   0  0  0  0  0  0  0  0  0  0  0  0
   -1.6186   -0.7907   -1.3138 H   0  0  0  0  0  0  0  0  0  0  0  0
   -3.9168   -0.9897   -2.0212 H   0  0  0  0  0  0  0  0  0  0  0  0
  1  2  1  0
  2  3  1  0
  2  4  1  0
  4  5  2  0
  5  6  1  0
  6  7  2  0
  7  8  1  0
  8  9  2  3
  9 10  1  0
 10 11  1  0
 11 12  2  0
 11 13  1  0
 13 14  1  0
 14 15  1  0
 15 16  2  0
 16 17  1  0
 17 18  2  0
 18 19  1  0
 19 20  1  0
 19 21  1  0
 19 22  1  0
 18 23  1  0
 23 24  2  0
 24 25  1  0
 13 26  1  0
 26 27  2  0
  7 28  1  0
 28 29  2  0
 29  4  1  0
 26  9  1  0
 24 15  1  0
  1 30  1  0
  1 31  1  0
  1 32  1  0
  3 33  1  0
  3 34  1  0
  3 35  1  0
  5 36  1  0
  6 37  1  0
  8 38  1  0
 14 39  1  0
 17 40  1  0
 23 41  1  0
 28 42  1  0
 29 43  1  0
M  END
$$$$
