
     RDKit          3D

 64 67  0  0  0  0  0  0  0  0999 V2000
    2.0469   -7.1200   -1.2671 C   0  0  0  0  0  0  0  0  0  0  0  0
    2.4436   -6.0635   -2.1397 O   0  0  0  0  0  0  0  0  0  0  0  0
    2.6046   -4.8278   -1.5712 C   0  0  0  0  0  0  0  0  0  0  0  0
    2.5055   -4.5239   -0.2134 C   0  0  0  0  0  0  0  0  0  0  0  0
    2.7026   -3.2082    0.2354 C   0  0  0  0  0  0  0  0  0  0  0  0
    2.9931   -2.1857   -0.6640 C   0  0  0  0  0  0  0  0  0  0  0  0
    3.1927   -0.8430   -0.2958 N   0  0  0  0  0  0  0  0  0  0  0  0
    3.1110   -0.2750    0.9623 C   0  0  0  0  0  0  0  0  0  0  0  0
    2.8905   -0.8671    2.0133 O   0  0  0  0  0  0  0  0  0  0  0  0
    3.3662    1.2472    0.9685 C   0  0  0  0  0  0  0  0  0  0  0  0
    3.4539    1.8575   -0.3758 N   0  0  0  0  0  0  0  0  0  0  0  0
    4.7917    2.0945   -0.9019 C   0  0  0  0  0  0  0  0  0  0  0  0
    2.3656    2.3741   -1.0751 C   0  0  0  0  0  0  0  0  0  0  0  0
    2.4466    2.9480   -2.1632 O   0  0  0  0  0  0  0  0  0  0  0  0
    1.0392    2.2087   -0.4521 C   0  0  0  0  0  0  0  0  0  0  0  0
    0.3481    1.0811   -0.6680 C   0  0  0  0  0  0  0  0  0  0  0  0
   -0.9082    0.7791   -0.0684 C   0  0  0  0  0  0  0  0  0  0  0  0
   -1.2087   -0.4618    0.4362 C   0  0  0  0  0  0  0  0  0  0  0  0
   -2.4572   -0.3773    1.0063 N   0  0  0  0  0  0  0  0  0  0  0  0
   -3.1786   -1.4013    1.6907 C   0  0  0  0  0  0  0  0  0  0  0  0
   -4.4224   -1.0943    2.2590 C   0  0  0  0  0  0  0  0  0  0  0  0
   -5.1410   -2.0677    2.9501 C   0  0  0  0  0  0  0  0  0  0  0  0
   -4.6278   -3.3534    3.0756 C   0  0  0  0  0  0  0  0  0  0  0  0
   -3.3976   -3.6729    2.5058 C   0  0  0  0  0  0  0  0  0  0  0  0
   -2.6692   -2.7009    1.8157 C   0  0  0  0  0  0  0  0  0  0  0  0
   -2.9754    0.8742    0.8711 N   0  0  0  0  0  0  0  0  0  0  0  0
   -2.0572    1.5807    0.1915 C   0  0  0  0  0  0  0  0  0  0  0  0
   -2.3220    2.9781   -0.1686 C   0  0  0  0  0  0  0  0  0  0  0  0
   -1.9760    3.4776   -1.4343 C   0  0  0  0  0  0  0  0  0  0  0  0
   -2.2065    4.8184   -1.7625 C   0  0  0  0  0  0  0  0  0  0  0  0
   -2.8013    5.6813   -0.8373 C   0  0  0  0  0  0  0  0  0  0  0  0
   -3.0305    7.1262   -1.1697 C   0  0  0  0  0  0  0  0  0  0  0  0
   -3.1602    5.1836    0.4230 C   0  0  0  0  0  0  0  0  0  0  0  0
   -2.9300    3.8425    0.7512 C   0  0  0  0  0  0  0  0  0  0  0  0
    3.0959   -2.4975   -2.0245 C   0  0  0  0  0  0  0  0  0  0  0  0
    2.9061   -3.8062   -2.4726 C   0  0  0  0  0  0  0  0  0  0  0  0
    1.0606   -6.9229   -0.8334 H   0  0  0  0  0  0  0  0  0  0  0  0
    1.9830   -8.0401   -1.8530 H   0  0  0  0  0  0  0  0  0  0  0  0
    2.7896   -7.2864   -0.4866 H   0  0  0  0  0  0  0  0  0  0  0  0
    2.2844   -5.2861    0.5243 H   0  0  0  0  0  0  0  0  0  0  0  0
    2.6277   -3.0231    1.3029 H   0  0  0  0  0  0  0  0  0  0  0  0
    3.3870   -0.1880   -1.0447 H   0  0  0  0  0  0  0  0  0  0  0  0
    4.3052    1.4337    1.5002 H   0  0  0  0  0  0  0  0  0  0  0  0
    2.5563    1.7198    1.5371 H   0  0  0  0  0  0  0  0  0  0  0  0
    4.7658    2.4168   -1.9517 H   0  0  0  0  0  0  0  0  0  0  0  0
    5.2695    2.8805   -0.3007 H   0  0  0  0  0  0  0  0  0  0  0  0
    5.3777    1.1680   -0.8278 H   0  0  0  0  0  0  0  0  0  0  0  0
    0.6860    3.0309    0.1591 H   0  0  0  0  0  0  0  0  0  0  0  0
    0.7853    0.3006   -1.2893 H   0  0  0  0  0  0  0  0  0  0  0  0
   -0.6229   -1.3662    0.4729 H   0  0  0  0  0  0  0  0  0  0  0  0
   -4.8401   -0.0938    2.1773 H   0  0  0  0  0  0  0  0  0  0  0  0
   -6.1014   -1.8197    3.3879 H   0  0  0  0  0  0  0  0  0  0  0  0
   -5.1902   -4.1071    3.6152 H   0  0  0  0  0  0  0  0  0  0  0  0
   -3.0021   -4.6807    2.6001 H   0  0  0  0  0  0  0  0  0  0  0  0
   -1.7152   -2.9926    1.3915 H   0  0  0  0  0  0  0  0  0  0  0  0
   -1.5227    2.8287   -2.1813 H   0  0  0  0  0  0  0  0  0  0  0  0
   -1.9173    5.1790   -2.7489 H   0  0  0  0  0  0  0  0  0  0  0  0
   -4.0674    7.4020   -0.9555 H   0  0  0  0  0  0  0  0  0  0  0  0
   -2.8458    7.3325   -2.2323 H   0  0  0  0  0  0  0  0  0  0  0  0
   -2.3588    7.7585   -0.5777 H   0  0  0  0  0  0  0  0  0  0  0  0
   -3.6250    5.8364    1.1608 H   0  0  0  0  0  0  0  0  0  0  0  0
   -3.2220    3.4771    1.7321 H   0  0  0  0  0  0  0  0  0  0  0  0
    3.3238   -1.7334   -2.7620 H   0  0  0  0  0  0  0  0  0  0  0  0
    2.9950   -4.0301   -3.5370 H   0  0  0  0  0  0  0  0  0  0  0  0
  1  2  1  0
  2  3  1  0
  3  4  2  0
  4  5  1  0
  5  6  2  0
  6  7  1  0
  7  8  1  0
  8  9  2  0
  8 10  1  0
 10 11  1  0
 11 12  1  0
 11 13  1  0
 13 14  2  0
 13 15  1  0
 15 16  2  3
 16 17  1  0
 17 18  2  0
 18 19  1  0
 19 20  1  0
 20 21  2  0
 21 22  1  0
 22 23  2  0
 23 24  1  0
 24 25  2  0
 19 26  1  0
 26 27  2  0
 27 28  1  0
 28 29  2  0
 29 30  1  0
 30 31  2  0
 31 32  1  0
 31 33  1  0
 33 34  2  0
  6 35  1  0
 35 36  2  0
 36  3  1  0
 27 17  1  0
 34 28  1  0
 25 20  1  0
  1 37  1  0
  1 38  1  0
  1 39  1  0
  4 40  1  0
  5 41  1  0
  7 42  1  0
 10 43  1  0
 10 44  1  0
 12 45  1  0
 12 46  1  0
 12 47  1  0
 15 48  1  0
 16 49  1  0
 18 50  1  0
 21 51  1  0
 22 52  1  0
 23 53  1  0
 24 54  1  0
 25 55  1  0
 29 56  1  0
 30 57  1  0
 32 58  1  0
 32 59  1  0
 32 60  1  0
 33 61  1  0
 34 62  1  0
 35 63  1  0
 36 64  1  0
M  END
$$$$
