
     RDKit          3D

 67 72  0  0  0  0  0  0  0  0999 V2000
   -5.3891    3.7144    1.6787 C   0  0  0  0  0  0  0  0  0  0  0  0
   -4.1888    3.3102    0.8760 C   0  0  0  0  0  0  0  0  0  0  0  0
   -3.7614    4.0575   -0.2390 C   0  0  0  0  0  0  0  0  0  0  0  0
   -4.6116    5.4771   -0.7453 Cl  0  0  0  0  0  0  0  0  0  0  0  0
   -2.6246    3.6879   -0.9856 C   0  0  0  0  0  0  0  0  0  0  0  0
   -1.8774    2.5617   -0.6409 C   0  0  0  0  0  0  0  0  0  0  0  0
   -2.2900    1.8187    0.4524 C   0  0  0  0  0  0  0  0  0  0  0  0
   -3.4182    2.1992    1.1955 C   0  0  0  0  0  0  0  0  0  0  0  0
   -3.6010    1.3096    2.2539 N   0  0  0  0  0  0  0  0  0  0  0  0
   -2.6139    0.3203    2.2815 C   0  0  0  0  0  0  0  0  0  0  0  0
   -2.5271   -0.5534    3.1307 O   0  0  0  0  0  0  0  0  0  0  0  0
   -1.6963    0.5836    1.0623 C   0  0  1  0  0  0  0  0  0  0  0  0
   -1.7264   -0.5211    0.0650 C   0  0  0  0  0  0  0  0  0  0  0  0
   -0.5282   -1.2486    0.1338 C   0  0  0  0  0  0  0  0  0  0  0  0
   -0.5433   -2.2303   -0.8140 C   0  0  0  0  0  0  0  0  0  0  0  0
    0.4518   -3.0458   -1.1570 O   0  0  0  0  0  0  0  0  0  0  0  0
   -1.8155   -2.1943   -1.4228 N   0  0  0  0  0  0  0  0  0  0  0  0
   -2.3218   -3.1447   -2.3661 C   0  0  0  0  0  0  0  0  0  0  0  0
   -3.2411   -2.7601   -3.3506 C   0  0  0  0  0  0  0  0  0  0  0  0
   -3.7251   -3.7036   -4.2556 C   0  0  0  0  0  0  0  0  0  0  0  0
   -4.5894   -3.3196   -5.2041 F   0  0  0  0  0  0  0  0  0  0  0  0
   -3.3223   -5.0293   -4.2004 C   0  0  0  0  0  0  0  0  0  0  0  0
   -2.4239   -5.4090   -3.2155 C   0  0  0  0  0  0  0  0  0  0  0  0
   -2.0355   -6.6883   -3.1369 F   0  0  0  0  0  0  0  0  0  0  0  0
   -1.9201   -4.4872   -2.2990 C   0  0  0  0  0  0  0  0  0  0  0  0
   -2.5120   -1.0775   -0.9132 C   0  0  0  0  0  0  0  0  0  0  0  0
   -3.7337   -0.7466   -1.3240 O   0  0  0  0  0  0  0  0  0  0  0  0
    0.3655   -0.6960    1.1716 C   0  0  1  0  0  0  0  0  0  0  0  0
    1.8394   -0.4918    0.8162 C   0  0  0  0  0  0  0  0  0  0  0  0
    2.4914    0.4950    1.7028 N   0  0  0  0  0  0  0  0  0  0  0  0
    3.8285    0.8122    1.5824 C   0  0  0  0  0  0  0  0  0  0  0  0
    4.4247    1.5454    2.3603 O   0  0  0  0  0  0  0  0  0  0  0  0
    4.3926    0.2123    0.5025 O   0  0  0  0  0  0  0  0  0  0  0  0
    5.7929    0.4091    0.1820 C   0  0  0  0  0  0  0  0  0  0  0  0
    6.0197   -0.4231   -1.0897 C   0  0  0  0  0  0  0  0  0  0  0  0
    6.7004   -0.1355    1.2902 C   0  0  0  0  0  0  0  0  0  0  0  0
    6.0921    1.8781   -0.1366 C   0  0  0  0  0  0  0  0  0  0  0  0
    1.7248    0.9841    2.8553 C   0  0  0  0  0  0  0  0  0  0  0  0
    0.2526    1.3577    2.5209 C   0  0  0  0  0  0  0  0  0  0  0  0
   -0.2554    0.6434    1.3641 N   0  0  0  0  0  0  0  0  0  0  0  0
   -5.2010    4.6653    2.1873 H   0  0  0  0  0  0  0  0  0  0  0  0
   -5.6471    2.9776    2.4440 H   0  0  0  0  0  0  0  0  0  0  0  0
   -6.2670    3.8146    1.0322 H   0  0  0  0  0  0  0  0  0  0  0  0
   -2.3159    4.2881   -1.8397 H   0  0  0  0  0  0  0  0  0  0  0  0
   -0.9948    2.2799   -1.2087 H   0  0  0  0  0  0  0  0  0  0  0  0
   -4.3192    1.3613    2.9613 H   0  0  0  0  0  0  0  0  0  0  0  0
    0.3142   -3.3473   -2.0727 H   0  0  0  0  0  0  0  0  0  0  0  0
   -3.5773   -1.7340   -3.4621 H   0  0  0  0  0  0  0  0  0  0  0  0
   -3.7072   -5.7538   -4.9079 H   0  0  0  0  0  0  0  0  0  0  0  0
   -1.2641   -4.8588   -1.5159 H   0  0  0  0  0  0  0  0  0  0  0  0
   -4.0122    0.0526   -0.8425 H   0  0  0  0  0  0  0  0  0  0  0  0
    0.2660   -1.2925    2.0887 H   0  0  0  0  0  0  0  0  0  0  0  0
    1.9564   -0.1337   -0.2147 H   0  0  0  0  0  0  0  0  0  0  0  0
    2.3854   -1.4396    0.8947 H   0  0  0  0  0  0  0  0  0  0  0  0
    7.0557   -0.3592   -1.4389 H   0  0  0  0  0  0  0  0  0  0  0  0
    5.3604   -0.0866   -1.8984 H   0  0  0  0  0  0  0  0  0  0  0  0
    5.7780   -1.4779   -0.9133 H   0  0  0  0  0  0  0  0  0  0  0  0
    6.6339    0.4615    2.2046 H   0  0  0  0  0  0  0  0  0  0  0  0
    6.4123   -1.1575    1.5611 H   0  0  0  0  0  0  0  0  0  0  0  0
    7.7504   -0.1405    0.9786 H   0  0  0  0  0  0  0  0  0  0  0  0
    6.0180    2.5133    0.7511 H   0  0  0  0  0  0  0  0  0  0  0  0
    7.1025    2.0000   -0.5418 H   0  0  0  0  0  0  0  0  0  0  0  0
    5.3745    2.2715   -0.8654 H   0  0  0  0  0  0  0  0  0  0  0  0
    2.2251    1.8403    3.3201 H   0  0  0  0  0  0  0  0  0  0  0  0
    1.7327    0.1681    3.5892 H   0  0  0  0  0  0  0  0  0  0  0  0
   -0.3492    1.1835    3.4195 H   0  0  0  0  0  0  0  0  0  0  0  0
    0.2064    2.4320    2.3080 H   0  0  0  0  0  0  0  0  0  0  0  0
  1  2  1  0
  2  3  2  0
  3  4  1  0
  3  5  1  0
  5  6  2  0
  6  7  1  0
  7  8  2  0
  8  9  1  0
  9 10  1  0
 10 11  2  0
 10 12  1  0
 12 13  1  0
 13 14  1  0
 14 15  2  0
 15 16  1  0
 15 17  1  0
 17 18  1  0
 18 19  2  0
 19 20  1  0
 20 21  1  0
 20 22  2  0
 22 23  1  0
 23 24  1  0
 23 25  2  0
 17 26  1  0
 26 27  1  0
 14 28  1  0
 28 29  1  0
 29 30  1  0
 30 31  1  0
 31 32  2  0
 31 33  1  0
 33 34  1  0
 34 35  1  0
 34 36  1  0
 34 37  1  0
 30 38  1  0
 38 39  1  0
 39 40  1  0
  8  2  1  0
 12 40  1  1
 12  7  1  0
 26 13  2  0
 40 28  1  0
 25 18  1  0
  1 41  1  0
  1 42  1  0
  1 43  1  0
  5 44  1  0
  6 45  1  0
  9 46  1  0
 16 47  1  0
 19 48  1  0
 22 49  1  0
 25 50  1  0
 27 51  1  0
 28 52  1  1
 29 53  1  0
 29 54  1  0
 35 55  1  0
 35 56  1  0
 35 57  1  0
 36 58  1  0
 36 59  1  0
 36 60  1  0
 37 61  1  0
 37 62  1  0
 37 63  1  0
 38 64  1  0
 38 65  1  0
 39 66  1  0
 39 67  1  0
M  END
$$$$
