
     RDKit          3D

 74 80  0  0  0  0  0  0  0  0999 V2000
    2.5892   -1.1531    3.1106 O   0  0  0  0  0  0  0  0  0  0  0  0
    2.0843   -0.1328    2.2271 C   0  0  0  0  0  0  0  0  0  0  0  0
    2.9336    1.1394    2.4005 C   0  0  0  0  0  0  0  0  0  0  0  0
    4.3648    0.8328    2.2965 N   0  0  0  0  0  0  0  0  0  0  0  0
    4.9829    0.6367    1.0778 C   0  0  0  0  0  0  0  0  0  0  0  0
    4.2668    0.3743    0.0183 N   0  0  0  0  0  0  0  0  0  0  0  0
    4.8891    0.1769   -1.2310 C   0  0  0  0  0  0  0  0  0  0  0  0
    4.0830   -0.0993   -2.3367 C   0  0  0  0  0  0  0  0  0  0  0  0
    4.6488   -0.2993   -3.5988 C   0  0  0  0  0  0  0  0  0  0  0  0
    6.0325   -0.2240   -3.7664 C   0  0  0  0  0  0  0  0  0  0  0  0
    6.8584    0.0500   -2.6754 C   0  0  0  0  0  0  0  0  0  0  0  0
    6.2781    0.2478   -1.4193 C   0  0  0  0  0  0  0  0  0  0  0  0
    7.0331    0.5260   -0.2683 N   0  0  0  0  0  0  0  0  0  0  0  0
    8.3935    0.6553   -0.1198 C   0  0  0  0  0  0  0  0  0  0  0  0
    8.6591    0.9168    1.2078 C   0  0  0  0  0  0  0  0  0  0  0  0
    7.4178    0.9501    1.8869 C   0  0  0  0  0  0  0  0  0  0  0  0
    6.4250    0.7135    0.9529 C   0  0  0  0  0  0  0  0  0  0  0  0
    0.5989    0.1087    2.5664 C   0  0  0  0  0  0  0  0  0  0  0  0
   -0.0465    1.2152    1.8366 N   0  0  0  0  0  0  0  0  0  0  0  0
   -0.1690    0.9617    0.3861 C   0  0  0  0  0  0  0  0  0  0  0  0
   -1.2192   -0.1047   -0.0076 C   0  0  0  0  0  0  0  0  0  0  0  0
   -2.5646    0.1750    0.5393 N   0  0  0  0  0  0  0  0  0  0  0  0
   -3.5415   -0.9113    0.2273 C   0  0  0  0  0  0  0  0  0  0  0  0
   -4.9363   -0.6735    0.8189 C   0  0  0  0  0  0  0  0  0  0  0  0
   -5.4543   -1.5774    1.7654 C   0  0  0  0  0  0  0  0  0  0  0  0
   -6.7148   -1.3795    2.3291 C   0  0  0  0  0  0  0  0  0  0  0  0
   -7.4771   -0.2780    1.9554 C   0  0  0  0  0  0  0  0  0  0  0  0
   -6.9823    0.6250    1.0155 C   0  0  0  0  0  0  0  0  0  0  0  0
   -5.7165    0.4362    0.4405 C   0  0  0  0  0  0  0  0  0  0  0  0
   -5.2032    1.4011   -0.5947 C   0  0  0  0  0  0  0  0  0  0  0  0
   -5.1290    0.7757   -1.9846 C   0  0  0  0  0  0  0  0  0  0  0  0
   -4.2998   -0.4692   -2.2390 C   0  0  0  0  0  0  0  0  0  0  0  0
   -4.2630   -0.8920   -3.5887 C   0  0  0  0  0  0  0  0  0  0  0  0
   -3.5862   -2.0438   -3.9838 C   0  0  0  0  0  0  0  0  0  0  0  0
   -2.9304   -2.8108   -3.0355 C   0  0  0  0  0  0  0  0  0  0  0  0
   -2.9529   -2.4179   -1.6984 C   0  0  0  0  0  0  0  0  0  0  0  0
   -3.6270   -1.2460   -1.2710 C   0  0  0  0  0  0  0  0  0  0  0  0
   -2.4634    0.4143    1.9969 C   0  0  0  0  0  0  0  0  0  0  0  0
   -1.4025    1.4796    2.3627 C   0  0  0  0  0  0  0  0  0  0  0  0
    3.5519   -1.1592    2.9373 H   0  0  0  0  0  0  0  0  0  0  0  0
    2.1736   -0.5341    1.2132 H   0  0  0  0  0  0  0  0  0  0  0  0
    2.7668    1.5457    3.4054 H   0  0  0  0  0  0  0  0  0  0  0  0
    2.6567    1.9178    1.6814 H   0  0  0  0  0  0  0  0  0  0  0  0
    4.9264    1.3476    2.9652 H   0  0  0  0  0  0  0  0  0  0  0  0
    3.0050   -0.1587   -2.2099 H   0  0  0  0  0  0  0  0  0  0  0  0
    4.0076   -0.5125   -4.4507 H   0  0  0  0  0  0  0  0  0  0  0  0
    6.4668   -0.3799   -4.7511 H   0  0  0  0  0  0  0  0  0  0  0  0
    7.9312    0.1033   -2.8310 H   0  0  0  0  0  0  0  0  0  0  0  0
    9.0706    0.5497   -0.9551 H   0  0  0  0  0  0  0  0  0  0  0  0
    9.6421    1.0640    1.6384 H   0  0  0  0  0  0  0  0  0  0  0  0
    7.2727    1.1253    2.9447 H   0  0  0  0  0  0  0  0  0  0  0  0
    0.5472    0.3208    3.6437 H   0  0  0  0  0  0  0  0  0  0  0  0
    0.0584   -0.8377    2.4402 H   0  0  0  0  0  0  0  0  0  0  0  0
   -0.4437    1.9104   -0.0962 H   0  0  0  0  0  0  0  0  0  0  0  0
    0.8014    0.6970   -0.0483 H   0  0  0  0  0  0  0  0  0  0  0  0
   -1.2548   -0.1121   -1.1026 H   0  0  0  0  0  0  0  0  0  0  0  0
   -0.8692   -1.0928    0.3170 H   0  0  0  0  0  0  0  0  0  0  0  0
   -3.1590   -1.8146    0.7264 H   0  0  0  0  0  0  0  0  0  0  0  0
   -4.8744   -2.4451    2.0716 H   0  0  0  0  0  0  0  0  0  0  0  0
   -7.1016   -2.0866    3.0579 H   0  0  0  0  0  0  0  0  0  0  0  0
   -8.4599   -0.1236    2.3915 H   0  0  0  0  0  0  0  0  0  0  0  0
   -7.5950    1.4758    0.7282 H   0  0  0  0  0  0  0  0  0  0  0  0
   -4.2386    1.8196   -0.2935 H   0  0  0  0  0  0  0  0  0  0  0  0
   -5.8745    2.2688   -0.6476 H   0  0  0  0  0  0  0  0  0  0  0  0
   -6.1566    0.5401   -2.2980 H   0  0  0  0  0  0  0  0  0  0  0  0
   -4.7651    1.5571   -2.6659 H   0  0  0  0  0  0  0  0  0  0  0  0
   -4.7836   -0.3118   -4.3493 H   0  0  0  0  0  0  0  0  0  0  0  0
   -3.5794   -2.3399   -5.0288 H   0  0  0  0  0  0  0  0  0  0  0  0
   -2.4007   -3.7118   -3.3309 H   0  0  0  0  0  0  0  0  0  0  0  0
   -2.4239   -3.0364   -0.9751 H   0  0  0  0  0  0  0  0  0  0  0  0
   -2.2367   -0.5208    2.5247 H   0  0  0  0  0  0  0  0  0  0  0  0
   -3.4192    0.7815    2.3870 H   0  0  0  0  0  0  0  0  0  0  0  0
   -1.7344    2.4513    1.9719 H   0  0  0  0  0  0  0  0  0  0  0  0
   -1.3672    1.6025    3.4524 H   0  0  0  0  0  0  0  0  0  0  0  0
  1  2  1  0
  2  3  1  0
  3  4  1  0
  4  5  1  0
  5  6  2  0
  6  7  1  0
  7  8  2  0
  8  9  1  0
  9 10  2  0
 10 11  1  0
 11 12  2  0
 12 13  1  0
 13 14  1  0
 14 15  2  0
 15 16  1  0
 16 17  2  0
  2 18  1  0
 18 19  1  0
 19 20  1  0
 20 21  1  0
 21 22  1  0
 22 23  1  0
 23 24  1  0
 24 25  2  0
 25 26  1  0
 26 27  2  0
 27 28  1  0
 28 29  2  0
 29 30  1  0
 30 31  1  0
 31 32  1  0
 32 33  2  0
 33 34  1  0
 34 35  2  0
 35 36  1  0
 36 37  2  0
 22 38  1  0
 38 39  1  0
 17  5  1  0
 39 19  1  0
 12  7  1  0
 17 13  1  0
 37 23  1  0
 29 24  1  0
 37 32  1  0
  1 40  1  0
  2 41  1  0
  3 42  1  0
  3 43  1  0
  4 44  1  0
  8 45  1  0
  9 46  1  0
 10 47  1  0
 11 48  1  0
 14 49  1  0
 15 50  1  0
 16 51  1  0
 18 52  1  0
 18 53  1  0
 20 54  1  0
 20 55  1  0
 21 56  1  0
 21 57  1  0
 23 58  1  0
 25 59  1  0
 26 60  1  0
 27 61  1  0
 28 62  1  0
 30 63  1  0
 30 64  1  0
 31 65  1  0
 31 66  1  0
 33 67  1  0
 34 68  1  0
 35 69  1  0
 36 70  1  0
 38 71  1  0
 38 72  1  0
 39 73  1  0
 39 74  1  0
M  END
$$$$
