
     RDKit          3D

 32 33  0  0  0  0  0  0  0  0999 V2000
   -5.9790   -0.2944   -0.7424 C   0  0  0  0  0  0  0  0  0  0  0  0
   -4.5469   -0.2133   -0.3012 C   0  0  0  0  0  0  0  0  0  0  0  0
   -3.8343   -1.3771    0.0135 C   0  0  0  0  0  0  0  0  0  0  0  0
   -2.4916   -1.3053    0.3983 C   0  0  0  0  0  0  0  0  0  0  0  0
   -1.6875   -2.7759    0.8197 Cl  0  0  0  0  0  0  0  0  0  0  0  0
   -1.8343   -0.0697    0.4430 C   0  0  0  0  0  0  0  0  0  0  0  0
   -0.5259    0.0084    0.8518 O   0  0  0  0  0  0  0  0  0  0  0  0
    0.3663   -0.1431   -0.2600 C   0  0  0  0  0  0  0  0  0  0  0  0
    1.7853    0.0633    0.2560 C   0  0  0  0  0  0  0  0  0  0  0  0
    2.8062   -0.0871   -0.8634 C   0  0  0  0  0  0  0  0  0  0  0  0
    4.1623    0.1169   -0.3980 N   0  0  0  0  0  0  0  0  0  0  0  0
    4.8351    1.3053   -0.3632 C   0  0  0  0  0  0  0  0  0  0  0  0
    6.0800    0.9905    0.1302 C   0  0  0  0  0  0  0  0  0  0  0  0
    6.1764   -0.3530    0.3871 N   0  0  0  0  0  0  0  0  0  0  0  0
    5.0064   -0.8533    0.0594 C   0  0  0  0  0  0  0  0  0  0  0  0
   -2.5492    1.0966    0.1460 C   0  0  0  0  0  0  0  0  0  0  0  0
   -1.7473    2.8146    0.2572 Br  0  0  0  0  0  0  0  0  0  0  0  0
   -3.8923    1.0234   -0.2389 C   0  0  0  0  0  0  0  0  0  0  0  0
   -6.5285    0.6074   -0.4529 H   0  0  0  0  0  0  0  0  0  0  0  0
   -6.4842   -1.1461   -0.2751 H   0  0  0  0  0  0  0  0  0  0  0  0
   -6.0290   -0.4060   -1.8298 H   0  0  0  0  0  0  0  0  0  0  0  0
   -4.3304   -2.3449   -0.0305 H   0  0  0  0  0  0  0  0  0  0  0  0
    0.1437    0.5971   -1.0385 H   0  0  0  0  0  0  0  0  0  0  0  0
    0.2715   -1.1464   -0.6914 H   0  0  0  0  0  0  0  0  0  0  0  0
    1.8652    1.0551    0.7195 H   0  0  0  0  0  0  0  0  0  0  0  0
    1.9902   -0.6531    1.0621 H   0  0  0  0  0  0  0  0  0  0  0  0
    2.6211    0.6397   -1.6631 H   0  0  0  0  0  0  0  0  0  0  0  0
    2.7567   -1.0879   -1.3079 H   0  0  0  0  0  0  0  0  0  0  0  0
    4.3947    2.2416   -0.6753 H   0  0  0  0  0  0  0  0  0  0  0  0
    6.9117    1.6586    0.3129 H   0  0  0  0  0  0  0  0  0  0  0  0
    4.7248   -1.8957    0.1347 H   0  0  0  0  0  0  0  0  0  0  0  0
   -4.4372    1.9339   -0.4816 H   0  0  0  0  0  0  0  0  0  0  0  0
  1  2  1  0
  2  3  2  0
  3  4  1  0
  4  5  1  0
  4  6  2  0
  6  7  1  0
  7  8  1  0
  8  9  1  0
  9 10  1  0
 10 11  1  0
 11 12  1  0
 12 13  2  0
 13 14  1  0
 14 15  2  0
  6 16  1  0
 16 17  1  0
 16 18  2  0
 18  2  1  0
 15 11  1  0
  1 19  1  0
  1 20  1  0
  1 21  1  0
  3 22  1  0
  8 23  1  0
  8 24  1  0
  9 25  1  0
  9 26  1  0
 10 27  1  0
 10 28  1  0
 12 29  1  0
 13 30  1  0
 15 31  1  0
 18 32  1  0
M  END
$$$$
