
     RDKit          3D

 35 36  0  0  0  0  0  0  0  0999 V2000
    1.1349    0.8640    0.9276 C   0  0  0  0  0  0  0  0  0  0  0  0
    1.4158   -0.2971    0.0896 N   0  0  0  0  0  0  0  0  0  0  0  0
    1.2659   -0.0244   -1.3426 C   0  0  0  0  0  0  0  0  0  0  0  0
   -0.1791    0.2231   -1.8100 C   0  0  0  0  0  0  0  0  0  0  0  0
   -1.1136   -0.9709   -1.5935 C   0  0  0  0  0  0  0  0  0  0  0  0
   -1.5211   -1.1234   -0.2358 O   0  0  0  0  0  0  0  0  0  0  0  0
   -2.5496   -0.3730    0.2639 C   0  0  0  0  0  0  0  0  0  0  0  0
   -3.3037    0.5443   -0.4747 C   0  0  0  0  0  0  0  0  0  0  0  0
   -4.3367    1.2661    0.1340 C   0  0  0  0  0  0  0  0  0  0  0  0
   -4.6207    1.0749    1.4837 C   0  0  0  0  0  0  0  0  0  0  0  0
   -5.8911    1.9680    2.2232 Cl  0  0  0  0  0  0  0  0  0  0  0  0
   -3.8823    0.1691    2.2361 C   0  0  0  0  0  0  0  0  0  0  0  0
   -2.8511   -0.5504    1.6267 C   0  0  0  0  0  0  0  0  0  0  0  0
   -1.9566   -1.6587    2.6106 Cl  0  0  0  0  0  0  0  0  0  0  0  0
    2.7042   -0.9259    0.4094 C   0  0  0  0  0  0  0  0  0  0  0  0
    3.9181   -0.0998    0.1122 C   0  0  0  0  0  0  0  0  0  0  0  0
    5.2345   -0.7637   -0.2022 C   0  0  0  0  0  0  0  0  0  0  0  0
    4.4171   -0.1850   -1.2295 O   0  0  0  0  0  0  0  0  0  0  0  0
    1.2653    0.6181    1.9876 H   0  0  0  0  0  0  0  0  0  0  0  0
    0.0956    1.1885    0.8209 H   0  0  0  0  0  0  0  0  0  0  0  0
    1.7792    1.7173    0.6909 H   0  0  0  0  0  0  0  0  0  0  0  0
    1.8772    0.8392   -1.6349 H   0  0  0  0  0  0  0  0  0  0  0  0
    1.6432   -0.8801   -1.9183 H   0  0  0  0  0  0  0  0  0  0  0  0
   -0.5768    1.1253   -1.3348 H   0  0  0  0  0  0  0  0  0  0  0  0
   -0.1396    0.4277   -2.8873 H   0  0  0  0  0  0  0  0  0  0  0  0
   -0.5904   -1.8939   -1.8705 H   0  0  0  0  0  0  0  0  0  0  0  0
   -1.9817   -0.9245   -2.2608 H   0  0  0  0  0  0  0  0  0  0  0  0
   -3.1142    0.7292   -1.5266 H   0  0  0  0  0  0  0  0  0  0  0  0
   -4.9140    1.9763   -0.4533 H   0  0  0  0  0  0  0  0  0  0  0  0
   -4.1039    0.0220    3.2893 H   0  0  0  0  0  0  0  0  0  0  0  0
    2.7180   -1.1893    1.4747 H   0  0  0  0  0  0  0  0  0  0  0  0
    2.7629   -1.8876   -0.1175 H   0  0  0  0  0  0  0  0  0  0  0  0
    3.9448    0.8543    0.6188 H   0  0  0  0  0  0  0  0  0  0  0  0
    5.3021   -1.8437   -0.1663 H   0  0  0  0  0  0  0  0  0  0  0  0
    6.1474   -0.2438    0.0594 H   0  0  0  0  0  0  0  0  0  0  0  0
  1  2  1  0
  2  3  1  0
  3  4  1  0
  4  5  1  0
  5  6  1  0
  6  7  1  0
  7  8  2  0
  8  9  1  0
  9 10  2  0
 10 11  1  0
 10 12  1  0
 12 13  2  0
 13 14  1  0
  2 15  1  0
 15 16  1  0
 16 17  1  0
 17 18  1  0
 13  7  1  0
 18 16  1  0
  1 19  1  0
  1 20  1  0
  1 21  1  0
  3 22  1  0
  3 23  1  0
  4 24  1  0
  4 25  1  0
  5 26  1  0
  5 27  1  0
  8 28  1  0
  9 29  1  0
 12 30  1  0
 15 31  1  0
 15 32  1  0
 16 33  1  0
 17 34  1  0
 17 35  1  0
M  END
$$$$
