
     RDKit          3D

 57 59  0  0  0  0  0  0  0  0999 V2000
   -3.9260    0.5673    1.9433 C   0  0  0  0  0  0  0  0  0  0  0  0
   -2.8945   -0.1144    2.6982 N   0  0  0  0  0  0  0  0  0  0  0  0
   -1.9081   -0.9102    2.1925 C   0  0  0  0  0  0  0  0  0  0  0  0
   -1.3630   -2.1563    3.1742 S   0  0  0  0  0  0  0  0  0  0  0  0
   -1.4559   -0.6352    0.9115 N   0  0  0  0  0  0  0  0  0  0  0  0
   -0.9693   -1.7234    0.0391 C   0  0  0  0  0  0  0  0  0  0  0  0
   -1.3954   -1.6063   -1.4352 C   0  0  0  0  0  0  0  0  0  0  0  0
   -2.8813   -1.4637   -1.6879 C   0  0  0  0  0  0  0  0  0  0  0  0
   -3.3312   -0.5842   -2.6829 C   0  0  0  0  0  0  0  0  0  0  0  0
   -4.6938   -0.4496   -2.9512 C   0  0  0  0  0  0  0  0  0  0  0  0
   -5.6254   -1.1955   -2.2318 C   0  0  0  0  0  0  0  0  0  0  0  0
   -5.2020   -2.0799   -1.2353 C   0  0  0  0  0  0  0  0  0  0  0  0
   -6.1984   -2.9116   -0.4831 C   0  0  0  0  0  0  0  0  0  0  0  0
   -3.8294   -2.2236   -0.9859 C   0  0  0  0  0  0  0  0  0  0  0  0
   -1.0664    0.7493    0.5780 C   0  0  0  0  0  0  0  0  0  0  0  0
    0.4135    0.9642    0.7479 C   0  0  0  0  0  0  0  0  0  0  0  0
    1.2961    0.8870   -0.2659 C   0  0  0  0  0  0  0  0  0  0  0  0
    2.7262    1.1061   -0.0463 C   0  0  0  0  0  0  0  0  0  0  0  0
    3.6503    1.0046   -1.0904 C   0  0  0  0  0  0  0  0  0  0  0  0
    5.0143    1.2134   -0.8475 C   0  0  0  0  0  0  0  0  0  0  0  0
    5.9927    1.1360   -1.8083 O   0  0  0  0  0  0  0  0  0  0  0  0
    5.5934    0.8528   -3.1416 C   0  0  0  0  0  0  0  0  0  0  0  0
    5.4558    1.5219    0.4580 C   0  0  0  0  0  0  0  0  0  0  0  0
    6.8083    1.7110    0.6047 O   0  0  0  0  0  0  0  0  0  0  0  0
    7.3068    1.9407    1.9151 C   0  0  0  0  0  0  0  0  0  0  0  0
    4.5269    1.6247    1.4991 C   0  0  0  0  0  0  0  0  0  0  0  0
    3.1722    1.4169    1.2399 C   0  0  0  0  0  0  0  0  0  0  0  0
    2.2376    1.5353    2.2735 N   0  0  0  0  0  0  0  0  0  0  0  0
    0.8874    1.3737    2.1068 C   0  0  0  0  0  0  0  0  0  0  0  0
    0.1161    1.5857    3.0367 O   0  0  0  0  0  0  0  0  0  0  0  0
   -3.8045    0.4404    0.8666 H   0  0  0  0  0  0  0  0  0  0  0  0
   -4.8911    0.1472    2.2400 H   0  0  0  0  0  0  0  0  0  0  0  0
   -3.9022    1.6269    2.2096 H   0  0  0  0  0  0  0  0  0  0  0  0
   -3.1234   -0.3351    3.6604 H   0  0  0  0  0  0  0  0  0  0  0  0
   -1.3319   -2.6846    0.4180 H   0  0  0  0  0  0  0  0  0  0  0  0
    0.1235   -1.7619    0.1111 H   0  0  0  0  0  0  0  0  0  0  0  0
   -1.0482   -2.4976   -1.9733 H   0  0  0  0  0  0  0  0  0  0  0  0
   -0.8713   -0.7577   -1.8888 H   0  0  0  0  0  0  0  0  0  0  0  0
   -2.6224    0.0044   -3.2609 H   0  0  0  0  0  0  0  0  0  0  0  0
   -5.0296    0.2337   -3.7269 H   0  0  0  0  0  0  0  0  0  0  0  0
   -6.6840   -1.0869   -2.4568 H   0  0  0  0  0  0  0  0  0  0  0  0
   -7.1574   -2.3903   -0.3981 H   0  0  0  0  0  0  0  0  0  0  0  0
   -6.3574   -3.8631   -0.9995 H   0  0  0  0  0  0  0  0  0  0  0  0
   -5.8485   -3.1139    0.5349 H   0  0  0  0  0  0  0  0  0  0  0  0
   -3.5072   -2.9332   -0.2265 H   0  0  0  0  0  0  0  0  0  0  0  0
   -1.3785    0.9551   -0.4511 H   0  0  0  0  0  0  0  0  0  0  0  0
   -1.6020    1.4725    1.1993 H   0  0  0  0  0  0  0  0  0  0  0  0
    0.9736    0.6382   -1.2706 H   0  0  0  0  0  0  0  0  0  0  0  0
    3.2903    0.7610   -2.0836 H   0  0  0  0  0  0  0  0  0  0  0  0
    5.1303   -0.1365   -3.2130 H   0  0  0  0  0  0  0  0  0  0  0  0
    4.9277    1.6314   -3.5287 H   0  0  0  0  0  0  0  0  0  0  0  0
    6.4921    0.8441   -3.7661 H   0  0  0  0  0  0  0  0  0  0  0  0
    8.3959    2.0255    1.8488 H   0  0  0  0  0  0  0  0  0  0  0  0
    6.9244    2.8826    2.3222 H   0  0  0  0  0  0  0  0  0  0  0  0
    7.0789    1.1001    2.5789 H   0  0  0  0  0  0  0  0  0  0  0  0
    4.8357    1.8679    2.5087 H   0  0  0  0  0  0  0  0  0  0  0  0
    2.5298    1.7933    3.2064 H   0  0  0  0  0  0  0  0  0  0  0  0
  1  2  1  0
  2  3  1  0
  3  4  2  0
  3  5  1  0
  5  6  1  0
  6  7  1  0
  7  8  1  0
  8  9  2  0
  9 10  1  0
 10 11  2  0
 11 12  1  0
 12 13  1  0
 12 14  2  0
  5 15  1  0
 15 16  1  0
 16 17  2  0
 17 18  1  0
 18 19  2  0
 19 20  1  0
 20 21  1  0
 21 22  1  0
 20 23  2  0
 23 24  1  0
 24 25  1  0
 23 26  1  0
 26 27  2  0
 27 28  1  0
 28 29  1  0
 29 30  2  0
 14  8  1  0
 29 16  1  0
 27 18  1  0
  1 31  1  0
  1 32  1  0
  1 33  1  0
  2 34  1  0
  6 35  1  0
  6 36  1  0
  7 37  1  0
  7 38  1  0
  9 39  1  0
 10 40  1  0
 11 41  1  0
 13 42  1  0
 13 43  1  0
 13 44  1  0
 14 45  1  0
 15 46  1  0
 15 47  1  0
 17 48  1  0
 19 49  1  0
 22 50  1  0
 22 51  1  0
 22 52  1  0
 25 53  1  0
 25 54  1  0
 25 55  1  0
 26 56  1  0
 28 57  1  0
M  END
$$$$
