
     RDKit          3D

 64 69  0  0  0  0  0  0  0  0999 V2000
   -9.0337    3.1018    0.0589 C   0  0  0  0  0  0  0  0  0  0  0  0
   -8.5502    1.9292    0.7021 O   0  0  0  0  0  0  0  0  0  0  0  0
   -7.2216    1.6449    0.5497 C   0  0  0  0  0  0  0  0  0  0  0  0
   -6.2907    2.4173   -0.1403 C   0  0  0  0  0  0  0  0  0  0  0  0
   -4.9525    2.0076   -0.2210 C   0  0  0  0  0  0  0  0  0  0  0  0
   -4.5252    0.8221    0.3940 C   0  0  0  0  0  0  0  0  0  0  0  0
   -3.1559    0.4014    0.2979 N   0  0  0  0  0  0  0  0  0  0  0  0
   -2.0259    1.2226    0.1500 C   0  0  0  0  0  0  0  0  0  0  0  0
   -2.0671    2.5809    0.2387 N   0  0  0  0  0  0  0  0  0  0  0  0
   -0.9007    0.4296   -0.0415 C   0  0  0  0  0  0  0  0  0  0  0  0
    0.4633    0.9208   -0.2515 C   0  0  0  0  0  0  0  0  0  0  0  0
    0.6984    2.1220   -0.3243 O   0  0  0  0  0  0  0  0  0  0  0  0
    1.3952   -0.0844   -0.4251 N   0  0  0  0  0  0  0  0  0  0  0  0
    2.7492    0.0536   -0.5629 C   0  0  0  0  0  0  0  0  0  0  0  0
    3.5994   -0.8573   -1.0718 C   0  0  0  0  0  0  0  0  0  0  0  0
    3.2551   -2.2089   -1.6150 C   0  0  0  0  0  0  0  0  0  0  0  0
    4.9268   -0.4038   -1.1282 N   0  0  0  0  0  0  0  0  0  0  0  0
    5.5950   -0.4044   -2.4435 C   0  0  0  0  0  0  0  0  0  0  0  0
    4.9216    0.8787   -0.5032 N   0  0  0  0  0  0  0  0  0  0  0  0
    6.1012    1.4150    0.0816 C   0  0  0  0  0  0  0  0  0  0  0  0
    6.1251    2.7264    0.5767 C   0  0  0  0  0  0  0  0  0  0  0  0
    7.2874    3.2643    1.1402 C   0  0  0  0  0  0  0  0  0  0  0  0
    8.4455    2.4966    1.2213 C   0  0  0  0  0  0  0  0  0  0  0  0
    8.4408    1.1899    0.7429 C   0  0  0  0  0  0  0  0  0  0  0  0
    7.2777    0.6547    0.1794 C   0  0  0  0  0  0  0  0  0  0  0  0
    3.6066    1.2075   -0.1215 C   0  0  0  0  0  0  0  0  0  0  0  0
    3.2254    2.1518    0.5511 O   0  0  0  0  0  0  0  0  0  0  0  0
   -1.3424   -0.9095    0.0522 C   0  0  0  0  0  0  0  0  0  0  0  0
   -0.6191   -2.0580   -0.0632 N   0  0  0  0  0  0  0  0  0  0  0  0
   -1.3351   -3.1845    0.0844 C   0  0  0  0  0  0  0  0  0  0  0  0
   -0.6735   -4.4033   -0.0026 C   0  0  0  0  0  0  0  0  0  0  0  0
   -1.3524   -5.6147    0.1355 C   0  0  0  0  0  0  0  0  0  0  0  0
   -2.7206   -5.6088    0.3655 C   0  0  0  0  0  0  0  0  0  0  0  0
   -3.3964   -4.3913    0.4569 C   0  0  0  0  0  0  0  0  0  0  0  0
   -2.7326   -3.1786    0.3235 C   0  0  0  0  0  0  0  0  0  0  0  0
   -3.4462   -2.0481    0.4249 N   0  0  0  0  0  0  0  0  0  0  0  0
   -2.7091   -0.9191    0.2945 C   0  0  0  0  0  0  0  0  0  0  0  0
   -5.4680    0.0444    1.0756 C   0  0  0  0  0  0  0  0  0  0  0  0
   -6.8024    0.4600    1.1550 C   0  0  0  0  0  0  0  0  0  0  0  0
   -8.9057    3.0366   -1.0271 H   0  0  0  0  0  0  0  0  0  0  0  0
   -8.5547    4.0004    0.4615 H   0  0  0  0  0  0  0  0  0  0  0  0
  -10.1061    3.1774    0.2626 H   0  0  0  0  0  0  0  0  0  0  0  0
   -6.5696    3.3393   -0.6400 H   0  0  0  0  0  0  0  0  0  0  0  0
   -4.2748    2.6148   -0.8173 H   0  0  0  0  0  0  0  0  0  0  0  0
   -2.7194    3.0216    0.8861 H   0  0  0  0  0  0  0  0  0  0  0  0
   -1.1584    3.0635    0.2506 H   0  0  0  0  0  0  0  0  0  0  0  0
    1.0129   -1.0192   -0.5355 H   0  0  0  0  0  0  0  0  0  0  0  0
    3.9166   -2.9671   -1.1825 H   0  0  0  0  0  0  0  0  0  0  0  0
    2.2291   -2.5089   -1.3866 H   0  0  0  0  0  0  0  0  0  0  0  0
    3.3714   -2.2291   -2.7030 H   0  0  0  0  0  0  0  0  0  0  0  0
    5.0071    0.1574   -3.1795 H   0  0  0  0  0  0  0  0  0  0  0  0
    6.5931    0.0413   -2.3983 H   0  0  0  0  0  0  0  0  0  0  0  0
    5.7181   -1.4319   -2.8041 H   0  0  0  0  0  0  0  0  0  0  0  0
    5.2458    3.3638    0.5176 H   0  0  0  0  0  0  0  0  0  0  0  0
    7.2817    4.2852    1.5145 H   0  0  0  0  0  0  0  0  0  0  0  0
    9.3470    2.9143    1.6617 H   0  0  0  0  0  0  0  0  0  0  0  0
    9.3385    0.5811    0.8152 H   0  0  0  0  0  0  0  0  0  0  0  0
    7.2984   -0.3792   -0.1530 H   0  0  0  0  0  0  0  0  0  0  0  0
    0.3992   -4.4140   -0.1807 H   0  0  0  0  0  0  0  0  0  0  0  0
   -0.8115   -6.5554    0.0645 H   0  0  0  0  0  0  0  0  0  0  0  0
   -3.2642   -6.5442    0.4743 H   0  0  0  0  0  0  0  0  0  0  0  0
   -4.4694   -4.3877    0.6367 H   0  0  0  0  0  0  0  0  0  0  0  0
   -5.1960   -0.8771    1.5823 H   0  0  0  0  0  0  0  0  0  0  0  0
   -7.5214   -0.1515    1.6945 H   0  0  0  0  0  0  0  0  0  0  0  0
  1  2  1  0
  2  3  1  0
  3  4  2  0
  4  5  1  0
  5  6  2  0
  6  7  1  0
  7  8  1  0
  8  9  1  0
  8 10  2  0
 10 11  1  0
 11 12  2  0
 11 13  1  0
 13 14  1  0
 14 15  2  0
 15 16  1  0
 15 17  1  0
 17 18  1  0
 17 19  1  0
 19 20  1  0
 20 21  2  0
 21 22  1  0
 22 23  2  0
 23 24  1  0
 24 25  2  0
 19 26  1  0
 26 27  2  0
 10 28  1  0
 28 29  2  0
 29 30  1  0
 30 31  2  0
 31 32  1  0
 32 33  2  0
 33 34  1  0
 34 35  2  0
 35 36  1  0
 36 37  2  0
  6 38  1  0
 38 39  2  0
 39  3  1  0
 37  7  1  0
 26 14  1  0
 37 28  1  0
 25 20  1  0
 35 30  1  0
  1 40  1  0
  1 41  1  0
  1 42  1  0
  4 43  1  0
  5 44  1  0
  9 45  1  0
  9 46  1  0
 13 47  1  0
 16 48  1  0
 16 49  1  0
 16 50  1  0
 18 51  1  0
 18 52  1  0
 18 53  1  0
 21 54  1  0
 22 55  1  0
 23 56  1  0
 24 57  1  0
 25 58  1  0
 31 59  1  0
 32 60  1  0
 33 61  1  0
 34 62  1  0
 38 63  1  0
 39 64  1  0
M  END
$$$$
