
     RDKit          3D

 72 77  0  0  0  0  0  0  0  0999 V2000
   -3.3042   -0.5579   -2.3215 O   0  0  0  0  0  0  0  0  0  0  0  0
   -3.4685   -0.5343   -1.0961 C   0  0  0  0  0  0  0  0  0  0  0  0
   -4.7848   -0.0251   -0.4605 C   0  0  0  0  0  0  0  0  0  0  0  0
   -5.6998   -1.1526    0.0246 C   0  0  0  0  0  0  0  0  0  0  0  0
   -5.7448   -2.4056   -0.6095 C   0  0  0  0  0  0  0  0  0  0  0  0
   -6.5931   -3.4102   -0.1394 C   0  0  0  0  0  0  0  0  0  0  0  0
   -7.4134   -3.1752    0.9622 C   0  0  0  0  0  0  0  0  0  0  0  0
   -7.3930   -1.9329    1.5924 C   0  0  0  0  0  0  0  0  0  0  0  0
   -6.5457   -0.9270    1.1253 C   0  0  0  0  0  0  0  0  0  0  0  0
   -5.5187    0.9867   -1.3458 C   0  0  0  0  0  0  0  0  0  0  0  0
   -6.1997    0.5918   -2.5089 C   0  0  0  0  0  0  0  0  0  0  0  0
   -6.8624    1.5306   -3.3020 C   0  0  0  0  0  0  0  0  0  0  0  0
   -6.8499    2.8781   -2.9485 C   0  0  0  0  0  0  0  0  0  0  0  0
   -6.1721    3.2891   -1.8032 C   0  0  0  0  0  0  0  0  0  0  0  0
   -5.5105    2.3514   -1.0070 C   0  0  0  0  0  0  0  0  0  0  0  0
   -2.4511   -0.9771   -0.2485 N   0  0  0  0  0  0  0  0  0  0  0  0
   -1.2255   -1.4698   -0.8805 C   0  0  0  0  0  0  0  0  0  0  0  0
   -0.1844   -1.9866    0.1308 C   0  0  0  0  0  0  0  0  0  0  0  0
   -0.0144   -1.1378    1.3279 N   0  0  0  0  0  0  0  0  0  0  0  0
    0.6196    0.1626    1.0163 C   0  0  0  0  0  0  0  0  0  0  0  0
    2.0659    0.1114    0.4737 C   0  0  0  0  0  0  0  0  0  0  0  0
    2.4700    1.4700    0.2402 O   0  0  0  0  0  0  0  0  0  0  0  0
    3.0238   -0.5892    1.4605 C   0  0  0  0  0  0  0  0  0  0  0  0
    4.2679   -0.9964    0.8057 N   0  0  0  0  0  0  0  0  0  0  0  0
    5.3288   -0.1480    0.5807 C   0  0  0  0  0  0  0  0  0  0  0  0
    5.1468    1.1435    0.6583 N   0  0  0  0  0  0  0  0  0  0  0  0
    6.2269    2.0274    0.4498 C   0  0  0  0  0  0  0  0  0  0  0  0
    5.9898    3.3995    0.5547 C   0  0  0  0  0  0  0  0  0  0  0  0
    7.0259    4.3180    0.3652 C   0  0  0  0  0  0  0  0  0  0  0  0
    8.3144    3.8704    0.0686 C   0  0  0  0  0  0  0  0  0  0  0  0
    8.5743    2.5037   -0.0425 C   0  0  0  0  0  0  0  0  0  0  0  0
    7.5276    1.5967    0.1481 C   0  0  0  0  0  0  0  0  0  0  0  0
    7.6984    0.2060    0.0488 N   0  0  0  0  0  0  0  0  0  0  0  0
    8.8268   -0.5217   -0.2446 C   0  0  0  0  0  0  0  0  0  0  0  0
    8.4889   -1.8581   -0.2466 C   0  0  0  0  0  0  0  0  0  0  0  0
    7.1111   -1.9454    0.0648 C   0  0  0  0  0  0  0  0  0  0  0  0
    6.6443   -0.6570    0.2505 C   0  0  0  0  0  0  0  0  0  0  0  0
   -1.3278   -0.9177    1.9872 C   0  0  0  0  0  0  0  0  0  0  0  0
   -2.5900   -1.2925    1.1750 C   0  0  0  0  0  0  0  0  0  0  0  0
   -4.4739    0.5379    0.4301 H   0  0  0  0  0  0  0  0  0  0  0  0
   -5.1279   -2.6130   -1.4828 H   0  0  0  0  0  0  0  0  0  0  0  0
   -6.6193   -4.3750   -0.6406 H   0  0  0  0  0  0  0  0  0  0  0  0
   -8.0775   -3.9569    1.3219 H   0  0  0  0  0  0  0  0  0  0  0  0
   -8.0440   -1.7434    2.4425 H   0  0  0  0  0  0  0  0  0  0  0  0
   -6.5552    0.0418    1.6219 H   0  0  0  0  0  0  0  0  0  0  0  0
   -6.2084   -0.4522   -2.8151 H   0  0  0  0  0  0  0  0  0  0  0  0
   -7.3811    1.2084   -4.2011 H   0  0  0  0  0  0  0  0  0  0  0  0
   -7.3613    3.6081   -3.5701 H   0  0  0  0  0  0  0  0  0  0  0  0
   -6.1556    4.3412   -1.5308 H   0  0  0  0  0  0  0  0  0  0  0  0
   -4.9841    2.6993   -0.1213 H   0  0  0  0  0  0  0  0  0  0  0  0
   -0.8078   -0.6517   -1.4793 H   0  0  0  0  0  0  0  0  0  0  0  0
   -1.4948   -2.2788   -1.5705 H   0  0  0  0  0  0  0  0  0  0  0  0
    0.7717   -2.1630   -0.3738 H   0  0  0  0  0  0  0  0  0  0  0  0
   -0.4983   -2.9808    0.4775 H   0  0  0  0  0  0  0  0  0  0  0  0
   -0.0007    0.7455    0.3211 H   0  0  0  0  0  0  0  0  0  0  0  0
    0.6554    0.7635    1.9376 H   0  0  0  0  0  0  0  0  0  0  0  0
    2.0899   -0.3896   -0.4999 H   0  0  0  0  0  0  0  0  0  0  0  0
    3.4545    1.4655    0.2231 H   0  0  0  0  0  0  0  0  0  0  0  0
    2.5617   -1.5011    1.8528 H   0  0  0  0  0  0  0  0  0  0  0  0
    3.2472    0.0600    2.3157 H   0  0  0  0  0  0  0  0  0  0  0  0
    4.5215   -1.9619    0.9732 H   0  0  0  0  0  0  0  0  0  0  0  0
    4.9883    3.7541    0.7865 H   0  0  0  0  0  0  0  0  0  0  0  0
    6.8245    5.3831    0.4505 H   0  0  0  0  0  0  0  0  0  0  0  0
    9.1166    4.5903   -0.0778 H   0  0  0  0  0  0  0  0  0  0  0  0
    9.5836    2.1794   -0.2754 H   0  0  0  0  0  0  0  0  0  0  0  0
    9.7773   -0.0458   -0.4373 H   0  0  0  0  0  0  0  0  0  0  0  0
    9.1633   -2.6789   -0.4531 H   0  0  0  0  0  0  0  0  0  0  0  0
    6.5267   -2.8533    0.1361 H   0  0  0  0  0  0  0  0  0  0  0  0
   -1.4293    0.1278    2.3092 H   0  0  0  0  0  0  0  0  0  0  0  0
   -1.3368   -1.5043    2.9143 H   0  0  0  0  0  0  0  0  0  0  0  0
   -2.7692   -2.3731    1.2400 H   0  0  0  0  0  0  0  0  0  0  0  0
   -3.4538   -0.8018    1.6242 H   0  0  0  0  0  0  0  0  0  0  0  0
  1  2  2  0
  2  3  1  0
  3  4  1  0
  4  5  2  0
  5  6  1  0
  6  7  2  0
  7  8  1  0
  8  9  2  0
  3 10  1  0
 10 11  2  0
 11 12  1  0
 12 13  2  0
 13 14  1  0
 14 15  2  0
  2 16  1  0
 16 17  1  0
 17 18  1  0
 18 19  1  0
 19 20  1  0
 20 21  1  0
 21 22  1  0
 21 23  1  0
 23 24  1  0
 24 25  1  0
 25 26  2  0
 26 27  1  0
 27 28  2  0
 28 29  1  0
 29 30  2  0
 30 31  1  0
 31 32  2  0
 32 33  1  0
 33 34  1  0
 34 35  2  0
 35 36  1  0
 36 37  2  0
 19 38  1  0
 38 39  1  0
  9  4  1  0
 15 10  1  0
 39 16  1  0
 37 25  1  0
 32 27  1  0
 37 33  1  0
  3 40  1  0
  5 41  1  0
  6 42  1  0
  7 43  1  0
  8 44  1  0
  9 45  1  0
 11 46  1  0
 12 47  1  0
 13 48  1  0
 14 49  1  0
 15 50  1  0
 17 51  1  0
 17 52  1  0
 18 53  1  0
 18 54  1  0
 20 55  1  0
 20 56  1  0
 21 57  1  0
 22 58  1  0
 23 59  1  0
 23 60  1  0
 24 61  1  0
 28 62  1  0
 29 63  1  0
 30 64  1  0
 31 65  1  0
 34 66  1  0
 35 67  1  0
 36 68  1  0
 38 69  1  0
 38 70  1  0
 39 71  1  0
 39 72  1  0
M  END
$$$$
