
     RDKit          3D

 57 59  0  0  0  0  0  0  0  0999 V2000
   -2.0166   -3.1026   -0.9623 C   0  0  0  0  0  0  0  0  0  0  0  0
   -2.0033   -1.6018   -0.6710 C   0  0  0  0  0  0  0  0  0  0  0  0
   -3.2611   -1.1944   -0.0224 N   0  0  0  0  0  0  0  0  0  0  0  0
   -4.2331   -0.5769   -0.9429 C   0  0  0  0  0  0  0  0  0  0  0  0
   -4.7919   -1.5404   -1.9946 C   0  0  0  0  0  0  0  0  0  0  0  0
   -3.0286   -0.3507    1.1776 C   0  0  0  0  0  0  0  0  0  0  0  0
   -2.5875    1.1144    0.9714 C   0  0  0  0  0  0  0  0  0  0  0  0
   -1.2909    1.1684    0.3636 O   0  0  0  0  0  0  0  0  0  0  0  0
   -0.7820    2.4462    0.3478 C   0  0  0  0  0  0  0  0  0  0  0  0
   -1.2458    3.4150   -0.4695 C   0  0  0  0  0  0  0  0  0  0  0  0
   -0.6355    4.7875   -0.3563 C   0  0  2  0  0  0  0  0  0  0  0  0
   -0.7707    5.6065   -1.5087 O   0  0  0  0  0  0  0  0  0  0  0  0
    0.1116    6.6545   -1.3334 C   0  0  0  0  0  0  0  0  0  0  0  0
    0.1227    7.6534   -2.0332 O   0  0  0  0  0  0  0  0  0  0  0  0
    1.3045    6.3940   -0.0326 S   0  0  0  0  0  0  0  0  0  0  0  0
    0.8696    4.6587   -0.0877 C   0  0  1  0  0  0  0  0  0  0  0  0
    1.1350    3.7917    1.0965 C   0  0  0  0  0  0  0  0  0  0  0  0
    0.3415    2.7061    1.2576 C   0  0  0  0  0  0  0  0  0  0  0  0
    0.6165    1.8182    2.4176 C   0  0  0  0  0  0  0  0  0  0  0  0
    0.2306    2.1231    3.5430 O   0  0  0  0  0  0  0  0  0  0  0  0
    1.3723    0.5518    2.1957 C   0  0  0  0  0  0  0  0  0  0  0  0
    1.7977    0.0976    1.0030 C   0  0  0  0  0  0  0  0  0  0  0  0
    2.5506   -1.1581    0.8180 C   0  0  0  0  0  0  0  0  0  0  0  0
    3.4945   -1.2288   -0.2168 C   0  0  0  0  0  0  0  0  0  0  0  0
    4.2112   -2.4093   -0.4586 C   0  0  0  0  0  0  0  0  0  0  0  0
    3.9867   -3.5400    0.3284 C   0  0  0  0  0  0  0  0  0  0  0  0
    4.6176   -4.7435    0.2095 O   0  0  0  0  0  0  0  0  0  0  0  0
    5.5621   -4.8691   -0.8470 C   0  0  0  0  0  0  0  0  0  0  0  0
    3.0389   -3.4789    1.3509 C   0  0  0  0  0  0  0  0  0  0  0  0
    2.3194   -2.3033    1.5898 C   0  0  0  0  0  0  0  0  0  0  0  0
   -2.8459   -3.4000   -1.6188 H   0  0  0  0  0  0  0  0  0  0  0  0
   -1.0791   -3.3965   -1.4475 H   0  0  0  0  0  0  0  0  0  0  0  0
   -2.0940   -3.6788   -0.0297 H   0  0  0  0  0  0  0  0  0  0  0  0
   -1.8165   -1.0354   -1.5919 H   0  0  0  0  0  0  0  0  0  0  0  0
   -1.1354   -1.4231   -0.0192 H   0  0  0  0  0  0  0  0  0  0  0  0
   -5.0839   -0.2147   -0.3534 H   0  0  0  0  0  0  0  0  0  0  0  0
   -3.8098    0.3012   -1.4592 H   0  0  0  0  0  0  0  0  0  0  0  0
   -5.6317   -1.0663   -2.5233 H   0  0  0  0  0  0  0  0  0  0  0  0
   -4.0393   -1.7946   -2.7408 H   0  0  0  0  0  0  0  0  0  0  0  0
   -5.1545   -2.4717   -1.5283 H   0  0  0  0  0  0  0  0  0  0  0  0
   -2.2967   -0.8573    1.8272 H   0  0  0  0  0  0  0  0  0  0  0  0
   -3.9654   -0.3337    1.7543 H   0  0  0  0  0  0  0  0  0  0  0  0
   -3.3197    1.6604    0.3637 H   0  0  0  0  0  0  0  0  0  0  0  0
   -2.5457    1.5956    1.9590 H   0  0  0  0  0  0  0  0  0  0  0  0
   -2.0878    3.2557   -1.1359 H   0  0  0  0  0  0  0  0  0  0  0  0
   -1.1778    5.2895    0.4652 H   0  0  0  0  0  0  0  0  0  0  0  0
    1.3955    4.2360   -0.9575 H   0  0  0  0  0  0  0  0  0  0  0  0
    1.9774    3.9890    1.7552 H   0  0  0  0  0  0  0  0  0  0  0  0
    1.5673    0.0075    3.1155 H   0  0  0  0  0  0  0  0  0  0  0  0
    1.6147    0.6591    0.0890 H   0  0  0  0  0  0  0  0  0  0  0  0
    3.6855   -0.3599   -0.8441 H   0  0  0  0  0  0  0  0  0  0  0  0
    4.9366   -2.4047   -1.2623 H   0  0  0  0  0  0  0  0  0  0  0  0
    6.3834   -4.1460   -0.7307 H   0  0  0  0  0  0  0  0  0  0  0  0
    5.0805   -4.7618   -1.8179 H   0  0  0  0  0  0  0  0  0  0  0  0
    5.9884   -5.8727   -0.7921 H   0  0  0  0  0  0  0  0  0  0  0  0
    2.8514   -4.3579    1.9673 H   0  0  0  0  0  0  0  0  0  0  0  0
    1.5665   -2.3083    2.3786 H   0  0  0  0  0  0  0  0  0  0  0  0
  1  2  1  0
  2  3  1  0
  3  4  1  0
  4  5  1  0
  3  6  1  0
  6  7  1  0
  7  8  1  0
  8  9  1  0
  9 10  2  0
 10 11  1  0
 11 12  1  0
 12 13  1  0
 13 14  2  0
 13 15  1  0
 15 16  1  0
 16 17  1  0
 17 18  2  0
 18 19  1  0
 19 20  2  0
 19 21  1  0
 21 22  2  0
 22 23  1  0
 23 24  2  0
 24 25  1  0
 25 26  2  0
 26 27  1  0
 27 28  1  0
 26 29  1  0
 29 30  2  0
 18  9  1  0
 30 23  1  0
 16 11  1  0
  1 31  1  0
  1 32  1  0
  1 33  1  0
  2 34  1  0
  2 35  1  0
  4 36  1  0
  4 37  1  0
  5 38  1  0
  5 39  1  0
  5 40  1  0
  6 41  1  0
  6 42  1  0
  7 43  1  0
  7 44  1  0
 10 45  1  0
 11 46  1  1
 16 47  1  6
 17 48  1  0
 21 49  1  0
 22 50  1  0
 24 51  1  0
 25 52  1  0
 28 53  1  0
 28 54  1  0
 28 55  1  0
 29 56  1  0
 30 57  1  0
M  END
$$$$
