
     RDKit          3D

 50 52  0  0  0  0  0  0  0  0999 V2000
   -4.2344   -3.1760   -0.7461 C   0  0  0  0  0  0  0  0  0  0  0  0
   -4.3789   -1.9828    0.0136 O   0  0  0  0  0  0  0  0  0  0  0  0
   -3.3594   -1.0717   -0.0561 C   0  0  0  0  0  0  0  0  0  0  0  0
   -2.1241   -1.2817   -0.6713 C   0  0  0  0  0  0  0  0  0  0  0  0
   -1.1504   -0.2713   -0.6471 C   0  0  0  0  0  0  0  0  0  0  0  0
    0.1466   -0.5271   -1.3088 C   0  0  0  0  0  0  0  0  0  0  0  0
    1.1036    0.3462   -1.2900 N   0  0  0  0  0  0  0  0  0  0  0  0
    2.2899    0.0075   -1.8897 N   0  0  0  0  0  0  0  0  0  0  0  0
    2.8910   -1.2475   -1.8124 C   0  0  0  0  0  0  0  0  0  0  0  0
    2.3829   -2.2718   -1.3600 O   0  0  0  0  0  0  0  0  0  0  0  0
    4.2976   -1.2568   -2.4157 C   0  0  0  0  0  0  0  0  0  0  0  0
    4.9841   -0.0134   -2.3479 O   0  0  0  0  0  0  0  0  0  0  0  0
    5.6028    0.3122   -1.1719 C   0  0  0  0  0  0  0  0  0  0  0  0
    6.3934    1.4618   -1.2323 C   0  0  0  0  0  0  0  0  0  0  0  0
    7.0730    1.9212   -0.1017 C   0  0  0  0  0  0  0  0  0  0  0  0
    6.9574    1.2421    1.1144 C   0  0  0  0  0  0  0  0  0  0  0  0
    7.7093    1.7114    2.3241 C   0  0  0  0  0  0  0  0  0  0  0  0
    6.1718    0.0858    1.1707 C   0  0  0  0  0  0  0  0  0  0  0  0
    5.4924   -0.3743    0.0367 C   0  0  0  0  0  0  0  0  0  0  0  0
   -1.3963    0.9473   -0.0040 C   0  0  0  0  0  0  0  0  0  0  0  0
   -2.6255    1.1663    0.6123 C   0  0  0  0  0  0  0  0  0  0  0  0
   -3.5950    0.1643    0.5652 C   0  0  0  0  0  0  0  0  0  0  0  0
   -4.8107    0.3994    1.2174 O   0  0  0  0  0  0  0  0  0  0  0  0
   -5.8430    0.7362    0.3427 C   0  0  0  0  0  0  0  0  0  0  0  0
   -5.7066    0.9630   -0.8559 O   0  0  0  0  0  0  0  0  0  0  0  0
   -7.0892    0.8034    1.0894 C   0  0  0  0  0  0  0  0  0  0  0  0
   -7.3347    0.5393    2.4266 C   0  0  0  0  0  0  0  0  0  0  0  0
   -8.7038    0.7219    2.7803 C   0  0  0  0  0  0  0  0  0  0  0  0
   -9.4635    1.1193    1.7040 C   0  0  0  0  0  0  0  0  0  0  0  0
   -8.5301    1.2664    0.2799 S   0  0  0  0  0  0  0  0  0  0  0  0
   -4.0931   -2.9556   -1.8094 H   0  0  0  0  0  0  0  0  0  0  0  0
   -3.4170   -3.7917   -0.3571 H   0  0  0  0  0  0  0  0  0  0  0  0
   -5.1605   -3.7503   -0.6454 H   0  0  0  0  0  0  0  0  0  0  0  0
   -1.8921   -2.2207   -1.1621 H   0  0  0  0  0  0  0  0  0  0  0  0
    0.2343   -1.4919   -1.8370 H   0  0  0  0  0  0  0  0  0  0  0  0
    2.9321    0.7929   -1.9938 H   0  0  0  0  0  0  0  0  0  0  0  0
    4.1764   -1.4956   -3.4788 H   0  0  0  0  0  0  0  0  0  0  0  0
    4.8921   -2.0684   -1.9800 H   0  0  0  0  0  0  0  0  0  0  0  0
    6.4884    2.0047   -2.1697 H   0  0  0  0  0  0  0  0  0  0  0  0
    7.6904    2.8132   -0.1785 H   0  0  0  0  0  0  0  0  0  0  0  0
    7.1674    1.4608    3.2422 H   0  0  0  0  0  0  0  0  0  0  0  0
    7.8353    2.7990    2.3089 H   0  0  0  0  0  0  0  0  0  0  0  0
    8.6969    1.2410    2.3563 H   0  0  0  0  0  0  0  0  0  0  0  0
    6.0775   -0.4665    2.1036 H   0  0  0  0  0  0  0  0  0  0  0  0
    4.8852   -1.2674    0.1457 H   0  0  0  0  0  0  0  0  0  0  0  0
   -0.6356    1.7243    0.0183 H   0  0  0  0  0  0  0  0  0  0  0  0
   -2.8264    2.1074    1.1149 H   0  0  0  0  0  0  0  0  0  0  0  0
   -6.5675    0.2256    3.1253 H   0  0  0  0  0  0  0  0  0  0  0  0
   -9.1096    0.5688    3.7730 H   0  0  0  0  0  0  0  0  0  0  0  0
  -10.5243    1.3296    1.6820 H   0  0  0  0  0  0  0  0  0  0  0  0
  1  2  1  0
  2  3  1  0
  3  4  2  0
  4  5  1  0
  5  6  1  0
  6  7  2  3
  7  8  1  0
  8  9  1  0
  9 10  2  0
  9 11  1  0
 11 12  1  0
 12 13  1  0
 13 14  2  0
 14 15  1  0
 15 16  2  0
 16 17  1  0
 16 18  1  0
 18 19  2  0
  5 20  2  0
 20 21  1  0
 21 22  2  0
 22 23  1  0
 23 24  1  0
 24 25  2  0
 24 26  1  0
 26 27  2  0
 27 28  1  0
 28 29  2  0
 29 30  1  0
 22  3  1  0
 30 26  1  0
 19 13  1  0
  1 31  1  0
  1 32  1  0
  1 33  1  0
  4 34  1  0
  6 35  1  0
  8 36  1  0
 11 37  1  0
 11 38  1  0
 14 39  1  0
 15 40  1  0
 17 41  1  0
 17 42  1  0
 17 43  1  0
 18 44  1  0
 19 45  1  0
 20 46  1  0
 21 47  1  0
 27 48  1  0
 28 49  1  0
 29 50  1  0
M  END
$$$$
