
     RDKit          3D

 74 79  0  0  0  0  0  0  0  0999 V2000
    7.5894   -1.8847   -5.2039 C   0  0  0  0  0  0  0  0  0  0  0  0
    7.9754   -1.5818   -3.8697 O   0  0  0  0  0  0  0  0  0  0  0  0
    6.9750   -1.2794   -2.9892 C   0  0  0  0  0  0  0  0  0  0  0  0
    7.4031   -0.9574   -1.7024 C   0  0  0  0  0  0  0  0  0  0  0  0
    6.4799   -0.6295   -0.7027 C   0  0  0  0  0  0  0  0  0  0  0  0
    5.0956   -0.6199   -0.9535 C   0  0  0  0  0  0  0  0  0  0  0  0
    4.1343   -0.2844    0.1229 C   0  0  0  0  0  0  0  0  0  0  0  0
    2.8176   -0.7106    0.1305 C   0  0  0  0  0  0  0  0  0  0  0  0
    1.9917   -0.3344    1.1930 C   0  0  0  0  0  0  0  0  0  0  0  0
    0.5730   -0.7592    1.0852 C   0  0  0  0  0  0  0  0  0  0  0  0
    0.3316   -1.9256    0.8038 O   0  0  0  0  0  0  0  0  0  0  0  0
   -0.3369    0.2588    1.2431 N   0  0  0  0  0  0  0  0  0  0  0  0
   -1.7442    0.1978    1.2001 C   0  0  0  0  0  0  0  0  0  0  0  0
   -2.4720   -0.9739    0.9981 C   0  0  0  0  0  0  0  0  0  0  0  0
   -3.8667   -0.9049    0.9441 C   0  0  0  0  0  0  0  0  0  0  0  0
   -4.8299   -2.3734    0.6755 S   0  0  0  0  0  6  0  0  0  0  0  0
   -3.9744   -3.5351    0.7838 O   0  0  0  0  0  0  0  0  0  0  0  0
   -6.0318   -2.2477    1.4724 O   0  0  0  0  0  0  0  0  0  0  0  0
   -5.2679   -2.2109   -0.9641 N   0  0  0  0  0  0  0  0  0  0  0  0
   -4.1503   -2.3578   -1.9566 C   0  0  0  0  0  0  0  0  0  0  0  0
   -4.2697   -3.6758   -2.7310 C   0  0  0  0  0  0  0  0  0  0  0  0
   -5.4823   -3.7670   -3.4919 O   0  0  0  0  0  0  0  0  0  0  0  0
   -6.5920   -3.1079   -2.8649 C   0  0  0  0  0  0  0  0  0  0  0  0
   -6.4673   -3.0270   -1.3394 C   0  0  0  0  0  0  0  0  0  0  0  0
   -4.5377    0.3096    1.1204 C   0  0  0  0  0  0  0  0  0  0  0  0
   -3.8081    1.4771    1.3426 C   0  0  0  0  0  0  0  0  0  0  0  0
   -2.4074    1.4395    1.3839 C   0  0  0  0  0  0  0  0  0  0  0  0
   -1.6189    2.5942    1.6161 N   0  0  0  0  0  0  0  0  0  0  0  0
   -1.7929    3.1661    2.9769 C   0  0  0  0  0  0  0  0  0  0  0  0
   -2.4941    4.5324    2.9343 C   0  0  0  0  0  0  0  0  0  0  0  0
   -1.8058    5.5018    2.1297 O   0  0  0  0  0  0  0  0  0  0  0  0
   -1.1268    4.9330    0.9991 C   0  0  0  0  0  0  0  0  0  0  0  0
   -1.7276    3.5994    0.5299 C   0  0  0  0  0  0  0  0  0  0  0  0
    2.4976    0.4164    2.2779 C   0  0  0  0  0  0  0  0  0  0  0  0
    1.7721    0.7701    3.4475 C   0  0  0  0  0  0  0  0  0  0  0  0
    2.3574    1.5302    4.4585 C   0  0  0  0  0  0  0  0  0  0  0  0
    3.6754    1.9397    4.3257 C   0  0  0  0  0  0  0  0  0  0  0  0
    4.4020    1.5714    3.1920 C   0  0  0  0  0  0  0  0  0  0  0  0
    3.8434    0.8108    2.1728 C   0  0  0  0  0  0  0  0  0  0  0  0
    4.6240    0.4810    1.1304 N   0  0  0  0  0  0  0  0  0  0  0  0
    4.6870   -0.9393   -2.2624 C   0  0  0  0  0  0  0  0  0  0  0  0
    5.6115   -1.2665   -3.2671 C   0  0  0  0  0  0  0  0  0  0  0  0
    6.9638   -2.7826   -5.2396 H   0  0  0  0  0  0  0  0  0  0  0  0
    8.4994   -2.0892   -5.7763 H   0  0  0  0  0  0  0  0  0  0  0  0
    7.0865   -1.0323   -5.6724 H   0  0  0  0  0  0  0  0  0  0  0  0
    8.4650   -0.9581   -1.4703 H   0  0  0  0  0  0  0  0  0  0  0  0
    6.8547   -0.3837    0.2903 H   0  0  0  0  0  0  0  0  0  0  0  0
    2.4176   -1.3312   -0.6640 H   0  0  0  0  0  0  0  0  0  0  0  0
   -0.0024    1.2065    1.4015 H   0  0  0  0  0  0  0  0  0  0  0  0
   -1.9773   -1.9331    0.8761 H   0  0  0  0  0  0  0  0  0  0  0  0
   -4.2142   -1.5069   -2.6429 H   0  0  0  0  0  0  0  0  0  0  0  0
   -3.1730   -2.3112   -1.4732 H   0  0  0  0  0  0  0  0  0  0  0  0
   -4.2320   -4.5331   -2.0494 H   0  0  0  0  0  0  0  0  0  0  0  0
   -3.4352   -3.7798   -3.4307 H   0  0  0  0  0  0  0  0  0  0  0  0
   -7.4984   -3.6534   -3.1433 H   0  0  0  0  0  0  0  0  0  0  0  0
   -6.6700   -2.1033   -3.2962 H   0  0  0  0  0  0  0  0  0  0  0  0
   -6.3731   -4.0376   -0.9238 H   0  0  0  0  0  0  0  0  0  0  0  0
   -7.3637   -2.5513   -0.9257 H   0  0  0  0  0  0  0  0  0  0  0  0
   -5.6250    0.3488    1.0857 H   0  0  0  0  0  0  0  0  0  0  0  0
   -4.3448    2.4110    1.4805 H   0  0  0  0  0  0  0  0  0  0  0  0
   -2.3291    2.4837    3.6483 H   0  0  0  0  0  0  0  0  0  0  0  0
   -0.7874    3.2983    3.3938 H   0  0  0  0  0  0  0  0  0  0  0  0
   -2.5753    4.9441    3.9456 H   0  0  0  0  0  0  0  0  0  0  0  0
   -3.5137    4.4365    2.5435 H   0  0  0  0  0  0  0  0  0  0  0  0
   -0.0747    4.8033    1.2755 H   0  0  0  0  0  0  0  0  0  0  0  0
   -1.1667    5.6687    0.1909 H   0  0  0  0  0  0  0  0  0  0  0  0
   -2.7726    3.7653    0.2393 H   0  0  0  0  0  0  0  0  0  0  0  0
   -1.1799    3.2386   -0.3486 H   0  0  0  0  0  0  0  0  0  0  0  0
    0.7462    0.4362    3.5916 H   0  0  0  0  0  0  0  0  0  0  0  0
    1.7898    1.7897    5.3479 H   0  0  0  0  0  0  0  0  0  0  0  0
    4.1486    2.5309    5.1056 H   0  0  0  0  0  0  0  0  0  0  0  0
    5.4422    1.8808    3.1043 H   0  0  0  0  0  0  0  0  0  0  0  0
    3.6349   -0.9264   -2.5351 H   0  0  0  0  0  0  0  0  0  0  0  0
    5.2274   -1.5045   -4.2535 H   0  0  0  0  0  0  0  0  0  0  0  0
  1  2  1  0
  2  3  1  0
  3  4  2  0
  4  5  1  0
  5  6  2  0
  6  7  1  0
  7  8  2  0
  8  9  1  0
  9 10  1  0
 10 11  2  0
 10 12  1  0
 12 13  1  0
 13 14  2  0
 14 15  1  0
 15 16  1  0
 16 17  2  0
 16 18  2  0
 16 19  1  0
 19 20  1  0
 20 21  1  0
 21 22  1  0
 22 23  1  0
 23 24  1  0
 15 25  2  0
 25 26  1  0
 26 27  2  0
 27 28  1  0
 28 29  1  0
 29 30  1  0
 30 31  1  0
 31 32  1  0
 32 33  1  0
  9 34  2  0
 34 35  1  0
 35 36  2  0
 36 37  1  0
 37 38  2  0
 38 39  1  0
 39 40  2  0
  6 41  1  0
 41 42  2  0
 42  3  1  0
 40  7  1  0
 27 13  1  0
 33 28  1  0
 39 34  1  0
 24 19  1  0
  1 43  1  0
  1 44  1  0
  1 45  1  0
  4 46  1  0
  5 47  1  0
  8 48  1  0
 12 49  1  0
 14 50  1  0
 20 51  1  0
 20 52  1  0
 21 53  1  0
 21 54  1  0
 23 55  1  0
 23 56  1  0
 24 57  1  0
 24 58  1  0
 25 59  1  0
 26 60  1  0
 29 61  1  0
 29 62  1  0
 30 63  1  0
 30 64  1  0
 32 65  1  0
 32 66  1  0
 33 67  1  0
 33 68  1  0
 35 69  1  0
 36 70  1  0
 37 71  1  0
 38 72  1  0
 41 73  1  0
 42 74  1  0
M  END
$$$$
