
     RDKit          3D

 59 63  0  0  0  0  0  0  0  0999 V2000
   -3.3207   -3.6350   -2.1450 C   0  0  0  0  0  0  0  0  0  0  0  0
   -2.9393   -3.1759   -0.7435 C   0  0  0  0  0  0  0  0  0  0  0  0
   -3.6411   -1.8697   -0.3405 C   0  0  0  0  0  0  0  0  0  0  0  0
   -3.5489   -1.6532    1.1023 N   0  0  0  0  0  0  0  0  0  0  0  0
   -2.2909   -1.2525    1.5476 C   0  0  0  0  0  0  0  0  0  0  0  0
   -1.9874   -1.6373    2.7940 N   0  0  0  0  0  0  0  0  0  0  0  0
   -0.8068   -1.2240    3.2524 C   0  0  0  0  0  0  0  0  0  0  0  0
    0.1084   -0.5346    2.5626 N   0  0  0  0  0  0  0  0  0  0  0  0
   -0.1863   -0.1977    1.2895 C   0  0  0  0  0  0  0  0  0  0  0  0
    0.8577    0.3445    0.5175 N   0  0  0  0  0  0  0  0  0  0  0  0
    1.9426    1.0211    1.2829 C   0  0  0  0  0  0  0  0  0  0  0  0
    3.0234    0.0596    1.8386 C   0  0  0  0  0  0  0  0  0  0  0  0
    3.5210   -0.9081    0.8308 N   0  0  0  0  0  0  0  0  0  0  0  0
    4.5092   -0.4067   -0.0301 C   0  0  0  0  0  0  0  0  0  0  0  0
    5.2473   -1.2919   -0.8202 C   0  0  0  0  0  0  0  0  0  0  0  0
    6.2442   -0.8108   -1.6675 C   0  0  0  0  0  0  0  0  0  0  0  0
    6.4950    0.5509   -1.7074 C   0  0  0  0  0  0  0  0  0  0  0  0
    5.7371    1.3677   -0.8909 C   0  0  0  0  0  0  0  0  0  0  0  0
    4.7661    0.9185   -0.0630 N   0  0  0  0  0  0  0  0  0  0  0  0
    2.4128   -1.6119    0.1485 C   0  0  0  0  0  0  0  0  0  0  0  0
    1.4003   -0.6214   -0.4764 C   0  0  0  0  0  0  0  0  0  0  0  0
   -1.4489   -0.4771    0.7391 C   0  0  0  0  0  0  0  0  0  0  0  0
   -1.9287   -0.0581   -0.5577 N   0  0  0  0  0  0  0  0  0  0  0  0
   -1.4889    1.2055   -1.1505 C   0  0  0  0  0  0  0  0  0  0  0  0
   -2.1474    2.4100   -0.5047 C   0  0  0  0  0  0  0  0  0  0  0  0
   -3.4290    2.8213   -0.9054 C   0  0  0  0  0  0  0  0  0  0  0  0
   -4.0509    3.9112   -0.2929 C   0  0  0  0  0  0  0  0  0  0  0  0
   -3.3955    4.5955    0.7282 C   0  0  0  0  0  0  0  0  0  0  0  0
   -4.2358    6.0686    1.5636 Br  0  0  0  0  0  0  0  0  0  0  0  0
   -2.1240    4.2019    1.1397 C   0  0  0  0  0  0  0  0  0  0  0  0
   -1.5031    3.1135    0.5235 C   0  0  0  0  0  0  0  0  0  0  0  0
   -3.0738   -0.6547   -1.1023 C   0  0  0  0  0  0  0  0  0  0  0  0
   -3.5797   -0.2970   -2.1693 O   0  0  0  0  0  0  0  0  0  0  0  0
   -4.3988   -3.8068   -2.2223 H   0  0  0  0  0  0  0  0  0  0  0  0
   -2.8120   -4.5743   -2.3823 H   0  0  0  0  0  0  0  0  0  0  0  0
   -3.0321   -2.8994   -2.9010 H   0  0  0  0  0  0  0  0  0  0  0  0
   -3.2052   -3.9719   -0.0366 H   0  0  0  0  0  0  0  0  0  0  0  0
   -1.8487   -3.0668   -0.6992 H   0  0  0  0  0  0  0  0  0  0  0  0
   -4.7093   -1.9327   -0.5818 H   0  0  0  0  0  0  0  0  0  0  0  0
   -3.9269   -2.3646    1.7185 H   0  0  0  0  0  0  0  0  0  0  0  0
   -0.5566   -1.4843    4.2750 H   0  0  0  0  0  0  0  0  0  0  0  0
    2.4094    1.7394    0.5989 H   0  0  0  0  0  0  0  0  0  0  0  0
    1.5249    1.6267    2.0976 H   0  0  0  0  0  0  0  0  0  0  0  0
    2.6086   -0.5236    2.6683 H   0  0  0  0  0  0  0  0  0  0  0  0
    3.8475    0.6334    2.2822 H   0  0  0  0  0  0  0  0  0  0  0  0
    5.0721   -2.3605   -0.7545 H   0  0  0  0  0  0  0  0  0  0  0  0
    6.8246   -1.4978   -2.2752 H   0  0  0  0  0  0  0  0  0  0  0  0
    7.2657    0.9636   -2.3476 H   0  0  0  0  0  0  0  0  0  0  0  0
    5.8948    2.4421   -0.8735 H   0  0  0  0  0  0  0  0  0  0  0  0
    2.7751   -2.3020   -0.6220 H   0  0  0  0  0  0  0  0  0  0  0  0
    1.9005   -2.2371    0.8907 H   0  0  0  0  0  0  0  0  0  0  0  0
    1.8973   -0.0423   -1.2649 H   0  0  0  0  0  0  0  0  0  0  0  0
    0.6017   -1.1854   -0.9733 H   0  0  0  0  0  0  0  0  0  0  0  0
   -1.7470    1.2106   -2.2173 H   0  0  0  0  0  0  0  0  0  0  0  0
   -0.4060    1.3154   -1.1521 H   0  0  0  0  0  0  0  0  0  0  0  0
   -3.9535    2.2896   -1.6985 H   0  0  0  0  0  0  0  0  0  0  0  0
   -5.0453    4.2111   -0.6159 H   0  0  0  0  0  0  0  0  0  0  0  0
   -1.6086    4.7300    1.9381 H   0  0  0  0  0  0  0  0  0  0  0  0
   -0.5104    2.8152    0.8552 H   0  0  0  0  0  0  0  0  0  0  0  0
  1  2  1  0
  2  3  1  0
  3  4  1  0
  4  5  1  0
  5  6  2  0
  6  7  1  0
  7  8  2  0
  8  9  1  0
  9 10  1  0
 10 11  1  0
 11 12  1  0
 12 13  1  0
 13 14  1  0
 14 15  2  0
 15 16  1  0
 16 17  2  0
 17 18  1  0
 18 19  2  0
 13 20  1  0
 20 21  1  0
  9 22  2  0
 22 23  1  0
 23 24  1  0
 24 25  1  0
 25 26  2  0
 26 27  1  0
 27 28  2  0
 28 29  1  0
 28 30  1  0
 30 31  2  0
 23 32  1  0
 32 33  2  0
 32  3  1  0
 22  5  1  0
 31 25  1  0
 21 10  1  0
 19 14  1  0
  1 34  1  0
  1 35  1  0
  1 36  1  0
  2 37  1  0
  2 38  1  0
  3 39  1  0
  4 40  1  0
  7 41  1  0
 11 42  1  0
 11 43  1  0
 12 44  1  0
 12 45  1  0
 15 46  1  0
 16 47  1  0
 17 48  1  0
 18 49  1  0
 20 50  1  0
 20 51  1  0
 21 52  1  0
 21 53  1  0
 24 54  1  0
 24 55  1  0
 26 56  1  0
 27 57  1  0
 30 58  1  0
 31 59  1  0
M  END
$$$$
