
     RDKit          3D

 51 55  0  0  0  0  0  0  0  0999 V2000
    7.9669    0.4774    0.3560 C   0  0  0  0  0  0  0  0  0  0  0  0
    7.3919    1.3704   -0.5463 C   0  0  0  0  0  0  0  0  0  0  0  0
    6.0959    1.1526   -1.0160 C   0  0  0  0  0  0  0  0  0  0  0  0
    5.3649    0.0359   -0.5894 C   0  0  0  0  0  0  0  0  0  0  0  0
    3.9541   -0.1881   -1.0809 C   0  0  0  0  0  0  0  0  0  0  0  0
    2.9205    0.4686   -0.1494 C   0  0  0  0  0  0  0  0  0  0  0  0
    1.5340    0.3605   -0.6395 N   0  0  0  0  0  0  0  0  0  0  0  0
    1.0845   -1.0472   -0.7350 C   0  0  0  0  0  0  0  0  0  0  0  0
   -0.4514   -1.2121   -0.7580 C   0  0  0  0  0  0  0  0  0  0  0  0
   -1.0996   -0.6467    0.4497 N   0  0  0  0  0  0  0  0  0  0  0  0
   -2.4636   -0.3641    0.3485 C   0  0  0  0  0  0  0  0  0  0  0  0
   -2.8712    0.8731    0.4851 N   0  0  0  0  0  0  0  0  0  0  0  0
   -4.2337    1.2013    0.3445 C   0  0  0  0  0  0  0  0  0  0  0  0
   -4.6117    2.5378    0.4873 C   0  0  0  0  0  0  0  0  0  0  0  0
   -5.9485    2.9204    0.3465 C   0  0  0  0  0  0  0  0  0  0  0  0
   -6.9238    1.9647    0.0595 C   0  0  0  0  0  0  0  0  0  0  0  0
   -6.5690    0.6232   -0.0875 C   0  0  0  0  0  0  0  0  0  0  0  0
   -5.2276    0.2559    0.0558 C   0  0  0  0  0  0  0  0  0  0  0  0
   -4.7851   -1.0712   -0.0634 N   0  0  0  0  0  0  0  0  0  0  0  0
   -5.5058   -2.2149   -0.3142 C   0  0  0  0  0  0  0  0  0  0  0  0
   -4.6413   -3.2870   -0.2685 C   0  0  0  0  0  0  0  0  0  0  0  0
   -3.3521   -2.7737    0.0049 C   0  0  0  0  0  0  0  0  0  0  0  0
   -3.4557   -1.3967    0.0916 C   0  0  0  0  0  0  0  0  0  0  0  0
   -0.2404    0.3118    1.1783 C   0  0  0  0  0  0  0  0  0  0  0  0
    0.6019    1.1545    0.2014 C   0  0  0  0  0  0  0  0  0  0  0  0
    5.9500   -0.8534    0.3222 C   0  0  0  0  0  0  0  0  0  0  0  0
    7.2463   -0.6336    0.7906 C   0  0  0  0  0  0  0  0  0  0  0  0
    8.9763    0.6477    0.7209 H   0  0  0  0  0  0  0  0  0  0  0  0
    7.9528    2.2378   -0.8843 H   0  0  0  0  0  0  0  0  0  0  0  0
    5.6588    1.8600   -1.7175 H   0  0  0  0  0  0  0  0  0  0  0  0
    3.7800   -1.2678   -1.1625 H   0  0  0  0  0  0  0  0  0  0  0  0
    3.8551    0.2139   -2.0975 H   0  0  0  0  0  0  0  0  0  0  0  0
    3.0035    0.0477    0.8618 H   0  0  0  0  0  0  0  0  0  0  0  0
    3.1786    1.5330   -0.0665 H   0  0  0  0  0  0  0  0  0  0  0  0
    1.4898   -1.4888   -1.6526 H   0  0  0  0  0  0  0  0  0  0  0  0
    1.4755   -1.6321    0.1086 H   0  0  0  0  0  0  0  0  0  0  0  0
   -0.8495   -0.7211   -1.6557 H   0  0  0  0  0  0  0  0  0  0  0  0
   -0.6797   -2.2792   -0.8342 H   0  0  0  0  0  0  0  0  0  0  0  0
   -3.8540    3.2847    0.7082 H   0  0  0  0  0  0  0  0  0  0  0  0
   -6.2259    3.9651    0.4604 H   0  0  0  0  0  0  0  0  0  0  0  0
   -7.9626    2.2671   -0.0488 H   0  0  0  0  0  0  0  0  0  0  0  0
   -7.3449   -0.1021   -0.3080 H   0  0  0  0  0  0  0  0  0  0  0  0
   -6.5718   -2.1905   -0.4872 H   0  0  0  0  0  0  0  0  0  0  0  0
   -4.9136   -4.3257   -0.4049 H   0  0  0  0  0  0  0  0  0  0  0  0
   -2.4459   -3.3499    0.1318 H   0  0  0  0  0  0  0  0  0  0  0  0
   -0.8251    0.9688    1.8326 H   0  0  0  0  0  0  0  0  0  0  0  0
    0.4209   -0.2542    1.8465 H   0  0  0  0  0  0  0  0  0  0  0  0
   -0.0758    1.6835   -0.4808 H   0  0  0  0  0  0  0  0  0  0  0  0
    1.1329    1.9357    0.7587 H   0  0  0  0  0  0  0  0  0  0  0  0
    5.3999   -1.7238    0.6722 H   0  0  0  0  0  0  0  0  0  0  0  0
    7.6943   -1.3294    1.4951 H   0  0  0  0  0  0  0  0  0  0  0  0
  1  2  2  0
  2  3  1  0
  3  4  2  0
  4  5  1  0
  5  6  1  0
  6  7  1  0
  7  8  1  0
  8  9  1  0
  9 10  1  0
 10 11  1  0
 11 12  2  0
 12 13  1  0
 13 14  2  0
 14 15  1  0
 15 16  2  0
 16 17  1  0
 17 18  2  0
 18 19  1  0
 19 20  1  0
 20 21  2  0
 21 22  1  0
 22 23  2  0
 10 24  1  0
 24 25  1  0
  4 26  1  0
 26 27  2  0
 27  1  1  0
 25  7  1  0
 23 11  1  0
 18 13  1  0
 23 19  1  0
  1 28  1  0
  2 29  1  0
  3 30  1  0
  5 31  1  0
  5 32  1  0
  6 33  1  0
  6 34  1  0
  8 35  1  0
  8 36  1  0
  9 37  1  0
  9 38  1  0
 14 39  1  0
 15 40  1  0
 16 41  1  0
 17 42  1  0
 20 43  1  0
 21 44  1  0
 22 45  1  0
 24 46  1  0
 24 47  1  0
 25 48  1  0
 25 49  1  0
 26 50  1  0
 27 51  1  0
M  END
$$$$
