
     RDKit          3D

 56 58  0  0  0  0  0  0  0  0999 V2000
    8.3322    3.7557    0.4079 C   0  0  0  0  0  0  0  0  0  0  0  0
    7.2496    4.1819   -0.5687 C   0  0  0  0  0  0  0  0  0  0  0  0
    6.8669    3.0934   -1.4085 O   0  0  0  0  0  0  0  0  0  0  0  0
    5.8685    2.2596   -0.9928 C   0  0  0  0  0  0  0  0  0  0  0  0
    5.2271    2.2833    0.2427 C   0  0  0  0  0  0  0  0  0  0  0  0
    4.2165    1.3559    0.5380 C   0  0  0  0  0  0  0  0  0  0  0  0
    3.8354    0.3935   -0.3968 C   0  0  0  0  0  0  0  0  0  0  0  0
    2.8325   -0.5729   -0.1750 N   0  0  0  0  0  0  0  0  0  0  0  0
    2.0484   -0.7302    0.9565 C   0  0  0  0  0  0  0  0  0  0  0  0
    2.0798   -0.0425    1.9702 O   0  0  0  0  0  0  0  0  0  0  0  0
    1.0920   -1.8983    0.8135 C   0  0  0  0  0  0  0  0  0  0  0  0
    0.2251   -2.0590    2.0558 C   0  0  0  0  0  0  0  0  0  0  0  0
   -0.7035   -3.1801    1.8476 N   0  0  0  0  0  0  0  0  0  0  0  0
   -2.1147   -3.2313    2.7594 S   0  0  0  0  0  6  0  0  0  0  0  0
   -1.8343   -2.6567    4.0549 O   0  0  0  0  0  0  0  0  0  0  0  0
   -2.6537   -4.5632    2.6087 O   0  0  0  0  0  0  0  0  0  0  0  0
   -3.1729   -2.1316    1.8582 C   0  0  0  0  0  0  0  0  0  0  0  0
   -3.6820   -0.9873    2.4689 C   0  0  0  0  0  0  0  0  0  0  0  0
   -4.5111   -0.1264    1.7403 C   0  0  0  0  0  0  0  0  0  0  0  0
   -4.8375   -0.3970    0.3997 C   0  0  0  0  0  0  0  0  0  0  0  0
   -4.3130   -1.5485   -0.1881 C   0  0  0  0  0  0  0  0  0  0  0  0
   -3.4864   -2.4230    0.5319 C   0  0  0  0  0  0  0  0  0  0  0  0
   -4.6225   -1.8434   -1.5950 C   0  0  0  0  0  0  0  0  0  0  0  0
   -4.0633   -2.7915   -2.1422 O   0  0  0  0  0  0  0  0  0  0  0  0
   -5.5252   -1.0017   -2.2236 N   0  0  0  0  0  0  0  0  0  0  0  0
   -5.8666   -1.2925   -3.6043 C   0  0  0  0  0  0  0  0  0  0  0  0
   -6.0147    0.1832   -1.6861 C   0  0  0  0  0  0  0  0  0  0  0  0
   -6.7139    0.9499   -2.3530 O   0  0  0  0  0  0  0  0  0  0  0  0
   -5.6673    0.4638   -0.3668 N   0  0  0  0  0  0  0  0  0  0  0  0
   -6.1833    1.6890    0.2332 C   0  0  0  0  0  0  0  0  0  0  0  0
    4.4837    0.3705   -1.6358 C   0  0  0  0  0  0  0  0  0  0  0  0
    5.4916    1.2952   -1.9277 C   0  0  0  0  0  0  0  0  0  0  0  0
    9.1929    3.3452   -0.1312 H   0  0  0  0  0  0  0  0  0  0  0  0
    8.6680    4.6057    1.0094 H   0  0  0  0  0  0  0  0  0  0  0  0
    7.9785    2.9700    1.0823 H   0  0  0  0  0  0  0  0  0  0  0  0
    6.3940    4.6486   -0.0687 H   0  0  0  0  0  0  0  0  0  0  0  0
    7.6650    4.9511   -1.2301 H   0  0  0  0  0  0  0  0  0  0  0  0
    5.4873    3.0012    1.0128 H   0  0  0  0  0  0  0  0  0  0  0  0
    3.7527    1.4152    1.5178 H   0  0  0  0  0  0  0  0  0  0  0  0
    2.6664   -1.2155   -0.9401 H   0  0  0  0  0  0  0  0  0  0  0  0
    0.4597   -1.7282   -0.0668 H   0  0  0  0  0  0  0  0  0  0  0  0
    1.6751   -2.8111    0.6403 H   0  0  0  0  0  0  0  0  0  0  0  0
    0.8486   -2.2705    2.9314 H   0  0  0  0  0  0  0  0  0  0  0  0
   -0.3299   -1.1328    2.2412 H   0  0  0  0  0  0  0  0  0  0  0  0
   -0.3194   -4.1116    1.6890 H   0  0  0  0  0  0  0  0  0  0  0  0
   -3.4426   -0.7551    3.5057 H   0  0  0  0  0  0  0  0  0  0  0  0
   -4.8884    0.7545    2.2536 H   0  0  0  0  0  0  0  0  0  0  0  0
   -3.0913   -3.3212    0.0604 H   0  0  0  0  0  0  0  0  0  0  0  0
   -6.9112   -1.0320   -3.8028 H   0  0  0  0  0  0  0  0  0  0  0  0
   -5.2236   -0.6886   -4.2528 H   0  0  0  0  0  0  0  0  0  0  0  0
   -5.7196   -2.3501   -3.8417 H   0  0  0  0  0  0  0  0  0  0  0  0
   -6.8177    1.4343    1.0885 H   0  0  0  0  0  0  0  0  0  0  0  0
   -6.7881    2.2717   -0.4669 H   0  0  0  0  0  0  0  0  0  0  0  0
   -5.3463    2.3186    0.5521 H   0  0  0  0  0  0  0  0  0  0  0  0
    4.2199   -0.3613   -2.3945 H   0  0  0  0  0  0  0  0  0  0  0  0
    5.9867    1.2642   -2.8956 H   0  0  0  0  0  0  0  0  0  0  0  0
  1  2  1  0
  2  3  1  0
  3  4  1  0
  4  5  2  0
  5  6  1  0
  6  7  2  0
  7  8  1  0
  8  9  1  0
  9 10  2  0
  9 11  1  0
 11 12  1  0
 12 13  1  0
 13 14  1  0
 14 15  2  0
 14 16  2  0
 14 17  1  0
 17 18  2  0
 18 19  1  0
 19 20  2  0
 20 21  1  0
 21 22  2  0
 21 23  1  0
 23 24  2  0
 23 25  1  0
 25 26  1  0
 25 27  1  0
 27 28  2  0
 27 29  1  0
 29 30  1  0
  7 31  1  0
 31 32  2  0
 32  4  1  0
 22 17  1  0
 29 20  1  0
  1 33  1  0
  1 34  1  0
  1 35  1  0
  2 36  1  0
  2 37  1  0
  5 38  1  0
  6 39  1  0
  8 40  1  0
 11 41  1  0
 11 42  1  0
 12 43  1  0
 12 44  1  0
 13 45  1  0
 18 46  1  0
 19 47  1  0
 22 48  1  0
 26 49  1  0
 26 50  1  0
 26 51  1  0
 30 52  1  0
 30 53  1  0
 30 54  1  0
 31 55  1  0
 32 56  1  0
M  END
$$$$
