
     RDKit          3D

 29 29  0  0  0  0  0  0  0  0999 V2000
   -5.0492   -2.7276   -1.2054 C   0  0  0  0  0  0  0  0  0  0  0  0
   -4.2375   -1.8422   -1.2212 C   0  0  0  0  0  0  0  0  0  0  0  0
   -3.2460   -0.7585   -1.2432 C   0  0  0  0  0  0  0  0  0  0  0  0
   -2.9587   -0.2497    0.1000 N   0  0  0  0  0  0  0  0  0  0  0  0
   -2.1969   -1.1772    0.9398 C   0  0  0  0  0  0  0  0  0  0  0  0
   -0.7453   -1.3857    0.5068 C   0  0  0  0  0  0  0  0  0  0  0  0
    0.0468   -0.0831    0.4274 C   0  0  0  0  0  0  0  0  0  0  0  0
    1.4013   -0.4178    0.1180 O   0  0  0  0  0  0  0  0  0  0  0  0
    2.3042    0.6055   -0.0015 C   0  0  0  0  0  0  0  0  0  0  0  0
    1.9903    1.9613    0.1434 C   0  0  0  0  0  0  0  0  0  0  0  0
    2.9838    2.9364    0.0020 C   0  0  0  0  0  0  0  0  0  0  0  0
    4.2941    2.5613   -0.2847 C   0  0  0  0  0  0  0  0  0  0  0  0
    5.5085    3.7673   -0.4566 Cl  0  0  0  0  0  0  0  0  0  0  0  0
    4.6258    1.2192   -0.4328 C   0  0  0  0  0  0  0  0  0  0  0  0
    3.6328    0.2466   -0.2915 C   0  0  0  0  0  0  0  0  0  0  0  0
    4.0947   -1.4101   -0.4846 Cl  0  0  0  0  0  0  0  0  0  0  0  0
   -5.7681   -3.5142   -1.1922 H   0  0  0  0  0  0  0  0  0  0  0  0
   -2.3328   -1.0722   -1.7585 H   0  0  0  0  0  0  0  0  0  0  0  0
   -3.6499    0.0732   -1.8322 H   0  0  0  0  0  0  0  0  0  0  0  0
   -3.8526   -0.0547    0.5528 H   0  0  0  0  0  0  0  0  0  0  0  0
   -2.1897   -0.7647    1.9564 H   0  0  0  0  0  0  0  0  0  0  0  0
   -2.7023   -2.1469    1.0160 H   0  0  0  0  0  0  0  0  0  0  0  0
   -0.6908   -1.9091   -0.4551 H   0  0  0  0  0  0  0  0  0  0  0  0
   -0.2550   -2.0567    1.2242 H   0  0  0  0  0  0  0  0  0  0  0  0
   -0.3649    0.5559   -0.3621 H   0  0  0  0  0  0  0  0  0  0  0  0
    0.0018    0.4325    1.3941 H   0  0  0  0  0  0  0  0  0  0  0  0
    0.9816    2.2957    0.3653 H   0  0  0  0  0  0  0  0  0  0  0  0
    2.7257    3.9866    0.1168 H   0  0  0  0  0  0  0  0  0  0  0  0
    5.6484    0.9290   -0.6567 H   0  0  0  0  0  0  0  0  0  0  0  0
  1  2  3  0
  2  3  1  0
  3  4  1  0
  4  5  1  0
  5  6  1  0
  6  7  1  0
  7  8  1  0
  8  9  1  0
  9 10  2  0
 10 11  1  0
 11 12  2  0
 12 13  1  0
 12 14  1  0
 14 15  2  0
 15 16  1  0
 15  9  1  0
  1 17  1  0
  3 18  1  0
  3 19  1  0
  4 20  1  0
  5 21  1  0
  5 22  1  0
  6 23  1  0
  6 24  1  0
  7 25  1  0
  7 26  1  0
 10 27  1  0
 11 28  1  0
 14 29  1  0
M  END
$$$$
