
     RDKit          3D

 48 51  0  0  0  0  0  0  0  0999 V2000
    6.2864    0.2705   -2.6455 C   0  0  0  0  0  0  0  0  0  0  0  0
    5.5983    0.1479   -1.3488 C   0  0  0  0  0  0  0  0  0  0  0  0
    4.3160    0.3727   -0.9143 C   0  0  0  0  0  0  0  0  0  0  0  0
    4.3399    0.0560    0.4740 C   0  0  0  0  0  0  0  0  0  0  0  0
    3.2533    0.1092    1.4630 C   0  0  0  0  0  0  0  0  0  0  0  0
    3.4276   -0.0553    2.6680 O   0  0  0  0  0  0  0  0  0  0  0  0
    1.9946    0.3515    0.9432 N   0  0  0  0  0  0  0  0  0  0  0  0
    0.8195    0.3583    1.7906 C   0  0  0  0  0  0  0  0  0  0  0  0
    0.3670   -1.0677    2.1898 C   0  0  0  0  0  0  0  0  0  0  0  0
   -0.4877   -1.8202    1.1205 C   0  0  0  0  0  0  0  0  0  0  0  0
   -0.9602   -3.1554    1.7320 C   0  0  0  0  0  0  0  0  0  0  0  0
    0.3446   -2.1540   -0.1340 C   0  0  0  0  0  0  0  0  0  0  0  0
   -1.7430   -0.9837    0.7209 C   0  0  0  0  0  0  0  0  0  0  0  0
   -1.4149    0.4650    0.5667 C   0  0  0  0  0  0  0  0  0  0  0  0
   -0.2620    1.0614    1.0476 C   0  0  0  0  0  0  0  0  0  0  0  0
   -0.3557    2.3974    0.6470 C   0  0  0  0  0  0  0  0  0  0  0  0
   -1.4550    2.6338   -0.0623 N   0  0  0  0  0  0  0  0  0  0  0  0
   -2.1590    1.4630   -0.0539 N   0  0  0  0  0  0  0  0  0  0  0  0
   -3.4620    1.4426   -0.6462 C   0  0  0  0  0  0  0  0  0  0  0  0
   -4.3573    0.3780   -0.4791 C   0  0  0  0  0  0  0  0  0  0  0  0
   -5.6197    0.4137   -1.0845 C   0  0  0  0  0  0  0  0  0  0  0  0
   -5.9932    1.5119   -1.8480 C   0  0  0  0  0  0  0  0  0  0  0  0
   -7.2024    1.5369   -2.4225 F   0  0  0  0  0  0  0  0  0  0  0  0
   -5.1317    2.5851   -2.0143 C   0  0  0  0  0  0  0  0  0  0  0  0
   -3.8714    2.5542   -1.4114 C   0  0  0  0  0  0  0  0  0  0  0  0
    5.5759   -0.3321    0.8336 N   0  0  0  0  0  0  0  0  0  0  0  0
    6.3528   -0.2755   -0.3042 O   0  0  0  0  0  0  0  0  0  0  0  0
    6.7066   -0.6930   -2.9498 H   0  0  0  0  0  0  0  0  0  0  0  0
    5.5955    0.6024   -3.4268 H   0  0  0  0  0  0  0  0  0  0  0  0
    7.1012    0.9980   -2.5800 H   0  0  0  0  0  0  0  0  0  0  0  0
    3.4918    0.7248   -1.5149 H   0  0  0  0  0  0  0  0  0  0  0  0
    1.8589    0.3782   -0.0555 H   0  0  0  0  0  0  0  0  0  0  0  0
    1.0659    0.9153    2.7030 H   0  0  0  0  0  0  0  0  0  0  0  0
    1.2329   -1.6787    2.4742 H   0  0  0  0  0  0  0  0  0  0  0  0
   -0.2471   -0.9722    3.0974 H   0  0  0  0  0  0  0  0  0  0  0  0
   -1.5897   -3.7124    1.0287 H   0  0  0  0  0  0  0  0  0  0  0  0
   -0.1084   -3.7920    1.9965 H   0  0  0  0  0  0  0  0  0  0  0  0
   -1.5471   -2.9901    2.6426 H   0  0  0  0  0  0  0  0  0  0  0  0
    1.2852   -2.6467    0.1364 H   0  0  0  0  0  0  0  0  0  0  0  0
    0.5837   -1.2661   -0.7252 H   0  0  0  0  0  0  0  0  0  0  0  0
   -0.2039   -2.8328   -0.7976 H   0  0  0  0  0  0  0  0  0  0  0  0
   -2.4992   -1.0753    1.5108 H   0  0  0  0  0  0  0  0  0  0  0  0
   -2.1616   -1.3906   -0.2063 H   0  0  0  0  0  0  0  0  0  0  0  0
    0.3441    3.2064    0.8171 H   0  0  0  0  0  0  0  0  0  0  0  0
   -4.1391   -0.4819    0.1391 H   0  0  0  0  0  0  0  0  0  0  0  0
   -6.3188   -0.4071   -0.9546 H   0  0  0  0  0  0  0  0  0  0  0  0
   -5.4407    3.4399   -2.6074 H   0  0  0  0  0  0  0  0  0  0  0  0
   -3.2111    3.4086   -1.5558 H   0  0  0  0  0  0  0  0  0  0  0  0
  1  2  1  0
  2  3  2  0
  3  4  1  0
  4  5  1  0
  5  6  2  0
  5  7  1  0
  7  8  1  0
  8  9  1  0
  9 10  1  0
 10 11  1  0
 10 12  1  0
 10 13  1  0
 13 14  1  0
 14 15  2  0
 15 16  1  0
 16 17  2  0
 17 18  1  0
 18 19  1  0
 19 20  2  0
 20 21  1  0
 21 22  2  0
 22 23  1  0
 22 24  1  0
 24 25  2  0
  4 26  2  0
 26 27  1  0
 27  2  1  0
 15  8  1  0
 25 19  1  0
 18 14  1  0
  1 28  1  0
  1 29  1  0
  1 30  1  0
  3 31  1  0
  7 32  1  0
  8 33  1  0
  9 34  1  0
  9 35  1  0
 11 36  1  0
 11 37  1  0
 11 38  1  0
 12 39  1  0
 12 40  1  0
 12 41  1  0
 13 42  1  0
 13 43  1  0
 16 44  1  0
 20 45  1  0
 21 46  1  0
 24 47  1  0
 25 48  1  0
M  END
$$$$
