
     RDKit          3D

 57 62  0  0  0  0  0  0  0  0999 V2000
    3.3111   -2.5047   -4.6685 C   0  0  0  0  0  0  0  0  0  0  0  0
    2.4181   -2.1791   -3.6117 O   0  0  0  0  0  0  0  0  0  0  0  0
    2.9757   -1.8575   -2.4031 C   0  0  0  0  0  0  0  0  0  0  0  0
    4.3544   -1.7865   -2.1292 C   0  0  0  0  0  0  0  0  0  0  0  0
    4.8160   -1.4451   -0.8525 C   0  0  0  0  0  0  0  0  0  0  0  0
    3.8737   -1.1813    0.1187 C   0  0  0  0  0  0  0  0  0  0  0  0
    2.4999   -1.2423   -0.1292 C   0  0  0  0  0  0  0  0  0  0  0  0
    2.0433   -1.5835   -1.3936 C   0  0  0  0  0  0  0  0  0  0  0  0
    1.7656   -0.8988    1.1347 C   0  0  0  0  0  0  0  0  0  0  0  0
    0.8168   -1.9571    1.6355 N   0  0  0  0  0  0  0  0  0  0  0  0
   -0.6117   -1.4615    1.4909 C   0  0  2  0  0  0  0  0  0  0  0  0
   -1.3472   -2.3317    0.4578 C   0  0  0  0  0  0  0  0  0  0  0  0
   -2.8547   -2.2566    0.5594 C   0  0  0  0  0  0  0  0  0  0  0  0
   -3.5341   -2.9712    1.5564 C   0  0  0  0  0  0  0  0  0  0  0  0
   -4.9250   -2.9059    1.6515 C   0  0  0  0  0  0  0  0  0  0  0  0
   -5.6500   -2.1263    0.7524 C   0  0  0  0  0  0  0  0  0  0  0  0
   -4.9847   -1.4112   -0.2416 C   0  0  0  0  0  0  0  0  0  0  0  0
   -3.5936   -1.4760   -0.3384 C   0  0  0  0  0  0  0  0  0  0  0  0
   -0.4291   -0.0459    1.0982 C   0  0  0  0  0  0  0  0  0  0  0  0
    0.9130    0.2713    0.9066 C   0  0  0  0  0  0  0  0  0  0  0  0
    1.0168    1.5899    0.5534 C   0  0  0  0  0  0  0  0  0  0  0  0
    2.1094    2.2604    0.1914 O   0  0  0  0  0  0  0  0  0  0  0  0
   -0.2856    2.1196    0.5718 N   0  0  0  0  0  0  0  0  0  0  0  0
   -0.6461    3.4672    0.2780 C   0  0  0  0  0  0  0  0  0  0  0  0
    0.1646    4.5237    0.7137 C   0  0  0  0  0  0  0  0  0  0  0  0
   -0.1943    5.8413    0.4242 C   0  0  0  0  0  0  0  0  0  0  0  0
   -1.3560    6.1075   -0.2995 C   0  0  0  0  0  0  0  0  0  0  0  0
   -2.1647    5.0583   -0.7346 C   0  0  0  0  0  0  0  0  0  0  0  0
   -1.8150    3.7380   -0.4462 C   0  0  0  0  0  0  0  0  0  0  0  0
   -1.1733    1.0926    0.9428 C   0  0  0  0  0  0  0  0  0  0  0  0
   -2.4738    1.2633    1.1701 O   0  0  0  0  0  0  0  0  0  0  0  0
    2.9257   -0.6610    2.1430 C   0  0  0  0  0  0  0  0  0  0  0  0
    2.8399   -0.4167    3.3385 O   0  0  0  0  0  0  0  0  0  0  0  0
    4.1181   -0.8386    1.4421 N   0  0  0  0  0  0  0  0  0  0  0  0
    2.7107   -2.7519   -5.5493 H   0  0  0  0  0  0  0  0  0  0  0  0
    3.9144   -3.3843   -4.4196 H   0  0  0  0  0  0  0  0  0  0  0  0
    3.9445   -1.6498   -4.9269 H   0  0  0  0  0  0  0  0  0  0  0  0
    5.0945   -1.9932   -2.8955 H   0  0  0  0  0  0  0  0  0  0  0  0
    5.8783   -1.3933   -0.6431 H   0  0  0  0  0  0  0  0  0  0  0  0
    0.9813   -1.6347   -1.6060 H   0  0  0  0  0  0  0  0  0  0  0  0
    0.9830   -1.9917    2.6451 H   0  0  0  0  0  0  0  0  0  0  0  0
   -1.0924   -1.5256    2.4745 H   0  0  0  0  0  0  0  0  0  0  0  0
   -1.0701   -3.3863    0.5955 H   0  0  0  0  0  0  0  0  0  0  0  0
   -1.0393   -2.0790   -0.5643 H   0  0  0  0  0  0  0  0  0  0  0  0
   -2.9819   -3.5860    2.2635 H   0  0  0  0  0  0  0  0  0  0  0  0
   -5.4424   -3.4632    2.4276 H   0  0  0  0  0  0  0  0  0  0  0  0
   -6.7325   -2.0739    0.8279 H   0  0  0  0  0  0  0  0  0  0  0  0
   -5.5474   -0.7983   -0.9400 H   0  0  0  0  0  0  0  0  0  0  0  0
   -3.0870   -0.9028   -1.1114 H   0  0  0  0  0  0  0  0  0  0  0  0
    1.8464    3.0130   -0.3680 H   0  0  0  0  0  0  0  0  0  0  0  0
    1.0511    4.3464    1.3204 H   0  0  0  0  0  0  0  0  0  0  0  0
    0.4266    6.6628    0.7743 H   0  0  0  0  0  0  0  0  0  0  0  0
   -1.6325    7.1351   -0.5237 H   0  0  0  0  0  0  0  0  0  0  0  0
   -3.0649    5.2692   -1.3074 H   0  0  0  0  0  0  0  0  0  0  0  0
   -2.4418    2.9358   -0.8318 H   0  0  0  0  0  0  0  0  0  0  0  0
   -2.6464    2.2018    1.3618 H   0  0  0  0  0  0  0  0  0  0  0  0
    5.0244   -0.7450    1.8726 H   0  0  0  0  0  0  0  0  0  0  0  0
  1  2  1  0
  2  3  1  0
  3  4  2  0
  4  5  1  0
  5  6  2  0
  6  7  1  0
  7  8  2  0
  7  9  1  0
  9 10  1  0
 10 11  1  0
 11 12  1  0
 12 13  1  0
 13 14  2  0
 14 15  1  0
 15 16  2  0
 16 17  1  0
 17 18  2  0
 11 19  1  0
 19 20  1  0
 20 21  2  0
 21 22  1  0
 21 23  1  0
 23 24  1  0
 24 25  2  0
 25 26  1  0
 26 27  2  0
 27 28  1  0
 28 29  2  0
 23 30  1  0
 30 31  1  0
  9 32  1  0
 32 33  2  0
 32 34  1  0
  8  3  1  0
 20  9  1  0
 29 24  1  0
 34  6  1  0
 18 13  1  0
 30 19  2  0
  1 35  1  0
  1 36  1  0
  1 37  1  0
  4 38  1  0
  5 39  1  0
  8 40  1  0
 10 41  1  0
 11 42  1  1
 12 43  1  0
 12 44  1  0
 14 45  1  0
 15 46  1  0
 16 47  1  0
 17 48  1  0
 18 49  1  0
 22 50  1  0
 25 51  1  0
 26 52  1  0
 27 53  1  0
 28 54  1  0
 29 55  1  0
 31 56  1  0
 34 57  1  0
M  END
$$$$
