
     RDKit          3D

 57 60  0  0  0  0  0  0  0  0999 V2000
    5.1551    3.0707    0.1225 C   0  0  0  0  0  0  0  0  0  0  0  0
    4.2635    1.8874   -0.0601 C   0  0  0  0  0  0  0  0  0  0  0  0
    2.8937    1.8997   -0.2335 C   0  0  0  0  0  0  0  0  0  0  0  0
    2.4398    0.5650   -0.2557 C   0  0  0  0  0  0  0  0  0  0  0  0
    1.0945    0.0989   -0.3920 C   0  0  0  0  0  0  0  0  0  0  0  0
    0.0274    0.8754   -0.6453 C   0  0  0  0  0  0  0  0  0  0  0  0
   -1.3310    0.3345   -0.7551 C   0  0  0  0  0  0  0  0  0  0  0  0
   -1.6219   -0.5263   -1.8145 C   0  0  0  0  0  0  0  0  0  0  0  0
   -2.9038   -1.0204   -1.9743 C   0  0  0  0  0  0  0  0  0  0  0  0
   -3.9030   -0.6385   -1.0850 C   0  0  0  0  0  0  0  0  0  0  0  0
   -5.2169   -1.1246   -1.2461 C   0  0  0  0  0  0  0  0  0  0  0  0
   -6.2749   -0.7666   -0.3947 C   0  0  0  0  0  0  0  0  0  0  0  0
   -7.5602   -1.2770   -0.5487 N   0  0  0  0  0  0  0  0  0  0  0  0
   -8.6851   -0.6571    0.1556 C   0  0  0  0  0  0  0  0  0  0  0  0
   -7.9144   -2.0542   -1.7384 C   0  0  0  0  0  0  0  0  0  0  0  0
   -5.9433    0.1097    0.6467 C   0  0  0  0  0  0  0  0  0  0  0  0
   -4.6424    0.6064    0.8313 C   0  0  0  0  0  0  0  0  0  0  0  0
   -3.5927    0.2399   -0.0221 C   0  0  0  0  0  0  0  0  0  0  0  0
   -2.3043    0.6925    0.1312 N   0  0  0  0  0  4  0  0  0  0  0  0
   -1.9743    1.5542    1.2930 C   0  0  0  0  0  0  0  0  0  0  0  0
    3.5522   -0.2548   -0.1360 C   0  0  0  0  0  0  0  0  0  0  0  0
    3.6352   -1.7473   -0.2375 C   0  0  0  0  0  0  0  0  0  0  0  0
    4.6793    0.5605    0.0191 N   0  0  0  0  0  0  0  0  0  0  0  0
    6.0157    0.1146    0.2375 C   0  0  0  0  0  0  0  0  0  0  0  0
    6.2746   -0.8891    1.1806 C   0  0  0  0  0  0  0  0  0  0  0  0
    7.5844   -1.3216    1.3976 C   0  0  0  0  0  0  0  0  0  0  0  0
    8.6359   -0.7583    0.6760 C   0  0  0  0  0  0  0  0  0  0  0  0
    8.3817    0.2399   -0.2634 C   0  0  0  0  0  0  0  0  0  0  0  0
    7.0745    0.6794   -0.4839 C   0  0  0  0  0  0  0  0  0  0  0  0
    5.6794    3.3091   -0.8077 H   0  0  0  0  0  0  0  0  0  0  0  0
    4.5662    3.9522    0.3993 H   0  0  0  0  0  0  0  0  0  0  0  0
    5.8843    2.9104    0.9221 H   0  0  0  0  0  0  0  0  0  0  0  0
    2.3032    2.8040   -0.3052 H   0  0  0  0  0  0  0  0  0  0  0  0
    0.9428   -0.9727   -0.2664 H   0  0  0  0  0  0  0  0  0  0  0  0
    0.1245    1.9494   -0.7793 H   0  0  0  0  0  0  0  0  0  0  0  0
   -0.8494   -0.8092   -2.5288 H   0  0  0  0  0  0  0  0  0  0  0  0
   -3.1162   -1.6931   -2.8047 H   0  0  0  0  0  0  0  0  0  0  0  0
   -5.4054   -1.8073   -2.0729 H   0  0  0  0  0  0  0  0  0  0  0  0
   -8.5644   -0.7427    1.2411 H   0  0  0  0  0  0  0  0  0  0  0  0
   -8.7853    0.3985   -0.1211 H   0  0  0  0  0  0  0  0  0  0  0  0
   -9.6334   -1.1508   -0.0840 H   0  0  0  0  0  0  0  0  0  0  0  0
   -7.8316   -1.4416   -2.6429 H   0  0  0  0  0  0  0  0  0  0  0  0
   -7.2782   -2.9409   -1.8347 H   0  0  0  0  0  0  0  0  0  0  0  0
   -8.9430   -2.4272   -1.6830 H   0  0  0  0  0  0  0  0  0  0  0  0
   -6.6995    0.4299    1.3610 H   0  0  0  0  0  0  0  0  0  0  0  0
   -4.5041    1.2853    1.6675 H   0  0  0  0  0  0  0  0  0  0  0  0
   -2.3294    1.0580    2.2009 H   0  0  0  0  0  0  0  0  0  0  0  0
   -2.4664    2.5189    1.1405 H   0  0  0  0  0  0  0  0  0  0  0  0
   -0.9018    1.7081    1.4061 H   0  0  0  0  0  0  0  0  0  0  0  0
    3.5276   -2.2043    0.7507 H   0  0  0  0  0  0  0  0  0  0  0  0
    4.5746   -2.0790   -0.6886 H   0  0  0  0  0  0  0  0  0  0  0  0
    2.8382   -2.1408   -0.8768 H   0  0  0  0  0  0  0  0  0  0  0  0
    5.4792   -1.3168    1.7845 H   0  0  0  0  0  0  0  0  0  0  0  0
    7.7877   -2.0931    2.1367 H   0  0  0  0  0  0  0  0  0  0  0  0
    9.6553   -1.0969    0.8460 H   0  0  0  0  0  0  0  0  0  0  0  0
    9.2032    0.6706   -0.8312 H   0  0  0  0  0  0  0  0  0  0  0  0
    6.9022    1.4289   -1.2511 H   0  0  0  0  0  0  0  0  0  0  0  0
  1  2  1  0
  2  3  2  0
  3  4  1  0
  4  5  1  0
  5  6  2  3
  6  7  1  0
  7  8  2  0
  8  9  1  0
  9 10  2  0
 10 11  1  0
 11 12  2  0
 12 13  1  0
 13 14  1  0
 13 15  1  0
 12 16  1  0
 16 17  2  0
 17 18  1  0
 18 19  2  0
 19 20  1  0
  4 21  2  0
 21 22  1  0
 21 23  1  0
 23 24  1  0
 24 25  2  0
 25 26  1  0
 26 27  2  0
 27 28  1  0
 28 29  2  0
 23  2  1  0
 29 24  1  0
 19  7  1  0
 18 10  1  0
  1 30  1  0
  1 31  1  0
  1 32  1  0
  3 33  1  0
  5 34  1  0
  6 35  1  0
  8 36  1  0
  9 37  1  0
 11 38  1  0
 14 39  1  0
 14 40  1  0
 14 41  1  0
 15 42  1  0
 15 43  1  0
 15 44  1  0
 16 45  1  0
 17 46  1  0
 20 47  1  0
 20 48  1  0
 20 49  1  0
 22 50  1  0
 22 51  1  0
 22 52  1  0
 25 53  1  0
 26 54  1  0
 27 55  1  0
 28 56  1  0
 29 57  1  0
M  CHG  1  19   1
M  END
$$$$
