
     RDKit          3D

 43 45  0  0  0  0  0  0  0  0999 V2000
    1.8276   -0.9385   -2.0609 O   0  0  0  0  0  0  0  0  0  0  0  0
    2.0502   -0.2539   -1.0649 C   0  0  0  0  0  0  0  0  0  0  0  0
    3.4705    0.2022   -0.7499 C   0  0  0  0  0  0  0  0  0  0  0  0
    3.8502    0.0257    1.0306 S   0  0  0  0  0  0  0  0  0  0  0  0
    5.6158    0.2973    1.0124 C   0  0  0  0  0  0  0  0  0  0  0  0
    6.4340   -0.6226    1.6795 C   0  0  0  0  0  0  0  0  0  0  0  0
    7.8218   -0.4511    1.7057 C   0  0  0  0  0  0  0  0  0  0  0  0
    8.4049    0.6465    1.0735 C   0  0  0  0  0  0  0  0  0  0  0  0
    7.5996    1.5761    0.4191 C   0  0  0  0  0  0  0  0  0  0  0  0
    6.2173    1.3999    0.3958 C   0  0  0  0  0  0  0  0  0  0  0  0
    5.4728    2.3269   -0.2257 F   0  0  0  0  0  0  0  0  0  0  0  0
    1.1011    0.2423   -0.1872 N   0  0  0  0  0  0  0  0  0  0  0  0
   -0.2949    0.0706   -0.2310 C   0  0  0  0  0  0  0  0  0  0  0  0
   -1.0409    0.6070    0.8183 C   0  0  0  0  0  0  0  0  0  0  0  0
   -2.4381    0.4803    0.8436 C   0  0  0  0  0  0  0  0  0  0  0  0
   -3.1442   -0.1821   -0.1702 C   0  0  0  0  0  0  0  0  0  0  0  0
   -4.5202   -0.3081   -0.1413 N   0  0  0  0  0  0  0  0  0  0  0  0
   -5.2310   -1.3121   -0.9495 C   0  0  0  0  0  0  0  0  0  0  0  0
   -6.5712   -1.6712   -0.2849 C   0  0  0  0  0  0  0  0  0  0  0  0
   -7.4556   -0.5559   -0.1057 O   0  0  0  0  0  0  0  0  0  0  0  0
   -6.7676    0.6939    0.0415 C   0  0  0  0  0  0  0  0  0  0  0  0
   -5.3714    0.5712    0.6756 C   0  0  0  0  0  0  0  0  0  0  0  0
   -2.3704   -0.7109   -1.2137 C   0  0  0  0  0  0  0  0  0  0  0  0
   -0.9715   -0.5885   -1.2500 C   0  0  0  0  0  0  0  0  0  0  0  0
    3.5644    1.2446   -1.0663 H   0  0  0  0  0  0  0  0  0  0  0  0
    4.1660   -0.4158   -1.3268 H   0  0  0  0  0  0  0  0  0  0  0  0
    5.9996   -1.4847    2.1820 H   0  0  0  0  0  0  0  0  0  0  0  0
    8.4469   -1.1759    2.2229 H   0  0  0  0  0  0  0  0  0  0  0  0
    9.4839    0.7792    1.0961 H   0  0  0  0  0  0  0  0  0  0  0  0
    8.0375    2.4411   -0.0695 H   0  0  0  0  0  0  0  0  0  0  0  0
    1.4707    0.7259    0.6248 H   0  0  0  0  0  0  0  0  0  0  0  0
   -0.5551    1.1267    1.6397 H   0  0  0  0  0  0  0  0  0  0  0  0
   -2.9624    0.8965    1.6992 H   0  0  0  0  0  0  0  0  0  0  0  0
   -4.6460   -2.2342   -1.0424 H   0  0  0  0  0  0  0  0  0  0  0  0
   -5.4086   -0.9026   -1.9507 H   0  0  0  0  0  0  0  0  0  0  0  0
   -6.3963   -2.1141    0.7028 H   0  0  0  0  0  0  0  0  0  0  0  0
   -7.1011   -2.4168   -0.8863 H   0  0  0  0  0  0  0  0  0  0  0  0
   -6.6928    1.1487   -0.9535 H   0  0  0  0  0  0  0  0  0  0  0  0
   -7.4007    1.3471    0.6505 H   0  0  0  0  0  0  0  0  0  0  0  0
   -5.4551    0.1480    1.6833 H   0  0  0  0  0  0  0  0  0  0  0  0
   -4.9478    1.5794    0.7494 H   0  0  0  0  0  0  0  0  0  0  0  0
   -2.8426   -1.2190   -2.0501 H   0  0  0  0  0  0  0  0  0  0  0  0
   -0.4497   -1.0189   -2.0986 H   0  0  0  0  0  0  0  0  0  0  0  0
  1  2  2  0
  2  3  1  0
  3  4  1  0
  4  5  1  0
  5  6  2  0
  6  7  1  0
  7  8  2  0
  8  9  1  0
  9 10  2  0
 10 11  1  0
  2 12  1  0
 12 13  1  0
 13 14  2  0
 14 15  1  0
 15 16  2  0
 16 17  1  0
 17 18  1  0
 18 19  1  0
 19 20  1  0
 20 21  1  0
 21 22  1  0
 16 23  1  0
 23 24  2  0
 10  5  1  0
 24 13  1  0
 22 17  1  0
  3 25  1  0
  3 26  1  0
  6 27  1  0
  7 28  1  0
  8 29  1  0
  9 30  1  0
 12 31  1  0
 14 32  1  0
 15 33  1  0
 18 34  1  0
 18 35  1  0
 19 36  1  0
 19 37  1  0
 21 38  1  0
 21 39  1  0
 22 40  1  0
 22 41  1  0
 23 42  1  0
 24 43  1  0
M  END
$$$$
