
     RDKit          3D

 39 41  0  0  0  0  0  0  0  0999 V2000
   -3.7464    2.3260   -0.4666 C   0  0  0  0  0  0  0  0  0  0  0  0
   -3.3788    1.3526    0.5163 O   0  0  0  0  0  0  0  0  0  0  0  0
   -3.6390    0.0944    0.0406 C   0  0  0  0  0  0  0  0  0  0  0  0
   -4.7850   -0.5481    0.5169 C   0  0  0  0  0  0  0  0  0  0  0  0
   -5.1322   -1.8187    0.0412 C   0  0  0  0  0  0  0  0  0  0  0  0
   -6.3606   -2.5148    0.5510 C   0  0  0  0  0  0  0  0  0  0  0  0
   -4.2980   -2.4489   -0.8915 C   0  0  0  0  0  0  0  0  0  0  0  0
   -3.1379   -1.8176   -1.3434 C   0  0  0  0  0  0  0  0  0  0  0  0
   -2.7912   -0.5567   -0.8605 C   0  0  0  0  0  0  0  0  0  0  0  0
   -1.6294   -0.0235   -1.3475 O   0  0  0  0  0  0  0  0  0  0  0  0
   -0.7222    0.3500   -0.3148 C   0  0  0  0  0  0  0  0  0  0  0  0
    0.7336    0.2216   -0.7776 C   0  0  0  0  0  0  0  0  0  0  0  0
    1.0404    0.0396   -1.9501 O   0  0  0  0  0  0  0  0  0  0  0  0
    1.6176    0.3485    0.2795 N   0  0  0  0  0  0  0  0  0  0  0  0
    2.9723    0.2778    0.1041 C   0  0  0  0  0  0  0  0  0  0  0  0
    3.6865    0.1063   -0.9817 N   0  0  0  0  0  0  0  0  0  0  0  0
    5.0428    0.0940   -0.7064 N   0  0  0  0  0  0  0  0  0  0  0  0
    5.2775    0.2649    0.5746 C   0  0  0  0  0  0  0  0  0  0  0  0
    6.7226    0.2821    1.1599 C   0  0  0  0  0  0  0  0  0  0  0  0
    7.8124    0.9962    0.3995 C   0  0  0  0  0  0  0  0  0  0  0  0
    7.2915    1.5765    1.6819 C   0  0  0  0  0  0  0  0  0  0  0  0
    3.8783    0.4394    1.5448 S   0  0  0  0  0  0  0  0  0  0  0  0
   -3.0208    2.3469   -1.2873 H   0  0  0  0  0  0  0  0  0  0  0  0
   -4.7567    2.1546   -0.8572 H   0  0  0  0  0  0  0  0  0  0  0  0
   -3.7335    3.3075    0.0178 H   0  0  0  0  0  0  0  0  0  0  0  0
   -5.4191   -0.0408    1.2402 H   0  0  0  0  0  0  0  0  0  0  0  0
   -6.0903   -3.2196    1.3447 H   0  0  0  0  0  0  0  0  0  0  0  0
   -6.8583   -3.0600   -0.2571 H   0  0  0  0  0  0  0  0  0  0  0  0
   -7.0840   -1.7948    0.9540 H   0  0  0  0  0  0  0  0  0  0  0  0
   -4.5462   -3.4378   -1.2706 H   0  0  0  0  0  0  0  0  0  0  0  0
   -2.4928   -2.3153   -2.0643 H   0  0  0  0  0  0  0  0  0  0  0  0
   -0.8786    1.4031   -0.0577 H   0  0  0  0  0  0  0  0  0  0  0  0
   -0.8467   -0.2753    0.5799 H   0  0  0  0  0  0  0  0  0  0  0  0
    1.2878    0.4874    1.2225 H   0  0  0  0  0  0  0  0  0  0  0  0
    7.0069   -0.6406    1.6561 H   0  0  0  0  0  0  0  0  0  0  0  0
    8.8028    0.5530    0.4020 H   0  0  0  0  0  0  0  0  0  0  0  0
    7.5494    1.4806   -0.5358 H   0  0  0  0  0  0  0  0  0  0  0  0
    6.6951    2.4791    1.6155 H   0  0  0  0  0  0  0  0  0  0  0  0
    7.9303    1.5303    2.5544 H   0  0  0  0  0  0  0  0  0  0  0  0
  1  2  1  0
  2  3  1  0
  3  4  2  0
  4  5  1  0
  5  6  1  0
  5  7  2  0
  7  8  1  0
  8  9  2  0
  9 10  1  0
 10 11  1  0
 11 12  1  0
 12 13  2  0
 12 14  1  0
 14 15  1  0
 15 16  2  0
 16 17  1  0
 17 18  2  0
 18 19  1  0
 19 20  1  0
 20 21  1  0
 18 22  1  0
  9  3  1  0
 22 15  1  0
 21 19  1  0
  1 23  1  0
  1 24  1  0
  1 25  1  0
  4 26  1  0
  6 27  1  0
  6 28  1  0
  6 29  1  0
  7 30  1  0
  8 31  1  0
 11 32  1  0
 11 33  1  0
 14 34  1  0
 19 35  1  0
 20 36  1  0
 20 37  1  0
 21 38  1  0
 21 39  1  0
M  END
$$$$
