
     RDKit          3D

 35 37  0  0  0  0  0  0  0  0999 V2000
    6.6542   -1.0261   -1.3007 C   0  0  0  0  0  0  0  0  0  0  0  0
    6.3929   -0.2997   -0.1063 O   0  0  0  0  0  0  0  0  0  0  0  0
    5.0813   -0.0711    0.2037 C   0  0  0  0  0  0  0  0  0  0  0  0
    4.8762    0.6461    1.3836 C   0  0  0  0  0  0  0  0  0  0  0  0
    3.5824    0.9499    1.8194 C   0  0  0  0  0  0  0  0  0  0  0  0
    2.4655    0.5400    1.0800 C   0  0  0  0  0  0  0  0  0  0  0  0
    1.1254    0.8652    1.5492 C   0  0  0  0  0  0  0  0  0  0  0  0
    0.7330    1.5315    2.6182 N   0  0  0  0  0  0  0  0  0  0  0  0
   -0.6478    1.5482    2.5815 N   0  0  0  0  0  0  0  0  0  0  0  0
   -0.9958    0.8943    1.4951 C   0  0  0  0  0  0  0  0  0  0  0  0
   -2.2721    0.6629    1.0706 N   0  0  0  0  0  0  0  0  0  0  0  0
   -2.5625    0.0164   -0.1058 C   0  0  0  0  0  0  0  0  0  0  0  0
   -1.7565   -0.3927   -0.9332 O   0  0  0  0  0  0  0  0  0  0  0  0
   -4.0170   -0.1551   -0.3889 C   0  0  0  0  0  0  0  0  0  0  0  0
   -4.4397   -0.1422   -1.7272 C   0  0  0  0  0  0  0  0  0  0  0  0
   -5.7915   -0.3007   -2.0380 C   0  0  0  0  0  0  0  0  0  0  0  0
   -6.7127   -0.4817   -1.0130 C   0  0  0  0  0  0  0  0  0  0  0  0
   -8.0091   -0.6357   -1.3102 F   0  0  0  0  0  0  0  0  0  0  0  0
   -6.3077   -0.5141    0.3176 C   0  0  0  0  0  0  0  0  0  0  0  0
   -4.9560   -0.3551    0.6350 C   0  0  0  0  0  0  0  0  0  0  0  0
    0.0724    0.4278    0.7919 O   0  0  0  0  0  0  0  0  0  0  0  0
    2.6800   -0.1801   -0.1048 C   0  0  0  0  0  0  0  0  0  0  0  0
    3.9771   -0.4838   -0.5404 C   0  0  0  0  0  0  0  0  0  0  0  0
    6.2341   -2.0360   -1.2484 H   0  0  0  0  0  0  0  0  0  0  0  0
    7.7394   -1.1220   -1.4029 H   0  0  0  0  0  0  0  0  0  0  0  0
    6.2833   -0.4878   -2.1792 H   0  0  0  0  0  0  0  0  0  0  0  0
    5.7314    0.9727    1.9708 H   0  0  0  0  0  0  0  0  0  0  0  0
    3.4549    1.5110    2.7438 H   0  0  0  0  0  0  0  0  0  0  0  0
   -2.9891    1.0688    1.6514 H   0  0  0  0  0  0  0  0  0  0  0  0
   -3.7157   -0.0080   -2.5294 H   0  0  0  0  0  0  0  0  0  0  0  0
   -6.1286   -0.2887   -3.0699 H   0  0  0  0  0  0  0  0  0  0  0  0
   -7.0473   -0.6744    1.0967 H   0  0  0  0  0  0  0  0  0  0  0  0
   -4.6549   -0.4218    1.6768 H   0  0  0  0  0  0  0  0  0  0  0  0
    1.8359   -0.5149   -0.7072 H   0  0  0  0  0  0  0  0  0  0  0  0
    4.0845   -1.0430   -1.4640 H   0  0  0  0  0  0  0  0  0  0  0  0
  1  2  1  0
  2  3  1  0
  3  4  2  0
  4  5  1  0
  5  6  2  0
  6  7  1  0
  7  8  2  0
  8  9  1  0
  9 10  2  0
 10 11  1  0
 11 12  1  0
 12 13  2  0
 12 14  1  0
 14 15  2  0
 15 16  1  0
 16 17  2  0
 17 18  1  0
 17 19  1  0
 19 20  2  0
 10 21  1  0
  6 22  1  0
 22 23  2  0
 23  3  1  0
 21  7  1  0
 20 14  1  0
  1 24  1  0
  1 25  1  0
  1 26  1  0
  4 27  1  0
  5 28  1  0
 11 29  1  0
 15 30  1  0
 16 31  1  0
 19 32  1  0
 20 33  1  0
 22 34  1  0
 23 35  1  0
M  END
$$$$
