
     RDKit          3D

 37 39  0  0  0  0  0  0  0  0999 V2000
   -7.5694    2.4710   -0.6326 C   0  0  0  0  0  0  0  0  0  0  0  0
   -7.1662    1.0863   -1.1144 C   0  0  0  0  0  0  0  0  0  0  0  0
   -5.9800    0.5713   -0.3697 C   0  0  0  0  0  0  0  0  0  0  0  0
   -6.0346   -0.0651    0.7824 N   0  0  0  0  0  0  0  0  0  0  0  0
   -4.7796   -0.4207    1.2338 N   0  0  0  0  0  0  0  0  0  0  0  0
   -3.8288   -0.0420    0.4084 C   0  0  0  0  0  0  0  0  0  0  0  0
   -2.5055   -0.2968    0.6681 N   0  0  0  0  0  0  0  0  0  0  0  0
   -1.4225    0.0485   -0.1185 C   0  0  0  0  0  0  0  0  0  0  0  0
   -1.4652    0.6456   -1.1884 O   0  0  0  0  0  0  0  0  0  0  0  0
   -0.1029   -0.4145    0.5162 C   0  0  0  0  0  0  0  0  0  0  0  0
    1.0118   -0.0634   -0.2873 O   0  0  0  0  0  0  0  0  0  0  0  0
    2.2512   -0.4190    0.1671 C   0  0  0  0  0  0  0  0  0  0  0  0
    2.5287   -1.1003    1.3502 C   0  0  0  0  0  0  0  0  0  0  0  0
    3.8519   -1.4008    1.6926 C   0  0  0  0  0  0  0  0  0  0  0  0
    4.9168   -1.0254    0.8591 C   0  0  0  0  0  0  0  0  0  0  0  0
    6.2494   -1.3203    1.1905 C   0  0  0  0  0  0  0  0  0  0  0  0
    7.2948   -0.9380    0.3482 C   0  0  0  0  0  0  0  0  0  0  0  0
    7.0215   -0.2570   -0.8345 C   0  0  0  0  0  0  0  0  0  0  0  0
    5.7022    0.0431   -1.1775 C   0  0  0  0  0  0  0  0  0  0  0  0
    4.6395   -0.3346   -0.3407 C   0  0  0  0  0  0  0  0  0  0  0  0
    3.3059   -0.0412   -0.6693 C   0  0  0  0  0  0  0  0  0  0  0  0
   -4.3865    0.7732   -0.9773 S   0  0  0  0  0  0  0  0  0  0  0  0
   -7.8101    2.4642    0.4361 H   0  0  0  0  0  0  0  0  0  0  0  0
   -6.7646    3.1969   -0.7904 H   0  0  0  0  0  0  0  0  0  0  0  0
   -8.4524    2.8197   -1.1773 H   0  0  0  0  0  0  0  0  0  0  0  0
   -8.0050    0.3955   -0.9680 H   0  0  0  0  0  0  0  0  0  0  0  0
   -6.9680    1.1148   -2.1921 H   0  0  0  0  0  0  0  0  0  0  0  0
   -2.3642   -0.7915    1.5381 H   0  0  0  0  0  0  0  0  0  0  0  0
   -0.0255    0.0693    1.4976 H   0  0  0  0  0  0  0  0  0  0  0  0
   -0.1584   -1.5046    0.6257 H   0  0  0  0  0  0  0  0  0  0  0  0
    1.7468   -1.4150    2.0320 H   0  0  0  0  0  0  0  0  0  0  0  0
    4.0467   -1.9336    2.6210 H   0  0  0  0  0  0  0  0  0  0  0  0
    6.4834   -1.8517    2.1101 H   0  0  0  0  0  0  0  0  0  0  0  0
    8.3217   -1.1722    0.6161 H   0  0  0  0  0  0  0  0  0  0  0  0
    7.8341    0.0416   -1.4917 H   0  0  0  0  0  0  0  0  0  0  0  0
    5.5073    0.5761   -2.1056 H   0  0  0  0  0  0  0  0  0  0  0  0
    3.0760    0.4907   -1.5908 H   0  0  0  0  0  0  0  0  0  0  0  0
  1  2  1  0
  2  3  1  0
  3  4  2  0
  4  5  1  0
  5  6  2  0
  6  7  1  0
  7  8  1  0
  8  9  2  0
  8 10  1  0
 10 11  1  0
 11 12  1  0
 12 13  2  0
 13 14  1  0
 14 15  2  0
 15 16  1  0
 16 17  2  0
 17 18  1  0
 18 19  2  0
 19 20  1  0
 20 21  2  0
  6 22  1  0
 22  3  1  0
 21 12  1  0
 20 15  1  0
  1 23  1  0
  1 24  1  0
  1 25  1  0
  2 26  1  0
  2 27  1  0
  7 28  1  0
 10 29  1  0
 10 30  1  0
 13 31  1  0
 14 32  1  0
 16 33  1  0
 17 34  1  0
 18 35  1  0
 19 36  1  0
 21 37  1  0
M  END
$$$$
