
     RDKit          3D

 49 52  0  0  0  0  0  0  0  0999 V2000
   -3.1329   -0.2622    3.0793 O   0  0  0  0  0  0  0  0  0  0  0  0
   -3.5981    0.0447    1.9816 C   0  0  0  0  0  0  0  0  0  0  0  0
   -2.7450    0.2606    0.8267 C   0  0  0  0  0  0  0  0  0  0  0  0
   -2.9200    1.0542   -0.3198 C   0  0  0  0  0  0  0  0  0  0  0  0
   -1.8664    1.0250   -1.1342 N   0  0  0  0  0  0  0  0  0  0  0  0
   -0.9875    0.1700   -0.5467 N   0  0  0  0  0  0  0  0  0  0  0  0
    0.2615   -0.1008   -1.1826 C   0  0  0  0  0  0  0  0  0  0  0  0
    0.6837    0.7836   -2.1986 C   0  0  0  0  0  0  0  0  0  0  0  0
    1.9304    0.6361   -2.8177 C   0  0  0  0  0  0  0  0  0  0  0  0
    2.7752   -0.4045   -2.4304 C   0  0  0  0  0  0  0  0  0  0  0  0
    4.3630   -0.5923   -3.2167 S   0  0  0  0  0  6  0  0  0  0  0  0
    4.7649   -1.9730   -3.0619 O   0  0  0  0  0  0  0  0  0  0  0  0
    4.2709    0.0232   -4.5232 O   0  0  0  0  0  0  0  0  0  0  0  0
    5.3622    0.4028   -2.2925 N   0  0  0  0  0  0  0  0  0  0  0  0
    5.3917    0.2506   -0.8791 C   0  0  0  0  0  0  0  0  0  0  0  0
    5.8299   -0.9362   -0.2928 C   0  0  0  0  0  0  0  0  0  0  0  0
    5.7916   -1.0830    1.0944 C   0  0  0  0  0  0  0  0  0  0  0  0
    5.3191   -0.0427    1.8937 C   0  0  0  0  0  0  0  0  0  0  0  0
    4.8902    1.1480    1.3081 C   0  0  0  0  0  0  0  0  0  0  0  0
    4.9271    1.2964   -0.0792 C   0  0  0  0  0  0  0  0  0  0  0  0
    2.3643   -1.3304   -1.4702 C   0  0  0  0  0  0  0  0  0  0  0  0
    1.1108   -1.1699   -0.8568 C   0  0  0  0  0  0  0  0  0  0  0  0
    0.7040   -2.2471    0.0201 N   0  0  0  0  0  4  0  0  0  0  0  0
    1.3647   -2.4071    1.0533 O   0  0  0  0  0  0  0  0  0  0  0  0
   -0.2661   -2.9261   -0.3374 O   0  0  0  0  0  1  0  0  0  0  0  0
   -1.4683   -0.2488    0.6724 C   0  0  0  0  0  0  0  0  0  0  0  0
   -5.0676    0.2345    1.8887 C   0  0  0  0  0  0  0  0  0  0  0  0
   -5.7736   -0.0697    0.7188 C   0  0  0  0  0  0  0  0  0  0  0  0
   -7.1499    0.1351    0.6769 C   0  0  0  0  0  0  0  0  0  0  0  0
   -7.8185   -0.1492   -0.4477 F   0  0  0  0  0  0  0  0  0  0  0  0
   -7.8430    0.6252    1.7780 C   0  0  0  0  0  0  0  0  0  0  0  0
   -7.1518    0.9008    2.9559 C   0  0  0  0  0  0  0  0  0  0  0  0
   -5.7744    0.6903    3.0143 C   0  0  0  0  0  0  0  0  0  0  0  0
   -5.1751    0.9509    4.2174 O   0  0  0  0  0  0  0  0  0  0  0  0
   -3.7616    1.6788   -0.5945 H   0  0  0  0  0  0  0  0  0  0  0  0
    0.0544    1.6186   -2.5107 H   0  0  0  0  0  0  0  0  0  0  0  0
    2.2285    1.3382   -3.5950 H   0  0  0  0  0  0  0  0  0  0  0  0
    5.4397    1.3431   -2.6764 H   0  0  0  0  0  0  0  0  0  0  0  0
    6.2086   -1.7521   -0.9041 H   0  0  0  0  0  0  0  0  0  0  0  0
    6.1312   -2.0095    1.5514 H   0  0  0  0  0  0  0  0  0  0  0  0
    5.2891   -0.1600    2.9746 H   0  0  0  0  0  0  0  0  0  0  0  0
    4.5265    1.9590    1.9344 H   0  0  0  0  0  0  0  0  0  0  0  0
    4.5821    2.2267   -0.5210 H   0  0  0  0  0  0  0  0  0  0  0  0
    3.0045   -2.1730   -1.2096 H   0  0  0  0  0  0  0  0  0  0  0  0
   -0.8956   -0.8494    1.3633 H   0  0  0  0  0  0  0  0  0  0  0  0
   -5.2894   -0.4837   -0.1599 H   0  0  0  0  0  0  0  0  0  0  0  0
   -8.9167    0.7754    1.7173 H   0  0  0  0  0  0  0  0  0  0  0  0
   -7.6834    1.2658    3.8312 H   0  0  0  0  0  0  0  0  0  0  0  0
   -4.2849    0.5329    4.2187 H   0  0  0  0  0  0  0  0  0  0  0  0
  1  2  2  0
  2  3  1  0
  3  4  1  0
  4  5  2  0
  5  6  1  0
  6  7  1  0
  7  8  2  0
  8  9  1  0
  9 10  2  0
 10 11  1  0
 11 12  2  0
 11 13  2  0
 11 14  1  0
 14 15  1  0
 15 16  2  0
 16 17  1  0
 17 18  2  0
 18 19  1  0
 19 20  2  0
 10 21  1  0
 21 22  2  0
 22 23  1  0
 23 24  2  0
 23 25  1  0
  6 26  1  0
  2 27  1  0
 27 28  2  0
 28 29  1  0
 29 30  1  0
 29 31  2  0
 31 32  1  0
 32 33  2  0
 33 34  1  0
 26  3  2  0
 33 27  1  0
 22  7  1  0
 20 15  1  0
  4 35  1  0
  8 36  1  0
  9 37  1  0
 14 38  1  0
 16 39  1  0
 17 40  1  0
 18 41  1  0
 19 42  1  0
 20 43  1  0
 21 44  1  0
 26 45  1  0
 28 46  1  0
 31 47  1  0
 32 48  1  0
 34 49  1  0
M  CHG  2  23   1  25  -1
M  END
$$$$
