
     RDKit          3D

 68 71  0  0  0  0  0  0  0  0999 V2000
   -5.6003   -4.5491    1.6896 C   0  0  0  0  0  0  0  0  0  0  0  0
   -4.5184   -3.5240    1.5238 C   0  0  0  0  0  0  0  0  0  0  0  0
   -4.6861   -2.4483    0.6464 C   0  0  0  0  0  0  0  0  0  0  0  0
   -3.6634   -1.5121    0.4616 C   0  0  0  0  0  0  0  0  0  0  0  0
   -2.4499   -1.6283    1.1540 C   0  0  0  0  0  0  0  0  0  0  0  0
   -1.2808   -0.6619    0.9791 C   0  0  0  0  0  0  0  0  0  0  0  0
   -1.6348    0.7639    0.4473 C   0  0  0  0  0  0  0  0  0  0  0  0
   -2.6986    1.3345    0.6841 O   0  0  0  0  0  0  0  0  0  0  0  0
   -0.6254    1.3944   -0.2693 N   0  0  0  0  0  0  0  0  0  0  0  0
   -0.8253    2.7052   -0.8485 C   0  0  0  0  0  0  0  0  0  0  0  0
    0.4518    3.2930   -1.4347 C   0  0  0  0  0  0  0  0  0  0  0  0
   -0.0618    4.3911   -2.3504 C   0  0  0  0  0  0  0  0  0  0  0  0
   -1.3329    3.8177   -2.9663 C   0  0  0  0  0  0  0  0  0  0  0  0
   -1.7717    2.6714   -2.0540 C   0  0  0  0  0  0  0  0  0  0  0  0
   -0.1910   -1.2863    0.1869 N   0  0  0  0  0  0  0  0  0  0  0  0
   -0.4677   -1.5671   -1.2281 C   0  0  0  0  0  0  0  0  0  0  0  0
   -0.5427   -3.0299   -1.4899 C   0  0  0  0  0  0  0  0  0  0  0  0
   -1.5863   -3.9349   -1.5236 C   0  0  0  0  0  0  0  0  0  0  0  0
   -1.0259   -5.1828   -1.8828 C   0  0  0  0  0  0  0  0  0  0  0  0
    0.3223   -4.9637   -2.0480 C   0  0  0  0  0  0  0  0  0  0  0  0
    0.6238   -3.6599   -1.8231 O   0  0  0  0  0  0  0  0  0  0  0  0
    1.0466   -1.4148    0.7937 C   0  0  0  0  0  0  0  0  0  0  0  0
    1.2020   -1.2084    2.0006 O   0  0  0  0  0  0  0  0  0  0  0  0
    2.2473   -1.8139   -0.0514 C   0  0  0  0  0  0  0  0  0  0  0  0
    3.5255   -1.2056    0.5203 C   0  0  0  0  0  0  0  0  0  0  0  0
    3.4678    0.3163    0.5183 C   0  0  0  0  0  0  0  0  0  0  0  0
    2.5485    0.9379   -0.0120 O   0  0  0  0  0  0  0  0  0  0  0  0
    4.5610    0.8646    1.1502 N   0  0  0  0  0  0  0  0  0  0  0  0
    4.7783    2.2092    1.3522 C   0  0  0  0  0  0  0  0  0  0  0  0
    3.9758    3.3109    0.9921 C   0  0  0  0  0  0  0  0  0  0  0  0
    4.6544    4.4063    1.4610 C   0  0  0  0  0  0  0  0  0  0  0  0
    4.3966    5.8572    1.4557 C   0  0  0  0  0  0  0  0  0  0  0  0
    5.8134    3.9937    2.0382 O   0  0  0  0  0  0  0  0  0  0  0  0
    5.8890    2.6145    1.9777 N   0  0  0  0  0  0  0  0  0  0  0  0
   -2.2849   -2.7223    2.0228 C   0  0  0  0  0  0  0  0  0  0  0  0
   -3.3039   -3.6607    2.2022 C   0  0  0  0  0  0  0  0  0  0  0  0
   -5.5858   -4.9669    2.7017 H   0  0  0  0  0  0  0  0  0  0  0  0
   -5.4603   -5.3615    0.9691 H   0  0  0  0  0  0  0  0  0  0  0  0
   -6.5895   -4.1056    1.5342 H   0  0  0  0  0  0  0  0  0  0  0  0
   -5.6186   -2.3265    0.0989 H   0  0  0  0  0  0  0  0  0  0  0  0
   -3.8410   -0.6909   -0.2291 H   0  0  0  0  0  0  0  0  0  0  0  0
   -0.9202   -0.4468    1.9942 H   0  0  0  0  0  0  0  0  0  0  0  0
    0.3307    1.0692   -0.1268 H   0  0  0  0  0  0  0  0  0  0  0  0
   -1.2309    3.3745   -0.0788 H   0  0  0  0  0  0  0  0  0  0  0  0
    1.0045    2.5428   -2.0134 H   0  0  0  0  0  0  0  0  0  0  0  0
    1.1180    3.6841   -0.6622 H   0  0  0  0  0  0  0  0  0  0  0  0
    0.6740    4.6789   -3.1083 H   0  0  0  0  0  0  0  0  0  0  0  0
   -0.3069    5.2851   -1.7637 H   0  0  0  0  0  0  0  0  0  0  0  0
   -1.1375    3.4377   -3.9754 H   0  0  0  0  0  0  0  0  0  0  0  0
   -2.1090    4.5857   -3.0504 H   0  0  0  0  0  0  0  0  0  0  0  0
   -2.8189    2.7736   -1.7508 H   0  0  0  0  0  0  0  0  0  0  0  0
   -1.6847    1.7203   -2.5956 H   0  0  0  0  0  0  0  0  0  0  0  0
    0.3007   -1.1013   -1.8519 H   0  0  0  0  0  0  0  0  0  0  0  0
   -1.4153   -1.1022   -1.5194 H   0  0  0  0  0  0  0  0  0  0  0  0
   -2.6266   -3.7187   -1.3173 H   0  0  0  0  0  0  0  0  0  0  0  0
   -1.5400   -6.1255   -2.0049 H   0  0  0  0  0  0  0  0  0  0  0  0
    1.1571   -5.5973   -2.3156 H   0  0  0  0  0  0  0  0  0  0  0  0
    2.1455   -1.4866   -1.0871 H   0  0  0  0  0  0  0  0  0  0  0  0
    2.3281   -2.9059   -0.0310 H   0  0  0  0  0  0  0  0  0  0  0  0
    4.3812   -1.5184   -0.0888 H   0  0  0  0  0  0  0  0  0  0  0  0
    3.6935   -1.5539    1.5457 H   0  0  0  0  0  0  0  0  0  0  0  0
    5.2752    0.2733    1.5524 H   0  0  0  0  0  0  0  0  0  0  0  0
    3.0276    3.3093    0.4818 H   0  0  0  0  0  0  0  0  0  0  0  0
    3.3229    6.0600    1.3844 H   0  0  0  0  0  0  0  0  0  0  0  0
    4.8935    6.3308    0.6031 H   0  0  0  0  0  0  0  0  0  0  0  0
    4.7675    6.3237    2.3738 H   0  0  0  0  0  0  0  0  0  0  0  0
   -1.3463   -2.8502    2.5614 H   0  0  0  0  0  0  0  0  0  0  0  0
   -3.1408   -4.4985    2.8769 H   0  0  0  0  0  0  0  0  0  0  0  0
  1  2  1  0
  2  3  2  0
  3  4  1  0
  4  5  2  0
  5  6  1  0
  6  7  1  0
  7  8  2  0
  7  9  1  0
  9 10  1  0
 10 11  1  0
 11 12  1  0
 12 13  1  0
 13 14  1  0
  6 15  1  0
 15 16  1  0
 16 17  1  0
 17 18  2  0
 18 19  1  0
 19 20  2  0
 20 21  1  0
 15 22  1  0
 22 23  2  0
 22 24  1  0
 24 25  1  0
 25 26  1  0
 26 27  2  0
 26 28  1  0
 28 29  1  0
 29 30  1  0
 30 31  2  0
 31 32  1  0
 31 33  1  0
 33 34  1  0
  5 35  1  0
 35 36  2  0
 36  2  1  0
 14 10  1  0
 21 17  1  0
 34 29  2  0
  1 37  1  0
  1 38  1  0
  1 39  1  0
  3 40  1  0
  4 41  1  0
  6 42  1  0
  9 43  1  0
 10 44  1  0
 11 45  1  0
 11 46  1  0
 12 47  1  0
 12 48  1  0
 13 49  1  0
 13 50  1  0
 14 51  1  0
 14 52  1  0
 16 53  1  0
 16 54  1  0
 18 55  1  0
 19 56  1  0
 20 57  1  0
 24 58  1  0
 24 59  1  0
 25 60  1  0
 25 61  1  0
 28 62  1  0
 30 63  1  0
 32 64  1  0
 32 65  1  0
 32 66  1  0
 35 67  1  0
 36 68  1  0
M  END
$$$$
