
     RDKit          3D

 51 55  0  0  0  0  0  0  0  0999 V2000
    4.8942   -0.3435   -2.5555 C   0  0  0  0  0  0  0  0  0  0  0  0
    3.9928   -0.7156   -3.7201 C   0  0  0  0  0  0  0  0  0  0  0  0
    2.8942   -1.5107   -3.2777 O   0  0  0  0  0  0  0  0  0  0  0  0
    1.7531   -0.8906   -2.8542 C   0  0  0  0  0  0  0  0  0  0  0  0
    0.7074   -1.7655   -2.5371 C   0  0  0  0  0  0  0  0  0  0  0  0
   -0.5192   -1.2807   -2.0805 C   0  0  0  0  0  0  0  0  0  0  0  0
   -0.6913    0.0950   -1.9229 C   0  0  0  0  0  0  0  0  0  0  0  0
   -2.2434    0.7352   -1.3278 S   0  0  0  0  0  6  0  0  0  0  0  0
   -2.4123    2.0496   -1.9120 O   0  0  0  0  0  0  0  0  0  0  0  0
   -3.2448   -0.2870   -1.5593 O   0  0  0  0  0  0  0  0  0  0  0  0
   -1.9484    0.8773    0.3377 N   0  0  0  0  0  0  0  0  0  0  0  0
   -2.5510    1.9515    1.0467 C   0  0  0  0  0  0  0  0  0  0  0  0
   -3.4537    1.7870    1.8613 O   0  0  0  0  0  0  0  0  0  0  0  0
   -1.9300    3.2409    0.8069 C   0  0  0  0  0  0  0  0  0  0  0  0
   -2.3251    4.5137    1.1787 C   0  0  0  0  0  0  0  0  0  0  0  0
   -1.3319    5.4059    0.7096 C   0  0  0  0  0  0  0  0  0  0  0  0
   -0.3810    4.6288    0.0934 C   0  0  0  0  0  0  0  0  0  0  0  0
   -0.7236    3.3168    0.1557 O   0  0  0  0  0  0  0  0  0  0  0  0
   -1.8483   -0.3587    1.0831 C   0  0  0  0  0  0  0  0  0  0  0  0
   -2.9907   -1.1454    1.2989 C   0  0  0  0  0  0  0  0  0  0  0  0
   -2.8677   -2.3223    2.0106 C   0  0  0  0  0  0  0  0  0  0  0  0
   -4.1260   -3.4763    2.4056 S   0  0  0  0  0  0  0  0  0  0  0  0
   -2.9097   -4.4500    3.2362 C   0  0  0  0  0  0  0  0  0  0  0  0
   -3.1904   -5.5063    3.7861 O   0  0  0  0  0  0  0  0  0  0  0  0
   -1.6160   -3.9360    3.2202 O   0  0  0  0  0  0  0  0  0  0  0  0
   -1.6378   -2.7260    2.5152 C   0  0  0  0  0  0  0  0  0  0  0  0
   -0.4761   -1.9633    2.3360 C   0  0  0  0  0  0  0  0  0  0  0  0
    0.7715   -2.3699    2.8506 C   0  0  0  0  0  0  0  0  0  0  0  0
    1.9133   -1.5936    2.6638 C   0  0  0  0  0  0  0  0  0  0  0  0
    1.8265   -0.3977    1.9652 C   0  0  0  0  0  0  0  0  0  0  0  0
    0.5982    0.0214    1.4503 C   0  0  0  0  0  0  0  0  0  0  0  0
   -0.5786   -0.7465    1.6126 C   0  0  0  0  0  0  0  0  0  0  0  0
    0.3362    0.9817   -2.2546 C   0  0  0  0  0  0  0  0  0  0  0  0
    1.5605    0.4850   -2.7137 C   0  0  0  0  0  0  0  0  0  0  0  0
    4.3688    0.2773   -1.8237 H   0  0  0  0  0  0  0  0  0  0  0  0
    5.7740    0.2029   -2.9073 H   0  0  0  0  0  0  0  0  0  0  0  0
    5.2271   -1.2428   -2.0266 H   0  0  0  0  0  0  0  0  0  0  0  0
    4.5666   -1.3407   -4.4138 H   0  0  0  0  0  0  0  0  0  0  0  0
    3.6733    0.1577   -4.2991 H   0  0  0  0  0  0  0  0  0  0  0  0
    0.8527   -2.8378   -2.6513 H   0  0  0  0  0  0  0  0  0  0  0  0
   -1.3195   -1.9791   -1.8477 H   0  0  0  0  0  0  0  0  0  0  0  0
   -3.2297    4.7578    1.7201 H   0  0  0  0  0  0  0  0  0  0  0  0
   -1.3109    6.4824    0.8091 H   0  0  0  0  0  0  0  0  0  0  0  0
    0.5504    4.8472   -0.4106 H   0  0  0  0  0  0  0  0  0  0  0  0
   -3.9618   -0.8385    0.9178 H   0  0  0  0  0  0  0  0  0  0  0  0
    0.8629   -3.3028    3.4051 H   0  0  0  0  0  0  0  0  0  0  0  0
    2.8680   -1.9239    3.0657 H   0  0  0  0  0  0  0  0  0  0  0  0
    2.7141    0.2127    1.8171 H   0  0  0  0  0  0  0  0  0  0  0  0
    0.5753    0.9664    0.9115 H   0  0  0  0  0  0  0  0  0  0  0  0
    0.1962    2.0560   -2.1542 H   0  0  0  0  0  0  0  0  0  0  0  0
    2.3414    1.2007   -2.9471 H   0  0  0  0  0  0  0  0  0  0  0  0
  1  2  1  0
  2  3  1  0
  3  4  1  0
  4  5  2  0
  5  6  1  0
  6  7  2  0
  7  8  1  0
  8  9  2  0
  8 10  2  0
  8 11  1  0
 11 12  1  0
 12 13  2  0
 12 14  1  0
 14 15  2  0
 15 16  1  0
 16 17  2  0
 17 18  1  0
 11 19  1  0
 19 20  2  0
 20 21  1  0
 21 22  1  0
 22 23  1  0
 23 24  2  0
 23 25  1  0
 25 26  1  0
 26 27  1  0
 27 28  2  0
 28 29  1  0
 29 30  2  0
 30 31  1  0
 31 32  2  0
  7 33  1  0
 33 34  2  0
 34  4  1  0
 18 14  1  0
 32 19  1  0
 26 21  2  0
 32 27  1  0
  1 35  1  0
  1 36  1  0
  1 37  1  0
  2 38  1  0
  2 39  1  0
  5 40  1  0
  6 41  1  0
 15 42  1  0
 16 43  1  0
 17 44  1  0
 20 45  1  0
 28 46  1  0
 29 47  1  0
 30 48  1  0
 31 49  1  0
 33 50  1  0
 34 51  1  0
M  END
$$$$
