
     RDKit          3D

 46 49  0  0  0  0  0  0  0  0999 V2000
    2.5705    0.4154   -2.7528 O   0  0  0  0  0  0  0  0  0  0  0  0
    2.6943    0.8491   -1.6100 C   0  0  0  0  0  0  0  0  0  0  0  0
    1.4955    1.1128   -0.7059 C   0  0  0  0  0  0  0  0  0  0  0  0
    0.3297   -0.2766   -0.7654 S   0  0  0  0  0  0  0  0  0  0  0  0
   -0.8720    0.2909    0.3382 C   0  0  0  0  0  0  0  0  0  0  0  0
   -0.8170    1.4141    1.0147 N   0  0  0  0  0  0  0  0  0  0  0  0
   -1.9593    1.5065    1.7659 N   0  0  0  0  0  0  0  0  0  0  0  0
   -2.7031    0.4429    1.5206 C   0  0  0  0  0  0  0  0  0  0  0  0
   -4.0383    0.1676    2.1296 C   0  0  0  0  0  0  0  0  0  0  0  0
   -5.1642    0.7667    1.3325 C   0  0  0  0  0  0  0  0  0  0  0  0
   -5.4687    2.1068    1.1709 C   0  0  0  0  0  0  0  0  0  0  0  0
   -6.6205    2.3074    0.3573 C   0  0  0  0  0  0  0  0  0  0  0  0
   -7.1620    1.1164   -0.0722 C   0  0  0  0  0  0  0  0  0  0  0  0
   -6.2858   -0.2332    0.5071 S   0  0  0  0  0  0  0  0  0  0  0  0
   -2.0369   -0.3681    0.6238 N   0  0  0  0  0  0  0  0  0  0  0  0
   -2.4910   -1.6383    0.0877 C   0  0  0  0  0  0  0  0  0  0  0  0
   -2.0586   -2.7605    0.9579 C   0  0  0  0  0  0  0  0  0  0  0  0
   -2.6687   -3.4827    1.9644 C   0  0  0  0  0  0  0  0  0  0  0  0
   -1.7073   -4.4118    2.4287 C   0  0  0  0  0  0  0  0  0  0  0  0
   -0.5816   -4.2139    1.6662 C   0  0  0  0  0  0  0  0  0  0  0  0
   -0.7881   -3.2193    0.7676 O   0  0  0  0  0  0  0  0  0  0  0  0
    3.8984    1.1909   -1.0093 N   0  0  0  0  0  0  0  0  0  0  0  0
    5.2022    1.1022   -1.5556 C   0  0  0  0  0  0  0  0  0  0  0  0
    5.4700    0.6001   -2.8316 C   0  0  0  0  0  0  0  0  0  0  0  0
    6.7825    0.5534   -3.3174 C   0  0  0  0  0  0  0  0  0  0  0  0
    7.8359    1.0083   -2.5311 C   0  0  0  0  0  0  0  0  0  0  0  0
    9.4434    0.9604   -3.1423 Cl  0  0  0  0  0  0  0  0  0  0  0  0
    7.5965    1.5044   -1.2547 C   0  0  0  0  0  0  0  0  0  0  0  0
    6.2862    1.5478   -0.7725 C   0  0  0  0  0  0  0  0  0  0  0  0
    6.0280    2.1827    0.8181 Cl  0  0  0  0  0  0  0  0  0  0  0  0
    1.0112    2.0311   -1.0541 H   0  0  0  0  0  0  0  0  0  0  0  0
    1.8217    1.2544    0.3293 H   0  0  0  0  0  0  0  0  0  0  0  0
   -4.1861   -0.9062    2.2769 H   0  0  0  0  0  0  0  0  0  0  0  0
   -4.0566    0.6094    3.1348 H   0  0  0  0  0  0  0  0  0  0  0  0
   -4.8843    2.9052    1.6145 H   0  0  0  0  0  0  0  0  0  0  0  0
   -7.0307    3.2788    0.1055 H   0  0  0  0  0  0  0  0  0  0  0  0
   -8.0334    0.9720   -0.6959 H   0  0  0  0  0  0  0  0  0  0  0  0
   -2.1106   -1.7546   -0.9311 H   0  0  0  0  0  0  0  0  0  0  0  0
   -3.5810   -1.6082    0.0082 H   0  0  0  0  0  0  0  0  0  0  0  0
   -3.6779   -3.3528    2.3307 H   0  0  0  0  0  0  0  0  0  0  0  0
   -1.8150   -5.1351    3.2249 H   0  0  0  0  0  0  0  0  0  0  0  0
    0.3992   -4.6696    1.6427 H   0  0  0  0  0  0  0  0  0  0  0  0
    3.8648    1.5666   -0.0644 H   0  0  0  0  0  0  0  0  0  0  0  0
    4.6811    0.2348   -3.4817 H   0  0  0  0  0  0  0  0  0  0  0  0
    6.9668    0.1652   -4.3155 H   0  0  0  0  0  0  0  0  0  0  0  0
    8.4204    1.8667   -0.6456 H   0  0  0  0  0  0  0  0  0  0  0  0
  1  2  2  0
  2  3  1  0
  3  4  1  0
  4  5  1  0
  5  6  2  0
  6  7  1  0
  7  8  2  0
  8  9  1  0
  9 10  1  0
 10 11  2  0
 11 12  1  0
 12 13  2  0
 13 14  1  0
  8 15  1  0
 15 16  1  0
 16 17  1  0
 17 18  2  0
 18 19  1  0
 19 20  2  0
 20 21  1  0
  2 22  1  0
 22 23  1  0
 23 24  2  0
 24 25  1  0
 25 26  2  0
 26 27  1  0
 26 28  1  0
 28 29  2  0
 29 30  1  0
 15  5  1  0
 21 17  1  0
 29 23  1  0
 14 10  1  0
  3 31  1  0
  3 32  1  0
  9 33  1  0
  9 34  1  0
 11 35  1  0
 12 36  1  0
 13 37  1  0
 16 38  1  0
 16 39  1  0
 18 40  1  0
 19 41  1  0
 20 42  1  0
 22 43  1  0
 24 44  1  0
 25 45  1  0
 28 46  1  0
M  END
$$$$
