
     RDKit          3D

 42 44  0  0  0  0  0  0  0  0999 V2000
   -2.1108    3.8388   -0.2990 C   0  0  0  0  0  0  0  0  0  0  0  0
   -2.1451    3.1286    1.0412 C   0  0  0  0  0  0  0  0  0  0  0  0
   -2.4002    1.7299    0.8532 O   0  0  0  0  0  0  0  0  0  0  0  0
   -1.3054    0.9485    0.6191 C   0  0  0  0  0  0  0  0  0  0  0  0
   -0.1567    1.3743    0.5635 O   0  0  0  0  0  0  0  0  0  0  0  0
   -1.6461   -0.4605    0.4394 C   0  0  0  0  0  0  0  0  0  0  0  0
   -0.6935   -1.4593    0.2146 C   0  0  0  0  0  0  0  0  0  0  0  0
    0.6757   -1.2820    0.1230 N   0  0  0  0  0  0  0  0  0  0  0  0
    1.6532   -2.2331   -0.0991 C   0  0  0  0  0  0  0  0  0  0  0  0
    1.5063   -3.4389   -0.2604 O   0  0  0  0  0  0  0  0  0  0  0  0
    2.9981   -1.6247   -0.1289 C   0  0  0  0  0  0  0  0  0  0  0  0
    4.2353   -2.2886   -0.3354 C   0  0  0  0  0  0  0  0  0  0  0  0
    5.1930   -1.3051   -0.2774 C   0  0  0  0  0  0  0  0  0  0  0  0
    4.5205   -0.1414   -0.0511 N   0  0  0  0  0  0  0  0  0  0  0  0
    5.0996    1.1808    0.0915 C   0  0  0  0  0  0  0  0  0  0  0  0
    5.0253    1.9803   -1.1969 C   0  0  0  0  0  0  0  0  0  0  0  0
    3.1873   -0.3000    0.0483 N   0  0  0  0  0  0  0  0  0  0  0  0
   -1.3908   -3.0197    0.0549 S   0  0  0  0  0  0  0  0  0  0  0  0
   -2.9193   -2.3966    0.2708 C   0  0  0  0  0  0  0  0  0  0  0  0
   -2.9467   -1.0444    0.4601 C   0  0  0  0  0  0  0  0  0  0  0  0
   -4.3430   -0.5675    0.6444 C   0  0  0  0  0  0  0  0  0  0  0  0
   -5.1833   -1.8036    0.1936 C   0  0  0  0  0  0  0  0  0  0  0  0
   -4.2490   -3.0463    0.2968 C   0  0  0  0  0  0  0  0  0  0  0  0
   -1.9770    4.9157   -0.1639 H   0  0  0  0  0  0  0  0  0  0  0  0
   -1.2951    3.4610   -0.9235 H   0  0  0  0  0  0  0  0  0  0  0  0
   -3.0407    3.6644   -0.8501 H   0  0  0  0  0  0  0  0  0  0  0  0
   -1.2221    3.2944    1.6085 H   0  0  0  0  0  0  0  0  0  0  0  0
   -2.9678    3.5246    1.6455 H   0  0  0  0  0  0  0  0  0  0  0  0
    1.0321   -0.3282    0.2272 H   0  0  0  0  0  0  0  0  0  0  0  0
    4.3863   -3.3462   -0.5032 H   0  0  0  0  0  0  0  0  0  0  0  0
    6.2687   -1.3384   -0.3788 H   0  0  0  0  0  0  0  0  0  0  0  0
    4.5635    1.6913    0.8992 H   0  0  0  0  0  0  0  0  0  0  0  0
    6.1417    1.0571    0.4056 H   0  0  0  0  0  0  0  0  0  0  0  0
    3.9872    2.1216   -1.5156 H   0  0  0  0  0  0  0  0  0  0  0  0
    5.5567    1.4709   -2.0078 H   0  0  0  0  0  0  0  0  0  0  0  0
    5.4771    2.9673   -1.0584 H   0  0  0  0  0  0  0  0  0  0  0  0
   -4.5333   -0.3389    1.6982 H   0  0  0  0  0  0  0  0  0  0  0  0
   -4.5800    0.3069    0.0322 H   0  0  0  0  0  0  0  0  0  0  0  0
   -5.4814   -1.6678   -0.8546 H   0  0  0  0  0  0  0  0  0  0  0  0
   -6.0987   -1.9206    0.7820 H   0  0  0  0  0  0  0  0  0  0  0  0
   -4.4126   -3.7356   -0.5359 H   0  0  0  0  0  0  0  0  0  0  0  0
   -4.4088   -3.5692    1.2453 H   0  0  0  0  0  0  0  0  0  0  0  0
  1  2  1  0
  2  3  1  0
  3  4  1  0
  4  5  2  0
  4  6  1  0
  6  7  2  0
  7  8  1  0
  8  9  1  0
  9 10  2  0
  9 11  1  0
 11 12  1  0
 12 13  2  0
 13 14  1  0
 14 15  1  0
 15 16  1  0
 14 17  1  0
  7 18  1  0
 18 19  1  0
 19 20  2  0
 20 21  1  0
 21 22  1  0
 22 23  1  0
 20  6  1  0
 17 11  2  0
 23 19  1  0
  1 24  1  0
  1 25  1  0
  1 26  1  0
  2 27  1  0
  2 28  1  0
  8 29  1  0
 12 30  1  0
 13 31  1  0
 15 32  1  0
 15 33  1  0
 16 34  1  0
 16 35  1  0
 16 36  1  0
 21 37  1  0
 21 38  1  0
 22 39  1  0
 22 40  1  0
 23 41  1  0
 23 42  1  0
M  END
$$$$
