
     RDKit          3D

 41 43  0  0  0  0  0  0  0  0999 V2000
    2.0519   -1.3228    0.5545 O   0  0  0  0  0  0  0  0  0  0  0  0
    1.1264   -0.5951    0.9053 C   0  0  0  0  0  0  0  0  0  0  0  0
    1.1140    0.0533    2.2825 C   0  0  0  0  0  0  0  0  0  0  0  0
    1.8957    1.6989    2.1911 S   0  0  0  0  0  0  0  0  0  0  0  0
    3.5897    1.1973    1.8636 C   0  0  0  0  0  0  0  0  0  0  0  0
    4.1924    1.6323    0.6706 C   0  0  0  0  0  0  0  0  0  0  0  0
    5.5034    1.2709    0.3684 C   0  0  0  0  0  0  0  0  0  0  0  0
    6.2255    0.4817    1.2530 C   0  0  0  0  0  0  0  0  0  0  0  0
    5.6270    0.0659    2.4394 C   0  0  0  0  0  0  0  0  0  0  0  0
    4.3220    0.4134    2.7673 N   0  0  0  0  0  4  0  0  0  0  0  0
    3.8421    0.0190    3.8831 O   0  0  0  0  0  1  0  0  0  0  0  0
    0.0330   -0.2392    0.1357 N   0  0  0  0  0  0  0  0  0  0  0  0
   -0.2748   -0.6452   -1.1813 C   0  0  0  0  0  0  0  0  0  0  0  0
    0.4849   -1.5568   -1.9156 C   0  0  0  0  0  0  0  0  0  0  0  0
    0.1096   -1.9028   -3.2193 C   0  0  0  0  0  0  0  0  0  0  0  0
   -1.0239   -1.3387   -3.8035 C   0  0  0  0  0  0  0  0  0  0  0  0
   -1.7939   -0.4294   -3.0833 C   0  0  0  0  0  0  0  0  0  0  0  0
   -1.4288   -0.1017   -1.7734 C   0  0  0  0  0  0  0  0  0  0  0  0
   -2.1588    0.8250   -1.0560 O   0  0  0  0  0  0  0  0  0  0  0  0
   -3.4817    0.5286   -0.8094 C   0  0  0  0  0  0  0  0  0  0  0  0
   -4.3667    1.6080   -0.8060 C   0  0  0  0  0  0  0  0  0  0  0  0
   -5.7189    1.4016   -0.5310 C   0  0  0  0  0  0  0  0  0  0  0  0
   -6.1837    0.1178   -0.2463 C   0  0  0  0  0  0  0  0  0  0  0  0
   -5.2966   -0.9588   -0.2300 C   0  0  0  0  0  0  0  0  0  0  0  0
   -3.9430   -0.7550   -0.5045 C   0  0  0  0  0  0  0  0  0  0  0  0
    0.0807    0.1789    2.6230 H   0  0  0  0  0  0  0  0  0  0  0  0
    1.6024   -0.6099    3.0002 H   0  0  0  0  0  0  0  0  0  0  0  0
    3.6338    2.2454   -0.0332 H   0  0  0  0  0  0  0  0  0  0  0  0
    5.9573    1.6030   -0.5631 H   0  0  0  0  0  0  0  0  0  0  0  0
    7.2472    0.1895    1.0267 H   0  0  0  0  0  0  0  0  0  0  0  0
    6.1060   -0.5430    3.1913 H   0  0  0  0  0  0  0  0  0  0  0  0
   -0.6164    0.4373    0.5268 H   0  0  0  0  0  0  0  0  0  0  0  0
    1.3766   -2.0194   -1.5046 H   0  0  0  0  0  0  0  0  0  0  0  0
    0.7122   -2.6140   -3.7799 H   0  0  0  0  0  0  0  0  0  0  0  0
   -1.3031   -1.6055   -4.8196 H   0  0  0  0  0  0  0  0  0  0  0  0
   -2.6705    0.0211   -3.5401 H   0  0  0  0  0  0  0  0  0  0  0  0
   -4.0048    2.6097   -1.0220 H   0  0  0  0  0  0  0  0  0  0  0  0
   -6.4090    2.2414   -0.5357 H   0  0  0  0  0  0  0  0  0  0  0  0
   -7.2371   -0.0433   -0.0306 H   0  0  0  0  0  0  0  0  0  0  0  0
   -5.6585   -1.9574    0.0020 H   0  0  0  0  0  0  0  0  0  0  0  0
   -3.2637   -1.6021   -0.4702 H   0  0  0  0  0  0  0  0  0  0  0  0
  1  2  2  0
  2  3  1  0
  3  4  1  0
  4  5  1  0
  5  6  2  0
  6  7  1  0
  7  8  2  0
  8  9  1  0
  9 10  2  0
 10 11  1  0
  2 12  1  0
 12 13  1  0
 13 14  2  0
 14 15  1  0
 15 16  2  0
 16 17  1  0
 17 18  2  0
 18 19  1  0
 19 20  1  0
 20 21  2  0
 21 22  1  0
 22 23  2  0
 23 24  1  0
 24 25  2  0
 10  5  1  0
 18 13  1  0
 25 20  1  0
  3 26  1  0
  3 27  1  0
  6 28  1  0
  7 29  1  0
  8 30  1  0
  9 31  1  0
 12 32  1  0
 14 33  1  0
 15 34  1  0
 16 35  1  0
 17 36  1  0
 21 37  1  0
 22 38  1  0
 23 39  1  0
 24 40  1  0
 25 41  1  0
M  CHG  2  10   1  11  -1
M  END
$$$$
