
     RDKit          3D

 43 45  0  0  0  0  0  0  0  0999 V2000
   -6.8067   -0.0109   -1.4030 C   0  0  0  0  0  0  0  0  0  0  0  0
   -6.0314    0.5017   -0.2744 N   0  0  0  0  0  0  0  0  0  0  0  0
   -6.8096    1.1227    0.7957 C   0  0  0  0  0  0  0  0  0  0  0  0
   -4.8080   -0.1044    0.0371 C   0  0  0  0  0  0  0  0  0  0  0  0
   -4.1312   -0.9338   -0.8763 C   0  0  0  0  0  0  0  0  0  0  0  0
   -2.8969   -1.5302   -0.5781 C   0  0  0  0  0  0  0  0  0  0  0  0
   -2.2883   -1.3059    0.6530 C   0  0  0  0  0  0  0  0  0  0  0  0
   -0.9929   -1.9106    0.9633 C   0  0  0  0  0  0  0  0  0  0  0  0
    0.2089   -1.3710    0.6989 C   0  0  0  0  0  0  0  0  0  0  0  0
    0.4427   -0.0899    0.0599 C   0  0  0  0  0  0  0  0  0  0  0  0
    1.6238    0.4834   -0.2221 C   0  0  0  0  0  0  0  0  0  0  0  0
    1.7188    2.0228   -0.9891 S   0  0  0  0  0  0  0  0  0  0  0  0
    3.4755    2.0892   -0.8777 C   0  0  0  0  0  0  0  0  0  0  0  0
    4.2697    3.5122   -1.2670 S   0  0  0  0  0  0  0  0  0  0  0  0
    3.9634    0.8896   -0.3726 N   0  0  0  0  0  0  0  0  0  0  0  0
    5.3574    0.5705   -0.2412 C   0  0  0  0  0  0  0  0  0  0  0  0
    6.2822    0.8897   -1.2473 C   0  0  0  0  0  0  0  0  0  0  0  0
    7.6371    0.5673   -1.1129 C   0  0  0  0  0  0  0  0  0  0  0  0
    8.0899   -0.0895    0.0265 C   0  0  0  0  0  0  0  0  0  0  0  0
    7.1874   -0.4318    1.0277 C   0  0  0  0  0  0  0  0  0  0  0  0
    5.8333   -0.1094    0.8920 C   0  0  0  0  0  0  0  0  0  0  0  0
    3.0000   -0.0388    0.0339 C   0  0  0  0  0  0  0  0  0  0  0  0
    3.2032   -1.1521    0.5038 O   0  0  0  0  0  0  0  0  0  0  0  0
   -2.9208   -0.4771    1.5745 C   0  0  0  0  0  0  0  0  0  0  0  0
   -4.1551    0.1136    1.2644 C   0  0  0  0  0  0  0  0  0  0  0  0
   -6.2667    0.1210   -2.3467 H   0  0  0  0  0  0  0  0  0  0  0  0
   -7.0538   -1.0692   -1.2636 H   0  0  0  0  0  0  0  0  0  0  0  0
   -7.7498    0.5352   -1.5189 H   0  0  0  0  0  0  0  0  0  0  0  0
   -7.0811    0.3887    1.5625 H   0  0  0  0  0  0  0  0  0  0  0  0
   -7.7390    1.5574    0.4105 H   0  0  0  0  0  0  0  0  0  0  0  0
   -6.2606    1.9512    1.2556 H   0  0  0  0  0  0  0  0  0  0  0  0
   -4.5452   -1.1376   -1.8588 H   0  0  0  0  0  0  0  0  0  0  0  0
   -2.4185   -2.1620   -1.3225 H   0  0  0  0  0  0  0  0  0  0  0  0
   -1.0475   -2.8823    1.4498 H   0  0  0  0  0  0  0  0  0  0  0  0
    1.0781   -1.9549    0.9949 H   0  0  0  0  0  0  0  0  0  0  0  0
   -0.4599    0.4579   -0.2139 H   0  0  0  0  0  0  0  0  0  0  0  0
    5.9693    1.3563   -2.1775 H   0  0  0  0  0  0  0  0  0  0  0  0
    8.3354    0.8224   -1.9063 H   0  0  0  0  0  0  0  0  0  0  0  0
    9.1421   -0.3416    0.1302 H   0  0  0  0  0  0  0  0  0  0  0  0
    7.5329   -0.9515    1.9181 H   0  0  0  0  0  0  0  0  0  0  0  0
    5.1640   -0.3827    1.7050 H   0  0  0  0  0  0  0  0  0  0  0  0
   -2.4620   -0.2737    2.5390 H   0  0  0  0  0  0  0  0  0  0  0  0
   -4.5896    0.7581    2.0223 H   0  0  0  0  0  0  0  0  0  0  0  0
  1  2  1  0
  2  3  1  0
  2  4  1  0
  4  5  2  0
  5  6  1  0
  6  7  2  0
  7  8  1  0
  8  9  2  3
  9 10  1  0
 10 11  2  3
 11 12  1  0
 12 13  1  0
 13 14  2  0
 13 15  1  0
 15 16  1  0
 16 17  2  0
 17 18  1  0
 18 19  2  0
 19 20  1  0
 20 21  2  0
 15 22  1  0
 22 23  2  0
  7 24  1  0
 24 25  2  0
 25  4  1  0
 22 11  1  0
 21 16  1  0
  1 26  1  0
  1 27  1  0
  1 28  1  0
  3 29  1  0
  3 30  1  0
  3 31  1  0
  5 32  1  0
  6 33  1  0
  8 34  1  0
  9 35  1  0
 10 36  1  0
 17 37  1  0
 18 38  1  0
 19 39  1  0
 20 40  1  0
 21 41  1  0
 24 42  1  0
 25 43  1  0
M  END
$$$$
