
     RDKit          3D

 34 35  0  0  0  0  0  0  0  0999 V2000
   -1.3726   -1.6096   -2.3039 C   0  0  0  0  0  0  0  0  0  0  0  0
   -0.0361   -1.4275   -1.7551 N   0  0  0  0  0  0  0  0  0  0  0  0
    0.1554   -0.6090   -0.7702 C   0  0  0  0  0  0  0  0  0  0  0  0
    1.5503   -0.4443   -0.2265 C   0  0  0  0  0  0  0  0  0  0  0  0
    2.5940   -1.1819   -0.8042 C   0  0  0  0  0  0  0  0  0  0  0  0
    3.9018   -1.0580   -0.3293 C   0  0  0  0  0  0  0  0  0  0  0  0
    4.1801   -0.1954    0.7283 C   0  0  0  0  0  0  0  0  0  0  0  0
    3.1523    0.5432    1.3112 C   0  0  0  0  0  0  0  0  0  0  0  0
    1.8425    0.4210    0.8377 C   0  0  0  0  0  0  0  0  0  0  0  0
   -0.9402    0.1844   -0.1418 C   0  0  0  0  0  0  0  0  0  0  0  0
   -1.6460   -0.3583    0.9524 C   0  0  0  0  0  0  0  0  0  0  0  0
   -1.3203   -1.7134    1.5170 C   0  0  0  0  0  0  0  0  0  0  0  0
   -2.6557    0.4113    1.5449 C   0  0  0  0  0  0  0  0  0  0  0  0
   -2.9589    1.6826    1.0575 C   0  0  0  0  0  0  0  0  0  0  0  0
   -2.2554    2.2084   -0.0263 C   0  0  0  0  0  0  0  0  0  0  0  0
   -1.2392    1.4682   -0.6445 C   0  0  0  0  0  0  0  0  0  0  0  0
   -0.4772    2.0713   -1.7920 C   0  0  0  0  0  0  0  0  0  0  0  0
   -2.0688   -2.0129   -1.5627 H   0  0  0  0  0  0  0  0  0  0  0  0
   -1.3193   -2.3361   -3.1211 H   0  0  0  0  0  0  0  0  0  0  0  0
   -1.7726   -0.6828   -2.7257 H   0  0  0  0  0  0  0  0  0  0  0  0
    2.3937   -1.8602   -1.6311 H   0  0  0  0  0  0  0  0  0  0  0  0
    4.7001   -1.6363   -0.7873 H   0  0  0  0  0  0  0  0  0  0  0  0
    5.1978   -0.0991    1.0978 H   0  0  0  0  0  0  0  0  0  0  0  0
    3.3693    1.2166    2.1367 H   0  0  0  0  0  0  0  0  0  0  0  0
    1.0684    1.0128    1.3174 H   0  0  0  0  0  0  0  0  0  0  0  0
   -1.3164   -2.4760    0.7328 H   0  0  0  0  0  0  0  0  0  0  0  0
   -2.0631   -2.0235    2.2600 H   0  0  0  0  0  0  0  0  0  0  0  0
   -0.3438   -1.6934    2.0106 H   0  0  0  0  0  0  0  0  0  0  0  0
   -3.2153    0.0256    2.3948 H   0  0  0  0  0  0  0  0  0  0  0  0
   -3.7461    2.2682    1.5267 H   0  0  0  0  0  0  0  0  0  0  0  0
   -2.5072    3.2045   -0.3846 H   0  0  0  0  0  0  0  0  0  0  0  0
   -0.4546    1.3926   -2.6495 H   0  0  0  0  0  0  0  0  0  0  0  0
    0.5468    2.3054   -1.4854 H   0  0  0  0  0  0  0  0  0  0  0  0
   -0.9438    3.0017   -2.1336 H   0  0  0  0  0  0  0  0  0  0  0  0
  1  2  1  0
  2  3  2  3
  3  4  1  0
  4  5  2  0
  5  6  1  0
  6  7  2  0
  7  8  1  0
  8  9  2  0
  3 10  1  0
 10 11  2  0
 11 12  1  0
 11 13  1  0
 13 14  2  0
 14 15  1  0
 15 16  2  0
 16 17  1  0
  9  4  1  0
 16 10  1  0
  1 18  1  0
  1 19  1  0
  1 20  1  0
  5 21  1  0
  6 22  1  0
  7 23  1  0
  8 24  1  0
  9 25  1  0
 12 26  1  0
 12 27  1  0
 12 28  1  0
 13 29  1  0
 14 30  1  0
 15 31  1  0
 17 32  1  0
 17 33  1  0
 17 34  1  0
M  END
$$$$
