
     RDKit          3D

 49 51  0  0  0  0  0  0  0  0999 V2000
    1.1114    1.6452   -1.1326 C   0  0  0  0  0  0  0  0  0  0  0  0
   -0.0354    1.2213   -0.2547 C   0  0  0  0  0  0  0  0  0  0  0  0
   -1.3350    1.6585   -0.5532 C   0  0  0  0  0  0  0  0  0  0  0  0
   -2.4020    1.2693    0.2583 C   0  0  0  0  0  0  0  0  0  0  0  0
   -4.0499    1.8184   -0.1060 S   0  0  0  0  0  6  0  0  0  0  0  0
   -4.0025    2.7128   -1.2433 O   0  0  0  0  0  0  0  0  0  0  0  0
   -4.6546    2.2283    1.1431 O   0  0  0  0  0  0  0  0  0  0  0  0
   -4.8177    0.3827   -0.6199 N   0  0  0  0  0  0  0  0  0  0  0  0
   -4.2064   -0.2749   -1.8234 C   0  0  0  0  0  0  0  0  0  0  0  0
   -5.2055   -1.2363   -2.4748 C   0  0  0  0  0  0  0  0  0  0  0  0
   -6.3758   -0.5746   -2.9730 O   0  0  0  0  0  0  0  0  0  0  0  0
   -6.7263    0.5979   -2.2229 C   0  0  0  0  0  0  0  0  0  0  0  0
   -6.3095    0.5145   -0.7521 C   0  0  0  0  0  0  0  0  0  0  0  0
   -2.1895    0.4624    1.3765 C   0  0  0  0  0  0  0  0  0  0  0  0
   -0.8972    0.0268    1.6791 C   0  0  0  0  0  0  0  0  0  0  0  0
    0.1823    0.4005    0.8705 C   0  0  0  0  0  0  0  0  0  0  0  0
    1.4829    0.0273    1.0813 O   0  0  0  0  0  0  0  0  0  0  0  0
    1.7669   -0.7665    2.2310 C   0  0  0  0  0  0  0  0  0  0  0  0
    3.2661   -1.0674    2.3295 C   0  0  0  0  0  0  0  0  0  0  0  0
    3.7044   -1.7817    3.2272 O   0  0  0  0  0  0  0  0  0  0  0  0
    4.0061   -0.4588    1.3356 N   0  0  0  0  0  0  0  0  0  0  0  0
    5.3958   -0.5106    1.1199 C   0  0  0  0  0  0  0  0  0  0  0  0
    6.2905   -1.2172    1.9237 C   0  0  0  0  0  0  0  0  0  0  0  0
    7.6597   -1.2083    1.6274 C   0  0  0  0  0  0  0  0  0  0  0  0
    8.1343   -0.4929    0.5276 C   0  0  0  0  0  0  0  0  0  0  0  0
    9.9834   -0.4885    0.1376 Br  0  0  0  0  0  0  0  0  0  0  0  0
    7.2561    0.2167   -0.2833 C   0  0  0  0  0  0  0  0  0  0  0  0
    5.8989    0.2002    0.0210 C   0  0  0  0  0  0  0  0  0  0  0  0
    5.0517    0.8857   -0.7643 F   0  0  0  0  0  0  0  0  0  0  0  0
    1.6171    0.7667   -1.5466 H   0  0  0  0  0  0  0  0  0  0  0  0
    0.7695    2.2570   -1.9740 H   0  0  0  0  0  0  0  0  0  0  0  0
    1.8283    2.2397   -0.5571 H   0  0  0  0  0  0  0  0  0  0  0  0
   -1.5101    2.3024   -1.4134 H   0  0  0  0  0  0  0  0  0  0  0  0
   -3.3207   -0.8349   -1.5076 H   0  0  0  0  0  0  0  0  0  0  0  0
   -3.9085    0.4818   -2.5573 H   0  0  0  0  0  0  0  0  0  0  0  0
   -5.5288   -2.0025   -1.7605 H   0  0  0  0  0  0  0  0  0  0  0  0
   -4.7374   -1.7529   -3.3188 H   0  0  0  0  0  0  0  0  0  0  0  0
   -6.2619    1.4618   -2.7118 H   0  0  0  0  0  0  0  0  0  0  0  0
   -7.8110    0.7216   -2.3012 H   0  0  0  0  0  0  0  0  0  0  0  0
   -6.7530   -0.3707   -0.2806 H   0  0  0  0  0  0  0  0  0  0  0  0
   -6.6842    1.3878   -0.2095 H   0  0  0  0  0  0  0  0  0  0  0  0
   -3.0236    0.1736    2.0134 H   0  0  0  0  0  0  0  0  0  0  0  0
   -0.7705   -0.6003    2.5562 H   0  0  0  0  0  0  0  0  0  0  0  0
    1.4866   -0.2281    3.1435 H   0  0  0  0  0  0  0  0  0  0  0  0
    1.2493   -1.7299    2.1607 H   0  0  0  0  0  0  0  0  0  0  0  0
    3.4703    0.0967    0.6697 H   0  0  0  0  0  0  0  0  0  0  0  0
    5.9578   -1.7846    2.7877 H   0  0  0  0  0  0  0  0  0  0  0  0
    8.3437   -1.7646    2.2645 H   0  0  0  0  0  0  0  0  0  0  0  0
    7.6041    0.7794   -1.1429 H   0  0  0  0  0  0  0  0  0  0  0  0
  1  2  1  0
  2  3  2  0
  3  4  1  0
  4  5  1  0
  5  6  2  0
  5  7  2  0
  5  8  1  0
  8  9  1  0
  9 10  1  0
 10 11  1  0
 11 12  1  0
 12 13  1  0
  4 14  2  0
 14 15  1  0
 15 16  2  0
 16 17  1  0
 17 18  1  0
 18 19  1  0
 19 20  2  0
 19 21  1  0
 21 22  1  0
 22 23  2  0
 23 24  1  0
 24 25  2  0
 25 26  1  0
 25 27  1  0
 27 28  2  0
 28 29  1  0
 16  2  1  0
 28 22  1  0
 13  8  1  0
  1 30  1  0
  1 31  1  0
  1 32  1  0
  3 33  1  0
  9 34  1  0
  9 35  1  0
 10 36  1  0
 10 37  1  0
 12 38  1  0
 12 39  1  0
 13 40  1  0
 13 41  1  0
 14 42  1  0
 15 43  1  0
 18 44  1  0
 18 45  1  0
 21 46  1  0
 23 47  1  0
 24 48  1  0
 27 49  1  0
M  END
$$$$
