
     RDKit          3D

 59 62  0  0  0  0  0  0  0  0999 V2000
    9.4091   -0.5309    3.6878 C   0  0  0  0  0  0  0  0  0  0  0  0
    8.0876   -0.2835    3.0232 C   0  0  0  0  0  0  0  0  0  0  0  0
    6.9228   -0.8759    3.5176 C   0  0  0  0  0  0  0  0  0  0  0  0
    5.6970   -0.6710    2.8773 C   0  0  0  0  0  0  0  0  0  0  0  0
    5.6110    0.1370    1.7311 C   0  0  0  0  0  0  0  0  0  0  0  0
    4.3370    0.3154    1.1072 N   0  0  0  0  0  0  0  0  0  0  0  0
    3.3351   -0.5534    1.4146 N   0  0  0  0  0  0  0  0  0  0  0  0
    2.3687   -0.2947    0.5309 C   0  0  0  0  0  0  0  0  0  0  0  0
    1.1105   -1.0162    0.3886 C   0  0  0  0  0  0  0  0  0  0  0  0
    0.7877   -1.9736    1.0907 O   0  0  0  0  0  0  0  0  0  0  0  0
    0.2991   -0.4937   -0.6408 N   0  0  0  0  0  0  0  0  0  0  0  0
   -1.0104   -1.0927   -0.8831 C   0  0  0  0  0  0  0  0  0  0  0  0
   -2.0826   -0.4623    0.0090 C   0  0  0  0  0  0  0  0  0  0  0  0
   -3.3917   -1.2480    0.0000 C   0  0  0  0  0  0  0  0  0  0  0  0
   -4.1534   -1.1554   -1.3086 C   0  0  0  0  0  0  0  0  0  0  0  0
   -3.7720   -0.5073   -2.2757 O   0  0  0  0  0  0  0  0  0  0  0  0
   -5.3203   -1.8886   -1.2946 N   0  0  0  0  0  0  0  0  0  0  0  0
   -6.2716   -1.8043   -2.3803 C   0  0  0  0  0  0  0  0  0  0  0  0
   -7.2573   -0.7458   -2.0557 C   0  0  0  0  0  0  0  0  0  0  0  0
   -7.3572    0.5880   -2.3925 C   0  0  0  0  0  0  0  0  0  0  0  0
   -8.5252    1.0752   -1.7585 C   0  0  0  0  0  0  0  0  0  0  0  0
   -9.0629    0.0105   -1.0669 C   0  0  0  0  0  0  0  0  0  0  0  0
  -10.2537   -0.1479   -0.2083 C   0  0  0  0  0  0  0  0  0  0  0  0
   -8.2937   -1.1009   -1.2414 O   0  0  0  0  0  0  0  0  0  0  0  0
    0.6047    0.6305   -1.4142 N   0  0  0  0  0  0  0  0  0  0  0  0
    1.7315    1.2675   -1.2615 C   0  0  0  0  0  0  0  0  0  0  0  0
    1.9988    2.4622   -2.1323 C   0  0  0  0  0  0  0  0  0  0  0  0
    2.6722    0.8141   -0.2663 C   0  0  0  0  0  0  0  0  0  0  0  0
    3.9020    1.2702    0.1792 C   0  0  0  0  0  0  0  0  0  0  0  0
    4.6327    2.5195   -0.1557 C   0  0  0  0  0  0  0  0  0  0  0  0
    6.7850    0.6963    1.2149 C   0  0  0  0  0  0  0  0  0  0  0  0
    8.0118    0.4872    1.8581 C   0  0  0  0  0  0  0  0  0  0  0  0
    9.8948   -1.4055    3.2422 H   0  0  0  0  0  0  0  0  0  0  0  0
    9.2809   -0.7062    4.7625 H   0  0  0  0  0  0  0  0  0  0  0  0
   10.0686    0.3375    3.5771 H   0  0  0  0  0  0  0  0  0  0  0  0
    6.9563   -1.5042    4.4056 H   0  0  0  0  0  0  0  0  0  0  0  0
    4.8093   -1.1447    3.2954 H   0  0  0  0  0  0  0  0  0  0  0  0
   -0.9416   -2.1690   -0.6867 H   0  0  0  0  0  0  0  0  0  0  0  0
   -1.2512   -0.9718   -1.9446 H   0  0  0  0  0  0  0  0  0  0  0  0
   -2.2542    0.5754   -0.3005 H   0  0  0  0  0  0  0  0  0  0  0  0
   -1.7178   -0.4208    1.0422 H   0  0  0  0  0  0  0  0  0  0  0  0
   -4.0446   -0.8512    0.7882 H   0  0  0  0  0  0  0  0  0  0  0  0
   -3.2012   -2.3055    0.2229 H   0  0  0  0  0  0  0  0  0  0  0  0
   -5.6872   -2.1919   -0.4019 H   0  0  0  0  0  0  0  0  0  0  0  0
   -6.7642   -2.7774   -2.4632 H   0  0  0  0  0  0  0  0  0  0  0  0
   -5.7617   -1.5902   -3.3244 H   0  0  0  0  0  0  0  0  0  0  0  0
   -6.6613    1.1364   -3.0136 H   0  0  0  0  0  0  0  0  0  0  0  0
   -8.9225    2.0809   -1.7955 H   0  0  0  0  0  0  0  0  0  0  0  0
   -9.9561   -0.3837    0.8185 H   0  0  0  0  0  0  0  0  0  0  0  0
  -10.8492    0.7707   -0.1876 H   0  0  0  0  0  0  0  0  0  0  0  0
  -10.8889   -0.9579   -0.5779 H   0  0  0  0  0  0  0  0  0  0  0  0
    1.2664    2.5135   -2.9435 H   0  0  0  0  0  0  0  0  0  0  0  0
    2.9981    2.3948   -2.5704 H   0  0  0  0  0  0  0  0  0  0  0  0
    1.9180    3.3738   -1.5339 H   0  0  0  0  0  0  0  0  0  0  0  0
    5.2347    2.8818    0.6829 H   0  0  0  0  0  0  0  0  0  0  0  0
    5.2725    2.3729   -1.0309 H   0  0  0  0  0  0  0  0  0  0  0  0
    3.9338    3.3298   -0.3826 H   0  0  0  0  0  0  0  0  0  0  0  0
    6.8024    1.2605    0.2907 H   0  0  0  0  0  0  0  0  0  0  0  0
    8.9140    0.9244    1.4358 H   0  0  0  0  0  0  0  0  0  0  0  0
  1  2  1  0
  2  3  2  0
  3  4  1  0
  4  5  2  0
  5  6  1  0
  6  7  1  0
  7  8  2  0
  8  9  1  0
  9 10  2  0
  9 11  1  0
 11 12  1  0
 12 13  1  0
 13 14  1  0
 14 15  1  0
 15 16  2  0
 15 17  1  0
 17 18  1  0
 18 19  1  0
 19 20  2  0
 20 21  1  0
 21 22  2  0
 22 23  1  0
 22 24  1  0
 11 25  1  0
 25 26  2  0
 26 27  1  0
 26 28  1  0
 28 29  2  0
 29 30  1  0
  5 31  1  0
 31 32  2  0
 32  2  1  0
 29  6  1  0
 28  8  1  0
 24 19  1  0
  1 33  1  0
  1 34  1  0
  1 35  1  0
  3 36  1  0
  4 37  1  0
 12 38  1  0
 12 39  1  0
 13 40  1  0
 13 41  1  0
 14 42  1  0
 14 43  1  0
 17 44  1  0
 18 45  1  0
 18 46  1  0
 20 47  1  0
 21 48  1  0
 23 49  1  0
 23 50  1  0
 23 51  1  0
 27 52  1  0
 27 53  1  0
 27 54  1  0
 30 55  1  0
 30 56  1  0
 30 57  1  0
 31 58  1  0
 32 59  1  0
M  END
$$$$
