
     RDKit          3D

 63 66  0  0  0  0  0  0  0  0999 V2000
   -6.0731   -1.9753    0.7044 C   0  0  0  0  0  0  0  0  0  0  0  0
   -4.6150   -1.7692    1.0018 C   0  0  0  0  0  0  0  0  0  0  0  0
   -3.8454   -2.9038    1.3083 C   0  0  0  0  0  0  0  0  0  0  0  0
   -2.4915   -2.8013    1.6509 C   0  0  0  0  0  0  0  0  0  0  0  0
   -1.8704   -1.5589    1.7171 C   0  0  0  0  0  0  0  0  0  0  0  0
   -0.5177   -1.3676    2.0703 N   0  0  0  0  0  0  0  0  0  0  0  0
    0.3951   -2.3382    2.4441 C   0  0  0  0  0  0  0  0  0  0  0  0
    0.1825   -3.5351    2.5905 O   0  0  0  0  0  0  0  0  0  0  0  0
    1.7706   -1.8339    2.7123 C   0  0  0  0  0  0  0  0  0  0  0  0
    2.5176   -2.4295    3.7383 C   0  0  0  0  0  0  0  0  0  0  0  0
    3.8101   -1.9816    4.0238 C   0  0  0  0  0  0  0  0  0  0  0  0
    4.3709   -0.9458    3.2770 C   0  0  0  0  0  0  0  0  0  0  0  0
    3.6339   -0.3772    2.2355 C   0  0  0  0  0  0  0  0  0  0  0  0
    4.3179    0.9470    1.2645 S   0  0  0  0  0  6  0  0  0  0  0  0
    3.2795    1.9546    1.1811 O   0  0  0  0  0  0  0  0  0  0  0  0
    5.6298    1.2547    1.7973 O   0  0  0  0  0  0  0  0  0  0  0  0
    4.5116    0.1992   -0.2685 N   0  0  0  0  0  0  0  0  0  0  0  0
    5.4833   -0.9211   -0.3062 C   0  0  0  0  0  0  0  0  0  0  0  0
    4.6556    1.1348   -1.3552 C   0  0  0  0  0  0  0  0  0  0  0  0
    3.7281    1.0669   -2.3974 C   0  0  0  0  0  0  0  0  0  0  0  0
    3.8433    1.9237   -3.4930 C   0  0  0  0  0  0  0  0  0  0  0  0
    4.8931    2.8393   -3.5531 C   0  0  0  0  0  0  0  0  0  0  0  0
    5.8343    2.8921   -2.5244 C   0  0  0  0  0  0  0  0  0  0  0  0
    5.7228    2.0338   -1.4292 C   0  0  0  0  0  0  0  0  0  0  0  0
    2.3354   -0.8103    1.9457 C   0  0  0  0  0  0  0  0  0  0  0  0
   -2.6208   -0.4205    1.4116 C   0  0  0  0  0  0  0  0  0  0  0  0
   -3.9757   -0.5166    1.0336 C   0  0  0  0  0  0  0  0  0  0  0  0
   -4.8126    1.0321    0.6886 S   0  0  0  0  0  6  0  0  0  0  0  0
   -6.2399    0.8412    0.8251 O   0  0  0  0  0  0  0  0  0  0  0  0
   -4.1357    2.0603    1.4553 O   0  0  0  0  0  0  0  0  0  0  0  0
   -4.4792    1.3199   -0.9500 N   0  0  0  0  0  0  0  0  0  0  0  0
   -5.1129    0.4139   -1.9451 C   0  0  0  0  0  0  0  0  0  0  0  0
   -4.9754    1.0134   -3.3508 C   0  0  0  0  0  0  0  0  0  0  0  0
   -3.6001    1.2689   -3.6790 O   0  0  0  0  0  0  0  0  0  0  0  0
   -3.0354    2.2030   -2.7454 C   0  0  0  0  0  0  0  0  0  0  0  0
   -3.0715    1.6362   -1.3198 C   0  0  0  0  0  0  0  0  0  0  0  0
   -6.6908   -1.5622    1.5085 H   0  0  0  0  0  0  0  0  0  0  0  0
   -6.3162   -3.0416    0.6243 H   0  0  0  0  0  0  0  0  0  0  0  0
   -6.3480   -1.5287   -0.2526 H   0  0  0  0  0  0  0  0  0  0  0  0
   -4.2972   -3.8960    1.2962 H   0  0  0  0  0  0  0  0  0  0  0  0
   -1.9584   -3.7195    1.8766 H   0  0  0  0  0  0  0  0  0  0  0  0
   -0.2102   -0.4042    2.1213 H   0  0  0  0  0  0  0  0  0  0  0  0
    2.0871   -3.2416    4.3235 H   0  0  0  0  0  0  0  0  0  0  0  0
    4.3767   -2.4389    4.8317 H   0  0  0  0  0  0  0  0  0  0  0  0
    5.3741   -0.5953    3.5103 H   0  0  0  0  0  0  0  0  0  0  0  0
    5.6183   -1.2772   -1.3336 H   0  0  0  0  0  0  0  0  0  0  0  0
    6.4618   -0.6223    0.0817 H   0  0  0  0  0  0  0  0  0  0  0  0
    5.1024   -1.7667    0.2730 H   0  0  0  0  0  0  0  0  0  0  0  0
    2.9079    0.3566   -2.3526 H   0  0  0  0  0  0  0  0  0  0  0  0
    3.1134    1.8806   -4.2969 H   0  0  0  0  0  0  0  0  0  0  0  0
    4.9802    3.5118   -4.4035 H   0  0  0  0  0  0  0  0  0  0  0  0
    6.6537    3.6051   -2.5728 H   0  0  0  0  0  0  0  0  0  0  0  0
    6.4680    2.0834   -0.6393 H   0  0  0  0  0  0  0  0  0  0  0  0
    1.7953   -0.3643    1.1147 H   0  0  0  0  0  0  0  0  0  0  0  0
   -2.1534    0.5609    1.4697 H   0  0  0  0  0  0  0  0  0  0  0  0
   -4.6143   -0.5605   -1.9114 H   0  0  0  0  0  0  0  0  0  0  0  0
   -6.1768    0.2884   -1.7253 H   0  0  0  0  0  0  0  0  0  0  0  0
   -5.5437    1.9476   -3.4385 H   0  0  0  0  0  0  0  0  0  0  0  0
   -5.3687    0.3124   -4.0929 H   0  0  0  0  0  0  0  0  0  0  0  0
   -3.5825    3.1529   -2.8100 H   0  0  0  0  0  0  0  0  0  0  0  0
   -1.9997    2.3912   -3.0482 H   0  0  0  0  0  0  0  0  0  0  0  0
   -2.4735    0.7192   -1.2802 H   0  0  0  0  0  0  0  0  0  0  0  0
   -2.6484    2.3757   -0.6335 H   0  0  0  0  0  0  0  0  0  0  0  0
  1  2  1  0
  2  3  2  0
  3  4  1  0
  4  5  2  0
  5  6  1  0
  6  7  1  0
  7  8  2  0
  7  9  1  0
  9 10  2  0
 10 11  1  0
 11 12  2  0
 12 13  1  0
 13 14  1  0
 14 15  2  0
 14 16  2  0
 14 17  1  0
 17 18  1  0
 17 19  1  0
 19 20  2  0
 20 21  1  0
 21 22  2  0
 22 23  1  0
 23 24  2  0
 13 25  2  0
  5 26  1  0
 26 27  2  0
 27 28  1  0
 28 29  2  0
 28 30  2  0
 28 31  1  0
 31 32  1  0
 32 33  1  0
 33 34  1  0
 34 35  1  0
 35 36  1  0
 27  2  1  0
 36 31  1  0
 25  9  1  0
 24 19  1  0
  1 37  1  0
  1 38  1  0
  1 39  1  0
  3 40  1  0
  4 41  1  0
  6 42  1  0
 10 43  1  0
 11 44  1  0
 12 45  1  0
 18 46  1  0
 18 47  1  0
 18 48  1  0
 20 49  1  0
 21 50  1  0
 22 51  1  0
 23 52  1  0
 24 53  1  0
 25 54  1  0
 26 55  1  0
 32 56  1  0
 32 57  1  0
 33 58  1  0
 33 59  1  0
 35 60  1  0
 35 61  1  0
 36 62  1  0
 36 63  1  0
M  END
$$$$
