
     RDKit          3D

 46 48  0  0  0  0  0  0  0  0999 V2000
   -3.8669    1.4181   -1.0641 O   0  0  0  0  0  0  0  0  0  0  0  0
   -3.5870    0.5332   -0.2659 C   0  0  0  0  0  0  0  0  0  0  0  0
   -4.4698   -0.3105    0.3833 N   0  0  0  0  0  0  0  0  0  0  0  0
   -5.8803   -0.2774    0.3182 C   0  0  0  0  0  0  0  0  0  0  0  0
   -6.6094    0.7027   -0.3586 C   0  0  0  0  0  0  0  0  0  0  0  0
   -8.0039    0.6565   -0.3627 C   0  0  0  0  0  0  0  0  0  0  0  0
   -8.6909    1.6032   -1.0154 F   0  0  0  0  0  0  0  0  0  0  0  0
   -8.6954   -0.3479    0.2967 C   0  0  0  0  0  0  0  0  0  0  0  0
   -7.9689   -1.3157    0.9700 C   0  0  0  0  0  0  0  0  0  0  0  0
   -8.6145   -2.2947    1.6172 F   0  0  0  0  0  0  0  0  0  0  0  0
   -6.5754   -1.2907    0.9893 C   0  0  0  0  0  0  0  0  0  0  0  0
   -2.1478    0.2892    0.0255 C   0  0  0  0  0  0  0  0  0  0  0  0
   -1.7014   -0.0903    1.2913 C   0  0  0  0  0  0  0  0  0  0  0  0
   -0.3331   -0.3030    1.5174 C   0  0  0  0  0  0  0  0  0  0  0  0
    0.6464   -0.1180    0.5162 C   0  0  0  0  0  0  0  0  0  0  0  0
    1.9516   -0.4488    0.8884 N   0  0  0  0  0  0  0  0  0  0  0  0
    3.1467   -0.0414    0.1435 C   0  0  0  0  0  0  0  0  0  0  0  0
    4.4082   -0.4695    0.9076 C   0  0  0  0  0  0  0  0  0  0  0  0
    5.6697   -0.0792    0.1804 C   0  0  0  0  0  0  0  0  0  0  0  0
    6.2695    1.1656    0.4137 C   0  0  0  0  0  0  0  0  0  0  0  0
    7.4251    1.5333   -0.2774 C   0  0  0  0  0  0  0  0  0  0  0  0
    7.9886    0.6635   -1.2091 C   0  0  0  0  0  0  0  0  0  0  0  0
    7.3965   -0.5742   -1.4522 C   0  0  0  0  0  0  0  0  0  0  0  0
    6.2408   -0.9442   -0.7628 C   0  0  0  0  0  0  0  0  0  0  0  0
    0.1478    0.2463   -0.7478 C   0  0  0  0  0  0  0  0  0  0  0  0
    1.0045    0.4103   -1.8972 N   0  0  0  0  0  4  0  0  0  0  0  0
    1.5282    1.5214   -2.0552 O   0  0  0  0  0  0  0  0  0  0  0  0
    1.1131   -0.5590   -2.6605 O   0  0  0  0  0  1  0  0  0  0  0  0
   -1.2196    0.4684   -0.9985 C   0  0  0  0  0  0  0  0  0  0  0  0
   -4.0722   -1.0813    0.9051 H   0  0  0  0  0  0  0  0  0  0  0  0
   -6.1343    1.5194   -0.8910 H   0  0  0  0  0  0  0  0  0  0  0  0
   -9.7783   -0.3729    0.2858 H   0  0  0  0  0  0  0  0  0  0  0  0
   -6.0569   -2.0750    1.5318 H   0  0  0  0  0  0  0  0  0  0  0  0
   -2.3920   -0.2052    2.1230 H   0  0  0  0  0  0  0  0  0  0  0  0
   -0.0296   -0.6194    2.5156 H   0  0  0  0  0  0  0  0  0  0  0  0
    2.0921   -0.3612    1.8941 H   0  0  0  0  0  0  0  0  0  0  0  0
    3.1614   -0.5214   -0.8398 H   0  0  0  0  0  0  0  0  0  0  0  0
    3.1525    1.0469    0.0135 H   0  0  0  0  0  0  0  0  0  0  0  0
    4.4122   -0.0232    1.9109 H   0  0  0  0  0  0  0  0  0  0  0  0
    4.3988   -1.5553    1.0707 H   0  0  0  0  0  0  0  0  0  0  0  0
    5.8407    1.8595    1.1331 H   0  0  0  0  0  0  0  0  0  0  0  0
    7.8843    2.5008   -0.0919 H   0  0  0  0  0  0  0  0  0  0  0  0
    8.8867    0.9519   -1.7489 H   0  0  0  0  0  0  0  0  0  0  0  0
    7.8326   -1.2507   -2.1829 H   0  0  0  0  0  0  0  0  0  0  0  0
    5.7876   -1.9115   -0.9698 H   0  0  0  0  0  0  0  0  0  0  0  0
   -1.5577    0.7671   -1.9907 H   0  0  0  0  0  0  0  0  0  0  0  0
  1  2  2  0
  2  3  1  0
  3  4  1  0
  4  5  2  0
  5  6  1  0
  6  7  1  0
  6  8  2  0
  8  9  1  0
  9 10  1  0
  9 11  2  0
  2 12  1  0
 12 13  2  0
 13 14  1  0
 14 15  2  0
 15 16  1  0
 16 17  1  0
 17 18  1  0
 18 19  1  0
 19 20  2  0
 20 21  1  0
 21 22  2  0
 22 23  1  0
 23 24  2  0
 15 25  1  0
 25 26  1  0
 26 27  2  0
 26 28  1  0
 25 29  2  0
 11  4  1  0
 29 12  1  0
 24 19  1  0
  3 30  1  0
  5 31  1  0
  8 32  1  0
 11 33  1  0
 13 34  1  0
 14 35  1  0
 16 36  1  0
 17 37  1  0
 17 38  1  0
 18 39  1  0
 18 40  1  0
 20 41  1  0
 21 42  1  0
 22 43  1  0
 23 44  1  0
 24 45  1  0
 29 46  1  0
M  CHG  2  26   1  28  -1
M  END
$$$$
