
     RDKit          3D

 37 37  0  0  0  0  0  0  0  0999 V2000
   -2.1317   -4.6141    1.3676 C   0  0  0  0  0  0  0  0  0  0  0  0
   -2.3510   -3.2535    0.9944 O   0  0  0  0  0  0  0  0  0  0  0  0
   -1.3575   -2.4039    1.3750 C   0  0  0  0  0  0  0  0  0  0  0  0
   -0.3808   -2.7351    2.0430 O   0  0  0  0  0  0  0  0  0  0  0  0
   -1.6471   -0.9490    0.9587 C   0  0  0  0  0  0  0  0  0  0  0  0
   -2.5849   -0.8154   -0.2539 C   0  0  0  0  0  0  0  0  0  0  0  0
   -2.8181    0.6159   -0.7368 C   0  0  0  0  0  0  0  0  0  0  0  0
   -3.7011    1.6235    0.5016 S   0  0  0  0  0  0  0  0  0  0  0  0
   -3.7623    3.1805   -0.4173 C   0  0  0  0  0  0  0  0  0  0  0  0
   -0.3655   -0.2416    0.8317 N   0  0  0  0  0  0  0  0  0  0  0  0
    0.4899   -0.4796   -0.2118 C   0  0  0  0  0  0  0  0  0  0  0  0
    0.2114   -1.1575   -1.1906 O   0  0  0  0  0  0  0  0  0  0  0  0
    1.6770    0.1819   -0.0585 N   0  0  0  0  0  0  0  0  0  0  0  0
    2.7403   -0.0370   -1.0110 C   0  0  0  0  0  0  0  0  0  0  0  0
    3.8278    0.9494   -0.7350 C   0  0  0  0  0  0  0  0  0  0  0  0
    3.9409    2.2474   -1.1951 C   0  0  0  0  0  0  0  0  0  0  0  0
    5.1187    2.8917   -0.7186 C   0  0  0  0  0  0  0  0  0  0  0  0
    5.8655    2.0657    0.0909 C   0  0  0  0  0  0  0  0  0  0  0  0
    5.1469    0.5253    0.2744 S   0  0  0  0  0  0  0  0  0  0  0  0
   -1.2030   -4.9897    0.9265 H   0  0  0  0  0  0  0  0  0  0  0  0
   -2.9633   -5.2095    0.9808 H   0  0  0  0  0  0  0  0  0  0  0  0
   -2.1123   -4.7127    2.4574 H   0  0  0  0  0  0  0  0  0  0  0  0
   -2.1381   -0.5021    1.8319 H   0  0  0  0  0  0  0  0  0  0  0  0
   -3.5549   -1.2728   -0.0156 H   0  0  0  0  0  0  0  0  0  0  0  0
   -2.1973   -1.4027   -1.0948 H   0  0  0  0  0  0  0  0  0  0  0  0
   -1.8720    1.1033   -0.9904 H   0  0  0  0  0  0  0  0  0  0  0  0
   -3.4310    0.5859   -1.6440 H   0  0  0  0  0  0  0  0  0  0  0  0
   -2.7511    3.5367   -0.6302 H   0  0  0  0  0  0  0  0  0  0  0  0
   -4.3119    3.0492   -1.3529 H   0  0  0  0  0  0  0  0  0  0  0  0
   -4.2765    3.9340    0.1851 H   0  0  0  0  0  0  0  0  0  0  0  0
    0.0915   -0.0526    1.7114 H   0  0  0  0  0  0  0  0  0  0  0  0
    1.9584    0.4068    0.8827 H   0  0  0  0  0  0  0  0  0  0  0  0
    3.0845   -1.0730   -0.9148 H   0  0  0  0  0  0  0  0  0  0  0  0
    2.3472    0.0912   -2.0261 H   0  0  0  0  0  0  0  0  0  0  0  0
    3.2079    2.7129   -1.8439 H   0  0  0  0  0  0  0  0  0  0  0  0
    5.4035    3.9091   -0.9574 H   0  0  0  0  0  0  0  0  0  0  0  0
    6.8003    2.2916    0.5855 H   0  0  0  0  0  0  0  0  0  0  0  0
  1  2  1  0
  2  3  1  0
  3  4  2  0
  3  5  1  0
  5  6  1  0
  6  7  1  0
  7  8  1  0
  8  9  1  0
  5 10  1  0
 10 11  1  0
 11 12  2  0
 11 13  1  0
 13 14  1  0
 14 15  1  0
 15 16  2  0
 16 17  1  0
 17 18  2  0
 18 19  1  0
 19 15  1  0
  1 20  1  0
  1 21  1  0
  1 22  1  0
  5 23  1  0
  6 24  1  0
  6 25  1  0
  7 26  1  0
  7 27  1  0
  9 28  1  0
  9 29  1  0
  9 30  1  0
 10 31  1  0
 13 32  1  0
 14 33  1  0
 14 34  1  0
 16 35  1  0
 17 36  1  0
 18 37  1  0
M  END
$$$$
