
     RDKit          3D

 50 54  0  0  0  0  0  0  0  0999 V2000
   -5.0110    0.6788   -0.5688 C   0  0  0  0  0  0  0  0  0  0  0  0
   -4.5013   -0.7270   -0.6289 C   0  0  0  0  0  0  0  0  0  0  0  0
   -5.2933   -1.8043   -0.5131 C   0  0  0  0  0  0  0  0  0  0  0  0
   -4.7529   -3.1338   -0.5831 C   0  0  0  0  0  0  0  0  0  0  0  0
   -3.4407   -3.3101   -0.7683 C   0  0  0  0  0  0  0  0  0  0  0  0
   -2.5684   -2.2359   -0.8966 N   0  0  0  0  0  0  0  0  0  0  0  0
   -1.2183   -2.4827   -1.0742 C   0  0  0  0  0  0  0  0  0  0  0  0
   -0.7168   -3.6087   -1.1106 O   0  0  0  0  0  0  0  0  0  0  0  0
   -0.3453   -1.2850   -1.2178 C   0  0  0  0  0  0  0  0  0  0  0  0
    1.0898   -1.4583   -1.3870 C   0  0  0  0  0  0  0  0  0  0  0  0
    1.9204   -0.4155   -1.5490 C   0  0  0  0  0  0  0  0  0  0  0  0
    3.6230   -0.6766   -1.5940 S   0  0  0  0  0  6  0  0  0  0  0  0
    4.2969    0.4727   -2.1734 O   0  0  0  0  0  0  0  0  0  0  0  0
    3.9142   -2.0099   -2.0920 O   0  0  0  0  0  0  0  0  0  0  0  0
    4.0365   -0.6702    0.1457 C   0  0  0  0  0  0  0  0  0  0  0  0
    4.0596    0.5466    0.8408 C   0  0  0  0  0  0  0  0  0  0  0  0
    4.3793    0.5522    2.1989 C   0  0  0  0  0  0  0  0  0  0  0  0
    4.6819   -0.6455    2.8401 C   0  0  0  0  0  0  0  0  0  0  0  0
    4.9891   -0.6352    4.1435 F   0  0  0  0  0  0  0  0  0  0  0  0
    4.6737   -1.8542    2.1491 C   0  0  0  0  0  0  0  0  0  0  0  0
    4.3521   -1.8720    0.7912 C   0  0  0  0  0  0  0  0  0  0  0  0
    1.3093    0.9493   -1.5620 C   0  0  0  0  0  0  0  0  0  0  0  0
    2.0104    2.0080   -1.8426 N   0  0  0  0  0  0  0  0  0  0  0  0
   -0.0577    1.0749   -1.2776 N   0  0  0  0  0  0  0  0  0  0  0  0
   -0.6000    2.4219   -1.0088 C   0  0  0  0  0  0  0  0  0  0  0  0
   -0.5845    2.8098    0.4370 C   0  0  0  0  0  0  0  0  0  0  0  0
   -1.3782    2.4710    1.5151 C   0  0  0  0  0  0  0  0  0  0  0  0
   -0.8520    3.1607    2.6333 C   0  0  0  0  0  0  0  0  0  0  0  0
    0.2271    3.8757    2.1690 C   0  0  0  0  0  0  0  0  0  0  0  0
    0.3977    3.6696    0.8386 O   0  0  0  0  0  0  0  0  0  0  0  0
   -0.9008   -0.0547   -1.1404 C   0  0  0  0  0  0  0  0  0  0  0  0
   -2.2518    0.1062   -0.9406 N   0  0  0  0  0  0  0  0  0  0  0  0
   -3.0235   -0.9291   -0.8345 C   0  0  0  0  0  0  0  0  0  0  0  0
   -6.0959    0.7115   -0.4238 H   0  0  0  0  0  0  0  0  0  0  0  0
   -4.7864    1.2102   -1.4994 H   0  0  0  0  0  0  0  0  0  0  0  0
   -4.5510    1.2200    0.2643 H   0  0  0  0  0  0  0  0  0  0  0  0
   -6.3648   -1.7047   -0.3658 H   0  0  0  0  0  0  0  0  0  0  0  0
   -5.4256   -3.9796   -0.4843 H   0  0  0  0  0  0  0  0  0  0  0  0
   -3.0118   -4.3079   -0.8243 H   0  0  0  0  0  0  0  0  0  0  0  0
    1.4700   -2.4779   -1.3454 H   0  0  0  0  0  0  0  0  0  0  0  0
    3.8346    1.4877    0.3415 H   0  0  0  0  0  0  0  0  0  0  0  0
    4.3982    1.4815    2.7598 H   0  0  0  0  0  0  0  0  0  0  0  0
    4.9229   -2.7723    2.6724 H   0  0  0  0  0  0  0  0  0  0  0  0
    4.3570   -2.8165    0.2517 H   0  0  0  0  0  0  0  0  0  0  0  0
    2.9911    1.7966   -2.0909 H   0  0  0  0  0  0  0  0  0  0  0  0
   -1.6330    2.4915   -1.3751 H   0  0  0  0  0  0  0  0  0  0  0  0
   -0.0697    3.1843   -1.5930 H   0  0  0  0  0  0  0  0  0  0  0  0
   -2.2280    1.8029    1.4895 H   0  0  0  0  0  0  0  0  0  0  0  0
   -1.2122    3.1400    3.6520 H   0  0  0  0  0  0  0  0  0  0  0  0
    0.9400    4.5441    2.6318 H   0  0  0  0  0  0  0  0  0  0  0  0
  1  2  1  0
  2  3  2  0
  3  4  1  0
  4  5  2  0
  5  6  1  0
  6  7  1  0
  7  8  2  0
  7  9  1  0
  9 10  1  0
 10 11  2  0
 11 12  1  0
 12 13  2  0
 12 14  2  0
 12 15  1  0
 15 16  2  0
 16 17  1  0
 17 18  2  0
 18 19  1  0
 18 20  1  0
 20 21  2  0
 11 22  1  0
 22 23  2  3
 22 24  1  0
 24 25  1  0
 25 26  1  0
 26 27  2  0
 27 28  1  0
 28 29  2  0
 29 30  1  0
 24 31  1  0
 31 32  1  0
 32 33  2  0
 33  2  1  0
 33  6  1  0
 31  9  2  0
 21 15  1  0
 30 26  1  0
  1 34  1  0
  1 35  1  0
  1 36  1  0
  3 37  1  0
  4 38  1  0
  5 39  1  0
 10 40  1  0
 16 41  1  0
 17 42  1  0
 20 43  1  0
 21 44  1  0
 23 45  1  0
 25 46  1  0
 25 47  1  0
 27 48  1  0
 28 49  1  0
 29 50  1  0
M  END
$$$$
