
     RDKit          3D

 35 36  0  0  0  0  0  0  0  0999 V2000
    2.7070   -0.4782   -2.4757 C   0  0  0  0  0  0  0  0  0  0  0  0
    1.8798   -0.2509   -1.2879 N   0  0  0  0  0  0  0  0  0  0  0  0
    1.4109   -1.5275   -0.7336 C   0  0  0  0  0  0  0  0  0  0  0  0
    0.3757   -1.3981    0.3870 C   0  0  0  0  0  0  0  0  0  0  0  0
   -0.8701   -0.6268   -0.0415 C   0  0  0  0  0  0  0  0  0  0  0  0
   -1.7865   -0.6442    1.0550 O   0  0  0  0  0  0  0  0  0  0  0  0
   -2.9870   -0.0031    0.8983 C   0  0  0  0  0  0  0  0  0  0  0  0
   -3.3810    0.6705   -0.2631 C   0  0  0  0  0  0  0  0  0  0  0  0
   -4.6305    1.2969   -0.3280 C   0  0  0  0  0  0  0  0  0  0  0  0
   -5.4909    1.2529    0.7663 C   0  0  0  0  0  0  0  0  0  0  0  0
   -7.0249    2.0260    0.6770 Cl  0  0  0  0  0  0  0  0  0  0  0  0
   -5.1175    0.5887    1.9293 C   0  0  0  0  0  0  0  0  0  0  0  0
   -3.8695   -0.0362    1.9928 C   0  0  0  0  0  0  0  0  0  0  0  0
   -3.4494   -0.8493    3.4617 Cl  0  0  0  0  0  0  0  0  0  0  0  0
    2.5559    0.6359   -0.3275 C   0  0  0  0  0  0  0  0  0  0  0  0
    3.8035    0.0949    0.3002 C   0  0  0  0  0  0  0  0  0  0  0  0
    4.8846    1.0314    0.7778 C   0  0  0  0  0  0  0  0  0  0  0  0
    5.0118    0.2922   -0.4450 O   0  0  0  0  0  0  0  0  0  0  0  0
    3.5882   -1.0929   -2.2627 H   0  0  0  0  0  0  0  0  0  0  0  0
    2.1230   -0.9844   -3.2528 H   0  0  0  0  0  0  0  0  0  0  0  0
    3.0390    0.4717   -2.9094 H   0  0  0  0  0  0  0  0  0  0  0  0
    0.9398   -2.1074   -1.5388 H   0  0  0  0  0  0  0  0  0  0  0  0
    2.2511   -2.1358   -0.3773 H   0  0  0  0  0  0  0  0  0  0  0  0
    0.0760   -2.4040    0.7091 H   0  0  0  0  0  0  0  0  0  0  0  0
    0.8125   -0.9343    1.2794 H   0  0  0  0  0  0  0  0  0  0  0  0
   -1.3214   -1.1159   -0.9129 H   0  0  0  0  0  0  0  0  0  0  0  0
   -0.6054    0.4085   -0.2843 H   0  0  0  0  0  0  0  0  0  0  0  0
   -2.7402    0.7291   -1.1376 H   0  0  0  0  0  0  0  0  0  0  0  0
   -4.9238    1.8172   -1.2369 H   0  0  0  0  0  0  0  0  0  0  0  0
   -5.7903    0.5559    2.7816 H   0  0  0  0  0  0  0  0  0  0  0  0
    1.8583    0.9093    0.4723 H   0  0  0  0  0  0  0  0  0  0  0  0
    2.7732    1.5872   -0.8319 H   0  0  0  0  0  0  0  0  0  0  0  0
    3.6683   -0.8287    0.8445 H   0  0  0  0  0  0  0  0  0  0  0  0
    5.5007    0.7218    1.6127 H   0  0  0  0  0  0  0  0  0  0  0  0
    4.7292    2.1001    0.7019 H   0  0  0  0  0  0  0  0  0  0  0  0
  1  2  1  0
  2  3  1  0
  3  4  1  0
  4  5  1  0
  5  6  1  0
  6  7  1  0
  7  8  2  0
  8  9  1  0
  9 10  2  0
 10 11  1  0
 10 12  1  0
 12 13  2  0
 13 14  1  0
  2 15  1  0
 15 16  1  0
 16 17  1  0
 17 18  1  0
 13  7  1  0
 18 16  1  0
  1 19  1  0
  1 20  1  0
  1 21  1  0
  3 22  1  0
  3 23  1  0
  4 24  1  0
  4 25  1  0
  5 26  1  0
  5 27  1  0
  8 28  1  0
  9 29  1  0
 12 30  1  0
 15 31  1  0
 15 32  1  0
 16 33  1  0
 17 34  1  0
 17 35  1  0
M  END
$$$$
