
     RDKit          3D

 45 47  0  0  0  0  0  0  0  0999 V2000
   -7.4734    1.9403    4.4405 C   0  0  0  0  0  0  0  0  0  0  0  0
   -7.4394    1.2027    3.2253 O   0  0  0  0  0  0  0  0  0  0  0  0
   -6.2367    0.6597    2.8661 C   0  0  0  0  0  0  0  0  0  0  0  0
   -5.0460    0.7507    3.5860 C   0  0  0  0  0  0  0  0  0  0  0  0
   -3.8816    0.1447    3.1006 C   0  0  0  0  0  0  0  0  0  0  0  0
   -3.8937   -0.5623    1.8916 C   0  0  0  0  0  0  0  0  0  0  0  0
   -2.6324   -1.1958    1.3638 C   0  0  0  0  0  0  0  0  0  0  0  0
   -1.7698   -0.1986    0.5910 C   0  0  0  0  0  0  0  0  0  0  0  0
   -0.5774   -0.8292    0.0519 N   0  0  0  0  0  0  0  0  0  0  0  0
    0.5268   -0.0706   -0.3042 C   0  0  0  0  0  0  0  0  0  0  0  0
    0.5834    1.1325   -0.0613 O   0  0  0  0  0  0  0  0  0  0  0  0
    1.5794   -0.8016   -0.9881 C   0  0  0  0  0  0  0  0  0  0  0  0
    1.7624   -2.1350   -1.3080 C   0  0  0  0  0  0  0  0  0  0  0  0
    3.0016   -2.2288   -1.9919 C   0  0  0  0  0  0  0  0  0  0  0  0
    3.5256   -0.9540   -2.0447 C   0  0  0  0  0  0  0  0  0  0  0  0
    4.7375   -0.3422   -2.5888 C   0  0  0  0  0  0  0  0  0  0  0  0
    4.6436    0.9546   -3.1355 C   0  0  0  0  0  0  0  0  0  0  0  0
    5.7553    1.5996   -3.6861 C   0  0  0  0  0  0  0  0  0  0  0  0
    6.9901    0.9474   -3.6936 C   0  0  0  0  0  0  0  0  0  0  0  0
    8.1638    1.6138   -4.2706 N   0  0  0  0  0  4  0  0  0  0  0  0
    9.2414    1.0031   -4.2457 O   0  0  0  0  0  0  0  0  0  0  0  0
    8.0061    2.7445   -4.7513 O   0  0  0  0  0  1  0  0  0  0  0  0
    7.1170   -0.3359   -3.1520 C   0  0  0  0  0  0  0  0  0  0  0  0
    5.9963   -0.9739   -2.6012 C   0  0  0  0  0  0  0  0  0  0  0  0
    6.2709   -2.5391   -1.9131 Cl  0  0  0  0  0  0  0  0  0  0  0  0
    2.6572   -0.0888   -1.4426 O   0  0  0  0  0  0  0  0  0  0  0  0
   -5.0894   -0.6464    1.1704 C   0  0  0  0  0  0  0  0  0  0  0  0
   -6.2499   -0.0411    1.6584 C   0  0  0  0  0  0  0  0  0  0  0  0
   -6.8089    2.8095    4.3938 H   0  0  0  0  0  0  0  0  0  0  0  0
   -7.2311    1.3020    5.2966 H   0  0  0  0  0  0  0  0  0  0  0  0
   -8.4942    2.3092    4.5791 H   0  0  0  0  0  0  0  0  0  0  0  0
   -4.9861    1.2863    4.5274 H   0  0  0  0  0  0  0  0  0  0  0  0
   -2.9620    0.2319    3.6762 H   0  0  0  0  0  0  0  0  0  0  0  0
   -2.0601   -1.6213    2.1985 H   0  0  0  0  0  0  0  0  0  0  0  0
   -2.8885   -2.0484    0.7214 H   0  0  0  0  0  0  0  0  0  0  0  0
   -1.4759    0.6379    1.2358 H   0  0  0  0  0  0  0  0  0  0  0  0
   -2.3232    0.2217   -0.2571 H   0  0  0  0  0  0  0  0  0  0  0  0
   -0.6778   -1.7396   -0.3721 H   0  0  0  0  0  0  0  0  0  0  0  0
    1.0934   -2.9522   -1.0802 H   0  0  0  0  0  0  0  0  0  0  0  0
    3.4499   -3.1253   -2.3973 H   0  0  0  0  0  0  0  0  0  0  0  0
    3.6858    1.4769   -3.1359 H   0  0  0  0  0  0  0  0  0  0  0  0
    5.6364    2.6006   -4.0971 H   0  0  0  0  0  0  0  0  0  0  0  0
    8.0799   -0.8439   -3.1459 H   0  0  0  0  0  0  0  0  0  0  0  0
   -5.1314   -1.1814    0.2247 H   0  0  0  0  0  0  0  0  0  0  0  0
   -7.1745   -0.1141    1.0908 H   0  0  0  0  0  0  0  0  0  0  0  0
  1  2  1  0
  2  3  1  0
  3  4  2  0
  4  5  1  0
  5  6  2  0
  6  7  1  0
  7  8  1  0
  8  9  1  0
  9 10  1  0
 10 11  2  0
 10 12  1  0
 12 13  2  0
 13 14  1  0
 14 15  2  0
 15 16  1  0
 16 17  2  0
 17 18  1  0
 18 19  2  0
 19 20  1  0
 20 21  2  0
 20 22  1  0
 19 23  1  0
 23 24  2  0
 24 25  1  0
 15 26  1  0
  6 27  1  0
 27 28  2  0
 28  3  1  0
 26 12  1  0
 24 16  1  0
  1 29  1  0
  1 30  1  0
  1 31  1  0
  4 32  1  0
  5 33  1  0
  7 34  1  0
  7 35  1  0
  8 36  1  0
  8 37  1  0
  9 38  1  0
 13 39  1  0
 14 40  1  0
 17 41  1  0
 18 42  1  0
 23 43  1  0
 27 44  1  0
 28 45  1  0
M  CHG  2  20   1  22  -1
M  END
$$$$
