
     RDKit          3D

 48 51  0  0  0  0  0  0  0  0999 V2000
    6.5720    0.3095   -3.1496 C   0  0  0  0  0  0  0  0  0  0  0  0
    5.8600    0.0288   -1.8909 C   0  0  0  0  0  0  0  0  0  0  0  0
    4.5939    0.2793   -1.4246 C   0  0  0  0  0  0  0  0  0  0  0  0
    4.5768   -0.2615   -0.1074 C   0  0  0  0  0  0  0  0  0  0  0  0
    3.4833   -0.2825    0.8740 C   0  0  0  0  0  0  0  0  0  0  0  0
    3.6408   -0.5757    2.0564 O   0  0  0  0  0  0  0  0  0  0  0  0
    2.2363    0.0418    0.3676 N   0  0  0  0  0  0  0  0  0  0  0  0
    1.0514   -0.0602    1.1951 C   0  0  0  0  0  0  0  0  0  0  0  0
    0.5935   -1.5336    1.3205 C   0  0  0  0  0  0  0  0  0  0  0  0
   -0.8898   -1.6975    1.7645 C   0  0  0  0  0  0  0  0  0  0  0  0
   -1.0972   -1.1285    3.1831 C   0  0  0  0  0  0  0  0  0  0  0  0
   -1.2335   -3.1989    1.8008 C   0  0  0  0  0  0  0  0  0  0  0  0
   -1.8425   -0.9910    0.7484 C   0  0  0  0  0  0  0  0  0  0  0  0
   -1.3160    0.3490    0.3499 C   0  0  0  0  0  0  0  0  0  0  0  0
   -0.0161    0.7708    0.5695 C   0  0  0  0  0  0  0  0  0  0  0  0
   -0.0081    2.1129    0.1768 C   0  0  0  0  0  0  0  0  0  0  0  0
   -1.1838    2.5060   -0.3039 N   0  0  0  0  0  0  0  0  0  0  0  0
   -1.9937    1.4077   -0.2430 N   0  0  0  0  0  0  0  0  0  0  0  0
   -3.3211    1.5032   -0.7686 C   0  0  0  0  0  0  0  0  0  0  0  0
   -4.1348    0.3830   -0.9836 C   0  0  0  0  0  0  0  0  0  0  0  0
   -5.4261    0.5367   -1.5032 C   0  0  0  0  0  0  0  0  0  0  0  0
   -5.9032    1.8032   -1.8147 C   0  0  0  0  0  0  0  0  0  0  0  0
   -7.1390    1.9398   -2.3119 F   0  0  0  0  0  0  0  0  0  0  0  0
   -5.1116    2.9255   -1.6244 C   0  0  0  0  0  0  0  0  0  0  0  0
   -3.8219    2.7768   -1.1077 C   0  0  0  0  0  0  0  0  0  0  0  0
    5.7742   -0.7982    0.1840 N   0  0  0  0  0  0  0  0  0  0  0  0
    6.5669   -0.6177   -0.9303 O   0  0  0  0  0  0  0  0  0  0  0  0
    7.4205    0.9773   -2.9690 H   0  0  0  0  0  0  0  0  0  0  0  0
    6.9500   -0.6178   -3.5920 H   0  0  0  0  0  0  0  0  0  0  0  0
    5.9092    0.7885   -3.8775 H   0  0  0  0  0  0  0  0  0  0  0  0
    3.8061    0.7924   -1.9539 H   0  0  0  0  0  0  0  0  0  0  0  0
    2.1042    0.0632   -0.6328 H   0  0  0  0  0  0  0  0  0  0  0  0
    1.2797    0.3376    2.1916 H   0  0  0  0  0  0  0  0  0  0  0  0
    1.2597   -2.0626    2.0146 H   0  0  0  0  0  0  0  0  0  0  0  0
    0.7206   -2.0334    0.3486 H   0  0  0  0  0  0  0  0  0  0  0  0
   -0.9246   -0.0490    3.2297 H   0  0  0  0  0  0  0  0  0  0  0  0
   -2.1208   -1.3081    3.5315 H   0  0  0  0  0  0  0  0  0  0  0  0
   -0.4164   -1.6037    3.8983 H   0  0  0  0  0  0  0  0  0  0  0  0
   -1.0883   -3.6636    0.8192 H   0  0  0  0  0  0  0  0  0  0  0  0
   -0.5995   -3.7326    2.5177 H   0  0  0  0  0  0  0  0  0  0  0  0
   -2.2775   -3.3581    2.0932 H   0  0  0  0  0  0  0  0  0  0  0  0
   -2.8393   -0.9031    1.1949 H   0  0  0  0  0  0  0  0  0  0  0  0
   -1.9209   -1.6077   -0.1556 H   0  0  0  0  0  0  0  0  0  0  0  0
    0.8035    2.8281    0.2274 H   0  0  0  0  0  0  0  0  0  0  0  0
   -3.8016   -0.6289   -0.7977 H   0  0  0  0  0  0  0  0  0  0  0  0
   -6.0599   -0.3282   -1.6752 H   0  0  0  0  0  0  0  0  0  0  0  0
   -5.4972    3.9085   -1.8764 H   0  0  0  0  0  0  0  0  0  0  0  0
   -3.2183    3.6723   -0.9636 H   0  0  0  0  0  0  0  0  0  0  0  0
  1  2  1  0
  2  3  2  0
  3  4  1  0
  4  5  1  0
  5  6  2  0
  5  7  1  0
  7  8  1  0
  8  9  1  0
  9 10  1  0
 10 11  1  0
 10 12  1  0
 10 13  1  0
 13 14  1  0
 14 15  2  0
 15 16  1  0
 16 17  2  0
 17 18  1  0
 18 19  1  0
 19 20  2  0
 20 21  1  0
 21 22  2  0
 22 23  1  0
 22 24  1  0
 24 25  2  0
  4 26  2  0
 26 27  1  0
 27  2  1  0
 15  8  1  0
 25 19  1  0
 18 14  1  0
  1 28  1  0
  1 29  1  0
  1 30  1  0
  3 31  1  0
  7 32  1  0
  8 33  1  0
  9 34  1  0
  9 35  1  0
 11 36  1  0
 11 37  1  0
 11 38  1  0
 12 39  1  0
 12 40  1  0
 12 41  1  0
 13 42  1  0
 13 43  1  0
 16 44  1  0
 20 45  1  0
 21 46  1  0
 24 47  1  0
 25 48  1  0
M  END
$$$$
