
     RDKit          3D

 48 49  0  0  0  0  0  0  0  0999 V2000
   -7.2424    0.8969    0.5440 C   0  0  0  0  0  0  0  0  0  0  0  0
   -6.5736    0.5188   -0.7695 C   0  0  0  0  0  0  0  0  0  0  0  0
   -5.1697    0.1476   -0.5894 N   0  0  0  0  0  0  0  0  0  0  0  0
   -4.8220   -1.2719   -0.7199 C   0  0  0  0  0  0  0  0  0  0  0  0
   -5.3153   -2.1108    0.4476 C   0  0  0  0  0  0  0  0  0  0  0  0
   -4.2451    1.1851   -0.4463 C   0  0  0  0  0  0  0  0  0  0  0  0
   -4.5363    2.3754   -0.5430 O   0  0  0  0  0  0  0  0  0  0  0  0
   -2.8323    0.8599   -0.1653 C   0  0  0  0  0  0  0  0  0  0  0  0
   -1.8531    1.2524   -1.0782 C   0  0  0  0  0  0  0  0  0  0  0  0
   -0.5101    0.9707   -0.8136 C   0  0  0  0  0  0  0  0  0  0  0  0
   -0.1368    0.3098    0.3658 C   0  0  0  0  0  0  0  0  0  0  0  0
    1.2351    0.0649    0.5529 N   0  0  0  0  0  0  0  0  0  0  0  0
    1.8555   -0.5797    1.6076 C   0  0  0  0  0  0  0  0  0  0  0  0
    1.3083   -1.0785    2.5871 O   0  0  0  0  0  0  0  0  0  0  0  0
    3.3805   -0.6318    1.4626 C   0  0  0  0  0  0  0  0  0  0  0  0
    3.7937   -0.0485    0.2299 O   0  0  0  0  0  0  0  0  0  0  0  0
    5.1324   -0.0104   -0.0529 C   0  0  0  0  0  0  0  0  0  0  0  0
    6.1365   -0.5088    0.7838 C   0  0  0  0  0  0  0  0  0  0  0  0
    7.4812   -0.4224    0.4035 C   0  0  0  0  0  0  0  0  0  0  0  0
    7.8238    0.1659   -0.8209 C   0  0  0  0  0  0  0  0  0  0  0  0
    9.2349    0.2542   -1.2169 N   0  0  0  0  0  4  0  0  0  0  0  0
   10.0803   -0.2026   -0.4354 O   0  0  0  0  0  0  0  0  0  0  0  0
    9.4938    0.7793   -2.3082 O   0  0  0  0  0  1  0  0  0  0  0  0
    6.8333    0.6691   -1.6690 C   0  0  0  0  0  0  0  0  0  0  0  0
    5.4953    0.5775   -1.2795 C   0  0  0  0  0  0  0  0  0  0  0  0
    4.2922    1.2093   -2.3519 Cl  0  0  0  0  0  0  0  0  0  0  0  0
   -1.1254   -0.0548    1.2840 C   0  0  0  0  0  0  0  0  0  0  0  0
   -2.4713    0.2269    1.0257 C   0  0  0  0  0  0  0  0  0  0  0  0
   -8.2909    1.1594    0.3728 H   0  0  0  0  0  0  0  0  0  0  0  0
   -6.7494    1.7559    1.0101 H   0  0  0  0  0  0  0  0  0  0  0  0
   -7.2102    0.0692    1.2589 H   0  0  0  0  0  0  0  0  0  0  0  0
   -6.6281    1.3680   -1.4606 H   0  0  0  0  0  0  0  0  0  0  0  0
   -7.1122   -0.3119   -1.2386 H   0  0  0  0  0  0  0  0  0  0  0  0
   -5.2631   -1.6366   -1.6551 H   0  0  0  0  0  0  0  0  0  0  0  0
   -3.7419   -1.3990   -0.8273 H   0  0  0  0  0  0  0  0  0  0  0  0
   -4.9403   -1.7276    1.4011 H   0  0  0  0  0  0  0  0  0  0  0  0
   -6.4086   -2.1184    0.4964 H   0  0  0  0  0  0  0  0  0  0  0  0
   -4.9796   -3.1466    0.3372 H   0  0  0  0  0  0  0  0  0  0  0  0
   -2.1338    1.7791   -1.9871 H   0  0  0  0  0  0  0  0  0  0  0  0
    0.2382    1.2812   -1.5391 H   0  0  0  0  0  0  0  0  0  0  0  0
    1.8646    0.3930   -0.1759 H   0  0  0  0  0  0  0  0  0  0  0  0
    3.6722   -1.6876    1.4962 H   0  0  0  0  0  0  0  0  0  0  0  0
    3.8036   -0.0746    2.3061 H   0  0  0  0  0  0  0  0  0  0  0  0
    5.9119   -0.9721    1.7406 H   0  0  0  0  0  0  0  0  0  0  0  0
    8.2451   -0.8177    1.0721 H   0  0  0  0  0  0  0  0  0  0  0  0
    7.0876    1.1281   -2.6221 H   0  0  0  0  0  0  0  0  0  0  0  0
   -0.8812   -0.5491    2.2193 H   0  0  0  0  0  0  0  0  0  0  0  0
   -3.2272   -0.0361    1.7604 H   0  0  0  0  0  0  0  0  0  0  0  0
  1  2  1  0
  2  3  1  0
  3  4  1  0
  4  5  1  0
  3  6  1  0
  6  7  2  0
  6  8  1  0
  8  9  2  0
  9 10  1  0
 10 11  2  0
 11 12  1  0
 12 13  1  0
 13 14  2  0
 13 15  1  0
 15 16  1  0
 16 17  1  0
 17 18  2  0
 18 19  1  0
 19 20  2  0
 20 21  1  0
 21 22  2  0
 21 23  1  0
 20 24  1  0
 24 25  2  0
 25 26  1  0
 11 27  1  0
 27 28  2  0
 28  8  1  0
 25 17  1  0
  1 29  1  0
  1 30  1  0
  1 31  1  0
  2 32  1  0
  2 33  1  0
  4 34  1  0
  4 35  1  0
  5 36  1  0
  5 37  1  0
  5 38  1  0
  9 39  1  0
 10 40  1  0
 12 41  1  0
 15 42  1  0
 15 43  1  0
 18 44  1  0
 19 45  1  0
 24 46  1  0
 27 47  1  0
 28 48  1  0
M  CHG  2  21   1  23  -1
M  END
$$$$
