
     RDKit          3D

 57 60  0  0  0  0  0  0  0  0999 V2000
   -8.6097    1.7172   -1.4376 C   0  0  0  0  0  0  0  0  0  0  0  0
   -7.3040    2.2784   -1.4860 O   0  0  0  0  0  0  0  0  0  0  0  0
   -6.2899    1.5541   -0.9223 C   0  0  0  0  0  0  0  0  0  0  0  0
   -5.0524    2.1991   -0.9177 C   0  0  0  0  0  0  0  0  0  0  0  0
   -3.9227    1.5821   -0.3749 C   0  0  0  0  0  0  0  0  0  0  0  0
   -4.0227    0.3045    0.1704 C   0  0  0  0  0  0  0  0  0  0  0  0
   -2.9346   -0.3971    0.7376 N   0  0  0  0  0  0  0  0  0  0  0  0
   -1.6295    0.0333    0.9054 C   0  0  0  0  0  0  0  0  0  0  0  0
   -1.1969    1.1446    0.6147 O   0  0  0  0  0  0  0  0  0  0  0  0
   -0.7513   -1.0264    1.5475 C   0  0  0  0  0  0  0  0  0  0  0  0
    0.5841   -1.0738    0.9685 N   0  0  0  0  0  0  0  0  0  0  0  0
    1.7163   -0.6391    1.6039 C   0  0  0  0  0  0  0  0  0  0  0  0
    2.7907   -0.9126    0.7832 C   0  0  0  0  0  0  0  0  0  0  0  0
    4.4423   -0.5099    1.1156 S   0  0  0  0  0  6  0  0  0  0  0  0
    4.4345   -0.1126    2.5111 O   0  0  0  0  0  0  0  0  0  0  0  0
    5.1931   -1.6553    0.6395 O   0  0  0  0  0  0  0  0  0  0  0  0
    4.7128    0.9110    0.0617 C   0  0  0  0  0  0  0  0  0  0  0  0
    6.1200    1.4103    0.2587 C   0  0  0  0  0  0  0  0  0  0  0  0
    6.3973    2.3970    1.2159 C   0  0  0  0  0  0  0  0  0  0  0  0
    7.7027    2.8529    1.4047 C   0  0  0  0  0  0  0  0  0  0  0  0
    8.7431    2.3265    0.6426 C   0  0  0  0  0  0  0  0  0  0  0  0
    8.4805    1.3414   -0.3073 C   0  0  0  0  0  0  0  0  0  0  0  0
    7.1762    0.8839   -0.4990 C   0  0  0  0  0  0  0  0  0  0  0  0
    2.2977   -1.5412   -0.3963 C   0  0  0  0  0  0  0  0  0  0  0  0
    2.8878   -2.0509   -1.5737 C   0  0  0  0  0  0  0  0  0  0  0  0
    2.0823   -2.6090   -2.5714 C   0  0  0  0  0  0  0  0  0  0  0  0
    0.7022   -2.6661   -2.4157 C   0  0  0  0  0  0  0  0  0  0  0  0
    0.0892   -2.1769   -1.2595 C   0  0  0  0  0  0  0  0  0  0  0  0
    0.9050   -1.6209   -0.2597 C   0  0  0  0  0  0  0  0  0  0  0  0
   -5.2707   -0.3569    0.1657 C   0  0  0  0  0  0  0  0  0  0  0  0
   -5.2632   -1.6170    0.7247 O   0  0  0  0  0  0  0  0  0  0  0  0
   -6.5056   -2.3088    0.7831 C   0  0  0  0  0  0  0  0  0  0  0  0
   -6.3976    0.2711   -0.3812 C   0  0  0  0  0  0  0  0  0  0  0  0
   -9.2997    2.4370   -1.8888 H   0  0  0  0  0  0  0  0  0  0  0  0
   -8.6628    0.7929   -2.0223 H   0  0  0  0  0  0  0  0  0  0  0  0
   -8.9303    1.5510   -0.4037 H   0  0  0  0  0  0  0  0  0  0  0  0
   -4.9629    3.1971   -1.3416 H   0  0  0  0  0  0  0  0  0  0  0  0
   -2.9847    2.1267   -0.3982 H   0  0  0  0  0  0  0  0  0  0  0  0
   -3.1945   -1.3215    1.0699 H   0  0  0  0  0  0  0  0  0  0  0  0
   -0.6612   -0.8031    2.6159 H   0  0  0  0  0  0  0  0  0  0  0  0
   -1.1799   -2.0288    1.4446 H   0  0  0  0  0  0  0  0  0  0  0  0
    1.6785   -0.1704    2.5800 H   0  0  0  0  0  0  0  0  0  0  0  0
    4.5489    0.6138   -0.9784 H   0  0  0  0  0  0  0  0  0  0  0  0
    3.9823    1.6815    0.3281 H   0  0  0  0  0  0  0  0  0  0  0  0
    5.6004    2.8110    1.8315 H   0  0  0  0  0  0  0  0  0  0  0  0
    7.9087    3.6139    2.1531 H   0  0  0  0  0  0  0  0  0  0  0  0
    9.7602    2.6777    0.7948 H   0  0  0  0  0  0  0  0  0  0  0  0
    9.2943    0.9229   -0.8943 H   0  0  0  0  0  0  0  0  0  0  0  0
    6.9948    0.1039   -1.2364 H   0  0  0  0  0  0  0  0  0  0  0  0
    3.9662   -2.0301   -1.7096 H   0  0  0  0  0  0  0  0  0  0  0  0
    2.5422   -3.0035   -3.4743 H   0  0  0  0  0  0  0  0  0  0  0  0
    0.0905   -3.0997   -3.2037 H   0  0  0  0  0  0  0  0  0  0  0  0
   -0.9900   -2.2266   -1.1558 H   0  0  0  0  0  0  0  0  0  0  0  0
   -7.2386   -1.7563    1.3805 H   0  0  0  0  0  0  0  0  0  0  0  0
   -6.8861   -2.5186   -0.2218 H   0  0  0  0  0  0  0  0  0  0  0  0
   -6.3303   -3.2680    1.2801 H   0  0  0  0  0  0  0  0  0  0  0  0
   -7.3530   -0.2358   -0.3899 H   0  0  0  0  0  0  0  0  0  0  0  0
  1  2  1  0
  2  3  1  0
  3  4  2  0
  4  5  1  0
  5  6  2  0
  6  7  1  0
  7  8  1  0
  8  9  2  0
  8 10  1  0
 10 11  1  0
 11 12  1  0
 12 13  2  0
 13 14  1  0
 14 15  2  0
 14 16  2  0
 14 17  1  0
 17 18  1  0
 18 19  2  0
 19 20  1  0
 20 21  2  0
 21 22  1  0
 22 23  2  0
 13 24  1  0
 24 25  2  0
 25 26  1  0
 26 27  2  0
 27 28  1  0
 28 29  2  0
  6 30  1  0
 30 31  1  0
 31 32  1  0
 30 33  2  0
 33  3  1  0
 29 11  1  0
 23 18  1  0
 29 24  1  0
  1 34  1  0
  1 35  1  0
  1 36  1  0
  4 37  1  0
  5 38  1  0
  7 39  1  0
 10 40  1  0
 10 41  1  0
 12 42  1  0
 17 43  1  0
 17 44  1  0
 19 45  1  0
 20 46  1  0
 21 47  1  0
 22 48  1  0
 23 49  1  0
 25 50  1  0
 26 51  1  0
 27 52  1  0
 28 53  1  0
 32 54  1  0
 32 55  1  0
 32 56  1  0
 33 57  1  0
M  END
$$$$
