
     RDKit          3D

 39 40  0  0  0  0  0  0  0  0999 V2000
   -2.8507    3.6668    1.6019 C   0  0  0  0  0  0  0  0  0  0  0  0
   -1.9949    3.3850    0.3999 C   0  0  0  0  0  0  0  0  0  0  0  0
   -1.1093    4.1497    0.0307 O   0  0  0  0  0  0  0  0  0  0  0  0
   -2.3121    2.2194   -0.2517 N   0  0  0  0  0  0  0  0  0  0  0  0
   -1.3328    1.3828   -0.4463 C   0  0  0  0  0  0  0  0  0  0  0  0
   -1.5630    0.0956   -1.2001 C   0  0  0  0  0  0  0  0  0  0  0  0
   -1.8076   -1.0662   -0.2701 C   0  0  0  0  0  0  0  0  0  0  0  0
   -0.7397   -1.8119    0.2477 C   0  0  0  0  0  0  0  0  0  0  0  0
   -0.9796   -2.8584    1.1418 C   0  0  0  0  0  0  0  0  0  0  0  0
   -2.2856   -3.1704    1.5228 C   0  0  0  0  0  0  0  0  0  0  0  0
   -3.3547   -2.4361    1.0100 C   0  0  0  0  0  0  0  0  0  0  0  0
   -3.1174   -1.3859    0.1224 C   0  0  0  0  0  0  0  0  0  0  0  0
    0.0750    1.5805    0.0885 C   0  0  0  0  0  0  0  0  0  0  0  0
    0.3225    1.5460    1.2806 O   0  0  0  0  0  0  0  0  0  0  0  0
    0.9128    1.7502   -0.9507 O   0  0  0  0  0  0  0  0  0  0  0  0
    2.2995    1.7991   -0.6038 C   0  0  0  0  0  0  0  0  0  0  0  0
    2.8646    0.4075   -0.7281 C   0  0  0  0  0  0  0  0  0  0  0  0
    3.2227   -0.3225    0.4121 C   0  0  0  0  0  0  0  0  0  0  0  0
    3.6964   -1.6298    0.2914 C   0  0  0  0  0  0  0  0  0  0  0  0
    3.8101   -2.2198   -0.9685 C   0  0  0  0  0  0  0  0  0  0  0  0
    3.4562   -1.5043   -2.1077 C   0  0  0  0  0  0  0  0  0  0  0  0
    2.9861   -0.1955   -1.9903 C   0  0  0  0  0  0  0  0  0  0  0  0
   -2.6355    2.9339    2.3835 H   0  0  0  0  0  0  0  0  0  0  0  0
   -2.6270    4.6693    1.9806 H   0  0  0  0  0  0  0  0  0  0  0  0
   -3.9072    3.6229    1.3237 H   0  0  0  0  0  0  0  0  0  0  0  0
   -2.4309    0.2294   -1.8592 H   0  0  0  0  0  0  0  0  0  0  0  0
   -0.7133   -0.1120   -1.8599 H   0  0  0  0  0  0  0  0  0  0  0  0
    0.2871   -1.5869   -0.0325 H   0  0  0  0  0  0  0  0  0  0  0  0
   -0.1458   -3.4265    1.5472 H   0  0  0  0  0  0  0  0  0  0  0  0
   -2.4712   -3.9845    2.2206 H   0  0  0  0  0  0  0  0  0  0  0  0
   -4.3747   -2.6775    1.3057 H   0  0  0  0  0  0  0  0  0  0  0  0
   -3.9614   -0.8167   -0.2626 H   0  0  0  0  0  0  0  0  0  0  0  0
    2.8005    2.4626   -1.3167 H   0  0  0  0  0  0  0  0  0  0  0  0
    2.4659    2.2289    0.3916 H   0  0  0  0  0  0  0  0  0  0  0  0
    3.1243    0.1171    1.4046 H   0  0  0  0  0  0  0  0  0  0  0  0
    3.9718   -2.1892    1.1803 H   0  0  0  0  0  0  0  0  0  0  0  0
    4.1734   -3.2386   -1.0607 H   0  0  0  0  0  0  0  0  0  0  0  0
    3.5407   -1.9644   -3.0907 H   0  0  0  0  0  0  0  0  0  0  0  0
    2.7045    0.3506   -2.8881 H   0  0  0  0  0  0  0  0  0  0  0  0
  1  2  1  0
  2  3  2  0
  2  4  1  0
  4  5  2  3
  5  6  1  0
  6  7  1  0
  7  8  2  0
  8  9  1  0
  9 10  2  0
 10 11  1  0
 11 12  2  0
  5 13  1  0
 13 14  2  0
 13 15  1  0
 15 16  1  0
 16 17  1  0
 17 18  2  0
 18 19  1  0
 19 20  2  0
 20 21  1  0
 21 22  2  0
 12  7  1  0
 22 17  1  0
  1 23  1  0
  1 24  1  0
  1 25  1  0
  6 26  1  0
  6 27  1  0
  8 28  1  0
  9 29  1  0
 10 30  1  0
 11 31  1  0
 12 32  1  0
 16 33  1  0
 16 34  1  0
 18 35  1  0
 19 36  1  0
 20 37  1  0
 21 38  1  0
 22 39  1  0
M  END
$$$$
