
     RDKit          3D

 74 75  0  0  0  0  0  0  0  0999 V2000
   -1.0045    4.2965    5.9260 C   0  0  0  0  0  0  0  0  0  0  0  0
   -1.2756    3.0788    5.2432 O   0  0  0  0  0  0  0  0  0  0  0  0
   -0.4522    2.7367    4.2004 C   0  0  0  0  0  0  0  0  0  0  0  0
    0.7602    3.3789    3.9347 C   0  0  0  0  0  0  0  0  0  0  0  0
    1.5756    2.9407    2.8959 C   0  0  0  0  0  0  0  0  0  0  0  0
    1.1900    1.8491    2.1234 C   0  0  0  0  0  0  0  0  0  0  0  0
   -0.0326    1.1773    2.3497 C   0  0  0  0  0  0  0  0  0  0  0  0
   -0.3277   -0.0346    1.4518 C   0  0  0  0  0  0  0  0  0  0  0  0
   -1.5313   -0.9715    1.7734 C   0  0  0  0  0  0  0  0  0  0  0  0
   -2.5265   -1.0660    1.0572 O   0  0  0  0  0  0  0  0  0  0  0  0
   -1.3586   -1.7410    2.9196 N   0  0  0  0  0  0  0  0  0  0  0  0
   -2.3359   -2.7180    3.4242 C   0  0  0  0  0  0  0  0  0  0  0  0
   -3.6277   -2.0257    3.8774 C   0  0  0  0  0  0  0  0  0  0  0  0
   -2.6548   -3.7910    2.3700 C   0  0  0  0  0  0  0  0  0  0  0  0
   -1.7056   -3.4214    4.6397 C   0  0  0  0  0  0  0  0  0  0  0  0
   -0.1679    0.2547   -0.0204 N   0  0  0  0  0  0  0  0  0  0  0  0
    0.7174   -0.6293   -0.6642 C   0  0  0  0  0  0  0  0  0  0  0  0
    1.1773   -1.6213   -0.0880 O   0  0  0  0  0  0  0  0  0  0  0  0
    1.2114   -0.3159   -2.0638 C   0  0  0  0  0  0  0  0  0  0  0  0
    2.1288   -1.4182   -2.5940 C   0  0  0  0  0  0  0  0  0  0  0  0
    2.6708   -1.0862   -3.9711 C   0  0  0  0  0  0  0  0  0  0  0  0
    2.3790   -0.0518   -4.5627 O   0  0  0  0  0  0  0  0  0  0  0  0
    3.5030   -2.0752   -4.4427 N   0  0  0  0  0  0  0  0  0  0  0  0
    4.1766   -2.0460   -5.6435 C   0  0  0  0  0  0  0  0  0  0  0  0
    4.1876   -1.0506   -6.6451 C   0  0  0  0  0  0  0  0  0  0  0  0
    5.0287   -1.5434   -7.6122 C   0  0  0  0  0  0  0  0  0  0  0  0
    5.5036   -1.0458   -8.9134 C   0  0  0  0  0  0  0  0  0  0  0  0
    5.5058   -2.7503   -7.2113 O   0  0  0  0  0  0  0  0  0  0  0  0
    4.9693   -3.0700   -5.9788 N   0  0  0  0  0  0  0  0  0  0  0  0
   -1.1064    1.2197   -0.7373 C   0  0  0  0  0  0  0  0  0  0  0  0
   -0.3126    2.2735   -1.5452 C   0  0  0  0  0  0  0  0  0  0  0  0
   -2.0195    2.0552    0.1970 C   0  0  0  0  0  0  0  0  0  0  0  0
   -2.0720    0.4608   -1.6799 C   0  0  0  0  0  0  0  0  0  0  0  0
   -0.8553    1.6455    3.3936 C   0  0  0  0  0  0  0  0  0  0  0  0
   -2.0147    0.9565    3.6338 O   0  0  0  0  0  0  0  0  0  0  0  0
   -3.1876    1.7694    3.7083 C   0  0  0  0  0  0  0  0  0  0  0  0
   -0.9608    5.1445    5.2322 H   0  0  0  0  0  0  0  0  0  0  0  0
   -1.8304    4.4819    6.6188 H   0  0  0  0  0  0  0  0  0  0  0  0
   -0.0867    4.2155    6.5162 H   0  0  0  0  0  0  0  0  0  0  0  0
    1.1111    4.2136    4.5317 H   0  0  0  0  0  0  0  0  0  0  0  0
    2.5206    3.4389    2.6980 H   0  0  0  0  0  0  0  0  0  0  0  0
    1.8578    1.5108    1.3321 H   0  0  0  0  0  0  0  0  0  0  0  0
    0.5178   -0.6792    1.7377 H   0  0  0  0  0  0  0  0  0  0  0  0
   -0.7570   -1.3152    3.6151 H   0  0  0  0  0  0  0  0  0  0  0  0
   -4.3400   -2.7488    4.2935 H   0  0  0  0  0  0  0  0  0  0  0  0
   -3.4204   -1.2793    4.6518 H   0  0  0  0  0  0  0  0  0  0  0  0
   -4.1286   -1.5093    3.0514 H   0  0  0  0  0  0  0  0  0  0  0  0
   -3.1982   -3.3807    1.5141 H   0  0  0  0  0  0  0  0  0  0  0  0
   -1.7375   -4.2530    1.9883 H   0  0  0  0  0  0  0  0  0  0  0  0
   -3.2812   -4.5857    2.7926 H   0  0  0  0  0  0  0  0  0  0  0  0
   -0.7704   -3.9228    4.3644 H   0  0  0  0  0  0  0  0  0  0  0  0
   -2.3800   -4.1750    5.0630 H   0  0  0  0  0  0  0  0  0  0  0  0
   -1.4645   -2.7036    5.4332 H   0  0  0  0  0  0  0  0  0  0  0  0
    1.7771    0.6212   -2.0208 H   0  0  0  0  0  0  0  0  0  0  0  0
    0.3807   -0.2100   -2.7603 H   0  0  0  0  0  0  0  0  0  0  0  0
    1.5745   -2.3623   -2.6595 H   0  0  0  0  0  0  0  0  0  0  0  0
    2.9779   -1.5682   -1.9163 H   0  0  0  0  0  0  0  0  0  0  0  0
    3.6717   -2.9113   -3.8979 H   0  0  0  0  0  0  0  0  0  0  0  0
    3.6651   -0.1049   -6.6654 H   0  0  0  0  0  0  0  0  0  0  0  0
    6.5074   -0.6227   -8.8146 H   0  0  0  0  0  0  0  0  0  0  0  0
    4.8395   -0.2675   -9.3031 H   0  0  0  0  0  0  0  0  0  0  0  0
    5.5462   -1.8538   -9.6510 H   0  0  0  0  0  0  0  0  0  0  0  0
   -0.9312    3.1466   -1.7871 H   0  0  0  0  0  0  0  0  0  0  0  0
    0.5522    2.6353   -0.9795 H   0  0  0  0  0  0  0  0  0  0  0  0
    0.0356    1.9016   -2.5103 H   0  0  0  0  0  0  0  0  0  0  0  0
   -1.4461    2.7652    0.7992 H   0  0  0  0  0  0  0  0  0  0  0  0
   -2.7269    2.6590   -0.3871 H   0  0  0  0  0  0  0  0  0  0  0  0
   -2.6240    1.4331    0.8590 H   0  0  0  0  0  0  0  0  0  0  0  0
   -2.5861    1.1529   -2.3559 H   0  0  0  0  0  0  0  0  0  0  0  0
   -1.5829   -0.2927   -2.2946 H   0  0  0  0  0  0  0  0  0  0  0  0
   -2.8484   -0.0670   -1.1194 H   0  0  0  0  0  0  0  0  0  0  0  0
   -3.0876    2.7222    3.1743 H   0  0  0  0  0  0  0  0  0  0  0  0
   -4.0067    1.2110    3.2437 H   0  0  0  0  0  0  0  0  0  0  0  0
   -3.4558    1.9398    4.7558 H   0  0  0  0  0  0  0  0  0  0  0  0
  1  2  1  0
  2  3  1  0
  3  4  2  0
  4  5  1  0
  5  6  2  0
  6  7  1  0
  7  8  1  0
  8  9  1  0
  9 10  2  0
  9 11  1  0
 11 12  1  0
 12 13  1  0
 12 14  1  0
 12 15  1  0
  8 16  1  0
 16 17  1  0
 17 18  2  0
 17 19  1  0
 19 20  1  0
 20 21  1  0
 21 22  2  0
 21 23  1  0
 23 24  1  0
 24 25  1  0
 25 26  2  0
 26 27  1  0
 26 28  1  0
 28 29  1  0
 16 30  1  0
 30 31  1  0
 30 32  1  0
 30 33  1  0
  7 34  2  0
 34 35  1  0
 35 36  1  0
 34  3  1  0
 29 24  2  0
  1 37  1  0
  1 38  1  0
  1 39  1  0
  4 40  1  0
  5 41  1  0
  6 42  1  0
  8 43  1  0
 11 44  1  0
 13 45  1  0
 13 46  1  0
 13 47  1  0
 14 48  1  0
 14 49  1  0
 14 50  1  0
 15 51  1  0
 15 52  1  0
 15 53  1  0
 19 54  1  0
 19 55  1  0
 20 56  1  0
 20 57  1  0
 23 58  1  0
 25 59  1  0
 27 60  1  0
 27 61  1  0
 27 62  1  0
 31 63  1  0
 31 64  1  0
 31 65  1  0
 32 66  1  0
 32 67  1  0
 32 68  1  0
 33 69  1  0
 33 70  1  0
 33 71  1  0
 36 72  1  0
 36 73  1  0
 36 74  1  0
M  END
$$$$
