
     RDKit          3D

 49 50  0  0  0  0  0  0  0  0999 V2000
    6.6879   -1.3206   -0.6518 C   0  0  0  0  0  0  0  0  0  0  0  0
    6.0060   -0.4201    0.3610 C   0  0  0  0  0  0  0  0  0  0  0  0
    4.7557    0.0503   -0.1590 O   0  0  0  0  0  0  0  0  0  0  0  0
    3.6766   -0.7615    0.0454 C   0  0  0  0  0  0  0  0  0  0  0  0
    3.7403   -1.8348    0.6360 O   0  0  0  0  0  0  0  0  0  0  0  0
    2.4318   -0.2101   -0.5129 C   0  0  0  0  0  0  0  0  0  0  0  0
    2.2514    0.9306   -1.3746 C   0  0  0  0  0  0  0  0  0  0  0  0
    3.3296    1.8141   -1.9098 C   0  0  0  0  0  0  0  0  0  0  0  0
    0.8909    1.0571   -1.6229 C   0  0  0  0  0  0  0  0  0  0  0  0
    0.1624    2.0826   -2.4285 C   0  0  0  0  0  0  0  0  0  0  0  0
    0.2447    0.0131   -0.9892 N   0  0  0  0  0  0  0  0  0  0  0  0
   -1.1912   -0.2791   -1.0984 C   0  0  0  0  0  0  0  0  0  0  0  0
   -2.0404    0.2549    0.0375 C   0  0  0  0  0  0  0  0  0  0  0  0
   -1.5693    1.1867    0.9745 C   0  0  0  0  0  0  0  0  0  0  0  0
   -2.4027    1.6660    1.9843 C   0  0  0  0  0  0  0  0  0  0  0  0
   -3.7299    1.2433    2.0651 C   0  0  0  0  0  0  0  0  0  0  0  0
   -4.2388    0.3309    1.1379 C   0  0  0  0  0  0  0  0  0  0  0  0
   -5.5392   -0.1012    1.1173 O   0  0  0  0  0  0  0  0  0  0  0  0
   -6.4552    0.5245    2.0060 C   0  0  0  0  0  0  0  0  0  0  0  0
   -3.3791   -0.1790    0.1435 C   0  0  0  0  0  0  0  0  0  0  0  0
   -3.8060   -1.0637   -0.8228 O   0  0  0  0  0  0  0  0  0  0  0  0
   -4.3436   -2.2682   -0.2762 C   0  0  0  0  0  0  0  0  0  0  0  0
    1.1625   -0.7422   -0.2853 C   0  0  0  0  0  0  0  0  0  0  0  0
    0.7828   -1.9217    0.5527 C   0  0  0  0  0  0  0  0  0  0  0  0
    6.0878   -2.2142   -0.8508 H   0  0  0  0  0  0  0  0  0  0  0  0
    6.8103   -0.8003   -1.6075 H   0  0  0  0  0  0  0  0  0  0  0  0
    7.6719   -1.6340   -0.2918 H   0  0  0  0  0  0  0  0  0  0  0  0
    5.8758   -0.9242    1.3255 H   0  0  0  0  0  0  0  0  0  0  0  0
    6.6277    0.4626    0.5434 H   0  0  0  0  0  0  0  0  0  0  0  0
    4.1178    1.2180   -2.3807 H   0  0  0  0  0  0  0  0  0  0  0  0
    3.7678    2.4106   -1.1035 H   0  0  0  0  0  0  0  0  0  0  0  0
    2.9562    2.5037   -2.6719 H   0  0  0  0  0  0  0  0  0  0  0  0
    0.7638    2.9856   -2.5662 H   0  0  0  0  0  0  0  0  0  0  0  0
   -0.7636    2.3941   -1.9356 H   0  0  0  0  0  0  0  0  0  0  0  0
   -0.0826    1.6828   -3.4173 H   0  0  0  0  0  0  0  0  0  0  0  0
   -1.2757   -1.3698   -1.1704 H   0  0  0  0  0  0  0  0  0  0  0  0
   -1.5453    0.1326   -2.0497 H   0  0  0  0  0  0  0  0  0  0  0  0
   -0.5456    1.5546    0.9363 H   0  0  0  0  0  0  0  0  0  0  0  0
   -2.0167    2.3820    2.7064 H   0  0  0  0  0  0  0  0  0  0  0  0
   -4.3413    1.6536    2.8616 H   0  0  0  0  0  0  0  0  0  0  0  0
   -6.5000    1.6054    1.8358 H   0  0  0  0  0  0  0  0  0  0  0  0
   -6.2092    0.2961    3.0480 H   0  0  0  0  0  0  0  0  0  0  0  0
   -7.4496    0.1151    1.8028 H   0  0  0  0  0  0  0  0  0  0  0  0
   -4.0908   -3.0833   -0.9614 H   0  0  0  0  0  0  0  0  0  0  0  0
   -3.9240   -2.5166    0.7057 H   0  0  0  0  0  0  0  0  0  0  0  0
   -5.4344   -2.2054   -0.2260 H   0  0  0  0  0  0  0  0  0  0  0  0
    1.0431   -2.8492    0.0331 H   0  0  0  0  0  0  0  0  0  0  0  0
   -0.2832   -1.9533    0.7903 H   0  0  0  0  0  0  0  0  0  0  0  0
    1.3121   -1.8984    1.5108 H   0  0  0  0  0  0  0  0  0  0  0  0
  1  2  1  0
  2  3  1  0
  3  4  1  0
  4  5  2  0
  4  6  1  0
  6  7  1  0
  7  8  1  0
  7  9  2  0
  9 10  1  0
  9 11  1  0
 11 12  1  0
 12 13  1  0
 13 14  2  0
 14 15  1  0
 15 16  2  0
 16 17  1  0
 17 18  1  0
 18 19  1  0
 17 20  2  0
 20 21  1  0
 21 22  1  0
 11 23  1  0
 23 24  1  0
 23  6  2  0
 20 13  1  0
  1 25  1  0
  1 26  1  0
  1 27  1  0
  2 28  1  0
  2 29  1  0
  8 30  1  0
  8 31  1  0
  8 32  1  0
 10 33  1  0
 10 34  1  0
 10 35  1  0
 12 36  1  0
 12 37  1  0
 14 38  1  0
 15 39  1  0
 16 40  1  0
 19 41  1  0
 19 42  1  0
 19 43  1  0
 22 44  1  0
 22 45  1  0
 22 46  1  0
 24 47  1  0
 24 48  1  0
 24 49  1  0
M  END
$$$$
