
     RDKit          3D

 55 58  0  0  0  0  0  0  0  0999 V2000
    7.1913    0.5814   -1.7373 C   0  0  0  0  0  0  0  0  0  0  0  0
    6.8321    0.7134   -0.2641 C   0  0  0  0  0  0  0  0  0  0  0  0
    5.9653   -0.3908    0.1682 N   0  0  0  0  0  0  0  0  0  0  0  0
    6.6539   -1.5635    0.7226 C   0  0  0  0  0  0  0  0  0  0  0  0
    6.7986   -1.4498    2.2336 C   0  0  0  0  0  0  0  0  0  0  0  0
    4.5794   -0.3238    0.0696 C   0  0  0  0  0  0  0  0  0  0  0  0
    3.9207    0.7370   -0.5753 C   0  0  0  0  0  0  0  0  0  0  0  0
    2.5212    0.8123   -0.6772 C   0  0  0  0  0  0  0  0  0  0  0  0
    1.7127   -0.1770   -0.1223 C   0  0  0  0  0  0  0  0  0  0  0  0
    0.2474   -0.1588   -0.2303 C   0  0  0  0  0  0  0  0  0  0  0  0
   -0.4914    0.9605   -0.1486 C   0  0  0  0  0  0  0  0  0  0  0  0
   -1.9533    1.0341   -0.2598 C   0  0  0  0  0  0  0  0  0  0  0  0
   -2.7977   -0.0152    0.0630 C   0  0  0  0  0  0  0  0  0  0  0  0
   -4.1832    0.1577   -0.0511 C   0  0  0  0  0  0  0  0  0  0  0  0
   -5.0602   -0.9714    0.2911 C   0  0  0  0  0  0  0  0  0  0  0  0
   -5.4378   -1.9058   -0.6853 C   0  0  0  0  0  0  0  0  0  0  0  0
   -6.2684   -2.9800   -0.3595 C   0  0  0  0  0  0  0  0  0  0  0  0
   -6.7294   -3.1339    0.9465 C   0  0  0  0  0  0  0  0  0  0  0  0
   -6.3608   -2.2155    1.9277 C   0  0  0  0  0  0  0  0  0  0  0  0
   -5.5303   -1.1410    1.6024 C   0  0  0  0  0  0  0  0  0  0  0  0
   -4.6844    1.4102   -0.4859 C   0  0  0  0  0  0  0  0  0  0  0  0
   -6.0627    1.7009   -0.6406 C   0  0  0  0  0  0  0  0  0  0  0  0
   -6.4936    2.9553   -1.0690 C   0  0  0  0  0  0  0  0  0  0  0  0
   -5.5571    3.9391   -1.3492 C   0  0  0  0  0  0  0  0  0  0  0  0
   -4.1969    3.6607   -1.1991 C   0  0  0  0  0  0  0  0  0  0  0  0
   -3.7413    2.4193   -0.7749 C   0  0  0  0  0  0  0  0  0  0  0  0
   -2.4164    2.2379   -0.6585 N   0  0  0  0  0  0  0  0  0  0  0  0
    2.3369   -1.2510    0.5081 C   0  0  0  0  0  0  0  0  0  0  0  0
    3.7374   -1.3142    0.6032 C   0  0  0  0  0  0  0  0  0  0  0  0
    7.7091   -0.3635   -1.9325 H   0  0  0  0  0  0  0  0  0  0  0  0
    6.3035    0.6104   -2.3761 H   0  0  0  0  0  0  0  0  0  0  0  0
    7.8532    1.3991   -2.0392 H   0  0  0  0  0  0  0  0  0  0  0  0
    7.7614    0.7030    0.3199 H   0  0  0  0  0  0  0  0  0  0  0  0
    6.3834    1.6911   -0.0552 H   0  0  0  0  0  0  0  0  0  0  0  0
    6.1549   -2.4987    0.4453 H   0  0  0  0  0  0  0  0  0  0  0  0
    7.6573   -1.6427    0.2848 H   0  0  0  0  0  0  0  0  0  0  0  0
    5.8262   -1.3937    2.7319 H   0  0  0  0  0  0  0  0  0  0  0  0
    7.3636   -0.5529    2.5082 H   0  0  0  0  0  0  0  0  0  0  0  0
    7.3321   -2.3202    2.6282 H   0  0  0  0  0  0  0  0  0  0  0  0
    4.4797    1.5427   -1.0404 H   0  0  0  0  0  0  0  0  0  0  0  0
    2.0842    1.6532   -1.2104 H   0  0  0  0  0  0  0  0  0  0  0  0
   -0.2154   -1.1301   -0.3811 H   0  0  0  0  0  0  0  0  0  0  0  0
   -0.0183    1.9289   -0.0049 H   0  0  0  0  0  0  0  0  0  0  0  0
   -2.4010   -0.9629    0.4127 H   0  0  0  0  0  0  0  0  0  0  0  0
   -5.0859   -1.7968   -1.7094 H   0  0  0  0  0  0  0  0  0  0  0  0
   -6.5548   -3.6960   -1.1256 H   0  0  0  0  0  0  0  0  0  0  0  0
   -7.3757   -3.9703    1.2000 H   0  0  0  0  0  0  0  0  0  0  0  0
   -6.7192   -2.3348    2.9469 H   0  0  0  0  0  0  0  0  0  0  0  0
   -5.2508   -0.4307    2.3780 H   0  0  0  0  0  0  0  0  0  0  0  0
   -6.8143    0.9438   -0.4254 H   0  0  0  0  0  0  0  0  0  0  0  0
   -7.5551    3.1592   -1.1817 H   0  0  0  0  0  0  0  0  0  0  0  0
   -5.8762    4.9225   -1.6839 H   0  0  0  0  0  0  0  0  0  0  0  0
   -3.4676    4.4369   -1.4209 H   0  0  0  0  0  0  0  0  0  0  0  0
    1.7478   -2.0525    0.9474 H   0  0  0  0  0  0  0  0  0  0  0  0
    4.1458   -2.1730    1.1261 H   0  0  0  0  0  0  0  0  0  0  0  0
  1  2  1  0
  2  3  1  0
  3  4  1  0
  4  5  1  0
  3  6  1  0
  6  7  2  0
  7  8  1  0
  8  9  2  0
  9 10  1  0
 10 11  2  3
 11 12  1  0
 12 13  2  0
 13 14  1  0
 14 15  1  0
 15 16  2  0
 16 17  1  0
 17 18  2  0
 18 19  1  0
 19 20  2  0
 14 21  2  0
 21 22  1  0
 22 23  2  0
 23 24  1  0
 24 25  2  0
 25 26  1  0
 26 27  2  0
  9 28  1  0
 28 29  2  0
 29  6  1  0
 27 12  1  0
 20 15  1  0
 26 21  1  0
  1 30  1  0
  1 31  1  0
  1 32  1  0
  2 33  1  0
  2 34  1  0
  4 35  1  0
  4 36  1  0
  5 37  1  0
  5 38  1  0
  5 39  1  0
  7 40  1  0
  8 41  1  0
 10 42  1  0
 11 43  1  0
 13 44  1  0
 16 45  1  0
 17 46  1  0
 18 47  1  0
 19 48  1  0
 20 49  1  0
 22 50  1  0
 23 51  1  0
 24 52  1  0
 25 53  1  0
 28 54  1  0
 29 55  1  0
M  END
$$$$
