
     RDKit          3D

 58 61  0  0  0  0  0  0  0  0999 V2000
   -4.0117    6.3565    0.5595 C   0  0  0  0  0  0  0  0  0  0  0  0
   -3.0831    5.2905    0.4082 O   0  0  0  0  0  0  0  0  0  0  0  0
   -3.5078    4.0416    0.7716 C   0  0  0  0  0  0  0  0  0  0  0  0
   -4.7535    3.7226    1.2946 C   0  0  0  0  0  0  0  0  0  0  0  0
   -5.0698    2.4006    1.6281 C   0  0  0  0  0  0  0  0  0  0  0  0
   -4.1084    1.3908    1.4303 C   0  0  0  0  0  0  0  0  0  0  0  0
   -4.2875   -0.2835    1.7701 S   0  0  0  0  0  0  0  0  0  0  0  0
   -2.7070   -0.6499    1.2317 C   0  0  0  0  0  0  0  0  0  0  0  0
   -2.2497   -2.0438    1.3122 C   0  0  0  0  0  0  0  0  0  0  0  0
   -1.4776   -2.4340    2.4188 C   0  0  0  0  0  0  0  0  0  0  0  0
   -1.0142   -3.7432    2.5334 C   0  0  0  0  0  0  0  0  0  0  0  0
   -1.3161   -4.6720    1.5421 C   0  0  0  0  0  0  0  0  0  0  0  0
   -2.0791   -4.2960    0.4326 C   0  0  0  0  0  0  0  0  0  0  0  0
   -2.5512   -2.9841    0.3052 C   0  0  0  0  0  0  0  0  0  0  0  0
   -3.2891   -2.5261   -0.7578 O   0  0  0  0  0  0  0  0  0  0  0  0
   -3.6750   -3.4704   -1.7462 C   0  0  0  0  0  0  0  0  0  0  0  0
   -2.0363    0.4829    0.8006 C   0  0  0  0  0  0  0  0  0  0  0  0
   -0.6627    0.4208    0.3140 C   0  0  0  0  0  0  0  0  0  0  0  0
    0.3736    0.9767    1.0713 C   0  0  0  0  0  0  0  0  0  0  0  0
    1.6939    0.9266    0.6093 C   0  0  0  0  0  0  0  0  0  0  0  0
    1.9860    0.3221   -0.6139 C   0  0  0  0  0  0  0  0  0  0  0  0
    3.2257    0.2056   -1.1787 O   0  0  0  0  0  0  0  0  0  0  0  0
    4.3294    0.7487   -0.4488 C   0  0  0  0  0  0  0  0  0  0  0  0
    5.6310    0.5134   -1.2398 C   0  0  0  0  0  0  0  0  0  0  0  0
    6.2796   -0.7949   -0.9955 N   0  0  0  0  0  0  0  0  0  0  0  0
    7.5565   -0.8576   -1.7115 C   0  0  0  0  0  0  0  0  0  0  0  0
    5.4260   -1.9125   -1.4065 C   0  0  0  0  0  0  0  0  0  0  0  0
    0.9480   -0.2285   -1.3703 C   0  0  0  0  0  0  0  0  0  0  0  0
   -0.3710   -0.1793   -0.9135 C   0  0  0  0  0  0  0  0  0  0  0  0
   -2.8454    1.6767    0.9104 C   0  0  0  0  0  0  0  0  0  0  0  0
   -2.5613    3.0280    0.5795 C   0  0  0  0  0  0  0  0  0  0  0  0
   -3.5247    7.2751    0.2181 H   0  0  0  0  0  0  0  0  0  0  0  0
   -4.2847    6.4956    1.6107 H   0  0  0  0  0  0  0  0  0  0  0  0
   -4.8989    6.1991   -0.0628 H   0  0  0  0  0  0  0  0  0  0  0  0
   -5.5149    4.4781    1.4590 H   0  0  0  0  0  0  0  0  0  0  0  0
   -6.0477    2.1573    2.0346 H   0  0  0  0  0  0  0  0  0  0  0  0
   -1.2346   -1.7123    3.1955 H   0  0  0  0  0  0  0  0  0  0  0  0
   -0.4168   -4.0353    3.3930 H   0  0  0  0  0  0  0  0  0  0  0  0
   -0.9530   -5.6932    1.6285 H   0  0  0  0  0  0  0  0  0  0  0  0
   -2.2816   -5.0520   -0.3184 H   0  0  0  0  0  0  0  0  0  0  0  0
   -4.2872   -2.9471   -2.4870 H   0  0  0  0  0  0  0  0  0  0  0  0
   -2.8006   -3.8761   -2.2654 H   0  0  0  0  0  0  0  0  0  0  0  0
   -4.2869   -4.2694   -1.3144 H   0  0  0  0  0  0  0  0  0  0  0  0
    0.1609    1.4491    2.0277 H   0  0  0  0  0  0  0  0  0  0  0  0
    2.4662    1.3675    1.2301 H   0  0  0  0  0  0  0  0  0  0  0  0
    4.4065    0.2943    0.5467 H   0  0  0  0  0  0  0  0  0  0  0  0
    4.1865    1.8314   -0.3438 H   0  0  0  0  0  0  0  0  0  0  0  0
    6.3362    1.2917   -0.9213 H   0  0  0  0  0  0  0  0  0  0  0  0
    5.4436    0.6529   -2.3125 H   0  0  0  0  0  0  0  0  0  0  0  0
    7.4271   -0.7748   -2.7968 H   0  0  0  0  0  0  0  0  0  0  0  0
    8.0731   -1.7997   -1.4961 H   0  0  0  0  0  0  0  0  0  0  0  0
    8.2243   -0.0544   -1.3807 H   0  0  0  0  0  0  0  0  0  0  0  0
    4.5335   -1.9795   -0.7769 H   0  0  0  0  0  0  0  0  0  0  0  0
    5.1157   -1.8334   -2.4545 H   0  0  0  0  0  0  0  0  0  0  0  0
    5.9524   -2.8655   -1.2777 H   0  0  0  0  0  0  0  0  0  0  0  0
    1.1675   -0.7004   -2.3245 H   0  0  0  0  0  0  0  0  0  0  0  0
   -1.1646   -0.6118   -1.5184 H   0  0  0  0  0  0  0  0  0  0  0  0
   -1.5894    3.2840    0.1631 H   0  0  0  0  0  0  0  0  0  0  0  0
  1  2  1  0
  2  3  1  0
  3  4  2  0
  4  5  1  0
  5  6  2  0
  6  7  1  0
  7  8  1  0
  8  9  1  0
  9 10  2  0
 10 11  1  0
 11 12  2  0
 12 13  1  0
 13 14  2  0
 14 15  1  0
 15 16  1  0
  8 17  2  0
 17 18  1  0
 18 19  2  0
 19 20  1  0
 20 21  2  0
 21 22  1  0
 22 23  1  0
 23 24  1  0
 24 25  1  0
 25 26  1  0
 25 27  1  0
 21 28  1  0
 28 29  2  0
 17 30  1  0
 30 31  2  0
 31  3  1  0
 30  6  1  0
 14  9  1  0
 29 18  1  0
  1 32  1  0
  1 33  1  0
  1 34  1  0
  4 35  1  0
  5 36  1  0
 10 37  1  0
 11 38  1  0
 12 39  1  0
 13 40  1  0
 16 41  1  0
 16 42  1  0
 16 43  1  0
 19 44  1  0
 20 45  1  0
 23 46  1  0
 23 47  1  0
 24 48  1  0
 24 49  1  0
 26 50  1  0
 26 51  1  0
 26 52  1  0
 27 53  1  0
 27 54  1  0
 27 55  1  0
 28 56  1  0
 29 57  1  0
 31 58  1  0
M  END
$$$$
