
     RDKit          3D

 51 53  0  0  0  0  0  0  0  0999 V2000
    5.3047   -1.9759    1.1151 C   0  0  0  0  0  0  0  0  0  0  0  0
    4.5274   -1.4019    0.0709 O   0  0  0  0  0  0  0  0  0  0  0  0
    3.1784   -1.2777    0.2802 C   0  0  0  0  0  0  0  0  0  0  0  0
    2.5313   -1.5845    1.4832 C   0  0  0  0  0  0  0  0  0  0  0  0
    1.1498   -1.4080    1.6141 C   0  0  0  0  0  0  0  0  0  0  0  0
    0.4067   -0.9204    0.5400 C   0  0  0  0  0  0  0  0  0  0  0  0
   -1.0502   -0.7428    0.6979 C   0  0  0  0  0  0  0  0  0  0  0  0
   -1.7995   -0.3738   -0.2899 N   0  0  0  0  0  0  0  0  0  0  0  0
   -3.1248   -0.2494   -0.0015 N   0  0  0  0  0  0  0  0  0  0  0  0
   -4.0281    0.1215   -0.9818 C   0  0  0  0  0  0  0  0  0  0  0  0
   -3.7214    0.3451   -2.1518 O   0  0  0  0  0  0  0  0  0  0  0  0
   -5.4680    0.2443   -0.5617 C   0  0  0  0  0  0  0  0  0  0  0  0
   -6.3809    0.5787   -1.5815 C   0  0  0  0  0  0  0  0  0  0  0  0
   -7.7416    0.7196   -1.3146 C   0  0  0  0  0  0  0  0  0  0  0  0
   -8.2108    0.5274   -0.0222 C   0  0  0  0  0  0  0  0  0  0  0  0
   -7.3223    0.1965    1.0043 C   0  0  0  0  0  0  0  0  0  0  0  0
   -5.9478    0.0535    0.7533 C   0  0  0  0  0  0  0  0  0  0  0  0
   -5.0380   -0.2720    1.7306 O   0  0  0  0  0  0  0  0  0  0  0  0
   -5.5094   -0.3720    3.0713 C   0  0  0  0  0  0  0  0  0  0  0  0
    1.0405   -0.6066   -0.6634 C   0  0  0  0  0  0  0  0  0  0  0  0
    2.4277   -0.7890   -0.8069 C   0  0  0  0  0  0  0  0  0  0  0  0
    3.0781   -0.4103   -2.1201 C   0  0  0  0  0  0  0  0  0  0  0  0
    3.3139    1.0056   -2.1875 O   0  0  0  0  0  0  0  0  0  0  0  0
    4.4796    1.3771   -1.5728 C   0  0  0  0  0  0  0  0  0  0  0  0
    4.4064    2.1969   -0.4462 C   0  0  0  0  0  0  0  0  0  0  0  0
    3.2143    2.5859    0.0294 F   0  0  0  0  0  0  0  0  0  0  0  0
    5.5667    2.5993    0.2051 C   0  0  0  0  0  0  0  0  0  0  0  0
    5.4895    3.3680    1.3006 F   0  0  0  0  0  0  0  0  0  0  0  0
    6.8070    2.2016   -0.2761 C   0  0  0  0  0  0  0  0  0  0  0  0
    7.9253    2.5851    0.3559 F   0  0  0  0  0  0  0  0  0  0  0  0
    6.8899    1.4101   -1.4139 C   0  0  0  0  0  0  0  0  0  0  0  0
    8.0886    1.0362   -1.8833 F   0  0  0  0  0  0  0  0  0  0  0  0
    5.7308    1.0054   -2.0664 C   0  0  0  0  0  0  0  0  0  0  0  0
    5.8258    0.2573   -3.1756 F   0  0  0  0  0  0  0  0  0  0  0  0
    5.2972   -1.3383    2.0052 H   0  0  0  0  0  0  0  0  0  0  0  0
    6.3386   -2.0416    0.7627 H   0  0  0  0  0  0  0  0  0  0  0  0
    4.9670   -2.9908    1.3491 H   0  0  0  0  0  0  0  0  0  0  0  0
    3.0745   -1.9587    2.3450 H   0  0  0  0  0  0  0  0  0  0  0  0
    0.6702   -1.6533    2.5578 H   0  0  0  0  0  0  0  0  0  0  0  0
   -1.4697   -0.9484    1.6992 H   0  0  0  0  0  0  0  0  0  0  0  0
   -3.4585   -0.4132    0.9438 H   0  0  0  0  0  0  0  0  0  0  0  0
   -6.0285    0.7322   -2.6012 H   0  0  0  0  0  0  0  0  0  0  0  0
   -8.4284    0.9775   -2.1169 H   0  0  0  0  0  0  0  0  0  0  0  0
   -9.2720    0.6344    0.1906 H   0  0  0  0  0  0  0  0  0  0  0  0
   -7.7439    0.0547    1.9944 H   0  0  0  0  0  0  0  0  0  0  0  0
   -4.6475   -0.5880    3.7101 H   0  0  0  0  0  0  0  0  0  0  0  0
   -5.9448    0.5739    3.4099 H   0  0  0  0  0  0  0  0  0  0  0  0
   -6.2170   -1.2004    3.1781 H   0  0  0  0  0  0  0  0  0  0  0  0
    0.4561   -0.2108   -1.4941 H   0  0  0  0  0  0  0  0  0  0  0  0
    3.9768   -1.0055   -2.3207 H   0  0  0  0  0  0  0  0  0  0  0  0
    2.3899   -0.6546   -2.9390 H   0  0  0  0  0  0  0  0  0  0  0  0
  1  2  1  0
  2  3  1  0
  3  4  2  0
  4  5  1  0
  5  6  2  0
  6  7  1  0
  7  8  2  3
  8  9  1  0
  9 10  1  0
 10 11  2  0
 10 12  1  0
 12 13  2  0
 13 14  1  0
 14 15  2  0
 15 16  1  0
 16 17  2  0
 17 18  1  0
 18 19  1  0
  6 20  1  0
 20 21  2  0
 21 22  1  0
 22 23  1  0
 23 24  1  0
 24 25  2  0
 25 26  1  0
 25 27  1  0
 27 28  1  0
 27 29  2  0
 29 30  1  0
 29 31  1  0
 31 32  1  0
 31 33  2  0
 33 34  1  0
 21  3  1  0
 33 24  1  0
 17 12  1  0
  1 35  1  0
  1 36  1  0
  1 37  1  0
  4 38  1  0
  5 39  1  0
  7 40  1  0
  9 41  1  0
 13 42  1  0
 14 43  1  0
 15 44  1  0
 16 45  1  0
 19 46  1  0
 19 47  1  0
 19 48  1  0
 20 49  1  0
 22 50  1  0
 22 51  1  0
M  END
$$$$
