
     RDKit          3D

 33 35  0  0  0  0  0  0  0  0999 V2000
   -1.2145    3.3071    1.3500 C   0  0  0  0  0  0  0  0  0  0  0  0
   -2.5256    2.7737    1.2004 O   0  0  0  0  0  0  0  0  0  0  0  0
   -2.6194    1.6145    0.4359 C   0  0  0  0  0  0  0  0  0  0  0  0
   -3.9117    1.3721   -0.0569 C   0  0  0  0  0  0  0  0  0  0  0  0
   -4.1783    0.2598   -0.8464 C   0  0  0  0  0  0  0  0  0  0  0  0
   -3.1575   -0.6385   -1.1677 C   0  0  0  0  0  0  0  0  0  0  0  0
   -3.4188   -1.7463   -1.9395 O   0  0  0  0  0  0  0  0  0  0  0  0
   -3.7484   -1.3728   -3.2780 C   0  0  0  0  0  0  0  0  0  0  0  0
   -1.8729   -0.4278   -0.6330 C   0  0  0  0  0  0  0  0  0  0  0  0
   -0.4506   -1.3864   -0.8108 S   0  0  0  0  0  0  0  0  0  0  0  0
    0.4146   -0.3010    0.1610 C   0  0  0  0  0  0  0  0  0  0  0  0
    1.7352   -0.4677    0.4921 N   0  0  0  0  0  0  0  0  0  0  0  0
    2.5963   -1.4479    0.0440 C   0  0  0  0  0  0  0  0  0  0  0  0
    2.3061   -2.3178   -0.7694 O   0  0  0  0  0  0  0  0  0  0  0  0
    3.9338   -1.3495    0.6295 C   0  0  0  0  0  0  0  0  0  0  0  0
    4.3469   -0.8034    1.8363 C   0  0  0  0  0  0  0  0  0  0  0  0
    5.7545   -0.9369    2.0459 C   0  0  0  0  0  0  0  0  0  0  0  0
    6.3518   -1.5822    0.9940 C   0  0  0  0  0  0  0  0  0  0  0  0
    8.2278   -1.9442    0.9029 Br  0  0  0  0  0  0  0  0  0  0  0  0
    5.2659   -2.0229   -0.2259 S   0  0  0  0  0  0  0  0  0  0  0  0
   -0.2552    0.7300    0.6141 N   0  0  0  0  0  0  0  0  0  0  0  0
   -1.5768    0.6836    0.1666 C   0  0  0  0  0  0  0  0  0  0  0  0
   -0.6653    2.7513    2.1169 H   0  0  0  0  0  0  0  0  0  0  0  0
   -0.6679    3.3269    0.4009 H   0  0  0  0  0  0  0  0  0  0  0  0
   -1.3087    4.3417    1.6975 H   0  0  0  0  0  0  0  0  0  0  0  0
   -4.7132    2.0695    0.1816 H   0  0  0  0  0  0  0  0  0  0  0  0
   -5.1899    0.0895   -1.2067 H   0  0  0  0  0  0  0  0  0  0  0  0
   -3.5685   -2.2381   -3.9224 H   0  0  0  0  0  0  0  0  0  0  0  0
   -3.1258   -0.5469   -3.6417 H   0  0  0  0  0  0  0  0  0  0  0  0
   -4.8094   -1.1104   -3.3449 H   0  0  0  0  0  0  0  0  0  0  0  0
    2.0826    0.2703    1.0841 H   0  0  0  0  0  0  0  0  0  0  0  0
    3.6790   -0.3566    2.5628 H   0  0  0  0  0  0  0  0  0  0  0  0
    6.2840   -0.5927    2.9269 H   0  0  0  0  0  0  0  0  0  0  0  0
  1  2  1  0
  2  3  1  0
  3  4  2  0
  4  5  1  0
  5  6  2  0
  6  7  1  0
  7  8  1  0
  6  9  1  0
  9 10  1  0
 10 11  1  0
 11 12  1  0
 12 13  1  0
 13 14  2  0
 13 15  1  0
 15 16  2  0
 16 17  1  0
 17 18  2  0
 18 19  1  0
 18 20  1  0
 11 21  2  0
 21 22  1  0
 22  3  1  0
 22  9  2  0
 20 15  1  0
  1 23  1  0
  1 24  1  0
  1 25  1  0
  4 26  1  0
  5 27  1  0
  8 28  1  0
  8 29  1  0
  8 30  1  0
 12 31  1  0
 16 32  1  0
 17 33  1  0
M  END
$$$$
