
     RDKit          3D

 47 50  0  0  0  0  0  0  0  0999 V2000
   -4.9919    2.9536    0.4542 C   0  0  0  0  0  0  0  0  0  0  0  0
   -4.0732    1.7341    0.4451 C   0  0  0  0  0  0  0  0  0  0  0  0
   -3.1424    1.7388    1.6348 C   0  0  0  0  0  0  0  0  0  0  0  0
   -1.9413    0.8143    1.5978 C   0  0  0  0  0  0  0  0  0  0  0  0
   -0.8852    1.1834    2.1294 O   0  0  0  0  0  0  0  0  0  0  0  0
   -2.0991   -0.5036    1.1845 N   0  0  0  0  0  0  0  0  0  0  0  0
   -1.3201   -1.4724    1.9832 C   0  0  0  0  0  0  0  0  0  0  0  0
    0.0579   -1.8358    1.4079 C   0  0  0  0  0  0  0  0  0  0  0  0
    0.3914   -3.0153    1.3107 O   0  0  0  0  0  0  0  0  0  0  0  0
    0.8473   -0.7353    1.1330 N   0  0  0  0  0  0  0  0  0  0  0  0
    2.1422   -0.7096    0.5826 C   0  0  0  0  0  0  0  0  0  0  0  0
    2.8309   -1.8476    0.1549 C   0  0  0  0  0  0  0  0  0  0  0  0
    4.1185   -1.7379   -0.3826 C   0  0  0  0  0  0  0  0  0  0  0  0
    4.7234   -0.4902   -0.4945 C   0  0  0  0  0  0  0  0  0  0  0  0
    4.0301    0.6552   -0.0977 C   0  0  0  0  0  0  0  0  0  0  0  0
    2.7520    0.5448    0.4508 C   0  0  0  0  0  0  0  0  0  0  0  0
    4.5459    1.9220   -0.2095 O   0  0  0  0  0  0  0  0  0  0  0  0
    5.6826    1.9459   -1.0805 C   0  0  0  0  0  0  0  0  0  0  0  0
    6.6270    0.7987   -0.7617 C   0  0  0  0  0  0  0  0  0  0  0  0
    5.9935   -0.4614   -1.0100 O   0  0  0  0  0  0  0  0  0  0  0  0
   -2.5265   -0.9091   -0.1485 C   0  0  0  0  0  0  0  0  0  0  0  0
   -2.5516   -2.2874   -0.4661 C   0  0  0  0  0  0  0  0  0  0  0  0
   -2.8492   -2.7624   -1.7489 C   0  0  0  0  0  0  0  0  0  0  0  0
   -3.1365   -1.8723   -2.7671 C   0  0  0  0  0  0  0  0  0  0  0  0
   -3.1489   -0.5108   -2.4905 C   0  0  0  0  0  0  0  0  0  0  0  0
   -2.8677   -0.0200   -1.1974 C   0  0  0  0  0  0  0  0  0  0  0  0
   -3.0666    1.7516   -1.0598 S   0  0  0  0  0  0  0  0  0  0  0  0
   -4.4304    3.8945    0.4259 H   0  0  0  0  0  0  0  0  0  0  0  0
   -5.6792    2.9388   -0.3992 H   0  0  0  0  0  0  0  0  0  0  0  0
   -5.6021    2.9619    1.3644 H   0  0  0  0  0  0  0  0  0  0  0  0
   -4.7083    0.8405    0.4609 H   0  0  0  0  0  0  0  0  0  0  0  0
   -2.7462    2.7532    1.7854 H   0  0  0  0  0  0  0  0  0  0  0  0
   -3.7082    1.4952    2.5431 H   0  0  0  0  0  0  0  0  0  0  0  0
   -1.1485   -1.0657    2.9892 H   0  0  0  0  0  0  0  0  0  0  0  0
   -1.9156   -2.3762    2.1470 H   0  0  0  0  0  0  0  0  0  0  0  0
    0.4526    0.1692    1.3988 H   0  0  0  0  0  0  0  0  0  0  0  0
    2.3945   -2.8388    0.2261 H   0  0  0  0  0  0  0  0  0  0  0  0
    4.6481   -2.6307   -0.7033 H   0  0  0  0  0  0  0  0  0  0  0  0
    2.2365    1.4492    0.7640 H   0  0  0  0  0  0  0  0  0  0  0  0
    5.3283    1.8984   -2.1177 H   0  0  0  0  0  0  0  0  0  0  0  0
    6.1900    2.9049   -0.9368 H   0  0  0  0  0  0  0  0  0  0  0  0
    6.9523    0.8253    0.2857 H   0  0  0  0  0  0  0  0  0  0  0  0
    7.5167    0.8533   -1.3968 H   0  0  0  0  0  0  0  0  0  0  0  0
   -2.3280   -3.0566    0.2675 H   0  0  0  0  0  0  0  0  0  0  0  0
   -2.8399   -3.8322   -1.9454 H   0  0  0  0  0  0  0  0  0  0  0  0
   -3.3581   -2.2315   -3.7683 H   0  0  0  0  0  0  0  0  0  0  0  0
   -3.3970    0.1761   -3.2988 H   0  0  0  0  0  0  0  0  0  0  0  0
  1  2  1  0
  2  3  1  0
  3  4  1  0
  4  5  2  0
  4  6  1  0
  6  7  1  0
  7  8  1  0
  8  9  2  0
  8 10  1  0
 10 11  1  0
 11 12  2  0
 12 13  1  0
 13 14  2  0
 14 15  1  0
 15 16  2  0
 15 17  1  0
 17 18  1  0
 18 19  1  0
 19 20  1  0
  6 21  1  0
 21 22  2  0
 22 23  1  0
 23 24  2  0
 24 25  1  0
 25 26  2  0
 26 27  1  0
 27  2  1  0
 16 11  1  0
 26 21  1  0
 20 14  1  0
  1 28  1  0
  1 29  1  0
  1 30  1  0
  2 31  1  0
  3 32  1  0
  3 33  1  0
  7 34  1  0
  7 35  1  0
 10 36  1  0
 12 37  1  0
 13 38  1  0
 16 39  1  0
 18 40  1  0
 18 41  1  0
 19 42  1  0
 19 43  1  0
 22 44  1  0
 23 45  1  0
 24 46  1  0
 25 47  1  0
M  END
$$$$
