
     RDKit          3D

 43 45  0  0  0  0  0  0  0  0999 V2000
   -5.7367   -0.3760   -2.8631 C   0  0  0  0  0  0  0  0  0  0  0  0
   -4.8403    0.6548   -2.4662 O   0  0  0  0  0  0  0  0  0  0  0  0
   -3.9970    0.3770   -1.4280 C   0  0  0  0  0  0  0  0  0  0  0  0
   -3.8826   -0.8414   -0.7664 C   0  0  0  0  0  0  0  0  0  0  0  0
   -2.9692   -0.9927    0.2863 C   0  0  0  0  0  0  0  0  0  0  0  0
   -2.1510    0.0678    0.6935 C   0  0  0  0  0  0  0  0  0  0  0  0
   -1.2383   -0.0263    1.7011 O   0  0  0  0  0  0  0  0  0  0  0  0
   -1.0547   -1.2819    2.3409 C   0  0  0  0  0  0  0  0  0  0  0  0
   -2.2652    1.2886    0.0171 C   0  0  0  0  0  0  0  0  0  0  0  0
   -1.2833    2.7135    0.4462 S   0  0  0  0  0  6  0  0  0  0  0  0
   -0.8819    2.6589    1.8342 O   0  0  0  0  0  0  0  0  0  0  0  0
   -1.9841    3.8810   -0.0561 O   0  0  0  0  0  0  0  0  0  0  0  0
    0.0784    2.5670   -0.5515 N   0  0  0  0  0  0  0  0  0  0  0  0
    0.8557    1.3780   -0.5034 C   0  0  0  0  0  0  0  0  0  0  0  0
    0.8456    0.5216   -1.6036 C   0  0  0  0  0  0  0  0  0  0  0  0
    1.5659   -0.6702   -1.5573 C   0  0  0  0  0  0  0  0  0  0  0  0
    2.3005   -0.9960   -0.4180 C   0  0  0  0  0  0  0  0  0  0  0  0
    2.9779   -2.1835   -0.4679 O   0  0  0  0  0  0  0  0  0  0  0  0
    2.3207   -0.1458    0.6974 C   0  0  0  0  0  0  0  0  0  0  0  0
    3.1411   -0.5391    2.2354 S   0  0  0  0  0  0  0  0  0  0  0  0
    4.8151   -0.5780    1.7673 C   0  0  0  0  0  0  0  0  0  0  0  0
    5.2839   -1.4186    0.7883 N   0  0  0  0  0  0  0  0  0  0  0  0
    6.5708   -1.1571    0.7721 C   0  0  0  0  0  0  0  0  0  0  0  0
    6.8555   -0.2148    1.7099 N   0  0  0  0  0  0  0  0  0  0  0  0
    5.7495    0.1615    2.3688 N   0  0  0  0  0  0  0  0  0  0  0  0
    1.5852    1.0469    0.6405 C   0  0  0  0  0  0  0  0  0  0  0  0
   -3.1895    1.4408   -1.0307 C   0  0  0  0  0  0  0  0  0  0  0  0
   -5.1918   -1.2437   -3.2493 H   0  0  0  0  0  0  0  0  0  0  0  0
   -6.3578    0.0154   -3.6746 H   0  0  0  0  0  0  0  0  0  0  0  0
   -6.4020   -0.6600   -2.0411 H   0  0  0  0  0  0  0  0  0  0  0  0
   -4.4882   -1.6996   -1.0399 H   0  0  0  0  0  0  0  0  0  0  0  0
   -2.9233   -1.9639    0.7701 H   0  0  0  0  0  0  0  0  0  0  0  0
   -1.9677   -1.5993    2.8548 H   0  0  0  0  0  0  0  0  0  0  0  0
   -0.7149   -2.0412    1.6290 H   0  0  0  0  0  0  0  0  0  0  0  0
   -0.2736   -1.1607    3.0973 H   0  0  0  0  0  0  0  0  0  0  0  0
   -0.0798    2.9996   -1.4596 H   0  0  0  0  0  0  0  0  0  0  0  0
    0.2714    0.7606   -2.4939 H   0  0  0  0  0  0  0  0  0  0  0  0
    1.5584   -1.3476   -2.4070 H   0  0  0  0  0  0  0  0  0  0  0  0
    3.7555   -2.1067    0.1256 H   0  0  0  0  0  0  0  0  0  0  0  0
    7.3180   -1.6026    0.1305 H   0  0  0  0  0  0  0  0  0  0  0  0
    7.7474    0.2023    1.9535 H   0  0  0  0  0  0  0  0  0  0  0  0
    1.5666    1.7171    1.4982 H   0  0  0  0  0  0  0  0  0  0  0  0
   -3.2901    2.3944   -1.5461 H   0  0  0  0  0  0  0  0  0  0  0  0
  1  2  1  0
  2  3  1  0
  3  4  2  0
  4  5  1  0
  5  6  2  0
  6  7  1  0
  7  8  1  0
  6  9  1  0
  9 10  1  0
 10 11  2  0
 10 12  2  0
 10 13  1  0
 13 14  1  0
 14 15  2  0
 15 16  1  0
 16 17  2  0
 17 18  1  0
 17 19  1  0
 19 20  1  0
 20 21  1  0
 21 22  1  0
 22 23  2  0
 23 24  1  0
 24 25  1  0
 19 26  2  0
  9 27  2  0
 27  3  1  0
 26 14  1  0
 25 21  2  0
  1 28  1  0
  1 29  1  0
  1 30  1  0
  4 31  1  0
  5 32  1  0
  8 33  1  0
  8 34  1  0
  8 35  1  0
 13 36  1  0
 15 37  1  0
 16 38  1  0
 18 39  1  0
 23 40  1  0
 24 41  1  0
 26 42  1  0
 27 43  1  0
M  END
$$$$
