
     RDKit          3D

 34 36  0  0  0  0  0  0  0  0999 V2000
    4.1382    0.0300    0.1220 N   0  0  0  0  0  0  0  0  0  0  0  0
    3.3367   -1.0510    0.6825 C   0  0  0  0  0  0  0  0  0  0  0  0
    1.8752   -0.6421    0.8495 C   0  0  0  0  0  0  0  0  0  0  0  0
    1.1861   -0.3696   -0.4971 C   0  0  0  0  0  0  0  0  0  0  0  0
   -0.2461   -0.0243   -0.3113 N   0  0  0  0  0  0  0  0  0  0  0  0
   -1.1888   -1.0928   -0.3675 C   0  0  0  0  0  0  0  0  0  0  0  0
   -0.7993   -2.4496   -0.2799 C   0  0  0  0  0  0  0  0  0  0  0  0
   -1.7185   -3.5057   -0.3233 C   0  0  0  0  0  0  0  0  0  0  0  0
   -3.0704   -3.2410   -0.4529 C   0  0  0  0  0  0  0  0  0  0  0  0
   -3.4945   -1.9204   -0.5351 C   0  0  0  0  0  0  0  0  0  0  0  0
   -2.5729   -0.8544   -0.4896 C   0  0  0  0  0  0  0  0  0  0  0  0
   -3.2837    0.7673   -0.6312 S   0  0  0  0  0  0  0  0  0  0  0  0
   -1.8986    1.8217   -0.2805 C   0  0  0  0  0  0  0  0  0  0  0  0
   -2.2080    3.1897   -0.1347 C   0  0  0  0  0  0  0  0  0  0  0  0
   -1.2138    4.1267    0.1214 C   0  0  0  0  0  0  0  0  0  0  0  0
    0.0963    3.6953    0.2313 C   0  0  0  0  0  0  0  0  0  0  0  0
    1.3448    4.8353    0.5577 Cl  0  0  0  0  0  0  0  0  0  0  0  0
    0.4136    2.3410    0.0849 C   0  0  0  0  0  0  0  0  0  0  0  0
   -0.5694    1.3592   -0.1788 C   0  0  0  0  0  0  0  0  0  0  0  0
    5.1051   -0.2824    0.0246 H   0  0  0  0  0  0  0  0  0  0  0  0
    4.1687    0.8113    0.7784 H   0  0  0  0  0  0  0  0  0  0  0  0
    3.7498   -1.3332    1.6572 H   0  0  0  0  0  0  0  0  0  0  0  0
    3.4075   -1.9292    0.0317 H   0  0  0  0  0  0  0  0  0  0  0  0
    1.3530   -1.4439    1.3840 H   0  0  0  0  0  0  0  0  0  0  0  0
    1.8101    0.2344    1.5048 H   0  0  0  0  0  0  0  0  0  0  0  0
    1.2999   -1.2334   -1.1646 H   0  0  0  0  0  0  0  0  0  0  0  0
    1.7066    0.4182   -1.0555 H   0  0  0  0  0  0  0  0  0  0  0  0
    0.2396   -2.7369   -0.1581 H   0  0  0  0  0  0  0  0  0  0  0  0
   -1.3684   -4.5323   -0.2512 H   0  0  0  0  0  0  0  0  0  0  0  0
   -3.7918   -4.0523   -0.4883 H   0  0  0  0  0  0  0  0  0  0  0  0
   -4.5594   -1.7200   -0.6376 H   0  0  0  0  0  0  0  0  0  0  0  0
   -3.2378    3.5317   -0.2231 H   0  0  0  0  0  0  0  0  0  0  0  0
   -1.4691    5.1763    0.2325 H   0  0  0  0  0  0  0  0  0  0  0  0
    1.4595    2.0764    0.1978 H   0  0  0  0  0  0  0  0  0  0  0  0
  1  2  1  0
  2  3  1  0
  3  4  1  0
  4  5  1  0
  5  6  1  0
  6  7  2  0
  7  8  1  0
  8  9  2  0
  9 10  1  0
 10 11  2  0
 11 12  1  0
 12 13  1  0
 13 14  2  0
 14 15  1  0
 15 16  2  0
 16 17  1  0
 16 18  1  0
 18 19  2  0
 19  5  1  0
 11  6  1  0
 19 13  1  0
  1 20  1  0
  1 21  1  0
  2 22  1  0
  2 23  1  0
  3 24  1  0
  3 25  1  0
  4 26  1  0
  4 27  1  0
  7 28  1  0
  8 29  1  0
  9 30  1  0
 10 31  1  0
 14 32  1  0
 15 33  1  0
 18 34  1  0
M  END
$$$$
