
     RDKit          3D

 46 49  0  0  0  0  0  0  0  0999 V2000
    1.3573    0.5845   -0.6066 O   0  0  0  0  0  0  0  0  0  0  0  0
    1.7745    0.8865   -1.7206 C   0  0  0  0  0  0  0  0  0  0  0  0
    0.8881    0.9128   -2.9633 C   0  0  0  0  0  0  0  0  0  0  0  0
   -0.8318    1.3317   -2.5568 S   0  0  0  0  0  0  0  0  0  0  0  0
   -1.4336   -0.2192   -2.0898 C   0  0  0  0  0  0  0  0  0  0  0  0
   -1.0030   -1.3725   -2.5430 N   0  0  0  0  0  0  0  0  0  0  0  0
   -1.7670   -2.3564   -1.9722 N   0  0  0  0  0  0  0  0  0  0  0  0
   -2.6461   -1.7857   -1.1701 C   0  0  0  0  0  0  0  0  0  0  0  0
   -3.6800   -2.5081   -0.3687 C   0  0  0  0  0  0  0  0  0  0  0  0
   -3.3170   -2.6440    1.0823 C   0  0  0  0  0  0  0  0  0  0  0  0
   -2.1204   -3.0570    1.6397 C   0  0  0  0  0  0  0  0  0  0  0  0
   -2.1584   -3.0706    3.0638 C   0  0  0  0  0  0  0  0  0  0  0  0
   -3.3819   -2.6732    3.5499 C   0  0  0  0  0  0  0  0  0  0  0  0
   -4.4839   -2.3109    2.2944 S   0  0  0  0  0  0  0  0  0  0  0  0
   -2.4665   -0.4182   -1.2153 N   0  0  0  0  0  0  0  0  0  0  0  0
   -3.2683    0.5893   -0.5482 C   0  0  0  0  0  0  0  0  0  0  0  0
   -2.7955    0.8741    0.8285 C   0  0  0  0  0  0  0  0  0  0  0  0
   -1.5665    0.8686    1.4584 C   0  0  0  0  0  0  0  0  0  0  0  0
   -1.8025    1.2442    2.8021 C   0  0  0  0  0  0  0  0  0  0  0  0
   -3.1553    1.4610    2.9082 C   0  0  0  0  0  0  0  0  0  0  0  0
   -3.7647    1.2501    1.7157 O   0  0  0  0  0  0  0  0  0  0  0  0
    3.0893    1.2354   -2.0157 N   0  0  0  0  0  0  0  0  0  0  0  0
    4.1668    1.3640   -1.1128 C   0  0  0  0  0  0  0  0  0  0  0  0
    5.3924    1.8004   -1.6377 C   0  0  0  0  0  0  0  0  0  0  0  0
    6.5019    1.9853   -0.8032 C   0  0  0  0  0  0  0  0  0  0  0  0
    6.3919    1.7277    0.5610 C   0  0  0  0  0  0  0  0  0  0  0  0
    7.8802    1.9938    1.6954 Br  0  0  0  0  0  0  0  0  0  0  0  0
    5.1860    1.2839    1.0943 C   0  0  0  0  0  0  0  0  0  0  0  0
    4.0776    1.1030    0.2572 C   0  0  0  0  0  0  0  0  0  0  0  0
    1.2451    1.6927   -3.6423 H   0  0  0  0  0  0  0  0  0  0  0  0
    0.9705   -0.0437   -3.4877 H   0  0  0  0  0  0  0  0  0  0  0  0
   -3.7957   -3.5185   -0.7849 H   0  0  0  0  0  0  0  0  0  0  0  0
   -4.6523   -2.0197   -0.4974 H   0  0  0  0  0  0  0  0  0  0  0  0
   -1.2505   -3.3335    1.0519 H   0  0  0  0  0  0  0  0  0  0  0  0
   -1.3274   -3.3566    3.6979 H   0  0  0  0  0  0  0  0  0  0  0  0
   -3.6895   -2.5890    4.5818 H   0  0  0  0  0  0  0  0  0  0  0  0
   -4.3047    0.2365   -0.5384 H   0  0  0  0  0  0  0  0  0  0  0  0
   -3.2642    1.5060   -1.1468 H   0  0  0  0  0  0  0  0  0  0  0  0
   -0.6123    0.6239    1.0111 H   0  0  0  0  0  0  0  0  0  0  0  0
   -1.0742    1.3452    3.5956 H   0  0  0  0  0  0  0  0  0  0  0  0
   -3.8038    1.7570    3.7211 H   0  0  0  0  0  0  0  0  0  0  0  0
    3.3048    1.4381   -2.9839 H   0  0  0  0  0  0  0  0  0  0  0  0
    5.5041    2.0092   -2.6985 H   0  0  0  0  0  0  0  0  0  0  0  0
    7.4406    2.3362   -1.2279 H   0  0  0  0  0  0  0  0  0  0  0  0
    5.0885    1.0773    2.1559 H   0  0  0  0  0  0  0  0  0  0  0  0
    3.1570    0.7584    0.7170 H   0  0  0  0  0  0  0  0  0  0  0  0
  1  2  2  0
  2  3  1  0
  3  4  1  0
  4  5  1  0
  5  6  2  0
  6  7  1  0
  7  8  2  0
  8  9  1  0
  9 10  1  0
 10 11  2  0
 11 12  1  0
 12 13  2  0
 13 14  1  0
  8 15  1  0
 15 16  1  0
 16 17  1  0
 17 18  2  0
 18 19  1  0
 19 20  2  0
 20 21  1  0
  2 22  1  0
 22 23  1  0
 23 24  2  0
 24 25  1  0
 25 26  2  0
 26 27  1  0
 26 28  1  0
 28 29  2  0
 15  5  1  0
 21 17  1  0
 29 23  1  0
 14 10  1  0
  3 30  1  0
  3 31  1  0
  9 32  1  0
  9 33  1  0
 11 34  1  0
 12 35  1  0
 13 36  1  0
 16 37  1  0
 16 38  1  0
 18 39  1  0
 19 40  1  0
 20 41  1  0
 22 42  1  0
 24 43  1  0
 25 44  1  0
 28 45  1  0
 29 46  1  0
M  END
$$$$
