
     RDKit          3D

 52 55  0  0  0  0  0  0  0  0999 V2000
   -2.2768   -1.2819   -3.0334 C   0  0  0  0  0  0  0  0  0  0  0  0
   -2.1934   -2.1751   -1.8096 C   0  0  0  0  0  0  0  0  0  0  0  0
   -2.6669   -1.4688   -0.6553 O   0  0  0  0  0  0  0  0  0  0  0  0
   -1.7559   -0.7186    0.0194 C   0  0  0  0  0  0  0  0  0  0  0  0
   -0.5728   -0.6220   -0.2997 O   0  0  0  0  0  0  0  0  0  0  0  0
   -2.3092   -0.0283    1.1891 C   0  0  0  0  0  0  0  0  0  0  0  0
   -3.6892    0.0236    1.6219 C   0  0  0  0  0  0  0  0  0  0  0  0
   -4.8614   -0.5661    0.9953 C   0  0  0  0  0  0  0  0  0  0  0  0
   -5.5032    0.1022   -0.0553 C   0  0  0  0  0  0  0  0  0  0  0  0
   -6.6245   -0.4659   -0.6617 C   0  0  0  0  0  0  0  0  0  0  0  0
   -7.1064   -1.6996   -0.2205 C   0  0  0  0  0  0  0  0  0  0  0  0
   -6.4699   -2.3670    0.8280 C   0  0  0  0  0  0  0  0  0  0  0  0
   -5.3483   -1.8022    1.4374 C   0  0  0  0  0  0  0  0  0  0  0  0
   -3.8422    0.7571    2.7804 C   0  0  0  0  0  0  0  0  0  0  0  0
   -2.3653    1.3906    3.3396 S   0  0  0  0  0  0  0  0  0  0  0  0
   -1.4976    0.6974    2.0570 C   0  0  0  0  0  0  0  0  0  0  0  0
   -0.1242    0.8690    1.9272 N   0  0  0  0  0  0  0  0  0  0  0  0
    0.7379    1.5536    2.7733 C   0  0  0  0  0  0  0  0  0  0  0  0
    0.4137    2.1127    3.8165 O   0  0  0  0  0  0  0  0  0  0  0  0
    2.1433    1.5506    2.3122 C   0  0  0  0  0  0  0  0  0  0  0  0
    2.7119    1.0180    1.1198 C   0  0  0  0  0  0  0  0  0  0  0  0
    4.0586    1.2903    1.1975 C   0  0  0  0  0  0  0  0  0  0  0  0
    5.2284    1.0484    0.3499 C   0  0  0  0  0  0  0  0  0  0  0  0
    6.5120    1.0583    0.9330 C   0  0  0  0  0  0  0  0  0  0  0  0
    7.6567    0.8235    0.1705 C   0  0  0  0  0  0  0  0  0  0  0  0
    7.5386    0.5721   -1.1912 C   0  0  0  0  0  0  0  0  0  0  0  0
    6.2786    0.5599   -1.7934 C   0  0  0  0  0  0  0  0  0  0  0  0
    5.1199    0.8004   -1.0388 C   0  0  0  0  0  0  0  0  0  0  0  0
    3.8566    0.8113   -1.5790 O   0  0  0  0  0  0  0  0  0  0  0  0
    3.7361    0.7214   -2.9951 C   0  0  0  0  0  0  0  0  0  0  0  0
    4.2887    1.9445    2.3712 O   0  0  0  0  0  0  0  0  0  0  0  0
    3.1090    2.1090    3.0629 N   0  0  0  0  0  0  0  0  0  0  0  0
   -1.9859   -1.8282   -3.9348 H   0  0  0  0  0  0  0  0  0  0  0  0
   -1.6238   -0.4091   -2.9278 H   0  0  0  0  0  0  0  0  0  0  0  0
   -3.2956   -0.9032   -3.1627 H   0  0  0  0  0  0  0  0  0  0  0  0
   -2.8452   -3.0454   -1.9426 H   0  0  0  0  0  0  0  0  0  0  0  0
   -1.1766   -2.5541   -1.6570 H   0  0  0  0  0  0  0  0  0  0  0  0
   -5.1359    1.0650   -0.4052 H   0  0  0  0  0  0  0  0  0  0  0  0
   -7.1225    0.0542   -1.4772 H   0  0  0  0  0  0  0  0  0  0  0  0
   -7.9799   -2.1407   -0.6938 H   0  0  0  0  0  0  0  0  0  0  0  0
   -6.8476   -3.3276    1.1713 H   0  0  0  0  0  0  0  0  0  0  0  0
   -4.8581   -2.3313    2.2525 H   0  0  0  0  0  0  0  0  0  0  0  0
   -4.7554    0.9603    3.3251 H   0  0  0  0  0  0  0  0  0  0  0  0
    0.2693    0.4159    1.1071 H   0  0  0  0  0  0  0  0  0  0  0  0
    2.2210    0.5031    0.3086 H   0  0  0  0  0  0  0  0  0  0  0  0
    6.6328    1.2443    1.9999 H   0  0  0  0  0  0  0  0  0  0  0  0
    8.6358    0.8352    0.6437 H   0  0  0  0  0  0  0  0  0  0  0  0
    8.4282    0.3860   -1.7882 H   0  0  0  0  0  0  0  0  0  0  0  0
    6.2364    0.3570   -2.8594 H   0  0  0  0  0  0  0  0  0  0  0  0
    4.0731   -0.2563   -3.3573 H   0  0  0  0  0  0  0  0  0  0  0  0
    4.2710    1.5380   -3.4934 H   0  0  0  0  0  0  0  0  0  0  0  0
    2.6761    0.8186   -3.2453 H   0  0  0  0  0  0  0  0  0  0  0  0
  1  2  1  0
  2  3  1  0
  3  4  1  0
  4  5  2  0
  4  6  1  0
  6  7  1  0
  7  8  1  0
  8  9  2  0
  9 10  1  0
 10 11  2  0
 11 12  1  0
 12 13  2  0
  7 14  2  0
 14 15  1  0
 15 16  1  0
 16 17  1  0
 17 18  1  0
 18 19  2  0
 18 20  1  0
 20 21  1  0
 21 22  2  0
 22 23  1  0
 23 24  2  0
 24 25  1  0
 25 26  2  0
 26 27  1  0
 27 28  2  0
 28 29  1  0
 29 30  1  0
 22 31  1  0
 31 32  1  0
 16  6  2  0
 32 20  2  0
 13  8  1  0
 28 23  1  0
  1 33  1  0
  1 34  1  0
  1 35  1  0
  2 36  1  0
  2 37  1  0
  9 38  1  0
 10 39  1  0
 11 40  1  0
 12 41  1  0
 13 42  1  0
 14 43  1  0
 17 44  1  0
 21 45  1  0
 24 46  1  0
 25 47  1  0
 26 48  1  0
 27 49  1  0
 30 50  1  0
 30 51  1  0
 30 52  1  0
M  END
$$$$
