
     RDKit          3D

 68 71  0  0  0  0  0  0  0  0999 V2000
   -3.0518   -2.1454    5.1966 C   0  0  0  0  0  0  0  0  0  0  0  0
   -2.5089   -1.6593    3.8852 C   0  0  0  0  0  0  0  0  0  0  0  0
   -1.3007   -0.9568    3.8357 C   0  0  0  0  0  0  0  0  0  0  0  0
   -0.8089   -0.4771    2.6191 C   0  0  0  0  0  0  0  0  0  0  0  0
   -1.5242   -0.6767    1.4273 C   0  0  0  0  0  0  0  0  0  0  0  0
   -0.9545   -0.1492    0.1110 C   0  0  0  0  0  0  0  0  0  0  0  0
   -2.0581    0.3769   -0.8600 C   0  0  0  0  0  0  0  0  0  0  0  0
   -2.2979   -0.1122   -1.9633 O   0  0  0  0  0  0  0  0  0  0  0  0
   -2.7809    1.4575   -0.3689 N   0  0  0  0  0  0  0  0  0  0  0  0
   -3.7759    2.1323   -1.1846 C   0  0  0  0  0  0  0  0  0  0  0  0
   -3.1302    3.1515   -2.1322 C   0  0  0  0  0  0  0  0  0  0  0  0
   -3.3350    4.4944   -1.4462 C   0  0  0  0  0  0  0  0  0  0  0  0
   -4.7261    4.3592   -0.8521 C   0  0  0  0  0  0  0  0  0  0  0  0
   -4.7589    2.9323   -0.3150 C   0  0  0  0  0  0  0  0  0  0  0  0
   -0.0048   -1.0572   -0.5679 N   0  0  0  0  0  0  0  0  0  0  0  0
    0.9481   -0.4500   -1.3872 C   0  0  0  0  0  0  0  0  0  0  0  0
    1.0472    0.7778   -1.4787 O   0  0  0  0  0  0  0  0  0  0  0  0
    1.8954   -1.3630   -2.1586 C   0  0  0  0  0  0  0  0  0  0  0  0
    3.1105   -0.5900   -2.6654 C   0  0  0  0  0  0  0  0  0  0  0  0
    4.0364   -0.1930   -1.5273 C   0  0  0  0  0  0  0  0  0  0  0  0
    4.0041   -0.7499   -0.4339 O   0  0  0  0  0  0  0  0  0  0  0  0
    4.9146    0.8002   -1.8955 N   0  0  0  0  0  0  0  0  0  0  0  0
    5.8932    1.3345   -1.0869 C   0  0  0  0  0  0  0  0  0  0  0  0
    6.2678    0.9757    0.2263 C   0  0  0  0  0  0  0  0  0  0  0  0
    7.2997    1.8257    0.5363 C   0  0  0  0  0  0  0  0  0  0  0  0
    8.1564    2.0121    1.7199 C   0  0  0  0  0  0  0  0  0  0  0  0
    7.5277    2.6514   -0.5189 O   0  0  0  0  0  0  0  0  0  0  0  0
    6.6515    2.3389   -1.5420 N   0  0  0  0  0  0  0  0  0  0  0  0
   -0.3418   -2.4306   -0.6961 C   0  0  0  0  0  0  0  0  0  0  0  0
   -0.9292   -2.9242   -1.8654 C   0  0  0  0  0  0  0  0  0  0  0  0
   -1.2391   -4.2808   -1.9766 C   0  0  0  0  0  0  0  0  0  0  0  0
   -0.9558   -5.1501   -0.9244 C   0  0  0  0  0  0  0  0  0  0  0  0
   -0.3613   -4.6648    0.2394 C   0  0  0  0  0  0  0  0  0  0  0  0
   -0.0526   -3.3085    0.3531 C   0  0  0  0  0  0  0  0  0  0  0  0
   -2.7357   -1.3829    1.4838 C   0  0  0  0  0  0  0  0  0  0  0  0
   -3.2270   -1.8591    2.7021 C   0  0  0  0  0  0  0  0  0  0  0  0
   -3.6964   -3.0192    5.0552 H   0  0  0  0  0  0  0  0  0  0  0  0
   -3.6337   -1.3521    5.6766 H   0  0  0  0  0  0  0  0  0  0  0  0
   -2.2396   -2.4453    5.8670 H   0  0  0  0  0  0  0  0  0  0  0  0
   -0.7292   -0.7850    4.7449 H   0  0  0  0  0  0  0  0  0  0  0  0
    0.1444    0.0487    2.6054 H   0  0  0  0  0  0  0  0  0  0  0  0
   -0.3871    0.7558    0.3768 H   0  0  0  0  0  0  0  0  0  0  0  0
   -2.4246    1.9325    0.4512 H   0  0  0  0  0  0  0  0  0  0  0  0
   -4.3103    1.3713   -1.7648 H   0  0  0  0  0  0  0  0  0  0  0  0
   -2.0741    2.9537   -2.3422 H   0  0  0  0  0  0  0  0  0  0  0  0
   -3.6696    3.1512   -3.0877 H   0  0  0  0  0  0  0  0  0  0  0  0
   -2.5913    4.6367   -0.6524 H   0  0  0  0  0  0  0  0  0  0  0  0
   -3.2612    5.3331   -2.1439 H   0  0  0  0  0  0  0  0  0  0  0  0
   -4.9243    5.1010   -0.0725 H   0  0  0  0  0  0  0  0  0  0  0  0
   -5.4839    4.4796   -1.6365 H   0  0  0  0  0  0  0  0  0  0  0  0
   -4.4653    2.9231    0.7418 H   0  0  0  0  0  0  0  0  0  0  0  0
   -5.7711    2.5143   -0.3738 H   0  0  0  0  0  0  0  0  0  0  0  0
    2.2135   -2.1990   -1.5275 H   0  0  0  0  0  0  0  0  0  0  0  0
    1.3543   -1.7587   -3.0241 H   0  0  0  0  0  0  0  0  0  0  0  0
    2.8017    0.3015   -3.2227 H   0  0  0  0  0  0  0  0  0  0  0  0
    3.6868   -1.2270   -3.3460 H   0  0  0  0  0  0  0  0  0  0  0  0
    4.8405    1.2453   -2.8000 H   0  0  0  0  0  0  0  0  0  0  0  0
    5.8559    0.1991    0.8555 H   0  0  0  0  0  0  0  0  0  0  0  0
    8.2347    1.0820    2.2937 H   0  0  0  0  0  0  0  0  0  0  0  0
    7.7397    2.7844    2.3757 H   0  0  0  0  0  0  0  0  0  0  0  0
    9.1671    2.3138    1.4285 H   0  0  0  0  0  0  0  0  0  0  0  0
   -1.1690   -2.2562   -2.6892 H   0  0  0  0  0  0  0  0  0  0  0  0
   -1.7077   -4.6560   -2.8827 H   0  0  0  0  0  0  0  0  0  0  0  0
   -1.1996   -6.2060   -1.0106 H   0  0  0  0  0  0  0  0  0  0  0  0
   -0.1382   -5.3406    1.0600 H   0  0  0  0  0  0  0  0  0  0  0  0
    0.4217   -2.9462    1.2616 H   0  0  0  0  0  0  0  0  0  0  0  0
   -3.3053   -1.5795    0.5767 H   0  0  0  0  0  0  0  0  0  0  0  0
   -4.1723   -2.3961    2.7172 H   0  0  0  0  0  0  0  0  0  0  0  0
  1  2  1  0
  2  3  2  0
  3  4  1  0
  4  5  2  0
  5  6  1  0
  6  7  1  0
  7  8  2  0
  7  9  1  0
  9 10  1  0
 10 11  1  0
 11 12  1  0
 12 13  1  0
 13 14  1  0
  6 15  1  0
 15 16  1  0
 16 17  2  0
 16 18  1  0
 18 19  1  0
 19 20  1  0
 20 21  2  0
 20 22  1  0
 22 23  1  0
 23 24  1  0
 24 25  2  0
 25 26  1  0
 25 27  1  0
 27 28  1  0
 15 29  1  0
 29 30  2  0
 30 31  1  0
 31 32  2  0
 32 33  1  0
 33 34  2  0
  5 35  1  0
 35 36  2  0
 36  2  1  0
 14 10  1  0
 28 23  2  0
 34 29  1  0
  1 37  1  0
  1 38  1  0
  1 39  1  0
  3 40  1  0
  4 41  1  0
  6 42  1  0
  9 43  1  0
 10 44  1  0
 11 45  1  0
 11 46  1  0
 12 47  1  0
 12 48  1  0
 13 49  1  0
 13 50  1  0
 14 51  1  0
 14 52  1  0
 18 53  1  0
 18 54  1  0
 19 55  1  0
 19 56  1  0
 22 57  1  0
 24 58  1  0
 26 59  1  0
 26 60  1  0
 26 61  1  0
 30 62  1  0
 31 63  1  0
 32 64  1  0
 33 65  1  0
 34 66  1  0
 35 67  1  0
 36 68  1  0
M  END
$$$$
