
     RDKit          3D

 51 55  0  0  0  0  0  0  0  0999 V2000
    4.8137   -1.0718   -1.4331 F   0  0  0  0  0  0  0  0  0  0  0  0
    5.1167    0.1596   -1.0003 C   0  0  0  0  0  0  0  0  0  0  0  0
    6.3991    0.6537   -1.2280 C   0  0  0  0  0  0  0  0  0  0  0  0
    6.7344    1.9297   -0.7825 C   0  0  0  0  0  0  0  0  0  0  0  0
    5.7837    2.7014   -0.1131 C   0  0  0  0  0  0  0  0  0  0  0  0
    4.4983    2.1974    0.1163 C   0  0  0  0  0  0  0  0  0  0  0  0
    4.1521    0.9154   -0.3266 C   0  0  0  0  0  0  0  0  0  0  0  0
    2.7771    0.3469   -0.0651 C   0  0  0  0  0  0  0  0  0  0  0  0
    2.8045   -0.7148    1.0526 C   0  0  0  0  0  0  0  0  0  0  0  0
    1.5200   -1.3020    1.4662 N   0  0  0  0  0  0  0  0  0  0  0  0
    0.7889   -1.9469    0.3568 C   0  0  0  0  0  0  0  0  0  0  0  0
   -0.5087   -2.6335    0.8438 C   0  0  0  0  0  0  0  0  0  0  0  0
   -1.3871   -1.6649    1.5316 N   0  0  0  0  0  0  0  0  0  0  0  0
   -2.2662   -0.9070    0.7601 C   0  0  0  0  0  0  0  0  0  0  0  0
   -2.1306    0.3953    0.7198 N   0  0  0  0  0  0  0  0  0  0  0  0
   -2.9952    1.1825   -0.0666 C   0  0  0  0  0  0  0  0  0  0  0  0
   -2.7977    2.5648   -0.0866 C   0  0  0  0  0  0  0  0  0  0  0  0
   -3.6251    3.3931   -0.8502 C   0  0  0  0  0  0  0  0  0  0  0  0
   -4.6619    2.8429   -1.6050 C   0  0  0  0  0  0  0  0  0  0  0  0
   -4.8760    1.4641   -1.6023 C   0  0  0  0  0  0  0  0  0  0  0  0
   -4.0399    0.6481   -0.8346 C   0  0  0  0  0  0  0  0  0  0  0  0
   -4.1903   -0.7464   -0.7670 N   0  0  0  0  0  0  0  0  0  0  0  0
   -5.1131   -1.5593   -1.3806 C   0  0  0  0  0  0  0  0  0  0  0  0
   -4.8927   -2.8533   -0.9628 C   0  0  0  0  0  0  0  0  0  0  0  0
   -3.7907   -2.8247   -0.0758 C   0  0  0  0  0  0  0  0  0  0  0  0
   -3.3496   -1.5160    0.0054 C   0  0  0  0  0  0  0  0  0  0  0  0
   -0.6697   -1.0017    2.6413 C   0  0  0  0  0  0  0  0  0  0  0  0
    0.6387   -0.3378    2.1563 C   0  0  0  0  0  0  0  0  0  0  0  0
    7.1263    0.0400   -1.7497 H   0  0  0  0  0  0  0  0  0  0  0  0
    7.7343    2.3226   -0.9553 H   0  0  0  0  0  0  0  0  0  0  0  0
    6.0435    3.7005    0.2322 H   0  0  0  0  0  0  0  0  0  0  0  0
    3.7729    2.8129    0.6441 H   0  0  0  0  0  0  0  0  0  0  0  0
    2.3999   -0.0821   -1.0007 H   0  0  0  0  0  0  0  0  0  0  0  0
    2.0938    1.1639    0.1957 H   0  0  0  0  0  0  0  0  0  0  0  0
    3.2901   -0.2907    1.9420 H   0  0  0  0  0  0  0  0  0  0  0  0
    3.4622   -1.5391    0.7468 H   0  0  0  0  0  0  0  0  0  0  0  0
    0.5246   -1.2134   -0.4152 H   0  0  0  0  0  0  0  0  0  0  0  0
    1.4263   -2.7064   -0.1105 H   0  0  0  0  0  0  0  0  0  0  0  0
   -1.0090   -3.0977   -0.0123 H   0  0  0  0  0  0  0  0  0  0  0  0
   -0.2607   -3.4426    1.5409 H   0  0  0  0  0  0  0  0  0  0  0  0
   -1.9928    2.9955    0.5012 H   0  0  0  0  0  0  0  0  0  0  0  0
   -3.4602    4.4680   -0.8528 H   0  0  0  0  0  0  0  0  0  0  0  0
   -5.3071    3.4912   -2.1944 H   0  0  0  0  0  0  0  0  0  0  0  0
   -5.6906    1.0595   -2.1935 H   0  0  0  0  0  0  0  0  0  0  0  0
   -5.8626   -1.1660   -2.0507 H   0  0  0  0  0  0  0  0  0  0  0  0
   -5.4696   -3.7195   -1.2567 H   0  0  0  0  0  0  0  0  0  0  0  0
   -3.3610   -3.6668    0.4502 H   0  0  0  0  0  0  0  0  0  0  0  0
   -0.4342   -1.7565    3.4010 H   0  0  0  0  0  0  0  0  0  0  0  0
   -1.3126   -0.2628    3.1342 H   0  0  0  0  0  0  0  0  0  0  0  0
    0.3964    0.5050    1.5007 H   0  0  0  0  0  0  0  0  0  0  0  0
    1.1575    0.0696    3.0315 H   0  0  0  0  0  0  0  0  0  0  0  0
  1  2  1  0
  2  3  2  0
  3  4  1  0
  4  5  2  0
  5  6  1  0
  6  7  2  0
  7  8  1  0
  8  9  1  0
  9 10  1  0
 10 11  1  0
 11 12  1  0
 12 13  1  0
 13 14  1  0
 14 15  2  0
 15 16  1  0
 16 17  2  0
 17 18  1  0
 18 19  2  0
 19 20  1  0
 20 21  2  0
 21 22  1  0
 22 23  1  0
 23 24  2  0
 24 25  1  0
 25 26  2  0
 13 27  1  0
 27 28  1  0
  7  2  1  0
 28 10  1  0
 26 14  1  0
 21 16  1  0
 26 22  1  0
  3 29  1  0
  4 30  1  0
  5 31  1  0
  6 32  1  0
  8 33  1  0
  8 34  1  0
  9 35  1  0
  9 36  1  0
 11 37  1  0
 11 38  1  0
 12 39  1  0
 12 40  1  0
 17 41  1  0
 18 42  1  0
 19 43  1  0
 20 44  1  0
 23 45  1  0
 24 46  1  0
 25 47  1  0
 27 48  1  0
 27 49  1  0
 28 50  1  0
 28 51  1  0
M  END
$$$$
