
     RDKit          3D

 21 21  0  0  0  0  0  0  0  0999 V2000
    3.0795   -0.2813   -0.3669 C   0  0  0  0  0  0  0  0  0  0  0  0
    1.6052   -0.0143   -0.2313 C   0  0  0  0  0  0  0  0  0  0  0  0
    1.1223    1.2658   -0.5168 C   0  0  0  0  0  0  0  0  0  0  0  0
   -0.2313    1.5317   -0.3821 C   0  0  0  0  0  0  0  0  0  0  0  0
   -0.6858    2.7678   -0.7587 O   0  0  0  0  0  0  0  0  0  0  0  0
   -1.1435    0.5737    0.0893 C   0  0  0  0  0  0  0  0  0  0  0  0
   -2.5042    0.9516    0.1976 N   0  0  0  0  0  0  0  0  0  0  0  0
   -0.7008   -0.7513    0.2609 C   0  0  0  0  0  0  0  0  0  0  0  0
   -1.6697   -1.8450    0.6348 C   0  0  0  0  0  0  0  0  0  0  0  0
    0.6879   -1.0196    0.1462 C   0  0  0  0  0  0  0  0  0  0  0  0
    1.2954   -2.6146    0.4880 Cl  0  0  0  0  0  0  0  0  0  0  0  0
    3.2624   -1.0272   -1.1471 H   0  0  0  0  0  0  0  0  0  0  0  0
    3.4952   -0.6306    0.5837 H   0  0  0  0  0  0  0  0  0  0  0  0
    3.6276    0.6254   -0.6456 H   0  0  0  0  0  0  0  0  0  0  0  0
    1.7871    2.0545   -0.8585 H   0  0  0  0  0  0  0  0  0  0  0  0
   -1.6130    2.6119   -1.0219 H   0  0  0  0  0  0  0  0  0  0  0  0
   -3.0452    0.3104    0.7712 H   0  0  0  0  0  0  0  0  0  0  0  0
   -2.5862    1.8908    0.5868 H   0  0  0  0  0  0  0  0  0  0  0  0
   -2.6700   -1.6572    0.2324 H   0  0  0  0  0  0  0  0  0  0  0  0
   -1.3774   -2.8120    0.2145 H   0  0  0  0  0  0  0  0  0  0  0  0
   -1.7355   -1.9306    1.7237 H   0  0  0  0  0  0  0  0  0  0  0  0
  1  2  1  0
  2  3  2  0
  3  4  1  0
  4  5  1  0
  4  6  2  0
  6  7  1  0
  6  8  1  0
  8  9  1  0
  8 10  2  0
 10 11  1  0
 10  2  1  0
  1 12  1  0
  1 13  1  0
  1 14  1  0
  3 15  1  0
  5 16  1  0
  7 17  1  0
  7 18  1  0
  9 19  1  0
  9 20  1  0
  9 21  1  0
M  END
$$$$
