
     RDKit          3D

 47 51  0  0  0  0  0  0  0  0999 V2000
    0.3702   -0.2996   -2.7786 C   0  0  0  0  0  0  0  0  0  0  0  0
   -0.7407    0.2892   -1.9658 C   0  0  0  0  0  0  0  0  0  0  0  0
   -1.8656    0.6026   -2.5592 N   0  0  0  0  0  0  0  0  0  0  0  0
   -2.8568    1.1402   -1.7861 C   0  0  0  0  0  0  0  0  0  0  0  0
   -4.3759    1.5908   -2.4293 S   0  0  0  0  0  0  0  0  0  0  0  0
   -4.9379    2.1129   -0.9019 C   0  0  0  0  0  0  0  0  0  0  0  0
   -3.9966    1.9645    0.1020 C   0  0  0  0  0  0  0  0  0  0  0  0
   -2.8191    1.4001   -0.4324 C   0  0  0  0  0  0  0  0  0  0  0  0
   -1.4879    1.0135    0.2162 C   0  0  0  0  0  0  0  0  0  0  0  0
   -1.1000    1.1085    1.4615 N   0  0  0  0  0  0  0  0  0  0  0  0
    0.1825    0.6220    1.5098 N   0  0  0  0  0  0  0  0  0  0  0  0
    0.5323    0.2489    0.2941 C   0  0  0  0  0  0  0  0  0  0  0  0
    2.0746   -0.4333   -0.0865 S   0  0  0  0  0  0  0  0  0  0  0  0
    2.9634   -0.1425    1.4726 C   0  0  0  0  0  0  0  0  0  0  0  0
    4.3766   -0.6747    1.3347 C   0  0  0  0  0  0  0  0  0  0  0  0
    5.3139    0.0297    0.9685 O   0  0  0  0  0  0  0  0  0  0  0  0
    4.5087   -2.0130    1.6453 N   0  0  0  0  0  0  0  0  0  0  0  0
    5.7432   -2.7185    1.3839 C   0  0  0  0  0  0  0  0  0  0  0  0
    5.6665   -3.2999    0.0215 C   0  0  0  0  0  0  0  0  0  0  0  0
    6.0882   -2.8640   -1.2177 C   0  0  0  0  0  0  0  0  0  0  0  0
    5.7074   -3.8644   -2.1433 C   0  0  0  0  0  0  0  0  0  0  0  0
    5.0752   -4.8426   -1.4122 C   0  0  0  0  0  0  0  0  0  0  0  0
    5.0397   -4.5072   -0.0965 O   0  0  0  0  0  0  0  0  0  0  0  0
   -0.5051    0.4736   -0.5865 N   0  0  0  0  0  0  0  0  0  0  0  0
   -4.2721    2.3439    1.5236 C   0  0  0  0  0  0  0  0  0  0  0  0
   -5.5093    3.2504    1.6373 C   0  0  0  0  0  0  0  0  0  0  0  0
   -6.6728    2.7377    0.7746 C   0  0  0  0  0  0  0  0  0  0  0  0
   -6.3037    2.6991   -0.7174 C   0  0  0  0  0  0  0  0  0  0  0  0
    1.2490    0.3491   -2.7535 H   0  0  0  0  0  0  0  0  0  0  0  0
    0.0558   -0.3847   -3.8243 H   0  0  0  0  0  0  0  0  0  0  0  0
    0.6106   -1.3057   -2.4270 H   0  0  0  0  0  0  0  0  0  0  0  0
    3.0134    0.9280    1.6970 H   0  0  0  0  0  0  0  0  0  0  0  0
    2.4604   -0.6480    2.3038 H   0  0  0  0  0  0  0  0  0  0  0  0
    3.6707   -2.5804    1.6706 H   0  0  0  0  0  0  0  0  0  0  0  0
    5.8376   -3.5080    2.1362 H   0  0  0  0  0  0  0  0  0  0  0  0
    6.6001   -2.0438    1.4774 H   0  0  0  0  0  0  0  0  0  0  0  0
    6.5997   -1.9324   -1.4197 H   0  0  0  0  0  0  0  0  0  0  0  0
    5.8709   -3.8711   -3.2117 H   0  0  0  0  0  0  0  0  0  0  0  0
    4.6165   -5.7883   -1.6662 H   0  0  0  0  0  0  0  0  0  0  0  0
   -4.4392    1.4278    2.1038 H   0  0  0  0  0  0  0  0  0  0  0  0
   -3.4074    2.8566    1.9597 H   0  0  0  0  0  0  0  0  0  0  0  0
   -5.2486    4.2676    1.3168 H   0  0  0  0  0  0  0  0  0  0  0  0
   -5.8195    3.3152    2.6866 H   0  0  0  0  0  0  0  0  0  0  0  0
   -6.9502    1.7300    1.1109 H   0  0  0  0  0  0  0  0  0  0  0  0
   -7.5528    3.3753    0.9162 H   0  0  0  0  0  0  0  0  0  0  0  0
   -7.0582    2.1243   -1.2661 H   0  0  0  0  0  0  0  0  0  0  0  0
   -6.3078    3.7203   -1.1179 H   0  0  0  0  0  0  0  0  0  0  0  0
  1  2  1  0
  2  3  2  0
  3  4  1  0
  4  5  1  0
  5  6  1  0
  6  7  2  0
  7  8  1  0
  8  9  1  0
  9 10  2  0
 10 11  1  0
 11 12  2  0
 12 13  1  0
 13 14  1  0
 14 15  1  0
 15 16  2  0
 15 17  1  0
 17 18  1  0
 18 19  1  0
 19 20  2  0
 20 21  1  0
 21 22  2  0
 22 23  1  0
 12 24  1  0
  7 25  1  0
 25 26  1  0
 26 27  1  0
 27 28  1  0
 24  2  1  0
  8  4  2  0
 24  9  1  0
 28  6  1  0
 23 19  1  0
  1 29  1  0
  1 30  1  0
  1 31  1  0
 14 32  1  0
 14 33  1  0
 17 34  1  0
 18 35  1  0
 18 36  1  0
 20 37  1  0
 21 38  1  0
 22 39  1  0
 25 40  1  0
 25 41  1  0
 26 42  1  0
 26 43  1  0
 27 44  1  0
 27 45  1  0
 28 46  1  0
 28 47  1  0
M  END
$$$$
