
     RDKit          3D

 45 47  0  0  0  0  0  0  0  0999 V2000
   -3.3219    1.8518    0.0173 O   0  0  0  0  0  0  0  0  0  0  0  0
   -3.3318    0.6238    0.0839 C   0  0  0  0  0  0  0  0  0  0  0  0
   -4.5794   -0.2020   -0.2083 C   0  0  0  0  0  0  0  0  0  0  0  0
   -5.8017    0.6110   -0.5696 C   0  0  0  0  0  0  0  0  0  0  0  0
   -6.6737    1.0656    0.4307 C   0  0  0  0  0  0  0  0  0  0  0  0
   -7.7976    1.8252    0.0975 C   0  0  0  0  0  0  0  0  0  0  0  0
   -8.0512    2.1389   -1.2357 C   0  0  0  0  0  0  0  0  0  0  0  0
   -9.4372    3.0726   -1.6457 Cl  0  0  0  0  0  0  0  0  0  0  0  0
   -7.1887    1.7031   -2.2389 C   0  0  0  0  0  0  0  0  0  0  0  0
   -6.0646    0.9434   -1.9069 C   0  0  0  0  0  0  0  0  0  0  0  0
   -2.1101   -0.1023    0.4539 C   0  0  0  0  0  0  0  0  0  0  0  0
   -1.9410   -1.4707    0.5597 C   0  0  0  0  0  0  0  0  0  0  0  0
   -0.6470   -1.7215    0.9411 N   0  0  0  0  0  0  0  0  0  0  0  0
    0.0531   -0.5428    1.0648 C   0  0  0  0  0  0  0  0  0  0  0  0
    1.4398   -0.4103    1.4589 C   0  0  0  0  0  0  0  0  0  0  0  0
    1.9096    0.6179    1.9346 O   0  0  0  0  0  0  0  0  0  0  0  0
    2.2155   -1.5321    1.2310 N   0  0  0  0  0  0  0  0  0  0  0  0
    3.6411   -1.5059    1.4901 C   0  0  0  0  0  0  0  0  0  0  0  0
    4.4135   -0.8607    0.3436 C   0  0  0  0  0  0  0  0  0  0  0  0
    5.8984   -0.7589    0.6763 C   0  0  0  0  0  0  0  0  0  0  0  0
    6.6684   -0.2291   -0.4301 N   0  0  0  0  0  0  0  0  0  0  0  0
    6.8638    1.0910   -0.7209 C   0  0  0  0  0  0  0  0  0  0  0  0
    7.6573    1.0903   -1.8446 C   0  0  0  0  0  0  0  0  0  0  0  0
    7.9489   -0.1922   -2.2339 N   0  0  0  0  0  0  0  0  0  0  0  0
    7.3432   -0.9649   -1.3608 C   0  0  0  0  0  0  0  0  0  0  0  0
   -0.8490    0.4719    0.7890 C   0  0  0  0  0  0  0  0  0  0  0  0
   -4.3565   -0.8924   -1.0312 H   0  0  0  0  0  0  0  0  0  0  0  0
   -4.8091   -0.8131    0.6734 H   0  0  0  0  0  0  0  0  0  0  0  0
   -6.4801    0.8398    1.4772 H   0  0  0  0  0  0  0  0  0  0  0  0
   -8.4645    2.1739    0.8813 H   0  0  0  0  0  0  0  0  0  0  0  0
   -7.3807    1.9564   -3.2778 H   0  0  0  0  0  0  0  0  0  0  0  0
   -5.3919    0.6215   -2.6990 H   0  0  0  0  0  0  0  0  0  0  0  0
   -2.6280   -2.2940    0.4119 H   0  0  0  0  0  0  0  0  0  0  0  0
   -0.2710   -2.6381    1.1448 H   0  0  0  0  0  0  0  0  0  0  0  0
    1.8709   -2.2257    0.5842 H   0  0  0  0  0  0  0  0  0  0  0  0
    3.8214   -0.9671    2.4272 H   0  0  0  0  0  0  0  0  0  0  0  0
    3.9604   -2.5441    1.6290 H   0  0  0  0  0  0  0  0  0  0  0  0
    4.0141    0.1387    0.1295 H   0  0  0  0  0  0  0  0  0  0  0  0
    4.2678   -1.4480   -0.5722 H   0  0  0  0  0  0  0  0  0  0  0  0
    6.0641   -0.1006    1.5371 H   0  0  0  0  0  0  0  0  0  0  0  0
    6.3125   -1.7428    0.9258 H   0  0  0  0  0  0  0  0  0  0  0  0
    6.4374    1.8928   -0.1343 H   0  0  0  0  0  0  0  0  0  0  0  0
    8.0339    1.9440   -2.3930 H   0  0  0  0  0  0  0  0  0  0  0  0
    7.3618   -2.0468   -1.3611 H   0  0  0  0  0  0  0  0  0  0  0  0
   -0.6201    1.5323    0.8199 H   0  0  0  0  0  0  0  0  0  0  0  0
  1  2  2  0
  2  3  1  0
  3  4  1  0
  4  5  2  0
  5  6  1  0
  6  7  2  0
  7  8  1  0
  7  9  1  0
  9 10  2  0
  2 11  1  0
 11 12  2  0
 12 13  1  0
 13 14  1  0
 14 15  1  0
 15 16  2  0
 15 17  1  0
 17 18  1  0
 18 19  1  0
 19 20  1  0
 20 21  1  0
 21 22  1  0
 22 23  2  0
 23 24  1  0
 24 25  2  0
 14 26  2  0
 10  4  1  0
 26 11  1  0
 25 21  1  0
  3 27  1  0
  3 28  1  0
  5 29  1  0
  6 30  1  0
  9 31  1  0
 10 32  1  0
 12 33  1  0
 13 34  1  0
 17 35  1  0
 18 36  1  0
 18 37  1  0
 19 38  1  0
 19 39  1  0
 20 40  1  0
 20 41  1  0
 22 42  1  0
 23 43  1  0
 25 44  1  0
 26 45  1  0
M  END
$$$$
