
     RDKit          3D

 28 28  0  0  0  0  0  0  0  0999 V2000
   -2.1604   -0.7494    1.0508 C   0  0  0  0  0  0  0  0  0  0  0  0
   -1.8043   -1.6011   -0.1742 C   0  0  0  0  0  0  0  0  0  0  0  0
   -1.1768   -2.9248    0.2844 C   0  0  0  0  0  0  0  0  0  0  0  0
   -3.1093   -1.9033   -0.9362 C   0  0  0  0  0  0  0  0  0  0  0  0
   -0.8328   -0.9083   -1.1583 C   0  0  0  0  0  0  0  0  0  0  0  0
   -0.7222   -1.3246   -2.3188 O   0  0  0  0  0  0  0  0  0  0  0  0
    0.0206    0.2592   -0.7023 C   0  0  0  0  0  0  0  0  0  0  0  0
    1.4775   -0.3380    0.1921 S   0  0  0  0  0  0  0  0  0  0  0  0
    2.3019    1.2051    0.4831 C   0  0  0  0  0  0  0  0  0  0  0  0
    1.6150    2.3502    0.3242 N   0  0  0  0  0  0  0  0  0  0  0  0
    2.2888    3.4898    0.5704 C   0  0  0  0  0  0  0  0  0  0  0  0
    3.6030    3.5247    0.9689 C   0  0  0  0  0  0  0  0  0  0  0  0
    4.2095    2.3003    1.1080 C   0  0  0  0  0  0  0  0  0  0  0  0
    3.5844    1.1319    0.8755 N   0  0  0  0  0  0  0  0  0  0  0  0
   -2.8911   -1.2609    1.6882 H   0  0  0  0  0  0  0  0  0  0  0  0
   -1.2836   -0.5406    1.6723 H   0  0  0  0  0  0  0  0  0  0  0  0
   -2.5974    0.2108    0.7545 H   0  0  0  0  0  0  0  0  0  0  0  0
   -0.2767   -2.7571    0.8843 H   0  0  0  0  0  0  0  0  0  0  0  0
   -1.8772   -3.5047    0.8960 H   0  0  0  0  0  0  0  0  0  0  0  0
   -0.8860   -3.5459   -0.5707 H   0  0  0  0  0  0  0  0  0  0  0  0
   -3.5543   -0.9830   -1.3321 H   0  0  0  0  0  0  0  0  0  0  0  0
   -2.9350   -2.5732   -1.7861 H   0  0  0  0  0  0  0  0  0  0  0  0
   -3.8491   -2.3837   -0.2860 H   0  0  0  0  0  0  0  0  0  0  0  0
   -0.5767    0.9512   -0.1043 H   0  0  0  0  0  0  0  0  0  0  0  0
    0.3408    0.8025   -1.5990 H   0  0  0  0  0  0  0  0  0  0  0  0
    1.7199    4.4050    0.4328 H   0  0  0  0  0  0  0  0  0  0  0  0
    4.1245    4.4517    1.1608 H   0  0  0  0  0  0  0  0  0  0  0  0
    5.2467    2.2168    1.4198 H   0  0  0  0  0  0  0  0  0  0  0  0
  1  2  1  0
  2  3  1  0
  2  4  1  0
  2  5  1  0
  5  6  2  0
  5  7  1  0
  7  8  1  0
  8  9  1  0
  9 10  2  0
 10 11  1  0
 11 12  2  0
 12 13  1  0
 13 14  2  0
 14  9  1  0
  1 15  1  0
  1 16  1  0
  1 17  1  0
  3 18  1  0
  3 19  1  0
  3 20  1  0
  4 21  1  0
  4 22  1  0
  4 23  1  0
  7 24  1  0
  7 25  1  0
 11 26  1  0
 12 27  1  0
 13 28  1  0
M  END
$$$$
