
     RDKit          3D

 49 52  0  0  0  0  0  0  0  0999 V2000
   -4.6076   -1.5956    0.1400 C   0  0  0  0  0  0  0  0  0  0  0  0
   -4.0962   -0.2665    0.6582 C   0  0  0  0  0  0  0  0  0  0  0  0
   -2.8365    0.0583    0.7060 N   0  0  0  0  0  0  0  0  0  0  0  0
   -1.9018   -0.8477    0.3101 N   0  0  0  0  0  0  0  0  0  0  0  0
   -0.5536   -0.5210    0.3153 C   0  0  0  0  0  0  0  0  0  0  0  0
   -0.0876    0.5721    0.6213 O   0  0  0  0  0  0  0  0  0  0  0  0
    0.2875   -1.6457   -0.0878 C   0  0  0  0  0  0  0  0  0  0  0  0
   -0.2373   -2.8708   -0.3805 N   0  0  0  0  0  0  0  0  0  0  0  0
    0.7601   -3.6864   -0.6638 N   0  0  0  0  0  0  0  0  0  0  0  0
    1.9412   -2.9908   -0.6581 N   0  0  0  0  0  0  0  0  0  0  0  0
    3.1523   -3.6258   -1.0583 C   0  0  0  0  0  0  0  0  0  0  0  0
    3.1386   -4.9624   -1.1455 N   0  0  0  0  0  0  0  0  0  0  0  0
    4.4337   -5.3125   -1.4921 O   0  0  0  0  0  0  0  0  0  0  0  0
    5.2257   -4.1879   -1.6505 N   0  0  0  0  0  0  0  0  0  0  0  0
    4.4279   -3.1464   -1.4153 C   0  0  0  0  0  0  0  0  0  0  0  0
    4.8545   -1.8779   -1.5715 N   0  0  0  0  0  0  0  0  0  0  0  0
    1.6698   -1.7001   -0.2047 C   0  0  0  0  0  0  0  0  0  0  0  0
    2.6653   -0.6556    0.1267 C   0  0  0  0  0  0  0  0  0  0  0  0
    2.8794    0.0642   -1.0859 O   0  0  0  0  0  0  0  0  0  0  0  0
    3.5406    1.2588   -0.9802 C   0  0  0  0  0  0  0  0  0  0  0  0
    4.3232    1.6622    0.1048 C   0  0  0  0  0  0  0  0  0  0  0  0
    4.9710    2.9007    0.0744 C   0  0  0  0  0  0  0  0  0  0  0  0
    4.8385    3.7222   -1.0390 C   0  0  0  0  0  0  0  0  0  0  0  0
    5.4635    4.9062   -1.0640 F   0  0  0  0  0  0  0  0  0  0  0  0
    4.0716    3.3288   -2.1275 C   0  0  0  0  0  0  0  0  0  0  0  0
    3.4252    2.0925   -2.0981 C   0  0  0  0  0  0  0  0  0  0  0  0
   -5.0959    0.7365    1.1416 C   0  0  0  0  0  0  0  0  0  0  0  0
   -6.3209    0.3447    1.6958 C   0  0  0  0  0  0  0  0  0  0  0  0
   -7.2280    1.3107    2.1446 C   0  0  0  0  0  0  0  0  0  0  0  0
   -6.9088    2.6645    2.0478 C   0  0  0  0  0  0  0  0  0  0  0  0
   -8.0282    3.8472    2.6016 Cl  0  0  0  0  0  0  0  0  0  0  0  0
   -5.6869    3.0638    1.5116 C   0  0  0  0  0  0  0  0  0  0  0  0
   -4.7792    2.1006    1.0628 C   0  0  0  0  0  0  0  0  0  0  0  0
   -4.3841   -2.3788    0.8697 H   0  0  0  0  0  0  0  0  0  0  0  0
   -4.1230   -1.8351   -0.8113 H   0  0  0  0  0  0  0  0  0  0  0  0
   -5.6825   -1.5794   -0.0526 H   0  0  0  0  0  0  0  0  0  0  0  0
   -2.1647   -1.7967    0.0640 H   0  0  0  0  0  0  0  0  0  0  0  0
    5.7554   -1.7727   -2.0336 H   0  0  0  0  0  0  0  0  0  0  0  0
    4.2058   -1.1567   -1.8870 H   0  0  0  0  0  0  0  0  0  0  0  0
    2.2767    0.0033    0.9114 H   0  0  0  0  0  0  0  0  0  0  0  0
    3.5939   -1.0963    0.5028 H   0  0  0  0  0  0  0  0  0  0  0  0
    4.4575    1.0385    0.9825 H   0  0  0  0  0  0  0  0  0  0  0  0
    5.5792    3.2287    0.9117 H   0  0  0  0  0  0  0  0  0  0  0  0
    3.9789    3.9843   -2.9872 H   0  0  0  0  0  0  0  0  0  0  0  0
    2.8182    1.7838   -2.9458 H   0  0  0  0  0  0  0  0  0  0  0  0
   -6.5820   -0.7036    1.8093 H   0  0  0  0  0  0  0  0  0  0  0  0
   -8.1769    1.0007    2.5754 H   0  0  0  0  0  0  0  0  0  0  0  0
   -5.4304    4.1178    1.4430 H   0  0  0  0  0  0  0  0  0  0  0  0
   -3.8230    2.4212    0.6518 H   0  0  0  0  0  0  0  0  0  0  0  0
  1  2  1  0
  2  3  2  3
  3  4  1  0
  4  5  1  0
  5  6  2  0
  5  7  1  0
  7  8  1  0
  8  9  2  0
  9 10  1  0
 10 11  1  0
 11 12  2  0
 12 13  1  0
 13 14  1  0
 14 15  2  0
 15 16  1  0
 10 17  1  0
 17 18  1  0
 18 19  1  0
 19 20  1  0
 20 21  2  0
 21 22  1  0
 22 23  2  0
 23 24  1  0
 23 25  1  0
 25 26  2  0
  2 27  1  0
 27 28  2  0
 28 29  1  0
 29 30  2  0
 30 31  1  0
 30 32  1  0
 32 33  2  0
 17  7  2  0
 26 20  1  0
 33 27  1  0
 15 11  1  0
  1 34  1  0
  1 35  1  0
  1 36  1  0
  4 37  1  0
 16 38  1  0
 16 39  1  0
 18 40  1  0
 18 41  1  0
 21 42  1  0
 22 43  1  0
 25 44  1  0
 26 45  1  0
 28 46  1  0
 29 47  1  0
 32 48  1  0
 33 49  1  0
M  END
$$$$
