
     RDKit          3D

 50 53  0  0  0  0  0  0  0  0999 V2000
   -5.9801   -3.9200    0.6875 C   0  0  0  0  0  0  0  0  0  0  0  0
   -5.1108   -2.7100    0.9793 C   0  0  0  0  0  0  0  0  0  0  0  0
   -4.4427   -2.3473   -0.2274 O   0  0  0  0  0  0  0  0  0  0  0  0
   -3.6031   -1.2692   -0.1744 C   0  0  0  0  0  0  0  0  0  0  0  0
   -3.3380   -0.4882    0.9504 C   0  0  0  0  0  0  0  0  0  0  0  0
   -2.4531    0.5934    0.8642 C   0  0  0  0  0  0  0  0  0  0  0  0
   -1.8310    0.9063   -0.3495 C   0  0  0  0  0  0  0  0  0  0  0  0
   -0.9081    2.0301   -0.4363 C   0  0  0  0  0  0  0  0  0  0  0  0
    0.4771    2.0562   -0.3406 C   0  0  0  0  0  0  0  0  0  0  0  0
    1.4018    0.9428   -0.1296 C   0  0  0  0  0  0  0  0  0  0  0  0
    1.0234   -0.2208   -0.0463 O   0  0  0  0  0  0  0  0  0  0  0  0
    2.7256    1.3712   -0.0563 N   0  0  0  0  0  0  0  0  0  0  0  0
    3.8465    0.5803   -0.0290 N   0  0  0  0  0  0  0  0  0  0  0  0
    3.7754   -0.5793    0.5446 C   0  0  0  0  0  0  0  0  0  0  0  0
    4.9310   -1.5011    0.5687 C   0  0  0  0  0  0  0  0  0  0  0  0
    6.1469   -1.1490   -0.0282 C   0  0  0  0  0  0  0  0  0  0  0  0
    7.2247   -2.0369    0.0094 C   0  0  0  0  0  0  0  0  0  0  0  0
    7.0745   -3.2675    0.6430 C   0  0  0  0  0  0  0  0  0  0  0  0
    8.0996   -4.1640    0.7034 O   0  0  0  0  0  0  0  0  0  0  0  0
    5.8682   -3.6249    1.2373 C   0  0  0  0  0  0  0  0  0  0  0  0
    4.7892   -2.7401    1.2014 C   0  0  0  0  0  0  0  0  0  0  0  0
    0.9168    3.3476   -0.4764 N   0  0  0  0  0  0  0  0  0  0  0  0
   -0.1330    4.1280   -0.6530 N   0  0  0  0  0  0  0  0  0  0  0  0
   -1.2677    3.3655   -0.6401 N   0  0  0  0  0  0  0  0  0  0  0  0
   -2.5478    3.9459   -0.8311 C   0  0  0  0  0  0  0  0  0  0  0  0
   -3.6502    3.1975   -0.8742 N   0  0  0  0  0  0  0  0  0  0  0  0
   -4.6770    4.1136   -1.0908 O   0  0  0  0  0  0  0  0  0  0  0  0
   -4.1848    5.4116   -1.1780 N   0  0  0  0  0  0  0  0  0  0  0  0
   -2.8674    5.3053   -1.0101 C   0  0  0  0  0  0  0  0  0  0  0  0
   -2.0166    6.3491   -1.0144 N   0  0  0  0  0  0  0  0  0  0  0  0
   -2.0900    0.1174   -1.4734 C   0  0  0  0  0  0  0  0  0  0  0  0
   -2.9734   -0.9613   -1.3826 C   0  0  0  0  0  0  0  0  0  0  0  0
   -6.7085   -3.6910   -0.0975 H   0  0  0  0  0  0  0  0  0  0  0  0
   -5.3707   -4.7538    0.3235 H   0  0  0  0  0  0  0  0  0  0  0  0
   -6.5168   -4.2400    1.5850 H   0  0  0  0  0  0  0  0  0  0  0  0
   -5.7476   -1.8871    1.3240 H   0  0  0  0  0  0  0  0  0  0  0  0
   -4.3812   -2.9725    1.7541 H   0  0  0  0  0  0  0  0  0  0  0  0
   -3.8001   -0.6922    1.9102 H   0  0  0  0  0  0  0  0  0  0  0  0
   -2.2583    1.1858    1.7550 H   0  0  0  0  0  0  0  0  0  0  0  0
    2.9059    2.3363   -0.3255 H   0  0  0  0  0  0  0  0  0  0  0  0
    2.8747   -0.9353    1.0715 H   0  0  0  0  0  0  0  0  0  0  0  0
    6.2593   -0.1872   -0.5228 H   0  0  0  0  0  0  0  0  0  0  0  0
    8.1626   -1.7525   -0.4570 H   0  0  0  0  0  0  0  0  0  0  0  0
    8.8690   -3.7891    0.2439 H   0  0  0  0  0  0  0  0  0  0  0  0
    5.7690   -4.5908    1.7251 H   0  0  0  0  0  0  0  0  0  0  0  0
    3.8486   -3.0276    1.6638 H   0  0  0  0  0  0  0  0  0  0  0  0
   -1.0098    6.2109   -1.0828 H   0  0  0  0  0  0  0  0  0  0  0  0
   -2.3427    7.2473   -1.3561 H   0  0  0  0  0  0  0  0  0  0  0  0
   -1.6093    0.3269   -2.4255 H   0  0  0  0  0  0  0  0  0  0  0  0
   -3.1702   -1.5704   -2.2615 H   0  0  0  0  0  0  0  0  0  0  0  0
  1  2  1  0
  2  3  1  0
  3  4  1  0
  4  5  2  0
  5  6  1  0
  6  7  2  0
  7  8  1  0
  8  9  2  0
  9 10  1  0
 10 11  2  0
 10 12  1  0
 12 13  1  0
 13 14  2  3
 14 15  1  0
 15 16  2  0
 16 17  1  0
 17 18  2  0
 18 19  1  0
 18 20  1  0
 20 21  2  0
  9 22  1  0
 22 23  2  0
 23 24  1  0
 24 25  1  0
 25 26  2  0
 26 27  1  0
 27 28  1  0
 28 29  2  0
 29 30  1  0
  7 31  1  0
 31 32  2  0
 32  4  1  0
 24  8  1  0
 29 25  1  0
 21 15  1  0
  1 33  1  0
  1 34  1  0
  1 35  1  0
  2 36  1  0
  2 37  1  0
  5 38  1  0
  6 39  1  0
 12 40  1  0
 14 41  1  0
 16 42  1  0
 17 43  1  0
 19 44  1  0
 20 45  1  0
 21 46  1  0
 30 47  1  0
 30 48  1  0
 31 49  1  0
 32 50  1  0
M  END
$$$$
