
     RDKit          3D

 43 45  0  0  0  0  0  0  0  0999 V2000
   -7.3607    1.3164    1.2642 C   0  0  0  0  0  0  0  0  0  0  0  0
   -6.0364    0.7713    1.0216 N   0  0  0  0  0  0  0  0  0  0  0  0
   -5.8690   -0.6490    1.2982 C   0  0  0  0  0  0  0  0  0  0  0  0
   -4.9888    1.6640    0.8009 C   0  0  0  0  0  0  0  0  0  0  0  0
   -5.1006    2.8825    0.9202 O   0  0  0  0  0  0  0  0  0  0  0  0
   -3.6675    1.1397    0.3830 C   0  0  0  0  0  0  0  0  0  0  0  0
   -2.5222    1.5926    1.0400 C   0  0  0  0  0  0  0  0  0  0  0  0
   -1.2640    1.1333    0.6396 C   0  0  0  0  0  0  0  0  0  0  0  0
   -1.1367    0.2315   -0.4265 C   0  0  0  0  0  0  0  0  0  0  0  0
    0.1657   -0.1799   -0.7622 N   0  0  0  0  0  0  0  0  0  0  0  0
    0.5623   -1.0655   -1.7488 C   0  0  0  0  0  0  0  0  0  0  0  0
   -0.1877   -1.6674   -2.5099 O   0  0  0  0  0  0  0  0  0  0  0  0
    2.0047   -1.2299   -1.8011 C   0  0  0  0  0  0  0  0  0  0  0  0
    2.8010   -2.0036   -2.6205 C   0  0  0  0  0  0  0  0  0  0  0  0
    4.1398   -1.7712   -2.2234 C   0  0  0  0  0  0  0  0  0  0  0  0
    4.0979   -0.8660   -1.1804 C   0  0  0  0  0  0  0  0  0  0  0  0
    5.1102   -0.2258   -0.3416 C   0  0  0  0  0  0  0  0  0  0  0  0
    4.7572    0.7103    0.6443 C   0  0  0  0  0  0  0  0  0  0  0  0
    5.7317    1.3187    1.4434 C   0  0  0  0  0  0  0  0  0  0  0  0
    7.0733    0.9961    1.2640 C   0  0  0  0  0  0  0  0  0  0  0  0
    8.2728    1.7416    2.2450 Cl  0  0  0  0  0  0  0  0  0  0  0  0
    7.4475    0.0718    0.2932 C   0  0  0  0  0  0  0  0  0  0  0  0
    6.4704   -0.5349   -0.5045 C   0  0  0  0  0  0  0  0  0  0  0  0
    2.7954   -0.5355   -0.9216 O   0  0  0  0  0  0  0  0  0  0  0  0
   -2.2875   -0.1951   -1.0948 C   0  0  0  0  0  0  0  0  0  0  0  0
   -3.5495    0.2636   -0.6993 C   0  0  0  0  0  0  0  0  0  0  0  0
   -7.4571    2.3297    0.8643 H   0  0  0  0  0  0  0  0  0  0  0  0
   -7.5382    1.3407    2.3435 H   0  0  0  0  0  0  0  0  0  0  0  0
   -8.1053    0.6760    0.7823 H   0  0  0  0  0  0  0  0  0  0  0  0
   -4.8210   -0.9465    1.3570 H   0  0  0  0  0  0  0  0  0  0  0  0
   -6.3718   -1.2180    0.5112 H   0  0  0  0  0  0  0  0  0  0  0  0
   -6.3346   -0.8771    2.2623 H   0  0  0  0  0  0  0  0  0  0  0  0
   -2.6092    2.3047    1.8577 H   0  0  0  0  0  0  0  0  0  0  0  0
   -0.3875    1.4971    1.1702 H   0  0  0  0  0  0  0  0  0  0  0  0
    0.9282    0.2133   -0.2211 H   0  0  0  0  0  0  0  0  0  0  0  0
    2.4453   -2.6542   -3.4085 H   0  0  0  0  0  0  0  0  0  0  0  0
    5.0271   -2.2145   -2.6531 H   0  0  0  0  0  0  0  0  0  0  0  0
    3.7155    0.9800    0.8023 H   0  0  0  0  0  0  0  0  0  0  0  0
    5.4349    2.0405    2.1997 H   0  0  0  0  0  0  0  0  0  0  0  0
    8.4944   -0.1828    0.1500 H   0  0  0  0  0  0  0  0  0  0  0  0
    6.7916   -1.2538   -1.2546 H   0  0  0  0  0  0  0  0  0  0  0  0
   -2.2398   -0.8764   -1.9387 H   0  0  0  0  0  0  0  0  0  0  0  0
   -4.4317   -0.0566   -1.2477 H   0  0  0  0  0  0  0  0  0  0  0  0
  1  2  1  0
  2  3  1  0
  2  4  1  0
  4  5  2  0
  4  6  1  0
  6  7  2  0
  7  8  1  0
  8  9  2  0
  9 10  1  0
 10 11  1  0
 11 12  2  0
 11 13  1  0
 13 14  2  0
 14 15  1  0
 15 16  2  0
 16 17  1  0
 17 18  2  0
 18 19  1  0
 19 20  2  0
 20 21  1  0
 20 22  1  0
 22 23  2  0
 16 24  1  0
  9 25  1  0
 25 26  2  0
 26  6  1  0
 24 13  1  0
 23 17  1  0
  1 27  1  0
  1 28  1  0
  1 29  1  0
  3 30  1  0
  3 31  1  0
  3 32  1  0
  7 33  1  0
  8 34  1  0
 10 35  1  0
 14 36  1  0
 15 37  1  0
 18 38  1  0
 19 39  1  0
 22 40  1  0
 23 41  1  0
 25 42  1  0
 26 43  1  0
M  END
$$$$
