
     RDKit          3D

 43 45  0  0  0  0  0  0  0  0999 V2000
   -6.1464    0.3940   -1.2940 C   0  0  0  0  0  0  0  0  0  0  0  0
   -4.8915    0.8075   -1.0707 C   0  0  0  0  0  0  0  0  0  0  0  0
   -4.1760    0.6812    0.2436 C   0  0  0  0  0  0  0  0  0  0  0  0
   -2.8877   -0.0015    0.1040 N   0  0  0  0  0  0  0  0  0  0  0  0
   -1.6561    0.6165   -0.0498 C   0  0  0  0  0  0  0  0  0  0  0  0
   -1.5179    2.0950   -0.1946 C   0  0  0  0  0  0  0  0  0  0  0  0
   -0.7008   -0.3882   -0.0521 C   0  0  0  0  0  0  0  0  0  0  0  0
    0.7162   -0.2259   -0.1640 C   0  0  0  0  0  0  0  0  0  0  0  0
    1.4447    0.6905    0.4957 C   0  0  0  0  0  0  0  0  0  0  0  0
    2.9012    0.8181    0.3830 C   0  0  0  0  0  0  0  0  0  0  0  0
    3.4722    2.0892    0.3652 C   0  0  0  0  0  0  0  0  0  0  0  0
    4.8537    2.2245    0.2844 C   0  0  0  0  0  0  0  0  0  0  0  0
    5.6502    1.1340    0.2306 N   0  0  0  0  0  4  0  0  0  0  0  0
    7.1116    1.3014    0.1562 C   0  0  0  0  0  0  0  0  0  0  0  0
    5.1214   -0.1091    0.2724 C   0  0  0  0  0  0  0  0  0  0  0  0
    3.7452   -0.2911    0.3507 C   0  0  0  0  0  0  0  0  0  0  0  0
   -1.3718   -1.6454    0.0339 C   0  0  0  0  0  0  0  0  0  0  0  0
   -0.9427   -2.9918    0.0502 C   0  0  0  0  0  0  0  0  0  0  0  0
   -1.8833   -4.0217    0.1518 C   0  0  0  0  0  0  0  0  0  0  0  0
   -3.2392   -3.7300    0.2392 C   0  0  0  0  0  0  0  0  0  0  0  0
   -3.6901   -2.4075    0.2313 C   0  0  0  0  0  0  0  0  0  0  0  0
   -2.7379   -1.3779    0.1308 C   0  0  0  0  0  0  0  0  0  0  0  0
   -6.6034    0.5120   -2.2726 H   0  0  0  0  0  0  0  0  0  0  0  0
   -6.7460   -0.0726   -0.5183 H   0  0  0  0  0  0  0  0  0  0  0  0
   -4.3389    1.2659   -1.8881 H   0  0  0  0  0  0  0  0  0  0  0  0
   -4.7634    0.1285    0.9855 H   0  0  0  0  0  0  0  0  0  0  0  0
   -3.9896    1.6733    0.6673 H   0  0  0  0  0  0  0  0  0  0  0  0
   -0.5742    2.3640   -0.6784 H   0  0  0  0  0  0  0  0  0  0  0  0
   -2.3154    2.5145   -0.8153 H   0  0  0  0  0  0  0  0  0  0  0  0
   -1.5497    2.5762    0.7879 H   0  0  0  0  0  0  0  0  0  0  0  0
    1.2110   -0.9412   -0.8170 H   0  0  0  0  0  0  0  0  0  0  0  0
    0.9500    1.3950    1.1618 H   0  0  0  0  0  0  0  0  0  0  0  0
    2.8473    2.9798    0.4056 H   0  0  0  0  0  0  0  0  0  0  0  0
    5.3305    3.2006    0.2653 H   0  0  0  0  0  0  0  0  0  0  0  0
    7.4896    1.3343    1.1810 H   0  0  0  0  0  0  0  0  0  0  0  0
    7.3395    2.2299   -0.3736 H   0  0  0  0  0  0  0  0  0  0  0  0
    7.5411    0.4583   -0.3912 H   0  0  0  0  0  0  0  0  0  0  0  0
    5.8070   -0.9516    0.2493 H   0  0  0  0  0  0  0  0  0  0  0  0
    3.3433   -1.3013    0.3998 H   0  0  0  0  0  0  0  0  0  0  0  0
    0.1127   -3.2347   -0.0159 H   0  0  0  0  0  0  0  0  0  0  0  0
   -1.5523   -5.0571    0.1609 H   0  0  0  0  0  0  0  0  0  0  0  0
   -3.9613   -4.5402    0.3137 H   0  0  0  0  0  0  0  0  0  0  0  0
   -4.7528   -2.1955    0.2945 H   0  0  0  0  0  0  0  0  0  0  0  0
  1  2  2  0
  2  3  1  0
  3  4  1  0
  4  5  1  0
  5  6  1  0
  5  7  2  0
  7  8  1  0
  8  9  2  3
  9 10  1  0
 10 11  2  0
 11 12  1  0
 12 13  2  0
 13 14  1  0
 13 15  1  0
 15 16  2  0
  7 17  1  0
 17 18  2  0
 18 19  1  0
 19 20  2  0
 20 21  1  0
 21 22  2  0
 22  4  1  0
 16 10  1  0
 22 17  1  0
  1 23  1  0
  1 24  1  0
  2 25  1  0
  3 26  1  0
  3 27  1  0
  6 28  1  0
  6 29  1  0
  6 30  1  0
  8 31  1  0
  9 32  1  0
 11 33  1  0
 12 34  1  0
 14 35  1  0
 14 36  1  0
 14 37  1  0
 15 38  1  0
 16 39  1  0
 18 40  1  0
 19 41  1  0
 20 42  1  0
 21 43  1  0
M  CHG  1  13   1
M  END
$$$$
