
     RDKit          3D

 24 25  0  0  0  0  0  0  0  0999 V2000
    4.4511   -1.3754    0.9372 C   0  0  0  0  0  0  0  0  0  0  0  0
    2.6618   -1.1181    0.9361 S   0  0  0  0  0  0  0  0  0  0  0  0
    2.4696   -0.1185   -0.4668 C   0  0  0  0  0  0  0  0  0  0  0  0
    3.4707    0.2471   -1.2388 N   0  0  0  0  0  0  0  0  0  0  0  0
    2.9216    0.9176   -2.2891 N   0  0  0  0  0  0  0  0  0  0  0  0
    1.6052    0.9689   -2.1833 N   0  0  0  0  0  0  0  0  0  0  0  0
    1.2775    0.3538   -1.0104 N   0  0  0  0  0  0  0  0  0  0  0  0
   -0.0878    0.3178   -0.5969 C   0  0  0  0  0  0  0  0  0  0  0  0
   -0.4910   -0.0907    0.6770 C   0  0  0  0  0  0  0  0  0  0  0  0
   -1.8489   -0.1029    1.0250 C   0  0  0  0  0  0  0  0  0  0  0  0
   -2.8357    0.2972    0.1150 C   0  0  0  0  0  0  0  0  0  0  0  0
   -4.2807    0.2702    0.5263 C   0  0  0  0  0  0  0  0  0  0  0  0
   -2.4324    0.7207   -1.1564 C   0  0  0  0  0  0  0  0  0  0  0  0
   -3.5799    1.2395   -2.3396 Cl  0  0  0  0  0  0  0  0  0  0  0  0
   -1.0773    0.7351   -1.5075 C   0  0  0  0  0  0  0  0  0  0  0  0
    4.7221   -2.0022    1.7912 H   0  0  0  0  0  0  0  0  0  0  0  0
    4.7691   -1.8834    0.0224 H   0  0  0  0  0  0  0  0  0  0  0  0
    4.9787   -0.4219    1.0283 H   0  0  0  0  0  0  0  0  0  0  0  0
    0.2040   -0.3825    1.4546 H   0  0  0  0  0  0  0  0  0  0  0  0
   -2.1286   -0.4251    2.0275 H   0  0  0  0  0  0  0  0  0  0  0  0
   -4.8526   -0.3939   -0.1297 H   0  0  0  0  0  0  0  0  0  0  0  0
   -4.3993   -0.1007    1.5501 H   0  0  0  0  0  0  0  0  0  0  0  0
   -4.7065    1.2781    0.4910 H   0  0  0  0  0  0  0  0  0  0  0  0
   -0.8107    1.0694   -2.5097 H   0  0  0  0  0  0  0  0  0  0  0  0
  1  2  1  0
  2  3  1  0
  3  4  2  0
  4  5  1  0
  5  6  2  0
  6  7  1  0
  7  8  1  0
  8  9  2  0
  9 10  1  0
 10 11  2  0
 11 12  1  0
 11 13  1  0
 13 14  1  0
 13 15  2  0
  7  3  1  0
 15  8  1  0
  1 16  1  0
  1 17  1  0
  1 18  1  0
  9 19  1  0
 10 20  1  0
 12 21  1  0
 12 22  1  0
 12 23  1  0
 15 24  1  0
M  END
$$$$
