
     RDKit          3D

 38 38  0  0  0  0  0  0  0  0999 V2000
    5.2669    3.2511    3.2115 C   0  0  0  0  0  0  0  0  0  0  0  0
    5.6217    1.9070    2.9101 O   0  0  0  0  0  0  0  0  0  0  0  0
    4.5421    1.1660    2.3383 C   0  0  0  0  0  0  0  0  0  0  0  0
    4.4016    1.4382    0.8374 C   0  0  0  0  0  0  0  0  0  0  0  0
    3.4303    0.5717    0.1919 N   0  0  0  0  0  0  0  0  0  0  0  0
    2.0764    0.7900    0.3297 C   0  0  0  0  0  0  0  0  0  0  0  0
    1.6404    1.7217    1.0026 O   0  0  0  0  0  0  0  0  0  0  0  0
    1.1622   -0.1753   -0.3796 C   0  0  0  0  0  0  0  0  0  0  0  0
    1.7394   -1.2290   -1.1325 C   0  0  0  0  0  0  0  0  0  0  0  0
    2.2747   -2.0685   -1.7297 N   0  0  0  0  0  0  0  0  0  0  0  0
   -0.1649    0.0388   -0.2470 C   0  0  0  0  0  0  0  0  0  0  0  0
   -1.3334   -0.6773   -0.7800 C   0  0  0  0  0  0  0  0  0  0  0  0
   -1.1445   -1.9154   -1.6221 C   0  0  0  0  0  0  0  0  0  0  0  0
   -2.5573   -0.1882   -0.4813 C   0  0  0  0  0  0  0  0  0  0  0  0
   -3.8347   -0.7574   -0.9197 C   0  0  0  0  0  0  0  0  0  0  0  0
   -4.3832   -0.3910   -2.1533 C   0  0  0  0  0  0  0  0  0  0  0  0
   -5.5986   -0.9372   -2.5696 C   0  0  0  0  0  0  0  0  0  0  0  0
   -6.2689   -1.8500   -1.7558 C   0  0  0  0  0  0  0  0  0  0  0  0
   -5.7258   -2.2179   -0.5251 C   0  0  0  0  0  0  0  0  0  0  0  0
   -4.5107   -1.6728   -0.1064 C   0  0  0  0  0  0  0  0  0  0  0  0
    6.1290    3.7345    3.6792 H   0  0  0  0  0  0  0  0  0  0  0  0
    4.4296    3.2791    3.9156 H   0  0  0  0  0  0  0  0  0  0  0  0
    5.0150    3.8031    2.3022 H   0  0  0  0  0  0  0  0  0  0  0  0
    4.7750    0.1052    2.4863 H   0  0  0  0  0  0  0  0  0  0  0  0
    3.6097    1.3611    2.8808 H   0  0  0  0  0  0  0  0  0  0  0  0
    5.3640    1.2862    0.3365 H   0  0  0  0  0  0  0  0  0  0  0  0
    4.1121    2.4797    0.6608 H   0  0  0  0  0  0  0  0  0  0  0  0
    3.7953   -0.2150   -0.3333 H   0  0  0  0  0  0  0  0  0  0  0  0
   -0.4503    0.9005    0.3643 H   0  0  0  0  0  0  0  0  0  0  0  0
   -0.5973   -1.6772   -2.5399 H   0  0  0  0  0  0  0  0  0  0  0  0
   -2.0859   -2.3750   -1.9370 H   0  0  0  0  0  0  0  0  0  0  0  0
   -0.6047   -2.6848   -1.0603 H   0  0  0  0  0  0  0  0  0  0  0  0
   -2.6781    0.7035    0.1322 H   0  0  0  0  0  0  0  0  0  0  0  0
   -3.8675    0.3185   -2.7959 H   0  0  0  0  0  0  0  0  0  0  0  0
   -6.0218   -0.6512   -3.5290 H   0  0  0  0  0  0  0  0  0  0  0  0
   -7.2149   -2.2753   -2.0811 H   0  0  0  0  0  0  0  0  0  0  0  0
   -6.2483   -2.9297    0.1088 H   0  0  0  0  0  0  0  0  0  0  0  0
   -4.0948   -1.9679    0.8540 H   0  0  0  0  0  0  0  0  0  0  0  0
  1  2  1  0
  2  3  1  0
  3  4  1  0
  4  5  1  0
  5  6  1  0
  6  7  2  0
  6  8  1  0
  8  9  1  0
  9 10  3  0
  8 11  2  3
 11 12  1  0
 12 13  1  0
 12 14  2  3
 14 15  1  0
 15 16  2  0
 16 17  1  0
 17 18  2  0
 18 19  1  0
 19 20  2  0
 20 15  1  0
  1 21  1  0
  1 22  1  0
  1 23  1  0
  3 24  1  0
  3 25  1  0
  4 26  1  0
  4 27  1  0
  5 28  1  0
 11 29  1  0
 13 30  1  0
 13 31  1  0
 13 32  1  0
 14 33  1  0
 16 34  1  0
 17 35  1  0
 18 36  1  0
 19 37  1  0
 20 38  1  0
M  END
$$$$
