
     RDKit          3D

 37 39  0  0  0  0  0  0  0  0999 V2000
    3.2052    1.4568    5.0034 C   0  0  0  0  0  0  0  0  0  0  0  0
    2.4416    1.3758    3.8057 O   0  0  0  0  0  0  0  0  0  0  0  0
    2.2725    0.1299    3.2621 C   0  0  0  0  0  0  0  0  0  0  0  0
    2.7854   -1.0612    3.7715 C   0  0  0  0  0  0  0  0  0  0  0  0
    2.5490   -2.2844    3.1302 C   0  0  0  0  0  0  0  0  0  0  0  0
    1.7814   -2.2724    1.9607 C   0  0  0  0  0  0  0  0  0  0  0  0
    1.4006   -3.3094    1.1412 N   0  0  0  0  0  0  0  0  0  0  0  0
    0.6474   -2.8376    0.0964 C   0  0  0  0  0  0  0  0  0  0  0  0
    0.5332   -1.4709    0.2366 C   0  0  0  0  0  0  0  0  0  0  0  0
   -0.1670   -0.5812   -0.6380 C   0  0  0  0  0  0  0  0  0  0  0  0
   -0.8790   -0.9329   -1.7225 C   0  0  0  0  0  0  0  0  0  0  0  0
   -1.5791    0.0317   -2.5776 C   0  0  0  0  0  0  0  0  0  0  0  0
   -0.9869    1.2262   -2.9859 C   0  0  0  0  0  0  0  0  0  0  0  0
   -1.6874    2.0949   -3.8149 C   0  0  0  0  0  0  0  0  0  0  0  0
   -2.9367    1.7912   -4.2319 N   0  0  0  0  0  4  0  0  0  0  0  0
   -3.6562    2.7246   -5.1151 C   0  0  0  0  0  0  0  0  0  0  0  0
   -3.5218    0.6283   -3.8685 C   0  0  0  0  0  0  0  0  0  0  0  0
   -2.8572   -0.2713   -3.0424 C   0  0  0  0  0  0  0  0  0  0  0  0
    1.2510   -1.1017    1.4187 C   0  0  0  0  0  0  0  0  0  0  0  0
    1.5061    0.1148    2.0883 C   0  0  0  0  0  0  0  0  0  0  0  0
    4.2344    1.1214    4.8385 H   0  0  0  0  0  0  0  0  0  0  0  0
    2.7295    0.8944    5.8136 H   0  0  0  0  0  0  0  0  0  0  0  0
    3.2423    2.5080    5.3052 H   0  0  0  0  0  0  0  0  0  0  0  0
    3.3823   -1.0801    4.6783 H   0  0  0  0  0  0  0  0  0  0  0  0
    2.9528   -3.2073    3.5353 H   0  0  0  0  0  0  0  0  0  0  0  0
    1.6468   -4.2782    1.2936 H   0  0  0  0  0  0  0  0  0  0  0  0
    0.2693   -3.5269   -0.6458 H   0  0  0  0  0  0  0  0  0  0  0  0
   -0.1111    0.4713   -0.3681 H   0  0  0  0  0  0  0  0  0  0  0  0
   -0.9819   -1.9796   -1.9989 H   0  0  0  0  0  0  0  0  0  0  0  0
    0.0232    1.4846   -2.6729 H   0  0  0  0  0  0  0  0  0  0  0  0
   -1.2546    3.0322   -4.1535 H   0  0  0  0  0  0  0  0  0  0  0  0
   -3.4061    2.4591   -6.1451 H   0  0  0  0  0  0  0  0  0  0  0  0
   -3.3417    3.7466   -4.8883 H   0  0  0  0  0  0  0  0  0  0  0  0
   -4.7307    2.6297   -4.9379 H   0  0  0  0  0  0  0  0  0  0  0  0
   -4.5207    0.4253   -4.2447 H   0  0  0  0  0  0  0  0  0  0  0  0
   -3.3466   -1.2009   -2.7567 H   0  0  0  0  0  0  0  0  0  0  0  0
    1.1110    1.0491    1.7024 H   0  0  0  0  0  0  0  0  0  0  0  0
  1  2  1  0
  2  3  1  0
  3  4  2  0
  4  5  1  0
  5  6  2  0
  6  7  1  0
  7  8  1  0
  8  9  2  0
  9 10  1  0
 10 11  2  3
 11 12  1  0
 12 13  2  0
 13 14  1  0
 14 15  2  0
 15 16  1  0
 15 17  1  0
 17 18  2  0
  9 19  1  0
 19 20  2  0
 20  3  1  0
 19  6  1  0
 18 12  1  0
  1 21  1  0
  1 22  1  0
  1 23  1  0
  4 24  1  0
  5 25  1  0
  7 26  1  0
  8 27  1  0
 10 28  1  0
 11 29  1  0
 13 30  1  0
 14 31  1  0
 16 32  1  0
 16 33  1  0
 16 34  1  0
 17 35  1  0
 18 36  1  0
 20 37  1  0
M  CHG  1  15   1
M  END
$$$$
