
     RDKit          3D

 35 35  0  0  0  0  0  0  0  0999 V2000
   -4.7530    0.4854    0.5716 C   0  0  0  0  0  0  0  0  0  0  0  0
   -3.3589   -0.1546    0.5182 C   0  0  0  0  0  0  0  0  0  0  0  0
   -3.4666   -1.6117    0.0517 C   0  0  0  0  0  0  0  0  0  0  0  0
   -2.4203    0.6933   -0.2526 N   0  0  0  0  0  0  0  0  0  0  0  0
   -2.6849    0.7012   -1.6943 C   0  0  0  0  0  0  0  0  0  0  0  0
   -1.0155    0.3288    0.0247 C   0  0  0  0  0  0  0  0  0  0  0  0
    0.0007    1.4031   -0.4007 C   0  0  0  0  0  0  0  0  0  0  0  0
    1.3168    1.0743    0.0826 O   0  0  0  0  0  0  0  0  0  0  0  0
    1.9899    0.1618   -0.6606 C   0  0  0  0  0  0  0  0  0  0  0  0
    1.6073   -0.3811   -1.6811 O   0  0  0  0  0  0  0  0  0  0  0  0
    3.2901   -0.0876   -0.0143 C   0  0  0  0  0  0  0  0  0  0  0  0
    4.1638    0.9969    0.1613 C   0  0  0  0  0  0  0  0  0  0  0  0
    5.4157    0.7987    0.7439 C   0  0  0  0  0  0  0  0  0  0  0  0
    5.7985   -0.4784    1.1507 C   0  0  0  0  0  0  0  0  0  0  0  0
    4.9299   -1.5592    0.9799 C   0  0  0  0  0  0  0  0  0  0  0  0
    3.6724   -1.3684    0.3967 C   0  0  0  0  0  0  0  0  0  0  0  0
    2.5345   -2.8808    0.2528 Br  0  0  0  0  0  0  0  0  0  0  0  0
   -4.6928    1.5310    0.8933 H   0  0  0  0  0  0  0  0  0  0  0  0
   -5.3856   -0.0428    1.2940 H   0  0  0  0  0  0  0  0  0  0  0  0
   -5.2643    0.4517   -0.3956 H   0  0  0  0  0  0  0  0  0  0  0  0
   -3.0120   -0.1706    1.5605 H   0  0  0  0  0  0  0  0  0  0  0  0
   -3.8961   -1.6901   -0.9523 H   0  0  0  0  0  0  0  0  0  0  0  0
   -2.4910   -2.1074    0.0490 H   0  0  0  0  0  0  0  0  0  0  0  0
   -4.1152   -2.1787    0.7290 H   0  0  0  0  0  0  0  0  0  0  0  0
   -2.4546   -0.2593   -2.1681 H   0  0  0  0  0  0  0  0  0  0  0  0
   -3.7271    0.9520   -1.9130 H   0  0  0  0  0  0  0  0  0  0  0  0
   -2.0913    1.4738   -2.1935 H   0  0  0  0  0  0  0  0  0  0  0  0
   -0.7578   -0.6330   -0.4352 H   0  0  0  0  0  0  0  0  0  0  0  0
   -0.8785    0.1826    1.1047 H   0  0  0  0  0  0  0  0  0  0  0  0
    0.0279    1.5515   -1.4861 H   0  0  0  0  0  0  0  0  0  0  0  0
   -0.2647    2.3659    0.0500 H   0  0  0  0  0  0  0  0  0  0  0  0
    3.8724    1.9945   -0.1603 H   0  0  0  0  0  0  0  0  0  0  0  0
    6.0932    1.6390    0.8784 H   0  0  0  0  0  0  0  0  0  0  0  0
    6.7747   -0.6342    1.6048 H   0  0  0  0  0  0  0  0  0  0  0  0
    5.2428   -2.5475    1.3098 H   0  0  0  0  0  0  0  0  0  0  0  0
  1  2  1  0
  2  3  1  0
  2  4  1  0
  4  5  1  0
  4  6  1  0
  6  7  1  0
  7  8  1  0
  8  9  1  0
  9 10  2  0
  9 11  1  0
 11 12  2  0
 12 13  1  0
 13 14  2  0
 14 15  1  0
 15 16  2  0
 16 17  1  0
 16 11  1  0
  1 18  1  0
  1 19  1  0
  1 20  1  0
  2 21  1  0
  3 22  1  0
  3 23  1  0
  3 24  1  0
  5 25  1  0
  5 26  1  0
  5 27  1  0
  6 28  1  0
  6 29  1  0
  7 30  1  0
  7 31  1  0
 12 32  1  0
 13 33  1  0
 14 34  1  0
 15 35  1  0
M  END
$$$$
