
     RDKit          3D

 54 57  0  0  0  0  0  0  0  0999 V2000
   -5.2743    0.5606   -3.3213 C   0  0  0  0  0  0  0  0  0  0  0  0
   -5.1473    1.5526   -2.3118 O   0  0  0  0  0  0  0  0  0  0  0  0
   -4.0325    1.5040   -1.5154 C   0  0  0  0  0  0  0  0  0  0  0  0
   -3.0631    0.4979   -1.5561 C   0  0  0  0  0  0  0  0  0  0  0  0
   -1.9355    0.5175   -0.7081 C   0  0  0  0  0  0  0  0  0  0  0  0
   -0.9327   -0.5678   -0.7802 C   0  0  0  0  0  0  0  0  0  0  0  0
    0.4152   -0.3721   -0.5346 C   0  0  0  0  0  0  0  0  0  0  0  0
    1.2731   -1.4687   -0.6377 C   0  0  0  0  0  0  0  0  0  0  0  0
    2.7061   -1.2367   -0.3559 C   0  0  0  0  0  0  0  0  0  0  0  0
    3.5037   -1.3347   -1.2768 O   0  0  0  0  0  0  0  0  0  0  0  0
    2.9594   -0.9318    0.9672 N   0  0  0  0  0  0  0  0  0  0  0  0
    4.2073   -0.6287    1.5489 C   0  0  0  0  0  0  0  0  0  0  0  0
    5.4006   -0.5345    0.8282 C   0  0  0  0  0  0  0  0  0  0  0  0
    6.6012   -0.2238    1.4771 C   0  0  0  0  0  0  0  0  0  0  0  0
    6.6040   -0.0061    2.8494 C   0  0  0  0  0  0  0  0  0  0  0  0
    7.7501    0.2988    3.5199 O   0  0  0  0  0  0  0  0  0  0  0  0
    5.4282   -0.0936    3.5815 C   0  0  0  0  0  0  0  0  0  0  0  0
    4.2310   -0.4040    2.9320 C   0  0  0  0  0  0  0  0  0  0  0  0
    0.7985   -2.7440   -0.9993 C   0  0  0  0  0  0  0  0  0  0  0  0
    1.6063   -3.9008   -1.1338 C   0  0  0  0  0  0  0  0  0  0  0  0
    1.0470   -5.1271   -1.4859 C   0  0  0  0  0  0  0  0  0  0  0  0
   -0.3201   -5.2150   -1.7061 C   0  0  0  0  0  0  0  0  0  0  0  0
   -1.1172   -4.0752   -1.5748 C   0  0  0  0  0  0  0  0  0  0  0  0
   -0.5844   -2.8408   -1.2265 C   0  0  0  0  0  0  0  0  0  0  0  0
   -1.4166   -1.7896   -1.1160 N   0  0  0  0  0  0  0  0  0  0  0  0
   -1.8113    1.5890    0.1993 C   0  0  0  0  0  0  0  0  0  0  0  0
   -2.7641    2.6119    0.2549 C   0  0  0  0  0  0  0  0  0  0  0  0
   -2.7106    3.6801    1.1133 O   0  0  0  0  0  0  0  0  0  0  0  0
   -1.4644    3.9512    1.7394 C   0  0  0  0  0  0  0  0  0  0  0  0
   -3.8809    2.5482   -0.5917 C   0  0  0  0  0  0  0  0  0  0  0  0
   -4.8029    3.5718   -0.5664 O   0  0  0  0  0  0  0  0  0  0  0  0
   -5.8541    3.2519    0.3432 C   0  0  0  0  0  0  0  0  0  0  0  0
   -6.1840    0.7770   -3.8896 H   0  0  0  0  0  0  0  0  0  0  0  0
   -5.3871   -0.4357   -2.8816 H   0  0  0  0  0  0  0  0  0  0  0  0
   -4.4310    0.5938   -4.0191 H   0  0  0  0  0  0  0  0  0  0  0  0
   -3.1579   -0.3316   -2.2523 H   0  0  0  0  0  0  0  0  0  0  0  0
    0.8117    0.6106   -0.3021 H   0  0  0  0  0  0  0  0  0  0  0  0
    2.1736   -0.9696    1.6052 H   0  0  0  0  0  0  0  0  0  0  0  0
    5.4320   -0.6951   -0.2450 H   0  0  0  0  0  0  0  0  0  0  0  0
    7.5133   -0.1574    0.8923 H   0  0  0  0  0  0  0  0  0  0  0  0
    8.4844    0.3185    2.8840 H   0  0  0  0  0  0  0  0  0  0  0  0
    5.4427    0.0779    4.6541 H   0  0  0  0  0  0  0  0  0  0  0  0
    3.3235   -0.4691    3.5259 H   0  0  0  0  0  0  0  0  0  0  0  0
    2.6826   -3.8489   -0.9753 H   0  0  0  0  0  0  0  0  0  0  0  0
    1.6785   -6.0057   -1.5915 H   0  0  0  0  0  0  0  0  0  0  0  0
   -0.7711   -6.1644   -1.9832 H   0  0  0  0  0  0  0  0  0  0  0  0
   -2.1880   -4.1533   -1.7505 H   0  0  0  0  0  0  0  0  0  0  0  0
   -0.9702    1.6008    0.8840 H   0  0  0  0  0  0  0  0  0  0  0  0
   -1.2381    3.1960    2.4988 H   0  0  0  0  0  0  0  0  0  0  0  0
   -1.5477    4.9173    2.2465 H   0  0  0  0  0  0  0  0  0  0  0  0
   -0.6548    4.0285    1.0057 H   0  0  0  0  0  0  0  0  0  0  0  0
   -5.4756    3.1291    1.3639 H   0  0  0  0  0  0  0  0  0  0  0  0
   -6.5607    4.0873    0.3444 H   0  0  0  0  0  0  0  0  0  0  0  0
   -6.3959    2.3529    0.0298 H   0  0  0  0  0  0  0  0  0  0  0  0
  1  2  1  0
  2  3  1  0
  3  4  2  0
  4  5  1  0
  5  6  1  0
  6  7  2  0
  7  8  1  0
  8  9  1  0
  9 10  2  0
  9 11  1  0
 11 12  1  0
 12 13  2  0
 13 14  1  0
 14 15  2  0
 15 16  1  0
 15 17  1  0
 17 18  2  0
  8 19  2  0
 19 20  1  0
 20 21  2  0
 21 22  1  0
 22 23  2  0
 23 24  1  0
 24 25  2  0
  5 26  2  0
 26 27  1  0
 27 28  1  0
 28 29  1  0
 27 30  2  0
 30 31  1  0
 31 32  1  0
 30  3  1  0
 25  6  1  0
 18 12  1  0
 24 19  1  0
  1 33  1  0
  1 34  1  0
  1 35  1  0
  4 36  1  0
  7 37  1  0
 11 38  1  0
 13 39  1  0
 14 40  1  0
 16 41  1  0
 17 42  1  0
 18 43  1  0
 20 44  1  0
 21 45  1  0
 22 46  1  0
 23 47  1  0
 26 48  1  0
 29 49  1  0
 29 50  1  0
 29 51  1  0
 32 52  1  0
 32 53  1  0
 32 54  1  0
M  END
$$$$
