
     RDKit          3D

 39 40  0  0  0  0  0  0  0  0999 V2000
   -1.3008    1.3695    2.2066 O   0  0  0  0  0  0  0  0  0  0  0  0
   -1.1944    0.7757    1.1406 C   0  0  0  0  0  0  0  0  0  0  0  0
    0.1150    0.7327    0.3668 C   0  0  0  0  0  0  0  0  0  0  0  0
    1.2594    1.4057    1.1253 C   0  0  0  0  0  0  0  0  0  0  0  0
    2.5484    1.4385    0.3084 C   0  0  0  0  0  0  0  0  0  0  0  0
    2.9322    0.0990    0.0017 O   0  0  0  0  0  0  0  0  0  0  0  0
    4.0603   -0.0686   -0.7530 C   0  0  0  0  0  0  0  0  0  0  0  0
    4.8934    0.9473   -1.2234 C   0  0  0  0  0  0  0  0  0  0  0  0
    6.0204    0.6327   -1.9898 C   0  0  0  0  0  0  0  0  0  0  0  0
    6.3193   -0.6957   -2.2877 C   0  0  0  0  0  0  0  0  0  0  0  0
    5.4925   -1.7133   -1.8187 C   0  0  0  0  0  0  0  0  0  0  0  0
    4.3681   -1.3982   -1.0539 C   0  0  0  0  0  0  0  0  0  0  0  0
   -2.1950    0.0845    0.4717 N   0  0  0  0  0  0  0  0  0  0  0  0
   -3.5468   -0.0962    0.8566 C   0  0  0  0  0  0  0  0  0  0  0  0
   -4.0608    0.4593    2.0367 C   0  0  0  0  0  0  0  0  0  0  0  0
   -5.3970    0.2764    2.4061 C   0  0  0  0  0  0  0  0  0  0  0  0
   -6.2483   -0.4677    1.6021 C   0  0  0  0  0  0  0  0  0  0  0  0
   -5.7597   -1.0293    0.4269 C   0  0  0  0  0  0  0  0  0  0  0  0
   -4.4131   -0.8525    0.0374 C   0  0  0  0  0  0  0  0  0  0  0  0
   -3.9856   -1.5156   -1.2475 C   0  0  0  0  0  0  0  0  0  0  0  0
   -4.7794   -1.1784   -2.3026 F   0  0  0  0  0  0  0  0  0  0  0  0
   -4.0265   -2.8750   -1.1712 F   0  0  0  0  0  0  0  0  0  0  0  0
   -2.7125   -1.2102   -1.6383 F   0  0  0  0  0  0  0  0  0  0  0  0
    0.3610   -0.3170    0.1677 H   0  0  0  0  0  0  0  0  0  0  0  0
   -0.0429    1.2382   -0.5933 H   0  0  0  0  0  0  0  0  0  0  0  0
    0.9822    2.4308    1.3980 H   0  0  0  0  0  0  0  0  0  0  0  0
    1.4343    0.8567    2.0591 H   0  0  0  0  0  0  0  0  0  0  0  0
    3.3297    1.9252    0.9042 H   0  0  0  0  0  0  0  0  0  0  0  0
    2.3784    2.0066   -0.6143 H   0  0  0  0  0  0  0  0  0  0  0  0
    4.6987    1.9928   -1.0110 H   0  0  0  0  0  0  0  0  0  0  0  0
    6.6670    1.4275   -2.3532 H   0  0  0  0  0  0  0  0  0  0  0  0
    7.1963   -0.9370   -2.8826 H   0  0  0  0  0  0  0  0  0  0  0  0
    5.7215   -2.7512   -2.0450 H   0  0  0  0  0  0  0  0  0  0  0  0
    3.7263   -2.1956   -0.6877 H   0  0  0  0  0  0  0  0  0  0  0  0
   -1.9110   -0.3430   -0.4065 H   0  0  0  0  0  0  0  0  0  0  0  0
   -3.4441    1.0510    2.7065 H   0  0  0  0  0  0  0  0  0  0  0  0
   -5.7652    0.7204    3.3282 H   0  0  0  0  0  0  0  0  0  0  0  0
   -7.2867   -0.6110    1.8901 H   0  0  0  0  0  0  0  0  0  0  0  0
   -6.4345   -1.6149   -0.1975 H   0  0  0  0  0  0  0  0  0  0  0  0
  1  2  2  0
  2  3  1  0
  3  4  1  0
  4  5  1  0
  5  6  1  0
  6  7  1  0
  7  8  2  0
  8  9  1  0
  9 10  2  0
 10 11  1  0
 11 12  2  0
  2 13  1  0
 13 14  1  0
 14 15  2  0
 15 16  1  0
 16 17  2  0
 17 18  1  0
 18 19  2  0
 19 20  1  0
 20 21  1  0
 20 22  1  0
 20 23  1  0
 12  7  1  0
 19 14  1  0
  3 24  1  0
  3 25  1  0
  4 26  1  0
  4 27  1  0
  5 28  1  0
  5 29  1  0
  8 30  1  0
  9 31  1  0
 10 32  1  0
 11 33  1  0
 12 34  1  0
 13 35  1  0
 15 36  1  0
 16 37  1  0
 17 38  1  0
 18 39  1  0
M  END
$$$$
