
     RDKit          3D

 45 46  0  0  0  0  0  0  0  0999 V2000
    6.9080    0.0548    2.5127 C   0  0  0  0  0  0  0  0  0  0  0  0
    6.1476    0.2834    1.3320 O   0  0  0  0  0  0  0  0  0  0  0  0
    5.0271   -0.4818    1.1580 C   0  0  0  0  0  0  0  0  0  0  0  0
    4.5692   -1.4733    2.0269 C   0  0  0  0  0  0  0  0  0  0  0  0
    3.4026   -2.1837    1.7258 C   0  0  0  0  0  0  0  0  0  0  0  0
    2.6797   -1.8967    0.5614 C   0  0  0  0  0  0  0  0  0  0  0  0
    1.4645   -2.6966    0.2996 C   0  0  0  0  0  0  0  0  0  0  0  0
    1.5149   -3.9210    0.3942 O   0  0  0  0  0  0  0  0  0  0  0  0
    0.1691   -2.0415   -0.0254 C   0  0  0  0  0  0  0  0  0  0  0  0
   -0.1406   -0.7678    0.2621 C   0  0  0  0  0  0  0  0  0  0  0  0
   -1.4438   -0.1593   -0.0492 C   0  0  0  0  0  0  0  0  0  0  0  0
   -1.9983    0.7484    0.8658 C   0  0  0  0  0  0  0  0  0  0  0  0
   -3.2156    1.3794    0.5966 C   0  0  0  0  0  0  0  0  0  0  0  0
   -3.8321    2.2761    1.4312 O   0  0  0  0  0  0  0  0  0  0  0  0
   -3.3501    2.3595    2.7652 C   0  0  0  0  0  0  0  0  0  0  0  0
   -3.8616    1.1153   -0.6225 C   0  0  0  0  0  0  0  0  0  0  0  0
   -5.0783    1.7078   -0.8829 O   0  0  0  0  0  0  0  0  0  0  0  0
   -4.8770    2.9336   -1.5840 C   0  0  0  0  0  0  0  0  0  0  0  0
   -3.3288    0.2020   -1.5471 C   0  0  0  0  0  0  0  0  0  0  0  0
   -4.0505    0.0083   -2.6971 O   0  0  0  0  0  0  0  0  0  0  0  0
   -3.6625   -1.0721   -3.5349 C   0  0  0  0  0  0  0  0  0  0  0  0
   -2.1102   -0.4171   -1.2576 C   0  0  0  0  0  0  0  0  0  0  0  0
    3.1544   -0.9234   -0.3214 C   0  0  0  0  0  0  0  0  0  0  0  0
    2.4995   -0.6754   -1.4953 O   0  0  0  0  0  0  0  0  0  0  0  0
    4.3176   -0.2131   -0.0182 C   0  0  0  0  0  0  0  0  0  0  0  0
    7.2968   -0.9685    2.5416 H   0  0  0  0  0  0  0  0  0  0  0  0
    6.3193    0.2808    3.4082 H   0  0  0  0  0  0  0  0  0  0  0  0
    7.7635    0.7366    2.4953 H   0  0  0  0  0  0  0  0  0  0  0  0
    5.0969   -1.7252    2.9408 H   0  0  0  0  0  0  0  0  0  0  0  0
    3.0572   -2.9654    2.4003 H   0  0  0  0  0  0  0  0  0  0  0  0
   -0.5535   -2.7189   -0.4700 H   0  0  0  0  0  0  0  0  0  0  0  0
    0.5677   -0.1171    0.7675 H   0  0  0  0  0  0  0  0  0  0  0  0
   -1.4615    0.9488    1.7876 H   0  0  0  0  0  0  0  0  0  0  0  0
   -4.0297    3.0083    3.3266 H   0  0  0  0  0  0  0  0  0  0  0  0
   -3.3471    1.3786    3.2524 H   0  0  0  0  0  0  0  0  0  0  0  0
   -2.3559    2.8166    2.7928 H   0  0  0  0  0  0  0  0  0  0  0  0
   -5.8600    3.3710   -1.7821 H   0  0  0  0  0  0  0  0  0  0  0  0
   -4.3048    3.6481   -0.9823 H   0  0  0  0  0  0  0  0  0  0  0  0
   -4.3817    2.7680   -2.5466 H   0  0  0  0  0  0  0  0  0  0  0  0
   -2.6952   -0.8724   -4.0072 H   0  0  0  0  0  0  0  0  0  0  0  0
   -4.4080   -1.1619   -4.3310 H   0  0  0  0  0  0  0  0  0  0  0  0
   -3.6474   -2.0192   -2.9847 H   0  0  0  0  0  0  0  0  0  0  0  0
   -1.6514   -1.0928   -1.9721 H   0  0  0  0  0  0  0  0  0  0  0  0
    2.9935   -0.0120   -2.0062 H   0  0  0  0  0  0  0  0  0  0  0  0
    4.6966    0.5510   -0.6912 H   0  0  0  0  0  0  0  0  0  0  0  0
  1  2  1  0
  2  3  1  0
  3  4  2  0
  4  5  1  0
  5  6  2  0
  6  7  1  0
  7  8  2  0
  7  9  1  0
  9 10  2  0
 10 11  1  0
 11 12  2  0
 12 13  1  0
 13 14  1  0
 14 15  1  0
 13 16  2  0
 16 17  1  0
 17 18  1  0
 16 19  1  0
 19 20  1  0
 20 21  1  0
 19 22  2  0
  6 23  1  0
 23 24  1  0
 23 25  2  0
 25  3  1  0
 22 11  1  0
  1 26  1  0
  1 27  1  0
  1 28  1  0
  4 29  1  0
  5 30  1  0
  9 31  1  0
 10 32  1  0
 12 33  1  0
 15 34  1  0
 15 35  1  0
 15 36  1  0
 18 37  1  0
 18 38  1  0
 18 39  1  0
 21 40  1  0
 21 41  1  0
 21 42  1  0
 22 43  1  0
 24 44  1  0
 25 45  1  0
M  END
$$$$
