
     RDKit          3D

 35 36  0  0  0  0  0  0  0  0999 V2000
    5.4858    1.2256    1.6267 C   0  0  0  0  0  0  0  0  0  0  0  0
    4.3956    0.4399    0.9581 C   0  0  0  0  0  0  0  0  0  0  0  0
    4.3433    0.3511   -0.4401 C   0  0  0  0  0  0  0  0  0  0  0  0
    3.3160   -0.3559   -1.0671 C   0  0  0  0  0  0  0  0  0  0  0  0
    2.3263   -0.9598   -0.2896 C   0  0  0  0  0  0  0  0  0  0  0  0
    1.0154   -1.8684   -1.0745 S   0  0  0  0  0  6  0  0  0  0  0  0
    0.6436   -2.9463   -0.1783 O   0  0  0  0  0  0  0  0  0  0  0  0
    1.4348   -2.1512   -2.4353 O   0  0  0  0  0  0  0  0  0  0  0  0
   -0.3093   -0.6822   -1.1412 C   0  0  0  0  0  0  0  0  0  0  0  0
   -1.5534   -1.3341   -1.7156 C   0  0  0  0  0  0  0  0  0  0  0  0
   -2.8974   -0.1261   -1.9527 S   0  0  0  0  0  0  0  0  0  0  0  0
   -3.4570    0.0838   -0.3277 C   0  0  0  0  0  0  0  0  0  0  0  0
   -2.8577   -0.3686    0.7495 N   0  0  0  0  0  0  0  0  0  0  0  0
   -3.6478    0.0284    1.7969 C   0  0  0  0  0  0  0  0  0  0  0  0
   -4.7360    0.7382    1.3463 C   0  0  0  0  0  0  0  0  0  0  0  0
   -4.6026    0.7675   -0.0173 N   0  0  0  0  0  0  0  0  0  0  0  0
   -5.5208    1.4027   -0.9305 C   0  0  0  0  0  0  0  0  0  0  0  0
    2.3638   -0.8816    1.1043 C   0  0  0  0  0  0  0  0  0  0  0  0
    3.3939   -0.1727    1.7238 C   0  0  0  0  0  0  0  0  0  0  0  0
    6.4083    1.1932    1.0376 H   0  0  0  0  0  0  0  0  0  0  0  0
    5.7166    0.8115    2.6138 H   0  0  0  0  0  0  0  0  0  0  0  0
    5.1766    2.2688    1.7437 H   0  0  0  0  0  0  0  0  0  0  0  0
    5.1098    0.8268   -1.0488 H   0  0  0  0  0  0  0  0  0  0  0  0
    3.3001   -0.4309   -2.1521 H   0  0  0  0  0  0  0  0  0  0  0  0
    0.0354    0.1468   -1.7687 H   0  0  0  0  0  0  0  0  0  0  0  0
   -0.4661   -0.3209   -0.1217 H   0  0  0  0  0  0  0  0  0  0  0  0
   -1.9012   -2.1621   -1.0882 H   0  0  0  0  0  0  0  0  0  0  0  0
   -1.3324   -1.7606   -2.7002 H   0  0  0  0  0  0  0  0  0  0  0  0
   -3.3925   -0.2174    2.8198 H   0  0  0  0  0  0  0  0  0  0  0  0
   -5.5629    1.2028    1.8650 H   0  0  0  0  0  0  0  0  0  0  0  0
   -5.9246    0.6449   -1.6065 H   0  0  0  0  0  0  0  0  0  0  0  0
   -6.3382    1.8593   -0.3659 H   0  0  0  0  0  0  0  0  0  0  0  0
   -4.9850    2.1771   -1.4852 H   0  0  0  0  0  0  0  0  0  0  0  0
    1.6032   -1.3678    1.7117 H   0  0  0  0  0  0  0  0  0  0  0  0
    3.4161   -0.1074    2.8099 H   0  0  0  0  0  0  0  0  0  0  0  0
  1  2  1  0
  2  3  2  0
  3  4  1  0
  4  5  2  0
  5  6  1  0
  6  7  2  0
  6  8  2  0
  6  9  1  0
  9 10  1  0
 10 11  1  0
 11 12  1  0
 12 13  2  0
 13 14  1  0
 14 15  2  0
 15 16  1  0
 16 17  1  0
  5 18  1  0
 18 19  2  0
 19  2  1  0
 16 12  1  0
  1 20  1  0
  1 21  1  0
  1 22  1  0
  3 23  1  0
  4 24  1  0
  9 25  1  0
  9 26  1  0
 10 27  1  0
 10 28  1  0
 14 29  1  0
 15 30  1  0
 17 31  1  0
 17 32  1  0
 17 33  1  0
 18 34  1  0
 19 35  1  0
M  END
$$$$
