
     RDKit          3D

 51 55  0  0  0  0  0  0  0  0999 V2000
    9.1397    0.0673    2.3210 F   0  0  0  0  0  0  0  0  0  0  0  0
    7.9505    0.0141    1.7067 C   0  0  0  0  0  0  0  0  0  0  0  0
    7.1069   -1.0648    1.9416 C   0  0  0  0  0  0  0  0  0  0  0  0
    5.8673   -1.1214    1.3033 C   0  0  0  0  0  0  0  0  0  0  0  0
    5.4752   -0.0982    0.4264 C   0  0  0  0  0  0  0  0  0  0  0  0
    4.1247   -0.1474   -0.2513 C   0  0  0  0  0  0  0  0  0  0  0  0
    3.0288    0.4841    0.6239 C   0  0  0  0  0  0  0  0  0  0  0  0
    1.7213    0.5742   -0.0537 N   0  0  0  0  0  0  0  0  0  0  0  0
    1.1038   -0.7563   -0.2577 C   0  0  0  0  0  0  0  0  0  0  0  0
   -0.3058   -0.6735   -0.8845 C   0  0  0  0  0  0  0  0  0  0  0  0
   -1.1959    0.1693   -0.0620 N   0  0  0  0  0  0  0  0  0  0  0  0
   -2.5650    0.0889   -0.3100 C   0  0  0  0  0  0  0  0  0  0  0  0
   -3.1978    1.1408   -0.7652 N   0  0  0  0  0  0  0  0  0  0  0  0
   -4.5757    1.0792   -1.0533 C   0  0  0  0  0  0  0  0  0  0  0  0
   -5.2002    2.2237   -1.5528 C   0  0  0  0  0  0  0  0  0  0  0  0
   -6.5627    2.2153   -1.8640 C   0  0  0  0  0  0  0  0  0  0  0  0
   -7.3165    1.0558   -1.6779 C   0  0  0  0  0  0  0  0  0  0  0  0
   -6.7139   -0.0999   -1.1797 C   0  0  0  0  0  0  0  0  0  0  0  0
   -5.3500   -0.0762   -0.8735 C   0  0  0  0  0  0  0  0  0  0  0  0
   -4.6669   -1.1893   -0.3578 N   0  0  0  0  0  0  0  0  0  0  0  0
   -5.1394   -2.4432   -0.0492 C   0  0  0  0  0  0  0  0  0  0  0  0
   -4.1023   -3.1734    0.4904 C   0  0  0  0  0  0  0  0  0  0  0  0
   -2.9609   -2.3385    0.4966 C   0  0  0  0  0  0  0  0  0  0  0  0
   -3.3236   -1.1269   -0.0642 C   0  0  0  0  0  0  0  0  0  0  0  0
   -0.6151    1.5141    0.1305 C   0  0  0  0  0  0  0  0  0  0  0  0
    0.7949    1.4110    0.7485 C   0  0  0  0  0  0  0  0  0  0  0  0
    6.3392    0.9856    0.2065 C   0  0  0  0  0  0  0  0  0  0  0  0
    7.5782    1.0395    0.8462 C   0  0  0  0  0  0  0  0  0  0  0  0
    7.4192   -1.8528    2.6191 H   0  0  0  0  0  0  0  0  0  0  0  0
    5.2101   -1.9674    1.4922 H   0  0  0  0  0  0  0  0  0  0  0  0
    4.1837    0.3730   -1.2161 H   0  0  0  0  0  0  0  0  0  0  0  0
    3.8907   -1.1930   -0.4835 H   0  0  0  0  0  0  0  0  0  0  0  0
    2.9386   -0.0642    1.5714 H   0  0  0  0  0  0  0  0  0  0  0  0
    3.3568    1.4997    0.8845 H   0  0  0  0  0  0  0  0  0  0  0  0
    1.0357   -1.2924    0.6984 H   0  0  0  0  0  0  0  0  0  0  0  0
    1.7241   -1.3576   -0.9306 H   0  0  0  0  0  0  0  0  0  0  0  0
   -0.6986   -1.6901   -0.9831 H   0  0  0  0  0  0  0  0  0  0  0  0
   -0.2405   -0.2556   -1.8976 H   0  0  0  0  0  0  0  0  0  0  0  0
   -4.6153    3.1276   -1.7006 H   0  0  0  0  0  0  0  0  0  0  0  0
   -7.0333    3.1150   -2.2521 H   0  0  0  0  0  0  0  0  0  0  0  0
   -8.3764    1.0546   -1.9210 H   0  0  0  0  0  0  0  0  0  0  0  0
   -7.3205   -0.9884   -1.0410 H   0  0  0  0  0  0  0  0  0  0  0  0
   -6.1699   -2.7206   -0.2161 H   0  0  0  0  0  0  0  0  0  0  0  0
   -4.1664   -4.1924    0.8499 H   0  0  0  0  0  0  0  0  0  0  0  0
   -1.9781   -2.5904    0.8721 H   0  0  0  0  0  0  0  0  0  0  0  0
   -1.2450    2.1002    0.8107 H   0  0  0  0  0  0  0  0  0  0  0  0
   -0.5664    2.0456   -0.8286 H   0  0  0  0  0  0  0  0  0  0  0  0
    1.2022    2.4256    0.8341 H   0  0  0  0  0  0  0  0  0  0  0  0
    0.7070    1.0045    1.7654 H   0  0  0  0  0  0  0  0  0  0  0  0
    6.0506    1.7923   -0.4642 H   0  0  0  0  0  0  0  0  0  0  0  0
    8.2529    1.8729    0.6797 H   0  0  0  0  0  0  0  0  0  0  0  0
  1  2  1  0
  2  3  2  0
  3  4  1  0
  4  5  2  0
  5  6  1  0
  6  7  1  0
  7  8  1  0
  8  9  1  0
  9 10  1  0
 10 11  1  0
 11 12  1  0
 12 13  2  0
 13 14  1  0
 14 15  2  0
 15 16  1  0
 16 17  2  0
 17 18  1  0
 18 19  2  0
 19 20  1  0
 20 21  1  0
 21 22  2  0
 22 23  1  0
 23 24  2  0
 11 25  1  0
 25 26  1  0
  5 27  1  0
 27 28  2  0
 28  2  1  0
 26  8  1  0
 24 12  1  0
 19 14  1  0
 24 20  1  0
  3 29  1  0
  4 30  1  0
  6 31  1  0
  6 32  1  0
  7 33  1  0
  7 34  1  0
  9 35  1  0
  9 36  1  0
 10 37  1  0
 10 38  1  0
 15 39  1  0
 16 40  1  0
 17 41  1  0
 18 42  1  0
 21 43  1  0
 22 44  1  0
 23 45  1  0
 25 46  1  0
 25 47  1  0
 26 48  1  0
 26 49  1  0
 27 50  1  0
 28 51  1  0
M  END
$$$$
