
     RDKit          3D

 63 67  0  0  0  0  0  0  0  0999 V2000
    8.3754    1.1680   -3.2644 C   0  0  0  0  0  0  0  0  0  0  0  0
    7.7134    2.2034   -2.3735 C   0  0  0  0  0  0  0  0  0  0  0  0
    6.7956    1.5721   -1.4700 O   0  0  0  0  0  0  0  0  0  0  0  0
    5.5421    1.3399   -1.9576 C   0  0  0  0  0  0  0  0  0  0  0  0
    5.1715    1.6246   -3.0898 O   0  0  0  0  0  0  0  0  0  0  0  0
    4.6707    0.7059   -0.9760 C   0  0  0  0  0  0  0  0  0  0  0  0
    3.3192    0.2949   -1.1663 C   0  0  0  0  0  0  0  0  0  0  0  0
    2.8529   -0.2405    0.0204 C   0  0  0  0  0  0  0  0  0  0  0  0
    1.5640   -0.8059    0.3948 C   0  0  0  0  0  0  0  0  0  0  0  0
    0.4566   -0.8026   -0.4565 N   0  0  0  0  0  0  0  0  0  0  0  0
    0.0163    0.4998   -1.0107 C   0  0  0  0  0  0  0  0  0  0  0  0
   -1.4892    0.5234   -1.3586 C   0  0  0  0  0  0  0  0  0  0  0  0
   -2.3593    0.1811   -0.2143 N   0  0  0  0  0  0  0  0  0  0  0  0
   -3.7479   -0.0227   -0.6526 C   0  0  0  0  0  0  0  0  0  0  0  0
   -4.7467    0.1238    0.5102 C   0  0  0  0  0  0  0  0  0  0  0  0
   -6.1754   -0.1092    0.0565 C   0  0  0  0  0  0  0  0  0  0  0  0
   -6.6353   -1.4371   -0.0192 C   0  0  0  0  0  0  0  0  0  0  0  0
   -7.9297   -1.7250   -0.4472 C   0  0  0  0  0  0  0  0  0  0  0  0
   -8.7867   -0.6928   -0.8088 C   0  0  0  0  0  0  0  0  0  0  0  0
   -8.3490    0.6289   -0.7414 C   0  0  0  0  0  0  0  0  0  0  0  0
   -7.0444    0.9438   -0.3125 C   0  0  0  0  0  0  0  0  0  0  0  0
   -6.6291    2.3982   -0.2472 C   0  0  0  0  0  0  0  0  0  0  0  0
   -6.3892    2.8211    1.0259 F   0  0  0  0  0  0  0  0  0  0  0  0
   -7.5690    3.2533   -0.7458 F   0  0  0  0  0  0  0  0  0  0  0  0
   -5.4945    2.6581   -0.9544 F   0  0  0  0  0  0  0  0  0  0  0  0
   -1.8167   -0.9730    0.5445 C   0  0  0  0  0  0  0  0  0  0  0  0
   -0.6619   -1.7178   -0.1573 C   0  0  0  0  0  0  0  0  0  0  0  0
    1.4460   -1.3456    1.5830 N   0  0  0  0  0  0  0  0  0  0  0  0
    2.5217   -1.3404    2.4904 C   0  0  0  0  0  0  0  0  0  0  0  0
    2.3306   -1.9161    3.7480 C   0  0  0  0  0  0  0  0  0  0  0  0
    3.3627   -1.9315    4.6903 C   0  0  0  0  0  0  0  0  0  0  0  0
    4.6015   -1.3679    4.3812 C   0  0  0  0  0  0  0  0  0  0  0  0
    4.8146   -0.7861    3.1307 C   0  0  0  0  0  0  0  0  0  0  0  0
    3.7714   -0.7774    2.1988 C   0  0  0  0  0  0  0  0  0  0  0  0
    3.9004   -0.2239    0.9147 N   0  0  0  0  0  0  0  0  0  0  0  0
    4.9909    0.3729    0.3306 C   0  0  0  0  0  0  0  0  0  0  0  0
    9.1357    1.6321   -3.8997 H   0  0  0  0  0  0  0  0  0  0  0  0
    8.8465    0.3838   -2.6610 H   0  0  0  0  0  0  0  0  0  0  0  0
    7.6388    0.6742   -3.9074 H   0  0  0  0  0  0  0  0  0  0  0  0
    7.2182    2.9841   -2.9621 H   0  0  0  0  0  0  0  0  0  0  0  0
    8.4739    2.6986   -1.7597 H   0  0  0  0  0  0  0  0  0  0  0  0
    2.7624    0.3838   -2.0903 H   0  0  0  0  0  0  0  0  0  0  0  0
    0.2225    1.3002   -0.2858 H   0  0  0  0  0  0  0  0  0  0  0  0
    0.5788    0.7178   -1.9251 H   0  0  0  0  0  0  0  0  0  0  0  0
   -1.7455    1.5289   -1.7135 H   0  0  0  0  0  0  0  0  0  0  0  0
   -1.6683   -0.1666   -2.1946 H   0  0  0  0  0  0  0  0  0  0  0  0
   -3.8576   -0.9979   -1.1456 H   0  0  0  0  0  0  0  0  0  0  0  0
   -4.0059    0.7304   -1.4085 H   0  0  0  0  0  0  0  0  0  0  0  0
   -4.6455    1.1122    0.9710 H   0  0  0  0  0  0  0  0  0  0  0  0
   -4.5200   -0.5894    1.3124 H   0  0  0  0  0  0  0  0  0  0  0  0
   -5.9806   -2.2611    0.2606 H   0  0  0  0  0  0  0  0  0  0  0  0
   -8.2692   -2.7563   -0.4970 H   0  0  0  0  0  0  0  0  0  0  0  0
   -9.7971   -0.9159   -1.1422 H   0  0  0  0  0  0  0  0  0  0  0  0
   -9.0392    1.4226   -1.0268 H   0  0  0  0  0  0  0  0  0  0  0  0
   -2.5981   -1.7027    0.7860 H   0  0  0  0  0  0  0  0  0  0  0  0
   -1.4542   -0.5836    1.5036 H   0  0  0  0  0  0  0  0  0  0  0  0
   -1.0191   -2.1511   -1.1000 H   0  0  0  0  0  0  0  0  0  0  0  0
   -0.3414   -2.5723    0.4503 H   0  0  0  0  0  0  0  0  0  0  0  0
    1.3664   -2.3536    3.9926 H   0  0  0  0  0  0  0  0  0  0  0  0
    3.1967   -2.3839    5.6648 H   0  0  0  0  0  0  0  0  0  0  0  0
    5.4021   -1.3834    5.1176 H   0  0  0  0  0  0  0  0  0  0  0  0
    5.7873   -0.3565    2.9135 H   0  0  0  0  0  0  0  0  0  0  0  0
    5.9191    0.5078    0.8677 H   0  0  0  0  0  0  0  0  0  0  0  0
  1  2  1  0
  2  3  1  0
  3  4  1  0
  4  5  2  0
  4  6  1  0
  6  7  1  0
  7  8  2  0
  8  9  1  0
  9 10  1  0
 10 11  1  0
 11 12  1  0
 12 13  1  0
 13 14  1  0
 14 15  1  0
 15 16  1  0
 16 17  2  0
 17 18  1  0
 18 19  2  0
 19 20  1  0
 20 21  2  0
 21 22  1  0
 22 23  1  0
 22 24  1  0
 22 25  1  0
 13 26  1  0
 26 27  1  0
  9 28  2  0
 28 29  1  0
 29 30  2  0
 30 31  1  0
 31 32  2  0
 32 33  1  0
 33 34  2  0
 34 35  1  0
 35 36  1  0
 36  6  2  0
 35  8  1  0
 27 10  1  0
 34 29  1  0
 21 16  1  0
  1 37  1  0
  1 38  1  0
  1 39  1  0
  2 40  1  0
  2 41  1  0
  7 42  1  0
 11 43  1  0
 11 44  1  0
 12 45  1  0
 12 46  1  0
 14 47  1  0
 14 48  1  0
 15 49  1  0
 15 50  1  0
 17 51  1  0
 18 52  1  0
 19 53  1  0
 20 54  1  0
 26 55  1  0
 26 56  1  0
 27 57  1  0
 27 58  1  0
 30 59  1  0
 31 60  1  0
 32 61  1  0
 33 62  1  0
 36 63  1  0
M  END
$$$$
