
     RDKit          3D

 27 27  0  0  0  0  0  0  0  0999 V2000
   -5.8629   -0.1461   -1.2583 C   0  0  0  0  0  0  0  0  0  0  0  0
   -5.0118   -0.7657   -0.4296 C   0  0  0  0  0  0  0  0  0  0  0  0
   -4.1405   -0.0717    0.5649 C   0  0  0  0  0  0  0  0  0  0  0  0
   -2.7796   -0.2277    0.1358 N   0  0  0  0  0  0  0  0  0  0  0  0
   -1.7282    0.0278    0.9850 C   0  0  0  0  0  0  0  0  0  0  0  0
   -1.8075    0.2519    2.1848 O   0  0  0  0  0  0  0  0  0  0  0  0
   -0.3503    0.0257    0.2922 C   0  0  0  0  0  0  0  0  0  0  0  0
   -0.2888   -0.1584   -0.9158 O   0  0  0  0  0  0  0  0  0  0  0  0
    0.6793    0.2351    1.1933 N   0  0  0  0  0  0  0  0  0  0  0  0
    2.0272    0.1607    0.9508 N   0  0  0  0  0  0  0  0  0  0  0  0
    2.4727    0.3425   -0.2527 C   0  0  0  0  0  0  0  0  0  0  0  0
    3.8799    0.2345   -0.5239 C   0  0  0  0  0  0  0  0  0  0  0  0
    4.9622   -0.0703    0.2791 C   0  0  0  0  0  0  0  0  0  0  0  0
    6.1085   -0.0247   -0.5500 C   0  0  0  0  0  0  0  0  0  0  0  0
    5.6577    0.3049   -1.8061 C   0  0  0  0  0  0  0  0  0  0  0  0
    4.3093    0.4649   -1.8014 O   0  0  0  0  0  0  0  0  0  0  0  0
   -6.4746   -0.7151   -1.9523 H   0  0  0  0  0  0  0  0  0  0  0  0
   -5.9702    0.9344   -1.2664 H   0  0  0  0  0  0  0  0  0  0  0  0
   -4.9484   -1.8518   -0.4557 H   0  0  0  0  0  0  0  0  0  0  0  0
   -4.3546    1.0006    0.6292 H   0  0  0  0  0  0  0  0  0  0  0  0
   -4.2695   -0.5052    1.5620 H   0  0  0  0  0  0  0  0  0  0  0  0
   -2.5611   -0.2483   -0.8572 H   0  0  0  0  0  0  0  0  0  0  0  0
    0.4171    0.2404    2.1802 H   0  0  0  0  0  0  0  0  0  0  0  0
    1.8389    0.6116   -1.1118 H   0  0  0  0  0  0  0  0  0  0  0  0
    4.9171   -0.2973    1.3356 H   0  0  0  0  0  0  0  0  0  0  0  0
    7.1355   -0.2093   -0.2679 H   0  0  0  0  0  0  0  0  0  0  0  0
    6.1427    0.4564   -2.7605 H   0  0  0  0  0  0  0  0  0  0  0  0
  1  2  2  0
  2  3  1  0
  3  4  1  0
  4  5  1  0
  5  6  2  0
  5  7  1  0
  7  8  2  0
  7  9  1  0
  9 10  1  0
 10 11  2  3
 11 12  1  0
 12 13  2  0
 13 14  1  0
 14 15  2  0
 15 16  1  0
 16 12  1  0
  1 17  1  0
  1 18  1  0
  2 19  1  0
  3 20  1  0
  3 21  1  0
  4 22  1  0
  9 23  1  0
 11 24  1  0
 13 25  1  0
 14 26  1  0
 15 27  1  0
M  END
$$$$
