
     RDKit          3D

 53 55  0  0  0  0  0  0  0  0999 V2000
    7.8848    2.3677    1.6344 C   0  0  0  0  0  0  0  0  0  0  0  0
    7.1261    1.3337    2.2490 O   0  0  0  0  0  0  0  0  0  0  0  0
    5.8113    1.2317    1.8883 C   0  0  0  0  0  0  0  0  0  0  0  0
    5.1195    0.1841    2.5051 C   0  0  0  0  0  0  0  0  0  0  0  0
    3.7678   -0.0374    2.2343 C   0  0  0  0  0  0  0  0  0  0  0  0
    3.1080    0.7867    1.3221 C   0  0  0  0  0  0  0  0  0  0  0  0
    1.3743    0.5476    1.0018 S   0  0  0  0  0  6  0  0  0  0  0  0
    0.8160   -0.1719    2.1282 O   0  0  0  0  0  0  0  0  0  0  0  0
    0.8297    1.8224    0.5851 O   0  0  0  0  0  0  0  0  0  0  0  0
    1.3293   -0.4739   -0.3130 N   0  0  0  0  0  0  0  0  0  0  0  0
    1.8055   -0.0491   -1.6255 C   0  0  0  0  0  0  0  0  0  0  0  0
    1.9417   -1.3684   -2.3551 C   0  0  0  0  0  0  0  0  0  0  0  0
    2.3675   -2.2829   -1.3354 O   0  0  0  0  0  0  0  0  0  0  0  0
    1.6796   -1.8887   -0.1316 C   0  0  0  0  0  0  0  0  0  0  0  0
    0.4279   -2.7864    0.0798 C   0  0  0  0  0  0  0  0  0  0  0  0
   -0.7769   -2.0954    0.5000 N   0  0  0  0  0  0  0  0  0  0  0  0
   -1.5825   -1.4469   -0.4111 C   0  0  0  0  0  0  0  0  0  0  0  0
   -1.5057   -1.5332   -1.6296 O   0  0  0  0  0  0  0  0  0  0  0  0
   -2.6321   -0.5147    0.2374 C   0  0  0  0  0  0  0  0  0  0  0  0
   -2.8458   -0.5690    1.4403 O   0  0  0  0  0  0  0  0  0  0  0  0
   -3.2469    0.3240   -0.6606 N   0  0  0  0  0  0  0  0  0  0  0  0
   -4.3227    1.2024   -0.2844 C   0  0  0  0  0  0  0  0  0  0  0  0
   -5.6628    0.5675   -0.5523 C   0  0  0  0  0  0  0  0  0  0  0  0
   -6.2831   -0.1636    0.4776 C   0  0  0  0  0  0  0  0  0  0  0  0
   -7.5172   -0.7837    0.2753 C   0  0  0  0  0  0  0  0  0  0  0  0
   -8.1482   -0.6899   -0.9617 C   0  0  0  0  0  0  0  0  0  0  0  0
   -7.5406    0.0168   -1.9991 C   0  0  0  0  0  0  0  0  0  0  0  0
   -6.3028    0.6367   -1.7994 C   0  0  0  0  0  0  0  0  0  0  0  0
   -5.5995    1.4678   -3.1419 Cl  0  0  0  0  0  0  0  0  0  0  0  0
    3.7819    1.8542    0.7214 C   0  0  0  0  0  0  0  0  0  0  0  0
    5.1362    2.0692    0.9988 C   0  0  0  0  0  0  0  0  0  0  0  0
    8.9058    2.3083    2.0227 H   0  0  0  0  0  0  0  0  0  0  0  0
    7.4874    3.3559    1.8916 H   0  0  0  0  0  0  0  0  0  0  0  0
    7.9330    2.2289    0.5487 H   0  0  0  0  0  0  0  0  0  0  0  0
    5.6407   -0.4590    3.2118 H   0  0  0  0  0  0  0  0  0  0  0  0
    3.2453   -0.8416    2.7460 H   0  0  0  0  0  0  0  0  0  0  0  0
    1.1048    0.6236   -2.1248 H   0  0  0  0  0  0  0  0  0  0  0  0
    2.7857    0.4283   -1.5484 H   0  0  0  0  0  0  0  0  0  0  0  0
    2.6809   -1.3343   -3.1590 H   0  0  0  0  0  0  0  0  0  0  0  0
    0.9872   -1.7161   -2.7630 H   0  0  0  0  0  0  0  0  0  0  0  0
    2.3817   -2.0398    0.6926 H   0  0  0  0  0  0  0  0  0  0  0  0
    0.2020   -3.3449   -0.8361 H   0  0  0  0  0  0  0  0  0  0  0  0
    0.6514   -3.5294    0.8529 H   0  0  0  0  0  0  0  0  0  0  0  0
   -0.8397   -1.7486    1.4580 H   0  0  0  0  0  0  0  0  0  0  0  0
   -3.0370    0.1765   -1.6431 H   0  0  0  0  0  0  0  0  0  0  0  0
   -4.2053    2.1392   -0.8373 H   0  0  0  0  0  0  0  0  0  0  0  0
   -4.2348    1.4624    0.7772 H   0  0  0  0  0  0  0  0  0  0  0  0
   -5.7955   -0.2588    1.4478 H   0  0  0  0  0  0  0  0  0  0  0  0
   -7.9809   -1.3441    1.0840 H   0  0  0  0  0  0  0  0  0  0  0  0
   -9.1084   -1.1735   -1.1213 H   0  0  0  0  0  0  0  0  0  0  0  0
   -8.0348    0.0759   -2.9657 H   0  0  0  0  0  0  0  0  0  0  0  0
    3.2601    2.5287    0.0451 H   0  0  0  0  0  0  0  0  0  0  0  0
    5.6303    2.9050    0.5143 H   0  0  0  0  0  0  0  0  0  0  0  0
  1  2  1  0
  2  3  1  0
  3  4  2  0
  4  5  1  0
  5  6  2  0
  6  7  1  0
  7  8  2  0
  7  9  2  0
  7 10  1  0
 10 11  1  0
 11 12  1  0
 12 13  1  0
 13 14  1  0
 14 15  1  0
 15 16  1  0
 16 17  1  0
 17 18  2  0
 17 19  1  0
 19 20  2  0
 19 21  1  0
 21 22  1  0
 22 23  1  0
 23 24  2  0
 24 25  1  0
 25 26  2  0
 26 27  1  0
 27 28  2  0
 28 29  1  0
  6 30  1  0
 30 31  2  0
 31  3  1  0
 14 10  1  0
 28 23  1  0
  1 32  1  0
  1 33  1  0
  1 34  1  0
  4 35  1  0
  5 36  1  0
 11 37  1  0
 11 38  1  0
 12 39  1  0
 12 40  1  0
 14 41  1  0
 15 42  1  0
 15 43  1  0
 16 44  1  0
 21 45  1  0
 22 46  1  0
 22 47  1  0
 24 48  1  0
 25 49  1  0
 26 50  1  0
 27 51  1  0
 30 52  1  0
 31 53  1  0
M  END
$$$$
