
     RDKit          3D

 55 58  0  0  0  0  0  0  0  0999 V2000
    6.8021   -1.6169    2.1172 C   0  0  0  0  0  0  0  0  0  0  0  0
    6.6616   -1.5903    0.6019 C   0  0  0  0  0  0  0  0  0  0  0  0
    5.9678   -0.3748    0.1571 N   0  0  0  0  0  0  0  0  0  0  0  0
    6.8296    0.7687   -0.1705 C   0  0  0  0  0  0  0  0  0  0  0  0
    7.1905    0.7748   -1.6492 C   0  0  0  0  0  0  0  0  0  0  0  0
    4.5817   -0.3064    0.0614 C   0  0  0  0  0  0  0  0  0  0  0  0
    3.9183    0.8067   -0.4827 C   0  0  0  0  0  0  0  0  0  0  0  0
    2.5187    0.8834   -0.5813 C   0  0  0  0  0  0  0  0  0  0  0  0
    1.7147   -0.1584   -0.1245 C   0  0  0  0  0  0  0  0  0  0  0  0
    0.2498   -0.1384   -0.2359 C   0  0  0  0  0  0  0  0  0  0  0  0
   -0.4957    0.9633   -0.0462 C   0  0  0  0  0  0  0  0  0  0  0  0
   -1.9575    1.0413   -0.1561 C   0  0  0  0  0  0  0  0  0  0  0  0
   -2.7983   -0.0406    0.0466 C   0  0  0  0  0  0  0  0  0  0  0  0
   -4.1841    0.1374   -0.0562 C   0  0  0  0  0  0  0  0  0  0  0  0
   -5.0573   -1.0259    0.1568 C   0  0  0  0  0  0  0  0  0  0  0  0
   -5.4110   -1.8606   -0.9143 C   0  0  0  0  0  0  0  0  0  0  0  0
   -6.2389   -2.9668   -0.7118 C   0  0  0  0  0  0  0  0  0  0  0  0
   -6.7211   -3.2525    0.5640 C   0  0  0  0  0  0  0  0  0  0  0  0
   -6.3764   -2.4343    1.6380 C   0  0  0  0  0  0  0  0  0  0  0  0
   -5.5485   -1.3280    1.4360 C   0  0  0  0  0  0  0  0  0  0  0  0
   -4.6894    1.4272   -0.3563 C   0  0  0  0  0  0  0  0  0  0  0  0
   -6.0683    1.7265   -0.4874 C   0  0  0  0  0  0  0  0  0  0  0  0
   -6.5034    3.0179   -0.7805 C   0  0  0  0  0  0  0  0  0  0  0  0
   -5.5705    4.0306   -0.9469 C   0  0  0  0  0  0  0  0  0  0  0  0
   -4.2097    3.7438   -0.8195 C   0  0  0  0  0  0  0  0  0  0  0  0
   -3.7501    2.4659   -0.5290 C   0  0  0  0  0  0  0  0  0  0  0  0
   -2.4249    2.2789   -0.4252 N   0  0  0  0  0  0  0  0  0  0  0  0
    2.3436   -1.2833    0.4042 C   0  0  0  0  0  0  0  0  0  0  0  0
    3.7441   -1.3472    0.4972 C   0  0  0  0  0  0  0  0  0  0  0  0
    5.8282   -1.6116    2.6157 H   0  0  0  0  0  0  0  0  0  0  0  0
    7.3626   -0.7471    2.4756 H   0  0  0  0  0  0  0  0  0  0  0  0
    7.3384   -2.5180    2.4308 H   0  0  0  0  0  0  0  0  0  0  0  0
    7.6665   -1.6231    0.1614 H   0  0  0  0  0  0  0  0  0  0  0  0
    6.1686   -2.4983    0.2372 H   0  0  0  0  0  0  0  0  0  0  0  0
    6.3762    1.7208    0.1271 H   0  0  0  0  0  0  0  0  0  0  0  0
    7.7585    0.7088    0.4112 H   0  0  0  0  0  0  0  0  0  0  0  0
    6.3032    0.8601   -2.2835 H   0  0  0  0  0  0  0  0  0  0  0  0
    7.8500    1.6190   -1.8734 H   0  0  0  0  0  0  0  0  0  0  0  0
    7.7114   -0.1464   -1.9306 H   0  0  0  0  0  0  0  0  0  0  0  0
    4.4738    1.6557   -0.8681 H   0  0  0  0  0  0  0  0  0  0  0  0
    2.0779    1.7682   -1.0342 H   0  0  0  0  0  0  0  0  0  0  0  0
   -0.2064   -1.0924   -0.4845 H   0  0  0  0  0  0  0  0  0  0  0  0
   -0.0280    1.9147    0.1957 H   0  0  0  0  0  0  0  0  0  0  0  0
   -2.3988   -1.0187    0.2941 H   0  0  0  0  0  0  0  0  0  0  0  0
   -5.0428   -1.6480   -1.9161 H   0  0  0  0  0  0  0  0  0  0  0  0
   -6.5071   -3.6044   -1.5504 H   0  0  0  0  0  0  0  0  0  0  0  0
   -7.3656   -4.1136    0.7213 H   0  0  0  0  0  0  0  0  0  0  0  0
   -6.7515   -2.6563    2.6337 H   0  0  0  0  0  0  0  0  0  0  0  0
   -5.2879   -0.6966    2.2833 H   0  0  0  0  0  0  0  0  0  0  0  0
   -6.8172    0.9471   -0.3604 H   0  0  0  0  0  0  0  0  0  0  0  0
   -7.5653    3.2278   -0.8771 H   0  0  0  0  0  0  0  0  0  0  0  0
   -5.8929    5.0428   -1.1755 H   0  0  0  0  0  0  0  0  0  0  0  0
   -3.4833    4.5427   -0.9519 H   0  0  0  0  0  0  0  0  0  0  0  0
    1.7580   -2.1258    0.7643 H   0  0  0  0  0  0  0  0  0  0  0  0
    4.1562   -2.2490    0.9385 H   0  0  0  0  0  0  0  0  0  0  0  0
  1  2  1  0
  2  3  1  0
  3  4  1  0
  4  5  1  0
  3  6  1  0
  6  7  2  0
  7  8  1  0
  8  9  2  0
  9 10  1  0
 10 11  2  3
 11 12  1  0
 12 13  2  0
 13 14  1  0
 14 15  1  0
 15 16  2  0
 16 17  1  0
 17 18  2  0
 18 19  1  0
 19 20  2  0
 14 21  2  0
 21 22  1  0
 22 23  2  0
 23 24  1  0
 24 25  2  0
 25 26  1  0
 26 27  2  0
  9 28  1  0
 28 29  2  0
 29  6  1  0
 27 12  1  0
 20 15  1  0
 26 21  1  0
  1 30  1  0
  1 31  1  0
  1 32  1  0
  2 33  1  0
  2 34  1  0
  4 35  1  0
  4 36  1  0
  5 37  1  0
  5 38  1  0
  5 39  1  0
  7 40  1  0
  8 41  1  0
 10 42  1  0
 11 43  1  0
 13 44  1  0
 16 45  1  0
 17 46  1  0
 18 47  1  0
 19 48  1  0
 20 49  1  0
 22 50  1  0
 23 51  1  0
 24 52  1  0
 25 53  1  0
 28 54  1  0
 29 55  1  0
M  END
$$$$
