
     RDKit          3D

 33 33  0  0  0  0  0  0  0  0999 V2000
   -3.0607    1.2193   -2.3100 C   0  0  0  0  0  0  0  0  0  0  0  0
   -3.2315    1.0825   -0.8174 C   0  0  0  0  0  0  0  0  0  0  0  0
   -4.2539    1.4754   -0.2670 O   0  0  0  0  0  0  0  0  0  0  0  0
   -2.1262    0.5220   -0.2117 N   0  0  0  0  0  0  0  0  0  0  0  0
   -1.9342    0.2277    1.1576 C   0  0  0  0  0  0  0  0  0  0  0  0
   -2.9071    0.4447    2.1354 C   0  0  0  0  0  0  0  0  0  0  0  0
   -2.6549    0.1094    3.4671 C   0  0  0  0  0  0  0  0  0  0  0  0
   -1.4303   -0.4439    3.8298 C   0  0  0  0  0  0  0  0  0  0  0  0
   -0.4469   -0.6636    2.8636 C   0  0  0  0  0  0  0  0  0  0  0  0
   -0.6899   -0.3306    1.5270 C   0  0  0  0  0  0  0  0  0  0  0  0
    0.2195   -0.4837    0.5040 O   0  0  0  0  0  0  0  0  0  0  0  0
    1.3788   -1.2640    0.7889 C   0  0  0  0  0  0  0  0  0  0  0  0
    2.2579   -1.3890   -0.4552 C   0  0  0  0  0  0  0  0  0  0  0  0
    3.0542   -2.3100   -0.6098 O   0  0  0  0  0  0  0  0  0  0  0  0
    2.1215   -0.3632   -1.3672 N   0  0  0  0  0  0  0  0  0  0  0  0
    3.0376   -0.2412   -2.5016 C   0  0  0  0  0  0  0  0  0  0  0  0
    4.3644    0.4561   -2.1887 C   0  0  0  0  0  0  0  0  0  0  0  0
    5.1220    0.5649   -3.3036 F   0  0  0  0  0  0  0  0  0  0  0  0
    5.0890   -0.1931   -1.2563 F   0  0  0  0  0  0  0  0  0  0  0  0
    4.1374    1.7119   -1.7315 F   0  0  0  0  0  0  0  0  0  0  0  0
   -2.4320    0.4197   -2.7125 H   0  0  0  0  0  0  0  0  0  0  0  0
   -2.6066    2.1882   -2.5334 H   0  0  0  0  0  0  0  0  0  0  0  0
   -4.0398    1.1540   -2.7932 H   0  0  0  0  0  0  0  0  0  0  0  0
   -1.3388    0.2685   -0.7973 H   0  0  0  0  0  0  0  0  0  0  0  0
   -3.8765    0.8685    1.8928 H   0  0  0  0  0  0  0  0  0  0  0  0
   -3.4208    0.2813    4.2198 H   0  0  0  0  0  0  0  0  0  0  0  0
   -1.2401   -0.7020    4.8689 H   0  0  0  0  0  0  0  0  0  0  0  0
    0.4950   -1.0880    3.1939 H   0  0  0  0  0  0  0  0  0  0  0  0
    1.9923   -0.7811    1.5577 H   0  0  0  0  0  0  0  0  0  0  0  0
    1.0858   -2.2760    1.0911 H   0  0  0  0  0  0  0  0  0  0  0  0
    1.5927    0.4507   -1.0697 H   0  0  0  0  0  0  0  0  0  0  0  0
    3.2386   -1.2411   -2.9008 H   0  0  0  0  0  0  0  0  0  0  0  0
    2.5034    0.3259   -3.2707 H   0  0  0  0  0  0  0  0  0  0  0  0
  1  2  1  0
  2  3  2  0
  2  4  1  0
  4  5  1  0
  5  6  2  0
  6  7  1  0
  7  8  2  0
  8  9  1  0
  9 10  2  0
 10 11  1  0
 11 12  1  0
 12 13  1  0
 13 14  2  0
 13 15  1  0
 15 16  1  0
 16 17  1  0
 17 18  1  0
 17 19  1  0
 17 20  1  0
 10  5  1  0
  1 21  1  0
  1 22  1  0
  1 23  1  0
  4 24  1  0
  6 25  1  0
  7 26  1  0
  8 27  1  0
  9 28  1  0
 12 29  1  0
 12 30  1  0
 15 31  1  0
 16 32  1  0
 16 33  1  0
M  END
$$$$
