
     RDKit          3D

 36 37  0  0  0  0  0  0  0  0999 V2000
   -1.9512   -1.3540   -1.2673 O   0  0  0  0  0  0  0  0  0  0  0  0
   -0.7564   -1.0629   -1.2149 C   0  0  0  0  0  0  0  0  0  0  0  0
    0.3580   -2.1115   -1.2139 C   0  0  0  0  0  0  0  0  0  0  0  0
    1.5881   -1.6797   -0.6280 O   0  0  0  0  0  0  0  0  0  0  0  0
    1.5606   -1.5930    0.7236 C   0  0  0  0  0  0  0  0  0  0  0  0
    0.6139   -1.8319    1.4516 O   0  0  0  0  0  0  0  0  0  0  0  0
    2.9047   -1.2559    1.2229 C   0  0  0  0  0  0  0  0  0  0  0  0
    3.4638   -2.1429    2.1563 C   0  0  0  0  0  0  0  0  0  0  0  0
    4.7336   -1.9026    2.6749 C   0  0  0  0  0  0  0  0  0  0  0  0
    5.4423   -0.7733    2.2692 C   0  0  0  0  0  0  0  0  0  0  0  0
    4.8792    0.1253    1.3541 C   0  0  0  0  0  0  0  0  0  0  0  0
    5.8266    1.5085    0.9252 Cl  0  0  0  0  0  0  0  0  0  0  0  0
    3.5987   -0.1034    0.8265 C   0  0  0  0  0  0  0  0  0  0  0  0
    2.8733    1.0482   -0.2509 Cl  0  0  0  0  0  0  0  0  0  0  0  0
   -0.3264    0.2461   -1.1976 N   0  0  0  0  0  0  0  0  0  0  0  0
   -1.2719    1.3433   -1.2462 C   0  0  0  0  0  0  0  0  0  0  0  0
   -2.1445    1.4339    0.0151 C   0  0  0  0  0  0  0  0  0  0  0  0
   -3.4999    1.8362   -0.2975 N   0  0  0  0  0  0  0  0  0  0  0  0
   -4.5391    0.9770   -0.5676 C   0  0  0  0  0  0  0  0  0  0  0  0
   -4.3827   -0.3772   -0.5759 O   0  0  0  0  0  0  0  0  0  0  0  0
   -5.7038    1.5813   -0.8201 C   0  0  0  0  0  0  0  0  0  0  0  0
   -5.5528    3.3093   -0.7639 S   0  0  0  0  0  0  0  0  0  0  0  0
   -3.8271    3.1824   -0.3853 C   0  0  0  0  0  0  0  0  0  0  0  0
   -3.0861    4.1424   -0.2480 O   0  0  0  0  0  0  0  0  0  0  0  0
    0.5663   -2.3677   -2.2579 H   0  0  0  0  0  0  0  0  0  0  0  0
    0.0003   -3.0197   -0.7145 H   0  0  0  0  0  0  0  0  0  0  0  0
    2.9082   -3.0230    2.4783 H   0  0  0  0  0  0  0  0  0  0  0  0
    5.1695   -2.5913    3.3959 H   0  0  0  0  0  0  0  0  0  0  0  0
    6.4344   -0.5905    2.6782 H   0  0  0  0  0  0  0  0  0  0  0  0
    0.6699    0.4432   -1.1891 H   0  0  0  0  0  0  0  0  0  0  0  0
   -0.7019    2.2683   -1.3833 H   0  0  0  0  0  0  0  0  0  0  0  0
   -1.8870    1.1973   -2.1422 H   0  0  0  0  0  0  0  0  0  0  0  0
   -1.7027    2.1770    0.6911 H   0  0  0  0  0  0  0  0  0  0  0  0
   -2.1745    0.4982    0.5843 H   0  0  0  0  0  0  0  0  0  0  0  0
   -3.4536   -0.6104   -0.7875 H   0  0  0  0  0  0  0  0  0  0  0  0
   -6.6296    1.0731   -1.0486 H   0  0  0  0  0  0  0  0  0  0  0  0
  1  2  2  0
  2  3  1  0
  3  4  1  0
  4  5  1  0
  5  6  2  0
  5  7  1  0
  7  8  2  0
  8  9  1  0
  9 10  2  0
 10 11  1  0
 11 12  1  0
 11 13  2  0
 13 14  1  0
  2 15  1  0
 15 16  1  0
 16 17  1  0
 17 18  1  0
 18 19  1  0
 19 20  1  0
 19 21  2  0
 21 22  1  0
 22 23  1  0
 23 24  2  0
 13  7  1  0
 23 18  1  0
  3 25  1  0
  3 26  1  0
  8 27  1  0
  9 28  1  0
 10 29  1  0
 15 30  1  0
 16 31  1  0
 16 32  1  0
 17 33  1  0
 17 34  1  0
 20 35  1  0
 21 36  1  0
M  END
$$$$
