
     RDKit          3D

 79 84  0  0  0  0  0  0  0  0999 V2000
   -4.9699    2.8783   -0.1169 C   0  0  0  0  0  0  0  0  0  0  0  0
   -5.3117    1.9721    0.8137 C   0  0  0  0  0  0  0  0  0  0  0  0
   -6.6223    2.0907    1.5465 C   0  0  0  0  0  0  0  0  0  0  0  0
   -4.4614    0.7815    1.2301 C   0  0  0  0  0  0  0  0  0  0  0  0
   -3.1597    0.5104    0.4530 C   0  0  1  0  0  0  0  0  0  0  0  0
   -2.1947    1.5223    0.7719 O   0  0  0  0  0  0  0  0  0  0  0  0
   -2.5800   -0.8588    0.8457 C   0  0  0  0  0  0  0  0  0  0  0  0
   -1.4328   -1.1817    0.0534 O   0  0  0  0  0  0  0  0  0  0  0  0
   -1.5826   -1.6650   -1.2196 C   0  0  0  0  0  0  0  0  0  0  0  0
   -2.7962   -2.1447   -1.7288 C   0  0  0  0  0  0  0  0  0  0  0  0
   -2.8187   -2.6065   -3.0257 C   0  0  0  0  0  0  0  0  0  0  0  0
   -1.6992   -2.6045   -3.8151 C   0  0  0  0  0  0  0  0  0  0  0  0
   -0.4855   -2.1433   -3.3528 C   0  0  0  0  0  0  0  0  0  0  0  0
   -0.3957   -1.6727   -2.0230 C   0  0  0  0  0  0  0  0  0  0  0  0
    0.9441   -1.1019   -1.4517 C   0  0  0  0  0  0  0  0  0  0  0  0
    1.3648   -1.7330   -0.0958 C   0  0  0  0  0  0  0  0  0  0  0  0
    1.1797   -3.1311    0.0804 C   0  0  0  0  0  0  0  0  0  0  0  0
    1.6236   -3.7356    1.2376 C   0  0  0  0  0  0  0  0  0  0  0  0
    2.2705   -3.0280    2.2156 C   0  0  0  0  0  0  0  0  0  0  0  0
    2.4919   -1.6765    2.0949 C   0  0  0  0  0  0  0  0  0  0  0  0
    2.0057   -1.0198    0.9507 C   0  0  0  0  0  0  0  0  0  0  0  0
    2.2546    0.3212    0.8218 O   0  0  0  0  0  0  0  0  0  0  0  0
    1.6104    1.1025    1.8516 C   0  0  0  0  0  0  0  0  0  0  0  0
    2.4628    2.3458    2.1390 C   0  0  2  0  0  0  0  0  0  0  0  0
    3.6180    1.9338    2.8868 O   0  0  0  0  0  0  0  0  0  0  0  0
    1.6539    3.3703    2.9538 C   0  0  0  0  0  0  0  0  0  0  0  0
    2.3998    4.6658    3.2193 C   0  0  0  0  0  0  0  0  0  0  0  0
    2.8039    5.0021    4.4566 C   0  0  0  0  0  0  0  0  0  0  0  0
    2.6269    5.5732    2.0429 C   0  0  0  0  0  0  0  0  0  0  0  0
    2.6498   -3.8116    3.2594 O   0  0  0  0  0  0  0  0  0  0  0  0
    2.1230   -5.0882    2.8443 C   0  0  0  0  0  0  0  0  0  0  0  0
    1.5046   -5.0555    1.5406 O   0  0  0  0  0  0  0  0  0  0  0  0
    0.7644    0.4782   -1.4476 C   0  0  0  0  0  0  0  0  0  0  0  0
   -0.0843    1.1530   -0.8780 O   0  0  0  0  0  0  0  0  0  0  0  0
    1.7263    1.0289   -2.2891 N   0  0  0  0  0  0  0  0  0  0  0  0
    2.5371    0.0586   -2.8442 C   0  0  0  0  0  0  0  0  0  0  0  0
    3.5923    0.2643   -3.7080 C   0  0  0  0  0  0  0  0  0  0  0  0
    4.2823   -0.8635   -4.1384 C   0  0  0  0  0  0  0  0  0  0  0  0
    5.3130   -0.7183   -4.9828 F   0  0  0  0  0  0  0  0  0  0  0  0
    3.9265   -2.1500   -3.7142 C   0  0  0  0  0  0  0  0  0  0  0  0
    2.8524   -2.3333   -2.8376 C   0  0  0  0  0  0  0  0  0  0  0  0
    2.1495   -1.2109   -2.4107 C   0  0  0  0  0  0  0  0  0  0  0  0
   -1.9399   -3.0918   -5.0610 O   0  0  0  0  0  0  0  0  0  0  0  0
   -3.3460   -3.3984   -4.9650 C   0  0  0  0  0  0  0  0  0  0  0  0
   -3.9093   -3.0991   -3.6711 O   0  0  0  0  0  0  0  0  0  0  0  0
   -5.6201    3.7125   -0.3625 H   0  0  0  0  0  0  0  0  0  0  0  0
   -4.0229    2.8401   -0.6459 H   0  0  0  0  0  0  0  0  0  0  0  0
   -7.2059    2.9560    1.2130 H   0  0  0  0  0  0  0  0  0  0  0  0
   -7.2320    1.1967    1.3805 H   0  0  0  0  0  0  0  0  0  0  0  0
   -6.4463    2.2000    2.6213 H   0  0  0  0  0  0  0  0  0  0  0  0
   -4.2167    0.9106    2.2920 H   0  0  0  0  0  0  0  0  0  0  0  0
   -5.0976   -0.1087    1.1471 H   0  0  0  0  0  0  0  0  0  0  0  0
   -3.3394    0.5531   -0.6264 H   0  0  0  0  0  0  0  0  0  0  0  0
   -1.4210    1.3554    0.1839 H   0  0  0  0  0  0  0  0  0  0  0  0
   -2.2141   -0.8038    1.8780 H   0  0  0  0  0  0  0  0  0  0  0  0
   -3.3215   -1.6630    0.8295 H   0  0  0  0  0  0  0  0  0  0  0  0
   -3.7138   -2.1720   -1.1577 H   0  0  0  0  0  0  0  0  0  0  0  0
    0.3581   -2.1483   -4.0336 H   0  0  0  0  0  0  0  0  0  0  0  0
    0.6971   -3.7418   -0.6764 H   0  0  0  0  0  0  0  0  0  0  0  0
    3.0400   -1.1389    2.8619 H   0  0  0  0  0  0  0  0  0  0  0  0
    0.6264    1.3978    1.4787 H   0  0  0  0  0  0  0  0  0  0  0  0
    1.4620    0.5396    2.7812 H   0  0  0  0  0  0  0  0  0  0  0  0
    2.8218    2.7745    1.1973 H   0  0  0  0  0  0  0  0  0  0  0  0
    4.0986    2.7425    3.1406 H   0  0  0  0  0  0  0  0  0  0  0  0
    1.3687    2.9142    3.9116 H   0  0  0  0  0  0  0  0  0  0  0  0
    0.7191    3.6108    2.4321 H   0  0  0  0  0  0  0  0  0  0  0  0
    3.3220    5.9370    4.6550 H   0  0  0  0  0  0  0  0  0  0  0  0
    2.6230    4.3528    5.3100 H   0  0  0  0  0  0  0  0  0  0  0  0
    3.3052    5.1087    1.3212 H   0  0  0  0  0  0  0  0  0  0  0  0
    1.6780    5.7924    1.5427 H   0  0  0  0  0  0  0  0  0  0  0  0
    3.0703    6.5287    2.3451 H   0  0  0  0  0  0  0  0  0  0  0  0
    2.9420   -5.8163    2.8266 H   0  0  0  0  0  0  0  0  0  0  0  0
    1.3775   -5.4132    3.5781 H   0  0  0  0  0  0  0  0  0  0  0  0
    1.8068    2.0227   -2.4407 H   0  0  0  0  0  0  0  0  0  0  0  0
    3.8860    1.2499   -4.0441 H   0  0  0  0  0  0  0  0  0  0  0  0
    4.4969   -3.0025   -4.0716 H   0  0  0  0  0  0  0  0  0  0  0  0
    2.5833   -3.3320   -2.5073 H   0  0  0  0  0  0  0  0  0  0  0  0
   -3.8858   -2.8184   -5.7232 H   0  0  0  0  0  0  0  0  0  0  0  0
   -3.4879   -4.4666   -5.1704 H   0  0  0  0  0  0  0  0  0  0  0  0
  1  2  2  0
  2  3  1  0
  2  4  1  0
  4  5  1  0
  5  6  1  0
  5  7  1  0
  7  8  1  0
  8  9  1  0
  9 10  2  0
 10 11  1  0
 11 12  2  0
 12 13  1  0
 13 14  2  0
 14 15  1  0
 15 16  1  0
 16 17  2  0
 17 18  1  0
 18 19  2  0
 19 20  1  0
 20 21  2  0
 21 22  1  0
 22 23  1  0
 23 24  1  0
 24 25  1  0
 24 26  1  0
 26 27  1  0
 27 28  2  0
 27 29  1  0
 19 30  1  0
 30 31  1  0
 31 32  1  0
 15 33  1  0
 33 34  2  0
 33 35  1  0
 35 36  1  0
 36 37  2  0
 37 38  1  0
 38 39  1  0
 38 40  2  0
 40 41  1  0
 41 42  2  0
 12 43  1  0
 43 44  1  0
 44 45  1  0
 14  9  1  0
 42 15  1  0
 45 11  1  0
 21 16  1  0
 42 36  1  0
 32 18  1  0
  1 46  1  0
  1 47  1  0
  3 48  1  0
  3 49  1  0
  3 50  1  0
  4 51  1  0
  4 52  1  0
  5 53  1  6
  6 54  1  0
  7 55  1  0
  7 56  1  0
 10 57  1  0
 13 58  1  0
 17 59  1  0
 20 60  1  0
 23 61  1  0
 23 62  1  0
 24 63  1  6
 25 64  1  0
 26 65  1  0
 26 66  1  0
 28 67  1  0
 28 68  1  0
 29 69  1  0
 29 70  1  0
 29 71  1  0
 31 72  1  0
 31 73  1  0
 35 74  1  0
 37 75  1  0
 40 76  1  0
 41 77  1  0
 44 78  1  0
 44 79  1  0
M  END
$$$$
