
     RDKit          3D

 55 60  0  0  0  0  0  0  0  0999 V2000
   -5.2609    0.1290   -0.3126 O   0  0  0  0  0  0  0  0  0  0  0  0
   -4.2765    0.8355   -0.0989 C   0  0  0  0  0  0  0  0  0  0  0  0
   -4.4548    2.1953    0.3906 C   0  0  0  0  0  0  0  0  0  0  0  0
   -5.5160    2.6772    1.2148 C   0  0  0  0  0  0  0  0  0  0  0  0
   -5.3021    4.0229    1.3909 C   0  0  0  0  0  0  0  0  0  0  0  0
   -4.1967    4.4165    0.7102 O   0  0  0  0  0  0  0  0  0  0  0  0
   -3.7029    3.3142    0.0892 C   0  0  0  0  0  0  0  0  0  0  0  0
   -2.9805    0.3575   -0.3163 N   0  0  0  0  0  0  0  0  0  0  0  0
   -2.8403   -0.9310   -0.9838 C   0  0  0  0  0  0  0  0  0  0  0  0
   -1.4526   -1.0837   -1.5964 C   0  0  0  0  0  0  0  0  0  0  0  0
   -0.3226   -1.0451   -0.5182 C   0  0  0  0  0  0  0  0  0  0  0  0
   -0.8152   -0.2195    0.7064 C   0  0  0  0  0  0  0  0  0  0  0  0
   -1.7838    0.8968    0.3299 C   0  0  0  0  0  0  0  0  0  0  0  0
   -0.1235   -2.3838    0.0145 O   0  0  0  0  0  0  0  0  0  0  0  0
    0.5329   -3.2681   -0.7964 C   0  0  0  0  0  0  0  0  0  0  0  0
    0.4175   -4.6164   -0.4560 C   0  0  0  0  0  0  0  0  0  0  0  0
    1.0338   -5.5882   -1.2462 C   0  0  0  0  0  0  0  0  0  0  0  0
    1.7633   -5.2042   -2.3677 C   0  0  0  0  0  0  0  0  0  0  0  0
    2.3508   -6.1415   -3.1216 F   0  0  0  0  0  0  0  0  0  0  0  0
    1.8988   -3.8655   -2.7114 C   0  0  0  0  0  0  0  0  0  0  0  0
    1.2872   -2.8977   -1.9114 C   0  0  0  0  0  0  0  0  0  0  0  0
    1.4487   -1.4637   -2.2158 C   0  0  0  0  0  0  0  0  0  0  0  0
    1.9482   -1.1201   -3.2813 O   0  0  0  0  0  0  0  0  0  0  0  0
    1.0175   -0.5106   -1.1062 C   0  0  0  0  0  0  0  0  0  0  0  0
    2.1852   -0.3955   -0.1303 C   0  0  0  0  0  0  0  0  0  0  0  0
    2.2115    1.0827    0.0469 C   0  0  0  0  0  0  0  0  0  0  0  0
    3.0402    1.7341    1.0878 C   0  0  0  0  0  0  0  0  0  0  0  0
    2.9399    3.1197    1.2652 C   0  0  0  0  0  0  0  0  0  0  0  0
    3.7022    3.7606    2.2434 C   0  0  0  0  0  0  0  0  0  0  0  0
    4.5689    3.0218    3.0465 C   0  0  0  0  0  0  0  0  0  0  0  0
    4.6768    1.6428    2.8715 C   0  0  0  0  0  0  0  0  0  0  0  0
    3.9154    0.9968    1.8937 C   0  0  0  0  0  0  0  0  0  0  0  0
    1.4494    1.7397   -0.7667 N   0  0  0  0  0  0  0  0  0  0  0  0
    0.8431    0.8058   -1.6363 O   0  0  0  0  0  0  0  0  0  0  0  0
   -6.3330    2.0980    1.6233 H   0  0  0  0  0  0  0  0  0  0  0  0
   -5.8231    4.8018    1.9300 H   0  0  0  0  0  0  0  0  0  0  0  0
   -2.8342    3.4890   -0.5307 H   0  0  0  0  0  0  0  0  0  0  0  0
   -3.6023   -1.0159   -1.7672 H   0  0  0  0  0  0  0  0  0  0  0  0
   -3.0370   -1.7206   -0.2488 H   0  0  0  0  0  0  0  0  0  0  0  0
   -1.4348   -2.0215   -2.1621 H   0  0  0  0  0  0  0  0  0  0  0  0
   -1.3158   -0.2712   -2.3210 H   0  0  0  0  0  0  0  0  0  0  0  0
   -1.3258   -0.8912    1.4122 H   0  0  0  0  0  0  0  0  0  0  0  0
    0.0166    0.1939    1.2829 H   0  0  0  0  0  0  0  0  0  0  0  0
   -2.0624    1.4407    1.2377 H   0  0  0  0  0  0  0  0  0  0  0  0
   -1.3219    1.6027   -0.3656 H   0  0  0  0  0  0  0  0  0  0  0  0
   -0.1624   -4.9135    0.4148 H   0  0  0  0  0  0  0  0  0  0  0  0
    0.9460   -6.6421   -0.9984 H   0  0  0  0  0  0  0  0  0  0  0  0
    2.4816   -3.5901   -3.5860 H   0  0  0  0  0  0  0  0  0  0  0  0
    3.1419   -0.7133   -0.5598 H   0  0  0  0  0  0  0  0  0  0  0  0
    2.0197   -0.9252    0.8111 H   0  0  0  0  0  0  0  0  0  0  0  0
    2.2706    3.7107    0.6428 H   0  0  0  0  0  0  0  0  0  0  0  0
    3.6206    4.8369    2.3755 H   0  0  0  0  0  0  0  0  0  0  0  0
    5.1639    3.5225    3.8066 H   0  0  0  0  0  0  0  0  0  0  0  0
    5.3588    1.0708    3.4964 H   0  0  0  0  0  0  0  0  0  0  0  0
    4.0302   -0.0765    1.7782 H   0  0  0  0  0  0  0  0  0  0  0  0
  1  2  2  0
  2  3  1  0
  3  4  1  0
  4  5  2  0
  5  6  1  0
  6  7  1  0
  2  8  1  0
  8  9  1  0
  9 10  1  0
 10 11  1  0
 11 12  1  0
 12 13  1  0
 11 14  1  0
 14 15  1  0
 15 16  2  0
 16 17  1  0
 17 18  2  0
 18 19  1  0
 18 20  1  0
 20 21  2  0
 21 22  1  0
 22 23  2  0
 22 24  1  0
 24 25  1  0
 25 26  1  0
 26 27  1  0
 27 28  2  0
 28 29  1  0
 29 30  2  0
 30 31  1  0
 31 32  2  0
 26 33  2  0
 33 34  1  0
  7  3  2  0
 13  8  1  0
 21 15  1  0
 34 24  1  0
 24 11  1  0
 32 27  1  0
  4 35  1  0
  5 36  1  0
  7 37  1  0
  9 38  1  0
  9 39  1  0
 10 40  1  0
 10 41  1  0
 12 42  1  0
 12 43  1  0
 13 44  1  0
 13 45  1  0
 16 46  1  0
 17 47  1  0
 20 48  1  0
 25 49  1  0
 25 50  1  0
 28 51  1  0
 29 52  1  0
 30 53  1  0
 31 54  1  0
 32 55  1  0
M  END
$$$$
