
     RDKit          3D

 64 67  0  0  0  0  0  0  0  0999 V2000
    3.7200    5.4192   -2.4777 C   0  0  0  0  0  0  0  0  0  0  0  0
    3.9548    3.9658   -2.4931 C   0  0  0  0  0  0  0  0  0  0  0  0
    3.1858    2.8666   -2.2047 C   0  0  0  0  0  0  0  0  0  0  0  0
    4.0355    1.7652   -2.4334 C   0  0  0  0  0  0  0  0  0  0  0  0
    3.7791    0.4187   -2.3128 N   0  0  0  0  0  0  0  0  0  0  0  0
    2.5892   -0.1408   -1.9048 C   0  0  0  0  0  0  0  0  0  0  0  0
    1.5793    0.4660   -1.5556 O   0  0  0  0  0  0  0  0  0  0  0  0
    2.6439   -1.6592   -1.9602 C   0  0  0  0  0  0  0  0  0  0  0  0
    1.3604   -2.2910   -1.4276 C   0  0  0  0  0  0  0  0  0  0  0  0
    1.1938   -2.0005    0.0609 C   0  0  0  0  0  0  0  0  0  0  0  0
    2.1927   -1.8528    0.7684 O   0  0  0  0  0  0  0  0  0  0  0  0
   -0.1049   -1.8443    0.5479 N   0  0  0  0  0  0  0  0  0  0  0  0
   -1.2517   -2.4620   -0.0528 C   0  0  0  0  0  0  0  0  0  0  0  0
   -2.5005   -1.8388   -0.0885 C   0  0  0  0  0  0  0  0  0  0  0  0
   -3.5908   -2.4804   -0.6787 C   0  0  0  0  0  0  0  0  0  0  0  0
   -3.4064   -3.7436   -1.2113 C   0  0  0  0  0  0  0  0  0  0  0  0
   -2.2283   -4.3964   -1.1815 N   0  0  0  0  0  0  0  0  0  0  0  0
   -1.1932   -3.7507   -0.5900 C   0  0  0  0  0  0  0  0  0  0  0  0
   -0.2544   -1.2314    1.8976 C   0  0  0  0  0  0  0  0  0  0  0  0
   -0.9125    0.1748    1.8710 C   0  0  0  0  0  0  0  0  0  0  0  0
   -1.6079    0.6231    2.7813 O   0  0  0  0  0  0  0  0  0  0  0  0
   -0.5656    0.9665    0.7836 N   0  0  0  0  0  0  0  0  0  0  0  0
   -1.1357    2.2828    0.6068 C   0  0  0  0  0  0  0  0  0  0  0  0
   -0.3587    3.1506   -0.3724 C   0  0  0  0  0  0  0  0  0  0  0  0
   -1.3347    4.2705   -0.7097 C   0  0  0  0  0  0  0  0  0  0  0  0
   -2.7298    3.6562   -0.5796 C   0  0  0  0  0  0  0  0  0  0  0  0
   -2.5257    2.2478   -0.0253 C   0  0  0  0  0  0  0  0  0  0  0  0
   -0.7854   -2.2392    2.9201 C   0  0  0  0  0  0  0  0  0  0  0  0
    0.1008   -3.2068    3.4326 C   0  0  0  0  0  0  0  0  0  0  0  0
   -0.3394   -4.1807    4.3297 C   0  0  0  0  0  0  0  0  0  0  0  0
   -1.6734   -4.2089    4.7262 C   0  0  0  0  0  0  0  0  0  0  0  0
   -2.5651   -3.2636    4.2263 C   0  0  0  0  0  0  0  0  0  0  0  0
   -2.1265   -2.2882    3.3272 C   0  0  0  0  0  0  0  0  0  0  0  0
    5.2451    2.1715   -2.8350 N   0  0  0  0  0  0  0  0  0  0  0  0
    5.1931    3.5530   -2.8697 O   0  0  0  0  0  0  0  0  0  0  0  0
    2.6631    5.6437   -2.3013 H   0  0  0  0  0  0  0  0  0  0  0  0
    4.3063    5.8927   -1.6846 H   0  0  0  0  0  0  0  0  0  0  0  0
    4.0076    5.8662   -3.4353 H   0  0  0  0  0  0  0  0  0  0  0  0
    2.1588    2.8662   -1.8814 H   0  0  0  0  0  0  0  0  0  0  0  0
    4.5710   -0.1668   -2.5428 H   0  0  0  0  0  0  0  0  0  0  0  0
    2.7806   -1.9538   -3.0072 H   0  0  0  0  0  0  0  0  0  0  0  0
    3.5163   -2.0059   -1.3946 H   0  0  0  0  0  0  0  0  0  0  0  0
    1.4263   -3.3748   -1.5627 H   0  0  0  0  0  0  0  0  0  0  0  0
    0.5059   -1.9096   -1.9963 H   0  0  0  0  0  0  0  0  0  0  0  0
   -2.6585   -0.8416    0.3050 H   0  0  0  0  0  0  0  0  0  0  0  0
   -4.5622   -1.9983   -0.7248 H   0  0  0  0  0  0  0  0  0  0  0  0
   -4.2246   -4.2798   -1.6833 H   0  0  0  0  0  0  0  0  0  0  0  0
   -0.2929   -4.3535   -0.5250 H   0  0  0  0  0  0  0  0  0  0  0  0
    0.7488   -0.9721    2.2686 H   0  0  0  0  0  0  0  0  0  0  0  0
    0.0058    0.5714    0.0397 H   0  0  0  0  0  0  0  0  0  0  0  0
   -1.1897    2.7816    1.5835 H   0  0  0  0  0  0  0  0  0  0  0  0
   -0.1146    2.5877   -1.2824 H   0  0  0  0  0  0  0  0  0  0  0  0
    0.5766    3.5276    0.0537 H   0  0  0  0  0  0  0  0  0  0  0  0
   -1.2259    5.0934    0.0070 H   0  0  0  0  0  0  0  0  0  0  0  0
   -1.1564    4.6790   -1.7091 H   0  0  0  0  0  0  0  0  0  0  0  0
   -3.3410    4.2576    0.1021 H   0  0  0  0  0  0  0  0  0  0  0  0
   -3.2487    3.6250   -1.5438 H   0  0  0  0  0  0  0  0  0  0  0  0
   -2.5585    1.5207   -0.8483 H   0  0  0  0  0  0  0  0  0  0  0  0
   -3.3056    1.9680    0.6907 H   0  0  0  0  0  0  0  0  0  0  0  0
    1.1471   -3.2068    3.1282 H   0  0  0  0  0  0  0  0  0  0  0  0
    0.3589   -4.9184    4.7160 H   0  0  0  0  0  0  0  0  0  0  0  0
   -2.0180   -4.9666    5.4238 H   0  0  0  0  0  0  0  0  0  0  0  0
   -3.6074   -3.2841    4.5342 H   0  0  0  0  0  0  0  0  0  0  0  0
   -2.8522   -1.5680    2.9554 H   0  0  0  0  0  0  0  0  0  0  0  0
  1  2  1  0
  2  3  2  0
  3  4  1  0
  4  5  1  0
  5  6  1  0
  6  7  2  0
  6  8  1  0
  8  9  1  0
  9 10  1  0
 10 11  2  0
 10 12  1  0
 12 13  1  0
 13 14  2  0
 14 15  1  0
 15 16  2  0
 16 17  1  0
 17 18  2  0
 12 19  1  0
 19 20  1  0
 20 21  2  0
 20 22  1  0
 22 23  1  0
 23 24  1  0
 24 25  1  0
 25 26  1  0
 26 27  1  0
 19 28  1  0
 28 29  2  0
 29 30  1  0
 30 31  2  0
 31 32  1  0
 32 33  2  0
  4 34  2  0
 34 35  1  0
 35  2  1  0
 18 13  1  0
 27 23  1  0
 33 28  1  0
  1 36  1  0
  1 37  1  0
  1 38  1  0
  3 39  1  0
  5 40  1  0
  8 41  1  0
  8 42  1  0
  9 43  1  0
  9 44  1  0
 14 45  1  0
 15 46  1  0
 16 47  1  0
 18 48  1  0
 19 49  1  0
 22 50  1  0
 23 51  1  0
 24 52  1  0
 24 53  1  0
 25 54  1  0
 25 55  1  0
 26 56  1  0
 26 57  1  0
 27 58  1  0
 27 59  1  0
 29 60  1  0
 30 61  1  0
 31 62  1  0
 32 63  1  0
 33 64  1  0
M  END
$$$$
