
     RDKit          3D

 64 69  0  0  0  0  0  0  0  0999 V2000
    2.8622   -3.4575    0.0182 C   0  0  0  0  0  0  0  0  0  0  0  0
    1.6211   -2.7743    0.1392 O   0  0  0  0  0  0  0  0  0  0  0  0
    0.5513   -3.2746   -0.5559 C   0  0  0  0  0  0  0  0  0  0  0  0
    0.6417   -4.2911   -1.5140 C   0  0  0  0  0  0  0  0  0  0  0  0
   -0.5014   -4.7534   -2.1705 C   0  0  0  0  0  0  0  0  0  0  0  0
   -1.7455   -4.2094   -1.8726 C   0  0  0  0  0  0  0  0  0  0  0  0
   -1.8457   -3.1927   -0.9257 C   0  0  0  0  0  0  0  0  0  0  0  0
   -0.7016   -2.6956   -0.2724 C   0  0  0  0  0  0  0  0  0  0  0  0
   -0.8570   -1.6050    0.7763 C   0  0  0  0  0  0  0  0  0  0  0  0
   -1.7164   -0.4754    0.3463 N   0  0  0  0  0  0  0  0  0  0  0  0
   -1.1375    0.3042   -0.7693 C   0  0  0  0  0  0  0  0  0  0  0  0
    0.1814    1.0070   -0.5584 C   0  0  0  0  0  0  0  0  0  0  0  0
    1.3582    0.4749   -0.9366 C   0  0  0  0  0  0  0  0  0  0  0  0
    2.6168    1.1891   -0.7355 C   0  0  0  0  0  0  0  0  0  0  0  0
    3.8437    0.6149   -1.0766 C   0  0  0  0  0  0  0  0  0  0  0  0
    5.0242    1.3232   -0.8527 C   0  0  0  0  0  0  0  0  0  0  0  0
    4.9809    2.6167   -0.3178 C   0  0  0  0  0  0  0  0  0  0  0  0
    3.7606    3.1908    0.0335 C   0  0  0  0  0  0  0  0  0  0  0  0
    2.5845    2.4730   -0.1783 C   0  0  0  0  0  0  0  0  0  0  0  0
    1.3491    3.0372    0.1568 N   0  0  0  0  0  0  0  0  0  0  0  0
    0.1488    2.4022   -0.0198 C   0  0  0  0  0  0  0  0  0  0  0  0
   -0.9080    2.9642    0.2556 O   0  0  0  0  0  0  0  0  0  0  0  0
    6.1013    3.3780   -0.1021 O   0  0  0  0  0  0  0  0  0  0  0  0
    7.2400    2.8438   -0.7862 C   0  0  0  0  0  0  0  0  0  0  0  0
    7.3257    1.3377   -0.5986 C   0  0  0  0  0  0  0  0  0  0  0  0
    6.1935    0.6892   -1.1895 O   0  0  0  0  0  0  0  0  0  0  0  0
   -2.0634    0.3850    1.4917 C   0  0  0  0  0  0  0  0  0  0  0  0
   -3.0424   -0.2620    2.4087 C   0  0  0  0  0  0  0  0  0  0  0  0
   -2.8180   -0.7039    3.6311 N   0  0  0  0  0  0  0  0  0  0  0  0
   -4.0034   -1.2335    4.0734 N   0  0  0  0  0  0  0  0  0  0  0  0
   -4.9455   -1.1296    3.1480 N   0  0  0  0  0  0  0  0  0  0  0  0
   -4.3579   -0.5035    2.1100 N   0  0  0  0  0  0  0  0  0  0  0  0
   -5.0820   -0.2763    0.8785 C   0  0  0  0  0  0  0  0  0  0  0  0
   -5.7283    1.0596    0.8730 C   0  0  0  0  0  0  0  0  0  0  0  0
   -5.2969    2.3327    0.5556 C   0  0  0  0  0  0  0  0  0  0  0  0
   -6.4079    3.1905    0.7458 C   0  0  0  0  0  0  0  0  0  0  0  0
   -7.4476    2.3885    1.1521 C   0  0  0  0  0  0  0  0  0  0  0  0
   -7.0476    1.0939    1.2223 O   0  0  0  0  0  0  0  0  0  0  0  0
    3.5685   -2.9897    0.7104 H   0  0  0  0  0  0  0  0  0  0  0  0
    2.7671   -4.5109    0.3009 H   0  0  0  0  0  0  0  0  0  0  0  0
    3.2690   -3.3519   -0.9924 H   0  0  0  0  0  0  0  0  0  0  0  0
    1.5903   -4.7487   -1.7747 H   0  0  0  0  0  0  0  0  0  0  0  0
   -0.4193   -5.5461   -2.9095 H   0  0  0  0  0  0  0  0  0  0  0  0
   -2.6368   -4.5781   -2.3731 H   0  0  0  0  0  0  0  0  0  0  0  0
   -2.8251   -2.7817   -0.6911 H   0  0  0  0  0  0  0  0  0  0  0  0
   -1.3029   -2.1102    1.6429 H   0  0  0  0  0  0  0  0  0  0  0  0
    0.1117   -1.2273    1.1213 H   0  0  0  0  0  0  0  0  0  0  0  0
   -1.8872    1.0353   -1.1022 H   0  0  0  0  0  0  0  0  0  0  0  0
   -1.0459   -0.3570   -1.6417 H   0  0  0  0  0  0  0  0  0  0  0  0
    1.4053   -0.5136   -1.3823 H   0  0  0  0  0  0  0  0  0  0  0  0
    3.8915   -0.3837   -1.5023 H   0  0  0  0  0  0  0  0  0  0  0  0
    3.7408    4.1894    0.4573 H   0  0  0  0  0  0  0  0  0  0  0  0
    1.3035    3.9729    0.5369 H   0  0  0  0  0  0  0  0  0  0  0  0
    7.1650    3.1108   -1.8474 H   0  0  0  0  0  0  0  0  0  0  0  0
    8.1306    3.3286   -0.3743 H   0  0  0  0  0  0  0  0  0  0  0  0
    8.2235    0.9463   -1.0874 H   0  0  0  0  0  0  0  0  0  0  0  0
    7.3685    1.0653    0.4634 H   0  0  0  0  0  0  0  0  0  0  0  0
   -1.1683    0.6780    2.0550 H   0  0  0  0  0  0  0  0  0  0  0  0
   -2.5327    1.3089    1.1399 H   0  0  0  0  0  0  0  0  0  0  0  0
   -4.3900   -0.3744    0.0384 H   0  0  0  0  0  0  0  0  0  0  0  0
   -5.8268   -1.0736    0.7773 H   0  0  0  0  0  0  0  0  0  0  0  0
   -4.3046    2.6172    0.2310 H   0  0  0  0  0  0  0  0  0  0  0  0
   -6.4468    4.2615    0.6037 H   0  0  0  0  0  0  0  0  0  0  0  0
   -8.4799    2.5738    1.4161 H   0  0  0  0  0  0  0  0  0  0  0  0
  1  2  1  0
  2  3  1  0
  3  4  2  0
  4  5  1  0
  5  6  2  0
  6  7  1  0
  7  8  2  0
  8  9  1  0
  9 10  1  0
 10 11  1  0
 11 12  1  0
 12 13  2  0
 13 14  1  0
 14 15  2  0
 15 16  1  0
 16 17  2  0
 17 18  1  0
 18 19  2  0
 19 20  1  0
 20 21  1  0
 21 22  2  0
 17 23  1  0
 23 24  1  0
 24 25  1  0
 25 26  1  0
 10 27  1  0
 27 28  1  0
 28 29  2  0
 29 30  1  0
 30 31  2  0
 31 32  1  0
 32 33  1  0
 33 34  1  0
 34 35  2  0
 35 36  1  0
 36 37  2  0
 37 38  1  0
  8  3  1  0
 21 12  1  0
 32 28  1  0
 38 34  1  0
 19 14  1  0
 26 16  1  0
  1 39  1  0
  1 40  1  0
  1 41  1  0
  4 42  1  0
  5 43  1  0
  6 44  1  0
  7 45  1  0
  9 46  1  0
  9 47  1  0
 11 48  1  0
 11 49  1  0
 13 50  1  0
 15 51  1  0
 18 52  1  0
 20 53  1  0
 24 54  1  0
 24 55  1  0
 25 56  1  0
 25 57  1  0
 27 58  1  0
 27 59  1  0
 33 60  1  0
 33 61  1  0
 35 62  1  0
 36 63  1  0
 37 64  1  0
M  END
$$$$
