
     RDKit          3D

 55 60  0  0  0  0  0  0  0  0999 V2000
   -3.9495    2.3520   -1.9541 O   0  0  0  0  0  0  0  0  0  0  0  0
   -3.9247    1.6339   -0.9553 C   0  0  0  0  0  0  0  0  0  0  0  0
   -5.1739    1.1919   -0.3557 C   0  0  0  0  0  0  0  0  0  0  0  0
   -5.5908    1.1089    1.0036 C   0  0  0  0  0  0  0  0  0  0  0  0
   -6.8968    0.6703    0.9888 C   0  0  0  0  0  0  0  0  0  0  0  0
   -7.3253    0.4956   -0.2866 O   0  0  0  0  0  0  0  0  0  0  0  0
   -6.2900    0.8358   -1.0938 C   0  0  0  0  0  0  0  0  0  0  0  0
   -2.7172    1.2145   -0.3799 N   0  0  0  0  0  0  0  0  0  0  0  0
   -1.4730    1.6789   -0.9835 C   0  0  0  0  0  0  0  0  0  0  0  0
   -0.6570    0.5039   -1.5137 C   0  0  0  0  0  0  0  0  0  0  0  0
   -0.3147   -0.5303   -0.4031 C   0  0  0  0  0  0  0  0  0  0  0  0
   -1.1642   -0.2756    0.8726 C   0  0  0  0  0  0  0  0  0  0  0  0
   -2.6121    0.0669    0.5230 C   0  0  0  0  0  0  0  0  0  0  0  0
   -0.7947   -1.8317   -0.8484 O   0  0  0  0  0  0  0  0  0  0  0  0
    0.0223   -2.5925   -1.6295 C   0  0  0  0  0  0  0  0  0  0  0  0
   -0.5559   -3.7352   -2.1890 C   0  0  0  0  0  0  0  0  0  0  0  0
    0.1993   -4.5691   -3.0165 C   0  0  0  0  0  0  0  0  0  0  0  0
    1.5287   -4.2529   -3.2809 C   0  0  0  0  0  0  0  0  0  0  0  0
    2.2493   -5.0539   -4.0764 F   0  0  0  0  0  0  0  0  0  0  0  0
    2.1200   -3.1246   -2.7270 C   0  0  0  0  0  0  0  0  0  0  0  0
    1.3588   -2.3053   -1.8887 C   0  0  0  0  0  0  0  0  0  0  0  0
    1.9568   -1.1243   -1.2573 C   0  0  0  0  0  0  0  0  0  0  0  0
    2.9929   -0.6464   -1.7144 O   0  0  0  0  0  0  0  0  0  0  0  0
    1.2034   -0.5585   -0.0591 C   0  0  0  0  0  0  0  0  0  0  0  0
    1.7965    0.7746    0.3796 C   0  0  0  0  0  0  0  0  0  0  0  0
    2.6898    0.2833    1.4671 C   0  0  0  0  0  0  0  0  0  0  0  0
    3.7236    1.1459    2.0861 C   0  0  0  0  0  0  0  0  0  0  0  0
    4.5584    0.6018    3.0707 C   0  0  0  0  0  0  0  0  0  0  0  0
    5.5371    1.3895    3.6788 C   0  0  0  0  0  0  0  0  0  0  0  0
    5.6864    2.7237    3.3073 C   0  0  0  0  0  0  0  0  0  0  0  0
    4.8587    3.2716    2.3284 C   0  0  0  0  0  0  0  0  0  0  0  0
    3.8771    2.4868    1.7174 C   0  0  0  0  0  0  0  0  0  0  0  0
    2.4629   -0.9339    1.8481 N   0  0  0  0  0  0  0  0  0  0  0  0
    1.4256   -1.4511    1.0449 O   0  0  0  0  0  0  0  0  0  0  0  0
   -5.0259    1.3665    1.8888 H   0  0  0  0  0  0  0  0  0  0  0  0
   -7.6276    0.4624    1.7571 H   0  0  0  0  0  0  0  0  0  0  0  0
   -6.4886    0.7769   -2.1560 H   0  0  0  0  0  0  0  0  0  0  0  0
   -0.9183    2.2233   -0.2123 H   0  0  0  0  0  0  0  0  0  0  0  0
   -1.6573    2.3925   -1.7909 H   0  0  0  0  0  0  0  0  0  0  0  0
   -1.2269    0.0187   -2.3176 H   0  0  0  0  0  0  0  0  0  0  0  0
    0.2523    0.8967   -1.9832 H   0  0  0  0  0  0  0  0  0  0  0  0
   -1.1686   -1.1676    1.5139 H   0  0  0  0  0  0  0  0  0  0  0  0
   -0.7511    0.5436    1.4724 H   0  0  0  0  0  0  0  0  0  0  0  0
   -3.1425    0.2935    1.4470 H   0  0  0  0  0  0  0  0  0  0  0  0
   -3.1083   -0.7856    0.0485 H   0  0  0  0  0  0  0  0  0  0  0  0
   -1.5969   -3.9758   -1.9831 H   0  0  0  0  0  0  0  0  0  0  0  0
   -0.2391   -5.4606   -3.4568 H   0  0  0  0  0  0  0  0  0  0  0  0
    3.1626   -2.9026   -2.9382 H   0  0  0  0  0  0  0  0  0  0  0  0
    1.0692    1.4561    0.8257 H   0  0  0  0  0  0  0  0  0  0  0  0
    2.3398    1.3044   -0.4064 H   0  0  0  0  0  0  0  0  0  0  0  0
    4.4556   -0.4396    3.3689 H   0  0  0  0  0  0  0  0  0  0  0  0
    6.1832    0.9593    4.4403 H   0  0  0  0  0  0  0  0  0  0  0  0
    6.4508    3.3354    3.7796 H   0  0  0  0  0  0  0  0  0  0  0  0
    4.9796    4.3124    2.0390 H   0  0  0  0  0  0  0  0  0  0  0  0
    3.2499    2.9458    0.9599 H   0  0  0  0  0  0  0  0  0  0  0  0
  1  2  2  0
  2  3  1  0
  3  4  1  0
  4  5  2  0
  5  6  1  0
  6  7  1  0
  2  8  1  0
  8  9  1  0
  9 10  1  0
 10 11  1  0
 11 12  1  0
 12 13  1  0
 11 14  1  0
 14 15  1  0
 15 16  2  0
 16 17  1  0
 17 18  2  0
 18 19  1  0
 18 20  1  0
 20 21  2  0
 21 22  1  0
 22 23  2  0
 22 24  1  0
 24 25  1  0
 25 26  1  0
 26 27  1  0
 27 28  2  0
 28 29  1  0
 29 30  2  0
 30 31  1  0
 31 32  2  0
 26 33  2  0
 33 34  1  0
  7  3  2  0
 13  8  1  0
 21 15  1  0
 34 24  1  0
 24 11  1  0
 32 27  1  0
  4 35  1  0
  5 36  1  0
  7 37  1  0
  9 38  1  0
  9 39  1  0
 10 40  1  0
 10 41  1  0
 12 42  1  0
 12 43  1  0
 13 44  1  0
 13 45  1  0
 16 46  1  0
 17 47  1  0
 20 48  1  0
 25 49  1  0
 25 50  1  0
 28 51  1  0
 29 52  1  0
 30 53  1  0
 31 54  1  0
 32 55  1  0
M  END
$$$$
