
     RDKit          3D

 45 44  0  0  0  0  0  0  0  0999 V2000
    3.6870   -4.2840    0.7607 C   0  0  0  0  0  0  0  0  0  0  0  0
    3.4528   -3.3538    1.9408 C   0  0  0  0  0  0  0  0  0  0  0  0
    4.4401   -2.1843    2.0038 C   0  0  0  0  0  0  0  0  0  0  0  0
    4.3823   -1.2375    0.8076 C   0  0  0  0  0  0  0  0  0  0  0  0
    3.0970   -0.5918    0.6840 N   0  0  0  0  0  0  0  0  0  0  0  0
    2.6740   -0.0438   -0.4877 C   0  0  0  0  0  0  0  0  0  0  0  0
    3.2245   -0.1591   -1.5713 O   0  0  0  0  0  0  0  0  0  0  0  0
    1.5445    0.6659   -0.2568 O   0  0  0  0  0  0  0  0  0  0  0  0
    0.9945    1.2944   -1.4273 C   0  0  0  0  0  0  0  0  0  0  0  0
   -0.3045    2.0180   -1.0363 C   0  0  0  0  0  0  0  0  0  0  0  0
   -0.8280    2.9273   -2.1630 C   0  0  0  0  0  0  0  0  0  0  0  0
   -1.1761    2.1986   -3.4549 C   0  0  0  0  0  0  0  0  0  0  0  0
   -1.3252    1.0672   -0.6097 N   0  0  0  0  0  0  0  0  0  0  0  0
   -2.3629    1.4030    0.2027 C   0  0  0  0  0  0  0  0  0  0  0  0
   -2.5305    2.4939    0.7244 O   0  0  0  0  0  0  0  0  0  0  0  0
   -3.1837    0.3325    0.3267 O   0  0  0  0  0  0  0  0  0  0  0  0
   -4.3472    0.5216    1.1529 C   0  0  0  0  0  0  0  0  0  0  0  0
   -4.7697   -0.8540    1.6546 C   0  0  0  0  0  0  0  0  0  0  0  0
   -5.4601    1.1600    0.3292 C   0  0  0  0  0  0  0  0  0  0  0  0
    4.7188   -4.6489    0.7461 H   0  0  0  0  0  0  0  0  0  0  0  0
    3.4818   -3.7843   -0.1906 H   0  0  0  0  0  0  0  0  0  0  0  0
    3.0220   -5.1510    0.8285 H   0  0  0  0  0  0  0  0  0  0  0  0
    2.4230   -2.9801    1.9108 H   0  0  0  0  0  0  0  0  0  0  0  0
    3.5473   -3.9347    2.8662 H   0  0  0  0  0  0  0  0  0  0  0  0
    5.4596   -2.5786    2.0930 H   0  0  0  0  0  0  0  0  0  0  0  0
    4.2414   -1.6162    2.9214 H   0  0  0  0  0  0  0  0  0  0  0  0
    4.6267   -1.7561   -0.1253 H   0  0  0  0  0  0  0  0  0  0  0  0
    5.1254   -0.4420    0.9349 H   0  0  0  0  0  0  0  0  0  0  0  0
    2.6220   -0.2457    1.5065 H   0  0  0  0  0  0  0  0  0  0  0  0
    0.7962    0.5261   -2.1841 H   0  0  0  0  0  0  0  0  0  0  0  0
    1.7223    2.0167   -1.8154 H   0  0  0  0  0  0  0  0  0  0  0  0
   -0.0927    2.6535   -0.1661 H   0  0  0  0  0  0  0  0  0  0  0  0
   -0.0751    3.6936   -2.3848 H   0  0  0  0  0  0  0  0  0  0  0  0
   -1.7217    3.4608   -1.8169 H   0  0  0  0  0  0  0  0  0  0  0  0
   -1.5797    2.9076   -4.1852 H   0  0  0  0  0  0  0  0  0  0  0  0
   -0.2940    1.7314   -3.9022 H   0  0  0  0  0  0  0  0  0  0  0  0
   -1.9319    1.4253   -3.2874 H   0  0  0  0  0  0  0  0  0  0  0  0
   -1.3732    0.1451   -1.0203 H   0  0  0  0  0  0  0  0  0  0  0  0
   -4.1058    1.1475    2.0207 H   0  0  0  0  0  0  0  0  0  0  0  0
   -5.6552   -0.7898    2.2943 H   0  0  0  0  0  0  0  0  0  0  0  0
   -3.9581   -1.3155    2.2276 H   0  0  0  0  0  0  0  0  0  0  0  0
   -4.9872   -1.5285    0.8190 H   0  0  0  0  0  0  0  0  0  0  0  0
   -6.3754    1.2707    0.9187 H   0  0  0  0  0  0  0  0  0  0  0  0
   -5.1612    2.1498   -0.0308 H   0  0  0  0  0  0  0  0  0  0  0  0
   -5.6841    0.5585   -0.5587 H   0  0  0  0  0  0  0  0  0  0  0  0
  1  2  1  0
  2  3  1  0
  3  4  1  0
  4  5  1  0
  5  6  1  0
  6  7  2  0
  6  8  1  0
  8  9  1  0
  9 10  1  0
 10 11  1  0
 11 12  1  0
 10 13  1  0
 13 14  1  0
 14 15  2  0
 14 16  1  0
 16 17  1  0
 17 18  1  0
 17 19  1  0
  1 20  1  0
  1 21  1  0
  1 22  1  0
  2 23  1  0
  2 24  1  0
  3 25  1  0
  3 26  1  0
  4 27  1  0
  4 28  1  0
  5 29  1  0
  9 30  1  0
  9 31  1  0
 10 32  1  0
 11 33  1  0
 11 34  1  0
 12 35  1  0
 12 36  1  0
 12 37  1  0
 13 38  1  0
 17 39  1  0
 18 40  1  0
 18 41  1  0
 18 42  1  0
 19 43  1  0
 19 44  1  0
 19 45  1  0
M  END
$$$$
