
     RDKit          3D

 36 38  0  0  0  0  0  0  0  0999 V2000
   -3.7225    0.7511   -2.6037 C   0  0  0  0  0  0  0  0  0  0  0  0
   -2.7845    0.3854   -1.4964 C   0  0  0  0  0  0  0  0  0  0  0  0
   -1.4646    0.5638   -1.7107 N   0  0  0  0  0  0  0  0  0  0  0  0
   -0.6424    0.2353   -0.6823 C   0  0  0  0  0  0  0  0  0  0  0  0
    1.1053    0.4837   -0.9820 S   0  0  0  0  0  6  0  0  0  0  0  0
    1.3262    1.9158   -1.1248 O   0  0  0  0  0  0  0  0  0  0  0  0
    1.5090   -0.4533   -2.0208 O   0  0  0  0  0  0  0  0  0  0  0  0
    1.8511   -0.0406    0.5560 C   0  0  0  0  0  0  0  0  0  0  0  0
    3.3513    0.1080    0.4692 C   0  0  0  0  0  0  0  0  0  0  0  0
    3.9715    1.3076    0.8504 C   0  0  0  0  0  0  0  0  0  0  0  0
    5.3591    1.4454    0.7674 C   0  0  0  0  0  0  0  0  0  0  0  0
    6.1340    0.3865    0.3006 C   0  0  0  0  0  0  0  0  0  0  0  0
    7.8433    0.5561    0.2007 Cl  0  0  0  0  0  0  0  0  0  0  0  0
    5.5328   -0.8082   -0.0880 C   0  0  0  0  0  0  0  0  0  0  0  0
    4.1454   -0.9471   -0.0055 C   0  0  0  0  0  0  0  0  0  0  0  0
   -0.9773   -0.2463    0.5345 N   0  0  0  0  0  0  0  0  0  0  0  0
   -2.2960   -0.4078    0.6748 C   0  0  0  0  0  0  0  0  0  0  0  0
   -3.2375   -0.1152   -0.2987 C   0  0  0  0  0  0  0  0  0  0  0  0
   -4.6221   -0.3696    0.1913 C   0  0  0  0  0  0  0  0  0  0  0  0
   -4.3466   -1.2766    1.4010 C   0  0  0  0  0  0  0  0  0  0  0  0
   -2.9618   -0.8864    1.9348 C   0  0  0  0  0  0  0  0  0  0  0  0
   -3.1735    1.1473   -3.4641 H   0  0  0  0  0  0  0  0  0  0  0  0
   -4.4261    1.5193   -2.2679 H   0  0  0  0  0  0  0  0  0  0  0  0
   -4.2810   -0.1301   -2.9343 H   0  0  0  0  0  0  0  0  0  0  0  0
    1.5816   -1.0859    0.7376 H   0  0  0  0  0  0  0  0  0  0  0  0
    1.4533    0.5775    1.3672 H   0  0  0  0  0  0  0  0  0  0  0  0
    3.3786    2.1503    1.2025 H   0  0  0  0  0  0  0  0  0  0  0  0
    5.8261    2.3818    1.0607 H   0  0  0  0  0  0  0  0  0  0  0  0
    6.1354   -1.6314   -0.4626 H   0  0  0  0  0  0  0  0  0  0  0  0
    3.6894   -1.8819   -0.3279 H   0  0  0  0  0  0  0  0  0  0  0  0
   -5.2474   -0.8770   -0.5484 H   0  0  0  0  0  0  0  0  0  0  0  0
   -5.0930    0.5691    0.5007 H   0  0  0  0  0  0  0  0  0  0  0  0
   -5.1261   -1.2022    2.1656 H   0  0  0  0  0  0  0  0  0  0  0  0
   -4.3209   -2.3232    1.0667 H   0  0  0  0  0  0  0  0  0  0  0  0
   -2.4406   -1.7367    2.3821 H   0  0  0  0  0  0  0  0  0  0  0  0
   -3.0296   -0.0642    2.6543 H   0  0  0  0  0  0  0  0  0  0  0  0
  1  2  1  0
  2  3  2  0
  3  4  1  0
  4  5  1  0
  5  6  2  0
  5  7  2  0
  5  8  1  0
  8  9  1  0
  9 10  2  0
 10 11  1  0
 11 12  2  0
 12 13  1  0
 12 14  1  0
 14 15  2  0
  4 16  2  0
 16 17  1  0
 17 18  2  0
 18 19  1  0
 19 20  1  0
 20 21  1  0
 18  2  1  0
 15  9  1  0
 21 17  1  0
  1 22  1  0
  1 23  1  0
  1 24  1  0
  8 25  1  0
  8 26  1  0
 10 27  1  0
 11 28  1  0
 14 29  1  0
 15 30  1  0
 19 31  1  0
 19 32  1  0
 20 33  1  0
 20 34  1  0
 21 35  1  0
 21 36  1  0
M  END
$$$$
