
     RDKit          3D

 30 31  0  0  0  0  0  0  0  0999 V2000
   -3.0392   -0.9424   -0.5586 C   0  0  0  0  0  0  0  0  0  0  0  0
   -3.2725   -0.0639    0.6742 C   0  0  0  0  0  0  0  0  0  0  0  0
   -4.7210   -0.2251    1.1390 C   0  0  0  0  0  0  0  0  0  0  0  0
   -2.4538   -0.4975    1.7704 O   0  0  0  0  0  0  0  0  0  0  0  0
   -1.1762   -0.0960    1.8187 C   0  0  0  0  0  0  0  0  0  0  0  0
   -0.3667   -0.4532    2.6586 O   0  0  0  0  0  0  0  0  0  0  0  0
   -0.8125    0.8712    0.7265 C   0  0  0  0  0  0  0  0  0  0  0  0
    0.3185    0.8634    0.0793 N   0  0  0  0  0  0  0  0  0  0  0  0
    1.2437   -0.0671    0.4537 N   0  0  0  0  0  0  0  0  0  0  0  0
    2.5155   -0.0240   -0.1622 C   0  0  0  0  0  0  0  0  0  0  0  0
    3.5460   -0.8303    0.3428 C   0  0  0  0  0  0  0  0  0  0  0  0
    4.7995   -0.8665   -0.2750 C   0  0  0  0  0  0  0  0  0  0  0  0
    5.0330   -0.1114   -1.4216 C   0  0  0  0  0  0  0  0  0  0  0  0
    4.0115    0.6708   -1.9542 C   0  0  0  0  0  0  0  0  0  0  0  0
    2.7591    0.7038   -1.3341 C   0  0  0  0  0  0  0  0  0  0  0  0
   -1.8789    1.8516    0.3222 C   0  0  0  0  0  0  0  0  0  0  0  0
   -1.6329    3.0094    0.0389 O   0  0  0  0  0  0  0  0  0  0  0  0
   -3.1129    1.3238    0.3473 O   0  0  0  0  0  0  0  0  0  0  0  0
   -3.6967   -0.6466   -1.3832 H   0  0  0  0  0  0  0  0  0  0  0  0
   -3.2060   -1.9996   -0.3262 H   0  0  0  0  0  0  0  0  0  0  0  0
   -2.0125   -0.8590   -0.9286 H   0  0  0  0  0  0  0  0  0  0  0  0
   -5.4280    0.0924    0.3650 H   0  0  0  0  0  0  0  0  0  0  0  0
   -4.9383   -1.2608    1.4218 H   0  0  0  0  0  0  0  0  0  0  0  0
   -4.9090    0.3968    2.0223 H   0  0  0  0  0  0  0  0  0  0  0  0
    1.3005   -0.3386    1.4439 H   0  0  0  0  0  0  0  0  0  0  0  0
    3.3802   -1.4401    1.2271 H   0  0  0  0  0  0  0  0  0  0  0  0
    5.5896   -1.4886    0.1368 H   0  0  0  0  0  0  0  0  0  0  0  0
    6.0063   -0.1382   -1.9041 H   0  0  0  0  0  0  0  0  0  0  0  0
    4.1830    1.2542   -2.8547 H   0  0  0  0  0  0  0  0  0  0  0  0
    1.9708    1.3116   -1.7710 H   0  0  0  0  0  0  0  0  0  0  0  0
  1  2  1  0
  2  3  1  0
  2  4  1  0
  4  5  1  0
  5  6  2  0
  5  7  1  0
  7  8  2  3
  8  9  1  0
  9 10  1  0
 10 11  2  0
 11 12  1  0
 12 13  2  0
 13 14  1  0
 14 15  2  0
  7 16  1  0
 16 17  2  0
 16 18  1  0
 18  2  1  0
 15 10  1  0
  1 19  1  0
  1 20  1  0
  1 21  1  0
  3 22  1  0
  3 23  1  0
  3 24  1  0
  9 25  1  0
 11 26  1  0
 12 27  1  0
 13 28  1  0
 14 29  1  0
 15 30  1  0
M  END
$$$$
