
     RDKit          3D

 62 67  0  0  0  0  0  0  0  0999 V2000
   -4.9939   -3.5521    1.8547 C   0  0  0  0  0  0  0  0  0  0  0  0
   -4.3456   -2.2882    1.8726 O   0  0  0  0  0  0  0  0  0  0  0  0
   -3.5126   -2.0167    2.9294 C   0  0  0  0  0  0  0  0  0  0  0  0
   -3.1762   -2.9389    3.9275 C   0  0  0  0  0  0  0  0  0  0  0  0
   -2.3036   -2.5816    4.9598 C   0  0  0  0  0  0  0  0  0  0  0  0
   -1.7561   -1.3031    5.0051 C   0  0  0  0  0  0  0  0  0  0  0  0
   -2.0815   -0.3759    4.0171 C   0  0  0  0  0  0  0  0  0  0  0  0
   -2.9605   -0.7198    2.9769 C   0  0  0  0  0  0  0  0  0  0  0  0
   -3.2665    0.2883    1.9530 C   0  0  0  0  0  0  0  0  0  0  0  0
   -4.6794    1.2296    2.1419 S   0  0  0  0  0  0  0  0  0  0  0  0
   -4.3841    2.1256    0.7039 C   0  0  0  0  0  0  0  0  0  0  0  0
   -5.1960    3.1557    0.1796 C   0  0  0  0  0  0  0  0  0  0  0  0
   -4.7688    3.7426   -0.9933 C   0  0  0  0  0  0  0  0  0  0  0  0
   -3.6202    3.3565   -1.6277 C   0  0  0  0  0  0  0  0  0  0  0  0
   -2.8116    2.3520   -1.1334 C   0  0  0  0  0  0  0  0  0  0  0  0
   -3.1983    1.7102    0.0764 C   0  0  0  0  0  0  0  0  0  0  0  0
   -2.5590    0.6437    0.8171 C   0  0  0  0  0  0  0  0  0  0  0  0
   -1.3065   -0.0127    0.4602 C   0  0  0  0  0  0  0  0  0  0  0  0
   -0.0958    0.6772    0.5789 C   0  0  0  0  0  0  0  0  0  0  0  0
    1.1101    0.0574    0.2299 C   0  0  0  0  0  0  0  0  0  0  0  0
    1.1140   -1.2562   -0.2400 C   0  0  0  0  0  0  0  0  0  0  0  0
    2.2094   -1.9793   -0.6209 O   0  0  0  0  0  0  0  0  0  0  0  0
    3.5079   -1.4054   -0.4464 C   0  0  0  0  0  0  0  0  0  0  0  0
    3.9108   -0.5813   -1.6824 C   0  0  0  0  0  0  0  0  0  0  0  0
    5.2141    0.0946   -1.5534 N   0  0  0  0  0  0  0  0  0  0  0  0
    5.4739    0.9969   -2.6988 C   0  0  0  0  0  0  0  0  0  0  0  0
    6.3952    0.3846   -3.7655 C   0  0  0  0  0  0  0  0  0  0  0  0
    7.6853    0.0211   -3.2554 O   0  0  0  0  0  0  0  0  0  0  0  0
    7.6697   -0.2871   -1.8549 C   0  0  0  0  0  0  0  0  0  0  0  0
    6.3253   -0.8717   -1.3949 C   0  0  0  0  0  0  0  0  0  0  0  0
   -0.0993   -1.9393   -0.3641 C   0  0  0  0  0  0  0  0  0  0  0  0
   -1.3049   -1.3246   -0.0185 C   0  0  0  0  0  0  0  0  0  0  0  0
   -3.3893    4.0651   -2.7661 O   0  0  0  0  0  0  0  0  0  0  0  0
   -4.5341    4.9421   -2.7760 C   0  0  0  0  0  0  0  0  0  0  0  0
   -5.4129    4.7464   -1.6496 O   0  0  0  0  0  0  0  0  0  0  0  0
   -5.6162   -3.6919    2.7448 H   0  0  0  0  0  0  0  0  0  0  0  0
   -4.2681   -4.3645    1.7454 H   0  0  0  0  0  0  0  0  0  0  0  0
   -5.6533   -3.5770    0.9815 H   0  0  0  0  0  0  0  0  0  0  0  0
   -3.5710   -3.9492    3.9292 H   0  0  0  0  0  0  0  0  0  0  0  0
   -2.0485   -3.3073    5.7283 H   0  0  0  0  0  0  0  0  0  0  0  0
   -1.0751   -1.0280    5.8061 H   0  0  0  0  0  0  0  0  0  0  0  0
   -1.6472    0.6205    4.0569 H   0  0  0  0  0  0  0  0  0  0  0  0
   -6.1089    3.4677    0.6730 H   0  0  0  0  0  0  0  0  0  0  0  0
   -1.9087    2.0606   -1.6598 H   0  0  0  0  0  0  0  0  0  0  0  0
   -0.0818    1.7010    0.9458 H   0  0  0  0  0  0  0  0  0  0  0  0
    2.0220    0.6357    0.3334 H   0  0  0  0  0  0  0  0  0  0  0  0
    3.5878   -0.8367    0.4872 H   0  0  0  0  0  0  0  0  0  0  0  0
    4.1936   -2.2535   -0.3377 H   0  0  0  0  0  0  0  0  0  0  0  0
    3.1343    0.1749   -1.8506 H   0  0  0  0  0  0  0  0  0  0  0  0
    3.8869   -1.2264   -2.5711 H   0  0  0  0  0  0  0  0  0  0  0  0
    5.9651    1.8904   -2.2927 H   0  0  0  0  0  0  0  0  0  0  0  0
    4.5428    1.3458   -3.1607 H   0  0  0  0  0  0  0  0  0  0  0  0
    5.9384   -0.5095   -4.2055 H   0  0  0  0  0  0  0  0  0  0  0  0
    6.5560    1.1001   -4.5783 H   0  0  0  0  0  0  0  0  0  0  0  0
    8.4751   -1.0051   -1.6695 H   0  0  0  0  0  0  0  0  0  0  0  0
    7.9130    0.6251   -1.2974 H   0  0  0  0  0  0  0  0  0  0  0  0
    6.1314   -1.7760   -1.9868 H   0  0  0  0  0  0  0  0  0  0  0  0
    6.3996   -1.1638   -0.3419 H   0  0  0  0  0  0  0  0  0  0  0  0
   -0.1069   -2.9622   -0.7323 H   0  0  0  0  0  0  0  0  0  0  0  0
   -2.2371   -1.8752   -0.1227 H   0  0  0  0  0  0  0  0  0  0  0  0
   -4.1812    5.9798   -2.7696 H   0  0  0  0  0  0  0  0  0  0  0  0
   -5.1011    4.7691   -3.6980 H   0  0  0  0  0  0  0  0  0  0  0  0
  1  2  1  0
  2  3  1  0
  3  4  2  0
  4  5  1  0
  5  6  2  0
  6  7  1  0
  7  8  2  0
  8  9  1  0
  9 10  1  0
 10 11  1  0
 11 12  2  0
 12 13  1  0
 13 14  2  0
 14 15  1  0
 15 16  2  0
 16 17  1  0
 17 18  1  0
 18 19  2  0
 19 20  1  0
 20 21  2  0
 21 22  1  0
 22 23  1  0
 23 24  1  0
 24 25  1  0
 25 26  1  0
 26 27  1  0
 27 28  1  0
 28 29  1  0
 29 30  1  0
 21 31  1  0
 31 32  2  0
 14 33  1  0
 33 34  1  0
 34 35  1  0
  8  3  1  0
 17  9  2  0
 32 18  1  0
 16 11  1  0
 30 25  1  0
 35 13  1  0
  1 36  1  0
  1 37  1  0
  1 38  1  0
  4 39  1  0
  5 40  1  0
  6 41  1  0
  7 42  1  0
 12 43  1  0
 15 44  1  0
 19 45  1  0
 20 46  1  0
 23 47  1  0
 23 48  1  0
 24 49  1  0
 24 50  1  0
 26 51  1  0
 26 52  1  0
 27 53  1  0
 27 54  1  0
 29 55  1  0
 29 56  1  0
 30 57  1  0
 30 58  1  0
 31 59  1  0
 32 60  1  0
 34 61  1  0
 34 62  1  0
M  END
$$$$
