
     RDKit          3D

 53 55  0  0  0  0  0  0  0  0999 V2000
    9.4139    0.3752    0.8809 C   0  0  0  0  0  0  0  0  0  0  0  0
    8.3820    1.2495    0.4414 O   0  0  0  0  0  0  0  0  0  0  0  0
    7.1226    0.7251    0.3478 C   0  0  0  0  0  0  0  0  0  0  0  0
    6.7444   -0.5704    0.7104 C   0  0  0  0  0  0  0  0  0  0  0  0
    5.4151   -0.9821    0.5669 C   0  0  0  0  0  0  0  0  0  0  0  0
    4.4664   -0.0892    0.0634 C   0  0  0  0  0  0  0  0  0  0  0  0
    2.7752   -0.5922   -0.1246 S   0  0  0  0  0  6  0  0  0  0  0  0
    2.3376   -0.1607   -1.4326 O   0  0  0  0  0  0  0  0  0  0  0  0
    2.6622   -1.9752    0.2882 O   0  0  0  0  0  0  0  0  0  0  0  0
    1.9900    0.3401    1.0243 N   0  0  0  0  0  0  0  0  0  0  0  0
    2.3237    0.1531    2.4373 C   0  0  0  0  0  0  0  0  0  0  0  0
    1.2424    0.9709    3.1027 C   0  0  0  0  0  0  0  0  0  0  0  0
    0.0746    0.7339    2.3133 O   0  0  0  0  0  0  0  0  0  0  0  0
    0.5132    0.4390    0.9594 C   0  0  0  0  0  0  0  0  0  0  0  0
   -0.2313   -0.8409    0.5062 C   0  0  0  0  0  0  0  0  0  0  0  0
   -1.6770   -0.7430    0.6333 N   0  0  0  0  0  0  0  0  0  0  0  0
   -2.4207    0.0799   -0.1786 C   0  0  0  0  0  0  0  0  0  0  0  0
   -2.0021    0.6994   -1.1457 O   0  0  0  0  0  0  0  0  0  0  0  0
   -3.9028    0.2008    0.2446 C   0  0  0  0  0  0  0  0  0  0  0  0
   -4.3079   -0.3852    1.2390 O   0  0  0  0  0  0  0  0  0  0  0  0
   -4.6477    0.9967   -0.5917 N   0  0  0  0  0  0  0  0  0  0  0  0
   -6.0762    1.1254   -0.4684 C   0  0  0  0  0  0  0  0  0  0  0  0
   -6.7912    0.1292   -1.3445 C   0  0  0  0  0  0  0  0  0  0  0  0
   -7.1765   -1.1062   -0.7923 C   0  0  0  0  0  0  0  0  0  0  0  0
   -7.8255   -2.0682   -1.5682 C   0  0  0  0  0  0  0  0  0  0  0  0
   -8.0927   -1.8155   -2.9107 C   0  0  0  0  0  0  0  0  0  0  0  0
   -7.7044   -0.6027   -3.4788 C   0  0  0  0  0  0  0  0  0  0  0  0
   -7.0532    0.3625   -2.7035 C   0  0  0  0  0  0  0  0  0  0  0  0
   -6.5793    1.8293   -3.4847 Cl  0  0  0  0  0  0  0  0  0  0  0  0
    4.8339    1.2045   -0.3105 C   0  0  0  0  0  0  0  0  0  0  0  0
    6.1620    1.6063   -0.1614 C   0  0  0  0  0  0  0  0  0  0  0  0
    9.2377    0.0450    1.9099 H   0  0  0  0  0  0  0  0  0  0  0  0
   10.3544    0.9344    0.8671 H   0  0  0  0  0  0  0  0  0  0  0  0
    9.5241   -0.4788    0.2043 H   0  0  0  0  0  0  0  0  0  0  0  0
    7.4597   -1.2848    1.1053 H   0  0  0  0  0  0  0  0  0  0  0  0
    5.1345   -1.9956    0.8457 H   0  0  0  0  0  0  0  0  0  0  0  0
    3.3191    0.5220    2.6930 H   0  0  0  0  0  0  0  0  0  0  0  0
    2.2298   -0.9011    2.7180 H   0  0  0  0  0  0  0  0  0  0  0  0
    1.4666    2.0429    3.0678 H   0  0  0  0  0  0  0  0  0  0  0  0
    1.0624    0.6777    4.1403 H   0  0  0  0  0  0  0  0  0  0  0  0
    0.2381    1.2970    0.3370 H   0  0  0  0  0  0  0  0  0  0  0  0
    0.0638   -1.6939    1.1266 H   0  0  0  0  0  0  0  0  0  0  0  0
   -0.0083   -1.0742   -0.5393 H   0  0  0  0  0  0  0  0  0  0  0  0
   -2.1248   -1.0405    1.4965 H   0  0  0  0  0  0  0  0  0  0  0  0
   -4.1834    1.3388   -1.4292 H   0  0  0  0  0  0  0  0  0  0  0  0
   -6.3692    0.9855    0.5792 H   0  0  0  0  0  0  0  0  0  0  0  0
   -6.3491    2.1534   -0.7268 H   0  0  0  0  0  0  0  0  0  0  0  0
   -6.9617   -1.3270    0.2530 H   0  0  0  0  0  0  0  0  0  0  0  0
   -8.1164   -3.0171   -1.1237 H   0  0  0  0  0  0  0  0  0  0  0  0
   -8.5955   -2.5647   -3.5170 H   0  0  0  0  0  0  0  0  0  0  0  0
   -7.9069   -0.4170   -4.5308 H   0  0  0  0  0  0  0  0  0  0  0  0
    4.0988    1.8958   -0.7170 H   0  0  0  0  0  0  0  0  0  0  0  0
    6.4559    2.6131   -0.4505 H   0  0  0  0  0  0  0  0  0  0  0  0
  1  2  1  0
  2  3  1  0
  3  4  2  0
  4  5  1  0
  5  6  2  0
  6  7  1  0
  7  8  2  0
  7  9  2  0
  7 10  1  0
 10 11  1  0
 11 12  1  0
 12 13  1  0
 13 14  1  0
 14 15  1  0
 15 16  1  0
 16 17  1  0
 17 18  2  0
 17 19  1  0
 19 20  2  0
 19 21  1  0
 21 22  1  0
 22 23  1  0
 23 24  2  0
 24 25  1  0
 25 26  2  0
 26 27  1  0
 27 28  2  0
 28 29  1  0
  6 30  1  0
 30 31  2  0
 31  3  1  0
 14 10  1  0
 28 23  1  0
  1 32  1  0
  1 33  1  0
  1 34  1  0
  4 35  1  0
  5 36  1  0
 11 37  1  0
 11 38  1  0
 12 39  1  0
 12 40  1  0
 14 41  1  0
 15 42  1  0
 15 43  1  0
 16 44  1  0
 21 45  1  0
 22 46  1  0
 22 47  1  0
 24 48  1  0
 25 49  1  0
 26 50  1  0
 27 51  1  0
 30 52  1  0
 31 53  1  0
M  END
$$$$
