
     RDKit          3D

 41 44  0  0  0  0  0  0  0  0999 V2000
    6.0440    1.9196    0.5125 C   0  0  0  0  0  0  0  0  0  0  0  0
    4.8580    1.0103    0.4006 C   0  0  0  0  0  0  0  0  0  0  0  0
    3.5646    1.4998    0.5744 C   0  0  0  0  0  0  0  0  0  0  0  0
    2.4571    0.6408    0.5027 C   0  0  0  0  0  0  0  0  0  0  0  0
    2.6011   -0.7342    0.2638 C   0  0  0  0  0  0  0  0  0  0  0  0
    1.4972   -1.6276    0.1852 N   0  0  0  0  0  0  0  0  0  0  0  0
    1.5502   -3.0548    0.1164 C   0  0  0  0  0  0  0  0  0  0  0  0
    2.5056   -3.8136    0.1224 O   0  0  0  0  0  0  0  0  0  0  0  0
    0.2237   -3.5003    0.0454 N   0  0  0  0  0  0  0  0  0  0  0  0
   -0.6155   -2.3988    0.0615 C   0  0  0  0  0  0  0  0  0  0  0  0
   -1.9722   -2.2725    0.0009 C   0  0  0  0  0  0  0  0  0  0  0  0
   -2.8550   -3.4677   -0.0926 C   0  0  0  0  0  0  0  0  0  0  0  0
   -4.1970   -3.2056   -0.1478 N   0  0  0  0  0  0  0  0  0  0  0  0
   -2.4134   -4.6096   -0.1191 O   0  0  0  0  0  0  0  0  0  0  0  0
   -2.5808   -1.0632    0.0172 N   0  0  0  0  0  0  0  0  0  0  0  0
   -1.7611    0.0066    0.0927 C   0  0  0  0  0  0  0  0  0  0  0  0
   -2.3740    1.3262    0.1054 C   0  0  0  0  0  0  0  0  0  0  0  0
   -1.8694    2.6124    0.1576 C   0  0  0  0  0  0  0  0  0  0  0  0
   -2.9807    3.4897    0.1395 C   0  0  0  0  0  0  0  0  0  0  0  0
   -4.1015    2.6913    0.0832 C   0  0  0  0  0  0  0  0  0  0  0  0
   -5.5488    2.9816    0.0374 C   0  0  0  0  0  0  0  0  0  0  0  0
   -3.7419    1.3776    0.0589 O   0  0  0  0  0  0  0  0  0  0  0  0
   -0.4129   -0.0241    0.1568 N   0  0  0  0  0  0  0  0  0  0  0  0
    0.1306   -1.2457    0.1458 C   0  0  0  0  0  0  0  0  0  0  0  0
    3.9143   -1.2089    0.1112 C   0  0  0  0  0  0  0  0  0  0  0  0
    5.0251   -0.3555    0.1813 C   0  0  0  0  0  0  0  0  0  0  0  0
    6.8755    1.5557   -0.0998 H   0  0  0  0  0  0  0  0  0  0  0  0
    6.3723    1.9796    1.5545 H   0  0  0  0  0  0  0  0  0  0  0  0
    5.7978    2.9269    0.1603 H   0  0  0  0  0  0  0  0  0  0  0  0
    3.4004    2.5569    0.7723 H   0  0  0  0  0  0  0  0  0  0  0  0
    1.4890    1.0984    0.6642 H   0  0  0  0  0  0  0  0  0  0  0  0
   -0.0672   -4.4694   -0.0144 H   0  0  0  0  0  0  0  0  0  0  0  0
   -4.8545   -3.9696   -0.2156 H   0  0  0  0  0  0  0  0  0  0  0  0
   -4.5326   -2.2478   -0.1293 H   0  0  0  0  0  0  0  0  0  0  0  0
   -0.8214    2.8762    0.2021 H   0  0  0  0  0  0  0  0  0  0  0  0
   -2.9672    4.5707    0.1674 H   0  0  0  0  0  0  0  0  0  0  0  0
   -5.8323    3.6488    0.8581 H   0  0  0  0  0  0  0  0  0  0  0  0
   -6.1428    2.0658    0.1242 H   0  0  0  0  0  0  0  0  0  0  0  0
   -5.8082    3.4685   -0.9086 H   0  0  0  0  0  0  0  0  0  0  0  0
    4.1232   -2.2577   -0.0787 H   0  0  0  0  0  0  0  0  0  0  0  0
    6.0211   -0.7768    0.0591 H   0  0  0  0  0  0  0  0  0  0  0  0
  1  2  1  0
  2  3  2  0
  3  4  1  0
  4  5  2  0
  5  6  1  0
  6  7  1  0
  7  8  2  0
  7  9  1  0
  9 10  1  0
 10 11  2  0
 11 12  1  0
 12 13  1  0
 12 14  2  0
 11 15  1  0
 15 16  2  0
 16 17  1  0
 17 18  2  0
 18 19  1  0
 19 20  2  0
 20 21  1  0
 20 22  1  0
 16 23  1  0
 23 24  2  0
  5 25  1  0
 25 26  2  0
 26  2  1  0
 24  6  1  0
 24 10  1  0
 22 17  1  0
  1 27  1  0
  1 28  1  0
  1 29  1  0
  3 30  1  0
  4 31  1  0
  9 32  1  0
 13 33  1  0
 13 34  1  0
 18 35  1  0
 19 36  1  0
 21 37  1  0
 21 38  1  0
 21 39  1  0
 25 40  1  0
 26 41  1  0
M  END
$$$$
