
     RDKit          3D

 64 69  0  0  0  0  0  0  0  0999 V2000
   -9.6543    1.0441   -0.2265 C   0  0  0  0  0  0  0  0  0  0  0  0
   -8.6816    1.8553    0.4228 O   0  0  0  0  0  0  0  0  0  0  0  0
   -7.3779    1.4606    0.3142 C   0  0  0  0  0  0  0  0  0  0  0  0
   -6.4559    2.3160    0.9187 C   0  0  0  0  0  0  0  0  0  0  0  0
   -5.0844    2.0421    0.8722 C   0  0  0  0  0  0  0  0  0  0  0  0
   -4.6126    0.9007    0.2128 C   0  0  0  0  0  0  0  0  0  0  0  0
   -3.2065    0.6235    0.1459 N   0  0  0  0  0  0  0  0  0  0  0  0
   -2.1612    1.5623    0.1179 C   0  0  0  0  0  0  0  0  0  0  0  0
   -2.3550    2.9065    0.0231 N   0  0  0  0  0  0  0  0  0  0  0  0
   -0.9422    0.8926    0.1425 C   0  0  0  0  0  0  0  0  0  0  0  0
    0.3809    1.5214    0.1330 C   0  0  0  0  0  0  0  0  0  0  0  0
    0.5002    2.7391    0.0382 O   0  0  0  0  0  0  0  0  0  0  0  0
    1.4287    0.6280    0.1949 N   0  0  0  0  0  0  0  0  0  0  0  0
    2.7792    0.8576    0.1866 C   0  0  0  0  0  0  0  0  0  0  0  0
    3.5715    1.9285    0.3639 C   0  0  0  0  0  0  0  0  0  0  0  0
    3.1547    3.3146    0.7524 C   0  0  0  0  0  0  0  0  0  0  0  0
    4.9456    1.6101    0.2432 N   0  0  0  0  0  0  0  0  0  0  0  0
    5.8424    1.9500    1.3656 C   0  0  0  0  0  0  0  0  0  0  0  0
    4.9979    0.2276   -0.1077 N   0  0  0  0  0  0  0  0  0  0  0  0
    6.1028   -0.3239   -0.8120 C   0  0  0  0  0  0  0  0  0  0  0  0
    6.1692   -1.7005   -1.0800 C   0  0  0  0  0  0  0  0  0  0  0  0
    7.2480   -2.2519   -1.7808 C   0  0  0  0  0  0  0  0  0  0  0  0
    8.2830   -1.4348   -2.2258 C   0  0  0  0  0  0  0  0  0  0  0  0
    8.2395   -0.0685   -1.9664 C   0  0  0  0  0  0  0  0  0  0  0  0
    7.1569    0.4804   -1.2679 C   0  0  0  0  0  0  0  0  0  0  0  0
    3.7013   -0.2905   -0.1031 C   0  0  0  0  0  0  0  0  0  0  0  0
    3.2850   -1.4147   -0.3555 O   0  0  0  0  0  0  0  0  0  0  0  0
   -1.2502   -0.4845    0.1302 C   0  0  0  0  0  0  0  0  0  0  0  0
   -0.3995   -1.5448    0.1312 N   0  0  0  0  0  0  0  0  0  0  0  0
   -0.9977   -2.7441    0.1342 C   0  0  0  0  0  0  0  0  0  0  0  0
   -0.1977   -3.8802    0.1481 C   0  0  0  0  0  0  0  0  0  0  0  0
   -0.7508   -5.1620    0.1810 C   0  0  0  0  0  0  0  0  0  0  0  0
   -2.1307   -5.3105    0.1923 C   0  0  0  0  0  0  0  0  0  0  0  0
   -2.9455   -4.1754    0.1645 C   0  0  0  0  0  0  0  0  0  0  0  0
   -2.4078   -2.8936    0.1347 C   0  0  0  0  0  0  0  0  0  0  0  0
   -3.2505   -1.8475    0.1182 N   0  0  0  0  0  0  0  0  0  0  0  0
   -2.6281   -0.6436    0.1093 C   0  0  0  0  0  0  0  0  0  0  0  0
   -5.5420    0.0270   -0.3663 C   0  0  0  0  0  0  0  0  0  0  0  0
   -6.9152    0.3104   -0.3221 C   0  0  0  0  0  0  0  0  0  0  0  0
  -10.6326    1.5143   -0.0838 H   0  0  0  0  0  0  0  0  0  0  0  0
   -9.4679    0.9860   -1.3054 H   0  0  0  0  0  0  0  0  0  0  0  0
   -9.6972    0.0468    0.2258 H   0  0  0  0  0  0  0  0  0  0  0  0
   -6.8082    3.2030    1.4417 H   0  0  0  0  0  0  0  0  0  0  0  0
   -4.4137    2.7148    1.4015 H   0  0  0  0  0  0  0  0  0  0  0  0
   -3.1886    3.2827   -0.4288 H   0  0  0  0  0  0  0  0  0  0  0  0
   -1.5289    3.4864   -0.1650 H   0  0  0  0  0  0  0  0  0  0  0  0
    1.1831   -0.3605    0.0921 H   0  0  0  0  0  0  0  0  0  0  0  0
    2.8465    3.8810   -0.1331 H   0  0  0  0  0  0  0  0  0  0  0  0
    3.9634    3.8764    1.2321 H   0  0  0  0  0  0  0  0  0  0  0  0
    2.3441    3.2922    1.4872 H   0  0  0  0  0  0  0  0  0  0  0  0
    5.4475    1.5605    2.3125 H   0  0  0  0  0  0  0  0  0  0  0  0
    6.8465    1.5354    1.2305 H   0  0  0  0  0  0  0  0  0  0  0  0
    5.9590    3.0354    1.4496 H   0  0  0  0  0  0  0  0  0  0  0  0
    5.3882   -2.3766   -0.7438 H   0  0  0  0  0  0  0  0  0  0  0  0
    7.2603   -3.3188   -1.9846 H   0  0  0  0  0  0  0  0  0  0  0  0
    9.1180   -1.8628   -2.7743 H   0  0  0  0  0  0  0  0  0  0  0  0
    9.0400    0.5769   -2.3184 H   0  0  0  0  0  0  0  0  0  0  0  0
    7.1444    1.5552   -1.1164 H   0  0  0  0  0  0  0  0  0  0  0  0
    0.8847   -3.7625    0.1419 H   0  0  0  0  0  0  0  0  0  0  0  0
   -0.1026   -6.0350    0.2010 H   0  0  0  0  0  0  0  0  0  0  0  0
   -2.5772   -6.3035    0.2277 H   0  0  0  0  0  0  0  0  0  0  0  0
   -4.0263   -4.2922    0.1742 H   0  0  0  0  0  0  0  0  0  0  0  0
   -5.2290   -0.8710   -0.8931 H   0  0  0  0  0  0  0  0  0  0  0  0
   -7.5932   -0.3913   -0.7966 H   0  0  0  0  0  0  0  0  0  0  0  0
  1  2  1  0
  2  3  1  0
  3  4  2  0
  4  5  1  0
  5  6  2  0
  6  7  1  0
  7  8  1  0
  8  9  1  0
  8 10  2  0
 10 11  1  0
 11 12  2  0
 11 13  1  0
 13 14  1  0
 14 15  2  0
 15 16  1  0
 15 17  1  0
 17 18  1  0
 17 19  1  0
 19 20  1  0
 20 21  2  0
 21 22  1  0
 22 23  2  0
 23 24  1  0
 24 25  2  0
 19 26  1  0
 26 27  2  0
 10 28  1  0
 28 29  2  0
 29 30  1  0
 30 31  2  0
 31 32  1  0
 32 33  2  0
 33 34  1  0
 34 35  2  0
 35 36  1  0
 36 37  2  0
  6 38  1  0
 38 39  2  0
 39  3  1  0
 37  7  1  0
 26 14  1  0
 37 28  1  0
 25 20  1  0
 35 30  1  0
  1 40  1  0
  1 41  1  0
  1 42  1  0
  4 43  1  0
  5 44  1  0
  9 45  1  0
  9 46  1  0
 13 47  1  0
 16 48  1  0
 16 49  1  0
 16 50  1  0
 18 51  1  0
 18 52  1  0
 18 53  1  0
 21 54  1  0
 22 55  1  0
 23 56  1  0
 24 57  1  0
 25 58  1  0
 31 59  1  0
 32 60  1  0
 33 61  1  0
 34 62  1  0
 38 63  1  0
 39 64  1  0
M  END
$$$$
