
     RDKit          3D

 61 66  0  0  0  0  0  0  0  0999 V2000
    8.3971   -0.8417    0.7645 C   0  0  0  0  0  0  0  0  0  0  0  0
    7.5170    0.1850    1.1008 C   0  0  0  0  0  0  0  0  0  0  0  0
    6.3801    0.4137    0.3242 C   0  0  0  0  0  0  0  0  0  0  0  0
    6.1103   -0.3825   -0.7967 C   0  0  0  0  0  0  0  0  0  0  0  0
    4.8793   -0.1363   -1.6384 C   0  0  0  0  0  0  0  0  0  0  0  0
    3.5723   -0.6556   -1.0040 C   0  0  0  0  0  0  0  0  0  0  0  0
    3.0742    0.1546    0.1247 N   0  0  0  0  0  0  0  0  0  0  0  0
    2.4834    1.4472   -0.2990 C   0  0  0  0  0  0  0  0  0  0  0  0
    1.1121    1.3529   -1.0113 C   0  0  0  0  0  0  0  0  0  0  0  0
    0.1440    0.5942   -0.1896 N   0  0  0  0  0  0  0  0  0  0  0  0
   -1.1664    0.5909   -0.5993 C   0  0  0  0  0  0  0  0  0  0  0  0
   -1.6827    0.6392   -1.8813 C   0  0  0  0  0  0  0  0  0  0  0  0
   -3.0785    0.4471   -1.8002 C   0  0  0  0  0  0  0  0  0  0  0  0
   -3.4010    0.2945   -0.4655 C   0  0  0  0  0  0  0  0  0  0  0  0
   -4.6561    0.0332    0.2066 C   0  0  0  0  0  0  0  0  0  0  0  0
   -5.8731   -0.3357   -0.5637 C   0  0  0  0  0  0  0  0  0  0  0  0
   -5.8296   -1.3102   -1.5678 C   0  0  0  0  0  0  0  0  0  0  0  0
   -6.9944   -1.6493   -2.2593 C   0  0  0  0  0  0  0  0  0  0  0  0
   -8.2025   -1.0272   -1.9410 C   0  0  0  0  0  0  0  0  0  0  0  0
   -8.2522   -0.0708   -0.9264 C   0  0  0  0  0  0  0  0  0  0  0  0
   -7.0902    0.2714   -0.2328 C   0  0  0  0  0  0  0  0  0  0  0  0
   -4.7471    0.1172    1.5012 N   0  0  0  0  0  0  0  0  0  0  0  0
   -3.6050    0.4583    2.2519 C   0  0  0  0  0  0  0  0  0  0  0  0
   -3.7558    0.5957    3.6350 C   0  0  0  0  0  0  0  0  0  0  0  0
   -2.6744    0.9574    4.4397 C   0  0  0  0  0  0  0  0  0  0  0  0
   -1.4295    1.1962    3.8625 C   0  0  0  0  0  0  0  0  0  0  0  0
   -1.2587    1.0615    2.4834 C   0  0  0  0  0  0  0  0  0  0  0  0
   -2.3375    0.6724    1.6834 C   0  0  0  0  0  0  0  0  0  0  0  0
   -2.2527    0.5244    0.2761 N   0  0  0  0  0  0  0  0  0  0  0  0
    0.6760   -0.7327    0.2199 C   0  0  0  0  0  0  0  0  0  0  0  0
    2.0536   -0.5845    0.9067 C   0  0  0  0  0  0  0  0  0  0  0  0
    7.0012   -1.4148   -1.1234 C   0  0  0  0  0  0  0  0  0  0  0  0
    8.1391   -1.6418   -0.3467 C   0  0  0  0  0  0  0  0  0  0  0  0
    9.2816   -1.0191    1.3699 H   0  0  0  0  0  0  0  0  0  0  0  0
    7.7121    0.8071    1.9700 H   0  0  0  0  0  0  0  0  0  0  0  0
    5.6966    1.2126    0.6039 H   0  0  0  0  0  0  0  0  0  0  0  0
    5.0085   -0.6434   -2.6040 H   0  0  0  0  0  0  0  0  0  0  0  0
    4.8177    0.9293   -1.8861 H   0  0  0  0  0  0  0  0  0  0  0  0
    2.8119   -0.7347   -1.7894 H   0  0  0  0  0  0  0  0  0  0  0  0
    3.7617   -1.6811   -0.6584 H   0  0  0  0  0  0  0  0  0  0  0  0
    3.1820    2.0078   -0.9296 H   0  0  0  0  0  0  0  0  0  0  0  0
    2.3577    2.0603    0.6045 H   0  0  0  0  0  0  0  0  0  0  0  0
    0.7390    2.3716   -1.1720 H   0  0  0  0  0  0  0  0  0  0  0  0
    1.2316    0.8837   -1.9946 H   0  0  0  0  0  0  0  0  0  0  0  0
   -1.1064    0.7387   -2.7907 H   0  0  0  0  0  0  0  0  0  0  0  0
   -3.7652    0.4035   -2.6356 H   0  0  0  0  0  0  0  0  0  0  0  0
   -4.9015   -1.8239   -1.8035 H   0  0  0  0  0  0  0  0  0  0  0  0
   -6.9629   -2.4069   -3.0389 H   0  0  0  0  0  0  0  0  0  0  0  0
   -9.1098   -1.2963   -2.4769 H   0  0  0  0  0  0  0  0  0  0  0  0
   -9.1964    0.4033   -0.6700 H   0  0  0  0  0  0  0  0  0  0  0  0
   -7.1334    1.0096    0.5651 H   0  0  0  0  0  0  0  0  0  0  0  0
   -4.7310    0.4243    4.0829 H   0  0  0  0  0  0  0  0  0  0  0  0
   -2.8089    1.0649    5.5124 H   0  0  0  0  0  0  0  0  0  0  0  0
   -0.5905    1.4990    4.4845 H   0  0  0  0  0  0  0  0  0  0  0  0
   -0.2870    1.2921    2.0628 H   0  0  0  0  0  0  0  0  0  0  0  0
    0.7606   -1.3844   -0.6592 H   0  0  0  0  0  0  0  0  0  0  0  0
   -0.0089   -1.2222    0.9228 H   0  0  0  0  0  0  0  0  0  0  0  0
    2.4345   -1.5749    1.1844 H   0  0  0  0  0  0  0  0  0  0  0  0
    1.9138   -0.0503    1.8559 H   0  0  0  0  0  0  0  0  0  0  0  0
    6.8163   -2.0503   -1.9862 H   0  0  0  0  0  0  0  0  0  0  0  0
    8.8240   -2.4439   -0.6090 H   0  0  0  0  0  0  0  0  0  0  0  0
  1  2  2  0
  2  3  1  0
  3  4  2  0
  4  5  1  0
  5  6  1  0
  6  7  1  0
  7  8  1  0
  8  9  1  0
  9 10  1  0
 10 11  1  0
 11 12  2  0
 12 13  1  0
 13 14  2  0
 14 15  1  0
 15 16  1  0
 16 17  2  0
 17 18  1  0
 18 19  2  0
 19 20  1  0
 20 21  2  0
 15 22  2  0
 22 23  1  0
 23 24  2  0
 24 25  1  0
 25 26  2  0
 26 27  1  0
 27 28  2  0
 28 29  1  0
 10 30  1  0
 30 31  1  0
  4 32  1  0
 32 33  2  0
 33  1  1  0
 31  7  1  0
 29 11  1  0
 29 14  1  0
 21 16  1  0
 28 23  1  0
  1 34  1  0
  2 35  1  0
  3 36  1  0
  5 37  1  0
  5 38  1  0
  6 39  1  0
  6 40  1  0
  8 41  1  0
  8 42  1  0
  9 43  1  0
  9 44  1  0
 12 45  1  0
 13 46  1  0
 17 47  1  0
 18 48  1  0
 19 49  1  0
 20 50  1  0
 21 51  1  0
 24 52  1  0
 25 53  1  0
 26 54  1  0
 27 55  1  0
 30 56  1  0
 30 57  1  0
 31 58  1  0
 31 59  1  0
 32 60  1  0
 33 61  1  0
M  END
$$$$
