
     RDKit          3D

 59 62  0  0  0  0  0  0  0  0999 V2000
    5.4238    4.3707   -0.6213 C   0  0  0  0  0  0  0  0  0  0  0  0
    4.9127    3.0953    0.0260 C   0  0  0  0  0  0  0  0  0  0  0  0
    3.6293    3.3727    0.5868 O   0  0  0  0  0  0  0  0  0  0  0  0
    2.9986    2.3463    1.2336 C   0  0  0  0  0  0  0  0  0  0  0  0
    1.7543    2.6776    1.7768 C   0  0  0  0  0  0  0  0  0  0  0  0
    0.9888    1.7283    2.4643 C   0  0  0  0  0  0  0  0  0  0  0  0
    1.4623    0.4269    2.6046 C   0  0  0  0  0  0  0  0  0  0  0  0
    0.8149   -0.5913    3.2564 O   0  0  0  0  0  0  0  0  0  0  0  0
   -0.5968   -0.4736    3.4589 C   0  0  0  0  0  0  0  0  0  0  0  0
   -0.8868    0.0420    4.8576 C   0  0  0  0  0  0  0  0  0  0  0  0
    2.7204    0.0990    2.0660 C   0  0  0  0  0  0  0  0  0  0  0  0
    3.1795   -1.2567    2.1680 N   0  0  0  0  0  0  0  0  0  0  0  0
    3.1996   -2.1847    0.7499 S   0  0  0  0  0  6  0  0  0  0  0  0
    4.1357   -1.5960   -0.1866 O   0  0  0  0  0  0  0  0  0  0  0  0
    3.3250   -3.5678    1.1617 O   0  0  0  0  0  0  0  0  0  0  0  0
    1.5585   -1.9697    0.0918 C   0  0  0  0  0  0  0  0  0  0  0  0
    0.5035   -2.7364    0.6121 C   0  0  0  0  0  0  0  0  0  0  0  0
   -0.7984   -2.5602    0.1276 C   0  0  0  0  0  0  0  0  0  0  0  0
   -1.0212   -1.6238   -0.8722 C   0  0  0  0  0  0  0  0  0  0  0  0
    0.0452   -0.8951   -1.4067 C   0  0  0  0  0  0  0  0  0  0  0  0
    1.3434   -1.0561   -0.9443 C   0  0  0  0  0  0  0  0  0  0  0  0
   -0.4032   -0.0186   -2.5277 C   0  0  0  0  0  0  0  0  0  0  0  0
   -1.9265   -0.1503   -2.4310 C   0  0  0  0  0  0  0  0  0  0  0  0
   -2.2311   -1.2591   -1.5105 N   0  0  0  0  0  0  0  0  0  0  0  0
   -3.4923   -1.7506   -1.1722 C   0  0  0  0  0  0  0  0  0  0  0  0
   -3.6574   -2.4794   -0.1798 O   0  0  0  0  0  0  0  0  0  0  0  0
   -4.7252   -1.4244   -2.0339 C   0  0  0  0  0  0  0  0  0  0  0  0
   -4.7684   -1.8205   -3.5308 C   0  0  0  0  0  0  0  0  0  0  0  0
   -5.7270   -0.6295   -3.7489 C   0  0  0  0  0  0  0  0  0  0  0  0
   -5.1480   -0.0019   -2.4633 C   0  0  0  0  0  0  0  0  0  0  0  0
    3.4842    1.0495    1.3837 C   0  0  0  0  0  0  0  0  0  0  0  0
    6.4125    4.2170   -1.0614 H   0  0  0  0  0  0  0  0  0  0  0  0
    5.4882    5.1777    0.1167 H   0  0  0  0  0  0  0  0  0  0  0  0
    4.7349    4.7084   -1.4025 H   0  0  0  0  0  0  0  0  0  0  0  0
    4.8317    2.3118   -0.7368 H   0  0  0  0  0  0  0  0  0  0  0  0
    5.6118    2.7893    0.8112 H   0  0  0  0  0  0  0  0  0  0  0  0
    1.3783    3.6934    1.6703 H   0  0  0  0  0  0  0  0  0  0  0  0
    0.0397    2.0454    2.8831 H   0  0  0  0  0  0  0  0  0  0  0  0
   -1.0083   -1.4855    3.3722 H   0  0  0  0  0  0  0  0  0  0  0  0
   -1.0893    0.1214    2.6810 H   0  0  0  0  0  0  0  0  0  0  0  0
   -1.9640    0.0533    5.0505 H   0  0  0  0  0  0  0  0  0  0  0  0
   -0.4976    1.0543    4.9989 H   0  0  0  0  0  0  0  0  0  0  0  0
   -0.4000   -0.5893    5.6076 H   0  0  0  0  0  0  0  0  0  0  0  0
    2.7220   -1.7782    2.9188 H   0  0  0  0  0  0  0  0  0  0  0  0
    0.6851   -3.4652    1.3997 H   0  0  0  0  0  0  0  0  0  0  0  0
   -1.6004   -3.1606    0.5445 H   0  0  0  0  0  0  0  0  0  0  0  0
    2.1621   -0.4846   -1.3727 H   0  0  0  0  0  0  0  0  0  0  0  0
   -0.0379   -0.4084   -3.4827 H   0  0  0  0  0  0  0  0  0  0  0  0
   -0.0812    1.0189   -2.4048 H   0  0  0  0  0  0  0  0  0  0  0  0
   -2.3730   -0.3093   -3.4140 H   0  0  0  0  0  0  0  0  0  0  0  0
   -2.3472    0.7625   -1.9932 H   0  0  0  0  0  0  0  0  0  0  0  0
   -5.5942   -1.8928   -1.5313 H   0  0  0  0  0  0  0  0  0  0  0  0
   -3.8216   -1.7386   -4.0735 H   0  0  0  0  0  0  0  0  0  0  0  0
   -5.1982   -2.8056   -3.7382 H   0  0  0  0  0  0  0  0  0  0  0  0
   -6.7879   -0.8952   -3.6693 H   0  0  0  0  0  0  0  0  0  0  0  0
   -5.5690   -0.0547   -4.6660 H   0  0  0  0  0  0  0  0  0  0  0  0
   -4.3593    0.7181   -2.6756 H   0  0  0  0  0  0  0  0  0  0  0  0
   -5.8819    0.4817   -1.8133 H   0  0  0  0  0  0  0  0  0  0  0  0
    4.4470    0.7521    0.9838 H   0  0  0  0  0  0  0  0  0  0  0  0
  1  2  1  0
  2  3  1  0
  3  4  1  0
  4  5  2  0
  5  6  1  0
  6  7  2  0
  7  8  1  0
  8  9  1  0
  9 10  1  0
  7 11  1  0
 11 12  1  0
 12 13  1  0
 13 14  2  0
 13 15  2  0
 13 16  1  0
 16 17  2  0
 17 18  1  0
 18 19  2  0
 19 20  1  0
 20 21  2  0
 20 22  1  0
 22 23  1  0
 23 24  1  0
 24 25  1  0
 25 26  2  0
 25 27  1  0
 27 28  1  0
 28 29  1  0
 29 30  1  0
 11 31  2  0
 31  4  1  0
 21 16  1  0
 30 27  1  0
 24 19  1  0
  1 32  1  0
  1 33  1  0
  1 34  1  0
  2 35  1  0
  2 36  1  0
  5 37  1  0
  6 38  1  0
  9 39  1  0
  9 40  1  0
 10 41  1  0
 10 42  1  0
 10 43  1  0
 12 44  1  0
 17 45  1  0
 18 46  1  0
 21 47  1  0
 22 48  1  0
 22 49  1  0
 23 50  1  0
 23 51  1  0
 27 52  1  0
 28 53  1  0
 28 54  1  0
 29 55  1  0
 29 56  1  0
 30 57  1  0
 30 58  1  0
 31 59  1  0
M  END
$$$$
