
     RDKit          3D

 43 45  0  0  0  0  0  0  0  0999 V2000
   -5.7477    0.9098    2.1590 C   0  0  0  0  0  0  0  0  0  0  0  0
   -6.3713    0.9766    0.8442 N   0  0  0  0  0  0  0  0  0  0  0  0
   -7.7659    1.3822    0.8198 C   0  0  0  0  0  0  0  0  0  0  0  0
   -5.8174    0.4549   -0.3235 C   0  0  0  0  0  0  0  0  0  0  0  0
   -6.4748    0.2033   -1.3316 O   0  0  0  0  0  0  0  0  0  0  0  0
   -4.3593    0.1967   -0.3811 C   0  0  0  0  0  0  0  0  0  0  0  0
   -3.9094   -1.0275   -0.8779 C   0  0  0  0  0  0  0  0  0  0  0  0
   -2.5371   -1.2787   -0.9705 C   0  0  0  0  0  0  0  0  0  0  0  0
   -1.6016   -0.3087   -0.5803 C   0  0  0  0  0  0  0  0  0  0  0  0
   -0.2381   -0.6495   -0.7076 N   0  0  0  0  0  0  0  0  0  0  0  0
    0.8684    0.1067   -0.3403 C   0  0  0  0  0  0  0  0  0  0  0  0
    0.8014    1.2068    0.2004 O   0  0  0  0  0  0  0  0  0  0  0  0
    2.1466   -0.5284   -0.6404 C   0  0  0  0  0  0  0  0  0  0  0  0
    2.5127   -1.6940   -1.2916 C   0  0  0  0  0  0  0  0  0  0  0  0
    3.9298   -1.7581   -1.2591 C   0  0  0  0  0  0  0  0  0  0  0  0
    4.3649   -0.6308   -0.5934 C   0  0  0  0  0  0  0  0  0  0  0  0
    5.6741   -0.0956   -0.2251 C   0  0  0  0  0  0  0  0  0  0  0  0
    5.7939    1.1248    0.4604 C   0  0  0  0  0  0  0  0  0  0  0  0
    7.0484    1.6348    0.8118 C   0  0  0  0  0  0  0  0  0  0  0  0
    8.1992    0.9270    0.4800 C   0  0  0  0  0  0  0  0  0  0  0  0
    9.7436    1.5499    0.9101 Cl  0  0  0  0  0  0  0  0  0  0  0  0
    8.1056   -0.2845   -0.1994 C   0  0  0  0  0  0  0  0  0  0  0  0
    6.8491   -0.7921   -0.5496 C   0  0  0  0  0  0  0  0  0  0  0  0
    3.2831    0.1124   -0.2208 O   0  0  0  0  0  0  0  0  0  0  0  0
   -2.0638    0.9241   -0.1113 C   0  0  0  0  0  0  0  0  0  0  0  0
   -3.4369    1.1819   -0.0203 C   0  0  0  0  0  0  0  0  0  0  0  0
   -4.8113    0.3500    2.1527 H   0  0  0  0  0  0  0  0  0  0  0  0
   -6.4324    0.4060    2.8487 H   0  0  0  0  0  0  0  0  0  0  0  0
   -5.5676    1.9296    2.5104 H   0  0  0  0  0  0  0  0  0  0  0  0
   -8.1083    1.5831   -0.1991 H   0  0  0  0  0  0  0  0  0  0  0  0
   -7.8845    2.2915    1.4163 H   0  0  0  0  0  0  0  0  0  0  0  0
   -8.3727    0.5788    1.2479 H   0  0  0  0  0  0  0  0  0  0  0  0
   -4.6259   -1.7814   -1.1969 H   0  0  0  0  0  0  0  0  0  0  0  0
   -2.2160   -2.2429   -1.3566 H   0  0  0  0  0  0  0  0  0  0  0  0
   -0.0548   -1.5646   -1.0910 H   0  0  0  0  0  0  0  0  0  0  0  0
    1.8550   -2.4194   -1.7477 H   0  0  0  0  0  0  0  0  0  0  0  0
    4.5540   -2.5353   -1.6771 H   0  0  0  0  0  0  0  0  0  0  0  0
    4.9054    1.6948    0.7289 H   0  0  0  0  0  0  0  0  0  0  0  0
    7.1141    2.5813    1.3416 H   0  0  0  0  0  0  0  0  0  0  0  0
    9.0029   -0.8395   -0.4601 H   0  0  0  0  0  0  0  0  0  0  0  0
    6.8051   -1.7402   -1.0797 H   0  0  0  0  0  0  0  0  0  0  0  0
   -1.3842    1.7193    0.1796 H   0  0  0  0  0  0  0  0  0  0  0  0
   -3.7764    2.1571    0.3200 H   0  0  0  0  0  0  0  0  0  0  0  0
  1  2  1  0
  2  3  1  0
  2  4  1  0
  4  5  2  0
  4  6  1  0
  6  7  2  0
  7  8  1  0
  8  9  2  0
  9 10  1  0
 10 11  1  0
 11 12  2  0
 11 13  1  0
 13 14  2  0
 14 15  1  0
 15 16  2  0
 16 17  1  0
 17 18  2  0
 18 19  1  0
 19 20  2  0
 20 21  1  0
 20 22  1  0
 22 23  2  0
 16 24  1  0
  9 25  1  0
 25 26  2  0
 26  6  1  0
 24 13  1  0
 23 17  1  0
  1 27  1  0
  1 28  1  0
  1 29  1  0
  3 30  1  0
  3 31  1  0
  3 32  1  0
  7 33  1  0
  8 34  1  0
 10 35  1  0
 14 36  1  0
 15 37  1  0
 18 38  1  0
 19 39  1  0
 22 40  1  0
 23 41  1  0
 25 42  1  0
 26 43  1  0
M  END
$$$$
