
     RDKit          3D

 63 67  0  0  0  0  0  0  0  0999 V2000
   -5.1925   -1.7164   -0.2503 C   0  0  0  0  0  0  0  0  0  0  0  0
   -4.0728   -1.7098    0.6450 O   0  0  0  0  0  0  0  0  0  0  0  0
   -4.4058   -2.0009    1.9309 C   0  0  0  0  0  0  0  0  0  0  0  0
   -5.5321   -2.2669    2.3221 O   0  0  0  0  0  0  0  0  0  0  0  0
   -3.2126   -2.0072    2.8226 C   0  0  0  0  0  0  0  0  0  0  0  0
   -3.3552   -2.7419    4.0163 C   0  0  0  0  0  0  0  0  0  0  0  0
   -2.3055   -2.8399    4.9285 C   0  0  0  0  0  0  0  0  0  0  0  0
   -1.0974   -2.2083    4.6567 C   0  0  0  0  0  0  0  0  0  0  0  0
   -0.9476   -1.4623    3.4853 C   0  0  0  0  0  0  0  0  0  0  0  0
   -2.0028   -1.3263    2.5667 C   0  0  0  0  0  0  0  0  0  0  0  0
   -1.8131   -0.5802    1.3736 N   0  0  0  0  0  0  0  0  0  0  0  0
   -1.0012    0.5264    1.1521 C   0  0  0  0  0  0  0  0  0  0  0  0
   -0.7231    1.6821    2.3489 S   0  0  0  0  0  0  0  0  0  0  0  0
   -0.5184    0.6122   -0.1718 N   0  0  0  0  0  0  0  0  0  0  0  0
   -0.7765   -0.4379   -1.1754 C   0  0  0  0  0  0  0  0  0  0  0  0
   -1.7562   -0.0029   -2.2461 C   0  0  0  0  0  0  0  0  0  0  0  0
   -1.4802   -0.3028   -3.6022 C   0  0  0  0  0  0  0  0  0  0  0  0
   -2.3681    0.0583   -4.6220 C   0  0  0  0  0  0  0  0  0  0  0  0
   -3.5287    0.7050   -4.2599 C   0  0  0  0  0  0  0  0  0  0  0  0
   -3.8108    1.0003   -2.9475 C   0  0  0  0  0  0  0  0  0  0  0  0
   -2.9504    0.6655   -1.9223 C   0  0  0  0  0  0  0  0  0  0  0  0
   -5.0070    1.6294   -2.8008 O   0  0  0  0  0  0  0  0  0  0  0  0
   -5.4432    1.7027   -4.1747 C   0  0  0  0  0  0  0  0  0  0  0  0
   -4.5118    1.1141   -5.1056 O   0  0  0  0  0  0  0  0  0  0  0  0
    0.3207    1.7374   -0.6571 C   0  0  0  0  0  0  0  0  0  0  0  0
    1.7899    1.4116   -0.5700 C   0  0  0  0  0  0  0  0  0  0  0  0
    2.5446    1.6694    0.5149 C   0  0  0  0  0  0  0  0  0  0  0  0
    3.9687    1.3469    0.5499 C   0  0  0  0  0  0  0  0  0  0  0  0
    4.7420    1.5668    1.6908 C   0  0  0  0  0  0  0  0  0  0  0  0
    6.1019    1.2355    1.6929 C   0  0  0  0  0  0  0  0  0  0  0  0
    6.6957    0.6859    0.5529 C   0  0  0  0  0  0  0  0  0  0  0  0
    8.0089    0.3195    0.4284 O   0  0  0  0  0  0  0  0  0  0  0  0
    8.8403    0.5100    1.5696 C   0  0  0  0  0  0  0  0  0  0  0  0
    5.9201    0.4674   -0.5906 C   0  0  0  0  0  0  0  0  0  0  0  0
    4.5654    0.7961   -0.5863 C   0  0  0  0  0  0  0  0  0  0  0  0
    3.7853    0.5792   -1.7266 N   0  0  0  0  0  0  0  0  0  0  0  0
    2.4479    0.8644   -1.7999 C   0  0  0  0  0  0  0  0  0  0  0  0
    1.8245    0.6618   -2.8393 O   0  0  0  0  0  0  0  0  0  0  0  0
   -5.8465   -0.8640   -0.0283 H   0  0  0  0  0  0  0  0  0  0  0  0
   -5.7456   -2.6593   -0.1835 H   0  0  0  0  0  0  0  0  0  0  0  0
   -4.8163   -1.6173   -1.2735 H   0  0  0  0  0  0  0  0  0  0  0  0
   -4.2912   -3.2546    4.2358 H   0  0  0  0  0  0  0  0  0  0  0  0
   -2.4275   -3.4180    5.8412 H   0  0  0  0  0  0  0  0  0  0  0  0
   -0.2671   -2.2939    5.3537 H   0  0  0  0  0  0  0  0  0  0  0  0
    0.0240   -1.0136    3.2878 H   0  0  0  0  0  0  0  0  0  0  0  0
   -2.5562   -0.6940    0.6856 H   0  0  0  0  0  0  0  0  0  0  0  0
   -1.1483   -1.3601   -0.7235 H   0  0  0  0  0  0  0  0  0  0  0  0
    0.1814   -0.7146   -1.6189 H   0  0  0  0  0  0  0  0  0  0  0  0
   -0.5527   -0.8082   -3.8699 H   0  0  0  0  0  0  0  0  0  0  0  0
   -2.1501   -0.1645   -5.6607 H   0  0  0  0  0  0  0  0  0  0  0  0
   -3.2049    0.9262   -0.9004 H   0  0  0  0  0  0  0  0  0  0  0  0
   -6.4010    1.1789   -4.2620 H   0  0  0  0  0  0  0  0  0  0  0  0
   -5.5908    2.7556   -4.4408 H   0  0  0  0  0  0  0  0  0  0  0  0
    0.0258    1.9915   -1.6816 H   0  0  0  0  0  0  0  0  0  0  0  0
    0.1067    2.6424   -0.0800 H   0  0  0  0  0  0  0  0  0  0  0  0
    2.1154    2.1199    1.4046 H   0  0  0  0  0  0  0  0  0  0  0  0
    4.2972    1.9943    2.5876 H   0  0  0  0  0  0  0  0  0  0  0  0
    6.6668    1.4216    2.6016 H   0  0  0  0  0  0  0  0  0  0  0  0
    9.8535    0.1884    1.3046 H   0  0  0  0  0  0  0  0  0  0  0  0
    8.5038   -0.1086    2.4098 H   0  0  0  0  0  0  0  0  0  0  0  0
    8.8891    1.5697    1.8507 H   0  0  0  0  0  0  0  0  0  0  0  0
    6.3870    0.0407   -1.4747 H   0  0  0  0  0  0  0  0  0  0  0  0
    4.2041    0.1975   -2.5647 H   0  0  0  0  0  0  0  0  0  0  0  0
  1  2  1  0
  2  3  1  0
  3  4  2  0
  3  5  1  0
  5  6  2  0
  6  7  1  0
  7  8  2  0
  8  9  1  0
  9 10  2  0
 10 11  1  0
 11 12  1  0
 12 13  2  0
 12 14  1  0
 14 15  1  0
 15 16  1  0
 16 17  2  0
 17 18  1  0
 18 19  2  0
 19 20  1  0
 20 21  2  0
 20 22  1  0
 22 23  1  0
 23 24  1  0
 14 25  1  0
 25 26  1  0
 26 27  2  0
 27 28  1  0
 28 29  2  0
 29 30  1  0
 30 31  2  0
 31 32  1  0
 32 33  1  0
 31 34  1  0
 34 35  2  0
 35 36  1  0
 36 37  1  0
 37 38  2  0
 10  5  1  0
 21 16  1  0
 37 26  1  0
 24 19  1  0
 35 28  1  0
  1 39  1  0
  1 40  1  0
  1 41  1  0
  6 42  1  0
  7 43  1  0
  8 44  1  0
  9 45  1  0
 11 46  1  0
 15 47  1  0
 15 48  1  0
 17 49  1  0
 18 50  1  0
 21 51  1  0
 23 52  1  0
 23 53  1  0
 25 54  1  0
 25 55  1  0
 27 56  1  0
 29 57  1  0
 30 58  1  0
 33 59  1  0
 33 60  1  0
 33 61  1  0
 34 62  1  0
 36 63  1  0
M  END
$$$$
