
     RDKit          3D

 29 30  0  0  0  0  0  0  0  0999 V2000
    4.2432    1.0755   -0.0271 C   0  0  0  0  0  0  0  0  0  0  0  0
    2.9415    0.4195    0.3971 C   0  0  0  0  0  0  0  0  0  0  0  0
    2.6939   -0.7407   -0.4552 N   0  0  0  0  0  0  0  0  0  0  0  0
    1.7000   -1.9783    0.0904 S   0  0  0  0  0  6  0  0  0  0  0  0
    2.2204   -2.4416    1.3577 O   0  0  0  0  0  0  0  0  0  0  0  0
    1.5055   -2.8719   -1.0292 O   0  0  0  0  0  0  0  0  0  0  0  0
    0.1673   -1.1355    0.3913 C   0  0  0  0  0  0  0  0  0  0  0  0
   -0.2272   -0.8538    1.7127 C   0  0  0  0  0  0  0  0  0  0  0  0
   -1.4286   -0.1855    1.9539 C   0  0  0  0  0  0  0  0  0  0  0  0
   -2.2121    0.1609    0.8649 C   0  0  0  0  0  0  0  0  0  0  0  0
   -1.8303   -0.1449   -0.4407 C   0  0  0  0  0  0  0  0  0  0  0  0
   -0.6333   -0.7820   -0.7009 C   0  0  0  0  0  0  0  0  0  0  0  0
   -2.7382    0.3217   -1.4246 N   0  0  0  0  0  0  0  0  0  0  0  0
   -3.9121    0.7384   -0.6256 C   0  0  0  0  0  0  0  0  0  0  0  0
   -3.4855    0.9294    0.8397 C   0  0  0  0  0  0  0  0  0  0  0  0
    4.1983    1.4000   -1.0722 H   0  0  0  0  0  0  0  0  0  0  0  0
    4.4493    1.9521    0.5947 H   0  0  0  0  0  0  0  0  0  0  0  0
    5.0833    0.3798    0.0710 H   0  0  0  0  0  0  0  0  0  0  0  0
    3.0136    0.1257    1.4486 H   0  0  0  0  0  0  0  0  0  0  0  0
    2.1213    1.1356    0.2865 H   0  0  0  0  0  0  0  0  0  0  0  0
    2.6775   -0.6196   -1.4661 H   0  0  0  0  0  0  0  0  0  0  0  0
    0.4008   -1.1482    2.5515 H   0  0  0  0  0  0  0  0  0  0  0  0
   -1.7352    0.0555    2.9670 H   0  0  0  0  0  0  0  0  0  0  0  0
   -0.3420   -1.0183   -1.7190 H   0  0  0  0  0  0  0  0  0  0  0  0
   -2.3134    1.1073   -1.9155 H   0  0  0  0  0  0  0  0  0  0  0  0
   -4.3584    1.6511   -1.0350 H   0  0  0  0  0  0  0  0  0  0  0  0
   -4.6699   -0.0527   -0.6927 H   0  0  0  0  0  0  0  0  0  0  0  0
   -3.2946    1.9854    1.0568 H   0  0  0  0  0  0  0  0  0  0  0  0
   -4.2352    0.5350    1.5312 H   0  0  0  0  0  0  0  0  0  0  0  0
  1  2  1  0
  2  3  1  0
  3  4  1  0
  4  5  2  0
  4  6  2  0
  4  7  1  0
  7  8  2  0
  8  9  1  0
  9 10  2  0
 10 11  1  0
 11 12  2  0
 11 13  1  0
 13 14  1  0
 14 15  1  0
 12  7  1  0
 15 10  1  0
  1 16  1  0
  1 17  1  0
  1 18  1  0
  2 19  1  0
  2 20  1  0
  3 21  1  0
  8 22  1  0
  9 23  1  0
 12 24  1  0
 13 25  1  0
 14 26  1  0
 14 27  1  0
 15 28  1  0
 15 29  1  0
M  END
$$$$
