
     RDKit          3D

 34 35  0  0  0  0  0  0  0  0999 V2000
    2.5519    3.1592    2.2979 C   0  0  0  0  0  0  0  0  0  0  0  0
    2.1696    1.9716    1.4416 C   0  0  0  0  0  0  0  0  0  0  0  0
    0.9561    1.9479    0.9710 N   0  0  0  0  0  0  0  0  0  0  0  0
    0.5184    0.8505    0.2874 N   0  0  0  0  0  0  0  0  0  0  0  0
   -0.7691    0.8366   -0.2460 C   0  0  0  0  0  0  0  0  0  0  0  0
   -1.5317    1.7956   -0.2416 O   0  0  0  0  0  0  0  0  0  0  0  0
   -1.0760   -0.4984   -0.8915 C   0  0  0  0  0  0  0  0  0  0  0  0
   -2.5264   -0.7155   -1.3164 C   0  0  0  0  0  0  0  0  0  0  0  0
   -3.0602    0.3080   -2.3164 C   0  0  0  0  0  0  0  0  0  0  0  0
   -3.3738   -0.7764   -0.1576 O   0  0  0  0  0  0  0  0  0  0  0  0
   -4.2252   -1.8973   -0.3784 C   0  0  0  0  0  0  0  0  0  0  0  0
   -3.3338   -2.8504   -1.1221 C   0  0  0  0  0  0  0  0  0  0  0  0
   -2.5763   -2.0033   -1.9872 O   0  0  0  0  0  0  0  0  0  0  0  0
    3.1816    0.9559    1.2042 C   0  0  0  0  0  0  0  0  0  0  0  0
    3.6036    0.4310   -0.0034 C   0  0  0  0  0  0  0  0  0  0  0  0
    4.6153   -0.5591    0.1595 C   0  0  0  0  0  0  0  0  0  0  0  0
    4.9362   -0.7526    1.4843 C   0  0  0  0  0  0  0  0  0  0  0  0
    4.0252    0.2585    2.5197 S   0  0  0  0  0  0  0  0  0  0  0  0
    2.4481    2.8952    3.3543 H   0  0  0  0  0  0  0  0  0  0  0  0
    1.8930    4.0063    2.0842 H   0  0  0  0  0  0  0  0  0  0  0  0
    3.5843    3.4605    2.0985 H   0  0  0  0  0  0  0  0  0  0  0  0
    1.0565   -0.0077    0.3387 H   0  0  0  0  0  0  0  0  0  0  0  0
   -0.4144   -0.6114   -1.7601 H   0  0  0  0  0  0  0  0  0  0  0  0
   -0.7973   -1.2857   -0.1779 H   0  0  0  0  0  0  0  0  0  0  0  0
   -2.3718    0.4335   -3.1588 H   0  0  0  0  0  0  0  0  0  0  0  0
   -4.0148   -0.0301   -2.7372 H   0  0  0  0  0  0  0  0  0  0  0  0
   -3.2547    1.2805   -1.8577 H   0  0  0  0  0  0  0  0  0  0  0  0
   -4.5929   -2.2978    0.5694 H   0  0  0  0  0  0  0  0  0  0  0  0
   -5.0750   -1.5735   -0.9887 H   0  0  0  0  0  0  0  0  0  0  0  0
   -3.8822   -3.6000   -1.6978 H   0  0  0  0  0  0  0  0  0  0  0  0
   -2.6332   -3.3539   -0.4474 H   0  0  0  0  0  0  0  0  0  0  0  0
    3.2115    0.7534   -0.9619 H   0  0  0  0  0  0  0  0  0  0  0  0
    5.0897   -1.0962   -0.6534 H   0  0  0  0  0  0  0  0  0  0  0  0
    5.6678   -1.4348    1.8964 H   0  0  0  0  0  0  0  0  0  0  0  0
  1  2  1  0
  2  3  2  3
  3  4  1  0
  4  5  1  0
  5  6  2  0
  5  7  1  0
  7  8  1  0
  8  9  1  0
  8 10  1  0
 10 11  1  0
 11 12  1  0
 12 13  1  0
  2 14  1  0
 14 15  2  0
 15 16  1  0
 16 17  2  0
 17 18  1  0
 13  8  1  0
 18 14  1  0
  1 19  1  0
  1 20  1  0
  1 21  1  0
  4 22  1  0
  7 23  1  0
  7 24  1  0
  9 25  1  0
  9 26  1  0
  9 27  1  0
 11 28  1  0
 11 29  1  0
 12 30  1  0
 12 31  1  0
 15 32  1  0
 16 33  1  0
 17 34  1  0
M  END
$$$$
