
     RDKit          3D

 43 45  0  0  0  0  0  0  0  0999 V2000
   -1.4800   -3.3101    2.0005 C   0  0  0  0  0  0  0  0  0  0  0  0
   -1.4105   -2.0910    1.1321 C   0  0  0  0  0  0  0  0  0  0  0  0
   -0.2017   -1.6694    0.6231 C   0  0  0  0  0  0  0  0  0  0  0  0
   -0.2130   -0.5393   -0.1679 C   0  0  0  0  0  0  0  0  0  0  0  0
    0.9602   -0.0347   -0.7509 N   0  0  0  0  0  0  0  0  0  0  0  0
    2.1593   -0.2723   -0.1571 N   0  0  0  0  0  0  0  0  0  0  0  0
    3.1438    0.4104   -0.6544 C   0  0  0  0  0  0  0  0  0  0  0  0
    4.5186    0.2821   -0.1158 C   0  0  0  0  0  0  0  0  0  0  0  0
    4.7343   -0.5326    1.0057 C   0  0  0  0  0  0  0  0  0  0  0  0
    6.0106   -0.6489    1.5678 C   0  0  0  0  0  0  0  0  0  0  0  0
    7.0884    0.0486    1.0218 C   0  0  0  0  0  0  0  0  0  0  0  0
    6.8959    0.8614   -0.0937 C   0  0  0  0  0  0  0  0  0  0  0  0
    5.6137    0.9652   -0.6547 C   0  0  0  0  0  0  0  0  0  0  0  0
    5.4700    1.8015   -1.8259 N   0  0  0  0  0  4  0  0  0  0  0  0
    5.0615    1.2606   -2.8607 O   0  0  0  0  0  0  0  0  0  0  0  0
    5.7808    2.9931   -1.7067 O   0  0  0  0  0  1  0  0  0  0  0  0
   -1.3465    0.1205   -0.4480 N   0  0  0  0  0  0  0  0  0  0  0  0
   -2.4953   -0.3493    0.0860 C   0  0  0  0  0  0  0  0  0  0  0  0
   -3.7168    0.3671   -0.2091 N   0  0  0  0  0  0  0  0  0  0  0  0
   -3.6979    1.4868   -0.9989 N   0  0  0  0  0  0  0  0  0  0  0  0
   -4.9660    1.8934   -1.0693 C   0  0  0  0  0  0  0  0  0  0  0  0
   -5.3161    3.0983   -1.8585 C   0  0  0  0  0  0  0  0  0  0  0  0
   -5.8247    1.0584   -0.3341 C   0  0  0  0  0  0  0  0  0  0  0  0
   -5.0160    0.0842    0.2134 C   0  0  0  0  0  0  0  0  0  0  0  0
   -5.3907   -1.0597    1.0822 C   0  0  0  0  0  0  0  0  0  0  0  0
   -2.5634   -1.4442    0.8759 N   0  0  0  0  0  0  0  0  0  0  0  0
   -2.5081   -3.4972    2.3274 H   0  0  0  0  0  0  0  0  0  0  0  0
   -0.8587   -3.1766    2.8916 H   0  0  0  0  0  0  0  0  0  0  0  0
   -1.1330   -4.1887    1.4479 H   0  0  0  0  0  0  0  0  0  0  0  0
    0.7202   -2.1982    0.8269 H   0  0  0  0  0  0  0  0  0  0  0  0
    0.7497    0.8527   -1.2079 H   0  0  0  0  0  0  0  0  0  0  0  0
    2.9696    1.1119   -1.4883 H   0  0  0  0  0  0  0  0  0  0  0  0
    3.9086   -1.0798    1.4585 H   0  0  0  0  0  0  0  0  0  0  0  0
    6.1603   -1.2836    2.4394 H   0  0  0  0  0  0  0  0  0  0  0  0
    8.0770   -0.0434    1.4672 H   0  0  0  0  0  0  0  0  0  0  0  0
    7.7390    1.4031   -0.5186 H   0  0  0  0  0  0  0  0  0  0  0  0
   -5.0275    2.9688   -2.9065 H   0  0  0  0  0  0  0  0  0  0  0  0
   -6.3929    3.2928   -1.8257 H   0  0  0  0  0  0  0  0  0  0  0  0
   -4.8008    3.9795   -1.4629 H   0  0  0  0  0  0  0  0  0  0  0  0
   -6.8956    1.1503   -0.2158 H   0  0  0  0  0  0  0  0  0  0  0  0
   -6.4704   -1.0633    1.2681 H   0  0  0  0  0  0  0  0  0  0  0  0
   -4.8949   -0.9948    2.0556 H   0  0  0  0  0  0  0  0  0  0  0  0
   -5.1409   -2.0137    0.6076 H   0  0  0  0  0  0  0  0  0  0  0  0
  1  2  1  0
  2  3  2  0
  3  4  1  0
  4  5  1  0
  5  6  1  0
  6  7  2  3
  7  8  1  0
  8  9  2  0
  9 10  1  0
 10 11  2  0
 11 12  1  0
 12 13  2  0
 13 14  1  0
 14 15  2  0
 14 16  1  0
  4 17  2  0
 17 18  1  0
 18 19  1  0
 19 20  1  0
 20 21  2  0
 21 22  1  0
 21 23  1  0
 23 24  2  0
 24 25  1  0
 18 26  2  0
 26  2  1  0
 13  8  1  0
 24 19  1  0
  1 27  1  0
  1 28  1  0
  1 29  1  0
  3 30  1  0
  5 31  1  0
  7 32  1  0
  9 33  1  0
 10 34  1  0
 11 35  1  0
 12 36  1  0
 22 37  1  0
 22 38  1  0
 22 39  1  0
 23 40  1  0
 25 41  1  0
 25 42  1  0
 25 43  1  0
M  CHG  2  14   1  16  -1
M  END
$$$$
