
     RDKit          3D

 55 60  0  0  0  0  0  0  0  0999 V2000
    4.5301   -1.4747   -0.7478 O   0  0  0  0  0  0  0  0  0  0  0  0
    4.0093   -0.8666    0.1853 C   0  0  0  0  0  0  0  0  0  0  0  0
    4.7076    0.2517    0.8064 C   0  0  0  0  0  0  0  0  0  0  0  0
    4.7012    0.7508    2.1427 C   0  0  0  0  0  0  0  0  0  0  0  0
    5.5795    1.8089    2.1750 C   0  0  0  0  0  0  0  0  0  0  0  0
    6.1470    1.9889    0.9568 O   0  0  0  0  0  0  0  0  0  0  0  0
    5.6341    1.0339    0.1414 C   0  0  0  0  0  0  0  0  0  0  0  0
    2.7483   -1.2221    0.6762 N   0  0  0  0  0  0  0  0  0  0  0  0
    2.1205   -2.4245    0.1567 C   0  0  0  0  0  0  0  0  0  0  0  0
    1.0681   -2.0685   -0.8911 C   0  0  0  0  0  0  0  0  0  0  0  0
    0.1456   -0.8733   -0.4662 C   0  0  0  0  0  0  0  0  0  0  0  0
    0.3748   -0.5688    1.0390 C   0  0  0  0  0  0  0  0  0  0  0  0
    1.8516   -0.2848    1.3429 C   0  0  0  0  0  0  0  0  0  0  0  0
    0.5656    0.3358   -1.1547 O   0  0  0  0  0  0  0  0  0  0  0  0
    0.2606    0.4009   -2.4866 C   0  0  0  0  0  0  0  0  0  0  0  0
    0.9781    1.3335   -3.2364 C   0  0  0  0  0  0  0  0  0  0  0  0
    0.7475    1.4467   -4.6082 C   0  0  0  0  0  0  0  0  0  0  0  0
   -0.2011    0.6305   -5.2176 C   0  0  0  0  0  0  0  0  0  0  0  0
   -0.4170    0.7441   -6.5340 F   0  0  0  0  0  0  0  0  0  0  0  0
   -0.9329   -0.2927   -4.4817 C   0  0  0  0  0  0  0  0  0  0  0  0
   -0.7027   -0.3963   -3.1080 C   0  0  0  0  0  0  0  0  0  0  0  0
   -1.4941   -1.3305   -2.2851 C   0  0  0  0  0  0  0  0  0  0  0  0
   -2.2448   -2.1353   -2.8264 O   0  0  0  0  0  0  0  0  0  0  0  0
   -1.3510   -1.1576   -0.7769 C   0  0  0  0  0  0  0  0  0  0  0  0
   -2.3440   -0.0845   -0.3436 C   0  0  0  0  0  0  0  0  0  0  0  0
   -2.8989   -0.7455    0.8691 C   0  0  0  0  0  0  0  0  0  0  0  0
   -3.7594   -0.0233    1.8348 C   0  0  0  0  0  0  0  0  0  0  0  0
   -4.1392   -0.6692    3.0192 C   0  0  0  0  0  0  0  0  0  0  0  0
   -4.9494   -0.0149    3.9517 C   0  0  0  0  0  0  0  0  0  0  0  0
   -5.3831    1.2842    3.6988 C   0  0  0  0  0  0  0  0  0  0  0  0
   -6.3828    2.0906    4.8429 Cl  0  0  0  0  0  0  0  0  0  0  0  0
   -5.0145    1.9337    2.5214 C   0  0  0  0  0  0  0  0  0  0  0  0
   -4.2022    1.2815    1.5870 C   0  0  0  0  0  0  0  0  0  0  0  0
   -2.5687   -1.9885    1.0087 N   0  0  0  0  0  0  0  0  0  0  0  0
   -1.7773   -2.3478   -0.1053 O   0  0  0  0  0  0  0  0  0  0  0  0
    4.1457    0.3736    2.9889 H   0  0  0  0  0  0  0  0  0  0  0  0
    5.9080    2.4889    2.9490 H   0  0  0  0  0  0  0  0  0  0  0  0
    6.0126    1.0303   -0.8725 H   0  0  0  0  0  0  0  0  0  0  0  0
    1.6646   -2.9561    1.0004 H   0  0  0  0  0  0  0  0  0  0  0  0
    2.8628   -3.1056   -0.2735 H   0  0  0  0  0  0  0  0  0  0  0  0
    1.5917   -1.8308   -1.8250 H   0  0  0  0  0  0  0  0  0  0  0  0
    0.4830   -2.9750   -1.0847 H   0  0  0  0  0  0  0  0  0  0  0  0
    0.0388   -1.4133    1.6530 H   0  0  0  0  0  0  0  0  0  0  0  0
   -0.1970    0.3092    1.3603 H   0  0  0  0  0  0  0  0  0  0  0  0
    2.0956    0.7380    1.0391 H   0  0  0  0  0  0  0  0  0  0  0  0
    2.0157   -0.3709    2.4215 H   0  0  0  0  0  0  0  0  0  0  0  0
    1.7287    1.9591   -2.7591 H   0  0  0  0  0  0  0  0  0  0  0  0
    1.3061    2.1599   -5.2076 H   0  0  0  0  0  0  0  0  0  0  0  0
   -1.6735   -0.9120   -4.9796 H   0  0  0  0  0  0  0  0  0  0  0  0
   -1.8799    0.8793   -0.1216 H   0  0  0  0  0  0  0  0  0  0  0  0
   -3.1579    0.0643   -1.0622 H   0  0  0  0  0  0  0  0  0  0  0  0
   -3.8110   -1.6871    3.2243 H   0  0  0  0  0  0  0  0  0  0  0  0
   -5.2395   -0.5265    4.8660 H   0  0  0  0  0  0  0  0  0  0  0  0
   -5.3598    2.9455    2.3230 H   0  0  0  0  0  0  0  0  0  0  0  0
   -3.9415    1.8091    0.6739 H   0  0  0  0  0  0  0  0  0  0  0  0
  1  2  2  0
  2  3  1  0
  3  4  1  0
  4  5  2  0
  5  6  1  0
  6  7  1  0
  2  8  1  0
  8  9  1  0
  9 10  1  0
 10 11  1  0
 11 12  1  0
 12 13  1  0
 11 14  1  0
 14 15  1  0
 15 16  2  0
 16 17  1  0
 17 18  2  0
 18 19  1  0
 18 20  1  0
 20 21  2  0
 21 22  1  0
 22 23  2  0
 22 24  1  0
 24 25  1  0
 25 26  1  0
 26 27  1  0
 27 28  2  0
 28 29  1  0
 29 30  2  0
 30 31  1  0
 30 32  1  0
 32 33  2  0
 26 34  2  0
 34 35  1  0
  7  3  2  0
 13  8  1  0
 21 15  1  0
 35 24  1  0
 24 11  1  0
 33 27  1  0
  4 36  1  0
  5 37  1  0
  7 38  1  0
  9 39  1  0
  9 40  1  0
 10 41  1  0
 10 42  1  0
 12 43  1  0
 12 44  1  0
 13 45  1  0
 13 46  1  0
 16 47  1  0
 17 48  1  0
 20 49  1  0
 25 50  1  0
 25 51  1  0
 28 52  1  0
 29 53  1  0
 32 54  1  0
 33 55  1  0
M  END
$$$$
