
     RDKit          3D

 39 39  0  0  0  0  0  0  0  0999 V2000
   -2.5644    4.0500    0.8702 C   0  0  0  0  0  0  0  0  0  0  0  0
   -1.8869    2.7310    1.0776 C   0  0  0  0  0  0  0  0  0  0  0  0
   -0.9961    2.5290    1.8897 O   0  0  0  0  0  0  0  0  0  0  0  0
   -2.3984    1.8016    0.2231 O   0  0  0  0  0  0  0  0  0  0  0  0
   -1.8335    0.4836    0.3367 C   0  0  0  0  0  0  0  0  0  0  0  0
   -0.5673    0.3885   -0.5135 C   0  0  0  0  0  0  0  0  0  0  0  0
    0.1624   -0.9541   -0.3397 C   0  0  0  0  0  0  0  0  0  0  0  0
    1.4180   -0.9280   -1.1008 N   0  0  0  0  0  0  0  0  0  0  0  0
    2.8368   -0.5840   -0.3073 S   0  0  0  0  0  6  0  0  0  0  0  0
    3.8598   -0.4892   -1.3224 O   0  0  0  0  0  0  0  0  0  0  0  0
    2.9629   -1.4764    0.8200 O   0  0  0  0  0  0  0  0  0  0  0  0
    2.5924    0.9064    0.2703 O   0  0  0  0  0  0  0  0  0  0  0  0
    3.7001    1.5576    0.8895 C   0  0  0  0  0  0  0  0  0  0  0  0
    3.2391    2.6630    1.8494 C   0  0  0  0  0  0  0  0  0  0  0  0
    2.2599    3.8854    0.9800 Cl  0  0  0  0  0  0  0  0  0  0  0  0
    2.2816    1.9693    3.1898 Cl  0  0  0  0  0  0  0  0  0  0  0  0
    4.6773    3.4822    2.5422 Cl  0  0  0  0  0  0  0  0  0  0  0  0
   -0.6697   -2.1475   -0.7811 C   0  0  0  0  0  0  0  0  0  0  0  0
   -1.2570   -2.2140   -2.0555 C   0  0  0  0  0  0  0  0  0  0  0  0
   -2.0147   -3.3245   -2.4337 C   0  0  0  0  0  0  0  0  0  0  0  0
   -2.1870   -4.3869   -1.5498 C   0  0  0  0  0  0  0  0  0  0  0  0
   -1.5966   -4.3442   -0.2894 C   0  0  0  0  0  0  0  0  0  0  0  0
   -0.8393   -3.2349    0.0914 C   0  0  0  0  0  0  0  0  0  0  0  0
   -2.3745    4.4082   -0.1446 H   0  0  0  0  0  0  0  0  0  0  0  0
   -2.1622    4.7791    1.5796 H   0  0  0  0  0  0  0  0  0  0  0  0
   -3.6378    3.9480    1.0487 H   0  0  0  0  0  0  0  0  0  0  0  0
   -1.6418    0.2318    1.3868 H   0  0  0  0  0  0  0  0  0  0  0  0
   -2.5964   -0.2130   -0.0253 H   0  0  0  0  0  0  0  0  0  0  0  0
    0.1045    1.2116   -0.2437 H   0  0  0  0  0  0  0  0  0  0  0  0
   -0.8220    0.5793   -1.5640 H   0  0  0  0  0  0  0  0  0  0  0  0
    0.3861   -1.0742    0.7281 H   0  0  0  0  0  0  0  0  0  0  0  0
    1.3867   -0.6006   -2.0618 H   0  0  0  0  0  0  0  0  0  0  0  0
    4.3274    1.9765    0.0930 H   0  0  0  0  0  0  0  0  0  0  0  0
    4.3074    0.8229    1.4345 H   0  0  0  0  0  0  0  0  0  0  0  0
   -1.1265   -1.4064   -2.7711 H   0  0  0  0  0  0  0  0  0  0  0  0
   -2.4653   -3.3641   -3.4223 H   0  0  0  0  0  0  0  0  0  0  0  0
   -2.7728   -5.2530   -1.8467 H   0  0  0  0  0  0  0  0  0  0  0  0
   -1.7185   -5.1790    0.3964 H   0  0  0  0  0  0  0  0  0  0  0  0
   -0.3738   -3.2310    1.0757 H   0  0  0  0  0  0  0  0  0  0  0  0
  1  2  1  0
  2  3  2  0
  2  4  1  0
  4  5  1  0
  5  6  1  0
  6  7  1  0
  7  8  1  0
  8  9  1  0
  9 10  2  0
  9 11  2  0
  9 12  1  0
 12 13  1  0
 13 14  1  0
 14 15  1  0
 14 16  1  0
 14 17  1  0
  7 18  1  0
 18 19  2  0
 19 20  1  0
 20 21  2  0
 21 22  1  0
 22 23  2  0
 23 18  1  0
  1 24  1  0
  1 25  1  0
  1 26  1  0
  5 27  1  0
  5 28  1  0
  6 29  1  0
  6 30  1  0
  7 31  1  0
  8 32  1  0
 13 33  1  0
 13 34  1  0
 19 35  1  0
 20 36  1  0
 21 37  1  0
 22 38  1  0
 23 39  1  0
M  END
$$$$
