
     RDKit          3D

 32 33  0  0  0  0  0  0  0  0999 V2000
   -5.4470   -0.9432    0.0444 C   0  0  0  0  0  0  0  0  0  0  0  0
   -4.0082   -0.6283   -0.2430 C   0  0  0  0  0  0  0  0  0  0  0  0
   -3.6500    0.6009   -0.8097 C   0  0  0  0  0  0  0  0  0  0  0  0
   -2.3067    0.9055   -1.0498 C   0  0  0  0  0  0  0  0  0  0  0  0
   -1.9348    2.4237   -1.7881 Cl  0  0  0  0  0  0  0  0  0  0  0  0
   -1.2997   -0.0032   -0.6986 C   0  0  0  0  0  0  0  0  0  0  0  0
    0.0147    0.2907   -0.9647 O   0  0  0  0  0  0  0  0  0  0  0  0
    0.6162    0.9939    0.1316 C   0  0  0  0  0  0  0  0  0  0  0  0
    1.7847    1.8215   -0.4010 C   0  0  0  0  0  0  0  0  0  0  0  0
    2.8585    0.9880   -1.1013 C   0  0  0  0  0  0  0  0  0  0  0  0
    3.5766    0.1059   -0.2057 N   0  0  0  0  0  0  0  0  0  0  0  0
    3.4456   -1.2510   -0.1258 C   0  0  0  0  0  0  0  0  0  0  0  0
    4.3266   -1.6341    0.8583 C   0  0  0  0  0  0  0  0  0  0  0  0
    4.9950   -0.5479    1.3627 N   0  0  0  0  0  0  0  0  0  0  0  0
    4.5319    0.4840    0.6939 C   0  0  0  0  0  0  0  0  0  0  0  0
   -1.6561   -1.2384   -0.1472 C   0  0  0  0  0  0  0  0  0  0  0  0
   -0.3599   -2.5553    0.2840 Br  0  0  0  0  0  0  0  0  0  0  0  0
   -3.0010   -1.5420    0.0929 C   0  0  0  0  0  0  0  0  0  0  0  0
   -5.7092   -0.6059    1.0519 H   0  0  0  0  0  0  0  0  0  0  0  0
   -6.1067   -0.4500   -0.6772 H   0  0  0  0  0  0  0  0  0  0  0  0
   -5.6333   -2.0198   -0.0288 H   0  0  0  0  0  0  0  0  0  0  0  0
   -4.4213    1.3220   -1.0733 H   0  0  0  0  0  0  0  0  0  0  0  0
   -0.0962    1.6716    0.6201 H   0  0  0  0  0  0  0  0  0  0  0  0
    0.9623    0.2733    0.8804 H   0  0  0  0  0  0  0  0  0  0  0  0
    2.2245    2.3947    0.4235 H   0  0  0  0  0  0  0  0  0  0  0  0
    1.3977    2.5439   -1.1301 H   0  0  0  0  0  0  0  0  0  0  0  0
    3.6055    1.6516   -1.5532 H   0  0  0  0  0  0  0  0  0  0  0  0
    2.4346    0.3828   -1.9103 H   0  0  0  0  0  0  0  0  0  0  0  0
    2.7609   -1.8129   -0.7454 H   0  0  0  0  0  0  0  0  0  0  0  0
    4.5170   -2.6334    1.2275 H   0  0  0  0  0  0  0  0  0  0  0  0
    4.8471    1.5110    0.8244 H   0  0  0  0  0  0  0  0  0  0  0  0
   -3.2694   -2.4996    0.5358 H   0  0  0  0  0  0  0  0  0  0  0  0
  1  2  1  0
  2  3  2  0
  3  4  1  0
  4  5  1  0
  4  6  2  0
  6  7  1  0
  7  8  1  0
  8  9  1  0
  9 10  1  0
 10 11  1  0
 11 12  1  0
 12 13  2  0
 13 14  1  0
 14 15  2  0
  6 16  1  0
 16 17  1  0
 16 18  2  0
 18  2  1  0
 15 11  1  0
  1 19  1  0
  1 20  1  0
  1 21  1  0
  3 22  1  0
  8 23  1  0
  8 24  1  0
  9 25  1  0
  9 26  1  0
 10 27  1  0
 10 28  1  0
 12 29  1  0
 13 30  1  0
 15 31  1  0
 18 32  1  0
M  END
$$$$
