
     RDKit          3D

 27 27  0  0  0  0  0  0  0  0999 V2000
    2.8307   -0.3507   -2.3816 C   0  0  0  0  0  0  0  0  0  0  0  0
    1.9200   -0.0841   -1.2442 C   0  0  0  0  0  0  0  0  0  0  0  0
    2.2191    0.4964   -0.0051 C   0  0  0  0  0  0  0  0  0  0  0  0
    1.0313    0.5272    0.7135 C   0  0  0  0  0  0  0  0  0  0  0  0
    0.8456    1.0366    2.0438 C   0  0  0  0  0  0  0  0  0  0  0  0
   -0.1651    1.0915    2.7243 O   0  0  0  0  0  0  0  0  0  0  0  0
    2.0061    1.5084    2.5532 O   0  0  0  0  0  0  0  0  0  0  0  0
    0.0895   -0.0357   -0.1347 N   0  0  0  0  0  0  0  0  0  0  0  0
   -1.3586   -0.2797    0.0616 C   0  0  0  0  0  0  0  0  0  0  0  0
   -1.9979   -0.9437   -1.1947 C   0  0  0  0  0  0  0  0  0  0  0  0
   -1.5990   -1.2631    1.2226 C   0  0  0  0  0  0  0  0  0  0  0  0
   -2.1175    1.0450    0.2664 C   0  0  0  0  0  0  0  0  0  0  0  0
    0.6316   -0.4065   -1.3237 N   0  0  0  0  0  0  0  0  0  0  0  0
    2.8579   -1.4211   -2.6096 H   0  0  0  0  0  0  0  0  0  0  0  0
    3.8516   -0.0272   -2.1543 H   0  0  0  0  0  0  0  0  0  0  0  0
    2.4968    0.1860   -3.2754 H   0  0  0  0  0  0  0  0  0  0  0  0
    3.1807    0.8545    0.3380 H   0  0  0  0  0  0  0  0  0  0  0  0
    1.7472    1.8193    3.4443 H   0  0  0  0  0  0  0  0  0  0  0  0
   -1.5358   -1.9129   -1.4182 H   0  0  0  0  0  0  0  0  0  0  0  0
   -1.8962   -0.3085   -2.0829 H   0  0  0  0  0  0  0  0  0  0  0  0
   -3.0696   -1.1225   -1.0452 H   0  0  0  0  0  0  0  0  0  0  0  0
   -1.2800   -0.8762    2.1904 H   0  0  0  0  0  0  0  0  0  0  0  0
   -1.0564   -2.2017    1.0580 H   0  0  0  0  0  0  0  0  0  0  0  0
   -2.6638   -1.5069    1.3172 H   0  0  0  0  0  0  0  0  0  0  0  0
   -3.1984    0.8730    0.3313 H   0  0  0  0  0  0  0  0  0  0  0  0
   -1.9397    1.7304   -0.5710 H   0  0  0  0  0  0  0  0  0  0  0  0
   -1.8300    1.5722    1.1761 H   0  0  0  0  0  0  0  0  0  0  0  0
  1  2  1  0
  2  3  1  0
  3  4  2  0
  4  5  1  0
  5  6  2  0
  5  7  1  0
  4  8  1  0
  8  9  1  0
  9 10  1  0
  9 11  1  0
  9 12  1  0
  8 13  1  0
 13  2  2  0
  1 14  1  0
  1 15  1  0
  1 16  1  0
  3 17  1  0
  7 18  1  0
 10 19  1  0
 10 20  1  0
 10 21  1  0
 11 22  1  0
 11 23  1  0
 11 24  1  0
 12 25  1  0
 12 26  1  0
 12 27  1  0
M  END
$$$$
