
     RDKit          3D

 54 57  0  0  0  0  0  0  0  0999 V2000
   -0.1737    3.3016   -2.2536 O   0  0  0  0  0  0  0  0  0  0  0  0
   -0.2985    2.7356   -1.1709 C   0  0  0  0  0  0  0  0  0  0  0  0
   -1.2833    3.2649   -0.1185 C   0  0  0  0  0  0  0  0  0  0  0  0
   -2.4407    2.4501    0.0762 O   0  0  0  0  0  0  0  0  0  0  0  0
   -2.2659    1.3640    0.8653 C   0  0  0  0  0  0  0  0  0  0  0  0
   -1.2013    1.0256    1.3631 O   0  0  0  0  0  0  0  0  0  0  0  0
   -3.5366    0.6118    1.0353 C   0  0  0  0  0  0  0  0  0  0  0  0
   -3.5113   -0.5664    1.7971 C   0  0  0  0  0  0  0  0  0  0  0  0
   -4.6804   -1.3062    1.9912 C   0  0  0  0  0  0  0  0  0  0  0  0
   -5.8774   -0.8704    1.4286 C   0  0  0  0  0  0  0  0  0  0  0  0
   -5.9023    0.2886    0.6460 C   0  0  0  0  0  0  0  0  0  0  0  0
   -4.7408    1.0381    0.4597 C   0  0  0  0  0  0  0  0  0  0  0  0
   -7.0381    0.7559    0.0350 O   0  0  0  0  0  0  0  0  0  0  0  0
   -8.0606   -0.2470   -0.0041 C   0  0  0  0  0  0  0  0  0  0  0  0
   -8.1921   -0.9304    1.3469 C   0  0  0  0  0  0  0  0  0  0  0  0
   -6.9886   -1.6331    1.6780 O   0  0  0  0  0  0  0  0  0  0  0  0
    0.4008    1.6199   -0.7437 N   0  0  0  0  0  0  0  0  0  0  0  0
    1.3722    0.8823   -1.4463 C   0  0  0  0  0  0  0  0  0  0  0  0
    1.8344    1.2128   -2.7225 C   0  0  0  0  0  0  0  0  0  0  0  0
    2.7917    0.4181   -3.3635 C   0  0  0  0  0  0  0  0  0  0  0  0
    3.3069   -0.7088   -2.7286 C   0  0  0  0  0  0  0  0  0  0  0  0
    2.8708   -1.0246   -1.4408 C   0  0  0  0  0  0  0  0  0  0  0  0
    3.5016   -2.4759   -0.6259 S   0  0  0  0  0  6  0  0  0  0  0  0
    2.5039   -2.9033    0.3322 O   0  0  0  0  0  0  0  0  0  0  0  0
    3.9877   -3.3731   -1.6526 O   0  0  0  0  0  0  0  0  0  0  0  0
    4.8353   -1.8960    0.2351 N   0  0  0  0  0  0  0  0  0  0  0  0
    6.0409   -1.4641   -0.5251 C   0  0  0  0  0  0  0  0  0  0  0  0
    6.3416    0.0166   -0.2697 C   0  0  0  0  0  0  0  0  0  0  0  0
    6.5745    0.3252    1.1119 O   0  0  0  0  0  0  0  0  0  0  0  0
    5.8924   -0.5532    2.0191 C   0  0  0  0  0  0  0  0  0  0  0  0
    4.5715   -1.0859    1.4546 C   0  0  0  0  0  0  0  0  0  0  0  0
    1.8913   -0.2496   -0.8088 C   0  0  0  0  0  0  0  0  0  0  0  0
   -0.7566    3.4380    0.8284 H   0  0  0  0  0  0  0  0  0  0  0  0
   -1.6358    4.2460   -0.4563 H   0  0  0  0  0  0  0  0  0  0  0  0
   -2.5825   -0.9145    2.2459 H   0  0  0  0  0  0  0  0  0  0  0  0
   -4.6586   -2.2149    2.5874 H   0  0  0  0  0  0  0  0  0  0  0  0
   -4.7900    1.9406   -0.1436 H   0  0  0  0  0  0  0  0  0  0  0  0
   -7.8143   -0.9654   -0.7958 H   0  0  0  0  0  0  0  0  0  0  0  0
   -8.9997    0.2473   -0.2716 H   0  0  0  0  0  0  0  0  0  0  0  0
   -8.4032   -0.2068    2.1439 H   0  0  0  0  0  0  0  0  0  0  0  0
   -9.0070   -1.6607    1.3242 H   0  0  0  0  0  0  0  0  0  0  0  0
    0.1367    1.2569    0.1745 H   0  0  0  0  0  0  0  0  0  0  0  0
    1.4594    2.0808   -3.2568 H   0  0  0  0  0  0  0  0  0  0  0  0
    3.1227    0.6800   -4.3661 H   0  0  0  0  0  0  0  0  0  0  0  0
    4.0326   -1.3334   -3.2444 H   0  0  0  0  0  0  0  0  0  0  0  0
    5.9287   -1.6384   -1.5985 H   0  0  0  0  0  0  0  0  0  0  0  0
    6.8792   -2.0819   -0.1821 H   0  0  0  0  0  0  0  0  0  0  0  0
    7.2324    0.3221   -0.8276 H   0  0  0  0  0  0  0  0  0  0  0  0
    5.5110    0.6434   -0.6137 H   0  0  0  0  0  0  0  0  0  0  0  0
    6.5716   -1.3786    2.2625 H   0  0  0  0  0  0  0  0  0  0  0  0
    5.7116    0.0060    2.9424 H   0  0  0  0  0  0  0  0  0  0  0  0
    3.9213   -0.2412    1.2086 H   0  0  0  0  0  0  0  0  0  0  0  0
    4.0821   -1.7123    2.2069 H   0  0  0  0  0  0  0  0  0  0  0  0
    1.5323   -0.5363    0.1778 H   0  0  0  0  0  0  0  0  0  0  0  0
  1  2  2  0
  2  3  1  0
  3  4  1  0
  4  5  1  0
  5  6  2  0
  5  7  1  0
  7  8  2  0
  8  9  1  0
  9 10  2  0
 10 11  1  0
 11 12  2  0
 11 13  1  0
 13 14  1  0
 14 15  1  0
 15 16  1  0
  2 17  1  0
 17 18  1  0
 18 19  2  0
 19 20  1  0
 20 21  2  0
 21 22  1  0
 22 23  1  0
 23 24  2  0
 23 25  2  0
 23 26  1  0
 26 27  1  0
 27 28  1  0
 28 29  1  0
 29 30  1  0
 30 31  1  0
 22 32  2  0
 12  7  1  0
 32 18  1  0
 16 10  1  0
 31 26  1  0
  3 33  1  0
  3 34  1  0
  8 35  1  0
  9 36  1  0
 12 37  1  0
 14 38  1  0
 14 39  1  0
 15 40  1  0
 15 41  1  0
 17 42  1  0
 19 43  1  0
 20 44  1  0
 21 45  1  0
 27 46  1  0
 27 47  1  0
 28 48  1  0
 28 49  1  0
 30 50  1  0
 30 51  1  0
 31 52  1  0
 31 53  1  0
 32 54  1  0
M  END
$$$$
