
     RDKit          3D

 44 46  0  0  0  0  0  0  0  0999 V2000
    8.2565   -1.2886    1.8764 C   0  0  0  0  0  0  0  0  0  0  0  0
    6.9041   -1.4309    1.2420 C   0  0  0  0  0  0  0  0  0  0  0  0
    5.7753   -1.6931    2.0276 C   0  0  0  0  0  0  0  0  0  0  0  0
    4.5128   -1.7976    1.4386 C   0  0  0  0  0  0  0  0  0  0  0  0
    4.3619   -1.6199    0.0586 C   0  0  0  0  0  0  0  0  0  0  0  0
    2.9981   -1.7396   -0.5274 C   0  0  0  0  0  0  0  0  0  0  0  0
    2.1338   -2.4021    0.0357 O   0  0  0  0  0  0  0  0  0  0  0  0
    2.7684   -1.0389   -1.6942 N   0  0  0  0  0  0  0  0  0  0  0  0
    1.4140   -0.9289   -2.2156 C   0  0  0  0  0  0  0  0  0  0  0  0
    0.7191    0.2985   -1.6406 C   0  0  0  0  0  0  0  0  0  0  0  0
    1.3010    1.2874   -1.2094 O   0  0  0  0  0  0  0  0  0  0  0  0
   -0.6308    0.1725   -1.7491 O   0  0  0  0  0  0  0  0  0  0  0  0
   -1.3550    1.2875   -1.2102 C   0  0  0  0  0  0  0  0  0  0  0  0
   -2.8310    1.1052   -1.3848 C   0  0  0  0  0  0  0  0  0  0  0  0
   -3.4806    0.7043   -2.5356 C   0  0  0  0  0  0  0  0  0  0  0  0
   -5.1674    0.6423   -2.2696 S   0  0  0  0  0  0  0  0  0  0  0  0
   -4.9390    1.1581   -0.6381 C   0  0  0  0  0  0  0  0  0  0  0  0
   -6.0690    1.3440    0.2987 C   0  0  0  0  0  0  0  0  0  0  0  0
   -5.7922    1.7201    1.6261 C   0  0  0  0  0  0  0  0  0  0  0  0
   -6.8167    1.9129    2.5575 C   0  0  0  0  0  0  0  0  0  0  0  0
   -8.1430    1.7337    2.1781 C   0  0  0  0  0  0  0  0  0  0  0  0
   -8.4431    1.3618    0.8709 C   0  0  0  0  0  0  0  0  0  0  0  0
   -7.4159    1.1685   -0.0607 C   0  0  0  0  0  0  0  0  0  0  0  0
   -3.6748    1.3684   -0.3147 N   0  0  0  0  0  0  0  0  0  0  0  0
    5.4874   -1.3574   -0.7316 C   0  0  0  0  0  0  0  0  0  0  0  0
    6.7497   -1.2559   -0.1392 C   0  0  0  0  0  0  0  0  0  0  0  0
    9.0390   -1.6687    1.2115 H   0  0  0  0  0  0  0  0  0  0  0  0
    8.3162   -1.8610    2.8081 H   0  0  0  0  0  0  0  0  0  0  0  0
    8.4571   -0.2357    2.0964 H   0  0  0  0  0  0  0  0  0  0  0  0
    5.8699   -1.8227    3.1041 H   0  0  0  0  0  0  0  0  0  0  0  0
    3.6453   -2.0116    2.0604 H   0  0  0  0  0  0  0  0  0  0  0  0
    3.3828   -0.2565   -1.8851 H   0  0  0  0  0  0  0  0  0  0  0  0
    1.4827   -0.8126   -3.3009 H   0  0  0  0  0  0  0  0  0  0  0  0
    0.8443   -1.8305   -1.9707 H   0  0  0  0  0  0  0  0  0  0  0  0
   -1.0546    2.2067   -1.7278 H   0  0  0  0  0  0  0  0  0  0  0  0
   -1.1233    1.3834   -0.1426 H   0  0  0  0  0  0  0  0  0  0  0  0
   -3.0510    0.4449   -3.4928 H   0  0  0  0  0  0  0  0  0  0  0  0
   -4.7607    1.8655    1.9450 H   0  0  0  0  0  0  0  0  0  0  0  0
   -6.5741    2.2026    3.5769 H   0  0  0  0  0  0  0  0  0  0  0  0
   -8.9415    1.8840    2.9004 H   0  0  0  0  0  0  0  0  0  0  0  0
   -9.4787    1.2212    0.5717 H   0  0  0  0  0  0  0  0  0  0  0  0
   -7.6986    0.8792   -1.0693 H   0  0  0  0  0  0  0  0  0  0  0  0
    5.4050   -1.2521   -1.8100 H   0  0  0  0  0  0  0  0  0  0  0  0
    7.6162   -1.0484   -0.7646 H   0  0  0  0  0  0  0  0  0  0  0  0
  1  2  1  0
  2  3  2  0
  3  4  1  0
  4  5  2  0
  5  6  1  0
  6  7  2  0
  6  8  1  0
  8  9  1  0
  9 10  1  0
 10 11  2  0
 10 12  1  0
 12 13  1  0
 13 14  1  0
 14 15  2  0
 15 16  1  0
 16 17  1  0
 17 18  1  0
 18 19  2  0
 19 20  1  0
 20 21  2  0
 21 22  1  0
 22 23  2  0
 17 24  2  0
  5 25  1  0
 25 26  2  0
 26  2  1  0
 24 14  1  0
 23 18  1  0
  1 27  1  0
  1 28  1  0
  1 29  1  0
  3 30  1  0
  4 31  1  0
  8 32  1  0
  9 33  1  0
  9 34  1  0
 13 35  1  0
 13 36  1  0
 15 37  1  0
 19 38  1  0
 20 39  1  0
 21 40  1  0
 22 41  1  0
 23 42  1  0
 25 43  1  0
 26 44  1  0
M  END
$$$$
