
     RDKit          3D

 39 41  0  0  0  0  0  0  0  0999 V2000
    5.4041   -0.8595   -1.5013 C   0  0  0  0  0  0  0  0  0  0  0  0
    4.8743   -0.3210   -0.1842 C   0  0  0  0  0  0  0  0  0  0  0  0
    4.1575    0.9335   -0.3503 N   0  0  0  0  0  0  0  0  0  0  0  0
    4.8678    2.0834   -0.2732 N   0  0  0  0  0  0  0  0  0  0  0  0
    3.9546    3.0356   -0.4566 C   0  0  0  0  0  0  0  0  0  0  0  0
    2.6735    2.4989   -0.6232 C   0  0  0  0  0  0  0  0  0  0  0  0
    1.1639    3.5544   -0.9611 Br  0  0  0  0  0  0  0  0  0  0  0  0
    2.8012    1.1264   -0.5309 C   0  0  0  0  0  0  0  0  0  0  0  0
    1.8304    0.0526   -0.6320 C   0  0  0  0  0  0  0  0  0  0  0  0
    2.1615   -1.0553   -1.0368 O   0  0  0  0  0  0  0  0  0  0  0  0
    0.5684    0.4013   -0.1896 N   0  0  0  0  0  0  0  0  0  0  0  0
   -0.5793   -0.3816   -0.1795 C   0  0  0  0  0  0  0  0  0  0  0  0
   -0.6081   -1.9304   -0.9185 S   0  0  0  0  0  0  0  0  0  0  0  0
   -2.2094   -2.1341   -0.5116 C   0  0  0  0  0  0  0  0  0  0  0  0
   -2.7489   -1.0798    0.1684 C   0  0  0  0  0  0  0  0  0  0  0  0
   -1.8134   -0.0255    0.3755 C   0  0  0  0  0  0  0  0  0  0  0  0
   -2.0443    1.2451    1.0567 C   0  0  0  0  0  0  0  0  0  0  0  0
   -1.1592    2.0774    1.2310 O   0  0  0  0  0  0  0  0  0  0  0  0
   -3.3349    1.4027    1.4694 O   0  0  0  0  0  0  0  0  0  0  0  0
   -3.5883    2.6397    2.1353 C   0  0  0  0  0  0  0  0  0  0  0  0
   -4.1766   -1.3385    0.4937 C   0  0  0  0  0  0  0  0  0  0  0  0
   -4.3174   -2.8652    0.1998 C   0  0  0  0  0  0  0  0  0  0  0  0
   -3.1504   -3.2500   -0.7583 C   0  0  0  0  0  0  0  0  0  0  0  0
    4.5950   -1.0412   -2.2157 H   0  0  0  0  0  0  0  0  0  0  0  0
    5.9355   -1.8023   -1.3393 H   0  0  0  0  0  0  0  0  0  0  0  0
    6.1004   -0.1515   -1.9635 H   0  0  0  0  0  0  0  0  0  0  0  0
    4.2142   -1.0402    0.3088 H   0  0  0  0  0  0  0  0  0  0  0  0
    5.7053   -0.1324    0.5059 H   0  0  0  0  0  0  0  0  0  0  0  0
    4.2696    4.0711   -0.4655 H   0  0  0  0  0  0  0  0  0  0  0  0
    0.4581    1.3240    0.2271 H   0  0  0  0  0  0  0  0  0  0  0  0
   -2.9842    2.7165    3.0448 H   0  0  0  0  0  0  0  0  0  0  0  0
   -3.3925    3.4831    1.4659 H   0  0  0  0  0  0  0  0  0  0  0  0
   -4.6442    2.6613    2.4188 H   0  0  0  0  0  0  0  0  0  0  0  0
   -4.8305   -0.7595   -0.1668 H   0  0  0  0  0  0  0  0  0  0  0  0
   -4.4233   -1.1190    1.5360 H   0  0  0  0  0  0  0  0  0  0  0  0
   -5.2978   -3.1198   -0.2147 H   0  0  0  0  0  0  0  0  0  0  0  0
   -4.2041   -3.4203    1.1406 H   0  0  0  0  0  0  0  0  0  0  0  0
   -3.4913   -3.2494   -1.7986 H   0  0  0  0  0  0  0  0  0  0  0  0
   -2.7375   -4.2306   -0.5065 H   0  0  0  0  0  0  0  0  0  0  0  0
  1  2  1  0
  2  3  1  0
  3  4  1  0
  4  5  2  0
  5  6  1  0
  6  7  1  0
  6  8  2  0
  8  9  1  0
  9 10  2  0
  9 11  1  0
 11 12  1  0
 12 13  1  0
 13 14  1  0
 14 15  2  0
 15 16  1  0
 16 17  1  0
 17 18  2  0
 17 19  1  0
 19 20  1  0
 15 21  1  0
 21 22  1  0
 22 23  1  0
  8  3  1  0
 16 12  2  0
 23 14  1  0
  1 24  1  0
  1 25  1  0
  1 26  1  0
  2 27  1  0
  2 28  1  0
  5 29  1  0
 11 30  1  0
 20 31  1  0
 20 32  1  0
 20 33  1  0
 21 34  1  0
 21 35  1  0
 22 36  1  0
 22 37  1  0
 23 38  1  0
 23 39  1  0
M  END
$$$$
