
     RDKit          3D

 44 45  0  0  0  0  0  0  0  0999 V2000
    7.5841    1.1416    2.3895 C   0  0  0  0  0  0  0  0  0  0  0  0
    7.5917    0.0278    1.3602 C   0  0  0  0  0  0  0  0  0  0  0  0
    6.2625   -0.2316    0.8875 O   0  0  0  0  0  0  0  0  0  0  0  0
    5.8217    0.5810   -0.1050 C   0  0  0  0  0  0  0  0  0  0  0  0
    6.4346    1.5135   -0.6000 O   0  0  0  0  0  0  0  0  0  0  0  0
    4.4411    0.2027   -0.5107 C   0  0  0  0  0  0  0  0  0  0  0  0
    3.7256    1.0909   -1.3275 C   0  0  0  0  0  0  0  0  0  0  0  0
    2.4278    0.7813   -1.7428 C   0  0  0  0  0  0  0  0  0  0  0  0
    1.8463   -0.4246   -1.3396 C   0  0  0  0  0  0  0  0  0  0  0  0
    0.2097   -0.8471   -1.8817 S   0  0  0  0  0  6  0  0  0  0  0  0
    0.1837   -2.2607   -2.1763 O   0  0  0  0  0  0  0  0  0  0  0  0
   -0.2434    0.1613   -2.8208 O   0  0  0  0  0  0  0  0  0  0  0  0
   -0.6903   -0.6026   -0.4204 N   0  0  0  0  0  0  0  0  0  0  0  0
   -1.9652    0.0212   -0.6921 N   0  0  0  0  0  0  0  0  0  0  0  0
   -3.1609   -1.1593   -1.1121 S   0  0  0  0  0  6  0  0  0  0  0  0
   -3.4187   -1.0326   -2.5263 O   0  0  0  0  0  0  0  0  0  0  0  0
   -2.7311   -2.4061   -0.5062 O   0  0  0  0  0  0  0  0  0  0  0  0
   -4.5668   -0.5491   -0.2235 C   0  0  0  0  0  0  0  0  0  0  0  0
   -5.2352    0.5817   -0.6937 C   0  0  0  0  0  0  0  0  0  0  0  0
   -6.3417    1.0657    0.0071 C   0  0  0  0  0  0  0  0  0  0  0  0
   -6.7935    0.4157    1.1635 C   0  0  0  0  0  0  0  0  0  0  0  0
   -7.9625    0.9501    1.9379 C   0  0  0  0  0  0  0  0  0  0  0  0
   -6.1167   -0.7229    1.6178 C   0  0  0  0  0  0  0  0  0  0  0  0
   -5.0083   -1.2114    0.9245 C   0  0  0  0  0  0  0  0  0  0  0  0
    2.5540   -1.3263   -0.5407 C   0  0  0  0  0  0  0  0  0  0  0  0
    3.8500   -1.0095   -0.1226 C   0  0  0  0  0  0  0  0  0  0  0  0
    6.8904    0.9105    3.2048 H   0  0  0  0  0  0  0  0  0  0  0  0
    7.2520    2.0842    1.9455 H   0  0  0  0  0  0  0  0  0  0  0  0
    8.5822    1.2861    2.8075 H   0  0  0  0  0  0  0  0  0  0  0  0
    8.2675    0.2539    0.5267 H   0  0  0  0  0  0  0  0  0  0  0  0
    7.9502   -0.8970    1.8241 H   0  0  0  0  0  0  0  0  0  0  0  0
    4.1806    2.0274   -1.6448 H   0  0  0  0  0  0  0  0  0  0  0  0
    1.8901    1.4788   -2.3794 H   0  0  0  0  0  0  0  0  0  0  0  0
   -0.8188   -1.5387    0.0069 H   0  0  0  0  0  0  0  0  0  0  0  0
   -1.9003    0.6806   -1.4905 H   0  0  0  0  0  0  0  0  0  0  0  0
   -4.9060    1.0887   -1.5965 H   0  0  0  0  0  0  0  0  0  0  0  0
   -6.8528    1.9540   -0.3549 H   0  0  0  0  0  0  0  0  0  0  0  0
   -7.6087    1.4972    2.8169 H   0  0  0  0  0  0  0  0  0  0  0  0
   -8.5693    1.6268    1.3273 H   0  0  0  0  0  0  0  0  0  0  0  0
   -8.6139    0.1325    2.2662 H   0  0  0  0  0  0  0  0  0  0  0  0
   -6.4511   -1.2360    2.5173 H   0  0  0  0  0  0  0  0  0  0  0  0
   -4.4964   -2.1016    1.2899 H   0  0  0  0  0  0  0  0  0  0  0  0
    2.1119   -2.2767   -0.2474 H   0  0  0  0  0  0  0  0  0  0  0  0
    4.3939   -1.7213    0.4938 H   0  0  0  0  0  0  0  0  0  0  0  0
  1  2  1  0
  2  3  1  0
  3  4  1  0
  4  5  2  0
  4  6  1  0
  6  7  2  0
  7  8  1  0
  8  9  2  0
  9 10  1  0
 10 11  2  0
 10 12  2  0
 10 13  1  0
 13 14  1  0
 14 15  1  0
 15 16  2  0
 15 17  2  0
 15 18  1  0
 18 19  2  0
 19 20  1  0
 20 21  2  0
 21 22  1  0
 21 23  1  0
 23 24  2  0
  9 25  1  0
 25 26  2  0
 26  6  1  0
 24 18  1  0
  1 27  1  0
  1 28  1  0
  1 29  1  0
  2 30  1  0
  2 31  1  0
  7 32  1  0
  8 33  1  0
 13 34  1  0
 14 35  1  0
 19 36  1  0
 20 37  1  0
 22 38  1  0
 22 39  1  0
 22 40  1  0
 23 41  1  0
 24 42  1  0
 25 43  1  0
 26 44  1  0
M  END
$$$$
