
     RDKit          3D

 57 60  0  0  0  0  0  0  0  0999 V2000
   -8.0338   -0.1512    3.5133 C   0  0  0  0  0  0  0  0  0  0  0  0
   -7.5962    1.1197    2.8016 C   0  0  0  0  0  0  0  0  0  0  0  0
   -6.4317    0.8722    1.8781 C   0  0  0  0  0  0  0  0  0  0  0  0
   -5.1179    0.9912    2.3396 C   0  0  0  0  0  0  0  0  0  0  0  0
   -4.0364    0.7448    1.4843 C   0  0  0  0  0  0  0  0  0  0  0  0
   -4.2310    0.3636    0.1444 C   0  0  0  0  0  0  0  0  0  0  0  0
   -3.1038    0.0943   -0.7753 C   0  0  0  0  0  0  0  0  0  0  0  0
   -1.8715   -0.3700   -0.3510 C   0  0  0  0  0  0  0  0  0  0  0  0
   -0.8721   -0.5781   -1.3031 C   0  0  0  0  0  0  0  0  0  0  0  0
    0.4466   -1.0067   -0.7823 C   0  0  0  0  0  0  0  0  0  0  0  0
    0.4973   -2.0202   -0.0990 O   0  0  0  0  0  0  0  0  0  0  0  0
    1.4797   -0.1406   -1.0870 N   0  0  0  0  0  0  0  0  0  0  0  0
    2.8428   -0.2907   -0.7626 C   0  0  0  0  0  0  0  0  0  0  0  0
    3.7031    0.7590   -1.1159 C   0  0  0  0  0  0  0  0  0  0  0  0
    5.0705    0.6878   -0.8355 C   0  0  0  0  0  0  0  0  0  0  0  0
    5.5807   -0.4429   -0.1966 C   0  0  0  0  0  0  0  0  0  0  0  0
    7.3235   -0.5520    0.1660 S   0  0  0  0  0  6  0  0  0  0  0  0
    7.6778   -1.9504    0.0789 O   0  0  0  0  0  0  0  0  0  0  0  0
    7.9784    0.4735   -0.6151 O   0  0  0  0  0  0  0  0  0  0  0  0
    7.3184   -0.0887    1.7668 N   0  0  0  0  0  0  0  0  0  0  0  0
    8.4877   -0.0115    2.5366 C   0  0  0  0  0  0  0  0  0  0  0  0
    8.2502    0.4017    3.9619 C   0  0  0  0  0  0  0  0  0  0  0  0
    9.6035   -0.2554    2.1043 O   0  0  0  0  0  0  0  0  0  0  0  0
    4.7411   -1.5046    0.1447 C   0  0  0  0  0  0  0  0  0  0  0  0
    3.3730   -1.4218   -0.1350 C   0  0  0  0  0  0  0  0  0  0  0  0
   -1.1147   -0.3767   -2.6785 C   0  0  0  0  0  0  0  0  0  0  0  0
   -0.1870   -0.6359   -3.7214 C   0  0  0  0  0  0  0  0  0  0  0  0
   -0.5174   -0.3949   -5.0534 C   0  0  0  0  0  0  0  0  0  0  0  0
   -1.7758    0.0978   -5.3649 C   0  0  0  0  0  0  0  0  0  0  0  0
   -2.6982    0.3339   -4.3432 C   0  0  0  0  0  0  0  0  0  0  0  0
   -2.3955    0.0982   -3.0087 C   0  0  0  0  0  0  0  0  0  0  0  0
   -3.3464    0.3332   -2.0892 N   0  0  0  0  0  0  0  0  0  0  0  0
   -5.5611    0.2510   -0.3007 C   0  0  0  0  0  0  0  0  0  0  0  0
   -6.6450    0.4958    0.5498 C   0  0  0  0  0  0  0  0  0  0  0  0
   -7.2214   -0.5676    4.1189 H   0  0  0  0  0  0  0  0  0  0  0  0
   -8.8785    0.0587    4.1771 H   0  0  0  0  0  0  0  0  0  0  0  0
   -8.3470   -0.9193    2.7979 H   0  0  0  0  0  0  0  0  0  0  0  0
   -7.3255    1.8837    3.5406 H   0  0  0  0  0  0  0  0  0  0  0  0
   -8.4371    1.5341    2.2321 H   0  0  0  0  0  0  0  0  0  0  0  0
   -4.9238    1.2802    3.3704 H   0  0  0  0  0  0  0  0  0  0  0  0
   -3.0345    0.8720    1.8869 H   0  0  0  0  0  0  0  0  0  0  0  0
   -1.6735   -0.5812    0.6950 H   0  0  0  0  0  0  0  0  0  0  0  0
    1.2295    0.7093   -1.5801 H   0  0  0  0  0  0  0  0  0  0  0  0
    3.3227    1.6460   -1.6174 H   0  0  0  0  0  0  0  0  0  0  0  0
    5.7236    1.5091   -1.1245 H   0  0  0  0  0  0  0  0  0  0  0  0
    6.4155    0.1195    2.1773 H   0  0  0  0  0  0  0  0  0  0  0  0
    9.2035    0.4558    4.4945 H   0  0  0  0  0  0  0  0  0  0  0  0
    7.7745    1.3858    3.9871 H   0  0  0  0  0  0  0  0  0  0  0  0
    7.6085   -0.3325    4.4563 H   0  0  0  0  0  0  0  0  0  0  0  0
    5.1378   -2.4023    0.6156 H   0  0  0  0  0  0  0  0  0  0  0  0
    2.7482   -2.2685    0.1358 H   0  0  0  0  0  0  0  0  0  0  0  0
    0.7962   -1.0510   -3.5067 H   0  0  0  0  0  0  0  0  0  0  0  0
    0.2012   -0.6015   -5.8429 H   0  0  0  0  0  0  0  0  0  0  0  0
   -2.0513    0.2879   -6.3993 H   0  0  0  0  0  0  0  0  0  0  0  0
   -3.6885    0.7070   -4.5971 H   0  0  0  0  0  0  0  0  0  0  0  0
   -5.7635   -0.0390   -1.3311 H   0  0  0  0  0  0  0  0  0  0  0  0
   -7.6556    0.3884    0.1625 H   0  0  0  0  0  0  0  0  0  0  0  0
  1  2  1  0
  2  3  1  0
  3  4  2  0
  4  5  1  0
  5  6  2  0
  6  7  1  0
  7  8  2  0
  8  9  1  0
  9 10  1  0
 10 11  2  0
 10 12  1  0
 12 13  1  0
 13 14  2  0
 14 15  1  0
 15 16  2  0
 16 17  1  0
 17 18  2  0
 17 19  2  0
 17 20  1  0
 20 21  1  0
 21 22  1  0
 21 23  2  0
 16 24  1  0
 24 25  2  0
  9 26  2  0
 26 27  1  0
 27 28  2  0
 28 29  1  0
 29 30  2  0
 30 31  1  0
 31 32  2  0
  6 33  1  0
 33 34  2  0
 34  3  1  0
 32  7  1  0
 25 13  1  0
 31 26  1  0
  1 35  1  0
  1 36  1  0
  1 37  1  0
  2 38  1  0
  2 39  1  0
  4 40  1  0
  5 41  1  0
  8 42  1  0
 12 43  1  0
 14 44  1  0
 15 45  1  0
 20 46  1  0
 22 47  1  0
 22 48  1  0
 22 49  1  0
 24 50  1  0
 25 51  1  0
 27 52  1  0
 28 53  1  0
 29 54  1  0
 30 55  1  0
 33 56  1  0
 34 57  1  0
M  END
$$$$
