
     RDKit          3D

 38 40  0  0  0  0  0  0  0  0999 V2000
   -3.8160    1.4043   -1.0662 C   0  0  0  0  0  0  0  0  0  0  0  0
   -3.1707    0.1061   -1.4618 C   0  0  0  0  0  0  0  0  0  0  0  0
   -3.0324   -0.1795   -2.8318 C   0  0  0  0  0  0  0  0  0  0  0  0
   -2.4571   -1.3750   -3.2543 C   0  0  0  0  0  0  0  0  0  0  0  0
   -2.3332   -1.6181   -4.5653 F   0  0  0  0  0  0  0  0  0  0  0  0
   -2.0136   -2.3185   -2.3392 C   0  0  0  0  0  0  0  0  0  0  0  0
   -2.1500   -2.0647   -0.9755 C   0  0  0  0  0  0  0  0  0  0  0  0
   -2.7227   -0.8578   -0.5342 C   0  0  0  0  0  0  0  0  0  0  0  0
   -2.8636   -0.6149    1.2311 S   0  0  0  0  0  6  0  0  0  0  0  0
   -4.1550   -0.0188    1.4990 O   0  0  0  0  0  0  0  0  0  0  0  0
   -2.4655   -1.8319    1.9061 O   0  0  0  0  0  0  0  0  0  0  0  0
   -1.7086    0.5851    1.5425 N   0  0  0  0  0  0  0  0  0  0  0  0
   -0.3438    0.1894    1.6057 C   0  0  0  0  0  0  0  0  0  0  0  0
    0.2031   -0.2258    2.8172 C   0  0  0  0  0  0  0  0  0  0  0  0
    1.5274   -0.6580    2.8621 C   0  0  0  0  0  0  0  0  0  0  0  0
    2.2970   -0.6734    1.6988 C   0  0  0  0  0  0  0  0  0  0  0  0
    3.5857   -1.1071    1.8456 O   0  0  0  0  0  0  0  0  0  0  0  0
    1.7537   -0.2735    0.4693 C   0  0  0  0  0  0  0  0  0  0  0  0
    2.6228   -0.3664   -1.0886 S   0  0  0  0  0  0  0  0  0  0  0  0
    3.9218    0.7654   -0.8562 C   0  0  0  0  0  0  0  0  0  0  0  0
    4.8623    0.6068    0.1297 N   0  0  0  0  0  0  0  0  0  0  0  0
    5.6575    1.6348   -0.0584 C   0  0  0  0  0  0  0  0  0  0  0  0
    5.2134    2.3658   -1.1153 N   0  0  0  0  0  0  0  0  0  0  0  0
    4.1052    1.8259   -1.6460 N   0  0  0  0  0  0  0  0  0  0  0  0
    0.4188    0.1549    0.4368 C   0  0  0  0  0  0  0  0  0  0  0  0
   -3.8841    2.0881   -1.9198 H   0  0  0  0  0  0  0  0  0  0  0  0
   -4.8331    1.2285   -0.7040 H   0  0  0  0  0  0  0  0  0  0  0  0
   -3.2308    1.9227   -0.3022 H   0  0  0  0  0  0  0  0  0  0  0  0
   -3.3714    0.5244   -3.5880 H   0  0  0  0  0  0  0  0  0  0  0  0
   -1.5694   -3.2444   -2.6910 H   0  0  0  0  0  0  0  0  0  0  0  0
   -1.8030   -2.8115   -0.2630 H   0  0  0  0  0  0  0  0  0  0  0  0
   -2.0463    1.2166    2.2685 H   0  0  0  0  0  0  0  0  0  0  0  0
   -0.3942   -0.2386    3.7246 H   0  0  0  0  0  0  0  0  0  0  0  0
    1.9617   -0.9905    3.8015 H   0  0  0  0  0  0  0  0  0  0  0  0
    4.1220   -0.7205    1.1214 H   0  0  0  0  0  0  0  0  0  0  0  0
    6.5378    1.8907    0.5145 H   0  0  0  0  0  0  0  0  0  0  0  0
    5.6008    3.2110   -1.5209 H   0  0  0  0  0  0  0  0  0  0  0  0
   -0.0266    0.4685   -0.5043 H   0  0  0  0  0  0  0  0  0  0  0  0
  1  2  1  0
  2  3  2  0
  3  4  1  0
  4  5  1  0
  4  6  2  0
  6  7  1  0
  7  8  2  0
  8  9  1  0
  9 10  2  0
  9 11  2  0
  9 12  1  0
 12 13  1  0
 13 14  2  0
 14 15  1  0
 15 16  2  0
 16 17  1  0
 16 18  1  0
 18 19  1  0
 19 20  1  0
 20 21  1  0
 21 22  2  0
 22 23  1  0
 23 24  1  0
 18 25  2  0
  8  2  1  0
 25 13  1  0
 24 20  2  0
  1 26  1  0
  1 27  1  0
  1 28  1  0
  3 29  1  0
  6 30  1  0
  7 31  1  0
 12 32  1  0
 14 33  1  0
 15 34  1  0
 17 35  1  0
 22 36  1  0
 23 37  1  0
 25 38  1  0
M  END
$$$$
