
     RDKit          3D

 33 34  0  0  0  0  0  0  0  0999 V2000
   -0.1948   -3.5183    1.4756 O   0  0  0  0  0  0  0  0  0  0  0  0
   -0.3435   -2.8195    0.4821 C   0  0  0  0  0  0  0  0  0  0  0  0
   -1.4582   -3.0783   -0.4615 C   0  0  0  0  0  0  0  0  0  0  0  0
   -2.2648   -2.1588   -1.0179 C   0  0  0  0  0  0  0  0  0  0  0  0
   -2.2192   -0.7020   -0.7860 C   0  0  0  0  0  0  0  0  0  0  0  0
   -2.8513   -0.1229    0.3298 C   0  0  0  0  0  0  0  0  0  0  0  0
   -3.7451   -1.0699    1.4707 Cl  0  0  0  0  0  0  0  0  0  0  0  0
   -2.7926    1.2579    0.5535 C   0  0  0  0  0  0  0  0  0  0  0  0
   -2.1033    2.0840   -0.3311 C   0  0  0  0  0  0  0  0  0  0  0  0
   -1.4742    1.5313   -1.4431 C   0  0  0  0  0  0  0  0  0  0  0  0
   -1.5344    0.1522   -1.6714 C   0  0  0  0  0  0  0  0  0  0  0  0
   -0.7036   -0.4593   -3.0632 Cl  0  0  0  0  0  0  0  0  0  0  0  0
    0.5027   -1.8206    0.0977 N   0  0  0  0  0  0  0  0  0  0  0  0
    1.6584   -1.4514    0.8746 C   0  0  0  0  0  0  0  0  0  0  0  0
    2.0273   -0.0200    0.5886 C   0  0  0  0  0  0  0  0  0  0  0  0
    1.3773    1.0230    1.2643 C   0  0  0  0  0  0  0  0  0  0  0  0
    1.6825    2.3532    0.9740 C   0  0  0  0  0  0  0  0  0  0  0  0
    2.6328    2.6535    0.0000 C   0  0  0  0  0  0  0  0  0  0  0  0
    3.2768    1.6251   -0.6860 C   0  0  0  0  0  0  0  0  0  0  0  0
    2.9736    0.2938   -0.3965 C   0  0  0  0  0  0  0  0  0  0  0  0
   -1.6445   -4.1343   -0.6320 H   0  0  0  0  0  0  0  0  0  0  0  0
   -3.0697   -2.4871   -1.6721 H   0  0  0  0  0  0  0  0  0  0  0  0
   -3.2837    1.6941    1.4206 H   0  0  0  0  0  0  0  0  0  0  0  0
   -2.0521    3.1551   -0.1517 H   0  0  0  0  0  0  0  0  0  0  0  0
   -0.9274    2.1786   -2.1253 H   0  0  0  0  0  0  0  0  0  0  0  0
    0.4241   -1.4412   -0.8360 H   0  0  0  0  0  0  0  0  0  0  0  0
    2.4767   -2.1278    0.6038 H   0  0  0  0  0  0  0  0  0  0  0  0
    1.4602   -1.5950    1.9429 H   0  0  0  0  0  0  0  0  0  0  0  0
    0.6243    0.7987    2.0174 H   0  0  0  0  0  0  0  0  0  0  0  0
    1.1777    3.1544    1.5071 H   0  0  0  0  0  0  0  0  0  0  0  0
    2.8722    3.6894   -0.2247 H   0  0  0  0  0  0  0  0  0  0  0  0
    4.0162    1.8600   -1.4475 H   0  0  0  0  0  0  0  0  0  0  0  0
    3.4793   -0.4977   -0.9452 H   0  0  0  0  0  0  0  0  0  0  0  0
  1  2  2  0
  2  3  1  0
  3  4  2  3
  4  5  1  0
  5  6  2  0
  6  7  1  0
  6  8  1  0
  8  9  2  0
  9 10  1  0
 10 11  2  0
 11 12  1  0
  2 13  1  0
 13 14  1  0
 14 15  1  0
 15 16  2  0
 16 17  1  0
 17 18  2  0
 18 19  1  0
 19 20  2  0
 11  5  1  0
 20 15  1  0
  3 21  1  0
  4 22  1  0
  8 23  1  0
  9 24  1  0
 10 25  1  0
 13 26  1  0
 14 27  1  0
 14 28  1  0
 16 29  1  0
 17 30  1  0
 18 31  1  0
 19 32  1  0
 20 33  1  0
M  END
$$$$
