
     RDKit          3D

 48 49  0  0  0  0  0  0  0  0999 V2000
   -6.1747    1.3103    1.2870 C   0  0  0  0  0  0  0  0  0  0  0  0
   -4.8818    1.2148    0.5320 C   0  0  0  0  0  0  0  0  0  0  0  0
   -4.3056    2.3512   -0.0336 C   0  0  0  0  0  0  0  0  0  0  0  0
   -3.0910    2.2557   -0.7101 C   0  0  0  0  0  0  0  0  0  0  0  0
   -2.4223    1.0245   -0.8266 C   0  0  0  0  0  0  0  0  0  0  0  0
   -1.1140    0.9984   -1.5712 C   0  0  0  0  0  0  0  0  0  0  0  0
   -2.9842   -0.1282   -0.2347 C   0  0  0  0  0  0  0  0  0  0  0  0
   -2.2923   -1.3582   -0.3428 N   0  0  0  0  0  0  0  0  0  0  0  0
   -2.6443   -2.5884    0.1791 C   0  0  0  0  0  0  0  0  0  0  0  0
   -3.6169   -2.8473    0.8807 O   0  0  0  0  0  0  0  0  0  0  0  0
   -1.6536   -3.6850   -0.1724 C   0  0  0  0  0  0  0  0  0  0  0  0
   -0.4454   -3.6527    0.7557 C   0  0  0  0  0  0  0  0  0  0  0  0
    0.5754   -2.6113    0.3365 C   0  0  0  0  0  0  0  0  0  0  0  0
    0.4046   -1.8836   -0.6402 O   0  0  0  0  0  0  0  0  0  0  0  0
    1.6716   -2.5871    1.1947 N   0  0  0  0  0  0  0  0  0  0  0  0
    2.7988   -1.8379    0.9746 N   0  0  0  0  0  0  0  0  0  0  0  0
    2.6310   -0.6157    0.5790 C   0  0  0  0  0  0  0  0  0  0  0  0
    3.7425    0.3037    0.2378 C   0  0  0  0  0  0  0  0  0  0  0  0
    3.3757    1.5176   -0.3623 C   0  0  0  0  0  0  0  0  0  0  0  0
    4.3662    2.4395   -0.7266 C   0  0  0  0  0  0  0  0  0  0  0  0
    3.9808    3.7075   -1.3594 N   0  0  0  0  0  4  0  0  0  0  0  0
    4.8846    4.5026   -1.6520 O   0  0  0  0  0  0  0  0  0  0  0  0
    2.7746    3.9055   -1.5616 O   0  0  0  0  0  1  0  0  0  0  0  0
    5.7189    2.1628   -0.4946 C   0  0  0  0  0  0  0  0  0  0  0  0
    6.0807    0.9551    0.1066 C   0  0  0  0  0  0  0  0  0  0  0  0
    5.0976    0.0292    0.4723 C   0  0  0  0  0  0  0  0  0  0  0  0
    5.4858   -1.1320    1.0745 O   0  0  0  0  0  0  0  0  0  0  0  0
   -4.2090   -0.0135    0.4365 C   0  0  0  0  0  0  0  0  0  0  0  0
   -6.7563    0.3882    1.1828 H   0  0  0  0  0  0  0  0  0  0  0  0
   -5.9760    1.4865    2.3486 H   0  0  0  0  0  0  0  0  0  0  0  0
   -6.7931    2.1283    0.9030 H   0  0  0  0  0  0  0  0  0  0  0  0
   -4.7987    3.3173    0.0449 H   0  0  0  0  0  0  0  0  0  0  0  0
   -2.6660    3.1560   -1.1494 H   0  0  0  0  0  0  0  0  0  0  0  0
   -1.1428    0.2561   -2.3753 H   0  0  0  0  0  0  0  0  0  0  0  0
   -0.8942    1.9658   -2.0357 H   0  0  0  0  0  0  0  0  0  0  0  0
   -0.2949    0.7709   -0.8833 H   0  0  0  0  0  0  0  0  0  0  0  0
   -1.3972   -1.3285   -0.8294 H   0  0  0  0  0  0  0  0  0  0  0  0
   -1.3737   -3.6091   -1.2292 H   0  0  0  0  0  0  0  0  0  0  0  0
   -2.1766   -4.6422   -0.0568 H   0  0  0  0  0  0  0  0  0  0  0  0
    0.0509   -4.6299    0.7249 H   0  0  0  0  0  0  0  0  0  0  0  0
   -0.7504   -3.4512    1.7891 H   0  0  0  0  0  0  0  0  0  0  0  0
    1.8585   -3.4261    1.7374 H   0  0  0  0  0  0  0  0  0  0  0  0
    1.6200   -0.1811    0.4872 H   0  0  0  0  0  0  0  0  0  0  0  0
    2.3256    1.7345   -0.5501 H   0  0  0  0  0  0  0  0  0  0  0  0
    6.4975    2.8717   -0.7720 H   0  0  0  0  0  0  0  0  0  0  0  0
    7.1337    0.7533    0.2870 H   0  0  0  0  0  0  0  0  0  0  0  0
    6.4534   -1.1874    1.1157 H   0  0  0  0  0  0  0  0  0  0  0  0
   -4.6733   -0.8775    0.9020 H   0  0  0  0  0  0  0  0  0  0  0  0
  1  2  1  0
  2  3  2  0
  3  4  1  0
  4  5  2  0
  5  6  1  0
  5  7  1  0
  7  8  1  0
  8  9  1  0
  9 10  2  0
  9 11  1  0
 11 12  1  0
 12 13  1  0
 13 14  2  0
 13 15  1  0
 15 16  1  0
 16 17  2  3
 17 18  1  0
 18 19  2  0
 19 20  1  0
 20 21  1  0
 21 22  2  0
 21 23  1  0
 20 24  2  0
 24 25  1  0
 25 26  2  0
 26 27  1  0
  7 28  2  0
 28  2  1  0
 26 18  1  0
  1 29  1  0
  1 30  1  0
  1 31  1  0
  3 32  1  0
  4 33  1  0
  6 34  1  0
  6 35  1  0
  6 36  1  0
  8 37  1  0
 11 38  1  0
 11 39  1  0
 12 40  1  0
 12 41  1  0
 15 42  1  0
 17 43  1  0
 19 44  1  0
 24 45  1  0
 25 46  1  0
 27 47  1  0
 28 48  1  0
M  CHG  2  21   1  23  -1
M  END
$$$$
