
     RDKit          3D

 42 46  0  0  0  0  0  0  0  0999 V2000
    1.8438   -0.5005    1.4910 O   0  0  0  0  0  0  0  0  0  0  0  0
    2.0648   -0.3458    0.2943 C   0  0  0  0  0  0  0  0  0  0  0  0
    1.1076   -0.3177   -0.6967 O   0  0  0  0  0  0  0  0  0  0  0  0
   -0.2082   -0.3352   -0.2023 C   0  0  0  0  0  0  0  0  0  0  0  0
   -0.8690    0.7890    0.1703 C   0  0  0  0  0  0  0  0  0  0  0  0
   -0.1989    2.0984    0.0860 C   0  0  0  0  0  0  0  0  0  0  0  0
    0.4086    2.6528    1.2194 C   0  0  0  0  0  0  0  0  0  0  0  0
    1.0798    3.8733    1.1313 C   0  0  0  0  0  0  0  0  0  0  0  0
    1.1467    4.5470   -0.0875 C   0  0  0  0  0  0  0  0  0  0  0  0
    0.5423    4.0027   -1.2201 C   0  0  0  0  0  0  0  0  0  0  0  0
   -0.1279    2.7810   -1.1355 C   0  0  0  0  0  0  0  0  0  0  0  0
   -2.2961    0.7146    0.6793 C   0  0  0  0  0  0  0  0  0  0  0  0
   -2.9095    1.7170    1.0360 O   0  0  0  0  0  0  0  0  0  0  0  0
   -2.8476   -0.5396    0.6988 N   0  0  0  0  0  0  0  0  0  0  0  0
   -2.1660   -1.6688    0.2842 C   0  0  0  0  0  0  0  0  0  0  0  0
   -2.9519   -2.8044    0.3897 C   0  0  0  0  0  0  0  0  0  0  0  0
   -2.4262   -4.0225    0.0092 C   0  0  0  0  0  0  0  0  0  0  0  0
   -1.1072   -4.0523   -0.4722 C   0  0  0  0  0  0  0  0  0  0  0  0
   -0.3312   -2.8751   -0.5673 C   0  0  0  0  0  0  0  0  0  0  0  0
   -0.8672   -1.6473   -0.1792 C   0  0  0  0  0  0  0  0  0  0  0  0
   -4.3023   -2.4489    0.9331 C   0  0  0  0  0  0  0  0  0  0  0  0
   -4.1931   -0.9155    1.1279 C   0  0  0  0  0  0  0  0  0  0  0  0
    3.3680   -0.1840   -0.3106 C   0  0  0  0  0  0  0  0  0  0  0  0
    3.7760    0.0490   -1.6139 C   0  0  0  0  0  0  0  0  0  0  0  0
    5.1903    0.1181   -1.5974 C   0  0  0  0  0  0  0  0  0  0  0  0
    5.5656   -0.0760   -0.2904 C   0  0  0  0  0  0  0  0  0  0  0  0
    4.4750   -0.2601    0.4950 O   0  0  0  0  0  0  0  0  0  0  0  0
    0.3665    2.1345    2.1757 H   0  0  0  0  0  0  0  0  0  0  0  0
    1.5479    4.2981    2.0157 H   0  0  0  0  0  0  0  0  0  0  0  0
    1.6656    5.4999   -0.1525 H   0  0  0  0  0  0  0  0  0  0  0  0
    0.5888    4.5325   -2.1679 H   0  0  0  0  0  0  0  0  0  0  0  0
   -0.5981    2.3687   -2.0250 H   0  0  0  0  0  0  0  0  0  0  0  0
   -3.0093   -4.9353    0.0789 H   0  0  0  0  0  0  0  0  0  0  0  0
   -0.6710   -5.0024   -0.7757 H   0  0  0  0  0  0  0  0  0  0  0  0
    0.6862   -2.9452   -0.9426 H   0  0  0  0  0  0  0  0  0  0  0  0
   -4.4912   -2.9514    1.8866 H   0  0  0  0  0  0  0  0  0  0  0  0
   -5.0948   -2.6966    0.2204 H   0  0  0  0  0  0  0  0  0  0  0  0
   -4.3290   -0.6247    2.1754 H   0  0  0  0  0  0  0  0  0  0  0  0
   -4.9271   -0.3722    0.5227 H   0  0  0  0  0  0  0  0  0  0  0  0
    3.1262    0.1621   -2.4712 H   0  0  0  0  0  0  0  0  0  0  0  0
    5.8542    0.2914   -2.4329 H   0  0  0  0  0  0  0  0  0  0  0  0
    6.5186   -0.1088    0.2198 H   0  0  0  0  0  0  0  0  0  0  0  0
  1  2  2  0
  2  3  1  0
  3  4  1  0
  4  5  2  0
  5  6  1  0
  6  7  2  0
  7  8  1  0
  8  9  2  0
  9 10  1  0
 10 11  2  0
  5 12  1  0
 12 13  2  0
 12 14  1  0
 14 15  1  0
 15 16  2  0
 16 17  1  0
 17 18  2  0
 18 19  1  0
 19 20  2  0
 16 21  1  0
 21 22  1  0
  2 23  1  0
 23 24  2  0
 24 25  1  0
 25 26  2  0
 26 27  1  0
 20  4  1  0
 27 23  1  0
 11  6  1  0
 22 14  1  0
 20 15  1  0
  7 28  1  0
  8 29  1  0
  9 30  1  0
 10 31  1  0
 11 32  1  0
 17 33  1  0
 18 34  1  0
 19 35  1  0
 21 36  1  0
 21 37  1  0
 22 38  1  0
 22 39  1  0
 24 40  1  0
 25 41  1  0
 26 42  1  0
M  END
$$$$
