
     RDKit          3D

 38 40  0  0  0  0  0  0  0  0999 V2000
   -3.3807    3.5540   -1.6271 C   0  0  0  0  0  0  0  0  0  0  0  0
   -3.2308    2.2583   -0.8846 C   0  0  0  0  0  0  0  0  0  0  0  0
   -2.8980    1.0839   -1.5739 C   0  0  0  0  0  0  0  0  0  0  0  0
   -2.7264   -0.1170   -0.8840 C   0  0  0  0  0  0  0  0  0  0  0  0
   -2.8664   -0.1369    0.5057 C   0  0  0  0  0  0  0  0  0  0  0  0
   -2.6437   -1.6562    1.3925 S   0  0  0  0  0  6  0  0  0  0  0  0
   -2.6283   -2.7562    0.4528 O   0  0  0  0  0  0  0  0  0  0  0  0
   -3.5655   -1.6470    2.5099 O   0  0  0  0  0  0  0  0  0  0  0  0
   -1.1001   -1.4719    2.0654 N   0  0  0  0  0  0  0  0  0  0  0  0
    0.0229   -1.7022    1.2242 C   0  0  0  0  0  0  0  0  0  0  0  0
    0.5496   -2.9857    1.1045 C   0  0  0  0  0  0  0  0  0  0  0  0
    1.6220   -3.2116    0.2434 C   0  0  0  0  0  0  0  0  0  0  0  0
    2.1613   -2.1562   -0.4922 C   0  0  0  0  0  0  0  0  0  0  0  0
    3.2154   -2.4756   -1.3032 O   0  0  0  0  0  0  0  0  0  0  0  0
    1.6299   -0.8621   -0.3936 C   0  0  0  0  0  0  0  0  0  0  0  0
    2.1768    0.5240   -1.3794 S   0  0  0  0  0  0  0  0  0  0  0  0
    3.8140    0.7423   -0.8369 C   0  0  0  0  0  0  0  0  0  0  0  0
    4.7629   -0.2409   -0.9599 N   0  0  0  0  0  0  0  0  0  0  0  0
    5.8389    0.3298   -0.4690 C   0  0  0  0  0  0  0  0  0  0  0  0
    5.5440    1.5993   -0.0822 N   0  0  0  0  0  0  0  0  0  0  0  0
    4.2545    1.8893   -0.3147 N   0  0  0  0  0  0  0  0  0  0  0  0
    0.5485   -0.6489    0.4733 C   0  0  0  0  0  0  0  0  0  0  0  0
   -3.1982    1.0248    1.2069 C   0  0  0  0  0  0  0  0  0  0  0  0
   -3.3705    2.2216    0.5099 C   0  0  0  0  0  0  0  0  0  0  0  0
   -2.4137    4.0622   -1.6906 H   0  0  0  0  0  0  0  0  0  0  0  0
   -4.0950    4.2131   -1.1225 H   0  0  0  0  0  0  0  0  0  0  0  0
   -3.7581    3.3819   -2.6405 H   0  0  0  0  0  0  0  0  0  0  0  0
   -2.7723    1.0982   -2.6548 H   0  0  0  0  0  0  0  0  0  0  0  0
   -2.4740   -1.0220   -1.4326 H   0  0  0  0  0  0  0  0  0  0  0  0
   -1.0747   -1.8706    3.0034 H   0  0  0  0  0  0  0  0  0  0  0  0
    0.1226   -3.8180    1.6568 H   0  0  0  0  0  0  0  0  0  0  0  0
    2.0360   -4.2110    0.1377 H   0  0  0  0  0  0  0  0  0  0  0  0
    3.7483   -1.6643   -1.4419 H   0  0  0  0  0  0  0  0  0  0  0  0
    6.8225   -0.1084   -0.3738 H   0  0  0  0  0  0  0  0  0  0  0  0
    6.1477    2.3028    0.3295 H   0  0  0  0  0  0  0  0  0  0  0  0
    0.1149    0.3443    0.5662 H   0  0  0  0  0  0  0  0  0  0  0  0
   -3.3182    1.0059    2.2876 H   0  0  0  0  0  0  0  0  0  0  0  0
   -3.6180    3.1272    1.0602 H   0  0  0  0  0  0  0  0  0  0  0  0
  1  2  1  0
  2  3  2  0
  3  4  1  0
  4  5  2  0
  5  6  1  0
  6  7  2  0
  6  8  2  0
  6  9  1  0
  9 10  1  0
 10 11  2  0
 11 12  1  0
 12 13  2  0
 13 14  1  0
 13 15  1  0
 15 16  1  0
 16 17  1  0
 17 18  1  0
 18 19  2  0
 19 20  1  0
 20 21  1  0
 15 22  2  0
  5 23  1  0
 23 24  2  0
 24  2  1  0
 22 10  1  0
 21 17  2  0
  1 25  1  0
  1 26  1  0
  1 27  1  0
  3 28  1  0
  4 29  1  0
  9 30  1  0
 11 31  1  0
 12 32  1  0
 14 33  1  0
 19 34  1  0
 20 35  1  0
 22 36  1  0
 23 37  1  0
 24 38  1  0
M  END
$$$$
