
     RDKit          3D

 39 41  0  0  0  0  0  0  0  0999 V2000
   -1.4409   -0.0169   -2.4130 C   0  0  0  0  0  0  0  0  0  0  0  0
   -1.4302   -0.9951   -1.3786 O   0  0  0  0  0  0  0  0  0  0  0  0
   -2.3288   -0.8373   -0.3546 C   0  0  0  0  0  0  0  0  0  0  0  0
   -3.2496    0.2085   -0.2443 C   0  0  0  0  0  0  0  0  0  0  0  0
   -4.1250    0.2761    0.8534 C   0  0  0  0  0  0  0  0  0  0  0  0
   -5.1299    1.3860    0.9646 C   0  0  0  0  0  0  0  0  0  0  0  0
   -4.0952   -0.7333    1.8218 C   0  0  0  0  0  0  0  0  0  0  0  0
   -3.1791   -1.7795    1.7207 C   0  0  0  0  0  0  0  0  0  0  0  0
   -2.2803   -1.8131    0.6535 C   0  0  0  0  0  0  0  0  0  0  0  0
   -1.3763   -2.8406    0.5217 O   0  0  0  0  0  0  0  0  0  0  0  0
   -0.4237   -2.8876    1.5810 C   0  0  0  0  0  0  0  0  0  0  0  0
    0.7035   -1.8439    1.5176 C   0  0  0  0  0  0  0  0  0  0  0  0
    1.3269   -1.5441    2.5325 O   0  0  0  0  0  0  0  0  0  0  0  0
    0.9294   -1.3796    0.2425 N   0  0  0  0  0  0  0  0  0  0  0  0
    1.8356   -0.4313   -0.1537 C   0  0  0  0  0  0  0  0  0  0  0  0
    1.9266   -0.0264   -1.4028 N   0  0  0  0  0  0  0  0  0  0  0  0
    2.8998    0.9395   -1.5675 N   0  0  0  0  0  0  0  0  0  0  0  0
    3.4992    1.2130   -0.4322 C   0  0  0  0  0  0  0  0  0  0  0  0
    4.6393    2.2684   -0.3229 C   0  0  0  0  0  0  0  0  0  0  0  0
    6.0490    1.8015   -0.0576 C   0  0  0  0  0  0  0  0  0  0  0  0
    5.6834    2.3448   -1.4079 C   0  0  0  0  0  0  0  0  0  0  0  0
    2.9273    0.3276    0.9121 S   0  0  0  0  0  0  0  0  0  0  0  0
   -1.1832    0.9723   -2.0190 H   0  0  0  0  0  0  0  0  0  0  0  0
   -0.6723   -0.2944   -3.1419 H   0  0  0  0  0  0  0  0  0  0  0  0
   -2.4057   -0.0026   -2.9310 H   0  0  0  0  0  0  0  0  0  0  0  0
   -3.3065    0.9859   -0.9972 H   0  0  0  0  0  0  0  0  0  0  0  0
   -5.1667    1.7690    1.9932 H   0  0  0  0  0  0  0  0  0  0  0  0
   -6.1245    1.0230    0.6821 H   0  0  0  0  0  0  0  0  0  0  0  0
   -4.8656    2.2248    0.3114 H   0  0  0  0  0  0  0  0  0  0  0  0
   -4.7905   -0.7108    2.6566 H   0  0  0  0  0  0  0  0  0  0  0  0
   -3.1877   -2.5686    2.4662 H   0  0  0  0  0  0  0  0  0  0  0  0
    0.0634   -3.8701    1.5225 H   0  0  0  0  0  0  0  0  0  0  0  0
   -0.9026   -2.8326    2.5662 H   0  0  0  0  0  0  0  0  0  0  0  0
    0.2848   -1.6705   -0.4909 H   0  0  0  0  0  0  0  0  0  0  0  0
    4.3280    3.2043    0.1299 H   0  0  0  0  0  0  0  0  0  0  0  0
    6.2373    0.7362    0.0281 H   0  0  0  0  0  0  0  0  0  0  0  0
    6.6695    2.4133    0.5852 H   0  0  0  0  0  0  0  0  0  0  0  0
    5.6138    1.6541   -2.2402 H   0  0  0  0  0  0  0  0  0  0  0  0
    6.0476    3.3299   -1.6801 H   0  0  0  0  0  0  0  0  0  0  0  0
  1  2  1  0
  2  3  1  0
  3  4  2  0
  4  5  1  0
  5  6  1  0
  5  7  2  0
  7  8  1  0
  8  9  2  0
  9 10  1  0
 10 11  1  0
 11 12  1  0
 12 13  2  0
 12 14  1  0
 14 15  1  0
 15 16  2  0
 16 17  1  0
 17 18  2  0
 18 19  1  0
 19 20  1  0
 20 21  1  0
 18 22  1  0
  9  3  1  0
 22 15  1  0
 21 19  1  0
  1 23  1  0
  1 24  1  0
  1 25  1  0
  4 26  1  0
  6 27  1  0
  6 28  1  0
  6 29  1  0
  7 30  1  0
  8 31  1  0
 11 32  1  0
 11 33  1  0
 14 34  1  0
 19 35  1  0
 20 36  1  0
 20 37  1  0
 21 38  1  0
 21 39  1  0
M  END
$$$$
