
     RDKit          3D

 59 62  0  0  0  0  0  0  0  0999 V2000
    8.3975   -1.3355   -1.0686 C   0  0  0  0  0  0  0  0  0  0  0  0
    7.1095   -0.9684   -0.3932 C   0  0  0  0  0  0  0  0  0  0  0  0
    6.3021   -1.9552    0.1773 C   0  0  0  0  0  0  0  0  0  0  0  0
    5.0859   -1.6162    0.7778 C   0  0  0  0  0  0  0  0  0  0  0  0
    4.6546   -0.2798    0.8236 C   0  0  0  0  0  0  0  0  0  0  0  0
    3.4016    0.0192    1.4439 N   0  0  0  0  0  0  0  0  0  0  0  0
    2.5252   -0.9988    1.6629 N   0  0  0  0  0  0  0  0  0  0  0  0
    1.3901   -0.4090    2.0402 C   0  0  0  0  0  0  0  0  0  0  0  0
    0.1261   -1.0732    2.3305 C   0  0  0  0  0  0  0  0  0  0  0  0
   -0.0528   -2.2829    2.2166 O   0  0  0  0  0  0  0  0  0  0  0  0
   -0.8720   -0.1742    2.7598 N   0  0  0  0  0  0  0  0  0  0  0  0
   -2.1890   -0.7094    3.1040 C   0  0  0  0  0  0  0  0  0  0  0  0
   -3.1489   -0.7227    1.9136 C   0  0  0  0  0  0  0  0  0  0  0  0
   -4.1788   -1.3939    1.9146 O   0  0  0  0  0  0  0  0  0  0  0  0
   -2.8358    0.1595    0.9010 N   0  0  0  0  0  0  0  0  0  0  0  0
   -3.7012    0.3673   -0.2417 C   0  0  0  0  0  0  0  0  0  0  0  0
   -3.6197   -0.7799   -1.2520 C   0  0  0  0  0  0  0  0  0  0  0  0
   -4.5290   -0.5439   -2.4384 C   0  0  0  0  0  0  0  0  0  0  0  0
   -4.0239    0.1650   -3.5429 C   0  0  0  0  0  0  0  0  0  0  0  0
   -4.8258    0.4276   -4.6527 C   0  0  0  0  0  0  0  0  0  0  0  0
   -6.1447   -0.0113   -4.6736 C   0  0  0  0  0  0  0  0  0  0  0  0
   -6.6620   -0.7134   -3.5851 C   0  0  0  0  0  0  0  0  0  0  0  0
   -5.8693   -0.9840   -2.4577 C   0  0  0  0  0  0  0  0  0  0  0  0
   -6.4691   -1.7575   -1.3140 C   0  0  0  0  0  0  0  0  0  0  0  0
   -0.7221    1.2180    2.8480 N   0  0  0  0  0  0  0  0  0  0  0  0
    0.4212    1.7888    2.5819 C   0  0  0  0  0  0  0  0  0  0  0  0
    0.5197    3.2829    2.7075 C   0  0  0  0  0  0  0  0  0  0  0  0
    1.5393    0.9754    2.1723 C   0  0  0  0  0  0  0  0  0  0  0  0
    2.8698    1.2370    1.8886 C   0  0  0  0  0  0  0  0  0  0  0  0
    3.6510    2.4890    2.0612 C   0  0  0  0  0  0  0  0  0  0  0  0
    5.4450    0.7007    0.2149 C   0  0  0  0  0  0  0  0  0  0  0  0
    6.6628    0.3568   -0.3861 C   0  0  0  0  0  0  0  0  0  0  0  0
    8.2171   -1.5591   -2.1250 H   0  0  0  0  0  0  0  0  0  0  0  0
    9.1210   -0.5169   -0.9986 H   0  0  0  0  0  0  0  0  0  0  0  0
    8.8519   -2.2114   -0.5936 H   0  0  0  0  0  0  0  0  0  0  0  0
    6.6098   -2.9988    0.1593 H   0  0  0  0  0  0  0  0  0  0  0  0
    4.4867   -2.4134    1.2165 H   0  0  0  0  0  0  0  0  0  0  0  0
   -2.6242   -0.0905    3.8954 H   0  0  0  0  0  0  0  0  0  0  0  0
   -2.0864   -1.7347    3.4729 H   0  0  0  0  0  0  0  0  0  0  0  0
   -2.0766    0.8089    1.0845 H   0  0  0  0  0  0  0  0  0  0  0  0
   -4.7259    0.4984    0.1236 H   0  0  0  0  0  0  0  0  0  0  0  0
   -3.3933    1.3108   -0.7064 H   0  0  0  0  0  0  0  0  0  0  0  0
   -2.5849   -0.8900   -1.6021 H   0  0  0  0  0  0  0  0  0  0  0  0
   -3.8552   -1.7392   -0.7779 H   0  0  0  0  0  0  0  0  0  0  0  0
   -2.9935    0.5137   -3.5450 H   0  0  0  0  0  0  0  0  0  0  0  0
   -4.4198    0.9715   -5.5015 H   0  0  0  0  0  0  0  0  0  0  0  0
   -6.7721    0.1884   -5.5380 H   0  0  0  0  0  0  0  0  0  0  0  0
   -7.6950   -1.0527   -3.6225 H   0  0  0  0  0  0  0  0  0  0  0  0
   -5.9802   -2.7320   -1.2195 H   0  0  0  0  0  0  0  0  0  0  0  0
   -7.5379   -1.9372   -1.4687 H   0  0  0  0  0  0  0  0  0  0  0  0
   -6.3680   -1.2040   -0.3762 H   0  0  0  0  0  0  0  0  0  0  0  0
    1.0890    3.5362    3.6057 H   0  0  0  0  0  0  0  0  0  0  0  0
    1.0103    3.7067    1.8275 H   0  0  0  0  0  0  0  0  0  0  0  0
   -0.4781    3.7228    2.7938 H   0  0  0  0  0  0  0  0  0  0  0  0
    3.6011    3.1061    1.1590 H   0  0  0  0  0  0  0  0  0  0  0  0
    4.6967    2.2893    2.3131 H   0  0  0  0  0  0  0  0  0  0  0  0
    3.2595    3.0805    2.8942 H   0  0  0  0  0  0  0  0  0  0  0  0
    5.1334    1.7350    0.1394 H   0  0  0  0  0  0  0  0  0  0  0  0
    7.2574    1.1338   -0.8622 H   0  0  0  0  0  0  0  0  0  0  0  0
  1  2  1  0
  2  3  2  0
  3  4  1  0
  4  5  2  0
  5  6  1  0
  6  7  1  0
  7  8  2  0
  8  9  1  0
  9 10  2  0
  9 11  1  0
 11 12  1  0
 12 13  1  0
 13 14  2  0
 13 15  1  0
 15 16  1  0
 16 17  1  0
 17 18  1  0
 18 19  2  0
 19 20  1  0
 20 21  2  0
 21 22  1  0
 22 23  2  0
 23 24  1  0
 11 25  1  0
 25 26  2  0
 26 27  1  0
 26 28  1  0
 28 29  2  0
 29 30  1  0
  5 31  1  0
 31 32  2  0
 32  2  1  0
 29  6  1  0
 28  8  1  0
 23 18  1  0
  1 33  1  0
  1 34  1  0
  1 35  1  0
  3 36  1  0
  4 37  1  0
 12 38  1  0
 12 39  1  0
 15 40  1  0
 16 41  1  0
 16 42  1  0
 17 43  1  0
 17 44  1  0
 19 45  1  0
 20 46  1  0
 21 47  1  0
 22 48  1  0
 24 49  1  0
 24 50  1  0
 24 51  1  0
 27 52  1  0
 27 53  1  0
 27 54  1  0
 30 55  1  0
 30 56  1  0
 30 57  1  0
 31 58  1  0
 32 59  1  0
M  END
$$$$
