
     RDKit          3D

 44 46  0  0  0  0  0  0  0  0999 V2000
   -3.9002    0.2442    2.2884 C   0  0  0  0  0  0  0  0  0  0  0  0
   -3.0110   -0.5764    1.3932 C   0  0  0  0  0  0  0  0  0  0  0  0
   -1.9479   -1.3013    1.9594 C   0  0  0  0  0  0  0  0  0  0  0  0
   -1.0764   -2.0859    1.1811 C   0  0  0  0  0  0  0  0  0  0  0  0
    0.0132   -2.8378    1.8904 C   0  0  0  0  0  0  0  0  0  0  0  0
   -1.2894   -2.1241   -0.2056 C   0  0  0  0  0  0  0  0  0  0  0  0
   -0.2582   -3.0397   -1.3494 S   0  0  0  0  0  6  0  0  0  0  0  0
   -1.1286   -3.5546   -2.3877 O   0  0  0  0  0  0  0  0  0  0  0  0
    0.6296   -3.9253   -0.6293 O   0  0  0  0  0  0  0  0  0  0  0  0
    0.6595   -1.8173   -2.0830 N   0  0  0  0  0  0  0  0  0  0  0  0
    1.4572   -0.9767   -1.2581 C   0  0  0  0  0  0  0  0  0  0  0  0
    2.6245   -1.4724   -0.6799 C   0  0  0  0  0  0  0  0  0  0  0  0
    3.3843   -0.6622    0.1642 C   0  0  0  0  0  0  0  0  0  0  0  0
    2.9654    0.6422    0.4304 C   0  0  0  0  0  0  0  0  0  0  0  0
    3.7076    1.4289    1.2690 O   0  0  0  0  0  0  0  0  0  0  0  0
    1.7914    1.1498   -0.1455 C   0  0  0  0  0  0  0  0  0  0  0  0
    1.2033    2.8030    0.1891 S   0  0  0  0  0  0  0  0  0  0  0  0
    2.1596    3.7588   -0.9157 C   0  0  0  0  0  0  0  0  0  0  0  0
    2.4632    5.0735   -0.6670 N   0  0  0  0  0  0  0  0  0  0  0  0
    3.1550    5.4270   -1.7233 C   0  0  0  0  0  0  0  0  0  0  0  0
    3.2434    4.3757   -2.5770 N   0  0  0  0  0  0  0  0  0  0  0  0
    2.5967    3.3029   -2.0979 N   0  0  0  0  0  0  0  0  0  0  0  0
    1.0362    0.3259   -0.9903 C   0  0  0  0  0  0  0  0  0  0  0  0
   -2.3675   -1.4221   -0.7777 C   0  0  0  0  0  0  0  0  0  0  0  0
   -3.2302   -0.6454    0.0077 C   0  0  0  0  0  0  0  0  0  0  0  0
   -4.3642    0.0943   -0.6477 C   0  0  0  0  0  0  0  0  0  0  0  0
   -3.9020    1.2911    1.9687 H   0  0  0  0  0  0  0  0  0  0  0  0
   -3.5568    0.2209    3.3280 H   0  0  0  0  0  0  0  0  0  0  0  0
   -4.9224   -0.1466    2.2683 H   0  0  0  0  0  0  0  0  0  0  0  0
   -1.7962   -1.2520    3.0380 H   0  0  0  0  0  0  0  0  0  0  0  0
    0.0197   -2.6160    2.9636 H   0  0  0  0  0  0  0  0  0  0  0  0
   -0.1402   -3.9165    1.7915 H   0  0  0  0  0  0  0  0  0  0  0  0
    0.9970   -2.5541    1.5104 H   0  0  0  0  0  0  0  0  0  0  0  0
    0.1481   -1.3744   -2.8448 H   0  0  0  0  0  0  0  0  0  0  0  0
    2.9465   -2.4917   -0.8824 H   0  0  0  0  0  0  0  0  0  0  0  0
    4.2899   -1.0659    0.6063 H   0  0  0  0  0  0  0  0  0  0  0  0
    4.4846    0.9331    1.5722 H   0  0  0  0  0  0  0  0  0  0  0  0
    3.5967    6.3939   -1.9165 H   0  0  0  0  0  0  0  0  0  0  0  0
    3.7046    4.3182   -3.4778 H   0  0  0  0  0  0  0  0  0  0  0  0
    0.1198    0.7071   -1.4321 H   0  0  0  0  0  0  0  0  0  0  0  0
   -2.5387   -1.4825   -1.8520 H   0  0  0  0  0  0  0  0  0  0  0  0
   -5.3219   -0.2236   -0.2237 H   0  0  0  0  0  0  0  0  0  0  0  0
   -4.4021   -0.0995   -1.7249 H   0  0  0  0  0  0  0  0  0  0  0  0
   -4.2433    1.1734   -0.5104 H   0  0  0  0  0  0  0  0  0  0  0  0
  1  2  1  0
  2  3  2  0
  3  4  1  0
  4  5  1  0
  4  6  2  0
  6  7  1  0
  7  8  2  0
  7  9  2  0
  7 10  1  0
 10 11  1  0
 11 12  2  0
 12 13  1  0
 13 14  2  0
 14 15  1  0
 14 16  1  0
 16 17  1  0
 17 18  1  0
 18 19  1  0
 19 20  2  0
 20 21  1  0
 21 22  1  0
 16 23  2  0
  6 24  1  0
 24 25  2  0
 25 26  1  0
 25  2  1  0
 23 11  1  0
 22 18  2  0
  1 27  1  0
  1 28  1  0
  1 29  1  0
  3 30  1  0
  5 31  1  0
  5 32  1  0
  5 33  1  0
 10 34  1  0
 12 35  1  0
 13 36  1  0
 15 37  1  0
 20 38  1  0
 21 39  1  0
 23 40  1  0
 24 41  1  0
 26 42  1  0
 26 43  1  0
 26 44  1  0
M  END
$$$$
