
     RDKit          3D

 56 58  0  0  0  0  0  0  0  0999 V2000
    0.8978   -1.0411    4.1226 C   0  0  0  0  0  0  0  0  0  0  0  0
    1.6768   -1.0618    2.9337 O   0  0  0  0  0  0  0  0  0  0  0  0
    1.0050   -1.0736    1.7372 C   0  0  0  0  0  0  0  0  0  0  0  0
   -0.3741   -0.8637    1.6024 C   0  0  0  0  0  0  0  0  0  0  0  0
   -0.9875   -0.8924    0.3414 C   0  0  0  0  0  0  0  0  0  0  0  0
   -2.4257   -0.6400    0.1634 C   0  0  0  0  0  0  0  0  0  0  0  0
   -3.3673   -1.0724    1.0180 C   0  0  0  0  0  0  0  0  0  0  0  0
   -4.8297   -0.8313    0.8833 C   0  0  0  0  0  0  0  0  0  0  0  0
   -5.6215   -1.3872    1.6379 O   0  0  0  0  0  0  0  0  0  0  0  0
   -5.3365    0.0681   -0.1666 C   0  0  0  0  0  0  0  0  0  0  0  0
   -5.1508    1.4627   -0.0666 C   0  0  0  0  0  0  0  0  0  0  0  0
   -4.4565    1.9111    1.0264 O   0  0  0  0  0  0  0  0  0  0  0  0
   -4.3398    3.3176    1.2118 C   0  0  0  0  0  0  0  0  0  0  0  0
   -5.6692    2.2964   -1.0718 C   0  0  0  0  0  0  0  0  0  0  0  0
   -6.3758    1.7581   -2.1522 C   0  0  0  0  0  0  0  0  0  0  0  0
   -6.5549    0.3849   -2.2163 C   0  0  0  0  0  0  0  0  0  0  0  0
   -7.2557   -0.1798   -3.2791 O   0  0  0  0  0  0  0  0  0  0  0  0
   -7.2708   -1.5581   -3.0838 C   0  0  0  0  0  0  0  0  0  0  0  0
   -7.8241   -2.3236   -3.8629 O   0  0  0  0  0  0  0  0  0  0  0  0
   -6.4262   -2.1320   -1.6434 S   0  0  0  0  0  0  0  0  0  0  0  0
   -6.0457   -0.4639   -1.2394 C   0  0  0  0  0  0  0  0  0  0  0  0
   -0.1953   -1.1025   -0.7911 C   0  0  0  0  0  0  0  0  0  0  0  0
    1.1831   -1.3007   -0.6694 C   0  0  0  0  0  0  0  0  0  0  0  0
    1.7902   -1.2788    0.5887 C   0  0  0  0  0  0  0  0  0  0  0  0
    3.1330   -1.4878    0.7869 O   0  0  0  0  0  0  0  0  0  0  0  0
    3.9958   -1.1435   -0.3033 C   0  0  0  0  0  0  0  0  0  0  0  0
    5.4221   -1.0884    0.2396 C   0  0  0  0  0  0  0  0  0  0  0  0
    6.4612   -0.7654   -0.8378 C   0  0  0  0  0  0  0  0  0  0  0  0
    6.2137    0.4914   -1.5683 N   0  0  0  0  0  0  0  0  0  0  0  0
    6.3425    1.6645   -0.6987 C   0  0  0  0  0  0  0  0  0  0  0  0
    7.1491    0.6078   -2.6933 C   0  0  0  0  0  0  0  0  0  0  0  0
    0.3742   -0.0863    4.2294 H   0  0  0  0  0  0  0  0  0  0  0  0
    1.5783   -1.1435    4.9715 H   0  0  0  0  0  0  0  0  0  0  0  0
    0.1982   -1.8810    4.1551 H   0  0  0  0  0  0  0  0  0  0  0  0
   -0.9863   -0.6553    2.4725 H   0  0  0  0  0  0  0  0  0  0  0  0
   -2.6849   -0.0768   -0.7286 H   0  0  0  0  0  0  0  0  0  0  0  0
   -3.1156   -1.6710    1.8893 H   0  0  0  0  0  0  0  0  0  0  0  0
   -3.8104    3.4876    2.1559 H   0  0  0  0  0  0  0  0  0  0  0  0
   -5.3246    3.7901    1.2912 H   0  0  0  0  0  0  0  0  0  0  0  0
   -3.7462    3.7696    0.4105 H   0  0  0  0  0  0  0  0  0  0  0  0
   -5.5403    3.3748   -1.0401 H   0  0  0  0  0  0  0  0  0  0  0  0
   -6.7793    2.4053   -2.9259 H   0  0  0  0  0  0  0  0  0  0  0  0
   -0.6416   -1.1257   -1.7826 H   0  0  0  0  0  0  0  0  0  0  0  0
    1.7566   -1.4844   -1.5715 H   0  0  0  0  0  0  0  0  0  0  0  0
    3.7127   -0.1676   -0.7210 H   0  0  0  0  0  0  0  0  0  0  0  0
    3.9307   -1.9173   -1.0800 H   0  0  0  0  0  0  0  0  0  0  0  0
    5.4743   -0.3733    1.0703 H   0  0  0  0  0  0  0  0  0  0  0  0
    5.6685   -2.0611    0.6879 H   0  0  0  0  0  0  0  0  0  0  0  0
    6.4554   -1.5982   -1.5550 H   0  0  0  0  0  0  0  0  0  0  0  0
    7.4598   -0.7543   -0.3804 H   0  0  0  0  0  0  0  0  0  0  0  0
    7.3352    1.7333   -0.2404 H   0  0  0  0  0  0  0  0  0  0  0  0
    5.5905    1.6577    0.0962 H   0  0  0  0  0  0  0  0  0  0  0  0
    6.1652    2.5839   -1.2701 H   0  0  0  0  0  0  0  0  0  0  0  0
    7.0292   -0.2339   -3.3856 H   0  0  0  0  0  0  0  0  0  0  0  0
    6.9441    1.5165   -3.2708 H   0  0  0  0  0  0  0  0  0  0  0  0
    8.1935    0.6364   -2.3608 H   0  0  0  0  0  0  0  0  0  0  0  0
  1  2  1  0
  2  3  1  0
  3  4  2  0
  4  5  1  0
  5  6  1  0
  6  7  2  0
  7  8  1  0
  8  9  2  0
  8 10  1  0
 10 11  2  0
 11 12  1  0
 12 13  1  0
 11 14  1  0
 14 15  2  0
 15 16  1  0
 16 17  1  0
 17 18  1  0
 18 19  2  0
 18 20  1  0
 20 21  1  0
  5 22  2  0
 22 23  1  0
 23 24  2  0
 24 25  1  0
 25 26  1  0
 26 27  1  0
 27 28  1  0
 28 29  1  0
 29 30  1  0
 29 31  1  0
 24  3  1  0
 21 10  1  0
 21 16  2  0
  1 32  1  0
  1 33  1  0
  1 34  1  0
  4 35  1  0
  6 36  1  0
  7 37  1  0
 13 38  1  0
 13 39  1  0
 13 40  1  0
 14 41  1  0
 15 42  1  0
 22 43  1  0
 23 44  1  0
 26 45  1  0
 26 46  1  0
 27 47  1  0
 27 48  1  0
 28 49  1  0
 28 50  1  0
 30 51  1  0
 30 52  1  0
 30 53  1  0
 31 54  1  0
 31 55  1  0
 31 56  1  0
M  END
$$$$
