
     RDKit          3D

 27 27  0  0  0  0  0  0  0  0999 V2000
   -0.7820    1.2011   -1.2733 C   0  0  0  0  0  0  0  0  0  0  0  0
   -1.4261    0.2204   -0.2903 C   0  0  0  0  0  0  0  0  0  0  0  0
   -2.7270   -0.3214   -0.9113 C   0  0  0  0  0  0  0  0  0  0  0  0
   -1.7730    0.9576    1.0113 C   0  0  0  0  0  0  0  0  0  0  0  0
   -0.3426   -1.2058    0.0404 S   0  0  0  0  0  6  0  0  0  0  0  0
    0.0703   -1.8332   -1.1976 O   0  0  0  0  0  0  0  0  0  0  0  0
   -0.9281   -1.9996    1.1050 O   0  0  0  0  0  0  0  0  0  0  0  0
    1.1236   -0.6024    0.7635 C   0  0  0  0  0  0  0  0  0  0  0  0
    1.2117   -0.3142    2.1668 C   0  0  0  0  0  0  0  0  0  0  0  0
    2.4781    0.0656    2.5455 C   0  0  0  0  0  0  0  0  0  0  0  0
    3.5675    0.0402    1.2331 S   0  0  0  0  0  0  0  0  0  0  0  0
    2.3448   -0.4495    0.1291 C   0  0  0  0  0  0  0  0  0  0  0  0
    2.7357   -0.6479   -1.2412 C   0  0  0  0  0  0  0  0  0  0  0  0
    3.7161   -1.2353   -1.6734 O   0  0  0  0  0  0  0  0  0  0  0  0
    1.9099    0.0034   -2.0858 O   0  0  0  0  0  0  0  0  0  0  0  0
   -1.4506    2.0446   -1.4814 H   0  0  0  0  0  0  0  0  0  0  0  0
    0.1492    1.6168   -0.8763 H   0  0  0  0  0  0  0  0  0  0  0  0
   -0.5620    0.7186   -2.2309 H   0  0  0  0  0  0  0  0  0  0  0  0
   -2.5277   -0.8595   -1.8449 H   0  0  0  0  0  0  0  0  0  0  0  0
   -3.2310   -1.0191   -0.2331 H   0  0  0  0  0  0  0  0  0  0  0  0
   -3.4282    0.4899   -1.1369 H   0  0  0  0  0  0  0  0  0  0  0  0
   -2.1951    0.2791    1.7603 H   0  0  0  0  0  0  0  0  0  0  0  0
   -2.5102    1.7484    0.8300 H   0  0  0  0  0  0  0  0  0  0  0  0
   -0.8929    1.4357    1.4518 H   0  0  0  0  0  0  0  0  0  0  0  0
    0.3897   -0.4088    2.8684 H   0  0  0  0  0  0  0  0  0  0  0  0
    2.8232    0.3309    3.5363 H   0  0  0  0  0  0  0  0  0  0  0  0
    2.2568   -0.2555   -2.9651 H   0  0  0  0  0  0  0  0  0  0  0  0
  1  2  1  0
  2  3  1  0
  2  4  1  0
  2  5  1  0
  5  6  2  0
  5  7  2  0
  5  8  1  0
  8  9  1  0
  9 10  2  0
 10 11  1  0
 11 12  1  0
 12 13  1  0
 13 14  2  0
 13 15  1  0
 12  8  2  0
  1 16  1  0
  1 17  1  0
  1 18  1  0
  3 19  1  0
  3 20  1  0
  3 21  1  0
  4 22  1  0
  4 23  1  0
  4 24  1  0
  9 25  1  0
 10 26  1  0
 15 27  1  0
M  END
$$$$
