
     RDKit          3D

 39 40  0  0  0  0  0  0  0  0999 V2000
   -2.3189    1.3699    2.0700 C   0  0  0  0  0  0  0  0  0  0  0  0
   -1.6320    1.6221    0.7396 C   0  0  0  0  0  0  0  0  0  0  0  0
   -1.6615    0.4523   -0.0791 O   0  0  0  0  0  0  0  0  0  0  0  0
   -2.7579    0.2043   -0.8604 C   0  0  0  0  0  0  0  0  0  0  0  0
   -3.8835    1.0204   -0.9752 C   0  0  0  0  0  0  0  0  0  0  0  0
   -4.9448    0.6462   -1.8090 C   0  0  0  0  0  0  0  0  0  0  0  0
   -4.8941   -0.5478   -2.5281 C   0  0  0  0  0  0  0  0  0  0  0  0
   -3.7786   -1.3732   -2.4208 C   0  0  0  0  0  0  0  0  0  0  0  0
   -2.7161   -0.9864   -1.6044 C   0  0  0  0  0  0  0  0  0  0  0  0
   -1.6453   -1.8365   -1.4876 O   0  0  0  0  0  0  0  0  0  0  0  0
   -0.6364   -1.5183   -2.4495 C   0  0  0  0  0  0  0  0  0  0  0  0
    0.7503   -1.5272   -1.8019 C   0  0  0  0  0  0  0  0  0  0  0  0
    1.7398   -1.8607   -2.4475 O   0  0  0  0  0  0  0  0  0  0  0  0
    0.7222   -1.0759   -0.5028 N   0  0  0  0  0  0  0  0  0  0  0  0
    1.7785   -0.8982    0.3486 C   0  0  0  0  0  0  0  0  0  0  0  0
    1.6265   -0.4299    1.5687 N   0  0  0  0  0  0  0  0  0  0  0  0
    2.8262   -0.3317    2.2443 N   0  0  0  0  0  0  0  0  0  0  0  0
    3.8410   -0.7297    1.5022 C   0  0  0  0  0  0  0  0  0  0  0  0
    5.2654   -0.7485    1.9474 C   0  0  0  0  0  0  0  0  0  0  0  0
    5.9626    0.3665    1.3795 O   0  0  0  0  0  0  0  0  0  0  0  0
    5.7399    1.5760    2.0957 C   0  0  0  0  0  0  0  0  0  0  0  0
    3.3895   -1.2559   -0.0696 S   0  0  0  0  0  0  0  0  0  0  0  0
   -3.3825    1.1512    1.9365 H   0  0  0  0  0  0  0  0  0  0  0  0
   -1.8766    0.5019    2.5703 H   0  0  0  0  0  0  0  0  0  0  0  0
   -2.2229    2.2403    2.7254 H   0  0  0  0  0  0  0  0  0  0  0  0
   -2.0230    2.5049    0.2232 H   0  0  0  0  0  0  0  0  0  0  0  0
   -0.5743    1.8343    0.9332 H   0  0  0  0  0  0  0  0  0  0  0  0
   -3.9800    1.9506   -0.4264 H   0  0  0  0  0  0  0  0  0  0  0  0
   -5.8199    1.2875   -1.8890 H   0  0  0  0  0  0  0  0  0  0  0  0
   -5.7274   -0.8375   -3.1634 H   0  0  0  0  0  0  0  0  0  0  0  0
   -3.7394   -2.3133   -2.9631 H   0  0  0  0  0  0  0  0  0  0  0  0
   -0.7744   -0.5373   -2.9234 H   0  0  0  0  0  0  0  0  0  0  0  0
   -0.6581   -2.2939   -3.2228 H   0  0  0  0  0  0  0  0  0  0  0  0
   -0.1829   -0.8212   -0.1132 H   0  0  0  0  0  0  0  0  0  0  0  0
    5.7602   -1.6604    1.5963 H   0  0  0  0  0  0  0  0  0  0  0  0
    5.3429   -0.7372    3.0407 H   0  0  0  0  0  0  0  0  0  0  0  0
    4.6866    1.8678    2.0573 H   0  0  0  0  0  0  0  0  0  0  0  0
    6.0670    1.4731    3.1348 H   0  0  0  0  0  0  0  0  0  0  0  0
    6.3320    2.3648    1.6235 H   0  0  0  0  0  0  0  0  0  0  0  0
  1  2  1  0
  2  3  1  0
  3  4  1  0
  4  5  2  0
  5  6  1  0
  6  7  2  0
  7  8  1  0
  8  9  2  0
  9 10  1  0
 10 11  1  0
 11 12  1  0
 12 13  2  0
 12 14  1  0
 14 15  1  0
 15 16  2  0
 16 17  1  0
 17 18  2  0
 18 19  1  0
 19 20  1  0
 20 21  1  0
 18 22  1  0
  9  4  1  0
 22 15  1  0
  1 23  1  0
  1 24  1  0
  1 25  1  0
  2 26  1  0
  2 27  1  0
  5 28  1  0
  6 29  1  0
  7 30  1  0
  8 31  1  0
 11 32  1  0
 11 33  1  0
 14 34  1  0
 19 35  1  0
 19 36  1  0
 21 37  1  0
 21 38  1  0
 21 39  1  0
M  END
$$$$
