
     RDKit          3D

 61 65  0  0  0  0  0  0  0  0999 V2000
    0.4476   -3.9976    1.6093 C   0  0  0  0  0  0  0  0  0  0  0  0
    1.4323   -2.8931    1.3668 C   0  0  0  0  0  0  0  0  0  0  0  0
    2.5236   -2.7086    2.2123 C   0  0  0  0  0  0  0  0  0  0  0  0
    3.4159   -1.6553    1.9878 C   0  0  0  0  0  0  0  0  0  0  0  0
    3.2475   -0.7573    0.9434 C   0  0  0  0  0  0  0  0  0  0  0  0
    4.1515    0.2266    0.7883 N   0  0  0  0  0  0  0  0  0  0  0  0
    4.0319    1.1041   -0.2402 C   0  0  0  0  0  0  0  0  0  0  0  0
    5.0980    2.1213   -0.3448 C   0  0  0  0  0  0  0  0  0  0  0  0
    5.5395    2.6169   -1.5861 C   0  0  0  0  0  0  0  0  0  0  0  0
    6.5473    3.5842   -1.6671 C   0  0  0  0  0  0  0  0  0  0  0  0
    7.1393    4.0750   -0.5076 C   0  0  0  0  0  0  0  0  0  0  0  0
    6.7298    3.5943    0.7319 C   0  0  0  0  0  0  0  0  0  0  0  0
    5.7236    2.6266    0.8094 C   0  0  0  0  0  0  0  0  0  0  0  0
    2.9610    1.0458   -1.1148 C   0  0  0  0  0  0  0  0  0  0  0  0
    2.0081    0.0472   -0.9243 C   0  0  0  0  0  0  0  0  0  0  0  0
    0.8724    0.0340   -1.8635 C   0  0  0  0  0  0  0  0  0  0  0  0
    1.0775   -0.3709   -3.0035 O   0  0  0  0  0  0  0  0  0  0  0  0
   -0.3560    0.5020   -1.4154 N   0  0  0  0  0  0  0  0  0  0  0  0
   -1.5086    0.4493   -2.3139 C   0  0  0  0  0  0  0  0  0  0  0  0
   -2.7671   -0.0268   -1.5802 C   0  0  0  0  0  0  0  0  0  0  0  0
   -3.0714    0.7813   -0.3443 N   0  0  0  0  0  0  0  0  0  0  0  0
   -3.6716   -0.1278    0.9692 S   0  0  0  0  0  6  0  0  0  0  0  0
   -4.0926    0.7932    2.0009 O   0  0  0  0  0  0  0  0  0  0  0  0
   -2.7304   -1.1925    1.2384 O   0  0  0  0  0  0  0  0  0  0  0  0
   -5.1133   -0.8868    0.4768 C   0  0  0  0  0  0  0  0  0  0  0  0
   -5.4626   -2.2512    0.5483 C   0  0  0  0  0  0  0  0  0  0  0  0
   -4.6948   -3.3990    1.0835 C   0  0  0  0  0  0  0  0  0  0  0  0
   -6.6803   -2.4547    0.0243 N   0  0  0  0  0  0  0  0  0  0  0  0
   -7.1420   -1.2103   -0.3651 O   0  0  0  0  0  0  0  0  0  0  0  0
   -6.2009   -0.2683   -0.0881 C   0  0  0  0  0  0  0  0  0  0  0  0
   -6.5352    1.1261   -0.4338 C   0  0  0  0  0  0  0  0  0  0  0  0
   -1.9782    1.7350    0.0322 C   0  0  0  0  0  0  0  0  0  0  0  0
   -0.5913    1.0915   -0.0898 C   0  0  0  0  0  0  0  0  0  0  0  0
    2.1376   -0.9123    0.0982 C   0  0  0  0  0  0  0  0  0  0  0  0
    1.2405   -1.9894    0.3176 C   0  0  0  0  0  0  0  0  0  0  0  0
    0.9198   -4.8381    2.1293 H   0  0  0  0  0  0  0  0  0  0  0  0
   -0.3849   -3.6306    2.2177 H   0  0  0  0  0  0  0  0  0  0  0  0
    0.0532   -4.3815    0.6619 H   0  0  0  0  0  0  0  0  0  0  0  0
    2.6967   -3.3816    3.0493 H   0  0  0  0  0  0  0  0  0  0  0  0
    4.2709   -1.5334    2.6499 H   0  0  0  0  0  0  0  0  0  0  0  0
    5.1194    2.2368   -2.5143 H   0  0  0  0  0  0  0  0  0  0  0  0
    6.8767    3.9446   -2.6379 H   0  0  0  0  0  0  0  0  0  0  0  0
    7.9255    4.8229   -0.5692 H   0  0  0  0  0  0  0  0  0  0  0  0
    7.1954    3.9643    1.6414 H   0  0  0  0  0  0  0  0  0  0  0  0
    5.4236    2.2602    1.7897 H   0  0  0  0  0  0  0  0  0  0  0  0
    2.8459    1.7621   -1.9217 H   0  0  0  0  0  0  0  0  0  0  0  0
   -1.6536    1.4607   -2.7118 H   0  0  0  0  0  0  0  0  0  0  0  0
   -1.3084   -0.2091   -3.1656 H   0  0  0  0  0  0  0  0  0  0  0  0
   -2.6286   -1.0830   -1.3187 H   0  0  0  0  0  0  0  0  0  0  0  0
   -3.6316    0.0392   -2.2506 H   0  0  0  0  0  0  0  0  0  0  0  0
   -5.2941   -4.3152    1.0879 H   0  0  0  0  0  0  0  0  0  0  0  0
   -4.3788   -3.2066    2.1132 H   0  0  0  0  0  0  0  0  0  0  0  0
   -3.8072   -3.5856    0.4715 H   0  0  0  0  0  0  0  0  0  0  0  0
   -7.5473    1.2034   -0.8409 H   0  0  0  0  0  0  0  0  0  0  0  0
   -5.8418    1.5135   -1.1859 H   0  0  0  0  0  0  0  0  0  0  0  0
   -6.4794    1.7676    0.4510 H   0  0  0  0  0  0  0  0  0  0  0  0
   -2.0548    2.6029   -0.6353 H   0  0  0  0  0  0  0  0  0  0  0  0
   -2.1248    2.1241    1.0450 H   0  0  0  0  0  0  0  0  0  0  0  0
    0.1847    1.8392    0.1056 H   0  0  0  0  0  0  0  0  0  0  0  0
   -0.4853    0.2949    0.6525 H   0  0  0  0  0  0  0  0  0  0  0  0
    0.3802   -2.1242   -0.3370 H   0  0  0  0  0  0  0  0  0  0  0  0
  1  2  1  0
  2  3  2  0
  3  4  1  0
  4  5  2  0
  5  6  1  0
  6  7  2  0
  7  8  1  0
  8  9  2  0
  9 10  1  0
 10 11  2  0
 11 12  1  0
 12 13  2  0
  7 14  1  0
 14 15  2  0
 15 16  1  0
 16 17  2  0
 16 18  1  0
 18 19  1  0
 19 20  1  0
 20 21  1  0
 21 22  1  0
 22 23  2  0
 22 24  2  0
 22 25  1  0
 25 26  1  0
 26 27  1  0
 26 28  2  0
 28 29  1  0
 29 30  1  0
 30 31  1  0
 21 32  1  0
 32 33  1  0
 15 34  1  0
 34 35  2  0
 35  2  1  0
 34  5  1  0
 13  8  1  0
 33 18  1  0
 30 25  2  0
  1 36  1  0
  1 37  1  0
  1 38  1  0
  3 39  1  0
  4 40  1  0
  9 41  1  0
 10 42  1  0
 11 43  1  0
 12 44  1  0
 13 45  1  0
 14 46  1  0
 19 47  1  0
 19 48  1  0
 20 49  1  0
 20 50  1  0
 27 51  1  0
 27 52  1  0
 27 53  1  0
 31 54  1  0
 31 55  1  0
 31 56  1  0
 32 57  1  0
 32 58  1  0
 33 59  1  0
 33 60  1  0
 35 61  1  0
M  END
$$$$
