
     RDKit          3D

 41 42  0  0  0  0  0  0  0  0999 V2000
    6.5435    2.3489    0.4739 C   0  0  0  0  0  0  0  0  0  0  0  0
    5.2443    1.8683    0.1297 O   0  0  0  0  0  0  0  0  0  0  0  0
    5.0045    0.5848    0.5236 C   0  0  0  0  0  0  0  0  0  0  0  0
    5.8090   -0.1151    1.1244 O   0  0  0  0  0  0  0  0  0  0  0  0
    3.6626    0.1909    0.1314 C   0  0  0  0  0  0  0  0  0  0  0  0
    2.6856    0.9581   -0.4852 C   0  0  0  0  0  0  0  0  0  0  0  0
    1.5268    0.1698   -0.6278 C   0  0  0  0  0  0  0  0  0  0  0  0
    1.7829   -1.0815   -0.0880 C   0  0  0  0  0  0  0  0  0  0  0  0
    0.7263   -2.5070    0.0883 S   0  0  0  0  0  6  0  0  0  0  0  0
    0.8509   -2.8915    1.4744 O   0  0  0  0  0  0  0  0  0  0  0  0
    1.1191   -3.3603   -1.0073 O   0  0  0  0  0  0  0  0  0  0  0  0
   -0.8417   -1.9969   -0.1986 N   0  0  0  0  0  0  0  0  0  0  0  0
   -1.4677   -1.1876    0.8506 C   0  0  0  0  0  0  0  0  0  0  0  0
   -2.7533   -0.5692    0.3572 C   0  0  0  0  0  0  0  0  0  0  0  0
   -2.8673    0.8167    0.1852 C   0  0  0  0  0  0  0  0  0  0  0  0
   -4.0585    1.3826   -0.2855 C   0  0  0  0  0  0  0  0  0  0  0  0
   -5.1492    0.5697   -0.5933 C   0  0  0  0  0  0  0  0  0  0  0  0
   -6.3628    0.9926   -1.0600 O   0  0  0  0  0  0  0  0  0  0  0  0
   -6.5356    2.3937   -1.2288 C   0  0  0  0  0  0  0  0  0  0  0  0
   -5.0372   -0.8120   -0.4270 C   0  0  0  0  0  0  0  0  0  0  0  0
   -3.8512   -1.3800    0.0435 C   0  0  0  0  0  0  0  0  0  0  0  0
    3.1106   -1.0719    0.3120 N   0  0  0  0  0  0  0  0  0  0  0  0
    3.8396   -2.2102    0.8439 C   0  0  0  0  0  0  0  0  0  0  0  0
    6.6309    3.3772    0.1122 H   0  0  0  0  0  0  0  0  0  0  0  0
    6.6762    2.3523    1.5604 H   0  0  0  0  0  0  0  0  0  0  0  0
    7.3173    1.7451   -0.0106 H   0  0  0  0  0  0  0  0  0  0  0  0
    2.8013    1.9926   -0.7873 H   0  0  0  0  0  0  0  0  0  0  0  0
    0.5874    0.4838   -1.0639 H   0  0  0  0  0  0  0  0  0  0  0  0
   -0.9675   -1.6540   -1.1493 H   0  0  0  0  0  0  0  0  0  0  0  0
   -1.6869   -1.8135    1.7232 H   0  0  0  0  0  0  0  0  0  0  0  0
   -0.7886   -0.3933    1.1786 H   0  0  0  0  0  0  0  0  0  0  0  0
   -2.0315    1.4729    0.4192 H   0  0  0  0  0  0  0  0  0  0  0  0
   -4.1006    2.4607   -0.3997 H   0  0  0  0  0  0  0  0  0  0  0  0
   -5.8411    2.7894   -1.9772 H   0  0  0  0  0  0  0  0  0  0  0  0
   -6.4332    2.9221   -0.2751 H   0  0  0  0  0  0  0  0  0  0  0  0
   -7.5524    2.5635   -1.5957 H   0  0  0  0  0  0  0  0  0  0  0  0
   -5.8822   -1.4533   -0.6667 H   0  0  0  0  0  0  0  0  0  0  0  0
   -3.7867   -2.4604    0.1604 H   0  0  0  0  0  0  0  0  0  0  0  0
    4.8183   -2.2588    0.3603 H   0  0  0  0  0  0  0  0  0  0  0  0
    3.3204   -3.1426    0.6231 H   0  0  0  0  0  0  0  0  0  0  0  0
    3.9378   -2.0767    1.9238 H   0  0  0  0  0  0  0  0  0  0  0  0
  1  2  1  0
  2  3  1  0
  3  4  2  0
  3  5  1  0
  5  6  2  0
  6  7  1  0
  7  8  2  0
  8  9  1  0
  9 10  2  0
  9 11  2  0
  9 12  1  0
 12 13  1  0
 13 14  1  0
 14 15  2  0
 15 16  1  0
 16 17  2  0
 17 18  1  0
 18 19  1  0
 17 20  1  0
 20 21  2  0
  8 22  1  0
 22 23  1  0
 22  5  1  0
 21 14  1  0
  1 24  1  0
  1 25  1  0
  1 26  1  0
  6 27  1  0
  7 28  1  0
 12 29  1  0
 13 30  1  0
 13 31  1  0
 15 32  1  0
 16 33  1  0
 19 34  1  0
 19 35  1  0
 19 36  1  0
 20 37  1  0
 21 38  1  0
 23 39  1  0
 23 40  1  0
 23 41  1  0
M  END
$$$$
