
     RDKit          3D

 35 36  0  0  0  0  0  0  0  0999 V2000
    3.9861   -2.4367    0.0864 C   0  0  0  0  0  0  0  0  0  0  0  0
    3.5960   -1.0320    0.4359 C   0  0  0  0  0  0  0  0  0  0  0  0
    4.4075   -0.2689    1.2657 C   0  0  0  0  0  0  0  0  0  0  0  0
    4.0129    1.0283    1.5673 C   0  0  0  0  0  0  0  0  0  0  0  0
    2.8248    1.5243    1.0360 C   0  0  0  0  0  0  0  0  0  0  0  0
    2.0670    0.7016    0.2171 C   0  0  0  0  0  0  0  0  0  0  0  0
    0.8647    1.0802   -0.3739 N   0  0  0  0  0  0  0  0  0  0  0  0
    0.1762    2.2630   -0.2514 C   0  0  0  0  0  0  0  0  0  0  0  0
    0.5143    3.2388    0.4136 O   0  0  0  0  0  0  0  0  0  0  0  0
   -1.1034    2.2963   -1.0952 C   0  0  0  0  0  0  0  0  0  0  0  0
   -1.6462    1.0232   -1.4165 O   0  0  0  0  0  0  0  0  0  0  0  0
   -2.4035    0.3777   -0.4731 C   0  0  0  0  0  0  0  0  0  0  0  0
   -2.6033    0.8194    0.8387 C   0  0  0  0  0  0  0  0  0  0  0  0
   -3.3853    0.0731    1.7241 C   0  0  0  0  0  0  0  0  0  0  0  0
   -3.9706   -1.1185    1.3083 C   0  0  0  0  0  0  0  0  0  0  0  0
   -3.7736   -1.5696    0.0050 C   0  0  0  0  0  0  0  0  0  0  0  0
   -2.9902   -0.8304   -0.8943 C   0  0  0  0  0  0  0  0  0  0  0  0
   -2.7868   -1.3393   -2.2950 C   0  0  0  0  0  0  0  0  0  0  0  0
    2.4391   -0.5607   -0.0882 N   0  0  0  0  0  0  0  0  0  0  0  0
    4.9502   -2.4437   -0.4315 H   0  0  0  0  0  0  0  0  0  0  0  0
    3.2419   -2.8955   -0.5725 H   0  0  0  0  0  0  0  0  0  0  0  0
    4.0598   -3.0454    0.9930 H   0  0  0  0  0  0  0  0  0  0  0  0
    5.3295   -0.6721    1.6714 H   0  0  0  0  0  0  0  0  0  0  0  0
    4.6235    1.6536    2.2124 H   0  0  0  0  0  0  0  0  0  0  0  0
    2.5250    2.5370    1.2754 H   0  0  0  0  0  0  0  0  0  0  0  0
    0.4403    0.3368   -0.9175 H   0  0  0  0  0  0  0  0  0  0  0  0
   -1.8513    2.9465   -0.6268 H   0  0  0  0  0  0  0  0  0  0  0  0
   -0.8308    2.7712   -2.0450 H   0  0  0  0  0  0  0  0  0  0  0  0
   -2.1626    1.7361    1.2170 H   0  0  0  0  0  0  0  0  0  0  0  0
   -3.5336    0.4236    2.7426 H   0  0  0  0  0  0  0  0  0  0  0  0
   -4.5772   -1.6981    1.9991 H   0  0  0  0  0  0  0  0  0  0  0  0
   -4.2340   -2.5046   -0.3062 H   0  0  0  0  0  0  0  0  0  0  0  0
   -3.1708   -0.6153   -3.0209 H   0  0  0  0  0  0  0  0  0  0  0  0
   -3.3133   -2.2852   -2.4600 H   0  0  0  0  0  0  0  0  0  0  0  0
   -1.7226   -1.5147   -2.4832 H   0  0  0  0  0  0  0  0  0  0  0  0
  1  2  1  0
  2  3  2  0
  3  4  1  0
  4  5  2  0
  5  6  1  0
  6  7  1  0
  7  8  1  0
  8  9  2  0
  8 10  1  0
 10 11  1  0
 11 12  1  0
 12 13  2  0
 13 14  1  0
 14 15  2  0
 15 16  1  0
 16 17  2  0
 17 18  1  0
  6 19  2  0
 19  2  1  0
 17 12  1  0
  1 20  1  0
  1 21  1  0
  1 22  1  0
  3 23  1  0
  4 24  1  0
  5 25  1  0
  7 26  1  0
 10 27  1  0
 10 28  1  0
 13 29  1  0
 14 30  1  0
 15 31  1  0
 16 32  1  0
 18 33  1  0
 18 34  1  0
 18 35  1  0
M  END
$$$$
