
     RDKit          3D

 39 40  0  0  0  0  0  0  0  0999 V2000
   -2.3432    1.3094    2.6750 C   0  0  0  0  0  0  0  0  0  0  0  0
   -2.5188    0.1349    1.7297 C   0  0  0  0  0  0  0  0  0  0  0  0
   -2.2465    0.5903    0.4034 O   0  0  0  0  0  0  0  0  0  0  0  0
   -2.5197   -0.2751   -0.6265 C   0  0  0  0  0  0  0  0  0  0  0  0
   -2.9009   -1.6102   -0.4775 C   0  0  0  0  0  0  0  0  0  0  0  0
   -3.1493   -2.3998   -1.6044 C   0  0  0  0  0  0  0  0  0  0  0  0
   -3.0212   -1.8614   -2.8845 C   0  0  0  0  0  0  0  0  0  0  0  0
   -2.6303   -0.5332   -3.0451 C   0  0  0  0  0  0  0  0  0  0  0  0
   -2.3554    0.2486   -1.9207 C   0  0  0  0  0  0  0  0  0  0  0  0
   -1.9870    1.5680   -2.0382 O   0  0  0  0  0  0  0  0  0  0  0  0
   -0.7809    1.7633   -2.7688 C   0  0  0  0  0  0  0  0  0  0  0  0
    0.5262    1.4086   -2.0418 C   0  0  0  0  0  0  0  0  0  0  0  0
    1.5543    1.2134   -2.6869 O   0  0  0  0  0  0  0  0  0  0  0  0
    0.3970    1.3999   -0.6730 N   0  0  0  0  0  0  0  0  0  0  0  0
    1.3654    1.1057    0.2510 C   0  0  0  0  0  0  0  0  0  0  0  0
    1.1116    1.0362    1.5390 N   0  0  0  0  0  0  0  0  0  0  0  0
    2.2344    0.7274    2.2802 N   0  0  0  0  0  0  0  0  0  0  0  0
    3.2996    0.5706    1.5194 C   0  0  0  0  0  0  0  0  0  0  0  0
    4.6752    0.2539    2.0097 C   0  0  0  0  0  0  0  0  0  0  0  0
    4.7192   -1.0896    2.5032 O   0  0  0  0  0  0  0  0  0  0  0  0
    4.9097   -2.0581    1.4797 C   0  0  0  0  0  0  0  0  0  0  0  0
    2.9933    0.8153   -0.1551 S   0  0  0  0  0  0  0  0  0  0  0  0
   -3.0342    2.1188    2.4147 H   0  0  0  0  0  0  0  0  0  0  0  0
   -2.5267    1.0068    3.7103 H   0  0  0  0  0  0  0  0  0  0  0  0
   -1.3327    1.7220    2.6007 H   0  0  0  0  0  0  0  0  0  0  0  0
   -3.5505   -0.2278    1.8094 H   0  0  0  0  0  0  0  0  0  0  0  0
   -1.8162   -0.6610    2.0010 H   0  0  0  0  0  0  0  0  0  0  0  0
   -3.0094   -2.0699    0.4992 H   0  0  0  0  0  0  0  0  0  0  0  0
   -3.4498   -3.4379   -1.4816 H   0  0  0  0  0  0  0  0  0  0  0  0
   -3.2330   -2.4754   -3.7565 H   0  0  0  0  0  0  0  0  0  0  0  0
   -2.5630   -0.1173   -4.0460 H   0  0  0  0  0  0  0  0  0  0  0  0
   -0.7224    2.8352   -2.9929 H   0  0  0  0  0  0  0  0  0  0  0  0
   -0.7990    1.2438   -3.7339 H   0  0  0  0  0  0  0  0  0  0  0  0
   -0.5352    1.5058   -0.2767 H   0  0  0  0  0  0  0  0  0  0  0  0
    5.4532    0.4157    1.2546 H   0  0  0  0  0  0  0  0  0  0  0  0
    4.9022    0.9136    2.8546 H   0  0  0  0  0  0  0  0  0  0  0  0
    4.0609   -2.0731    0.7903 H   0  0  0  0  0  0  0  0  0  0  0  0
    5.8387   -1.8624    0.9327 H   0  0  0  0  0  0  0  0  0  0  0  0
    4.9841   -3.0415    1.9520 H   0  0  0  0  0  0  0  0  0  0  0  0
  1  2  1  0
  2  3  1  0
  3  4  1  0
  4  5  2  0
  5  6  1  0
  6  7  2  0
  7  8  1  0
  8  9  2  0
  9 10  1  0
 10 11  1  0
 11 12  1  0
 12 13  2  0
 12 14  1  0
 14 15  1  0
 15 16  2  0
 16 17  1  0
 17 18  2  0
 18 19  1  0
 19 20  1  0
 20 21  1  0
 18 22  1  0
  9  4  1  0
 22 15  1  0
  1 23  1  0
  1 24  1  0
  1 25  1  0
  2 26  1  0
  2 27  1  0
  5 28  1  0
  6 29  1  0
  7 30  1  0
  8 31  1  0
 11 32  1  0
 11 33  1  0
 14 34  1  0
 19 35  1  0
 19 36  1  0
 21 37  1  0
 21 38  1  0
 21 39  1  0
M  END
$$$$
