
     RDKit          3D

 45 44  0  0  0  0  0  0  0  0999 V2000
    3.4372   -4.5941    2.9007 C   0  0  0  0  0  0  0  0  0  0  0  0
    3.8193   -3.4113    2.0253 C   0  0  0  0  0  0  0  0  0  0  0  0
    2.5855   -2.7221    1.4457 C   0  0  0  0  0  0  0  0  0  0  0  0
    2.9718   -1.5366    0.5683 C   0  0  0  0  0  0  0  0  0  0  0  0
    1.8039   -0.8911    0.0190 N   0  0  0  0  0  0  0  0  0  0  0  0
    1.8453    0.3733   -0.4819 C   0  0  0  0  0  0  0  0  0  0  0  0
    2.7775    1.1553   -0.3838 O   0  0  0  0  0  0  0  0  0  0  0  0
    0.6816    0.6201   -1.1214 O   0  0  0  0  0  0  0  0  0  0  0  0
    0.5611    1.9384   -1.6766 C   0  0  0  0  0  0  0  0  0  0  0  0
   -0.8683    2.1263   -2.2263 C   0  0  0  0  0  0  0  0  0  0  0  0
   -1.0549    3.4862   -2.9158 C   0  0  0  0  0  0  0  0  0  0  0  0
   -0.2263    3.6491   -4.1813 C   0  0  0  0  0  0  0  0  0  0  0  0
   -1.8530    2.0035   -1.1515 N   0  0  0  0  0  0  0  0  0  0  0  0
   -2.3488    0.7999   -0.7470 C   0  0  0  0  0  0  0  0  0  0  0  0
   -2.2261   -0.2613   -1.3382 O   0  0  0  0  0  0  0  0  0  0  0  0
   -2.9912    0.9731    0.4338 O   0  0  0  0  0  0  0  0  0  0  0  0
   -3.5430   -0.2146    1.0307 C   0  0  0  0  0  0  0  0  0  0  0  0
   -2.4549   -0.9488    1.8076 C   0  0  0  0  0  0  0  0  0  0  0  0
   -4.6632    0.2303    1.9632 C   0  0  0  0  0  0  0  0  0  0  0  0
    2.8821   -5.3434    2.3273 H   0  0  0  0  0  0  0  0  0  0  0  0
    4.3349   -5.0722    3.3049 H   0  0  0  0  0  0  0  0  0  0  0  0
    2.8144   -4.2743    3.7422 H   0  0  0  0  0  0  0  0  0  0  0  0
    4.4002   -2.6967    2.6200 H   0  0  0  0  0  0  0  0  0  0  0  0
    4.4674   -3.7597    1.2127 H   0  0  0  0  0  0  0  0  0  0  0  0
    2.0008   -3.4408    0.8578 H   0  0  0  0  0  0  0  0  0  0  0  0
    1.9340   -2.3795    2.2595 H   0  0  0  0  0  0  0  0  0  0  0  0
    3.5907   -1.8634   -0.2748 H   0  0  0  0  0  0  0  0  0  0  0  0
    3.5496   -0.8019    1.1405 H   0  0  0  0  0  0  0  0  0  0  0  0
    1.0257   -1.4426   -0.3200 H   0  0  0  0  0  0  0  0  0  0  0  0
    1.2993    2.0385   -2.4787 H   0  0  0  0  0  0  0  0  0  0  0  0
    0.7630    2.6845   -0.8979 H   0  0  0  0  0  0  0  0  0  0  0  0
   -1.0731    1.3219   -2.9441 H   0  0  0  0  0  0  0  0  0  0  0  0
   -0.8178    4.2994   -2.2183 H   0  0  0  0  0  0  0  0  0  0  0  0
   -2.1128    3.6094   -3.1820 H   0  0  0  0  0  0  0  0  0  0  0  0
   -0.4883    4.5867   -4.6822 H   0  0  0  0  0  0  0  0  0  0  0  0
    0.8443    3.6828   -3.9610 H   0  0  0  0  0  0  0  0  0  0  0  0
   -0.4121    2.8285   -4.8814 H   0  0  0  0  0  0  0  0  0  0  0  0
   -1.9287    2.7339   -0.4573 H   0  0  0  0  0  0  0  0  0  0  0  0
   -3.9720   -0.8681    0.2612 H   0  0  0  0  0  0  0  0  0  0  0  0
   -1.6490   -1.2736    1.1413 H   0  0  0  0  0  0  0  0  0  0  0  0
   -2.8574   -1.8308    2.3150 H   0  0  0  0  0  0  0  0  0  0  0  0
   -1.9967   -0.2915    2.5549 H   0  0  0  0  0  0  0  0  0  0  0  0
   -5.1338   -0.6254    2.4570 H   0  0  0  0  0  0  0  0  0  0  0  0
   -4.2879    0.9167    2.7304 H   0  0  0  0  0  0  0  0  0  0  0  0
   -5.4307    0.7751    1.4027 H   0  0  0  0  0  0  0  0  0  0  0  0
  1  2  1  0
  2  3  1  0
  3  4  1  0
  4  5  1  0
  5  6  1  0
  6  7  2  0
  6  8  1  0
  8  9  1  0
  9 10  1  0
 10 11  1  0
 11 12  1  0
 10 13  1  0
 13 14  1  0
 14 15  2  0
 14 16  1  0
 16 17  1  0
 17 18  1  0
 17 19  1  0
  1 20  1  0
  1 21  1  0
  1 22  1  0
  2 23  1  0
  2 24  1  0
  3 25  1  0
  3 26  1  0
  4 27  1  0
  4 28  1  0
  5 29  1  0
  9 30  1  0
  9 31  1  0
 10 32  1  0
 11 33  1  0
 11 34  1  0
 12 35  1  0
 12 36  1  0
 12 37  1  0
 13 38  1  0
 17 39  1  0
 18 40  1  0
 18 41  1  0
 18 42  1  0
 19 43  1  0
 19 44  1  0
 19 45  1  0
M  END
$$$$
