
     RDKit          3D

 54 57  0  0  0  0  0  0  0  0999 V2000
   -5.0992    4.0926   -2.2505 C   0  0  0  0  0  0  0  0  0  0  0  0
   -4.2444    2.9773   -1.7269 C   0  0  0  0  0  0  0  0  0  0  0  0
   -3.2905    3.2097   -0.7376 C   0  0  0  0  0  0  0  0  0  0  0  0
   -2.4906    2.1660   -0.2383 C   0  0  0  0  0  0  0  0  0  0  0  0
   -1.4564    2.5134    0.8027 C   0  0  0  0  0  0  0  0  0  0  0  0
   -2.6493    0.8514   -0.7433 C   0  0  0  0  0  0  0  0  0  0  0  0
   -1.7907   -0.1514   -0.2286 N   0  0  0  0  0  0  0  0  0  0  0  0
   -1.2283   -1.2019   -0.9386 C   0  0  0  0  0  0  0  0  0  0  0  0
   -1.3247   -1.4066   -2.1455 O   0  0  0  0  0  0  0  0  0  0  0  0
   -0.3340   -2.0845   -0.0658 C   0  0  0  0  0  0  0  0  0  0  0  0
    1.0230   -1.5399    0.0046 N   0  0  0  0  0  0  0  0  0  0  0  0
    1.2660   -0.5973    0.9947 C   0  0  0  0  0  0  0  0  0  0  0  0
    0.3392   -0.1687    1.6916 O   0  0  0  0  0  0  0  0  0  0  0  0
    2.5659   -0.1504    1.1423 N   0  0  0  0  0  0  0  0  0  0  0  0
    2.8458    0.7658    2.2387 C   0  0  0  0  0  0  0  0  0  0  0  0
    2.9993   -0.0047    3.5054 C   0  0  0  0  0  0  0  0  0  0  0  0
    2.1317   -0.3213    4.5320 C   0  0  0  0  0  0  0  0  0  0  0  0
    2.8749   -1.0875    5.4613 C   0  0  0  0  0  0  0  0  0  0  0  0
    4.1449   -1.1900    4.9447 C   0  0  0  0  0  0  0  0  0  0  0  0
    4.2299   -0.5360    3.7586 O   0  0  0  0  0  0  0  0  0  0  0  0
    3.6154   -0.4857    0.3011 C   0  0  0  0  0  0  0  0  0  0  0  0
    4.7536   -0.0338    0.4028 O   0  0  0  0  0  0  0  0  0  0  0  0
    3.3115   -1.4148   -0.7992 C   0  0  0  0  0  0  0  0  0  0  0  0
    4.3288   -1.7673   -1.7001 C   0  0  0  0  0  0  0  0  0  0  0  0
    4.0551   -2.6246   -2.7610 C   0  0  0  0  0  0  0  0  0  0  0  0
    2.7674   -3.1220   -2.9226 C   0  0  0  0  0  0  0  0  0  0  0  0
    1.7566   -2.7716   -2.0197 C   0  0  0  0  0  0  0  0  0  0  0  0
    2.0177   -1.9182   -0.9361 C   0  0  0  0  0  0  0  0  0  0  0  0
   -3.6757    0.5946   -1.6767 C   0  0  0  0  0  0  0  0  0  0  0  0
   -4.0692   -0.7758   -2.1596 C   0  0  0  0  0  0  0  0  0  0  0  0
   -4.4381    1.6704   -2.1757 C   0  0  0  0  0  0  0  0  0  0  0  0
   -5.2710    3.9738   -3.3261 H   0  0  0  0  0  0  0  0  0  0  0  0
   -4.6150    5.0638   -2.1045 H   0  0  0  0  0  0  0  0  0  0  0  0
   -6.0639    4.1010   -1.7329 H   0  0  0  0  0  0  0  0  0  0  0  0
   -3.1560    4.2209   -0.3583 H   0  0  0  0  0  0  0  0  0  0  0  0
   -1.4656    3.5817    1.0418 H   0  0  0  0  0  0  0  0  0  0  0  0
   -0.4532    2.2712    0.4365 H   0  0  0  0  0  0  0  0  0  0  0  0
   -1.6558    1.9717    1.7327 H   0  0  0  0  0  0  0  0  0  0  0  0
   -1.2797    0.0860    0.6210 H   0  0  0  0  0  0  0  0  0  0  0  0
   -0.7660   -2.1416    0.9422 H   0  0  0  0  0  0  0  0  0  0  0  0
   -0.3436   -3.1147   -0.4347 H   0  0  0  0  0  0  0  0  0  0  0  0
    3.7523    1.3503    2.0462 H   0  0  0  0  0  0  0  0  0  0  0  0
    2.0215    1.4819    2.3380 H   0  0  0  0  0  0  0  0  0  0  0  0
    1.0894   -0.0373    4.5927 H   0  0  0  0  0  0  0  0  0  0  0  0
    2.5290   -1.5145    6.3919 H   0  0  0  0  0  0  0  0  0  0  0  0
    5.0550   -1.6685    5.2795 H   0  0  0  0  0  0  0  0  0  0  0  0
    5.3338   -1.3680   -1.5781 H   0  0  0  0  0  0  0  0  0  0  0  0
    4.8398   -2.8930   -3.4635 H   0  0  0  0  0  0  0  0  0  0  0  0
    2.5395   -3.7779   -3.7603 H   0  0  0  0  0  0  0  0  0  0  0  0
    0.7654   -3.1681   -2.2190 H   0  0  0  0  0  0  0  0  0  0  0  0
   -5.1519   -0.8244   -2.3286 H   0  0  0  0  0  0  0  0  0  0  0  0
   -3.8541   -1.5487   -1.4162 H   0  0  0  0  0  0  0  0  0  0  0  0
   -3.5719   -1.0080   -3.1052 H   0  0  0  0  0  0  0  0  0  0  0  0
   -5.2137    1.4754   -2.9160 H   0  0  0  0  0  0  0  0  0  0  0  0
  1  2  1  0
  2  3  2  0
  3  4  1  0
  4  5  1  0
  4  6  2  0
  6  7  1  0
  7  8  1  0
  8  9  2  0
  8 10  1  0
 10 11  1  0
 11 12  1  0
 12 13  2  0
 12 14  1  0
 14 15  1  0
 15 16  1  0
 16 17  2  0
 17 18  1  0
 18 19  2  0
 19 20  1  0
 14 21  1  0
 21 22  2  0
 21 23  1  0
 23 24  2  0
 24 25  1  0
 25 26  2  0
 26 27  1  0
 27 28  2  0
  6 29  1  0
 29 30  1  0
 29 31  2  0
 31  2  1  0
 28 11  1  0
 20 16  1  0
 28 23  1  0
  1 32  1  0
  1 33  1  0
  1 34  1  0
  3 35  1  0
  5 36  1  0
  5 37  1  0
  5 38  1  0
  7 39  1  0
 10 40  1  0
 10 41  1  0
 15 42  1  0
 15 43  1  0
 17 44  1  0
 18 45  1  0
 19 46  1  0
 24 47  1  0
 25 48  1  0
 26 49  1  0
 27 50  1  0
 30 51  1  0
 30 52  1  0
 30 53  1  0
 31 54  1  0
M  END
$$$$
