
     RDKit          3D

 67 72  0  0  0  0  0  0  0  0999 V2000
   -4.0691    5.0413   -0.4365 C   0  0  0  0  0  0  0  0  0  0  0  0
   -3.2816    3.8516   -0.8872 C   0  0  0  0  0  0  0  0  0  0  0  0
   -3.1978    3.5122   -2.2453 C   0  0  0  0  0  0  0  0  0  0  0  0
   -2.4820    2.3786   -2.6712 C   0  0  0  0  0  0  0  0  0  0  0  0
   -1.8298    1.5564   -1.7507 C   0  0  0  0  0  0  0  0  0  0  0  0
   -1.9015    1.8882   -0.4049 C   0  0  0  0  0  0  0  0  0  0  0  0
   -2.6304    3.0130    0.0042 C   0  0  0  0  0  0  0  0  0  0  0  0
   -2.6111    3.1165    1.3901 N   0  0  0  0  0  0  0  0  0  0  0  0
   -1.8779    2.0836    1.9776 C   0  0  0  0  0  0  0  0  0  0  0  0
   -1.7284    1.9477    3.1826 O   0  0  0  0  0  0  0  0  0  0  0  0
   -1.3307    1.2065    0.8144 C   0  0  1  0  0  0  0  0  0  0  0  0
   -1.8419   -0.1832    0.8155 C   0  0  0  0  0  0  0  0  0  0  0  0
   -0.7913   -1.0983    0.8488 C   0  0  0  0  0  0  0  0  0  0  0  0
   -1.3060   -2.3674    0.8542 C   0  0  0  0  0  0  0  0  0  0  0  0
   -0.6752   -3.5346    0.9577 O   0  0  0  0  0  0  0  0  0  0  0  0
   -2.7141   -2.2557    0.7948 N   0  0  0  0  0  0  0  0  0  0  0  0
   -3.6556   -3.3436    0.7648 C   0  0  0  0  0  0  0  0  0  0  0  0
   -4.9771   -3.1633    1.1997 C   0  0  0  0  0  0  0  0  0  0  0  0
   -5.8916   -4.2218    1.1699 C   0  0  0  0  0  0  0  0  0  0  0  0
   -5.5002   -5.4730    0.7042 C   0  0  0  0  0  0  0  0  0  0  0  0
   -4.1929   -5.6675    0.2690 C   0  0  0  0  0  0  0  0  0  0  0  0
   -3.2756   -4.6114    0.2998 C   0  0  0  0  0  0  0  0  0  0  0  0
   -3.0256   -0.8767    0.7649 C   0  0  0  0  0  0  0  0  0  0  0  0
   -4.2698   -0.4194    0.6396 O   0  0  0  0  0  0  0  0  0  0  0  0
    0.5218   -0.4223    0.9077 C   0  0  1  0  0  0  0  0  0  0  0  0
    1.4750   -0.7821   -0.2458 C   0  0  0  0  0  0  0  0  0  0  0  0
    2.6629    0.0736   -0.2481 N   0  0  0  0  0  0  0  0  0  0  0  0
    3.8921   -0.4558   -0.5798 C   0  0  0  0  0  0  0  0  0  0  0  0
    4.0530   -1.6167   -0.9315 O   0  0  0  0  0  0  0  0  0  0  0  0
    4.8855    0.4611   -0.4605 O   0  0  0  0  0  0  0  0  0  0  0  0
    6.2633    0.1154   -0.7537 C   0  0  0  0  0  0  0  0  0  0  0  0
    7.0504    1.4097   -0.4965 C   0  0  0  0  0  0  0  0  0  0  0  0
    6.4388   -0.2784   -2.2243 C   0  0  0  0  0  0  0  0  0  0  0  0
    6.7813   -0.9687    0.1978 C   0  0  0  0  0  0  0  0  0  0  0  0
    2.4852    1.4606    0.1948 C   0  0  0  0  0  0  0  0  0  0  0  0
    1.0098    1.9045    0.1494 C   0  0  0  0  0  0  0  0  0  0  0  0
    0.1464    1.0303    0.9399 N   0  0  0  0  0  0  0  0  0  0  0  0
   -4.9694    4.7176    0.0954 H   0  0  0  0  0  0  0  0  0  0  0  0
   -4.3795    5.6605   -1.2848 H   0  0  0  0  0  0  0  0  0  0  0  0
   -3.4660    5.6721    0.2247 H   0  0  0  0  0  0  0  0  0  0  0  0
   -3.6972    4.1249   -2.9944 H   0  0  0  0  0  0  0  0  0  0  0  0
   -2.4427    2.1370   -3.7318 H   0  0  0  0  0  0  0  0  0  0  0  0
   -1.2897    0.6754   -2.0852 H   0  0  0  0  0  0  0  0  0  0  0  0
   -3.0654    3.8309    1.9391 H   0  0  0  0  0  0  0  0  0  0  0  0
    0.2674   -3.3641    1.1257 H   0  0  0  0  0  0  0  0  0  0  0  0
   -5.3201   -2.2167    1.6059 H   0  0  0  0  0  0  0  0  0  0  0  0
   -6.9089   -4.0653    1.5193 H   0  0  0  0  0  0  0  0  0  0  0  0
   -6.2111   -6.2942    0.6819 H   0  0  0  0  0  0  0  0  0  0  0  0
   -3.8817   -6.6410   -0.1010 H   0  0  0  0  0  0  0  0  0  0  0  0
   -2.2777   -4.8049   -0.0813 H   0  0  0  0  0  0  0  0  0  0  0  0
   -4.2332    0.5470    0.5328 H   0  0  0  0  0  0  0  0  0  0  0  0
    1.0112   -0.6524    1.8627 H   0  0  0  0  0  0  0  0  0  0  0  0
    0.9835   -0.6450   -1.2177 H   0  0  0  0  0  0  0  0  0  0  0  0
    1.7639   -1.8374   -0.1836 H   0  0  0  0  0  0  0  0  0  0  0  0
    8.1217    1.2785   -0.6820 H   0  0  0  0  0  0  0  0  0  0  0  0
    6.9164    1.7480    0.5377 H   0  0  0  0  0  0  0  0  0  0  0  0
    6.6852    2.2216   -1.1366 H   0  0  0  0  0  0  0  0  0  0  0  0
    5.9536   -1.2320   -2.4539 H   0  0  0  0  0  0  0  0  0  0  0  0
    7.4977   -0.3786   -2.4857 H   0  0  0  0  0  0  0  0  0  0  0  0
    5.9863    0.4704   -2.8839 H   0  0  0  0  0  0  0  0  0  0  0  0
    6.3074   -1.9373    0.0127 H   0  0  0  0  0  0  0  0  0  0  0  0
    6.5647   -0.7072    1.2395 H   0  0  0  0  0  0  0  0  0  0  0  0
    7.8623   -1.1084    0.0912 H   0  0  0  0  0  0  0  0  0  0  0  0
    3.0906    2.1211   -0.4357 H   0  0  0  0  0  0  0  0  0  0  0  0
    2.8741    1.5282    1.2181 H   0  0  0  0  0  0  0  0  0  0  0  0
    0.7165    1.9079   -0.9053 H   0  0  0  0  0  0  0  0  0  0  0  0
    0.9320    2.9329    0.5189 H   0  0  0  0  0  0  0  0  0  0  0  0
  1  2  1  0
  2  3  2  0
  3  4  1  0
  4  5  2  0
  5  6  1  0
  6  7  2  0
  7  8  1  0
  8  9  1  0
  9 10  2  0
  9 11  1  0
 11 12  1  0
 12 13  1  0
 13 14  2  0
 14 15  1  0
 14 16  1  0
 16 17  1  0
 17 18  2  0
 18 19  1  0
 19 20  2  0
 20 21  1  0
 21 22  2  0
 16 23  1  0
 23 24  1  0
 13 25  1  0
 25 26  1  0
 26 27  1  0
 27 28  1  0
 28 29  2  0
 28 30  1  0
 30 31  1  0
 31 32  1  0
 31 33  1  0
 31 34  1  0
 27 35  1  0
 35 36  1  0
 36 37  1  0
  7  2  1  0
 11 37  1  6
 11  6  1  0
 23 12  2  0
 37 25  1  0
 22 17  1  0
  1 38  1  0
  1 39  1  0
  1 40  1  0
  3 41  1  0
  4 42  1  0
  5 43  1  0
  8 44  1  0
 15 45  1  0
 18 46  1  0
 19 47  1  0
 20 48  1  0
 21 49  1  0
 22 50  1  0
 24 51  1  0
 25 52  1  1
 26 53  1  0
 26 54  1  0
 32 55  1  0
 32 56  1  0
 32 57  1  0
 33 58  1  0
 33 59  1  0
 33 60  1  0
 34 61  1  0
 34 62  1  0
 34 63  1  0
 35 64  1  0
 35 65  1  0
 36 66  1  0
 36 67  1  0
M  END
$$$$
