
     RDKit          3D

 53 56  0  0  0  0  0  0  0  0999 V2000
    7.9674    2.4514   -1.4315 C   0  0  0  0  0  0  0  0  0  0  0  0
    6.7134    2.2479   -2.0758 O   0  0  0  0  0  0  0  0  0  0  0  0
    5.8581    1.3568   -1.4894 C   0  0  0  0  0  0  0  0  0  0  0  0
    4.6526    1.1706   -2.1658 C   0  0  0  0  0  0  0  0  0  0  0  0
    3.6949    0.2762   -1.6800 C   0  0  0  0  0  0  0  0  0  0  0  0
    3.9272   -0.4450   -0.5048 C   0  0  0  0  0  0  0  0  0  0  0  0
    2.9182   -1.3340   -0.0886 N   0  0  0  0  0  0  0  0  0  0  0  0
    2.8704   -2.0873    1.0711 C   0  0  0  0  0  0  0  0  0  0  0  0
    3.7146   -2.0983    1.9644 O   0  0  0  0  0  0  0  0  0  0  0  0
    1.6422   -2.9803    1.1629 C   0  0  0  0  0  0  0  0  0  0  0  0
    0.1782   -2.0367    1.6789 S   0  0  0  0  0  0  0  0  0  0  0  0
   -0.4354   -1.4875    0.1518 C   0  0  0  0  0  0  0  0  0  0  0  0
    0.2599   -1.5029   -0.9612 N   0  0  0  0  0  0  0  0  0  0  0  0
   -0.5608   -1.1215   -1.9781 N   0  0  0  0  0  0  0  0  0  0  0  0
   -1.7554   -0.8680   -1.4762 C   0  0  0  0  0  0  0  0  0  0  0  0
   -2.8842   -0.2789   -2.2644 C   0  0  0  0  0  0  0  0  0  0  0  0
   -3.2547    1.1111   -1.8237 C   0  0  0  0  0  0  0  0  0  0  0  0
   -2.4330    2.2123   -1.6611 C   0  0  0  0  0  0  0  0  0  0  0  0
   -3.1461    3.3635   -1.2135 C   0  0  0  0  0  0  0  0  0  0  0  0
   -4.4915    3.1102   -1.0659 C   0  0  0  0  0  0  0  0  0  0  0  0
   -4.8900    1.4997   -1.4785 S   0  0  0  0  0  0  0  0  0  0  0  0
   -1.7440   -1.1093   -0.1039 N   0  0  0  0  0  0  0  0  0  0  0  0
   -2.8265   -1.0020    0.8065 C   0  0  0  0  0  0  0  0  0  0  0  0
   -2.6535   -0.3454    2.0315 C   0  0  0  0  0  0  0  0  0  0  0  0
   -3.7217   -0.2484    2.9281 C   0  0  0  0  0  0  0  0  0  0  0  0
   -4.9618   -0.8156    2.6200 C   0  0  0  0  0  0  0  0  0  0  0  0
   -6.1186   -0.7005    3.5682 C   0  0  0  0  0  0  0  0  0  0  0  0
   -5.1268   -1.4628    1.3908 C   0  0  0  0  0  0  0  0  0  0  0  0
   -4.0664   -1.5588    0.4868 C   0  0  0  0  0  0  0  0  0  0  0  0
    5.1316   -0.2551    0.1721 C   0  0  0  0  0  0  0  0  0  0  0  0
    6.0922    0.6438   -0.3153 C   0  0  0  0  0  0  0  0  0  0  0  0
    8.5282    1.5147   -1.3447 H   0  0  0  0  0  0  0  0  0  0  0  0
    8.5579    3.1286   -2.0554 H   0  0  0  0  0  0  0  0  0  0  0  0
    7.8315    2.9265   -0.4514 H   0  0  0  0  0  0  0  0  0  0  0  0
    4.4583    1.7228   -3.0813 H   0  0  0  0  0  0  0  0  0  0  0  0
    2.7676    0.1539   -2.2335 H   0  0  0  0  0  0  0  0  0  0  0  0
    2.0943   -1.3811   -0.6906 H   0  0  0  0  0  0  0  0  0  0  0  0
    1.4818   -3.5107    0.2189 H   0  0  0  0  0  0  0  0  0  0  0  0
    1.8370   -3.7428    1.9245 H   0  0  0  0  0  0  0  0  0  0  0  0
   -2.5738   -0.2159   -3.3169 H   0  0  0  0  0  0  0  0  0  0  0  0
   -3.7437   -0.9560   -2.2608 H   0  0  0  0  0  0  0  0  0  0  0  0
   -1.3630    2.1945   -1.8463 H   0  0  0  0  0  0  0  0  0  0  0  0
   -2.6923    4.3297   -1.0116 H   0  0  0  0  0  0  0  0  0  0  0  0
   -5.2642    3.7959   -0.7431 H   0  0  0  0  0  0  0  0  0  0  0  0
   -1.7147    0.1370    2.2974 H   0  0  0  0  0  0  0  0  0  0  0  0
   -3.5743    0.2780    3.8706 H   0  0  0  0  0  0  0  0  0  0  0  0
   -6.8171    0.0639    3.2130 H   0  0  0  0  0  0  0  0  0  0  0  0
   -5.7872   -0.4245    4.5735 H   0  0  0  0  0  0  0  0  0  0  0  0
   -6.6416   -1.6583    3.6498 H   0  0  0  0  0  0  0  0  0  0  0  0
   -6.0853   -1.9048    1.1349 H   0  0  0  0  0  0  0  0  0  0  0  0
   -4.2278   -2.1115   -0.4343 H   0  0  0  0  0  0  0  0  0  0  0  0
    5.3643   -0.7976    1.0831 H   0  0  0  0  0  0  0  0  0  0  0  0
    7.0137    0.7526    0.2497 H   0  0  0  0  0  0  0  0  0  0  0  0
  1  2  1  0
  2  3  1  0
  3  4  2  0
  4  5  1  0
  5  6  2  0
  6  7  1  0
  7  8  1  0
  8  9  2  0
  8 10  1  0
 10 11  1  0
 11 12  1  0
 12 13  2  0
 13 14  1  0
 14 15  2  0
 15 16  1  0
 16 17  1  0
 17 18  2  0
 18 19  1  0
 19 20  2  0
 20 21  1  0
 15 22  1  0
 22 23  1  0
 23 24  2  0
 24 25  1  0
 25 26  2  0
 26 27  1  0
 26 28  1  0
 28 29  2  0
  6 30  1  0
 30 31  2  0
 31  3  1  0
 22 12  1  0
 29 23  1  0
 21 17  1  0
  1 32  1  0
  1 33  1  0
  1 34  1  0
  4 35  1  0
  5 36  1  0
  7 37  1  0
 10 38  1  0
 10 39  1  0
 16 40  1  0
 16 41  1  0
 18 42  1  0
 19 43  1  0
 20 44  1  0
 24 45  1  0
 25 46  1  0
 27 47  1  0
 27 48  1  0
 27 49  1  0
 28 50  1  0
 29 51  1  0
 30 52  1  0
 31 53  1  0
M  END
$$$$
