
     RDKit          3D

 92 95  0  0  0  0  0  0  0  0999 V2000
    3.8912    3.7425   -1.0981 C   0  0  0  0  0  0  0  0  0  0  0  0
    3.3799    2.5996   -1.5704 C   0  0  0  0  0  0  0  0  0  0  0  0
    3.9056    1.2359   -1.2120 C   0  0  0  0  0  0  0  0  0  0  0  0
    3.0728    0.5089   -0.1398 C   0  0  0  0  0  0  0  0  0  0  0  0
    3.8149   -0.7357    0.3845 C   0  0  0  0  0  0  0  0  0  0  0  0
    4.8878   -0.3940    1.4071 C   0  0  0  0  0  0  0  0  0  0  0  0
    5.1152    0.7737    1.7286 O   0  0  0  0  0  0  0  0  0  0  0  0
    5.6123   -1.4474    1.9508 N   0  0  0  0  0  0  0  0  0  0  0  0
    6.6652   -1.1258    2.9280 C   0  0  0  0  0  0  0  0  0  0  0  0
    7.9190   -0.5407    2.2711 C   0  0  0  0  0  0  0  0  0  0  0  0
    8.4908   -1.4783    1.3604 O   0  0  0  0  0  0  0  0  0  0  0  0
    5.3509   -2.8692    1.6987 C   0  0  0  0  0  0  0  0  0  0  0  0
    4.7073   -3.5811    2.8698 C   0  0  0  0  0  0  0  0  0  0  0  0
    5.1519   -4.8633    3.2323 C   0  0  0  0  0  0  0  0  0  0  0  0
    4.5567   -5.5511    4.2919 C   0  0  0  0  0  0  0  0  0  0  0  0
    3.5046   -4.9701    4.9963 C   0  0  0  0  0  0  0  0  0  0  0  0
    3.0464   -3.7029    4.6420 C   0  0  0  0  0  0  0  0  0  0  0  0
    3.6393   -3.0146    3.5816 C   0  0  0  0  0  0  0  0  0  0  0  0
    1.7311    0.0664   -0.7136 C   0  0  0  0  0  0  0  0  0  0  0  0
    1.5417   -1.0604   -1.1626 O   0  0  0  0  0  0  0  0  0  0  0  0
    0.7674    1.0491   -0.7090 N   0  0  0  0  0  0  0  0  0  0  0  0
   -0.6404    0.8003   -1.0380 C   0  0  0  0  0  0  0  0  0  0  0  0
   -0.8357    0.3566   -2.5026 C   0  0  0  0  0  0  0  0  0  0  0  0
   -2.2232    0.1798   -2.8485 O   0  0  0  0  0  0  0  0  0  0  0  0
   -2.9400    1.3148   -3.0655 C   0  0  0  0  0  0  0  0  0  0  0  0
   -2.5087    2.4516   -2.9228 O   0  0  0  0  0  0  0  0  0  0  0  0
   -4.3744    1.0012   -3.4471 C   0  0  0  0  0  0  0  0  0  0  0  0
   -4.4346    0.1422   -4.7234 C   0  0  0  0  0  0  0  0  0  0  0  0
   -3.9491    0.7597   -6.0121 C   0  0  0  0  0  0  0  0  0  0  0  0
   -3.6002    2.0337   -6.2373 C   0  0  0  0  0  0  0  0  0  0  0  0
   -5.0392    0.3143   -2.2405 C   0  0  0  0  0  0  0  0  0  0  0  0
   -6.5477    0.2746   -2.3183 C   0  0  0  0  0  0  0  0  0  0  0  0
   -7.3001    1.4409   -2.1055 C   0  0  0  0  0  0  0  0  0  0  0  0
   -8.6931    1.4039   -2.1757 C   0  0  0  0  0  0  0  0  0  0  0  0
   -9.3341    0.2046   -2.4594 C   0  0  0  0  0  0  0  0  0  0  0  0
  -10.6710    0.1714   -2.5244 F   0  0  0  0  0  0  0  0  0  0  0  0
   -8.6083   -0.9611   -2.6727 C   0  0  0  0  0  0  0  0  0  0  0  0
   -7.2150   -0.9281   -2.6004 C   0  0  0  0  0  0  0  0  0  0  0  0
   -1.3199   -0.1791   -0.0542 C   0  0  0  0  0  0  0  0  0  0  0  0
   -1.1988    0.2492    1.3803 C   0  0  0  0  0  0  0  0  0  0  0  0
   -0.4119   -0.3504    2.3449 C   0  0  0  0  0  0  0  0  0  0  0  0
   -0.5623    0.3417    3.5151 N   0  0  0  0  0  0  0  0  0  0  0  0
   -1.4399    1.3855    3.3413 C   0  0  0  0  0  0  0  0  0  0  0  0
   -1.8857    2.3479    4.2551 C   0  0  0  0  0  0  0  0  0  0  0  0
   -2.7920    3.3068    3.7949 C   0  0  0  0  0  0  0  0  0  0  0  0
   -3.2350    3.2992    2.4749 C   0  0  0  0  0  0  0  0  0  0  0  0
   -2.7803    2.3278    1.5752 C   0  0  0  0  0  0  0  0  0  0  0  0
   -1.8624    1.3504    2.0121 C   0  0  0  0  0  0  0  0  0  0  0  0
    3.4828    4.7018   -1.4004 H   0  0  0  0  0  0  0  0  0  0  0  0
    4.7227    3.7492   -0.3993 H   0  0  0  0  0  0  0  0  0  0  0  0
    2.5500    2.6437   -2.2735 H   0  0  0  0  0  0  0  0  0  0  0  0
    3.9440    0.6376   -2.1316 H   0  0  0  0  0  0  0  0  0  0  0  0
    4.9441    1.3334   -0.8729 H   0  0  0  0  0  0  0  0  0  0  0  0
    2.8697    1.1845    0.7026 H   0  0  0  0  0  0  0  0  0  0  0  0
    3.0982   -1.4023    0.8799 H   0  0  0  0  0  0  0  0  0  0  0  0
    4.2764   -1.2749   -0.4523 H   0  0  0  0  0  0  0  0  0  0  0  0
    6.2596   -0.4084    3.6502 H   0  0  0  0  0  0  0  0  0  0  0  0
    6.9320   -2.0371    3.4740 H   0  0  0  0  0  0  0  0  0  0  0  0
    8.6685   -0.3161    3.0357 H   0  0  0  0  0  0  0  0  0  0  0  0
    7.7079    0.3820    1.7226 H   0  0  0  0  0  0  0  0  0  0  0  0
    7.8551   -1.5599    0.6290 H   0  0  0  0  0  0  0  0  0  0  0  0
    6.3171   -3.3295    1.4587 H   0  0  0  0  0  0  0  0  0  0  0  0
    4.7120   -3.0128    0.8237 H   0  0  0  0  0  0  0  0  0  0  0  0
    5.9693   -5.3373    2.6918 H   0  0  0  0  0  0  0  0  0  0  0  0
    4.9133   -6.5397    4.5650 H   0  0  0  0  0  0  0  0  0  0  0  0
    3.0404   -5.5057    5.8201 H   0  0  0  0  0  0  0  0  0  0  0  0
    2.2240   -3.2511    5.1908 H   0  0  0  0  0  0  0  0  0  0  0  0
    3.2615   -2.0282    3.3216 H   0  0  0  0  0  0  0  0  0  0  0  0
    0.9488    1.8720   -0.1450 H   0  0  0  0  0  0  0  0  0  0  0  0
   -1.1225    1.7775   -0.9176 H   0  0  0  0  0  0  0  0  0  0  0  0
   -0.3556   -0.6093   -2.6863 H   0  0  0  0  0  0  0  0  0  0  0  0
   -0.3678    1.0683   -3.1951 H   0  0  0  0  0  0  0  0  0  0  0  0
   -4.8744    1.9602   -3.6331 H   0  0  0  0  0  0  0  0  0  0  0  0
   -3.8618   -0.7817   -4.5701 H   0  0  0  0  0  0  0  0  0  0  0  0
   -5.4709   -0.1700   -4.9025 H   0  0  0  0  0  0  0  0  0  0  0  0
   -3.8905    0.0679   -6.8528 H   0  0  0  0  0  0  0  0  0  0  0  0
   -3.6323    2.8040   -5.4732 H   0  0  0  0  0  0  0  0  0  0  0  0
   -3.2698    2.3448   -7.2259 H   0  0  0  0  0  0  0  0  0  0  0  0
   -4.6480   -0.7048   -2.1213 H   0  0  0  0  0  0  0  0  0  0  0  0
   -4.7652    0.8341   -1.3117 H   0  0  0  0  0  0  0  0  0  0  0  0
   -6.8049    2.3830   -1.8796 H   0  0  0  0  0  0  0  0  0  0  0  0
   -9.2813    2.3018   -2.0117 H   0  0  0  0  0  0  0  0  0  0  0  0
   -9.1321   -1.8865   -2.8911 H   0  0  0  0  0  0  0  0  0  0  0  0
   -6.6547   -1.8461   -2.7686 H   0  0  0  0  0  0  0  0  0  0  0  0
   -2.3870   -0.2688   -0.2936 H   0  0  0  0  0  0  0  0  0  0  0  0
   -0.8956   -1.1845   -0.1683 H   0  0  0  0  0  0  0  0  0  0  0  0
    0.2429   -1.2103    2.2915 H   0  0  0  0  0  0  0  0  0  0  0  0
   -0.1017    0.1219    4.3871 H   0  0  0  0  0  0  0  0  0  0  0  0
   -1.5437    2.3552    5.2849 H   0  0  0  0  0  0  0  0  0  0  0  0
   -3.1559    4.0695    4.4795 H   0  0  0  0  0  0  0  0  0  0  0  0
   -3.9383    4.0562    2.1369 H   0  0  0  0  0  0  0  0  0  0  0  0
   -3.1351    2.3362    0.5491 H   0  0  0  0  0  0  0  0  0  0  0  0
  1  2  2  0
  2  3  1  0
  3  4  1  0
  4  5  1  0
  5  6  1  0
  6  7  2  0
  6  8  1  0
  8  9  1  0
  9 10  1  0
 10 11  1  0
  8 12  1  0
 12 13  1  0
 13 14  2  0
 14 15  1  0
 15 16  2  0
 16 17  1  0
 17 18  2  0
  4 19  1  0
 19 20  2  0
 19 21  1  0
 21 22  1  0
 22 23  1  0
 23 24  1  0
 24 25  1  0
 25 26  2  0
 25 27  1  0
 27 28  1  0
 28 29  1  0
 29 30  2  0
 27 31  1  0
 31 32  1  0
 32 33  2  0
 33 34  1  0
 34 35  2  0
 35 36  1  0
 35 37  1  0
 37 38  2  0
 22 39  1  0
 39 40  1  0
 40 41  2  0
 41 42  1  0
 42 43  1  0
 43 44  2  0
 44 45  1  0
 45 46  2  0
 46 47  1  0
 47 48  2  0
 18 13  1  0
 38 32  1  0
 48 40  1  0
 48 43  1  0
  1 49  1  0
  1 50  1  0
  2 51  1  0
  3 52  1  0
  3 53  1  0
  4 54  1  0
  5 55  1  0
  5 56  1  0
  9 57  1  0
  9 58  1  0
 10 59  1  0
 10 60  1  0
 11 61  1  0
 12 62  1  0
 12 63  1  0
 14 64  1  0
 15 65  1  0
 16 66  1  0
 17 67  1  0
 18 68  1  0
 21 69  1  0
 22 70  1  0
 23 71  1  0
 23 72  1  0
 27 73  1  0
 28 74  1  0
 28 75  1  0
 29 76  1  0
 30 77  1  0
 30 78  1  0
 31 79  1  0
 31 80  1  0
 33 81  1  0
 34 82  1  0
 37 83  1  0
 38 84  1  0
 39 85  1  0
 39 86  1  0
 41 87  1  0
 42 88  1  0
 44 89  1  0
 45 90  1  0
 46 91  1  0
 47 92  1  0
M  END
$$$$
