
     RDKit          3D

 40 42  0  0  0  0  0  0  0  0999 V2000
   -6.1840   -0.2712   -1.3006 C   0  0  0  0  0  0  0  0  0  0  0  0
   -6.1082   -1.4485   -0.5047 O   0  0  0  0  0  0  0  0  0  0  0  0
   -4.8608   -1.9895   -0.3254 C   0  0  0  0  0  0  0  0  0  0  0  0
   -3.6713   -1.5262   -0.8899 C   0  0  0  0  0  0  0  0  0  0  0  0
   -2.4572   -2.1766   -0.6123 C   0  0  0  0  0  0  0  0  0  0  0  0
   -1.1955   -1.7152   -1.2022 C   0  0  0  0  0  0  0  0  0  0  0  0
   -0.5898   -0.5455   -0.9550 C   0  0  0  0  0  0  0  0  0  0  0  0
   -1.1102    0.7163    0.0971 S   0  0  0  0  0  0  0  0  0  0  0  0
    0.2883    1.7285   -0.2573 C   0  0  0  0  0  0  0  0  0  0  0  0
    0.4409    3.2841    0.3241 S   0  0  0  0  0  0  0  0  0  0  0  0
    1.1508    1.0166   -1.0713 N   0  0  0  0  0  0  0  0  0  0  0  0
    2.3260    1.5742   -1.6237 N   0  0  0  0  0  0  0  0  0  0  0  0
    3.4132    1.7622   -0.7518 C   0  0  0  0  0  0  0  0  0  0  0  0
    4.0022    2.9762   -0.8964 N   0  0  0  0  0  0  0  0  0  0  0  0
    5.0666    3.2828   -0.1177 C   0  0  0  0  0  0  0  0  0  0  0  0
    5.6049    2.4253    0.8238 C   0  0  0  0  0  0  0  0  0  0  0  0
    6.7998    2.8354    1.6263 C   0  0  0  0  0  0  0  0  0  0  0  0
    6.8231    4.1677    1.9026 F   0  0  0  0  0  0  0  0  0  0  0  0
    7.9684    2.5636    0.9861 F   0  0  0  0  0  0  0  0  0  0  0  0
    6.8742    2.2035    2.8296 F   0  0  0  0  0  0  0  0  0  0  0  0
    5.0146    1.1659    0.9500 C   0  0  0  0  0  0  0  0  0  0  0  0
    3.9124    0.8221    0.1598 C   0  0  0  0  0  0  0  0  0  0  0  0
    3.2676   -0.7635    0.3736 Cl  0  0  0  0  0  0  0  0  0  0  0  0
    0.7045   -0.1885   -1.6017 C   0  0  0  0  0  0  0  0  0  0  0  0
    1.2273   -0.8577   -2.4829 O   0  0  0  0  0  0  0  0  0  0  0  0
   -2.4446   -3.3061    0.2165 C   0  0  0  0  0  0  0  0  0  0  0  0
   -3.6300   -3.7758    0.7797 C   0  0  0  0  0  0  0  0  0  0  0  0
   -4.8199   -3.1151    0.5053 C   0  0  0  0  0  0  0  0  0  0  0  0
   -5.9697   -3.5955    1.0710 O   0  0  0  0  0  0  0  0  0  0  0  0
   -7.2301    0.0489   -1.3241 H   0  0  0  0  0  0  0  0  0  0  0  0
   -5.8741   -0.4725   -2.3312 H   0  0  0  0  0  0  0  0  0  0  0  0
   -5.5966    0.5419   -0.8611 H   0  0  0  0  0  0  0  0  0  0  0  0
   -3.6629   -0.6659   -1.5506 H   0  0  0  0  0  0  0  0  0  0  0  0
   -0.7266   -2.4306   -1.8777 H   0  0  0  0  0  0  0  0  0  0  0  0
    2.1650    2.4766   -2.0733 H   0  0  0  0  0  0  0  0  0  0  0  0
    5.4808    4.2756   -0.2869 H   0  0  0  0  0  0  0  0  0  0  0  0
    5.4174    0.4482    1.6636 H   0  0  0  0  0  0  0  0  0  0  0  0
   -1.5138   -3.8255    0.4335 H   0  0  0  0  0  0  0  0  0  0  0  0
   -3.6277   -4.6481    1.4262 H   0  0  0  0  0  0  0  0  0  0  0  0
   -6.6749   -2.9980    0.7542 H   0  0  0  0  0  0  0  0  0  0  0  0
  1  2  1  0
  2  3  1  0
  3  4  2  0
  4  5  1  0
  5  6  1  0
  6  7  2  3
  7  8  1  0
  8  9  1  0
  9 10  2  0
  9 11  1  0
 11 12  1  0
 12 13  1  0
 13 14  2  0
 14 15  1  0
 15 16  2  0
 16 17  1  0
 17 18  1  0
 17 19  1  0
 17 20  1  0
 16 21  1  0
 21 22  2  0
 22 23  1  0
 11 24  1  0
 24 25  2  0
  5 26  2  0
 26 27  1  0
 27 28  2  0
 28 29  1  0
 28  3  1  0
 24  7  1  0
 22 13  1  0
  1 30  1  0
  1 31  1  0
  1 32  1  0
  4 33  1  0
  6 34  1  0
 12 35  1  0
 15 36  1  0
 21 37  1  0
 26 38  1  0
 27 39  1  0
 29 40  1  0
M  END
$$$$
