
     RDKit          3D

 54 58  0  0  0  0  0  0  0  0999 V2000
    4.0547   -0.7412   -0.4761 O   0  0  0  0  0  0  0  0  0  0  0  0
    3.5280    0.1739    0.1520 C   0  0  0  0  0  0  0  0  0  0  0  0
    2.1396    0.6871   -0.1792 C   0  0  0  0  0  0  0  0  0  0  0  0
    1.0240    0.3901    1.2256 S   0  0  0  0  0  0  0  0  0  0  0  0
   -0.5140    0.8009    0.4742 C   0  0  0  0  0  0  0  0  0  0  0  0
   -0.4714    1.7215   -0.4406 N   0  0  0  0  0  0  0  0  0  0  0  0
   -1.7048    2.0388   -1.0169 C   0  0  0  0  0  0  0  0  0  0  0  0
   -2.8662    1.4654   -0.6020 C   0  0  0  0  0  0  0  0  0  0  0  0
   -4.2070    2.0361   -1.4573 S   0  0  0  0  0  0  0  0  0  0  0  0
   -3.2222    3.0812   -2.4246 C   0  0  0  0  0  0  0  0  0  0  0  0
   -3.6543    3.9470   -3.4479 C   0  0  0  0  0  0  0  0  0  0  0  0
   -2.7067    4.7204   -4.1237 C   0  0  0  0  0  0  0  0  0  0  0  0
   -1.3607    4.6393   -3.7936 C   0  0  0  0  0  0  0  0  0  0  0  0
   -0.9346    3.7795   -2.7772 C   0  0  0  0  0  0  0  0  0  0  0  0
   -1.8696    2.9814   -2.0738 C   0  0  0  0  0  0  0  0  0  0  0  0
   -2.9217    0.4853    0.4407 C   0  0  0  0  0  0  0  0  0  0  0  0
   -3.9691    0.0134    0.8795 O   0  0  0  0  0  0  0  0  0  0  0  0
   -1.6529    0.1361    0.9341 N   0  0  0  0  0  0  0  0  0  0  0  0
   -1.6212   -0.9846    1.8894 C   0  0  0  0  0  0  0  0  0  0  0  0
   -1.1698   -2.3188    1.2631 C   0  0  0  0  0  0  0  0  0  0  0  0
   -1.9088   -2.6883   -0.0002 C   0  0  0  0  0  0  0  0  0  0  0  0
   -1.2810   -2.5659   -1.2482 C   0  0  0  0  0  0  0  0  0  0  0  0
   -1.9750   -2.8637   -2.4213 C   0  0  0  0  0  0  0  0  0  0  0  0
   -3.3002   -3.2886   -2.3591 C   0  0  0  0  0  0  0  0  0  0  0  0
   -3.9314   -3.4190   -1.1239 C   0  0  0  0  0  0  0  0  0  0  0  0
   -3.2396   -3.1221    0.0510 C   0  0  0  0  0  0  0  0  0  0  0  0
    4.1517    0.8458    1.1834 N   0  0  0  0  0  0  0  0  0  0  0  0
    5.4018    0.3723    1.7330 C   0  0  0  0  0  0  0  0  0  0  0  0
    5.0998   -0.5644    2.8428 C   0  0  0  0  0  0  0  0  0  0  0  0
    5.0092   -1.9390    2.9228 C   0  0  0  0  0  0  0  0  0  0  0  0
    4.6720   -2.2390    4.2641 C   0  0  0  0  0  0  0  0  0  0  0  0
    4.5742   -1.0311    4.9145 C   0  0  0  0  0  0  0  0  0  0  0  0
    4.8275   -0.0068    4.0591 O   0  0  0  0  0  0  0  0  0  0  0  0
    2.2050    1.7557   -0.4082 H   0  0  0  0  0  0  0  0  0  0  0  0
    1.7768    0.1555   -1.0649 H   0  0  0  0  0  0  0  0  0  0  0  0
   -4.7066    4.0136   -3.7089 H   0  0  0  0  0  0  0  0  0  0  0  0
   -3.0295    5.3923   -4.9157 H   0  0  0  0  0  0  0  0  0  0  0  0
   -0.6322    5.2463   -4.3262 H   0  0  0  0  0  0  0  0  0  0  0  0
    0.1207    3.7205   -2.5228 H   0  0  0  0  0  0  0  0  0  0  0  0
   -2.6131   -1.1246    2.3350 H   0  0  0  0  0  0  0  0  0  0  0  0
   -0.9625   -0.7315    2.7273 H   0  0  0  0  0  0  0  0  0  0  0  0
   -1.3017   -3.1223    1.9994 H   0  0  0  0  0  0  0  0  0  0  0  0
   -0.0946   -2.2963    1.0534 H   0  0  0  0  0  0  0  0  0  0  0  0
   -0.2478   -2.2328   -1.3186 H   0  0  0  0  0  0  0  0  0  0  0  0
   -1.4825   -2.7613   -3.3849 H   0  0  0  0  0  0  0  0  0  0  0  0
   -3.8428   -3.5146   -3.2732 H   0  0  0  0  0  0  0  0  0  0  0  0
   -4.9680   -3.7425   -1.0749 H   0  0  0  0  0  0  0  0  0  0  0  0
   -3.7558   -3.2125    1.0043 H   0  0  0  0  0  0  0  0  0  0  0  0
    3.5590    1.3726    1.8141 H   0  0  0  0  0  0  0  0  0  0  0  0
    5.9508    1.2444    2.1036 H   0  0  0  0  0  0  0  0  0  0  0  0
    6.0026   -0.1152    0.9578 H   0  0  0  0  0  0  0  0  0  0  0  0
    5.1621   -2.6316    2.1060 H   0  0  0  0  0  0  0  0  0  0  0  0
    4.5167   -3.2145    4.7027 H   0  0  0  0  0  0  0  0  0  0  0  0
    4.3433   -0.7439    5.9310 H   0  0  0  0  0  0  0  0  0  0  0  0
  1  2  2  0
  2  3  1  0
  3  4  1  0
  4  5  1  0
  5  6  2  0
  6  7  1  0
  7  8  2  0
  8  9  1  0
  9 10  1  0
 10 11  2  0
 11 12  1  0
 12 13  2  0
 13 14  1  0
 14 15  2  0
  8 16  1  0
 16 17  2  0
 16 18  1  0
 18 19  1  0
 19 20  1  0
 20 21  1  0
 21 22  2  0
 22 23  1  0
 23 24  2  0
 24 25  1  0
 25 26  2  0
  2 27  1  0
 27 28  1  0
 28 29  1  0
 29 30  2  0
 30 31  1  0
 31 32  2  0
 32 33  1  0
 18  5  1  0
 26 21  1  0
 33 29  1  0
 15  7  1  0
 15 10  1  0
  3 34  1  0
  3 35  1  0
 11 36  1  0
 12 37  1  0
 13 38  1  0
 14 39  1  0
 19 40  1  0
 19 41  1  0
 20 42  1  0
 20 43  1  0
 22 44  1  0
 23 45  1  0
 24 46  1  0
 25 47  1  0
 26 48  1  0
 27 49  1  0
 28 50  1  0
 28 51  1  0
 30 52  1  0
 31 53  1  0
 32 54  1  0
M  END
$$$$
