
     RDKit          3D

 37 38  0  0  0  0  0  0  0  0999 V2000
   -5.4680    0.6286   -0.2114 C   0  0  0  0  0  0  0  0  0  0  0  0
   -4.6602   -0.5897   -0.3707 N   0  0  0  0  0  0  0  0  0  0  0  0
   -4.0517   -0.7220   -1.7056 C   0  0  0  0  0  0  0  0  0  0  0  0
   -3.7514   -1.1205    0.9614 S   0  0  0  0  0  6  0  0  0  0  0  0
   -3.1740   -2.4033    0.6135 O   0  0  0  0  0  0  0  0  0  0  0  0
   -4.5489   -0.9967    2.1596 O   0  0  0  0  0  0  0  0  0  0  0  0
   -2.3975    0.0378    1.0372 C   0  0  0  0  0  0  0  0  0  0  0  0
   -1.2190   -0.3162    0.3539 C   0  0  0  0  0  0  0  0  0  0  0  0
   -0.0809    0.5063    0.3914 C   0  0  0  0  0  0  0  0  0  0  0  0
    1.0886    0.0515   -0.4044 C   0  0  0  0  0  0  0  0  0  0  0  0
    0.8652   -0.4118   -1.5180 O   0  0  0  0  0  0  0  0  0  0  0  0
    2.3073    0.1495    0.2158 N   0  0  0  0  0  0  0  0  0  0  0  0
    3.5081   -0.2415   -0.3222 C   0  0  0  0  0  0  0  0  0  0  0  0
    3.7930   -0.8256   -1.5749 C   0  0  0  0  0  0  0  0  0  0  0  0
    5.1563   -1.0081   -1.5863 C   0  0  0  0  0  0  0  0  0  0  0  0
    5.5998   -0.5423   -0.3863 N   0  0  0  0  0  0  0  0  0  0  0  0
    6.9632   -0.5136    0.0839 C   0  0  0  0  0  0  0  0  0  0  0  0
    4.6169   -0.0716    0.4029 N   0  0  0  0  0  0  0  0  0  0  0  0
   -0.1254    1.6955    1.1214 C   0  0  0  0  0  0  0  0  0  0  0  0
    1.1841    2.8179    1.1865 Cl  0  0  0  0  0  0  0  0  0  0  0  0
   -1.2932    2.0406    1.8122 C   0  0  0  0  0  0  0  0  0  0  0  0
   -2.4308    1.2189    1.7787 C   0  0  0  0  0  0  0  0  0  0  0  0
   -3.7987    1.8102    2.6450 Cl  0  0  0  0  0  0  0  0  0  0  0  0
   -4.8458    1.5243   -0.2877 H   0  0  0  0  0  0  0  0  0  0  0  0
   -6.2286    0.6705   -0.9984 H   0  0  0  0  0  0  0  0  0  0  0  0
   -6.0041    0.6275    0.7411 H   0  0  0  0  0  0  0  0  0  0  0  0
   -3.3348    0.0833   -1.8896 H   0  0  0  0  0  0  0  0  0  0  0  0
   -3.5527   -1.6877   -1.8223 H   0  0  0  0  0  0  0  0  0  0  0  0
   -4.8320   -0.6744   -2.4723 H   0  0  0  0  0  0  0  0  0  0  0  0
   -1.1767   -1.2453   -0.2183 H   0  0  0  0  0  0  0  0  0  0  0  0
    2.4059    0.5539    1.1368 H   0  0  0  0  0  0  0  0  0  0  0  0
    3.1023   -1.0809   -2.3659 H   0  0  0  0  0  0  0  0  0  0  0  0
    5.8226   -1.4198   -2.3311 H   0  0  0  0  0  0  0  0  0  0  0  0
    7.6226   -0.9210   -0.6866 H   0  0  0  0  0  0  0  0  0  0  0  0
    7.0278   -1.1210    0.9902 H   0  0  0  0  0  0  0  0  0  0  0  0
    7.2332    0.5241    0.2954 H   0  0  0  0  0  0  0  0  0  0  0  0
   -1.3225    2.9727    2.3766 H   0  0  0  0  0  0  0  0  0  0  0  0
  1  2  1  0
  2  3  1  0
  2  4  1  0
  4  5  2  0
  4  6  2  0
  4  7  1  0
  7  8  2  0
  8  9  1  0
  9 10  1  0
 10 11  2  0
 10 12  1  0
 12 13  1  0
 13 14  1  0
 14 15  2  0
 15 16  1  0
 16 17  1  0
 16 18  1  0
  9 19  2  0
 19 20  1  0
 19 21  1  0
 21 22  2  0
 22 23  1  0
 22  7  1  0
 18 13  2  0
  1 24  1  0
  1 25  1  0
  1 26  1  0
  3 27  1  0
  3 28  1  0
  3 29  1  0
  8 30  1  0
 12 31  1  0
 14 32  1  0
 15 33  1  0
 17 34  1  0
 17 35  1  0
 17 36  1  0
 21 37  1  0
M  END
$$$$
