
     RDKit          3D

 43 45  0  0  0  0  0  0  0  0999 V2000
    2.3678   -2.5132    1.9391 O   0  0  0  0  0  0  0  0  0  0  0  0
    2.6569   -1.3361    2.1357 C   0  0  0  0  0  0  0  0  0  0  0  0
    4.0191   -0.9414    2.6907 C   0  0  0  0  0  0  0  0  0  0  0  0
    5.3456   -1.2001    1.4666 S   0  0  0  0  0  0  0  0  0  0  0  0
    4.7994   -0.2143    0.0785 C   0  0  0  0  0  0  0  0  0  0  0  0
    4.9202   -0.7740   -1.1999 C   0  0  0  0  0  0  0  0  0  0  0  0
    4.5300   -0.0549   -2.3343 C   0  0  0  0  0  0  0  0  0  0  0  0
    4.0226    1.2368   -2.2051 C   0  0  0  0  0  0  0  0  0  0  0  0
    3.9078    1.8101   -0.9412 C   0  0  0  0  0  0  0  0  0  0  0  0
    4.2988    1.0878    0.1853 C   0  0  0  0  0  0  0  0  0  0  0  0
    4.1606    1.6744    1.3848 F   0  0  0  0  0  0  0  0  0  0  0  0
    1.8376   -0.2414    1.9000 N   0  0  0  0  0  0  0  0  0  0  0  0
    0.5341   -0.2407    1.3656 C   0  0  0  0  0  0  0  0  0  0  0  0
   -0.1745   -1.3856    1.0223 C   0  0  0  0  0  0  0  0  0  0  0  0
   -1.4706   -1.2883    0.4893 C   0  0  0  0  0  0  0  0  0  0  0  0
   -2.1076   -0.0561    0.2831 C   0  0  0  0  0  0  0  0  0  0  0  0
   -3.3823    0.0326   -0.2433 N   0  0  0  0  0  0  0  0  0  0  0  0
   -4.0081   -1.0831   -0.9715 C   0  0  0  0  0  0  0  0  0  0  0  0
   -5.0802   -0.5456   -1.9348 C   0  0  0  0  0  0  0  0  0  0  0  0
   -6.1298    0.1928   -1.2930 O   0  0  0  0  0  0  0  0  0  0  0  0
   -5.7144    0.8233   -0.0734 C   0  0  0  0  0  0  0  0  0  0  0  0
   -4.2286    1.2206   -0.0473 C   0  0  0  0  0  0  0  0  0  0  0  0
   -1.3720    1.0832    0.6376 C   0  0  0  0  0  0  0  0  0  0  0  0
   -0.0758    0.9980    1.1676 C   0  0  0  0  0  0  0  0  0  0  0  0
    4.2195   -1.5813    3.5571 H   0  0  0  0  0  0  0  0  0  0  0  0
    4.0300    0.0868    3.0609 H   0  0  0  0  0  0  0  0  0  0  0  0
    5.3122   -1.7820   -1.3247 H   0  0  0  0  0  0  0  0  0  0  0  0
    4.6227   -0.5074   -3.3190 H   0  0  0  0  0  0  0  0  0  0  0  0
    3.7181    1.7934   -3.0882 H   0  0  0  0  0  0  0  0  0  0  0  0
    3.5157    2.8155   -0.8257 H   0  0  0  0  0  0  0  0  0  0  0  0
    2.2370    0.6734    2.0776 H   0  0  0  0  0  0  0  0  0  0  0  0
    0.2416   -2.3790    1.1555 H   0  0  0  0  0  0  0  0  0  0  0  0
   -1.9803   -2.2200    0.2599 H   0  0  0  0  0  0  0  0  0  0  0  0
   -4.4651   -1.7693   -0.2493 H   0  0  0  0  0  0  0  0  0  0  0  0
   -3.2690   -1.6333   -1.5651 H   0  0  0  0  0  0  0  0  0  0  0  0
   -5.5465   -1.3735   -2.4786 H   0  0  0  0  0  0  0  0  0  0  0  0
   -4.6216    0.1162   -2.6794 H   0  0  0  0  0  0  0  0  0  0  0  0
   -5.9364    0.1319    0.7484 H   0  0  0  0  0  0  0  0  0  0  0  0
   -6.3422    1.7088    0.0685 H   0  0  0  0  0  0  0  0  0  0  0  0
   -4.0207    1.9392   -0.8485 H   0  0  0  0  0  0  0  0  0  0  0  0
   -4.0270    1.6991    0.9181 H   0  0  0  0  0  0  0  0  0  0  0  0
   -1.7865    2.0756    0.4840 H   0  0  0  0  0  0  0  0  0  0  0  0
    0.4418    1.9210    1.4134 H   0  0  0  0  0  0  0  0  0  0  0  0
  1  2  2  0
  2  3  1  0
  3  4  1  0
  4  5  1  0
  5  6  2  0
  6  7  1  0
  7  8  2  0
  8  9  1  0
  9 10  2  0
 10 11  1  0
  2 12  1  0
 12 13  1  0
 13 14  2  0
 14 15  1  0
 15 16  2  0
 16 17  1  0
 17 18  1  0
 18 19  1  0
 19 20  1  0
 20 21  1  0
 21 22  1  0
 16 23  1  0
 23 24  2  0
 10  5  1  0
 24 13  1  0
 22 17  1  0
  3 25  1  0
  3 26  1  0
  6 27  1  0
  7 28  1  0
  8 29  1  0
  9 30  1  0
 12 31  1  0
 14 32  1  0
 15 33  1  0
 18 34  1  0
 18 35  1  0
 19 36  1  0
 19 37  1  0
 21 38  1  0
 21 39  1  0
 22 40  1  0
 22 41  1  0
 23 42  1  0
 24 43  1  0
M  END
$$$$
