
     RDKit          3D

 74 79  0  0  0  0  0  0  0  0999 V2000
    9.4935   -1.1186   -4.0010 C   0  0  0  0  0  0  0  0  0  0  0  0
    8.1195   -1.1015   -4.3696 O   0  0  0  0  0  0  0  0  0  0  0  0
    7.2166   -0.8931   -3.3647 C   0  0  0  0  0  0  0  0  0  0  0  0
    5.8810   -0.9524   -3.7543 C   0  0  0  0  0  0  0  0  0  0  0  0
    4.8484   -0.7667   -2.8235 C   0  0  0  0  0  0  0  0  0  0  0  0
    5.1149   -0.5158   -1.4659 C   0  0  0  0  0  0  0  0  0  0  0  0
    4.0474   -0.3306   -0.4475 C   0  0  0  0  0  0  0  0  0  0  0  0
    2.6990   -0.5220   -0.6928 C   0  0  0  0  0  0  0  0  0  0  0  0
    1.7815   -0.3228    0.3441 C   0  0  0  0  0  0  0  0  0  0  0  0
    0.3526   -0.4841   -0.0268 C   0  0  0  0  0  0  0  0  0  0  0  0
    0.0210   -1.4887   -0.6427 O   0  0  0  0  0  0  0  0  0  0  0  0
   -0.4540    0.5672    0.3359 N   0  0  0  0  0  0  0  0  0  0  0  0
   -1.8451    0.7043    0.1566 C   0  0  0  0  0  0  0  0  0  0  0  0
   -2.6203   -0.1660   -0.6076 C   0  0  0  0  0  0  0  0  0  0  0  0
   -3.9993    0.0407   -0.6864 C   0  0  0  0  0  0  0  0  0  0  0  0
   -5.0027   -1.0157   -1.7042 S   0  0  0  0  0  6  0  0  0  0  0  0
   -6.1292   -0.2258   -2.1582 O   0  0  0  0  0  0  0  0  0  0  0  0
   -4.1518   -1.7091   -2.6465 O   0  0  0  0  0  0  0  0  0  0  0  0
   -5.5927   -2.1653   -0.5907 N   0  0  0  0  0  0  0  0  0  0  0  0
   -4.5786   -3.1374   -0.0572 C   0  0  0  0  0  0  0  0  0  0  0  0
   -4.7338   -4.5088   -0.7250 C   0  0  0  0  0  0  0  0  0  0  0  0
   -6.0080   -5.1154   -0.4600 O   0  0  0  0  0  0  0  0  0  0  0  0
   -7.0624   -4.1563   -0.2891 C   0  0  0  0  0  0  0  0  0  0  0  0
   -6.8315   -2.8630   -1.0762 C   0  0  0  0  0  0  0  0  0  0  0  0
   -4.6028    1.1195   -0.0317 C   0  0  0  0  0  0  0  0  0  0  0  0
   -3.8208    2.0030    0.7133 C   0  0  0  0  0  0  0  0  0  0  0  0
   -2.4373    1.8098    0.8196 C   0  0  0  0  0  0  0  0  0  0  0  0
   -1.5930    2.6886    1.5427 N   0  0  0  0  0  0  0  0  0  0  0  0
   -1.4199    4.0062    0.8730 C   0  0  0  0  0  0  0  0  0  0  0  0
   -2.0791    5.1396    1.6736 C   0  0  0  0  0  0  0  0  0  0  0  0
   -1.6014    5.2504    3.0233 O   0  0  0  0  0  0  0  0  0  0  0  0
   -1.1838    3.9976    3.5865 C   0  0  0  0  0  0  0  0  0  0  0  0
   -1.9265    2.7956    2.9838 C   0  0  0  0  0  0  0  0  0  0  0  0
    2.2146    0.0152    1.6458 C   0  0  0  0  0  0  0  0  0  0  0  0
    1.3811    0.1490    2.7913 C   0  0  0  0  0  0  0  0  0  0  0  0
    1.9066    0.5075    4.0313 C   0  0  0  0  0  0  0  0  0  0  0  0
    3.2703    0.7223    4.1539 C   0  0  0  0  0  0  0  0  0  0  0  0
    4.0978    0.5604    3.0403 C   0  0  0  0  0  0  0  0  0  0  0  0
    3.5991    0.2044    1.7942 C   0  0  0  0  0  0  0  0  0  0  0  0
    4.4727    0.0469    0.7853 N   0  0  0  0  0  0  0  0  0  0  0  0
    6.4757   -0.4498   -1.1021 C   0  0  0  0  0  0  0  0  0  0  0  0
    7.5124   -0.6331   -2.0312 C   0  0  0  0  0  0  0  0  0  0  0  0
    9.8141   -0.1367   -3.6361 H   0  0  0  0  0  0  0  0  0  0  0  0
   10.0752   -1.3485   -4.8992 H   0  0  0  0  0  0  0  0  0  0  0  0
    9.6979   -1.9034   -3.2644 H   0  0  0  0  0  0  0  0  0  0  0  0
    5.6331   -1.1503   -4.7948 H   0  0  0  0  0  0  0  0  0  0  0  0
    3.8309   -0.8268   -3.1991 H   0  0  0  0  0  0  0  0  0  0  0  0
    2.3301   -0.8255   -1.6657 H   0  0  0  0  0  0  0  0  0  0  0  0
   -0.0586    1.3458    0.8598 H   0  0  0  0  0  0  0  0  0  0  0  0
   -2.1679   -0.9878   -1.1550 H   0  0  0  0  0  0  0  0  0  0  0  0
   -4.7503   -3.2218    1.0236 H   0  0  0  0  0  0  0  0  0  0  0  0
   -3.5564   -2.7740   -0.1909 H   0  0  0  0  0  0  0  0  0  0  0  0
   -4.6166   -4.4274   -1.8129 H   0  0  0  0  0  0  0  0  0  0  0  0
   -3.9635   -5.1974   -0.3625 H   0  0  0  0  0  0  0  0  0  0  0  0
   -7.9940   -4.6333   -0.6082 H   0  0  0  0  0  0  0  0  0  0  0  0
   -7.1525   -3.9463    0.7834 H   0  0  0  0  0  0  0  0  0  0  0  0
   -7.6868   -2.1925   -0.9407 H   0  0  0  0  0  0  0  0  0  0  0  0
   -6.7285   -3.1030   -2.1415 H   0  0  0  0  0  0  0  0  0  0  0  0
   -5.6750    1.2868   -0.1143 H   0  0  0  0  0  0  0  0  0  0  0  0
   -4.3039    2.8455    1.2001 H   0  0  0  0  0  0  0  0  0  0  0  0
   -1.7948    4.0008   -0.1585 H   0  0  0  0  0  0  0  0  0  0  0  0
   -0.3397    4.1928    0.8222 H   0  0  0  0  0  0  0  0  0  0  0  0
   -3.1659    5.0012    1.7151 H   0  0  0  0  0  0  0  0  0  0  0  0
   -1.8972    6.0996    1.1821 H   0  0  0  0  0  0  0  0  0  0  0  0
   -0.1039    3.9049    3.4267 H   0  0  0  0  0  0  0  0  0  0  0  0
   -1.3555    4.0506    4.6663 H   0  0  0  0  0  0  0  0  0  0  0  0
   -3.0044    2.9360    3.1380 H   0  0  0  0  0  0  0  0  0  0  0  0
   -1.6194    1.8755    3.4945 H   0  0  0  0  0  0  0  0  0  0  0  0
    0.3128   -0.0484    2.7316 H   0  0  0  0  0  0  0  0  0  0  0  0
    1.2564    0.6088    4.8984 H   0  0  0  0  0  0  0  0  0  0  0  0
    3.6999    0.9984    5.1131 H   0  0  0  0  0  0  0  0  0  0  0  0
    5.1699    0.7111    3.1516 H   0  0  0  0  0  0  0  0  0  0  0  0
    6.7490   -0.2551   -0.0640 H   0  0  0  0  0  0  0  0  0  0  0  0
    8.5335   -0.5654   -1.6713 H   0  0  0  0  0  0  0  0  0  0  0  0
  1  2  1  0
  2  3  1  0
  3  4  2  0
  4  5  1  0
  5  6  2  0
  6  7  1  0
  7  8  2  0
  8  9  1  0
  9 10  1  0
 10 11  2  0
 10 12  1  0
 12 13  1  0
 13 14  2  0
 14 15  1  0
 15 16  1  0
 16 17  2  0
 16 18  2  0
 16 19  1  0
 19 20  1  0
 20 21  1  0
 21 22  1  0
 22 23  1  0
 23 24  1  0
 15 25  2  0
 25 26  1  0
 26 27  2  0
 27 28  1  0
 28 29  1  0
 29 30  1  0
 30 31  1  0
 31 32  1  0
 32 33  1  0
  9 34  2  0
 34 35  1  0
 35 36  2  0
 36 37  1  0
 37 38  2  0
 38 39  1  0
 39 40  2  0
  6 41  1  0
 41 42  2  0
 42  3  1  0
 40  7  1  0
 27 13  1  0
 33 28  1  0
 39 34  1  0
 24 19  1  0
  1 43  1  0
  1 44  1  0
  1 45  1  0
  4 46  1  0
  5 47  1  0
  8 48  1  0
 12 49  1  0
 14 50  1  0
 20 51  1  0
 20 52  1  0
 21 53  1  0
 21 54  1  0
 23 55  1  0
 23 56  1  0
 24 57  1  0
 24 58  1  0
 25 59  1  0
 26 60  1  0
 29 61  1  0
 29 62  1  0
 30 63  1  0
 30 64  1  0
 32 65  1  0
 32 66  1  0
 33 67  1  0
 33 68  1  0
 35 69  1  0
 36 70  1  0
 37 71  1  0
 38 72  1  0
 41 73  1  0
 42 74  1  0
M  END
$$$$
