
     RDKit          3D

 37 40  0  0  0  0  0  0  0  0999 V2000
   -3.4710    2.1364    1.5658 C   0  0  0  0  0  0  0  0  0  0  0  0
   -2.4355    1.4813    0.6705 C   0  0  0  0  0  0  0  0  0  0  0  0
   -2.8100    0.1187    0.4353 O   0  0  0  0  0  0  0  0  0  0  0  0
   -3.0498   -0.1860   -0.8815 C   0  0  0  0  0  0  0  0  0  0  0  0
   -3.9120    0.5791   -1.6732 C   0  0  0  0  0  0  0  0  0  0  0  0
   -4.1643    0.2093   -2.9952 C   0  0  0  0  0  0  0  0  0  0  0  0
   -3.5725   -0.9352   -3.5254 C   0  0  0  0  0  0  0  0  0  0  0  0
   -2.7329   -1.7185   -2.7320 C   0  0  0  0  0  0  0  0  0  0  0  0
   -2.4675   -1.3529   -1.4054 C   0  0  0  0  0  0  0  0  0  0  0  0
   -1.6051   -2.2253   -0.5998 C   0  0  0  0  0  0  0  0  0  0  0  0
   -0.3708   -1.9233   -0.1722 C   0  0  0  0  0  0  0  0  0  0  0  0
    0.5498   -3.0405    0.8378 S   0  0  0  0  0  0  0  0  0  0  0  0
    1.8277   -1.9038    0.9205 C   0  0  0  0  0  0  0  0  0  0  0  0
    2.9945   -1.8633    1.4942 N   0  0  0  0  0  0  0  0  0  0  0  0
    3.4567   -0.6190    1.0936 C   0  0  0  0  0  0  0  0  0  0  0  0
    4.8563   -0.0715    1.5271 C   0  0  0  0  0  0  0  0  0  0  0  0
    5.3912    1.1526    1.1721 C   0  0  0  0  0  0  0  0  0  0  0  0
    6.6668    1.2332    1.7816 C   0  0  0  0  0  0  0  0  0  0  0  0
    6.8334    0.0558    2.4707 C   0  0  0  0  0  0  0  0  0  0  0  0
    5.7443   -0.7407    2.3235 O   0  0  0  0  0  0  0  0  0  0  0  0
    2.6139    0.0815    0.3049 N   0  0  0  0  0  0  0  0  0  0  0  0
    1.5833   -0.7797    0.2210 N   0  0  0  0  0  0  0  0  0  0  0  0
    0.3884   -0.6596   -0.4571 C   0  0  0  0  0  0  0  0  0  0  0  0
    0.1049    0.3109   -1.1336 O   0  0  0  0  0  0  0  0  0  0  0  0
   -4.4538    2.1493    1.0846 H   0  0  0  0  0  0  0  0  0  0  0  0
   -3.1833    3.1640    1.8050 H   0  0  0  0  0  0  0  0  0  0  0  0
   -3.5820    1.5753    2.4996 H   0  0  0  0  0  0  0  0  0  0  0  0
   -2.2841    2.0614   -0.2480 H   0  0  0  0  0  0  0  0  0  0  0  0
   -1.4730    1.4619    1.1939 H   0  0  0  0  0  0  0  0  0  0  0  0
   -4.4051    1.4580   -1.2705 H   0  0  0  0  0  0  0  0  0  0  0  0
   -4.8290    0.8117   -3.6093 H   0  0  0  0  0  0  0  0  0  0  0  0
   -3.7712   -1.2223   -4.5549 H   0  0  0  0  0  0  0  0  0  0  0  0
   -2.2886   -2.6149   -3.1585 H   0  0  0  0  0  0  0  0  0  0  0  0
   -2.0624   -3.1780   -0.3405 H   0  0  0  0  0  0  0  0  0  0  0  0
    4.9098    1.8921    0.5466 H   0  0  0  0  0  0  0  0  0  0  0  0
    7.3758    2.0471    1.7256 H   0  0  0  0  0  0  0  0  0  0  0  0
    7.6272   -0.3490    3.0833 H   0  0  0  0  0  0  0  0  0  0  0  0
  1  2  1  0
  2  3  1  0
  3  4  1  0
  4  5  2  0
  5  6  1  0
  6  7  2  0
  7  8  1  0
  8  9  2  0
  9 10  1  0
 10 11  2  3
 11 12  1  0
 12 13  1  0
 13 14  2  0
 14 15  1  0
 15 16  1  0
 16 17  2  0
 17 18  1  0
 18 19  2  0
 19 20  1  0
 15 21  2  0
 21 22  1  0
 22 23  1  0
 23 24  2  0
  9  4  1  0
 23 11  1  0
 22 13  1  0
 20 16  1  0
  1 25  1  0
  1 26  1  0
  1 27  1  0
  2 28  1  0
  2 29  1  0
  5 30  1  0
  6 31  1  0
  7 32  1  0
  8 33  1  0
 10 34  1  0
 17 35  1  0
 18 36  1  0
 19 37  1  0
M  END
$$$$
