
     RDKit          3D

 42 44  0  0  0  0  0  0  0  0999 V2000
    5.0491   -3.4812    1.5922 C   0  0  0  0  0  0  0  0  0  0  0  0
    5.4165   -2.3246    0.8493 O   0  0  0  0  0  0  0  0  0  0  0  0
    4.3988   -1.5892    0.3071 C   0  0  0  0  0  0  0  0  0  0  0  0
    4.8096   -0.4989   -0.4642 C   0  0  0  0  0  0  0  0  0  0  0  0
    3.8820    0.3395   -1.0889 C   0  0  0  0  0  0  0  0  0  0  0  0
    4.4321    1.3565   -1.8202 O   0  0  0  0  0  0  0  0  0  0  0  0
    3.5354    2.2942   -2.4033 C   0  0  0  0  0  0  0  0  0  0  0  0
    2.5198    0.0849   -0.9378 C   0  0  0  0  0  0  0  0  0  0  0  0
    2.0947   -0.9931   -0.1455 C   0  0  0  0  0  0  0  0  0  0  0  0
    0.6462   -1.3025    0.0551 C   0  0  0  0  0  0  0  0  0  0  0  0
    0.3342   -2.4756    0.2200 O   0  0  0  0  0  0  0  0  0  0  0  0
   -0.1830   -0.1988    0.0586 N   0  0  0  0  0  0  0  0  0  0  0  0
   -1.5632   -0.1709    0.2087 C   0  0  0  0  0  0  0  0  0  0  0  0
   -2.4697   -1.6092    0.4026 S   0  0  0  0  0  0  0  0  0  0  0  0
   -3.8795   -0.7354    0.5462 C   0  0  0  0  0  0  0  0  0  0  0  0
   -3.7163    0.6185    0.4379 C   0  0  0  0  0  0  0  0  0  0  0  0
   -2.3547    0.9853    0.2116 C   0  0  0  0  0  0  0  0  0  0  0  0
   -1.7724    2.3126    0.0161 C   0  0  0  0  0  0  0  0  0  0  0  0
   -2.6382    3.3564   -0.1285 N   0  0  0  0  0  0  0  0  0  0  0  0
   -0.5601    2.5080   -0.0567 O   0  0  0  0  0  0  0  0  0  0  0  0
   -5.0261    1.3065    0.5965 C   0  0  0  0  0  0  0  0  0  0  0  0
   -5.9410    0.1782    1.1655 C   0  0  0  0  0  0  0  0  0  0  0  0
   -5.2745   -1.1736    0.7790 C   0  0  0  0  0  0  0  0  0  0  0  0
    3.0372   -1.8350    0.4645 C   0  0  0  0  0  0  0  0  0  0  0  0
    5.9695   -3.9677    1.9293 H   0  0  0  0  0  0  0  0  0  0  0  0
    4.4709   -3.2102    2.4817 H   0  0  0  0  0  0  0  0  0  0  0  0
    4.5039   -4.1963    0.9673 H   0  0  0  0  0  0  0  0  0  0  0  0
    5.8730   -0.3033   -0.5863 H   0  0  0  0  0  0  0  0  0  0  0  0
    4.1335    3.0629   -2.9020 H   0  0  0  0  0  0  0  0  0  0  0  0
    2.9072    1.8166   -3.1622 H   0  0  0  0  0  0  0  0  0  0  0  0
    2.9266    2.7890   -1.6391 H   0  0  0  0  0  0  0  0  0  0  0  0
    1.7856    0.6971   -1.4487 H   0  0  0  0  0  0  0  0  0  0  0  0
    0.2383    0.7274    0.0121 H   0  0  0  0  0  0  0  0  0  0  0  0
   -2.2317    4.2484   -0.3754 H   0  0  0  0  0  0  0  0  0  0  0  0
   -3.6190    3.2192   -0.3102 H   0  0  0  0  0  0  0  0  0  0  0  0
   -5.4008    1.6445   -0.3754 H   0  0  0  0  0  0  0  0  0  0  0  0
   -4.9810    2.1536    1.2865 H   0  0  0  0  0  0  0  0  0  0  0  0
   -5.9704    0.2620    2.2601 H   0  0  0  0  0  0  0  0  0  0  0  0
   -6.9707    0.2548    0.8028 H   0  0  0  0  0  0  0  0  0  0  0  0
   -5.7160   -1.5716   -0.1403 H   0  0  0  0  0  0  0  0  0  0  0  0
   -5.3719   -1.9084    1.5827 H   0  0  0  0  0  0  0  0  0  0  0  0
    2.6760   -2.6704    1.0572 H   0  0  0  0  0  0  0  0  0  0  0  0
  1  2  1  0
  2  3  1  0
  3  4  2  0
  4  5  1  0
  5  6  1  0
  6  7  1  0
  5  8  2  0
  8  9  1  0
  9 10  1  0
 10 11  2  0
 10 12  1  0
 12 13  1  0
 13 14  1  0
 14 15  1  0
 15 16  2  0
 16 17  1  0
 17 18  1  0
 18 19  1  0
 18 20  2  0
 16 21  1  0
 21 22  1  0
 22 23  1  0
  9 24  2  0
 24  3  1  0
 17 13  2  0
 23 15  1  0
  1 25  1  0
  1 26  1  0
  1 27  1  0
  4 28  1  0
  7 29  1  0
  7 30  1  0
  7 31  1  0
  8 32  1  0
 12 33  1  0
 19 34  1  0
 19 35  1  0
 21 36  1  0
 21 37  1  0
 22 38  1  0
 22 39  1  0
 23 40  1  0
 23 41  1  0
 24 42  1  0
M  END
$$$$
