
     RDKit          3D

 69 74  0  0  0  0  0  0  0  0999 V2000
    1.4268    1.2621   -2.5788 O   0  0  0  0  0  0  0  0  0  0  0  0
    2.1690    0.7195   -1.4784 C   0  0  0  0  0  0  0  0  0  0  0  0
    3.6241    1.1901   -1.5671 C   0  0  0  0  0  0  0  0  0  0  0  0
    4.4187    0.6740   -0.4994 O   0  0  0  0  0  0  0  0  0  0  0  0
    5.0069   -0.5529   -0.6036 C   0  0  0  0  0  0  0  0  0  0  0  0
    4.8276   -1.3976   -1.7081 C   0  0  0  0  0  0  0  0  0  0  0  0
    5.4495   -2.6463   -1.7715 C   0  0  0  0  0  0  0  0  0  0  0  0
    6.2627   -3.0727   -0.7283 C   0  0  0  0  0  0  0  0  0  0  0  0
    6.4650   -2.2624    0.3893 C   0  0  0  0  0  0  0  0  0  0  0  0
    7.3089   -2.7765    1.4009 N   0  0  0  0  0  0  0  0  0  0  0  0
    7.5234   -2.0537    2.4533 C   0  0  0  0  0  0  0  0  0  0  0  0
    6.9276   -0.7639    2.6123 C   0  0  0  0  0  0  0  0  0  0  0  0
    7.0274    0.1478    3.6410 C   0  0  0  0  0  0  0  0  0  0  0  0
    6.2314    1.2576    3.2862 C   0  0  0  0  0  0  0  0  0  0  0  0
    5.6747    0.9869    2.0530 C   0  0  0  0  0  0  0  0  0  0  0  0
    6.1014   -0.2533    1.6317 N   0  0  0  0  0  0  0  0  0  0  0  0
    5.8307   -0.9968    0.4509 C   0  0  0  0  0  0  0  0  0  0  0  0
    1.5000    1.1641   -0.1587 C   0  0  0  0  0  0  0  0  0  0  0  0
    0.0473    0.8971   -0.1925 N   0  0  0  0  0  0  0  0  0  0  0  0
   -0.6642    1.7208    0.8072 C   0  0  0  0  0  0  0  0  0  0  0  0
   -2.0952    1.2288    1.1587 C   0  0  0  0  0  0  0  0  0  0  0  0
   -2.6851    0.3876    0.0981 N   0  0  0  0  0  0  0  0  0  0  0  0
   -4.0949    0.0101    0.4005 C   0  0  0  0  0  0  0  0  0  0  0  0
   -4.6935   -1.0026   -0.5864 C   0  0  0  0  0  0  0  0  0  0  0  0
   -5.3386   -2.1545   -0.1044 C   0  0  0  0  0  0  0  0  0  0  0  0
   -5.9047   -3.0778   -0.9865 C   0  0  0  0  0  0  0  0  0  0  0  0
   -5.8366   -2.8626   -2.3609 C   0  0  0  0  0  0  0  0  0  0  0  0
   -5.2080   -1.7228   -2.8560 C   0  0  0  0  0  0  0  0  0  0  0  0
   -4.6428   -0.7981   -1.9762 C   0  0  0  0  0  0  0  0  0  0  0  0
   -5.0337    1.2203    0.5174 C   0  0  0  0  0  0  0  0  0  0  0  0
   -4.9626    2.3005   -0.3804 C   0  0  0  0  0  0  0  0  0  0  0  0
   -5.8404    3.3801   -0.2722 C   0  0  0  0  0  0  0  0  0  0  0  0
   -6.8079    3.3931    0.7295 C   0  0  0  0  0  0  0  0  0  0  0  0
   -6.8995    2.3275    1.6226 C   0  0  0  0  0  0  0  0  0  0  0  0
   -6.0212    1.2468    1.5169 C   0  0  0  0  0  0  0  0  0  0  0  0
   -1.8128   -0.7957   -0.0999 C   0  0  0  0  0  0  0  0  0  0  0  0
   -0.2862   -0.5193    0.0224 C   0  0  0  0  0  0  0  0  0  0  0  0
    0.4944    1.2403   -2.2718 H   0  0  0  0  0  0  0  0  0  0  0  0
    2.1257   -0.3709   -1.5607 H   0  0  0  0  0  0  0  0  0  0  0  0
    4.0654    0.9993   -2.5526 H   0  0  0  0  0  0  0  0  0  0  0  0
    3.6473    2.2835   -1.4744 H   0  0  0  0  0  0  0  0  0  0  0  0
    4.2046   -1.1200   -2.5530 H   0  0  0  0  0  0  0  0  0  0  0  0
    5.2999   -3.2862   -2.6382 H   0  0  0  0  0  0  0  0  0  0  0  0
    6.7478   -4.0445   -0.7798 H   0  0  0  0  0  0  0  0  0  0  0  0
    8.1806   -2.4425    3.2488 H   0  0  0  0  0  0  0  0  0  0  0  0
    7.6082    0.0279    4.5470 H   0  0  0  0  0  0  0  0  0  0  0  0
    6.0781    2.1618    3.8612 H   0  0  0  0  0  0  0  0  0  0  0  0
    5.0131    1.6004    1.4614 H   0  0  0  0  0  0  0  0  0  0  0  0
    1.9775    0.6983    0.7121 H   0  0  0  0  0  0  0  0  0  0  0  0
    1.6446    2.2497   -0.0700 H   0  0  0  0  0  0  0  0  0  0  0  0
   -0.0927    1.7793    1.7426 H   0  0  0  0  0  0  0  0  0  0  0  0
   -0.7362    2.7389    0.4054 H   0  0  0  0  0  0  0  0  0  0  0  0
   -2.7012    2.1186    1.3583 H   0  0  0  0  0  0  0  0  0  0  0  0
   -2.0517    0.6590    2.0970 H   0  0  0  0  0  0  0  0  0  0  0  0
   -4.0747   -0.4753    1.3881 H   0  0  0  0  0  0  0  0  0  0  0  0
   -5.4104   -2.3378    0.9648 H   0  0  0  0  0  0  0  0  0  0  0  0
   -6.4008   -3.9643   -0.6004 H   0  0  0  0  0  0  0  0  0  0  0  0
   -6.2779   -3.5807   -3.0469 H   0  0  0  0  0  0  0  0  0  0  0  0
   -5.1563   -1.5505   -3.9276 H   0  0  0  0  0  0  0  0  0  0  0  0
   -4.1512    0.0856   -2.3776 H   0  0  0  0  0  0  0  0  0  0  0  0
   -4.2119    2.3036   -1.1685 H   0  0  0  0  0  0  0  0  0  0  0  0
   -5.7703    4.2074   -0.9735 H   0  0  0  0  0  0  0  0  0  0  0  0
   -7.4944    4.2316    0.8099 H   0  0  0  0  0  0  0  0  0  0  0  0
   -7.6616    2.3338    2.3968 H   0  0  0  0  0  0  0  0  0  0  0  0
   -6.1185    0.4191    2.2147 H   0  0  0  0  0  0  0  0  0  0  0  0
   -1.9903   -1.1899   -1.1069 H   0  0  0  0  0  0  0  0  0  0  0  0
   -2.0611   -1.5906    0.6157 H   0  0  0  0  0  0  0  0  0  0  0  0
    0.2265   -1.1586   -0.7041 H   0  0  0  0  0  0  0  0  0  0  0  0
    0.0529   -0.8318    1.0196 H   0  0  0  0  0  0  0  0  0  0  0  0
  1  2  1  0
  2  3  1  0
  3  4  1  0
  4  5  1  0
  5  6  2  0
  6  7  1  0
  7  8  2  0
  8  9  1  0
  9 10  1  0
 10 11  2  0
 11 12  1  0
 12 13  2  0
 13 14  1  0
 14 15  2  0
 15 16  1  0
 16 17  1  0
  2 18  1  0
 18 19  1  0
 19 20  1  0
 20 21  1  0
 21 22  1  0
 22 23  1  0
 23 24  1  0
 24 25  2  0
 25 26  1  0
 26 27  2  0
 27 28  1  0
 28 29  2  0
 23 30  1  0
 30 31  2  0
 31 32  1  0
 32 33  2  0
 33 34  1  0
 34 35  2  0
 22 36  1  0
 36 37  1  0
 17  5  1  0
 37 19  1  0
 17  9  2  0
 29 24  1  0
 35 30  1  0
 16 12  1  0
  1 38  1  0
  2 39  1  0
  3 40  1  0
  3 41  1  0
  6 42  1  0
  7 43  1  0
  8 44  1  0
 11 45  1  0
 13 46  1  0
 14 47  1  0
 15 48  1  0
 18 49  1  0
 18 50  1  0
 20 51  1  0
 20 52  1  0
 21 53  1  0
 21 54  1  0
 23 55  1  0
 25 56  1  0
 26 57  1  0
 27 58  1  0
 28 59  1  0
 29 60  1  0
 31 61  1  0
 32 62  1  0
 33 63  1  0
 34 64  1  0
 35 65  1  0
 36 66  1  0
 36 67  1  0
 37 68  1  0
 37 69  1  0
M  END
$$$$
