
     RDKit          3D

 65 68  0  0  0  0  0  0  0  0999 V2000
    7.9418    3.5062    3.1560 C   0  0  0  0  0  0  0  0  0  0  0  0
    7.1024    2.2987    3.2339 C   0  0  0  0  0  0  0  0  0  0  0  0
    5.9610    1.8806    2.5963 C   0  0  0  0  0  0  0  0  0  0  0  0
    5.6882    0.6110    3.1521 C   0  0  0  0  0  0  0  0  0  0  0  0
    4.6633   -0.2659    2.8734 N   0  0  0  0  0  0  0  0  0  0  0  0
    3.6526   -0.0427    1.9663 C   0  0  0  0  0  0  0  0  0  0  0  0
    3.5076    0.9677    1.2842 O   0  0  0  0  0  0  0  0  0  0  0  0
    2.7056   -1.2217    1.8735 C   0  0  0  0  0  0  0  0  0  0  0  0
    1.5190   -0.9111    0.9654 C   0  0  0  0  0  0  0  0  0  0  0  0
    0.5943   -2.1050    0.8163 C   0  0  0  0  0  0  0  0  0  0  0  0
    0.8897   -3.1815    1.3382 O   0  0  0  0  0  0  0  0  0  0  0  0
   -0.5563   -1.9370    0.0504 N   0  0  0  0  0  0  0  0  0  0  0  0
   -1.5093   -3.0530    0.0276 C   0  0  0  0  0  0  0  0  0  0  0  0
   -1.2964   -3.9124   -1.1890 C   0  0  0  0  0  0  0  0  0  0  0  0
   -0.1174   -4.4143   -1.7089 C   0  0  0  0  0  0  0  0  0  0  0  0
   -0.3233   -5.1968   -2.8811 C   0  0  0  0  0  0  0  0  0  0  0  0
   -1.6560   -5.2915   -3.2073 C   0  0  0  0  0  0  0  0  0  0  0  0
   -2.6491   -4.4464   -2.1030 S   0  0  0  0  0  0  0  0  0  0  0  0
   -1.0064   -0.6227   -0.4637 C   0  0  0  0  0  0  0  0  0  0  0  0
   -1.9034    0.1113    0.5773 C   0  0  0  0  0  0  0  0  0  0  0  0
   -2.3506   -0.4314    1.5860 O   0  0  0  0  0  0  0  0  0  0  0  0
   -2.1376    1.4475    0.2871 N   0  0  0  0  0  0  0  0  0  0  0  0
   -3.0339    2.2507    1.1083 C   0  0  0  0  0  0  0  0  0  0  0  0
   -2.7777    3.7428    0.8931 C   0  0  0  0  0  0  0  0  0  0  0  0
   -3.7042    4.1090   -0.2557 C   0  0  0  0  0  0  0  0  0  0  0  0
   -4.9745    3.3421    0.0734 C   0  0  0  0  0  0  0  0  0  0  0  0
   -4.5022    2.0324    0.7062 C   0  0  0  0  0  0  0  0  0  0  0  0
   -1.6107   -0.6828   -1.8637 C   0  0  0  0  0  0  0  0  0  0  0  0
   -2.9965   -0.7184   -2.0889 C   0  0  0  0  0  0  0  0  0  0  0  0
   -3.5065   -0.7697   -3.3878 C   0  0  0  0  0  0  0  0  0  0  0  0
   -2.6405   -0.7980   -4.4782 C   0  0  0  0  0  0  0  0  0  0  0  0
   -1.2637   -0.7794   -4.2727 C   0  0  0  0  0  0  0  0  0  0  0  0
   -0.7515   -0.7253   -2.9755 C   0  0  0  0  0  0  0  0  0  0  0  0
    6.6057    0.2839    4.0692 N   0  0  0  0  0  0  0  0  0  0  0  0
    7.4902    1.3455    4.1214 O   0  0  0  0  0  0  0  0  0  0  0  0
    7.6161    4.1580    2.3394 H   0  0  0  0  0  0  0  0  0  0  0  0
    7.8836    4.0726    4.0902 H   0  0  0  0  0  0  0  0  0  0  0  0
    8.9877    3.2380    2.9797 H   0  0  0  0  0  0  0  0  0  0  0  0
    5.4086    2.4197    1.8421 H   0  0  0  0  0  0  0  0  0  0  0  0
    4.6974   -1.1232    3.4101 H   0  0  0  0  0  0  0  0  0  0  0  0
    3.2685   -2.0789    1.4853 H   0  0  0  0  0  0  0  0  0  0  0  0
    2.3521   -1.4753    2.8798 H   0  0  0  0  0  0  0  0  0  0  0  0
    1.8844   -0.6341   -0.0305 H   0  0  0  0  0  0  0  0  0  0  0  0
    0.9584   -0.0708    1.3898 H   0  0  0  0  0  0  0  0  0  0  0  0
   -1.3793   -3.6789    0.9190 H   0  0  0  0  0  0  0  0  0  0  0  0
   -2.5296   -2.6588    0.0804 H   0  0  0  0  0  0  0  0  0  0  0  0
    0.8526   -4.2280   -1.2636 H   0  0  0  0  0  0  0  0  0  0  0  0
    0.4664   -5.6740   -3.4478 H   0  0  0  0  0  0  0  0  0  0  0  0
   -2.0992   -5.8244   -4.0363 H   0  0  0  0  0  0  0  0  0  0  0  0
   -0.1302    0.0293   -0.5570 H   0  0  0  0  0  0  0  0  0  0  0  0
   -1.9673    1.7546   -0.6637 H   0  0  0  0  0  0  0  0  0  0  0  0
   -2.8712    1.9753    2.1566 H   0  0  0  0  0  0  0  0  0  0  0  0
   -3.0718    4.3011    1.7912 H   0  0  0  0  0  0  0  0  0  0  0  0
   -1.7315    3.9790    0.6723 H   0  0  0  0  0  0  0  0  0  0  0  0
   -3.2884    3.7659   -1.2105 H   0  0  0  0  0  0  0  0  0  0  0  0
   -3.8761    5.1872   -0.3248 H   0  0  0  0  0  0  0  0  0  0  0  0
   -5.5964    3.1737   -0.8116 H   0  0  0  0  0  0  0  0  0  0  0  0
   -5.5734    3.9061    0.7990 H   0  0  0  0  0  0  0  0  0  0  0  0
   -5.1186    1.7983    1.5825 H   0  0  0  0  0  0  0  0  0  0  0  0
   -4.6181    1.2039   -0.0019 H   0  0  0  0  0  0  0  0  0  0  0  0
   -3.6993   -0.7286   -1.2577 H   0  0  0  0  0  0  0  0  0  0  0  0
   -4.5809   -0.8069   -3.5479 H   0  0  0  0  0  0  0  0  0  0  0  0
   -3.0395   -0.8521   -5.4877 H   0  0  0  0  0  0  0  0  0  0  0  0
   -0.5867   -0.8197   -5.1221 H   0  0  0  0  0  0  0  0  0  0  0  0
    0.3279   -0.7312   -2.8365 H   0  0  0  0  0  0  0  0  0  0  0  0
  1  2  1  0
  2  3  2  0
  3  4  1  0
  4  5  1  0
  5  6  1  0
  6  7  2  0
  6  8  1  0
  8  9  1  0
  9 10  1  0
 10 11  2  0
 10 12  1  0
 12 13  1  0
 13 14  1  0
 14 15  2  0
 15 16  1  0
 16 17  2  0
 17 18  1  0
 12 19  1  0
 19 20  1  0
 20 21  2  0
 20 22  1  0
 22 23  1  0
 23 24  1  0
 24 25  1  0
 25 26  1  0
 26 27  1  0
 19 28  1  0
 28 29  2  0
 29 30  1  0
 30 31  2  0
 31 32  1  0
 32 33  2  0
  4 34  2  0
 34 35  1  0
 35  2  1  0
 18 14  1  0
 27 23  1  0
 33 28  1  0
  1 36  1  0
  1 37  1  0
  1 38  1  0
  3 39  1  0
  5 40  1  0
  8 41  1  0
  8 42  1  0
  9 43  1  0
  9 44  1  0
 13 45  1  0
 13 46  1  0
 15 47  1  0
 16 48  1  0
 17 49  1  0
 19 50  1  0
 22 51  1  0
 23 52  1  0
 24 53  1  0
 24 54  1  0
 25 55  1  0
 25 56  1  0
 26 57  1  0
 26 58  1  0
 27 59  1  0
 27 60  1  0
 29 61  1  0
 30 62  1  0
 31 63  1  0
 32 64  1  0
 33 65  1  0
M  END
$$$$
