
     RDKit          3D

 53 58  0  0  0  0  0  0  0  0999 V2000
    1.1390   -1.3496    1.3627 O   0  0  0  0  0  0  0  0  0  0  0  0
    1.5658   -0.3033    0.8647 C   0  0  0  0  0  0  0  0  0  0  0  0
    0.7374    0.9843    1.0736 C   0  0  0  0  0  0  0  0  0  0  0  0
   -0.7040    0.6820    0.9876 N   0  0  0  0  0  4  0  0  0  0  0  0
   -1.5234    0.8372   -0.1296 C   0  0  0  0  0  0  0  0  0  0  0  0
   -2.7950    0.3645    0.1739 C   0  0  0  0  0  0  0  0  0  0  0  0
   -4.0458    0.3732   -0.7794 C   0  0  0  0  0  0  0  0  0  0  0  0
   -5.2951   -0.0569   -0.3210 C   0  0  0  0  0  0  0  0  0  0  0  0
   -6.3998   -0.0422   -1.1780 C   0  0  0  0  0  0  0  0  0  0  0  0
   -6.2531    0.4028   -2.4853 C   0  0  0  0  0  0  0  0  0  0  0  0
   -7.3128    0.4160   -3.3020 F   0  0  0  0  0  0  0  0  0  0  0  0
   -5.0203    0.8370   -2.9536 C   0  0  0  0  0  0  0  0  0  0  0  0
   -3.9127    0.8250   -2.1010 C   0  0  0  0  0  0  0  0  0  0  0  0
   -2.6625   -0.0913    1.4734 N   0  0  0  0  0  0  0  0  0  0  0  0
   -1.4300    0.1005    1.9373 C   0  0  0  0  0  0  0  0  0  0  0  0
   -1.2518   -0.3685    3.3313 C   0  0  0  0  0  0  0  0  0  0  0  0
   -2.5106   -1.2320    3.5414 C   0  0  0  0  0  0  0  0  0  0  0  0
   -3.5108   -0.7581    2.4517 C   0  0  0  0  0  0  0  0  0  0  0  0
    2.6722   -0.1859    0.0049 N   0  0  0  0  0  0  0  0  0  0  0  0
    3.1134   -1.2929   -0.8136 C   0  0  0  0  0  0  0  0  0  0  0  0
    2.9566   -2.6245   -0.3888 C   0  0  0  0  0  0  0  0  0  0  0  0
    3.3701   -3.7021   -1.1805 C   0  0  0  0  0  0  0  0  0  0  0  0
    3.9459   -3.4749   -2.4223 C   0  0  0  0  0  0  0  0  0  0  0  0
    4.1088   -2.1688   -2.8716 C   0  0  0  0  0  0  0  0  0  0  0  0
    3.7016   -1.0843   -2.0779 C   0  0  0  0  0  0  0  0  0  0  0  0
    3.8718    0.5404   -2.7823 S   0  0  0  0  0  0  0  0  0  0  0  0
    4.0359    1.4608   -1.2791 C   0  0  0  0  0  0  0  0  0  0  0  0
    4.7554    2.6639   -1.3189 C   0  0  0  0  0  0  0  0  0  0  0  0
    4.9204    3.4307   -0.1679 C   0  0  0  0  0  0  0  0  0  0  0  0
    4.3786    2.9929    1.0337 C   0  0  0  0  0  0  0  0  0  0  0  0
    3.6519    1.8004    1.0769 C   0  0  0  0  0  0  0  0  0  0  0  0
    3.4397    1.0297   -0.0843 C   0  0  0  0  0  0  0  0  0  0  0  0
    0.9394    1.3893    2.0697 H   0  0  0  0  0  0  0  0  0  0  0  0
    0.9522    1.7432    0.3164 H   0  0  0  0  0  0  0  0  0  0  0  0
   -1.0919    1.2779   -1.0124 H   0  0  0  0  0  0  0  0  0  0  0  0
   -5.4519   -0.3962    0.6946 H   0  0  0  0  0  0  0  0  0  0  0  0
   -7.3769   -0.3719   -0.8353 H   0  0  0  0  0  0  0  0  0  0  0  0
   -4.9316    1.1806   -3.9806 H   0  0  0  0  0  0  0  0  0  0  0  0
   -2.9636    1.1674   -2.5029 H   0  0  0  0  0  0  0  0  0  0  0  0
   -0.3228   -0.9292    3.4217 H   0  0  0  0  0  0  0  0  0  0  0  0
   -1.2492    0.5251    3.9594 H   0  0  0  0  0  0  0  0  0  0  0  0
   -2.9173   -1.1551    4.5532 H   0  0  0  0  0  0  0  0  0  0  0  0
   -2.2584   -2.2833    3.3581 H   0  0  0  0  0  0  0  0  0  0  0  0
   -4.0336   -1.6066    2.0046 H   0  0  0  0  0  0  0  0  0  0  0  0
   -4.2199   -0.0302    2.8565 H   0  0  0  0  0  0  0  0  0  0  0  0
    2.5543   -2.8717    0.5890 H   0  0  0  0  0  0  0  0  0  0  0  0
    3.2488   -4.7204   -0.8165 H   0  0  0  0  0  0  0  0  0  0  0  0
    4.2688   -4.3104   -3.0391 H   0  0  0  0  0  0  0  0  0  0  0  0
    4.5536   -2.0020   -3.8512 H   0  0  0  0  0  0  0  0  0  0  0  0
    5.2064    3.0070   -2.2491 H   0  0  0  0  0  0  0  0  0  0  0  0
    5.4949    4.3541   -0.2073 H   0  0  0  0  0  0  0  0  0  0  0  0
    4.5461    3.5682    1.9424 H   0  0  0  0  0  0  0  0  0  0  0  0
    3.3157    1.4583    2.0528 H   0  0  0  0  0  0  0  0  0  0  0  0
  1  2  2  0
  2  3  1  0
  3  4  1  0
  4  5  1  0
  5  6  2  0
  6  7  1  0
  7  8  2  0
  8  9  1  0
  9 10  2  0
 10 11  1  0
 10 12  1  0
 12 13  2  0
  6 14  1  0
 14 15  1  0
 15 16  1  0
 16 17  1  0
 17 18  1  0
  2 19  1  0
 19 20  1  0
 20 21  2  0
 21 22  1  0
 22 23  2  0
 23 24  1  0
 24 25  2  0
 25 26  1  0
 26 27  1  0
 27 28  2  0
 28 29  1  0
 29 30  2  0
 30 31  1  0
 31 32  2  0
 15  4  2  0
 32 19  1  0
 13  7  1  0
 18 14  1  0
 25 20  1  0
 32 27  1  0
  3 33  1  0
  3 34  1  0
  5 35  1  0
  8 36  1  0
  9 37  1  0
 12 38  1  0
 13 39  1  0
 16 40  1  0
 16 41  1  0
 17 42  1  0
 17 43  1  0
 18 44  1  0
 18 45  1  0
 21 46  1  0
 22 47  1  0
 23 48  1  0
 24 49  1  0
 28 50  1  0
 29 51  1  0
 30 52  1  0
 31 53  1  0
M  CHG  1   4   1
M  END
$$$$
