
     RDKit          3D

 49 50  0  0  0  0  0  0  0  0999 V2000
    6.4095   -1.4783    0.5462 C   0  0  0  0  0  0  0  0  0  0  0  0
    6.1481   -0.5569   -0.6307 C   0  0  0  0  0  0  0  0  0  0  0  0
    4.7457   -0.5148   -0.9256 O   0  0  0  0  0  0  0  0  0  0  0  0
    4.0106    0.3936   -0.2185 C   0  0  0  0  0  0  0  0  0  0  0  0
    4.4915    1.1356    0.6311 O   0  0  0  0  0  0  0  0  0  0  0  0
    2.5831    0.3783   -0.5770 C   0  0  0  0  0  0  0  0  0  0  0  0
    1.9386   -0.2731   -1.6902 C   0  0  0  0  0  0  0  0  0  0  0  0
    2.6108   -1.0902   -2.7441 C   0  0  0  0  0  0  0  0  0  0  0  0
    0.5809    0.0061   -1.6097 C   0  0  0  0  0  0  0  0  0  0  0  0
   -0.5407   -0.4293   -2.4952 C   0  0  0  0  0  0  0  0  0  0  0  0
    0.3803    0.8281   -0.5168 N   0  0  0  0  0  0  0  0  0  0  0  0
   -0.9063    1.4454   -0.1615 C   0  0  0  0  0  0  0  0  0  0  0  0
   -1.8535    0.5236    0.5777 C   0  0  0  0  0  0  0  0  0  0  0  0
   -1.3938   -0.4733    1.4521 C   0  0  0  0  0  0  0  0  0  0  0  0
   -2.2913   -1.2797    2.1508 C   0  0  0  0  0  0  0  0  0  0  0  0
   -3.6662   -1.0888    2.0131 C   0  0  0  0  0  0  0  0  0  0  0  0
   -4.1593   -0.0885    1.1720 C   0  0  0  0  0  0  0  0  0  0  0  0
   -5.4901    0.1971    1.0111 O   0  0  0  0  0  0  0  0  0  0  0  0
   -6.4111   -0.4558    1.8752 C   0  0  0  0  0  0  0  0  0  0  0  0
   -3.2457    0.6974    0.4399 C   0  0  0  0  0  0  0  0  0  0  0  0
   -3.6599    1.7190   -0.3856 O   0  0  0  0  0  0  0  0  0  0  0  0
   -4.4765    1.2532   -1.4606 C   0  0  0  0  0  0  0  0  0  0  0  0
    1.5794    1.0318    0.1389 C   0  0  0  0  0  0  0  0  0  0  0  0
    1.6919    1.8386    1.3935 C   0  0  0  0  0  0  0  0  0  0  0  0
    7.4826   -1.5709    0.7347 H   0  0  0  0  0  0  0  0  0  0  0  0
    5.9963   -2.4743    0.3548 H   0  0  0  0  0  0  0  0  0  0  0  0
    5.9273   -1.1022    1.4545 H   0  0  0  0  0  0  0  0  0  0  0  0
    6.5505    0.4472   -0.4539 H   0  0  0  0  0  0  0  0  0  0  0  0
    6.6491   -0.9493   -1.5220 H   0  0  0  0  0  0  0  0  0  0  0  0
    1.9414   -1.3235   -3.5758 H   0  0  0  0  0  0  0  0  0  0  0  0
    2.9642   -2.0366   -2.3233 H   0  0  0  0  0  0  0  0  0  0  0  0
    3.4625   -0.5484   -3.1674 H   0  0  0  0  0  0  0  0  0  0  0  0
   -0.9247    0.4182   -3.0733 H   0  0  0  0  0  0  0  0  0  0  0  0
   -1.3614   -0.8560   -1.9096 H   0  0  0  0  0  0  0  0  0  0  0  0
   -0.2249   -1.2017   -3.2013 H   0  0  0  0  0  0  0  0  0  0  0  0
   -0.7130    2.3404    0.4376 H   0  0  0  0  0  0  0  0  0  0  0  0
   -1.3345    1.7887   -1.1100 H   0  0  0  0  0  0  0  0  0  0  0  0
   -0.3284   -0.6406    1.5976 H   0  0  0  0  0  0  0  0  0  0  0  0
   -1.9150   -2.0551    2.8144 H   0  0  0  0  0  0  0  0  0  0  0  0
   -4.3246   -1.7342    2.5845 H   0  0  0  0  0  0  0  0  0  0  0  0
   -7.4068   -0.0535    1.6662 H   0  0  0  0  0  0  0  0  0  0  0  0
   -6.4405   -1.5321    1.6762 H   0  0  0  0  0  0  0  0  0  0  0  0
   -6.1841   -0.2520    2.9271 H   0  0  0  0  0  0  0  0  0  0  0  0
   -4.2768    1.8906   -2.3274 H   0  0  0  0  0  0  0  0  0  0  0  0
   -4.2528    0.2195   -1.7483 H   0  0  0  0  0  0  0  0  0  0  0  0
   -5.5344    1.3618   -1.2069 H   0  0  0  0  0  0  0  0  0  0  0  0
    0.7738    1.8105    1.9869 H   0  0  0  0  0  0  0  0  0  0  0  0
    1.9170    2.8822    1.1510 H   0  0  0  0  0  0  0  0  0  0  0  0
    2.4812    1.4521    2.0442 H   0  0  0  0  0  0  0  0  0  0  0  0
  1  2  1  0
  2  3  1  0
  3  4  1  0
  4  5  2  0
  4  6  1  0
  6  7  1  0
  7  8  1  0
  7  9  2  0
  9 10  1  0
  9 11  1  0
 11 12  1  0
 12 13  1  0
 13 14  2  0
 14 15  1  0
 15 16  2  0
 16 17  1  0
 17 18  1  0
 18 19  1  0
 17 20  2  0
 20 21  1  0
 21 22  1  0
 11 23  1  0
 23 24  1  0
 23  6  2  0
 20 13  1  0
  1 25  1  0
  1 26  1  0
  1 27  1  0
  2 28  1  0
  2 29  1  0
  8 30  1  0
  8 31  1  0
  8 32  1  0
 10 33  1  0
 10 34  1  0
 10 35  1  0
 12 36  1  0
 12 37  1  0
 14 38  1  0
 15 39  1  0
 16 40  1  0
 19 41  1  0
 19 42  1  0
 19 43  1  0
 22 44  1  0
 22 45  1  0
 22 46  1  0
 24 47  1  0
 24 48  1  0
 24 49  1  0
M  END
$$$$
