
     RDKit          3D

 42 44  0  0  0  0  0  0  0  0999 V2000
    6.6637   -2.1778   -0.5956 C   0  0  0  0  0  0  0  0  0  0  0  0
    5.9606   -1.0148   -1.0393 O   0  0  0  0  0  0  0  0  0  0  0  0
    4.6117   -1.0625   -0.8257 C   0  0  0  0  0  0  0  0  0  0  0  0
    4.0209   -2.0133   -0.3323 O   0  0  0  0  0  0  0  0  0  0  0  0
    3.9784    0.2025   -1.3476 C   0  0  0  0  0  0  0  0  0  0  0  0
    2.6926    0.4798   -0.7233 N   0  0  0  0  0  0  0  0  0  0  0  0
    1.4786    0.1482   -1.2702 C   0  0  0  0  0  0  0  0  0  0  0  0
    0.4932    0.5618   -0.4012 C   0  0  0  0  0  0  0  0  0  0  0  0
   -0.8933    0.3243   -0.6489 C   0  0  0  0  0  0  0  0  0  0  0  0
   -1.8089    0.0526    0.2962 C   0  0  0  0  0  0  0  0  0  0  0  0
   -3.2234   -0.2190    0.0208 C   0  0  0  0  0  0  0  0  0  0  0  0
   -4.1918    0.2802    0.8898 C   0  0  0  0  0  0  0  0  0  0  0  0
   -5.5347    0.0031    0.6598 C   0  0  0  0  0  0  0  0  0  0  0  0
   -5.9105   -0.7530   -0.3955 N   0  0  0  0  0  4  0  0  0  0  0  0
   -7.3378   -1.0443   -0.6116 C   0  0  0  0  0  0  0  0  0  0  0  0
   -4.9879   -1.2690   -1.2377 C   0  0  0  0  0  0  0  0  0  0  0  0
   -3.6343   -1.0153   -1.0471 C   0  0  0  0  0  0  0  0  0  0  0  0
    1.1303    1.2307    0.6902 C   0  0  0  0  0  0  0  0  0  0  0  0
    0.6764    1.9093    1.8439 C   0  0  0  0  0  0  0  0  0  0  0  0
    1.5978    2.4597    2.7413 C   0  0  0  0  0  0  0  0  0  0  0  0
    2.9628    2.3490    2.5066 C   0  0  0  0  0  0  0  0  0  0  0  0
    3.4441    1.6973    1.3687 C   0  0  0  0  0  0  0  0  0  0  0  0
    2.5117    1.1529    0.4689 C   0  0  0  0  0  0  0  0  0  0  0  0
    6.3284   -3.0607   -1.1484 H   0  0  0  0  0  0  0  0  0  0  0  0
    6.5300   -2.3189    0.4815 H   0  0  0  0  0  0  0  0  0  0  0  0
    7.7280   -2.0266   -0.7957 H   0  0  0  0  0  0  0  0  0  0  0  0
    3.8232    0.1069   -2.4271 H   0  0  0  0  0  0  0  0  0  0  0  0
    4.6278    1.0635   -1.1600 H   0  0  0  0  0  0  0  0  0  0  0  0
    1.4214   -0.3846   -2.2108 H   0  0  0  0  0  0  0  0  0  0  0  0
   -1.1894    0.3391   -1.6955 H   0  0  0  0  0  0  0  0  0  0  0  0
   -1.5121    0.0127    1.3425 H   0  0  0  0  0  0  0  0  0  0  0  0
   -3.9088    0.8910    1.7456 H   0  0  0  0  0  0  0  0  0  0  0  0
   -6.3145    0.3784    1.3167 H   0  0  0  0  0  0  0  0  0  0  0  0
   -7.5192   -1.1724   -1.6818 H   0  0  0  0  0  0  0  0  0  0  0  0
   -7.5713   -1.9607   -0.0641 H   0  0  0  0  0  0  0  0  0  0  0  0
   -7.9344   -0.2063   -0.2419 H   0  0  0  0  0  0  0  0  0  0  0  0
   -5.3413   -1.8896   -2.0564 H   0  0  0  0  0  0  0  0  0  0  0  0
   -2.9081   -1.4568   -1.7272 H   0  0  0  0  0  0  0  0  0  0  0  0
   -0.3847    2.0195    2.0396 H   0  0  0  0  0  0  0  0  0  0  0  0
    1.2436    2.9796    3.6280 H   0  0  0  0  0  0  0  0  0  0  0  0
    3.6677    2.7795    3.2148 H   0  0  0  0  0  0  0  0  0  0  0  0
    4.5137    1.6239    1.1987 H   0  0  0  0  0  0  0  0  0  0  0  0
  1  2  1  0
  2  3  1  0
  3  4  2  0
  3  5  1  0
  5  6  1  0
  6  7  1  0
  7  8  2  0
  8  9  1  0
  9 10  2  3
 10 11  1  0
 11 12  2  0
 12 13  1  0
 13 14  2  0
 14 15  1  0
 14 16  1  0
 16 17  2  0
  8 18  1  0
 18 19  2  0
 19 20  1  0
 20 21  2  0
 21 22  1  0
 22 23  2  0
 23  6  1  0
 17 11  1  0
 23 18  1  0
  1 24  1  0
  1 25  1  0
  1 26  1  0
  5 27  1  0
  5 28  1  0
  7 29  1  0
  9 30  1  0
 10 31  1  0
 12 32  1  0
 13 33  1  0
 15 34  1  0
 15 35  1  0
 15 36  1  0
 16 37  1  0
 17 38  1  0
 19 39  1  0
 20 40  1  0
 21 41  1  0
 22 42  1  0
M  CHG  1  14   1
M  END
$$$$
