
     RDKit          3D

 44 46  0  0  0  0  0  0  0  0999 V2000
   -0.4962    2.5986   -1.0276 C   0  0  0  0  0  0  0  0  0  0  0  0
   -1.7739    1.8591   -0.7425 C   0  0  0  0  0  0  0  0  0  0  0  0
   -3.0043    2.4730   -1.0089 C   0  0  0  0  0  0  0  0  0  0  0  0
   -4.2022    1.8062   -0.7510 C   0  0  0  0  0  0  0  0  0  0  0  0
   -4.1974    0.5113   -0.2199 C   0  0  0  0  0  0  0  0  0  0  0  0
   -5.5153   -0.1924    0.0574 C   0  0  0  0  0  0  0  0  0  0  0  0
   -5.6575   -1.4717   -0.7709 C   0  0  0  0  0  0  0  0  0  0  0  0
   -5.6932   -0.4850    1.5493 C   0  0  0  0  0  0  0  0  0  0  0  0
   -2.9613   -0.1038    0.0456 C   0  0  0  0  0  0  0  0  0  0  0  0
   -1.7543    0.5569   -0.2142 C   0  0  0  0  0  0  0  0  0  0  0  0
   -0.5090    0.0321    0.0156 O   0  0  0  0  0  0  0  0  0  0  0  0
   -0.4373   -1.3250    0.4502 C   0  0  0  0  0  0  0  0  0  0  0  0
    1.0201   -1.7681    0.5942 C   0  0  0  0  0  0  0  0  0  0  0  0
    1.2935   -2.9305    0.8748 O   0  0  0  0  0  0  0  0  0  0  0  0
    1.9101   -0.7396    0.3891 N   0  0  0  0  0  0  0  0  0  0  0  0
    3.2610   -0.8976    0.4866 C   0  0  0  0  0  0  0  0  0  0  0  0
    3.9756   -1.9573    0.7750 N   0  0  0  0  0  0  0  0  0  0  0  0
    5.3316   -1.6737    0.7798 N   0  0  0  0  0  0  0  0  0  0  0  0
    5.5620   -0.4139    0.4853 C   0  0  0  0  0  0  0  0  0  0  0  0
    7.0033    0.1790    0.4378 C   0  0  0  0  0  0  0  0  0  0  0  0
    8.1215   -0.6555   -0.1325 C   0  0  0  0  0  0  0  0  0  0  0  0
    7.6164    0.5356   -0.8925 C   0  0  0  0  0  0  0  0  0  0  0  0
    4.1617    0.5243    0.1900 S   0  0  0  0  0  0  0  0  0  0  0  0
    0.1018    2.0514   -1.7643 H   0  0  0  0  0  0  0  0  0  0  0  0
    0.0843    2.7175   -0.1070 H   0  0  0  0  0  0  0  0  0  0  0  0
   -0.6889    3.5983   -1.4307 H   0  0  0  0  0  0  0  0  0  0  0  0
   -3.0401    3.4789   -1.4210 H   0  0  0  0  0  0  0  0  0  0  0  0
   -5.1416    2.3103   -0.9684 H   0  0  0  0  0  0  0  0  0  0  0  0
   -6.3358    0.4745   -0.2395 H   0  0  0  0  0  0  0  0  0  0  0  0
   -4.9114   -2.2253   -0.4950 H   0  0  0  0  0  0  0  0  0  0  0  0
   -5.5396   -1.2611   -1.8399 H   0  0  0  0  0  0  0  0  0  0  0  0
   -6.6478   -1.9161   -0.6237 H   0  0  0  0  0  0  0  0  0  0  0  0
   -6.6819   -0.9154    1.7419 H   0  0  0  0  0  0  0  0  0  0  0  0
   -4.9446   -1.1934    1.9204 H   0  0  0  0  0  0  0  0  0  0  0  0
   -5.6067    0.4330    2.1413 H   0  0  0  0  0  0  0  0  0  0  0  0
   -2.9695   -1.1058    0.4621 H   0  0  0  0  0  0  0  0  0  0  0  0
   -0.9044   -1.4319    1.4357 H   0  0  0  0  0  0  0  0  0  0  0  0
   -0.9050   -1.9857   -0.2891 H   0  0  0  0  0  0  0  0  0  0  0  0
    1.5472    0.1739    0.1505 H   0  0  0  0  0  0  0  0  0  0  0  0
    7.2498    0.8013    1.2909 H   0  0  0  0  0  0  0  0  0  0  0  0
    9.0934   -0.5868    0.3418 H   0  0  0  0  0  0  0  0  0  0  0  0
    7.8860   -1.6428   -0.5161 H   0  0  0  0  0  0  0  0  0  0  0  0
    7.0503    0.3490   -1.7986 H   0  0  0  0  0  0  0  0  0  0  0  0
    8.2493    1.4143   -0.9391 H   0  0  0  0  0  0  0  0  0  0  0  0
  1  2  1  0
  2  3  2  0
  3  4  1  0
  4  5  2  0
  5  6  1  0
  6  7  1  0
  6  8  1  0
  5  9  1  0
  9 10  2  0
 10 11  1  0
 11 12  1  0
 12 13  1  0
 13 14  2  0
 13 15  1  0
 15 16  1  0
 16 17  2  0
 17 18  1  0
 18 19  2  0
 19 20  1  0
 20 21  1  0
 21 22  1  0
 19 23  1  0
 10  2  1  0
 23 16  1  0
 22 20  1  0
  1 24  1  0
  1 25  1  0
  1 26  1  0
  3 27  1  0
  4 28  1  0
  6 29  1  0
  7 30  1  0
  7 31  1  0
  7 32  1  0
  8 33  1  0
  8 34  1  0
  8 35  1  0
  9 36  1  0
 12 37  1  0
 12 38  1  0
 15 39  1  0
 20 40  1  0
 21 41  1  0
 21 42  1  0
 22 43  1  0
 22 44  1  0
M  END
$$$$
