
     RDKit          3D

 62 65  0  0  0  0  0  0  0  0999 V2000
   -2.1520   -2.4249   -0.3676 C   0  0  0  0  0  0  0  0  0  0  0  0
   -2.0533   -1.7584    0.9986 C   0  0  0  0  0  0  0  0  0  0  0  0
   -2.7242   -0.4640    1.0004 N   0  0  0  0  0  0  0  0  0  0  0  0
   -2.3424    0.7488    0.3985 C   0  0  0  0  0  0  0  0  0  0  0  0
   -1.1765    1.1844   -0.1233 C   0  0  0  0  0  0  0  0  0  0  0  0
    0.1127    0.5341   -0.1833 C   0  0  0  0  0  0  0  0  0  0  0  0
    1.1714    1.1008   -0.7819 C   0  0  0  0  0  0  0  0  0  0  0  0
    2.4958    0.4462   -0.7538 C   0  0  0  0  0  0  0  0  0  0  0  0
    2.8055   -0.7247   -1.2311 N   0  0  0  0  0  4  0  0  0  0  0  0
    1.9828   -1.6918   -1.9878 C   0  0  0  0  0  0  0  0  0  0  0  0
    1.5754   -2.8582   -1.1030 C   0  0  0  0  0  0  0  0  0  0  0  0
    4.2428   -0.9774   -1.0056 C   0  0  0  0  0  0  0  0  0  0  0  0
    4.9984   -2.0809   -1.3594 C   0  0  0  0  0  0  0  0  0  0  0  0
    6.3540   -2.0709   -1.0225 C   0  0  0  0  0  0  0  0  0  0  0  0
    6.9178   -0.9745   -0.3505 C   0  0  0  0  0  0  0  0  0  0  0  0
    6.1386    0.1315   -0.0048 C   0  0  0  0  0  0  0  0  0  0  0  0
    4.7961    0.1142   -0.3432 C   0  0  0  0  0  0  0  0  0  0  0  0
    3.7258    1.1460   -0.1207 C   0  0  0  0  0  0  0  0  0  0  0  0
    3.4928    1.3957    1.3710 C   0  0  0  0  0  0  0  0  0  0  0  0
    4.0568    2.4478   -0.8549 C   0  0  0  0  0  0  0  0  0  0  0  0
   -3.5916    1.7067    0.3934 C   0  0  0  0  0  0  0  0  0  0  0  0
   -4.0274    2.0671   -1.0359 C   0  0  0  0  0  0  0  0  0  0  0  0
   -3.3489    2.9704    1.2320 C   0  0  0  0  0  0  0  0  0  0  0  0
   -4.6451    0.8372    1.0463 C   0  0  0  0  0  0  0  0  0  0  0  0
   -5.9762    1.1398    1.3133 C   0  0  0  0  0  0  0  0  0  0  0  0
   -6.7726    0.1599    1.8985 C   0  0  0  0  0  0  0  0  0  0  0  0
   -6.2354   -1.0966    2.2029 C   0  0  0  0  0  0  0  0  0  0  0  0
   -4.8923   -1.3873    1.9310 C   0  0  0  0  0  0  0  0  0  0  0  0
   -4.0888   -0.4152    1.3532 C   0  0  0  0  0  0  0  0  0  0  0  0
   -1.6870   -1.8132   -1.1460 H   0  0  0  0  0  0  0  0  0  0  0  0
   -1.6473   -3.3962   -0.3546 H   0  0  0  0  0  0  0  0  0  0  0  0
   -3.1970   -2.5899   -0.6530 H   0  0  0  0  0  0  0  0  0  0  0  0
   -2.4578   -2.4366    1.7578 H   0  0  0  0  0  0  0  0  0  0  0  0
   -1.0074   -1.6503    1.2961 H   0  0  0  0  0  0  0  0  0  0  0  0
   -1.1825    2.1910   -0.5423 H   0  0  0  0  0  0  0  0  0  0  0  0
    0.2195   -0.4113    0.3255 H   0  0  0  0  0  0  0  0  0  0  0  0
    1.1184    2.0918   -1.2275 H   0  0  0  0  0  0  0  0  0  0  0  0
    2.5541   -2.0319   -2.8584 H   0  0  0  0  0  0  0  0  0  0  0  0
    1.0960   -1.1748   -2.3676 H   0  0  0  0  0  0  0  0  0  0  0  0
    2.4405   -3.4109   -0.7222 H   0  0  0  0  0  0  0  0  0  0  0  0
    0.9585   -3.5632   -1.6729 H   0  0  0  0  0  0  0  0  0  0  0  0
    0.9959   -2.5275   -0.2360 H   0  0  0  0  0  0  0  0  0  0  0  0
    4.5885   -2.9402   -1.8790 H   0  0  0  0  0  0  0  0  0  0  0  0
    6.9870   -2.9198   -1.2801 H   0  0  0  0  0  0  0  0  0  0  0  0
    7.9775   -0.9893   -0.0954 H   0  0  0  0  0  0  0  0  0  0  0  0
    6.5869    0.9742    0.5137 H   0  0  0  0  0  0  0  0  0  0  0  0
    4.3916    1.7886    1.8567 H   0  0  0  0  0  0  0  0  0  0  0  0
    2.6856    2.1189    1.5310 H   0  0  0  0  0  0  0  0  0  0  0  0
    3.2106    0.4749    1.8921 H   0  0  0  0  0  0  0  0  0  0  0  0
    4.1752    2.2826   -1.9329 H   0  0  0  0  0  0  0  0  0  0  0  0
    3.2638    3.1921   -0.7254 H   0  0  0  0  0  0  0  0  0  0  0  0
    4.9896    2.8910   -0.4829 H   0  0  0  0  0  0  0  0  0  0  0  0
   -4.9573    2.6479   -1.0359 H   0  0  0  0  0  0  0  0  0  0  0  0
   -4.2051    1.1703   -1.6390 H   0  0  0  0  0  0  0  0  0  0  0  0
   -3.2721    2.6674   -1.5520 H   0  0  0  0  0  0  0  0  0  0  0  0
   -3.0086    2.7243    2.2439 H   0  0  0  0  0  0  0  0  0  0  0  0
   -2.5933    3.6149    0.7749 H   0  0  0  0  0  0  0  0  0  0  0  0
   -4.2635    3.5665    1.3338 H   0  0  0  0  0  0  0  0  0  0  0  0
   -6.3942    2.1118    1.0714 H   0  0  0  0  0  0  0  0  0  0  0  0
   -7.8172    0.3682    2.1170 H   0  0  0  0  0  0  0  0  0  0  0  0
   -6.8696   -1.8551    2.6562 H   0  0  0  0  0  0  0  0  0  0  0  0
   -4.5193   -2.3721    2.1870 H   0  0  0  0  0  0  0  0  0  0  0  0
  1  2  1  0
  2  3  1  0
  3  4  1  0
  4  5  2  3
  5  6  1  0
  6  7  2  3
  7  8  1  0
  8  9  2  0
  9 10  1  0
 10 11  1  0
  9 12  1  0
 12 13  2  0
 13 14  1  0
 14 15  2  0
 15 16  1  0
 16 17  2  0
 17 18  1  0
 18 19  1  0
 18 20  1  0
  4 21  1  0
 21 22  1  0
 21 23  1  0
 21 24  1  0
 24 25  2  0
 25 26  1  0
 26 27  2  0
 27 28  1  0
 28 29  2  0
 29  3  1  0
 18  8  1  0
 29 24  1  0
 17 12  1  0
  1 30  1  0
  1 31  1  0
  1 32  1  0
  2 33  1  0
  2 34  1  0
  5 35  1  0
  6 36  1  0
  7 37  1  0
 10 38  1  0
 10 39  1  0
 11 40  1  0
 11 41  1  0
 11 42  1  0
 13 43  1  0
 14 44  1  0
 15 45  1  0
 16 46  1  0
 19 47  1  0
 19 48  1  0
 19 49  1  0
 20 50  1  0
 20 51  1  0
 20 52  1  0
 22 53  1  0
 22 54  1  0
 22 55  1  0
 23 56  1  0
 23 57  1  0
 23 58  1  0
 25 59  1  0
 26 60  1  0
 27 61  1  0
 28 62  1  0
M  CHG  1   9   1
M  END
$$$$
