
     RDKit          3D

 47 50  0  0  0  0  0  0  0  0999 V2000
   -2.4868   -3.1132    2.1378 C   0  0  0  0  0  0  0  0  0  0  0  0
   -1.5179   -2.4497    1.2016 C   0  0  0  0  0  0  0  0  0  0  0  0
   -0.3865   -3.0494    0.9541 N   0  0  0  0  0  0  0  0  0  0  0  0
    0.5658   -2.4744    0.1065 N   0  0  0  0  0  0  0  0  0  0  0  0
    1.7801   -3.2456   -0.1219 C   0  0  0  0  0  0  0  0  0  0  0  0
    2.9488   -2.6225    0.6379 C   0  0  0  0  0  0  0  0  0  0  0  0
    3.2266   -2.9157    1.7978 O   0  0  0  0  0  0  0  0  0  0  0  0
    3.6314   -1.6595   -0.0773 N   0  0  0  0  0  0  0  0  0  0  0  0
    4.6475   -0.8644    0.5696 C   0  0  0  0  0  0  0  0  0  0  0  0
    5.2978    0.0017   -0.4590 C   0  0  0  0  0  0  0  0  0  0  0  0
    4.8156    1.1693   -1.0208 C   0  0  0  0  0  0  0  0  0  0  0  0
    5.7146    1.7237   -1.9761 C   0  0  0  0  0  0  0  0  0  0  0  0
    6.8539    0.9628   -2.1125 C   0  0  0  0  0  0  0  0  0  0  0  0
    6.8339   -0.4111   -1.0954 S   0  0  0  0  0  0  0  0  0  0  0  0
    0.4116   -1.2508   -0.5727 C   0  0  0  0  0  0  0  0  0  0  0  0
    1.2740   -0.7839   -1.3178 O   0  0  0  0  0  0  0  0  0  0  0  0
   -0.8595   -0.6028   -0.2862 C   0  0  0  0  0  0  0  0  0  0  0  0
   -1.2881    0.5538   -0.7929 N   0  0  0  0  0  0  0  0  0  0  0  0
   -2.4854    0.7852   -0.1856 N   0  0  0  0  0  0  0  0  0  0  0  0
   -3.1054    2.0616   -0.3670 C   0  0  0  0  0  0  0  0  0  0  0  0
   -4.1151    2.5350    0.4788 C   0  0  0  0  0  0  0  0  0  0  0  0
   -4.6825    3.7968    0.2664 C   0  0  0  0  0  0  0  0  0  0  0  0
   -4.2405    4.6011   -0.7812 C   0  0  0  0  0  0  0  0  0  0  0  0
   -3.2221    4.1511   -1.6161 C   0  0  0  0  0  0  0  0  0  0  0  0
   -2.6522    2.8927   -1.4072 C   0  0  0  0  0  0  0  0  0  0  0  0
   -2.8963   -0.3357    0.5476 C   0  0  0  0  0  0  0  0  0  0  0  0
   -4.2607   -0.5309    1.1030 C   0  0  0  0  0  0  0  0  0  0  0  0
   -1.8015   -1.1843    0.5678 C   0  0  0  0  0  0  0  0  0  0  0  0
   -1.9940   -3.9253    2.6807 H   0  0  0  0  0  0  0  0  0  0  0  0
   -3.3178   -3.5328    1.5651 H   0  0  0  0  0  0  0  0  0  0  0  0
   -2.8664   -2.3914    2.8654 H   0  0  0  0  0  0  0  0  0  0  0  0
    1.6429   -4.2776    0.2187 H   0  0  0  0  0  0  0  0  0  0  0  0
    2.0025   -3.2705   -1.1947 H   0  0  0  0  0  0  0  0  0  0  0  0
    3.1197   -1.2199   -0.8436 H   0  0  0  0  0  0  0  0  0  0  0  0
    4.1627   -0.2502    1.3372 H   0  0  0  0  0  0  0  0  0  0  0  0
    5.3590   -1.5273    1.0736 H   0  0  0  0  0  0  0  0  0  0  0  0
    3.8561    1.6019   -0.7618 H   0  0  0  0  0  0  0  0  0  0  0  0
    5.5342    2.6330   -2.5365 H   0  0  0  0  0  0  0  0  0  0  0  0
    7.6978    1.1449   -2.7631 H   0  0  0  0  0  0  0  0  0  0  0  0
   -4.4595    1.9806    1.3424 H   0  0  0  0  0  0  0  0  0  0  0  0
   -5.4627    4.1591    0.9314 H   0  0  0  0  0  0  0  0  0  0  0  0
   -4.6807    5.5820   -0.9400 H   0  0  0  0  0  0  0  0  0  0  0  0
   -2.8650    4.7789   -2.4289 H   0  0  0  0  0  0  0  0  0  0  0  0
   -1.8559    2.5689   -2.0763 H   0  0  0  0  0  0  0  0  0  0  0  0
   -4.5228   -1.5924    1.1335 H   0  0  0  0  0  0  0  0  0  0  0  0
   -4.3256   -0.1416    2.1235 H   0  0  0  0  0  0  0  0  0  0  0  0
   -5.0257   -0.0611    0.4783 H   0  0  0  0  0  0  0  0  0  0  0  0
  1  2  1  0
  2  3  2  0
  3  4  1  0
  4  5  1  0
  5  6  1  0
  6  7  2  0
  6  8  1  0
  8  9  1  0
  9 10  1  0
 10 11  2  0
 11 12  1  0
 12 13  2  0
 13 14  1  0
  4 15  1  0
 15 16  2  0
 15 17  1  0
 17 18  2  0
 18 19  1  0
 19 20  1  0
 20 21  2  0
 21 22  1  0
 22 23  2  0
 23 24  1  0
 24 25  2  0
 19 26  1  0
 26 27  1  0
 26 28  2  0
 28  2  1  0
 14 10  1  0
 28 17  1  0
 25 20  1  0
  1 29  1  0
  1 30  1  0
  1 31  1  0
  5 32  1  0
  5 33  1  0
  8 34  1  0
  9 35  1  0
  9 36  1  0
 11 37  1  0
 12 38  1  0
 13 39  1  0
 21 40  1  0
 22 41  1  0
 23 42  1  0
 24 43  1  0
 25 44  1  0
 27 45  1  0
 27 46  1  0
 27 47  1  0
M  END
$$$$
