
     RDKit          3D

 52 54  0  0  0  0  0  0  0  0999 V2000
   -3.4832    2.6884   -0.8474 C   0  0  0  0  0  0  0  0  0  0  0  0
   -3.2532    1.3785   -1.4428 N   0  0  0  0  0  0  0  0  0  0  0  0
   -4.4322    0.6839   -1.9635 C   0  0  0  0  0  0  0  0  0  0  0  0
   -5.3911    0.2128   -0.8938 C   0  0  0  0  0  0  0  0  0  0  0  0
   -4.9462   -0.4628    0.2526 C   0  0  0  0  0  0  0  0  0  0  0  0
   -5.8561   -0.9161    1.2100 C   0  0  0  0  0  0  0  0  0  0  0  0
   -7.2214   -0.7081    1.0316 C   0  0  0  0  0  0  0  0  0  0  0  0
   -7.6797   -0.0479   -0.1059 C   0  0  0  0  0  0  0  0  0  0  0  0
   -6.7714    0.4056   -1.0648 C   0  0  0  0  0  0  0  0  0  0  0  0
   -1.9833    0.8193   -1.3481 C   0  0  0  0  0  0  0  0  0  0  0  0
   -1.0372    1.4218   -0.8309 O   0  0  0  0  0  0  0  0  0  0  0  0
   -1.7696   -0.5822   -1.9410 C   0  0  0  0  0  0  0  0  0  0  0  0
   -0.4668   -1.0886   -1.6377 O   0  0  0  0  0  0  0  0  0  0  0  0
   -0.3291   -1.5282   -0.3509 C   0  0  0  0  0  0  0  0  0  0  0  0
   -1.2490   -1.6167    0.4546 O   0  0  0  0  0  0  0  0  0  0  0  0
    1.1168   -1.8377   -0.0168 C   0  0  0  0  0  0  0  0  0  0  0  0
    1.9564   -1.9873   -1.2118 N   0  0  0  0  0  0  0  0  0  0  0  0
    3.4860   -2.6331   -1.0734 S   0  0  0  0  0  6  0  0  0  0  0  0
    4.1069   -2.5114   -2.3731 O   0  0  0  0  0  0  0  0  0  0  0  0
    3.3664   -3.9061   -0.3983 O   0  0  0  0  0  0  0  0  0  0  0  0
    4.2938   -1.4955    0.0226 C   0  0  0  0  0  0  0  0  0  0  0  0
    4.5240   -1.8505    1.3521 C   0  0  0  0  0  0  0  0  0  0  0  0
    5.1625   -0.9456    2.2014 C   0  0  0  0  0  0  0  0  0  0  0  0
    5.5811    0.3103    1.7298 C   0  0  0  0  0  0  0  0  0  0  0  0
    6.2236    1.2289    2.5747 C   0  0  0  0  0  0  0  0  0  0  0  0
    6.6395    2.4715    2.0929 C   0  0  0  0  0  0  0  0  0  0  0  0
    6.4194    2.8114    0.7614 C   0  0  0  0  0  0  0  0  0  0  0  0
    5.7822    1.9102   -0.0931 C   0  0  0  0  0  0  0  0  0  0  0  0
    5.3563    0.6572    0.3752 C   0  0  0  0  0  0  0  0  0  0  0  0
    4.7145   -0.2572   -0.4730 C   0  0  0  0  0  0  0  0  0  0  0  0
   -2.5473    3.2162   -0.6464 H   0  0  0  0  0  0  0  0  0  0  0  0
   -4.0219    2.5630    0.0962 H   0  0  0  0  0  0  0  0  0  0  0  0
   -4.0814    3.2949   -1.5339 H   0  0  0  0  0  0  0  0  0  0  0  0
   -4.9343    1.3869   -2.6401 H   0  0  0  0  0  0  0  0  0  0  0  0
   -4.1481   -0.1754   -2.5768 H   0  0  0  0  0  0  0  0  0  0  0  0
   -3.8860   -0.6398    0.4221 H   0  0  0  0  0  0  0  0  0  0  0  0
   -5.4951   -1.4339    2.0956 H   0  0  0  0  0  0  0  0  0  0  0  0
   -7.9274   -1.0618    1.7783 H   0  0  0  0  0  0  0  0  0  0  0  0
   -8.7457    0.1126   -0.2470 H   0  0  0  0  0  0  0  0  0  0  0  0
   -7.1532    0.9146   -1.9475 H   0  0  0  0  0  0  0  0  0  0  0  0
   -2.5334   -1.2874   -1.5995 H   0  0  0  0  0  0  0  0  0  0  0  0
   -1.8356   -0.5011   -3.0308 H   0  0  0  0  0  0  0  0  0  0  0  0
    1.4875   -1.0047    0.5877 H   0  0  0  0  0  0  0  0  0  0  0  0
    1.1295   -2.7644    0.5646 H   0  0  0  0  0  0  0  0  0  0  0  0
    1.8220   -1.3169   -1.9688 H   0  0  0  0  0  0  0  0  0  0  0  0
    4.2162   -2.8213    1.7344 H   0  0  0  0  0  0  0  0  0  0  0  0
    5.3375   -1.2291    3.2376 H   0  0  0  0  0  0  0  0  0  0  0  0
    6.4076    0.9826    3.6182 H   0  0  0  0  0  0  0  0  0  0  0  0
    7.1367    3.1729    2.7583 H   0  0  0  0  0  0  0  0  0  0  0  0
    6.7447    3.7783    0.3857 H   0  0  0  0  0  0  0  0  0  0  0  0
    5.6216    2.1958   -1.1306 H   0  0  0  0  0  0  0  0  0  0  0  0
    4.5460   -0.0073   -1.5190 H   0  0  0  0  0  0  0  0  0  0  0  0
  1  2  1  0
  2  3  1  0
  3  4  1  0
  4  5  2  0
  5  6  1  0
  6  7  2  0
  7  8  1  0
  8  9  2  0
  2 10  1  0
 10 11  2  0
 10 12  1  0
 12 13  1  0
 13 14  1  0
 14 15  2  0
 14 16  1  0
 16 17  1  0
 17 18  1  0
 18 19  2  0
 18 20  2  0
 18 21  1  0
 21 22  2  0
 22 23  1  0
 23 24  2  0
 24 25  1  0
 25 26  2  0
 26 27  1  0
 27 28  2  0
 28 29  1  0
 29 30  2  0
  9  4  1  0
 30 21  1  0
 29 24  1  0
  1 31  1  0
  1 32  1  0
  1 33  1  0
  3 34  1  0
  3 35  1  0
  5 36  1  0
  6 37  1  0
  7 38  1  0
  8 39  1  0
  9 40  1  0
 12 41  1  0
 12 42  1  0
 16 43  1  0
 16 44  1  0
 17 45  1  0
 22 46  1  0
 23 47  1  0
 25 48  1  0
 26 49  1  0
 27 50  1  0
 28 51  1  0
 30 52  1  0
M  END
$$$$
