
     RDKit          3D

 36 37  0  0  0  0  0  0  0  0999 V2000
   -1.2214    2.4161   -0.0197 O   0  0  0  0  0  0  0  0  0  0  0  0
   -0.4874    1.6553    0.6098 C   0  0  0  0  0  0  0  0  0  0  0  0
    0.8402    2.0942    1.2297 C   0  0  0  0  0  0  0  0  0  0  0  0
    1.7408    1.0123    1.4822 O   0  0  0  0  0  0  0  0  0  0  0  0
    2.4031    0.5768    0.3830 C   0  0  0  0  0  0  0  0  0  0  0  0
    2.2347    0.9467   -0.7653 O   0  0  0  0  0  0  0  0  0  0  0  0
    3.2898   -0.5387    0.7549 C   0  0  0  0  0  0  0  0  0  0  0  0
    3.1002   -1.7440    0.0602 C   0  0  0  0  0  0  0  0  0  0  0  0
    3.8894   -2.8522    0.3562 C   0  0  0  0  0  0  0  0  0  0  0  0
    4.8728   -2.7556    1.3392 C   0  0  0  0  0  0  0  0  0  0  0  0
    5.0796   -1.5484    2.0191 C   0  0  0  0  0  0  0  0  0  0  0  0
    6.3364   -1.5217    3.2084 Cl  0  0  0  0  0  0  0  0  0  0  0  0
    4.2933   -0.4228    1.7277 C   0  0  0  0  0  0  0  0  0  0  0  0
    4.5977    1.0913    2.5183 Cl  0  0  0  0  0  0  0  0  0  0  0  0
   -0.8308    0.3387    0.8484 N   0  0  0  0  0  0  0  0  0  0  0  0
   -2.1269   -0.1694    0.4432 C   0  0  0  0  0  0  0  0  0  0  0  0
   -2.3026   -0.2192   -1.0827 C   0  0  0  0  0  0  0  0  0  0  0  0
   -3.6524    0.1240   -1.4778 N   0  0  0  0  0  0  0  0  0  0  0  0
   -4.0832    1.3849   -1.8175 C   0  0  0  0  0  0  0  0  0  0  0  0
   -3.2533    2.4664   -1.8064 O   0  0  0  0  0  0  0  0  0  0  0  0
   -5.3740    1.4545   -2.1562 C   0  0  0  0  0  0  0  0  0  0  0  0
   -6.1515   -0.0926   -2.0332 S   0  0  0  0  0  0  0  0  0  0  0  0
   -4.6434   -0.8480   -1.4941 C   0  0  0  0  0  0  0  0  0  0  0  0
   -4.5399   -2.0239   -1.1837 O   0  0  0  0  0  0  0  0  0  0  0  0
    1.3115    2.8496    0.5900 H   0  0  0  0  0  0  0  0  0  0  0  0
    0.6152    2.5645    2.1924 H   0  0  0  0  0  0  0  0  0  0  0  0
    2.3378   -1.8176   -0.7144 H   0  0  0  0  0  0  0  0  0  0  0  0
    3.7429   -3.7878   -0.1799 H   0  0  0  0  0  0  0  0  0  0  0  0
    5.4876   -3.6249    1.5660 H   0  0  0  0  0  0  0  0  0  0  0  0
   -0.2900   -0.1739    1.5365 H   0  0  0  0  0  0  0  0  0  0  0  0
   -2.8840    0.4718    0.9103 H   0  0  0  0  0  0  0  0  0  0  0  0
   -2.2357   -1.1729    0.8682 H   0  0  0  0  0  0  0  0  0  0  0  0
   -2.0869   -1.2401   -1.4232 H   0  0  0  0  0  0  0  0  0  0  0  0
   -1.5972    0.4242   -1.6196 H   0  0  0  0  0  0  0  0  0  0  0  0
   -2.5229    2.3266   -1.1664 H   0  0  0  0  0  0  0  0  0  0  0  0
   -5.8890    2.3559   -2.4566 H   0  0  0  0  0  0  0  0  0  0  0  0
  1  2  2  0
  2  3  1  0
  3  4  1  0
  4  5  1  0
  5  6  2  0
  5  7  1  0
  7  8  2  0
  8  9  1  0
  9 10  2  0
 10 11  1  0
 11 12  1  0
 11 13  2  0
 13 14  1  0
  2 15  1  0
 15 16  1  0
 16 17  1  0
 17 18  1  0
 18 19  1  0
 19 20  1  0
 19 21  2  0
 21 22  1  0
 22 23  1  0
 23 24  2  0
 13  7  1  0
 23 18  1  0
  3 25  1  0
  3 26  1  0
  8 27  1  0
  9 28  1  0
 10 29  1  0
 15 30  1  0
 16 31  1  0
 16 32  1  0
 17 33  1  0
 17 34  1  0
 20 35  1  0
 21 36  1  0
M  END
$$$$
