
     RDKit          3D

 63 67  0  0  0  0  0  0  0  0999 V2000
   -4.3617   -1.5346    6.4044 C   0  0  0  0  0  0  0  0  0  0  0  0
   -3.5452   -1.1697    5.2989 O   0  0  0  0  0  0  0  0  0  0  0  0
   -4.1320   -1.1843    4.0629 C   0  0  0  0  0  0  0  0  0  0  0  0
   -5.4515   -1.5171    3.7893 C   0  0  0  0  0  0  0  0  0  0  0  0
   -5.9339   -1.4979    2.4756 C   0  0  0  0  0  0  0  0  0  0  0  0
   -5.0662   -1.1345    1.4277 C   0  0  0  0  0  0  0  0  0  0  0  0
   -5.4488   -1.0530   -0.2441 S   0  0  0  0  0  0  0  0  0  0  0  0
   -3.8686   -0.5576   -0.6727 C   0  0  0  0  0  0  0  0  0  0  0  0
   -3.5801   -0.3010   -2.0923 C   0  0  0  0  0  0  0  0  0  0  0  0
   -3.4795   -1.3903   -2.9752 C   0  0  0  0  0  0  0  0  0  0  0  0
   -3.1819   -1.1893   -4.3226 C   0  0  0  0  0  0  0  0  0  0  0  0
   -2.9847    0.1020   -4.8024 C   0  0  0  0  0  0  0  0  0  0  0  0
   -3.0806    1.1949   -3.9374 C   0  0  0  0  0  0  0  0  0  0  0  0
   -3.3665    1.0037   -2.5799 C   0  0  0  0  0  0  0  0  0  0  0  0
   -3.5036    2.0362   -1.6853 O   0  0  0  0  0  0  0  0  0  0  0  0
   -2.7683    3.2176   -1.9775 C   0  0  0  0  0  0  0  0  0  0  0  0
   -3.0473   -0.4519    0.4397 C   0  0  0  0  0  0  0  0  0  0  0  0
   -1.6536   -0.0315    0.3293 C   0  0  0  0  0  0  0  0  0  0  0  0
   -1.2531    1.2012    0.8524 C   0  0  0  0  0  0  0  0  0  0  0  0
    0.0788    1.6079    0.7438 C   0  0  0  0  0  0  0  0  0  0  0  0
    1.0242    0.7914    0.1178 C   0  0  0  0  0  0  0  0  0  0  0  0
    2.2885    1.3118    0.0758 O   0  0  0  0  0  0  0  0  0  0  0  0
    3.3011    0.5075   -0.5368 C   0  0  0  0  0  0  0  0  0  0  0  0
    4.6249    1.2891   -0.4859 C   0  0  0  0  0  0  0  0  0  0  0  0
    5.7528    0.6034   -1.1405 N   0  0  0  0  0  0  0  0  0  0  0  0
    6.9435    1.4790   -1.2310 C   0  0  0  0  0  0  0  0  0  0  0  0
    7.9898    1.2069   -0.1388 C   0  0  0  0  0  0  0  0  0  0  0  0
    8.4910   -0.1368   -0.1590 O   0  0  0  0  0  0  0  0  0  0  0  0
    7.5564   -1.0768   -0.7063 C   0  0  0  0  0  0  0  0  0  0  0  0
    6.0957   -0.6673   -0.4619 C   0  0  0  0  0  0  0  0  0  0  0  0
    0.6264   -0.4425   -0.3987 C   0  0  0  0  0  0  0  0  0  0  0  0
   -0.7073   -0.8536   -0.2911 C   0  0  0  0  0  0  0  0  0  0  0  0
   -3.7361   -0.7881    1.6672 C   0  0  0  0  0  0  0  0  0  0  0  0
   -3.2805   -0.8232    3.0118 C   0  0  0  0  0  0  0  0  0  0  0  0
   -5.1959   -0.8360    6.5265 H   0  0  0  0  0  0  0  0  0  0  0  0
   -4.7191   -2.5652    6.3088 H   0  0  0  0  0  0  0  0  0  0  0  0
   -3.7460   -1.4788    7.3071 H   0  0  0  0  0  0  0  0  0  0  0  0
   -6.1442   -1.8008    4.5749 H   0  0  0  0  0  0  0  0  0  0  0  0
   -6.9676   -1.7611    2.2680 H   0  0  0  0  0  0  0  0  0  0  0  0
   -3.6307   -2.4040   -2.6106 H   0  0  0  0  0  0  0  0  0  0  0  0
   -3.1092   -2.0392   -4.9962 H   0  0  0  0  0  0  0  0  0  0  0  0
   -2.7631    0.2622   -5.8546 H   0  0  0  0  0  0  0  0  0  0  0  0
   -2.9445    2.1881   -4.3523 H   0  0  0  0  0  0  0  0  0  0  0  0
   -3.2594    3.7936   -2.7677 H   0  0  0  0  0  0  0  0  0  0  0  0
   -1.7287    2.9942   -2.2405 H   0  0  0  0  0  0  0  0  0  0  0  0
   -2.7576    3.8352   -1.0742 H   0  0  0  0  0  0  0  0  0  0  0  0
   -1.9763    1.8552    1.3339 H   0  0  0  0  0  0  0  0  0  0  0  0
    0.3805    2.5703    1.1490 H   0  0  0  0  0  0  0  0  0  0  0  0
    3.0405    0.3086   -1.5836 H   0  0  0  0  0  0  0  0  0  0  0  0
    3.3995   -0.4352    0.0135 H   0  0  0  0  0  0  0  0  0  0  0  0
    4.4461    2.2506   -0.9860 H   0  0  0  0  0  0  0  0  0  0  0  0
    4.8645    1.5390    0.5565 H   0  0  0  0  0  0  0  0  0  0  0  0
    6.6682    2.5401   -1.2332 H   0  0  0  0  0  0  0  0  0  0  0  0
    7.4067    1.2828   -2.2064 H   0  0  0  0  0  0  0  0  0  0  0  0
    7.5712    1.3997    0.8559 H   0  0  0  0  0  0  0  0  0  0  0  0
    8.8469    1.8761   -0.2653 H   0  0  0  0  0  0  0  0  0  0  0  0
    7.7604   -1.1827   -1.7781 H   0  0  0  0  0  0  0  0  0  0  0  0
    7.7580   -2.0466   -0.2404 H   0  0  0  0  0  0  0  0  0  0  0  0
    5.4331   -1.4594   -0.8265 H   0  0  0  0  0  0  0  0  0  0  0  0
    5.9490   -0.5723    0.6221 H   0  0  0  0  0  0  0  0  0  0  0  0
    1.3236   -1.1098   -0.8937 H   0  0  0  0  0  0  0  0  0  0  0  0
   -1.0012   -1.8184   -0.6978 H   0  0  0  0  0  0  0  0  0  0  0  0
   -2.2467   -0.5671    3.2336 H   0  0  0  0  0  0  0  0  0  0  0  0
  1  2  1  0
  2  3  1  0
  3  4  2  0
  4  5  1  0
  5  6  2  0
  6  7  1  0
  7  8  1  0
  8  9  1  0
  9 10  2  0
 10 11  1  0
 11 12  2  0
 12 13  1  0
 13 14  2  0
 14 15  1  0
 15 16  1  0
  8 17  2  0
 17 18  1  0
 18 19  2  0
 19 20  1  0
 20 21  2  0
 21 22  1  0
 22 23  1  0
 23 24  1  0
 24 25  1  0
 25 26  1  0
 26 27  1  0
 27 28  1  0
 28 29  1  0
 29 30  1  0
 21 31  1  0
 31 32  2  0
 17 33  1  0
 33 34  2  0
 34  3  1  0
 33  6  1  0
 14  9  1  0
 32 18  1  0
 30 25  1  0
  1 35  1  0
  1 36  1  0
  1 37  1  0
  4 38  1  0
  5 39  1  0
 10 40  1  0
 11 41  1  0
 12 42  1  0
 13 43  1  0
 16 44  1  0
 16 45  1  0
 16 46  1  0
 19 47  1  0
 20 48  1  0
 23 49  1  0
 23 50  1  0
 24 51  1  0
 24 52  1  0
 26 53  1  0
 26 54  1  0
 27 55  1  0
 27 56  1  0
 29 57  1  0
 29 58  1  0
 30 59  1  0
 30 60  1  0
 31 61  1  0
 32 62  1  0
 34 63  1  0
M  END
$$$$
