
     RDKit          3D

 59 64  0  0  0  0  0  0  0  0999 V2000
   -5.7349   -1.0179   -1.9430 C   0  0  0  0  0  0  0  0  0  0  0  0
   -5.7745   -0.8913   -0.4626 C   0  0  0  0  0  0  0  0  0  0  0  0
   -6.8543   -1.0225    0.2811 N   0  0  0  0  0  0  0  0  0  0  0  0
   -6.4436   -0.8363    1.5781 C   0  0  0  0  0  0  0  0  0  0  0  0
   -7.1910   -0.8730    2.7651 C   0  0  0  0  0  0  0  0  0  0  0  0
   -6.5375   -0.6451    3.9838 C   0  0  0  0  0  0  0  0  0  0  0  0
   -5.1664   -0.3839    4.0195 C   0  0  0  0  0  0  0  0  0  0  0  0
   -4.4039   -0.3445    2.8455 C   0  0  0  0  0  0  0  0  0  0  0  0
   -5.0775   -0.5786    1.6377 C   0  0  0  0  0  0  0  0  0  0  0  0
   -4.6725   -0.6219    0.3223 N   0  0  0  0  0  0  0  0  0  0  0  0
   -3.3112   -0.4274   -0.1423 C   0  0  0  0  0  0  0  0  0  0  0  0
   -3.0055    1.0430   -0.4157 C   0  0  0  0  0  0  0  0  0  0  0  0
   -1.5910    1.2756   -0.8080 C   0  0  0  0  0  0  0  0  0  0  0  0
   -0.9394    2.4408   -0.4825 N   0  0  0  0  0  0  0  0  0  0  0  0
    0.2599    2.2597   -0.9917 C   0  0  0  0  0  0  0  0  0  0  0  0
    1.4430    3.0920   -1.0122 C   0  0  0  0  0  0  0  0  0  0  0  0
    1.4850    4.3566   -0.4242 C   0  0  0  0  0  0  0  0  0  0  0  0
    2.6610    5.1041   -0.4887 C   0  0  0  0  0  0  0  0  0  0  0  0
    3.7852    4.5886   -1.1375 C   0  0  0  0  0  0  0  0  0  0  0  0
    3.7414    3.3214   -1.7251 C   0  0  0  0  0  0  0  0  0  0  0  0
    2.5746    2.5593   -1.6702 C   0  0  0  0  0  0  0  0  0  0  0  0
    2.5690    1.2747   -2.2758 N   0  0  0  0  0  0  0  0  0  0  0  0
    1.4805    0.5552   -2.2252 C   0  0  0  0  0  0  0  0  0  0  0  0
    1.5386   -1.0389   -2.9705 S   0  0  0  0  0  0  0  0  0  0  0  0
    1.4024   -2.0683   -1.4792 C   0  0  0  0  0  0  0  0  0  0  0  0
    2.2973   -1.5413   -0.3732 C   0  0  0  0  0  0  0  0  0  0  0  0
    1.8711   -0.7878    0.4984 O   0  0  0  0  0  0  0  0  0  0  0  0
    3.6087   -1.9387   -0.4528 N   0  0  0  0  0  0  0  0  0  0  0  0
    4.5998   -1.3468    0.4171 C   0  0  0  0  0  0  0  0  0  0  0  0
    5.8796   -2.0746    0.2457 C   0  0  0  0  0  0  0  0  0  0  0  0
    6.7493   -2.6872    1.1257 C   0  0  0  0  0  0  0  0  0  0  0  0
    7.8040   -3.2175    0.3426 C   0  0  0  0  0  0  0  0  0  0  0  0
    7.5125   -2.8959   -0.9628 C   0  0  0  0  0  0  0  0  0  0  0  0
    6.3465   -2.2042   -1.0329 O   0  0  0  0  0  0  0  0  0  0  0  0
    0.3219    1.0363   -1.6006 N   0  0  0  0  0  0  0  0  0  0  0  0
   -0.8694    0.3935   -1.5167 N   0  0  0  0  0  0  0  0  0  0  0  0
   -6.7492   -1.0930   -2.3484 H   0  0  0  0  0  0  0  0  0  0  0  0
   -5.2571   -0.1470   -2.4006 H   0  0  0  0  0  0  0  0  0  0  0  0
   -5.1869   -1.9191   -2.2369 H   0  0  0  0  0  0  0  0  0  0  0  0
   -8.2555   -1.0758    2.7266 H   0  0  0  0  0  0  0  0  0  0  0  0
   -7.1065   -0.6719    4.9104 H   0  0  0  0  0  0  0  0  0  0  0  0
   -4.6801   -0.2081    4.9785 H   0  0  0  0  0  0  0  0  0  0  0  0
   -3.3388   -0.1410    2.8830 H   0  0  0  0  0  0  0  0  0  0  0  0
   -3.1752   -1.0404   -1.0422 H   0  0  0  0  0  0  0  0  0  0  0  0
   -2.6366   -0.8419    0.6195 H   0  0  0  0  0  0  0  0  0  0  0  0
   -3.2249    1.6410    0.4794 H   0  0  0  0  0  0  0  0  0  0  0  0
   -3.6596    1.4262   -1.2108 H   0  0  0  0  0  0  0  0  0  0  0  0
    0.6094    4.7574    0.0813 H   0  0  0  0  0  0  0  0  0  0  0  0
    2.7022    6.0899   -0.0321 H   0  0  0  0  0  0  0  0  0  0  0  0
    4.7000    5.1751   -1.1869 H   0  0  0  0  0  0  0  0  0  0  0  0
    4.6195    2.9250   -2.2285 H   0  0  0  0  0  0  0  0  0  0  0  0
    1.6877   -3.0962   -1.7261 H   0  0  0  0  0  0  0  0  0  0  0  0
    0.3688   -2.0952   -1.1222 H   0  0  0  0  0  0  0  0  0  0  0  0
    3.9524   -2.2665   -1.3491 H   0  0  0  0  0  0  0  0  0  0  0  0
    4.7142   -0.2925    0.1430 H   0  0  0  0  0  0  0  0  0  0  0  0
    4.2459   -1.3994    1.4520 H   0  0  0  0  0  0  0  0  0  0  0  0
    6.6345   -2.7433    2.1999 H   0  0  0  0  0  0  0  0  0  0  0  0
    8.6707   -3.7641    0.6867 H   0  0  0  0  0  0  0  0  0  0  0  0
    8.0063   -3.0764   -1.9081 H   0  0  0  0  0  0  0  0  0  0  0  0
  1  2  1  0
  2  3  2  0
  3  4  1  0
  4  5  2  0
  5  6  1  0
  6  7  2  0
  7  8  1  0
  8  9  2  0
  9 10  1  0
 10 11  1  0
 11 12  1  0
 12 13  1  0
 13 14  1  0
 14 15  2  0
 15 16  1  0
 16 17  2  0
 17 18  1  0
 18 19  2  0
 19 20  1  0
 20 21  2  0
 21 22  1  0
 22 23  2  0
 23 24  1  0
 24 25  1  0
 25 26  1  0
 26 27  2  0
 26 28  1  0
 28 29  1  0
 29 30  1  0
 30 31  2  0
 31 32  1  0
 32 33  2  0
 33 34  1  0
 23 35  1  0
 35 36  1  0
 10  2  1  0
 36 13  2  0
  9  4  1  0
 35 15  1  0
 21 16  1  0
 34 30  1  0
  1 37  1  0
  1 38  1  0
  1 39  1  0
  5 40  1  0
  6 41  1  0
  7 42  1  0
  8 43  1  0
 11 44  1  0
 11 45  1  0
 12 46  1  0
 12 47  1  0
 17 48  1  0
 18 49  1  0
 19 50  1  0
 20 51  1  0
 25 52  1  0
 25 53  1  0
 28 54  1  0
 29 55  1  0
 29 56  1  0
 31 57  1  0
 32 58  1  0
 33 59  1  0
M  END
$$$$
