
     RDKit          3D

 57 59  0  0  0  0  0  0  0  0999 V2000
    4.4074    1.5705    3.4060 C   0  0  0  0  0  0  0  0  0  0  0  0
    4.5718    0.3747    2.4732 C   0  0  0  0  0  0  0  0  0  0  0  0
    5.8565    0.7272    1.2087 S   0  0  0  0  0  0  0  0  0  0  0  0
    7.3415    0.3229    2.1816 C   0  0  0  0  0  0  0  0  0  0  0  0
    8.6009    0.6750    1.4320 C   0  0  0  0  0  0  0  0  0  0  0  0
    9.2609    1.8881    1.6780 C   0  0  0  0  0  0  0  0  0  0  0  0
   10.4236    2.2172    0.9790 C   0  0  0  0  0  0  0  0  0  0  0  0
   10.9342    1.3424    0.0225 C   0  0  0  0  0  0  0  0  0  0  0  0
   10.2820    0.1385   -0.2381 C   0  0  0  0  0  0  0  0  0  0  0  0
    9.1208   -0.1940    0.4615 C   0  0  0  0  0  0  0  0  0  0  0  0
    3.2198    0.0448    1.8277 C   0  0  0  0  0  0  0  0  0  0  0  0
    2.4755   -0.7851    2.3527 O   0  0  0  0  0  0  0  0  0  0  0  0
    2.9102    0.8265    0.7205 N   0  0  0  0  0  0  0  0  0  0  0  0
    1.7068    0.9137    0.0736 N   0  0  0  0  0  0  0  0  0  0  0  0
    0.9094   -0.1073    0.0897 C   0  0  0  0  0  0  0  0  0  0  0  0
   -0.4287   -0.0507   -0.5363 C   0  0  0  0  0  0  0  0  0  0  0  0
   -1.2870   -1.1442   -0.3879 C   0  0  0  0  0  0  0  0  0  0  0  0
   -2.5669   -1.1122   -0.9537 C   0  0  0  0  0  0  0  0  0  0  0  0
   -2.9889    0.0107   -1.6697 C   0  0  0  0  0  0  0  0  0  0  0  0
   -4.2086    0.1688   -2.2665 O   0  0  0  0  0  0  0  0  0  0  0  0
   -5.2205   -0.7652   -1.9179 C   0  0  0  0  0  0  0  0  0  0  0  0
   -6.5536   -0.3851   -2.5684 C   0  0  0  0  0  0  0  0  0  0  0  0
   -6.6475    0.2299   -3.6264 O   0  0  0  0  0  0  0  0  0  0  0  0
   -7.6599   -0.8280   -1.8686 N   0  0  0  0  0  0  0  0  0  0  0  0
   -8.9816   -0.4346   -2.2997 C   0  0  0  0  0  0  0  0  0  0  0  0
   -9.9747   -1.1668   -1.4777 C   0  0  0  0  0  0  0  0  0  0  0  0
  -10.7707   -2.2711   -1.7002 C   0  0  0  0  0  0  0  0  0  0  0  0
  -11.5056   -2.4811   -0.5084 C   0  0  0  0  0  0  0  0  0  0  0  0
  -11.1041   -1.5001    0.3673 C   0  0  0  0  0  0  0  0  0  0  0  0
  -10.1698   -0.7005   -0.2086 O   0  0  0  0  0  0  0  0  0  0  0  0
   -2.1172    1.0924   -1.8272 C   0  0  0  0  0  0  0  0  0  0  0  0
   -0.8416    1.0696   -1.2585 C   0  0  0  0  0  0  0  0  0  0  0  0
    5.3260    1.7844    3.9618 H   0  0  0  0  0  0  0  0  0  0  0  0
    4.1143    2.4769    2.8622 H   0  0  0  0  0  0  0  0  0  0  0  0
    3.6193    1.3732    4.1429 H   0  0  0  0  0  0  0  0  0  0  0  0
    4.8817   -0.5138    3.0355 H   0  0  0  0  0  0  0  0  0  0  0  0
    7.3417   -0.7475    2.4165 H   0  0  0  0  0  0  0  0  0  0  0  0
    7.3200    0.8623    3.1345 H   0  0  0  0  0  0  0  0  0  0  0  0
    8.8708    2.5877    2.4128 H   0  0  0  0  0  0  0  0  0  0  0  0
   10.9281    3.1595    1.1777 H   0  0  0  0  0  0  0  0  0  0  0  0
   11.8370    1.6015   -0.5245 H   0  0  0  0  0  0  0  0  0  0  0  0
   10.6742   -0.5392   -0.9916 H   0  0  0  0  0  0  0  0  0  0  0  0
    8.6163   -1.1325    0.2376 H   0  0  0  0  0  0  0  0  0  0  0  0
    3.5726    1.5556    0.4653 H   0  0  0  0  0  0  0  0  0  0  0  0
    1.1766   -1.0767    0.5413 H   0  0  0  0  0  0  0  0  0  0  0  0
   -0.9733   -2.0227    0.1725 H   0  0  0  0  0  0  0  0  0  0  0  0
   -3.2046   -1.9813   -0.8186 H   0  0  0  0  0  0  0  0  0  0  0  0
   -5.3537   -0.7819   -0.8287 H   0  0  0  0  0  0  0  0  0  0  0  0
   -4.9642   -1.7655   -2.2877 H   0  0  0  0  0  0  0  0  0  0  0  0
   -7.5555   -1.0484   -0.8882 H   0  0  0  0  0  0  0  0  0  0  0  0
   -9.0982   -0.6588   -3.3648 H   0  0  0  0  0  0  0  0  0  0  0  0
   -9.0809    0.6467   -2.1594 H   0  0  0  0  0  0  0  0  0  0  0  0
  -10.8162   -2.8524   -2.6124 H   0  0  0  0  0  0  0  0  0  0  0  0
  -12.2358   -3.2538   -0.3102 H   0  0  0  0  0  0  0  0  0  0  0  0
  -11.3716   -1.2484    1.3853 H   0  0  0  0  0  0  0  0  0  0  0  0
   -2.4384    1.9644   -2.3911 H   0  0  0  0  0  0  0  0  0  0  0  0
   -0.1805    1.9240   -1.3839 H   0  0  0  0  0  0  0  0  0  0  0  0
  1  2  1  0
  2  3  1  0
  3  4  1  0
  4  5  1  0
  5  6  2  0
  6  7  1  0
  7  8  2  0
  8  9  1  0
  9 10  2  0
  2 11  1  0
 11 12  2  0
 11 13  1  0
 13 14  1  0
 14 15  2  3
 15 16  1  0
 16 17  2  0
 17 18  1  0
 18 19  2  0
 19 20  1  0
 20 21  1  0
 21 22  1  0
 22 23  2  0
 22 24  1  0
 24 25  1  0
 25 26  1  0
 26 27  2  0
 27 28  1  0
 28 29  2  0
 29 30  1  0
 19 31  1  0
 31 32  2  0
 10  5  1  0
 32 16  1  0
 30 26  1  0
  1 33  1  0
  1 34  1  0
  1 35  1  0
  2 36  1  0
  4 37  1  0
  4 38  1  0
  6 39  1  0
  7 40  1  0
  8 41  1  0
  9 42  1  0
 10 43  1  0
 13 44  1  0
 15 45  1  0
 17 46  1  0
 18 47  1  0
 21 48  1  0
 21 49  1  0
 24 50  1  0
 25 51  1  0
 25 52  1  0
 27 53  1  0
 28 54  1  0
 29 55  1  0
 31 56  1  0
 32 57  1  0
M  END
$$$$
