
     RDKit          3D

 39 40  0  0  0  0  0  0  0  0999 V2000
   -1.9189    1.9778   -0.9110 O   0  0  0  0  0  0  0  0  0  0  0  0
   -1.4338    1.5271    0.1245 C   0  0  0  0  0  0  0  0  0  0  0  0
   -2.2444    1.3667    1.3686 C   0  0  0  0  0  0  0  0  0  0  0  0
   -3.5464    1.0462    1.4188 C   0  0  0  0  0  0  0  0  0  0  0  0
   -4.4255    0.7299    0.2893 C   0  0  0  0  0  0  0  0  0  0  0  0
   -4.1393   -0.3335   -0.5772 C   0  0  0  0  0  0  0  0  0  0  0  0
   -5.0090   -0.6468   -1.6252 C   0  0  0  0  0  0  0  0  0  0  0  0
   -6.1709    0.0988   -1.7952 C   0  0  0  0  0  0  0  0  0  0  0  0
   -7.0474   -0.1732   -2.8041 O   0  0  0  0  0  0  0  0  0  0  0  0
   -6.4770    1.1467   -0.9354 C   0  0  0  0  0  0  0  0  0  0  0  0
   -5.6059    1.4609    0.1100 C   0  0  0  0  0  0  0  0  0  0  0  0
    0.0346    1.1960    0.2113 C   0  0  0  0  0  0  0  0  0  0  0  0
    0.3285   -0.2664    0.4308 C   0  0  0  0  0  0  0  0  0  0  0  0
   -0.5498   -1.1003    0.6480 O   0  0  0  0  0  0  0  0  0  0  0  0
    1.7416   -0.7421    0.4097 C   0  0  0  0  0  0  0  0  0  0  0  0
    2.8102    0.0464    0.2224 C   0  0  0  0  0  0  0  0  0  0  0  0
    4.1914   -0.4585    0.2181 C   0  0  0  0  0  0  0  0  0  0  0  0
    4.5432   -1.6716   -0.3920 C   0  0  0  0  0  0  0  0  0  0  0  0
    5.8726   -2.1060   -0.4015 C   0  0  0  0  0  0  0  0  0  0  0  0
    6.8533   -1.3192    0.1915 C   0  0  0  0  0  0  0  0  0  0  0  0
    8.1610   -1.7021    0.2054 O   0  0  0  0  0  0  0  0  0  0  0  0
    6.5276   -0.1075    0.7868 C   0  0  0  0  0  0  0  0  0  0  0  0
    5.1997    0.3256    0.7951 C   0  0  0  0  0  0  0  0  0  0  0  0
   -1.7011    1.5113    2.2963 H   0  0  0  0  0  0  0  0  0  0  0  0
   -4.0303    0.9811    2.3912 H   0  0  0  0  0  0  0  0  0  0  0  0
   -3.2355   -0.9243   -0.4425 H   0  0  0  0  0  0  0  0  0  0  0  0
   -4.7620   -1.4691   -2.2883 H   0  0  0  0  0  0  0  0  0  0  0  0
   -6.6723   -0.8839   -3.3490 H   0  0  0  0  0  0  0  0  0  0  0  0
   -7.3877    1.7202   -1.0799 H   0  0  0  0  0  0  0  0  0  0  0  0
   -5.8515    2.2852    0.7744 H   0  0  0  0  0  0  0  0  0  0  0  0
    0.4937    1.5073   -0.7342 H   0  0  0  0  0  0  0  0  0  0  0  0
    0.4748    1.7870    1.0217 H   0  0  0  0  0  0  0  0  0  0  0  0
    1.8418   -1.8109    0.5780 H   0  0  0  0  0  0  0  0  0  0  0  0
    2.7159    1.1196    0.0820 H   0  0  0  0  0  0  0  0  0  0  0  0
    3.7907   -2.2888   -0.8776 H   0  0  0  0  0  0  0  0  0  0  0  0
    6.1190   -3.0498   -0.8777 H   0  0  0  0  0  0  0  0  0  0  0  0
    8.2406   -2.5577   -0.2475 H   0  0  0  0  0  0  0  0  0  0  0  0
    7.3049    0.5001    1.2419 H   0  0  0  0  0  0  0  0  0  0  0  0
    4.9638    1.2778    1.2647 H   0  0  0  0  0  0  0  0  0  0  0  0
  1  2  2  0
  2  3  1  0
  3  4  2  3
  4  5  1  0
  5  6  2  0
  6  7  1  0
  7  8  2  0
  8  9  1  0
  8 10  1  0
 10 11  2  0
  2 12  1  0
 12 13  1  0
 13 14  2  0
 13 15  1  0
 15 16  2  3
 16 17  1  0
 17 18  2  0
 18 19  1  0
 19 20  2  0
 20 21  1  0
 20 22  1  0
 22 23  2  0
 11  5  1  0
 23 17  1  0
  3 24  1  0
  4 25  1  0
  6 26  1  0
  7 27  1  0
  9 28  1  0
 10 29  1  0
 11 30  1  0
 12 31  1  0
 12 32  1  0
 15 33  1  0
 16 34  1  0
 18 35  1  0
 19 36  1  0
 21 37  1  0
 22 38  1  0
 23 39  1  0
M  END
$$$$
