
     RDKit          3D

 67 72  0  0  0  0  0  0  0  0999 V2000
   -4.8652   -3.7852   -2.0765 C   0  0  0  0  0  0  0  0  0  0  0  0
   -3.9694   -3.1488   -1.0571 C   0  0  0  0  0  0  0  0  0  0  0  0
   -3.9791   -3.5573    0.2910 C   0  0  0  0  0  0  0  0  0  0  0  0
   -5.0270   -4.8233    0.8357 Cl  0  0  0  0  0  0  0  0  0  0  0  0
   -3.1395   -2.9598    1.2525 C   0  0  0  0  0  0  0  0  0  0  0  0
   -2.2697   -1.9283    0.8994 C   0  0  0  0  0  0  0  0  0  0  0  0
   -2.2640   -1.5070   -0.4200 C   0  0  0  0  0  0  0  0  0  0  0  0
   -3.0957   -2.1155   -1.3733 C   0  0  0  0  0  0  0  0  0  0  0  0
   -2.8826   -1.5305   -2.6226 N   0  0  0  0  0  0  0  0  0  0  0  0
   -1.9189   -0.5204   -2.5655 C   0  0  0  0  0  0  0  0  0  0  0  0
   -1.5236    0.1237   -3.5269 O   0  0  0  0  0  0  0  0  0  0  0  0
   -1.4565   -0.4369   -1.0914 C   0  0  1  0  0  0  0  0  0  0  0  0
   -1.7408    0.8767   -0.4635 C   0  0  0  0  0  0  0  0  0  0  0  0
   -0.5544    1.6089   -0.2930 C   0  0  0  0  0  0  0  0  0  0  0  0
   -0.8605    2.8236    0.2607 C   0  0  0  0  0  0  0  0  0  0  0  0
   -0.0666    3.8310    0.6132 O   0  0  0  0  0  0  0  0  0  0  0  0
   -2.2536    2.8348    0.4864 N   0  0  0  0  0  0  0  0  0  0  0  0
   -2.9962    3.8502    1.1701 C   0  0  0  0  0  0  0  0  0  0  0  0
   -4.1293    3.5043    1.9238 C   0  0  0  0  0  0  0  0  0  0  0  0
   -4.8639    4.4900    2.5876 C   0  0  0  0  0  0  0  0  0  0  0  0
   -4.4720    5.8245    2.5093 C   0  0  0  0  0  0  0  0  0  0  0  0
   -3.3395    6.1739    1.7771 C   0  0  0  0  0  0  0  0  0  0  0  0
   -2.5992    5.1917    1.1128 C   0  0  0  0  0  0  0  0  0  0  0  0
   -2.7940    1.6546   -0.0679 C   0  0  0  0  0  0  0  0  0  0  0  0
   -4.0955    1.4096   -0.2165 O   0  0  0  0  0  0  0  0  0  0  0  0
    0.5949    0.8404   -0.8212 C   0  0  1  0  0  0  0  0  0  0  0  0
    1.8575    0.7546    0.0342 C   0  0  0  0  0  0  0  0  0  0  0  0
    2.7362   -0.3552   -0.3701 N   0  0  0  0  0  0  0  0  0  0  0  0
    3.9690   -0.4598    0.2424 C   0  0  0  0  0  0  0  0  0  0  0  0
    4.3267    0.2762    1.1533 O   0  0  0  0  0  0  0  0  0  0  0  0
    4.7243   -1.4534   -0.2894 O   0  0  0  0  0  0  0  0  0  0  0  0
    6.0554   -1.7337    0.2140 C   0  0  0  0  0  0  0  0  0  0  0  0
    6.0159   -2.1753    1.6812 C   0  0  0  0  0  0  0  0  0  0  0  0
    6.9959   -0.5434   -0.0034 C   0  0  0  0  0  0  0  0  0  0  0  0
    6.5517   -2.9119   -0.6384 C   0  0  0  0  0  0  0  0  0  0  0  0
    2.3367   -1.1579   -1.5390 C   0  0  0  0  0  0  0  0  0  0  0  0
    0.8168   -1.4826   -1.6059 C   0  0  0  0  0  0  0  0  0  0  0  0
    0.0042   -0.5193   -0.8902 N   0  0  0  0  0  0  0  0  0  0  0  0
   -5.9142   -3.5773   -1.8406 H   0  0  0  0  0  0  0  0  0  0  0  0
   -4.6778   -3.4143   -3.0882 H   0  0  0  0  0  0  0  0  0  0  0  0
   -4.7056   -4.8683   -2.1039 H   0  0  0  0  0  0  0  0  0  0  0  0
   -3.1673   -3.2993    2.2857 H   0  0  0  0  0  0  0  0  0  0  0  0
   -1.6227   -1.4633    1.6372 H   0  0  0  0  0  0  0  0  0  0  0  0
   -3.3501   -1.7741   -3.4817 H   0  0  0  0  0  0  0  0  0  0  0  0
    0.8536    3.5788    0.4264 H   0  0  0  0  0  0  0  0  0  0  0  0
   -4.4299    2.4661    2.0539 H   0  0  0  0  0  0  0  0  0  0  0  0
   -5.7341    4.2138    3.1777 H   0  0  0  0  0  0  0  0  0  0  0  0
   -5.0418    6.5910    3.0282 H   0  0  0  0  0  0  0  0  0  0  0  0
   -3.0300    7.2147    1.7185 H   0  0  0  0  0  0  0  0  0  0  0  0
   -1.7368    5.5058    0.5310 H   0  0  0  0  0  0  0  0  0  0  0  0
   -4.5757    2.2571   -0.1913 H   0  0  0  0  0  0  0  0  0  0  0  0
    0.8334    1.2009   -1.8313 H   0  0  0  0  0  0  0  0  0  0  0  0
    1.6152    0.6064    1.0949 H   0  0  0  0  0  0  0  0  0  0  0  0
    2.4256    1.6905   -0.0336 H   0  0  0  0  0  0  0  0  0  0  0  0
    5.7374   -1.3541    2.3484 H   0  0  0  0  0  0  0  0  0  0  0  0
    6.9916   -2.5481    2.0113 H   0  0  0  0  0  0  0  0  0  0  0  0
    5.2723   -2.9663    1.8294 H   0  0  0  0  0  0  0  0  0  0  0  0
    8.0345   -0.8100    0.2203 H   0  0  0  0  0  0  0  0  0  0  0  0
    6.9422   -0.1898   -1.0393 H   0  0  0  0  0  0  0  0  0  0  0  0
    6.7333    0.3074    0.6323 H   0  0  0  0  0  0  0  0  0  0  0  0
    7.5635   -3.2218   -0.3559 H   0  0  0  0  0  0  0  0  0  0  0  0
    5.8839   -3.7754   -0.5354 H   0  0  0  0  0  0  0  0  0  0  0  0
    6.5547   -2.6496   -1.7030 H   0  0  0  0  0  0  0  0  0  0  0  0
    2.9072   -2.0903   -1.5891 H   0  0  0  0  0  0  0  0  0  0  0  0
    2.6155   -0.5612   -2.4165 H   0  0  0  0  0  0  0  0  0  0  0  0
    0.5398   -1.5632   -2.6628 H   0  0  0  0  0  0  0  0  0  0  0  0
    0.6536   -2.4694   -1.1574 H   0  0  0  0  0  0  0  0  0  0  0  0
  1  2  1  0
  2  3  2  0
  3  4  1  0
  3  5  1  0
  5  6  2  0
  6  7  1  0
  7  8  2  0
  8  9  1  0
  9 10  1  0
 10 11  2  0
 10 12  1  0
 12 13  1  0
 13 14  1  0
 14 15  2  0
 15 16  1  0
 15 17  1  0
 17 18  1  0
 18 19  2  0
 19 20  1  0
 20 21  2  0
 21 22  1  0
 22 23  2  0
 17 24  1  0
 24 25  1  0
 14 26  1  0
 26 27  1  0
 27 28  1  0
 28 29  1  0
 29 30  2  0
 29 31  1  0
 31 32  1  0
 32 33  1  0
 32 34  1  0
 32 35  1  0
 28 36  1  0
 36 37  1  0
 37 38  1  0
  8  2  1  0
 12 38  1  6
 12  7  1  0
 24 13  2  0
 38 26  1  0
 23 18  1  0
  1 39  1  0
  1 40  1  0
  1 41  1  0
  5 42  1  0
  6 43  1  0
  9 44  1  0
 16 45  1  0
 19 46  1  0
 20 47  1  0
 21 48  1  0
 22 49  1  0
 23 50  1  0
 25 51  1  0
 26 52  1  6
 27 53  1  0
 27 54  1  0
 33 55  1  0
 33 56  1  0
 33 57  1  0
 34 58  1  0
 34 59  1  0
 34 60  1  0
 35 61  1  0
 35 62  1  0
 35 63  1  0
 36 64  1  0
 36 65  1  0
 37 66  1  0
 37 67  1  0
M  END
$$$$
