
     RDKit          3D

 92 94  0  0  0  0  0  0  0  0999 V2000
   -3.2039   -0.0668    4.4237 C   0  0  0  0  0  0  0  0  0  0  0  0
   -2.4313    0.1546    3.1603 C   0  0  0  0  0  0  0  0  0  0  0  0
   -1.4795    0.9147    3.0591 O   0  0  0  0  0  0  0  0  0  0  0  0
   -2.9277   -0.6322    2.1691 O   0  0  0  0  0  0  0  0  0  0  0  0
   -2.2956   -0.5356    0.8640 C   0  0  1  0  0  0  0  0  0  0  0  0
   -1.1820   -1.6084    0.6891 C   0  0  2  0  0  0  0  0  0  0  0  0
   -0.2281   -1.5588    1.7722 O   0  0  0  0  0  0  0  0  0  0  0  0
   -0.4487   -2.3854    2.8267 C   0  0  0  0  0  0  0  0  0  0  0  0
    0.6808   -2.2858    3.8045 C   0  0  0  0  0  0  0  0  0  0  0  0
   -1.4246   -3.1073    2.9796 O   0  0  0  0  0  0  0  0  0  0  0  0
   -0.3714   -1.4138   -0.5972 C   0  0  0  0  0  0  0  0  0  0  0  0
   -0.5745   -2.5015   -1.6285 C   0  0  0  0  0  0  0  0  0  0  0  0
    0.5507   -0.4534   -0.8408 C   0  0  0  0  0  0  0  0  0  0  0  0
    1.0991    0.6277    0.0742 C   0  0  1  0  0  0  0  0  0  0  0  0
    2.3588    0.0990    0.8376 C   0  0  1  0  0  0  0  0  0  0  0  0
    3.0565   -0.8965    0.0675 O   0  0  0  0  0  0  0  0  0  0  0  0
    3.6641   -1.8825    0.7711 C   0  0  0  0  0  0  0  0  0  0  0  0
    3.7218   -1.9729    1.9876 O   0  0  0  0  0  0  0  0  0  0  0  0
    4.3082   -2.8550   -0.1523 C   0  0  0  0  0  0  0  0  0  0  0  0
    5.1435   -3.8347    0.3997 C   0  0  0  0  0  0  0  0  0  0  0  0
    5.7691   -4.7711   -0.4260 C   0  0  0  0  0  0  0  0  0  0  0  0
    5.5561   -4.7386   -1.8028 C   0  0  0  0  0  0  0  0  0  0  0  0
    4.7277   -3.7661   -2.3605 C   0  0  0  0  0  0  0  0  0  0  0  0
    4.1040   -2.8236   -1.5380 C   0  0  0  0  0  0  0  0  0  0  0  0
    3.2585    1.3175    1.1265 C   0  0  1  0  0  0  0  0  0  0  0  0
    4.7061    1.2133    0.6484 C   0  0  0  0  0  0  0  0  0  0  0  0
    2.5451    2.5111    0.4906 C   0  0  0  0  0  0  0  0  0  0  0  0
    1.5970    1.9438   -0.5971 C   0  0  1  0  0  0  0  0  0  0  0  0
    2.4027    1.6505   -1.7492 O   0  0  0  0  0  0  0  0  0  0  0  0
    0.5644    3.0644   -0.9435 C   0  0  1  0  0  0  0  0  0  0  0  0
    1.3651    4.1756   -1.4769 O   0  0  0  0  0  0  0  0  0  0  0  0
    0.9865    5.4326   -1.1151 C   0  0  0  0  0  0  0  0  0  0  0  0
    1.8907    6.4457   -1.7452 C   0  0  0  0  0  0  0  0  0  0  0  0
    0.0670    5.7050   -0.3573 O   0  0  0  0  0  0  0  0  0  0  0  0
   -0.5874    2.8358   -1.9623 C   0  0  1  0  0  0  0  0  0  0  0  0
   -0.1654    2.1274   -3.2512 C   0  0  0  0  0  0  0  0  0  0  0  0
   -1.8343    2.3218   -1.2745 C   0  0  0  0  0  0  0  0  0  0  0  0
   -2.5779    1.2569   -1.6105 C   0  0  0  0  0  0  0  0  0  0  0  0
   -3.8051    0.7253   -0.8647 C   0  0  0  0  0  0  0  0  0  0  0  0
   -4.3798    1.6841    0.2015 C   0  0  0  0  0  0  0  0  0  0  0  0
   -4.9140    0.5069   -1.9211 C   0  0  0  0  0  0  0  0  0  0  0  0
   -3.4094   -0.6525   -0.2304 C   0  0  2  0  0  0  0  0  0  0  0  0
   -4.5966   -1.2763    0.3222 O   0  0  0  0  0  0  0  0  0  0  0  0
   -4.6779   -2.6288    0.2079 C   0  0  0  0  0  0  0  0  0  0  0  0
   -5.8896   -3.1326    0.9277 C   0  0  0  0  0  0  0  0  0  0  0  0
   -3.8776   -3.3405   -0.3819 O   0  0  0  0  0  0  0  0  0  0  0  0
   -4.2780   -0.0279    4.2170 H   0  0  0  0  0  0  0  0  0  0  0  0
   -2.9345   -1.0339    4.8558 H   0  0  0  0  0  0  0  0  0  0  0  0
   -2.9685    0.7271    5.1359 H   0  0  0  0  0  0  0  0  0  0  0  0
   -1.8158    0.4429    0.7907 H   0  0  0  0  0  0  0  0  0  0  0  0
   -1.6334   -2.6067    0.6751 H   0  0  0  0  0  0  0  0  0  0  0  0
    1.5749   -2.7456    3.3766 H   0  0  0  0  0  0  0  0  0  0  0  0
    0.4136   -2.8226    4.7185 H   0  0  0  0  0  0  0  0  0  0  0  0
    0.8655   -1.2384    4.0621 H   0  0  0  0  0  0  0  0  0  0  0  0
    0.0591   -2.3636   -2.5113 H   0  0  0  0  0  0  0  0  0  0  0  0
   -0.3240   -3.4761   -1.1982 H   0  0  0  0  0  0  0  0  0  0  0  0
   -1.6078   -2.5337   -1.9780 H   0  0  0  0  0  0  0  0  0  0  0  0
    1.0904   -0.5123   -1.7872 H   0  0  0  0  0  0  0  0  0  0  0  0
    0.3530    0.9142    0.8240 H   0  0  0  0  0  0  0  0  0  0  0  0
    2.0203   -0.3327    1.7865 H   0  0  0  0  0  0  0  0  0  0  0  0
    5.3131   -3.8698    1.4734 H   0  0  0  0  0  0  0  0  0  0  0  0
    6.4203   -5.5271    0.0071 H   0  0  0  0  0  0  0  0  0  0  0  0
    6.0413   -5.4711   -2.4438 H   0  0  0  0  0  0  0  0  0  0  0  0
    4.5627   -3.7404   -3.4337 H   0  0  0  0  0  0  0  0  0  0  0  0
    3.4589   -2.0739   -1.9889 H   0  0  0  0  0  0  0  0  0  0  0  0
    3.2858    1.4830    2.2121 H   0  0  0  0  0  0  0  0  0  0  0  0
    5.2296    0.3926    1.1478 H   0  0  0  0  0  0  0  0  0  0  0  0
    4.7677    1.0562   -0.4320 H   0  0  0  0  0  0  0  0  0  0  0  0
    5.2534    2.1310    0.8833 H   0  0  0  0  0  0  0  0  0  0  0  0
    3.2573    3.2399    0.0842 H   0  0  0  0  0  0  0  0  0  0  0  0
    1.9618    3.0143    1.2729 H   0  0  0  0  0  0  0  0  0  0  0  0
    2.6787    2.5103   -2.1183 H   0  0  0  0  0  0  0  0  0  0  0  0
    0.1205    3.3835    0.0100 H   0  0  0  0  0  0  0  0  0  0  0  0
    2.0791    6.1807   -2.7911 H   0  0  0  0  0  0  0  0  0  0  0  0
    1.3988    7.4223   -1.7326 H   0  0  0  0  0  0  0  0  0  0  0  0
    2.8284    6.4990   -1.1891 H   0  0  0  0  0  0  0  0  0  0  0  0
   -0.8897    3.8372   -2.3067 H   0  0  0  0  0  0  0  0  0  0  0  0
   -0.9719    2.1656   -3.9925 H   0  0  0  0  0  0  0  0  0  0  0  0
    0.7057    2.6158   -3.6992 H   0  0  0  0  0  0  0  0  0  0  0  0
    0.0789    1.0765   -3.0931 H   0  0  0  0  0  0  0  0  0  0  0  0
   -2.1373    2.9230   -0.4185 H   0  0  0  0  0  0  0  0  0  0  0  0
   -2.2734    0.6608   -2.4706 H   0  0  0  0  0  0  0  0  0  0  0  0
   -5.2727    1.2608    0.6756 H   0  0  0  0  0  0  0  0  0  0  0  0
   -3.6624    1.8997    0.9990 H   0  0  0  0  0  0  0  0  0  0  0  0
   -4.6738    2.6418   -0.2439 H   0  0  0  0  0  0  0  0  0  0  0  0
   -4.6061   -0.2221   -2.6800 H   0  0  0  0  0  0  0  0  0  0  0  0
   -5.8391    0.1370   -1.4676 H   0  0  0  0  0  0  0  0  0  0  0  0
   -5.1544    1.4424   -2.4425 H   0  0  0  0  0  0  0  0  0  0  0  0
   -3.0530   -1.2577   -1.0669 H   0  0  0  0  0  0  0  0  0  0  0  0
   -6.0441   -4.1876    0.6860 H   0  0  0  0  0  0  0  0  0  0  0  0
   -5.7458   -3.0305    2.0064 H   0  0  0  0  0  0  0  0  0  0  0  0
   -6.7741   -2.5770    0.6017 H   0  0  0  0  0  0  0  0  0  0  0  0
  1  2  1  0
  2  3  2  0
  2  4  1  0
  4  5  1  0
  5  6  1  0
  6  7  1  0
  7  8  1  0
  8  9  1  0
  8 10  2  0
  6 11  1  0
 11 12  1  0
 11 13  2  0
 13 14  1  0
 14 15  1  0
 15 16  1  0
 16 17  1  0
 17 18  2  0
 17 19  1  0
 19 20  2  0
 20 21  1  0
 21 22  2  0
 22 23  1  0
 23 24  2  0
 15 25  1  0
 25 26  1  0
 25 27  1  0
 27 28  1  0
 28 29  1  6
 28 30  1  0
 30 31  1  0
 31 32  1  0
 32 33  1  0
 32 34  2  0
 30 35  1  0
 35 36  1  0
 35 37  1  0
 37 38  2  0
 38 39  1  0
 39 40  1  0
 39 41  1  0
 39 42  1  0
 42 43  1  0
 43 44  1  0
 44 45  1  0
 44 46  2  0
 42  5  1  0
 28 14  1  0
 24 19  1  0
  1 47  1  0
  1 48  1  0
  1 49  1  0
  5 50  1  1
  6 51  1  6
  9 52  1  0
  9 53  1  0
  9 54  1  0
 12 55  1  0
 12 56  1  0
 12 57  1  0
 13 58  1  0
 14 59  1  1
 15 60  1  1
 20 61  1  0
 21 62  1  0
 22 63  1  0
 23 64  1  0
 24 65  1  0
 25 66  1  1
 26 67  1  0
 26 68  1  0
 26 69  1  0
 27 70  1  0
 27 71  1  0
 29 72  1  0
 30 73  1  1
 33 74  1  0
 33 75  1  0
 33 76  1  0
 35 77  1  6
 36 78  1  0
 36 79  1  0
 36 80  1  0
 37 81  1  0
 38 82  1  0
 40 83  1  0
 40 84  1  0
 40 85  1  0
 41 86  1  0
 41 87  1  0
 41 88  1  0
 42 89  1  6
 45 90  1  0
 45 91  1  0
 45 92  1  0
M  END
$$$$
