
     RDKit          3D

 44 46  0  0  0  0  0  0  0  0999 V2000
   -2.0878   -2.0464   -3.1202 C   0  0  0  0  0  0  0  0  0  0  0  0
   -2.8566   -1.2722   -2.0848 C   0  0  0  0  0  0  0  0  0  0  0  0
   -4.2442   -1.4320   -1.9821 C   0  0  0  0  0  0  0  0  0  0  0  0
   -4.9729   -0.7207   -1.0270 C   0  0  0  0  0  0  0  0  0  0  0  0
   -4.3320    0.1710   -0.1576 C   0  0  0  0  0  0  0  0  0  0  0  0
   -5.1492    0.9462    0.8622 C   0  0  0  0  0  0  0  0  0  0  0  0
   -5.1425    2.4460    0.5546 C   0  0  0  0  0  0  0  0  0  0  0  0
   -4.6750    0.6798    2.2936 C   0  0  0  0  0  0  0  0  0  0  0  0
   -2.9398    0.3326   -0.2664 C   0  0  0  0  0  0  0  0  0  0  0  0
   -2.1996   -0.3893   -1.2121 C   0  0  0  0  0  0  0  0  0  0  0  0
   -0.8433   -0.2864   -1.3805 O   0  0  0  0  0  0  0  0  0  0  0  0
   -0.1004    0.2727   -0.3095 C   0  0  0  0  0  0  0  0  0  0  0  0
    1.4109    0.0983   -0.5196 C   0  0  0  0  0  0  0  0  0  0  0  0
    1.8847   -0.3400   -1.5609 O   0  0  0  0  0  0  0  0  0  0  0  0
    2.1225    0.4987    0.5975 N   0  0  0  0  0  0  0  0  0  0  0  0
    3.4855    0.4808    0.7582 C   0  0  0  0  0  0  0  0  0  0  0  0
    4.0508    0.8497    1.8890 N   0  0  0  0  0  0  0  0  0  0  0  0
    5.4279    0.7500    1.8372 N   0  0  0  0  0  0  0  0  0  0  0  0
    5.8327    0.3098    0.6647 C   0  0  0  0  0  0  0  0  0  0  0  0
    7.3437    0.1159    0.3334 C   0  0  0  0  0  0  0  0  0  0  0  0
    8.2105   -0.6322    1.3166 C   0  0  0  0  0  0  0  0  0  0  0  0
    7.8684   -1.2583   -0.0055 C   0  0  0  0  0  0  0  0  0  0  0  0
    4.5816    0.0052   -0.4568 S   0  0  0  0  0  0  0  0  0  0  0  0
   -1.6046   -1.3619   -3.8264 H   0  0  0  0  0  0  0  0  0  0  0  0
   -2.7446   -2.7096   -3.6940 H   0  0  0  0  0  0  0  0  0  0  0  0
   -1.3267   -2.6708   -2.6388 H   0  0  0  0  0  0  0  0  0  0  0  0
   -4.7690   -2.1139   -2.6482 H   0  0  0  0  0  0  0  0  0  0  0  0
   -6.0496   -0.8669   -0.9739 H   0  0  0  0  0  0  0  0  0  0  0  0
   -6.1923    0.6070    0.8046 H   0  0  0  0  0  0  0  0  0  0  0  0
   -5.5083    2.6380   -0.4589 H   0  0  0  0  0  0  0  0  0  0  0  0
   -4.1385    2.8771    0.6331 H   0  0  0  0  0  0  0  0  0  0  0  0
   -5.7908    2.9848    1.2524 H   0  0  0  0  0  0  0  0  0  0  0  0
   -4.6733   -0.3943    2.5122 H   0  0  0  0  0  0  0  0  0  0  0  0
   -5.3389    1.1679    3.0157 H   0  0  0  0  0  0  0  0  0  0  0  0
   -3.6618    1.0581    2.4684 H   0  0  0  0  0  0  0  0  0  0  0  0
   -2.4532    1.0447    0.3915 H   0  0  0  0  0  0  0  0  0  0  0  0
   -0.3616   -0.2238    0.6333 H   0  0  0  0  0  0  0  0  0  0  0  0
   -0.2926    1.3499   -0.2445 H   0  0  0  0  0  0  0  0  0  0  0  0
    1.6337    0.8205    1.4208 H   0  0  0  0  0  0  0  0  0  0  0  0
    7.7924    0.9630   -0.1761 H   0  0  0  0  0  0  0  0  0  0  0  0
    9.2191   -0.2731    1.4705 H   0  0  0  0  0  0  0  0  0  0  0  0
    7.7467   -1.0438    2.2086 H   0  0  0  0  0  0  0  0  0  0  0  0
    7.1864   -2.1017    0.0011 H   0  0  0  0  0  0  0  0  0  0  0  0
    8.6516   -1.3303   -0.7524 H   0  0  0  0  0  0  0  0  0  0  0  0
  1  2  1  0
  2  3  2  0
  3  4  1  0
  4  5  2  0
  5  6  1  0
  6  7  1  0
  6  8  1  0
  5  9  1  0
  9 10  2  0
 10 11  1  0
 11 12  1  0
 12 13  1  0
 13 14  2  0
 13 15  1  0
 15 16  1  0
 16 17  2  0
 17 18  1  0
 18 19  2  0
 19 20  1  0
 20 21  1  0
 21 22  1  0
 19 23  1  0
 10  2  1  0
 23 16  1  0
 22 20  1  0
  1 24  1  0
  1 25  1  0
  1 26  1  0
  3 27  1  0
  4 28  1  0
  6 29  1  0
  7 30  1  0
  7 31  1  0
  7 32  1  0
  8 33  1  0
  8 34  1  0
  8 35  1  0
  9 36  1  0
 12 37  1  0
 12 38  1  0
 15 39  1  0
 20 40  1  0
 21 41  1  0
 21 42  1  0
 22 43  1  0
 22 44  1  0
M  END
$$$$
