
     RDKit          3D

 32 34  0  0  0  0  0  0  0  0999 V2000
   -3.5786    1.4997   -2.3972 C   0  0  0  0  0  0  0  0  0  0  0  0
   -2.5784    0.5665   -1.7356 C   0  0  0  0  0  0  0  0  0  0  0  0
   -2.7959   -0.7440   -2.2635 O   0  0  0  0  0  0  0  0  0  0  0  0
   -2.0911   -1.7725   -1.6441 C   0  0  0  0  0  0  0  0  0  0  0  0
   -2.5308   -3.0532   -2.0078 C   0  0  0  0  0  0  0  0  0  0  0  0
   -1.9370   -4.1985   -1.4872 C   0  0  0  0  0  0  0  0  0  0  0  0
   -0.8655   -4.0975   -0.6006 C   0  0  0  0  0  0  0  0  0  0  0  0
   -0.3987   -2.8144   -0.2623 C   0  0  0  0  0  0  0  0  0  0  0  0
    0.9265   -2.3942    0.7635 S   0  0  0  0  0  0  0  0  0  0  0  0
    0.6371   -0.7469    0.4476 C   0  0  0  0  0  0  0  0  0  0  0  0
    1.5401    0.0970    1.0305 N   0  0  0  0  0  0  0  0  0  0  0  0
    1.4562    1.4690    0.9125 C   0  0  0  0  0  0  0  0  0  0  0  0
    0.5126    2.0624    0.3967 O   0  0  0  0  0  0  0  0  0  0  0  0
    2.6146    2.1701    1.4793 C   0  0  0  0  0  0  0  0  0  0  0  0
    3.8807    1.7028    1.8101 C   0  0  0  0  0  0  0  0  0  0  0  0
    4.7302    2.7290    2.3288 C   0  0  0  0  0  0  0  0  0  0  0  0
    4.0800    3.9347    2.3731 C   0  0  0  0  0  0  0  0  0  0  0  0
    4.8862    5.5430    3.0206 Br  0  0  0  0  0  0  0  0  0  0  0  0
    2.4955    3.8636    1.7852 S   0  0  0  0  0  0  0  0  0  0  0  0
   -0.3793   -0.4706   -0.3204 N   0  0  0  0  0  0  0  0  0  0  0  0
   -0.9873   -1.6428   -0.7595 C   0  0  0  0  0  0  0  0  0  0  0  0
   -3.5297    2.4999   -1.9524 H   0  0  0  0  0  0  0  0  0  0  0  0
   -4.5975    1.1108   -2.2994 H   0  0  0  0  0  0  0  0  0  0  0  0
   -3.3587    1.5932   -3.4676 H   0  0  0  0  0  0  0  0  0  0  0  0
   -2.7516    0.5782   -0.6528 H   0  0  0  0  0  0  0  0  0  0  0  0
   -1.5668    0.9111   -1.9759 H   0  0  0  0  0  0  0  0  0  0  0  0
   -3.3518   -3.1485   -2.7134 H   0  0  0  0  0  0  0  0  0  0  0  0
   -2.3050   -5.1801   -1.7780 H   0  0  0  0  0  0  0  0  0  0  0  0
   -0.3950   -4.9907   -0.1991 H   0  0  0  0  0  0  0  0  0  0  0  0
    2.2709   -0.3360    1.5711 H   0  0  0  0  0  0  0  0  0  0  0  0
    4.2109    0.6788    1.6754 H   0  0  0  0  0  0  0  0  0  0  0  0
    5.7570    2.5799    2.6463 H   0  0  0  0  0  0  0  0  0  0  0  0
  1  2  1  0
  2  3  1  0
  3  4  1  0
  4  5  2  0
  5  6  1  0
  6  7  2  0
  7  8  1  0
  8  9  1  0
  9 10  1  0
 10 11  1  0
 11 12  1  0
 12 13  2  0
 12 14  1  0
 14 15  2  0
 15 16  1  0
 16 17  2  0
 17 18  1  0
 17 19  1  0
 10 20  2  0
 20 21  1  0
 21  4  1  0
 21  8  2  0
 19 14  1  0
  1 22  1  0
  1 23  1  0
  1 24  1  0
  2 25  1  0
  2 26  1  0
  5 27  1  0
  6 28  1  0
  7 29  1  0
 11 30  1  0
 15 31  1  0
 16 32  1  0
M  END
$$$$
