
     RDKit          3D

 39 41  0  0  0  0  0  0  0  0999 V2000
    4.9102   -0.8411    0.2812 C   0  0  0  0  0  0  0  0  0  0  0  0
    4.8754   -0.1696   -1.0805 C   0  0  0  0  0  0  0  0  0  0  0  0
    4.1089    1.0664   -1.0740 N   0  0  0  0  0  0  0  0  0  0  0  0
    4.7919    2.2339   -1.0167 N   0  0  0  0  0  0  0  0  0  0  0  0
    3.8389    3.1637   -1.0487 C   0  0  0  0  0  0  0  0  0  0  0  0
    2.5620    2.5945   -1.0916 C   0  0  0  0  0  0  0  0  0  0  0  0
    0.9964    3.6167   -1.1980 Br  0  0  0  0  0  0  0  0  0  0  0  0
    2.7352    1.2237   -1.0762 C   0  0  0  0  0  0  0  0  0  0  0  0
    1.7863    0.1254   -1.0916 C   0  0  0  0  0  0  0  0  0  0  0  0
    2.0929   -0.9634   -1.5621 O   0  0  0  0  0  0  0  0  0  0  0  0
    0.5791    0.4252   -0.4888 N   0  0  0  0  0  0  0  0  0  0  0  0
   -0.5381   -0.3912   -0.3627 C   0  0  0  0  0  0  0  0  0  0  0  0
   -0.6197   -1.9168   -1.1447 S   0  0  0  0  0  0  0  0  0  0  0  0
   -2.1527   -2.1790   -0.5511 C   0  0  0  0  0  0  0  0  0  0  0  0
   -2.6322   -1.1596    0.2209 C   0  0  0  0  0  0  0  0  0  0  0  0
   -1.6998   -0.0910    0.3574 C   0  0  0  0  0  0  0  0  0  0  0  0
   -1.8675    1.1413    1.1224 C   0  0  0  0  0  0  0  0  0  0  0  0
   -0.9963    2.0025    1.1968 O   0  0  0  0  0  0  0  0  0  0  0  0
   -3.0807    1.2252    1.7405 O   0  0  0  0  0  0  0  0  0  0  0  0
   -3.2695    2.4207    2.4972 C   0  0  0  0  0  0  0  0  0  0  0  0
   -4.0011   -1.4703    0.7116 C   0  0  0  0  0  0  0  0  0  0  0  0
   -4.4059   -2.6923   -0.1715 C   0  0  0  0  0  0  0  0  0  0  0  0
   -3.0842   -3.3188   -0.7087 C   0  0  0  0  0  0  0  0  0  0  0  0
    5.5194   -1.7493    0.2399 H   0  0  0  0  0  0  0  0  0  0  0  0
    3.9072   -1.1203    0.6188 H   0  0  0  0  0  0  0  0  0  0  0  0
    5.3412   -0.1749    1.0362 H   0  0  0  0  0  0  0  0  0  0  0  0
    4.4637   -0.8286   -1.8494 H   0  0  0  0  0  0  0  0  0  0  0  0
    5.8964    0.0780   -1.3954 H   0  0  0  0  0  0  0  0  0  0  0  0
    4.1232    4.2081   -1.0435 H   0  0  0  0  0  0  0  0  0  0  0  0
    0.4977    1.3317   -0.0316 H   0  0  0  0  0  0  0  0  0  0  0  0
   -3.2118    3.2996    1.8475 H   0  0  0  0  0  0  0  0  0  0  0  0
   -2.5327    2.4844    3.3040 H   0  0  0  0  0  0  0  0  0  0  0  0
   -4.2676    2.3853    2.9426 H   0  0  0  0  0  0  0  0  0  0  0  0
   -3.9732   -1.7542    1.7688 H   0  0  0  0  0  0  0  0  0  0  0  0
   -4.7022   -0.6427    0.5739 H   0  0  0  0  0  0  0  0  0  0  0  0
   -5.0021   -2.3347   -1.0216 H   0  0  0  0  0  0  0  0  0  0  0  0
   -5.0175   -3.4162    0.3760 H   0  0  0  0  0  0  0  0  0  0  0  0
   -2.7768   -4.1626   -0.0825 H   0  0  0  0  0  0  0  0  0  0  0  0
   -3.1947   -3.6499   -1.7447 H   0  0  0  0  0  0  0  0  0  0  0  0
  1  2  1  0
  2  3  1  0
  3  4  1  0
  4  5  2  0
  5  6  1  0
  6  7  1  0
  6  8  2  0
  8  9  1  0
  9 10  2  0
  9 11  1  0
 11 12  1  0
 12 13  1  0
 13 14  1  0
 14 15  2  0
 15 16  1  0
 16 17  1  0
 17 18  2  0
 17 19  1  0
 19 20  1  0
 15 21  1  0
 21 22  1  0
 22 23  1  0
  8  3  1  0
 16 12  2  0
 23 14  1  0
  1 24  1  0
  1 25  1  0
  1 26  1  0
  2 27  1  0
  2 28  1  0
  5 29  1  0
 11 30  1  0
 20 31  1  0
 20 32  1  0
 20 33  1  0
 21 34  1  0
 21 35  1  0
 22 36  1  0
 22 37  1  0
 23 38  1  0
 23 39  1  0
M  END
$$$$
