
     RDKit          3D

 42 45  0  0  0  0  0  0  0  0999 V2000
    4.2123   -1.1144   -1.9271 O   0  0  0  0  0  0  0  0  0  0  0  0
    3.4660   -0.6487   -1.0710 C   0  0  0  0  0  0  0  0  0  0  0  0
    4.0635    0.2239   -0.0347 C   0  0  0  0  0  0  0  0  0  0  0  0
    3.8328   -0.0294    1.3259 C   0  0  0  0  0  0  0  0  0  0  0  0
    4.4315    0.7764    2.2973 C   0  0  0  0  0  0  0  0  0  0  0  0
    5.2714    1.8203    1.9072 C   0  0  0  0  0  0  0  0  0  0  0  0
    5.5120    2.0446    0.5538 C   0  0  0  0  0  0  0  0  0  0  0  0
    6.3283    3.0432    0.1920 F   0  0  0  0  0  0  0  0  0  0  0  0
    4.9236    1.2525   -0.4250 C   0  0  0  0  0  0  0  0  0  0  0  0
    2.1026   -0.9389   -0.9948 N   0  0  0  0  0  0  0  0  0  0  0  0
    1.5740   -1.8936   -1.9725 C   0  0  0  0  0  0  0  0  0  0  0  0
    0.2752   -2.5499   -1.4914 C   0  0  0  0  0  0  0  0  0  0  0  0
   -0.7079   -1.5674   -1.0275 N   0  0  0  0  0  0  0  0  0  0  0  0
   -2.0435   -1.9965   -0.9705 C   0  0  0  0  0  0  0  0  0  0  0  0
   -2.3462   -3.1718   -1.1826 O   0  0  0  0  0  0  0  0  0  0  0  0
   -3.0996   -1.0066   -0.6754 C   0  0  0  0  0  0  0  0  0  0  0  0
   -4.3906   -1.3154   -0.1776 C   0  0  0  0  0  0  0  0  0  0  0  0
   -5.0590   -0.1197   -0.0912 C   0  0  0  0  0  0  0  0  0  0  0  0
   -6.3224    0.1891    0.3315 N   0  0  0  0  0  0  0  0  0  0  0  0
   -6.6567    1.4430    0.2338 C   0  0  0  0  0  0  0  0  0  0  0  0
   -5.7941    2.5474   -0.2886 C   0  0  0  0  0  0  0  0  0  0  0  0
   -6.4634    4.2697   -0.3684 Br  0  0  0  0  0  0  0  0  0  0  0  0
   -4.5661    2.1774   -0.6756 C   0  0  0  0  0  0  0  0  0  0  0  0
   -4.1777    0.8464   -0.5808 N   0  0  0  0  0  0  0  0  0  0  0  0
   -2.9791    0.3137   -0.9139 N   0  0  0  0  0  0  0  0  0  0  0  0
   -0.1777   -0.6016   -0.0573 C   0  0  0  0  0  0  0  0  0  0  0  0
    1.1194    0.0559   -0.5414 C   0  0  0  0  0  0  0  0  0  0  0  0
    3.1983   -0.8611    1.6269 H   0  0  0  0  0  0  0  0  0  0  0  0
    4.2566    0.5856    3.3535 H   0  0  0  0  0  0  0  0  0  0  0  0
    5.7501    2.4568    2.6459 H   0  0  0  0  0  0  0  0  0  0  0  0
    5.1385    1.4357   -1.4734 H   0  0  0  0  0  0  0  0  0  0  0  0
    2.3198   -2.6679   -2.1845 H   0  0  0  0  0  0  0  0  0  0  0  0
    1.3970   -1.3401   -2.9028 H   0  0  0  0  0  0  0  0  0  0  0  0
    0.4799   -3.2258   -0.6519 H   0  0  0  0  0  0  0  0  0  0  0  0
   -0.1527   -3.1490   -2.3034 H   0  0  0  0  0  0  0  0  0  0  0  0
   -4.7798   -2.2901    0.0804 H   0  0  0  0  0  0  0  0  0  0  0  0
   -7.6685    1.7384    0.5569 H   0  0  0  0  0  0  0  0  0  0  0  0
   -3.8288    2.8585   -1.0787 H   0  0  0  0  0  0  0  0  0  0  0  0
   -0.8991    0.1704    0.2071 H   0  0  0  0  0  0  0  0  0  0  0  0
    0.0207   -1.1644    0.8634 H   0  0  0  0  0  0  0  0  0  0  0  0
    1.5260    0.6938    0.2476 H   0  0  0  0  0  0  0  0  0  0  0  0
    0.9134    0.7093   -1.3999 H   0  0  0  0  0  0  0  0  0  0  0  0
  1  2  2  0
  2  3  1  0
  3  4  2  0
  4  5  1  0
  5  6  2  0
  6  7  1  0
  7  8  1  0
  7  9  2  0
  2 10  1  0
 10 11  1  0
 11 12  1  0
 12 13  1  0
 13 14  1  0
 14 15  2  0
 14 16  1  0
 16 17  1  0
 17 18  2  0
 18 19  1  0
 19 20  2  0
 20 21  1  0
 21 22  1  0
 21 23  2  0
 23 24  1  0
 24 25  1  0
 13 26  1  0
 26 27  1  0
  9  3  1  0
 27 10  1  0
 25 16  2  0
 24 18  1  0
  4 28  1  0
  5 29  1  0
  6 30  1  0
  9 31  1  0
 11 32  1  0
 11 33  1  0
 12 34  1  0
 12 35  1  0
 17 36  1  0
 20 37  1  0
 23 38  1  0
 26 39  1  0
 26 40  1  0
 27 41  1  0
 27 42  1  0
M  END
$$$$
