
     RDKit          3D

 56 58  0  0  0  0  0  0  0  0999 V2000
    4.4603    4.4207   -3.0928 C   0  0  0  0  0  0  0  0  0  0  0  0
    5.5383    3.8311   -2.3756 O   0  0  0  0  0  0  0  0  0  0  0  0
    5.2582    2.6976   -1.6601 C   0  0  0  0  0  0  0  0  0  0  0  0
    6.3535    2.1507   -0.9889 C   0  0  0  0  0  0  0  0  0  0  0  0
    6.2172    0.9935   -0.2183 C   0  0  0  0  0  0  0  0  0  0  0  0
    4.9739    0.3698   -0.1175 C   0  0  0  0  0  0  0  0  0  0  0  0
    4.7231   -0.7707    0.6119 O   0  0  0  0  0  0  0  0  0  0  0  0
    5.8532   -1.4678    1.1226 C   0  0  0  0  0  0  0  0  0  0  0  0
    3.8593    0.9174   -0.7909 C   0  0  0  0  0  0  0  0  0  0  0  0
    2.6334    0.2244   -0.6486 N   0  0  0  0  0  0  0  0  0  0  0  0
    1.4088    0.5145   -1.2215 C   0  0  0  0  0  0  0  0  0  0  0  0
    1.1631    1.4708   -1.9549 O   0  0  0  0  0  0  0  0  0  0  0  0
    0.3322   -0.5031   -0.8706 C   0  0  0  0  0  0  0  0  0  0  0  0
   -1.0431    0.3266   -0.0221 S   0  0  0  0  0  0  0  0  0  0  0  0
   -2.1875   -1.0007   -0.0269 C   0  0  0  0  0  0  0  0  0  0  0  0
   -1.7433   -2.1425    0.3861 N   0  0  0  0  0  0  0  0  0  0  0  0
   -2.6238   -3.2273    0.4178 C   0  0  0  0  0  0  0  0  0  0  0  0
   -2.1541   -4.4671    0.8594 C   0  0  0  0  0  0  0  0  0  0  0  0
   -3.0057   -5.5745    0.9075 C   0  0  0  0  0  0  0  0  0  0  0  0
   -4.3380   -5.4493    0.5130 C   0  0  0  0  0  0  0  0  0  0  0  0
   -4.8176   -4.2165    0.0723 C   0  0  0  0  0  0  0  0  0  0  0  0
   -3.9551   -3.1143    0.0290 C   0  0  0  0  0  0  0  0  0  0  0  0
   -4.4233   -1.7960   -0.4293 C   0  0  0  0  0  0  0  0  0  0  0  0
   -5.5983   -1.6600   -0.7649 O   0  0  0  0  0  0  0  0  0  0  0  0
   -3.4824   -0.7667   -0.4578 N   0  0  0  0  0  0  0  0  0  0  0  0
   -3.9890    0.5405   -0.9074 C   0  0  0  0  0  0  0  0  0  0  0  0
   -4.6567    1.3364    0.2229 C   0  0  0  0  0  0  0  0  0  0  0  0
   -3.7322    1.7184    1.2772 N   0  0  0  0  0  0  0  0  0  0  0  0
   -4.1931    2.2912    2.4416 C   0  0  0  0  0  0  0  0  0  0  0  0
   -3.1014    2.7375    3.3768 C   0  0  0  0  0  0  0  0  0  0  0  0
   -5.3819    2.4479    2.6995 O   0  0  0  0  0  0  0  0  0  0  0  0
    4.0108    2.0785   -1.5579 C   0  0  0  0  0  0  0  0  0  0  0  0
    3.6697    4.7553   -2.4132 H   0  0  0  0  0  0  0  0  0  0  0  0
    4.8480    5.3033   -3.6109 H   0  0  0  0  0  0  0  0  0  0  0  0
    4.0693    3.7346   -3.8513 H   0  0  0  0  0  0  0  0  0  0  0  0
    7.3248    2.6341   -1.0668 H   0  0  0  0  0  0  0  0  0  0  0  0
    7.0983    0.6143    0.2884 H   0  0  0  0  0  0  0  0  0  0  0  0
    5.4921   -2.3885    1.5920 H   0  0  0  0  0  0  0  0  0  0  0  0
    6.5395   -1.7519    0.3184 H   0  0  0  0  0  0  0  0  0  0  0  0
    6.3635   -0.8821    1.8928 H   0  0  0  0  0  0  0  0  0  0  0  0
    2.7091   -0.5893   -0.0441 H   0  0  0  0  0  0  0  0  0  0  0  0
    0.7338   -1.2955   -0.2313 H   0  0  0  0  0  0  0  0  0  0  0  0
   -0.0143   -0.9581   -1.8049 H   0  0  0  0  0  0  0  0  0  0  0  0
   -1.1175   -4.5687    1.1725 H   0  0  0  0  0  0  0  0  0  0  0  0
   -2.6289   -6.5332    1.2559 H   0  0  0  0  0  0  0  0  0  0  0  0
   -5.0026   -6.3093    0.5512 H   0  0  0  0  0  0  0  0  0  0  0  0
   -5.8570   -4.1148   -0.2339 H   0  0  0  0  0  0  0  0  0  0  0  0
   -4.7299    0.3772   -1.7006 H   0  0  0  0  0  0  0  0  0  0  0  0
   -3.1879    1.1279   -1.3646 H   0  0  0  0  0  0  0  0  0  0  0  0
   -5.0838    2.2610   -0.1829 H   0  0  0  0  0  0  0  0  0  0  0  0
   -5.4766    0.7657    0.6746 H   0  0  0  0  0  0  0  0  0  0  0  0
   -2.7583    1.8630    1.0319 H   0  0  0  0  0  0  0  0  0  0  0  0
   -2.1514    2.2457    3.1467 H   0  0  0  0  0  0  0  0  0  0  0  0
   -2.9759    3.8197    3.2904 H   0  0  0  0  0  0  0  0  0  0  0  0
   -3.3796    2.4789    4.4019 H   0  0  0  0  0  0  0  0  0  0  0  0
    3.1570    2.4995   -2.0729 H   0  0  0  0  0  0  0  0  0  0  0  0
  1  2  1  0
  2  3  1  0
  3  4  2  0
  4  5  1  0
  5  6  2  0
  6  7  1  0
  7  8  1  0
  6  9  1  0
  9 10  1  0
 10 11  1  0
 11 12  2  0
 11 13  1  0
 13 14  1  0
 14 15  1  0
 15 16  2  0
 16 17  1  0
 17 18  2  0
 18 19  1  0
 19 20  2  0
 20 21  1  0
 21 22  2  0
 22 23  1  0
 23 24  2  0
 23 25  1  0
 25 26  1  0
 26 27  1  0
 27 28  1  0
 28 29  1  0
 29 30  1  0
 29 31  2  0
  9 32  2  0
 32  3  1  0
 25 15  1  0
 22 17  1  0
  1 33  1  0
  1 34  1  0
  1 35  1  0
  4 36  1  0
  5 37  1  0
  8 38  1  0
  8 39  1  0
  8 40  1  0
 10 41  1  0
 13 42  1  0
 13 43  1  0
 18 44  1  0
 19 45  1  0
 20 46  1  0
 21 47  1  0
 26 48  1  0
 26 49  1  0
 27 50  1  0
 27 51  1  0
 28 52  1  0
 30 53  1  0
 30 54  1  0
 30 55  1  0
 32 56  1  0
M  END
$$$$
