
     RDKit          3D

 55 60  0  0  0  0  0  0  0  0999 V2000
   -4.5890    0.3706    1.9235 O   0  0  0  0  0  0  0  0  0  0  0  0
   -4.0728    0.8730    0.9260 C   0  0  0  0  0  0  0  0  0  0  0  0
   -4.8137    1.8508    0.1425 C   0  0  0  0  0  0  0  0  0  0  0  0
   -6.2280    1.9106   -0.0405 C   0  0  0  0  0  0  0  0  0  0  0  0
   -6.4815    3.0178   -0.8135 C   0  0  0  0  0  0  0  0  0  0  0  0
   -5.3250    3.6667   -1.0995 O   0  0  0  0  0  0  0  0  0  0  0  0
   -4.3242    2.9710   -0.5005 C   0  0  0  0  0  0  0  0  0  0  0  0
   -2.7788    0.5253    0.5278 N   0  0  0  0  0  0  0  0  0  0  0  0
   -1.9903   -0.2906    1.4435 C   0  0  0  0  0  0  0  0  0  0  0  0
   -0.5058   -0.2044    1.1079 C   0  0  0  0  0  0  0  0  0  0  0  0
   -0.2060   -0.7895   -0.3006 C   0  0  0  0  0  0  0  0  0  0  0  0
   -1.4219   -0.5267   -1.2435 C   0  0  0  0  0  0  0  0  0  0  0  0
   -2.2542    0.6842   -0.8289 C   0  0  0  0  0  0  0  0  0  0  0  0
   -0.1003   -2.2217   -0.0745 O   0  0  0  0  0  0  0  0  0  0  0  0
    0.3959   -2.9624   -1.1088 C   0  0  0  0  0  0  0  0  0  0  0  0
    0.1363   -4.3330   -1.0623 C   0  0  0  0  0  0  0  0  0  0  0  0
    0.5925   -5.1633   -2.0872 C   0  0  0  0  0  0  0  0  0  0  0  0
    1.3095   -4.6173   -3.1473 C   0  0  0  0  0  0  0  0  0  0  0  0
    1.7445   -5.4179   -4.1281 F   0  0  0  0  0  0  0  0  0  0  0  0
    1.5882   -3.2578   -3.1990 C   0  0  0  0  0  0  0  0  0  0  0  0
    1.1345   -2.4332   -2.1660 C   0  0  0  0  0  0  0  0  0  0  0  0
    1.4523   -0.9941   -2.1658 C   0  0  0  0  0  0  0  0  0  0  0  0
    1.9833   -0.4931   -3.1517 O   0  0  0  0  0  0  0  0  0  0  0  0
    1.1302   -0.2418   -0.8780 C   0  0  0  0  0  0  0  0  0  0  0  0
    2.3457   -0.3500    0.0344 C   0  0  0  0  0  0  0  0  0  0  0  0
    2.4885    1.0803    0.4224 C   0  0  0  0  0  0  0  0  0  0  0  0
    3.4200    1.5131    1.4902 C   0  0  0  0  0  0  0  0  0  0  0  0
    3.4303    2.8593    1.8762 C   0  0  0  0  0  0  0  0  0  0  0  0
    4.2925    3.2958    2.8837 C   0  0  0  0  0  0  0  0  0  0  0  0
    5.1488    2.3911    3.5084 C   0  0  0  0  0  0  0  0  0  0  0  0
    5.1462    1.0503    3.1258 C   0  0  0  0  0  0  0  0  0  0  0  0
    4.2847    0.6089    2.1178 C   0  0  0  0  0  0  0  0  0  0  0  0
    1.7389    1.9020   -0.2397 N   0  0  0  0  0  0  0  0  0  0  0  0
    1.0016    1.1518   -1.1817 O   0  0  0  0  0  0  0  0  0  0  0  0
   -6.9619    1.2198    0.3519 H   0  0  0  0  0  0  0  0  0  0  0  0
   -7.3813    3.4649   -1.2128 H   0  0  0  0  0  0  0  0  0  0  0  0
   -3.3379    3.4001   -0.6119 H   0  0  0  0  0  0  0  0  0  0  0  0
   -2.3534   -1.3234    1.3797 H   0  0  0  0  0  0  0  0  0  0  0  0
   -2.1616    0.0553    2.4695 H   0  0  0  0  0  0  0  0  0  0  0  0
    0.0570   -0.7468    1.8770 H   0  0  0  0  0  0  0  0  0  0  0  0
   -0.2163    0.8498    1.1699 H   0  0  0  0  0  0  0  0  0  0  0  0
   -2.0771   -1.4089   -1.2518 H   0  0  0  0  0  0  0  0  0  0  0  0
   -1.0991   -0.3898   -2.2817 H   0  0  0  0  0  0  0  0  0  0  0  0
   -3.0763    0.8030   -1.5408 H   0  0  0  0  0  0  0  0  0  0  0  0
   -1.6481    1.5960   -0.8471 H   0  0  0  0  0  0  0  0  0  0  0  0
   -0.4313   -4.7544   -0.2357 H   0  0  0  0  0  0  0  0  0  0  0  0
    0.3910   -6.2304   -2.0683 H   0  0  0  0  0  0  0  0  0  0  0  0
    2.1592   -2.8575   -4.0323 H   0  0  0  0  0  0  0  0  0  0  0  0
    2.1881   -1.0013    0.8969 H   0  0  0  0  0  0  0  0  0  0  0  0
    3.2547   -0.6642   -0.4907 H   0  0  0  0  0  0  0  0  0  0  0  0
    2.7693    3.5779    1.3952 H   0  0  0  0  0  0  0  0  0  0  0  0
    4.2961    4.3426    3.1780 H   0  0  0  0  0  0  0  0  0  0  0  0
    5.8214    2.7327    4.2916 H   0  0  0  0  0  0  0  0  0  0  0  0
    5.8199    0.3486    3.6121 H   0  0  0  0  0  0  0  0  0  0  0  0
    4.3146   -0.4397    1.8384 H   0  0  0  0  0  0  0  0  0  0  0  0
  1  2  2  0
  2  3  1  0
  3  4  1  0
  4  5  2  0
  5  6  1  0
  6  7  1  0
  2  8  1  0
  8  9  1  0
  9 10  1  0
 10 11  1  0
 11 12  1  0
 12 13  1  0
 11 14  1  0
 14 15  1  0
 15 16  2  0
 16 17  1  0
 17 18  2  0
 18 19  1  0
 18 20  1  0
 20 21  2  0
 21 22  1  0
 22 23  2  0
 22 24  1  0
 24 25  1  0
 25 26  1  0
 26 27  1  0
 27 28  2  0
 28 29  1  0
 29 30  2  0
 30 31  1  0
 31 32  2  0
 26 33  2  0
 33 34  1  0
  7  3  2  0
 13  8  1  0
 21 15  1  0
 34 24  1  0
 24 11  1  0
 32 27  1  0
  4 35  1  0
  5 36  1  0
  7 37  1  0
  9 38  1  0
  9 39  1  0
 10 40  1  0
 10 41  1  0
 12 42  1  0
 12 43  1  0
 13 44  1  0
 13 45  1  0
 16 46  1  0
 17 47  1  0
 20 48  1  0
 25 49  1  0
 25 50  1  0
 28 51  1  0
 29 52  1  0
 30 53  1  0
 31 54  1  0
 32 55  1  0
M  END
$$$$
