
     RDKit          3D

 51 55  0  0  0  0  0  0  0  0999 V2000
    5.0796   -1.7879    1.0710 F   0  0  0  0  0  0  0  0  0  0  0  0
    5.6494   -1.0596    0.1000 C   0  0  0  0  0  0  0  0  0  0  0  0
    7.0107   -1.2131   -0.1440 C   0  0  0  0  0  0  0  0  0  0  0  0
    7.6206   -0.4579   -1.1437 C   0  0  0  0  0  0  0  0  0  0  0  0
    6.8642    0.4466   -1.8899 C   0  0  0  0  0  0  0  0  0  0  0  0
    5.4973    0.5965   -1.6401 C   0  0  0  0  0  0  0  0  0  0  0  0
    4.8737   -0.1632   -0.6414 C   0  0  0  0  0  0  0  0  0  0  0  0
    3.4033   -0.0015   -0.3467 C   0  0  0  0  0  0  0  0  0  0  0  0
    3.1648    0.9650    0.8281 C   0  0  0  0  0  0  0  0  0  0  0  0
    1.7700    1.1966    1.2206 N   0  0  0  0  0  0  0  0  0  0  0  0
    0.9036    1.7374    0.1616 C   0  0  0  0  0  0  0  0  0  0  0  0
   -0.1142    0.7409   -0.4397 C   0  0  0  0  0  0  0  0  0  0  0  0
   -0.9397    0.0917    0.5893 N   0  0  0  0  0  0  0  0  0  0  0  0
   -2.3099   -0.0900    0.4224 C   0  0  0  0  0  0  0  0  0  0  0  0
   -3.0824    0.0713    1.4696 N   0  0  0  0  0  0  0  0  0  0  0  0
   -4.4800   -0.0547    1.3664 C   0  0  0  0  0  0  0  0  0  0  0  0
   -5.2503    0.1468    2.5134 C   0  0  0  0  0  0  0  0  0  0  0  0
   -6.6432    0.0464    2.4648 C   0  0  0  0  0  0  0  0  0  0  0  0
   -7.2811   -0.2576    1.2618 C   0  0  0  0  0  0  0  0  0  0  0  0
   -6.5308   -0.4634    0.1034 C   0  0  0  0  0  0  0  0  0  0  0  0
   -5.1379   -0.3587    0.1681 C   0  0  0  0  0  0  0  0  0  0  0  0
   -4.3057   -0.5645   -0.9439 N   0  0  0  0  0  0  0  0  0  0  0  0
   -4.6439   -0.9009   -2.2334 C   0  0  0  0  0  0  0  0  0  0  0  0
   -3.4822   -1.0742   -2.9520 C   0  0  0  0  0  0  0  0  0  0  0  0
   -2.4052   -0.8175   -2.0721 C   0  0  0  0  0  0  0  0  0  0  0  0
   -2.9337   -0.4611   -0.8426 C   0  0  0  0  0  0  0  0  0  0  0  0
   -0.3806    0.1231    1.9540 C   0  0  0  0  0  0  0  0  0  0  0  0
    1.1591    0.0493    1.9154 C   0  0  0  0  0  0  0  0  0  0  0  0
    7.5854   -1.9182    0.4478 H   0  0  0  0  0  0  0  0  0  0  0  0
    8.6837   -0.5716   -1.3399 H   0  0  0  0  0  0  0  0  0  0  0  0
    7.3408    1.0386   -2.6680 H   0  0  0  0  0  0  0  0  0  0  0  0
    4.9251    1.3099   -2.2290 H   0  0  0  0  0  0  0  0  0  0  0  0
    2.8984    0.3595   -1.2507 H   0  0  0  0  0  0  0  0  0  0  0  0
    2.9766   -0.9896   -0.1395 H   0  0  0  0  0  0  0  0  0  0  0  0
    3.6098    1.9384    0.5806 H   0  0  0  0  0  0  0  0  0  0  0  0
    3.7219    0.6206    1.7097 H   0  0  0  0  0  0  0  0  0  0  0  0
    0.3351    2.5628    0.6106 H   0  0  0  0  0  0  0  0  0  0  0  0
    1.4907    2.1974   -0.6426 H   0  0  0  0  0  0  0  0  0  0  0  0
   -0.7408    1.2981   -1.1454 H   0  0  0  0  0  0  0  0  0  0  0  0
    0.4200   -0.0333   -1.0012 H   0  0  0  0  0  0  0  0  0  0  0  0
   -4.7556    0.3863    3.4510 H   0  0  0  0  0  0  0  0  0  0  0  0
   -7.2279    0.2064    3.3670 H   0  0  0  0  0  0  0  0  0  0  0  0
   -8.3651   -0.3355    1.2285 H   0  0  0  0  0  0  0  0  0  0  0  0
   -7.0491   -0.7017   -0.8192 H   0  0  0  0  0  0  0  0  0  0  0  0
   -5.6729   -1.0132   -2.5420 H   0  0  0  0  0  0  0  0  0  0  0  0
   -3.4190   -1.3667   -3.9922 H   0  0  0  0  0  0  0  0  0  0  0  0
   -1.3556   -0.8921   -2.3180 H   0  0  0  0  0  0  0  0  0  0  0  0
   -0.7015    1.0361    2.4713 H   0  0  0  0  0  0  0  0  0  0  0  0
   -0.7527   -0.7362    2.5248 H   0  0  0  0  0  0  0  0  0  0  0  0
    1.5417    0.0140    2.9418 H   0  0  0  0  0  0  0  0  0  0  0  0
    1.4353   -0.8960    1.4335 H   0  0  0  0  0  0  0  0  0  0  0  0
  1  2  1  0
  2  3  2  0
  3  4  1  0
  4  5  2  0
  5  6  1  0
  6  7  2  0
  7  8  1  0
  8  9  1  0
  9 10  1  0
 10 11  1  0
 11 12  1  0
 12 13  1  0
 13 14  1  0
 14 15  2  0
 15 16  1  0
 16 17  2  0
 17 18  1  0
 18 19  2  0
 19 20  1  0
 20 21  2  0
 21 22  1  0
 22 23  1  0
 23 24  2  0
 24 25  1  0
 25 26  2  0
 13 27  1  0
 27 28  1  0
  7  2  1  0
 28 10  1  0
 26 14  1  0
 21 16  1  0
 26 22  1  0
  3 29  1  0
  4 30  1  0
  5 31  1  0
  6 32  1  0
  8 33  1  0
  8 34  1  0
  9 35  1  0
  9 36  1  0
 11 37  1  0
 11 38  1  0
 12 39  1  0
 12 40  1  0
 17 41  1  0
 18 42  1  0
 19 43  1  0
 20 44  1  0
 23 45  1  0
 24 46  1  0
 25 47  1  0
 27 48  1  0
 27 49  1  0
 28 50  1  0
 28 51  1  0
M  END
$$$$
