
     RDKit          3D

 54 57  0  0  0  0  0  0  0  0999 V2000
    4.4434    2.3466    4.1018 C   0  0  0  0  0  0  0  0  0  0  0  0
    3.8209    1.8498    2.8070 C   0  0  0  0  0  0  0  0  0  0  0  0
    3.6649    0.3366    2.7820 C   0  0  0  0  0  0  0  0  0  0  0  0
    4.1146   -0.3738    3.6806 O   0  0  0  0  0  0  0  0  0  0  0  0
    2.9939   -0.1974    1.6920 N   0  0  0  0  0  0  0  0  0  0  0  0
    2.7486   -1.6439    1.6412 C   0  0  0  0  0  0  0  0  0  0  0  0
    1.3886   -1.9873    1.0086 C   0  0  0  0  0  0  0  0  0  0  0  0
    1.1840   -1.3527   -0.3212 N   0  0  0  0  0  0  0  0  0  0  0  0
    1.0526   -2.2677   -1.4004 C   0  0  0  0  0  0  0  0  0  0  0  0
    2.0001   -3.2682   -1.6590 C   0  0  0  0  0  0  0  0  0  0  0  0
    1.8455   -4.1195   -2.7543 C   0  0  0  0  0  0  0  0  0  0  0  0
    0.7460   -3.9731   -3.5987 C   0  0  0  0  0  0  0  0  0  0  0  0
    0.5692   -5.0316   -4.9456 Cl  0  0  0  0  0  0  0  0  0  0  0  0
   -0.2088   -2.9848   -3.3644 C   0  0  0  0  0  0  0  0  0  0  0  0
   -0.0602   -2.1328   -2.2700 C   0  0  0  0  0  0  0  0  0  0  0  0
   -0.9795   -1.1193   -1.9258 N   0  0  0  0  0  0  0  0  0  0  0  0
   -2.0945   -0.7043   -2.6173 C   0  0  0  0  0  0  0  0  0  0  0  0
   -2.4546   -1.0964   -3.7207 O   0  0  0  0  0  0  0  0  0  0  0  0
   -2.8914    0.3613   -1.9444 C   0  0  0  0  0  0  0  0  0  0  0  0
   -3.5721    1.2916   -2.7432 C   0  0  0  0  0  0  0  0  0  0  0  0
   -4.3246    2.3096   -2.1529 C   0  0  0  0  0  0  0  0  0  0  0  0
   -4.4060    2.3945   -0.7650 C   0  0  0  0  0  0  0  0  0  0  0  0
   -3.7638    1.4424    0.0342 C   0  0  0  0  0  0  0  0  0  0  0  0
   -2.9984    0.4330   -0.5491 C   0  0  0  0  0  0  0  0  0  0  0  0
   -3.8396    1.4396    1.4044 O   0  0  0  0  0  0  0  0  0  0  0  0
   -4.9160    2.2651    1.8667 C   0  0  0  0  0  0  0  0  0  0  0  0
   -4.9089    3.6041    1.1480 C   0  0  0  0  0  0  0  0  0  0  0  0
   -5.1463    3.4289   -0.2536 O   0  0  0  0  0  0  0  0  0  0  0  0
    2.1484   -0.2764   -0.6622 C   0  0  0  0  0  0  0  0  0  0  0  0
    2.4643    0.5892    0.5703 C   0  0  0  0  0  0  0  0  0  0  0  0
    5.4448    1.9272    4.2441 H   0  0  0  0  0  0  0  0  0  0  0  0
    4.5290    3.4375    4.0892 H   0  0  0  0  0  0  0  0  0  0  0  0
    3.8335    2.0610    4.9651 H   0  0  0  0  0  0  0  0  0  0  0  0
    2.8356    2.3124    2.6875 H   0  0  0  0  0  0  0  0  0  0  0  0
    4.4605    2.1500    1.9706 H   0  0  0  0  0  0  0  0  0  0  0  0
    2.8036   -2.0780    2.6449 H   0  0  0  0  0  0  0  0  0  0  0  0
    3.5627   -2.0804    1.0505 H   0  0  0  0  0  0  0  0  0  0  0  0
    0.5963   -1.6009    1.6625 H   0  0  0  0  0  0  0  0  0  0  0  0
    1.2544   -3.0755    0.9778 H   0  0  0  0  0  0  0  0  0  0  0  0
    2.8710   -3.3868   -1.0216 H   0  0  0  0  0  0  0  0  0  0  0  0
    2.5858   -4.8916   -2.9463 H   0  0  0  0  0  0  0  0  0  0  0  0
   -1.0580   -2.9021   -4.0342 H   0  0  0  0  0  0  0  0  0  0  0  0
   -0.7079   -0.6389   -1.0722 H   0  0  0  0  0  0  0  0  0  0  0  0
   -3.5118    1.2271   -3.8284 H   0  0  0  0  0  0  0  0  0  0  0  0
   -4.8413    3.0355   -2.7752 H   0  0  0  0  0  0  0  0  0  0  0  0
   -2.5293   -0.3069    0.0928 H   0  0  0  0  0  0  0  0  0  0  0  0
   -5.8601    1.7286    1.7093 H   0  0  0  0  0  0  0  0  0  0  0  0
   -4.7822    2.4118    2.9432 H   0  0  0  0  0  0  0  0  0  0  0  0
   -5.7016    4.2488    1.5406 H   0  0  0  0  0  0  0  0  0  0  0  0
   -3.9506    4.1228    1.2758 H   0  0  0  0  0  0  0  0  0  0  0  0
    1.7248    0.3612   -1.4472 H   0  0  0  0  0  0  0  0  0  0  0  0
    3.0870   -0.7001   -1.0438 H   0  0  0  0  0  0  0  0  0  0  0  0
    1.5515    1.0799    0.9286 H   0  0  0  0  0  0  0  0  0  0  0  0
    3.1821    1.3682    0.2974 H   0  0  0  0  0  0  0  0  0  0  0  0
  1  2  1  0
  2  3  1  0
  3  4  2  0
  3  5  1  0
  5  6  1  0
  6  7  1  0
  7  8  1  0
  8  9  1  0
  9 10  2  0
 10 11  1  0
 11 12  2  0
 12 13  1  0
 12 14  1  0
 14 15  2  0
 15 16  1  0
 16 17  1  0
 17 18  2  0
 17 19  1  0
 19 20  2  0
 20 21  1  0
 21 22  2  0
 22 23  1  0
 23 24  2  0
 23 25  1  0
 25 26  1  0
 26 27  1  0
 27 28  1  0
  8 29  1  0
 29 30  1  0
 30  5  1  0
 15  9  1  0
 24 19  1  0
 28 22  1  0
  1 31  1  0
  1 32  1  0
  1 33  1  0
  2 34  1  0
  2 35  1  0
  6 36  1  0
  6 37  1  0
  7 38  1  0
  7 39  1  0
 10 40  1  0
 11 41  1  0
 14 42  1  0
 16 43  1  0
 20 44  1  0
 21 45  1  0
 24 46  1  0
 26 47  1  0
 26 48  1  0
 27 49  1  0
 27 50  1  0
 29 51  1  0
 29 52  1  0
 30 53  1  0
 30 54  1  0
M  END
$$$$
