
     RDKit          3D

 42 44  0  0  0  0  0  0  0  0999 V2000
   -2.1552   -2.2438    0.5465 C   0  0  0  0  0  0  0  0  0  0  0  0
   -3.0597   -1.0765    0.2574 C   0  0  0  0  0  0  0  0  0  0  0  0
   -4.4433   -1.2290    0.4579 C   0  0  0  0  0  0  0  0  0  0  0  0
   -5.3220   -0.1818    0.1878 C   0  0  0  0  0  0  0  0  0  0  0  0
   -4.8214    1.0259   -0.2798 C   0  0  0  0  0  0  0  0  0  0  0  0
   -5.8969    2.3286   -0.6082 Cl  0  0  0  0  0  0  0  0  0  0  0  0
   -3.4508    1.1973   -0.4772 C   0  0  0  0  0  0  0  0  0  0  0  0
   -2.5476    0.1537   -0.2122 C   0  0  0  0  0  0  0  0  0  0  0  0
   -1.1552    0.3161   -0.3750 N   0  0  0  0  0  0  0  0  0  0  0  0
   -0.5225    0.8695    0.8466 C   0  0  0  0  0  0  0  0  0  0  0  0
    0.8010    1.6160    0.5386 C   0  0  0  0  0  0  0  0  0  0  0  0
    1.5934    1.0482   -0.5899 N   0  0  0  0  0  0  0  0  0  0  0  0
    2.4054   -0.0199   -0.1933 C   0  0  0  0  0  0  0  0  0  0  0  0
    1.9127   -1.3126    0.0545 C   0  0  0  0  0  0  0  0  0  0  0  0
    2.7630   -2.3325    0.4637 C   0  0  0  0  0  0  0  0  0  0  0  0
    4.1103   -2.0612    0.6233 C   0  0  0  0  0  0  0  0  0  0  0  0
    4.5766   -0.7803    0.3652 C   0  0  0  0  0  0  0  0  0  0  0  0
    3.7384    0.2032   -0.0331 N   0  0  0  0  0  4  0  0  0  0  0  0
    4.2854    1.5404   -0.3238 C   0  0  0  0  0  0  0  0  0  0  0  0
    0.7843    0.7801   -1.8209 C   0  0  0  0  0  0  0  0  0  0  0  0
   -0.7359    0.9838   -1.6206 C   0  0  0  0  0  0  0  0  0  0  0  0
   -2.7282   -3.1585    0.7335 H   0  0  0  0  0  0  0  0  0  0  0  0
   -1.5025   -2.4442   -0.3091 H   0  0  0  0  0  0  0  0  0  0  0  0
   -1.5473   -2.0439    1.4338 H   0  0  0  0  0  0  0  0  0  0  0  0
   -4.8471   -2.1723    0.8213 H   0  0  0  0  0  0  0  0  0  0  0  0
   -6.3893   -0.3160    0.3440 H   0  0  0  0  0  0  0  0  0  0  0  0
   -3.0955    2.1631   -0.8220 H   0  0  0  0  0  0  0  0  0  0  0  0
   -0.3128    0.0420    1.5339 H   0  0  0  0  0  0  0  0  0  0  0  0
   -1.1883    1.5644    1.3754 H   0  0  0  0  0  0  0  0  0  0  0  0
    0.5561    2.6502    0.2624 H   0  0  0  0  0  0  0  0  0  0  0  0
    1.4094    1.6931    1.4491 H   0  0  0  0  0  0  0  0  0  0  0  0
    0.8553   -1.5325   -0.0741 H   0  0  0  0  0  0  0  0  0  0  0  0
    2.3722   -3.3308    0.6537 H   0  0  0  0  0  0  0  0  0  0  0  0
    4.7954   -2.8438    0.9417 H   0  0  0  0  0  0  0  0  0  0  0  0
    5.6292   -0.5343    0.4735 H   0  0  0  0  0  0  0  0  0  0  0  0
    4.0452    1.7945   -1.3598 H   0  0  0  0  0  0  0  0  0  0  0  0
    3.8438    2.2515    0.3792 H   0  0  0  0  0  0  0  0  0  0  0  0
    5.3713    1.5358   -0.1989 H   0  0  0  0  0  0  0  0  0  0  0  0
    1.1301    1.4662   -2.6032 H   0  0  0  0  0  0  0  0  0  0  0  0
    0.9598   -0.2324   -2.2068 H   0  0  0  0  0  0  0  0  0  0  0  0
   -0.9541    2.0585   -1.5820 H   0  0  0  0  0  0  0  0  0  0  0  0
   -1.2623    0.5644   -2.4869 H   0  0  0  0  0  0  0  0  0  0  0  0
  1  2  1  0
  2  3  2  0
  3  4  1  0
  4  5  2  0
  5  6  1  0
  5  7  1  0
  7  8  2  0
  8  9  1  0
  9 10  1  0
 10 11  1  0
 11 12  1  0
 12 13  1  0
 13 14  2  0
 14 15  1  0
 15 16  2  0
 16 17  1  0
 17 18  2  0
 18 19  1  0
 12 20  1  0
 20 21  1  0
  8  2  1  0
 21  9  1  0
 18 13  1  0
  1 22  1  0
  1 23  1  0
  1 24  1  0
  3 25  1  0
  4 26  1  0
  7 27  1  0
 10 28  1  0
 10 29  1  0
 11 30  1  0
 11 31  1  0
 14 32  1  0
 15 33  1  0
 16 34  1  0
 17 35  1  0
 19 36  1  0
 19 37  1  0
 19 38  1  0
 20 39  1  0
 20 40  1  0
 21 41  1  0
 21 42  1  0
M  CHG  1  18   1
M  END
$$$$
