
     RDKit          3D

 53 55  0  0  0  0  0  0  0  0999 V2000
   -5.6219   -5.6589    3.9342 C   0  0  0  0  0  0  0  0  0  0  0  0
   -6.1290   -4.4524    3.3737 O   0  0  0  0  0  0  0  0  0  0  0  0
   -5.2175   -3.4755    3.0820 C   0  0  0  0  0  0  0  0  0  0  0  0
   -3.8296   -3.5865    3.1981 C   0  0  0  0  0  0  0  0  0  0  0  0
   -3.0086   -2.5044    2.8642 C   0  0  0  0  0  0  0  0  0  0  0  0
   -3.5808   -1.3128    2.4145 C   0  0  0  0  0  0  0  0  0  0  0  0
   -2.5254    0.0611    2.0289 S   0  0  0  0  0  6  0  0  0  0  0  0
   -1.4772    0.0933    3.0236 O   0  0  0  0  0  0  0  0  0  0  0  0
   -3.3522    1.2215    1.7724 O   0  0  0  0  0  0  0  0  0  0  0  0
   -1.8482   -0.3958    0.5682 N   0  0  0  0  0  0  0  0  0  0  0  0
   -2.7286   -0.6102   -0.5914 C   0  0  0  0  0  0  0  0  0  0  0  0
   -2.1002    0.2235   -1.6843 C   0  0  0  0  0  0  0  0  0  0  0  0
   -0.7095    0.2344   -1.3563 O   0  0  0  0  0  0  0  0  0  0  0  0
   -0.6440    0.3204    0.0873 C   0  0  0  0  0  0  0  0  0  0  0  0
   -0.5322    1.8157    0.4936 C   0  0  0  0  0  0  0  0  0  0  0  0
    0.5555    2.5232   -0.1621 N   0  0  0  0  0  0  0  0  0  0  0  0
    1.8747    2.2135    0.0664 C   0  0  0  0  0  0  0  0  0  0  0  0
    2.2887    1.3777    0.8573 O   0  0  0  0  0  0  0  0  0  0  0  0
    2.8652    3.0226   -0.8027 C   0  0  0  0  0  0  0  0  0  0  0  0
    2.4485    3.8501   -1.6015 O   0  0  0  0  0  0  0  0  0  0  0  0
    4.1802    2.7008   -0.5713 N   0  0  0  0  0  0  0  0  0  0  0  0
    5.2581    3.2358   -1.3596 C   0  0  0  0  0  0  0  0  0  0  0  0
    5.6086    2.3100   -2.4953 C   0  0  0  0  0  0  0  0  0  0  0  0
    6.5983    1.3259   -2.3374 C   0  0  0  0  0  0  0  0  0  0  0  0
    6.9055    0.4594   -3.3882 C   0  0  0  0  0  0  0  0  0  0  0  0
    6.2189    0.5701   -4.5914 C   0  0  0  0  0  0  0  0  0  0  0  0
    6.5153   -0.2605   -5.5996 F   0  0  0  0  0  0  0  0  0  0  0  0
    5.2268    1.5286   -4.7642 C   0  0  0  0  0  0  0  0  0  0  0  0
    4.9189    2.3963   -3.7161 C   0  0  0  0  0  0  0  0  0  0  0  0
   -4.9664   -1.1861    2.3059 C   0  0  0  0  0  0  0  0  0  0  0  0
   -5.7778   -2.2744    2.6312 C   0  0  0  0  0  0  0  0  0  0  0  0
   -4.9621   -6.1768    3.2303 H   0  0  0  0  0  0  0  0  0  0  0  0
   -6.4736   -6.3155    4.1379 H   0  0  0  0  0  0  0  0  0  0  0  0
   -5.1130   -5.4671    4.8857 H   0  0  0  0  0  0  0  0  0  0  0  0
   -3.3561   -4.4966    3.5529 H   0  0  0  0  0  0  0  0  0  0  0  0
   -1.9290   -2.5949    2.9629 H   0  0  0  0  0  0  0  0  0  0  0  0
   -2.6902   -1.6759   -0.8478 H   0  0  0  0  0  0  0  0  0  0  0  0
   -3.7734   -0.3334   -0.4301 H   0  0  0  0  0  0  0  0  0  0  0  0
   -2.4749    1.2539   -1.6766 H   0  0  0  0  0  0  0  0  0  0  0  0
   -2.2512   -0.2004   -2.6818 H   0  0  0  0  0  0  0  0  0  0  0  0
    0.2476   -0.2312    0.4013 H   0  0  0  0  0  0  0  0  0  0  0  0
   -1.4426    2.3615    0.2255 H   0  0  0  0  0  0  0  0  0  0  0  0
   -0.3752    1.9145    1.5720 H   0  0  0  0  0  0  0  0  0  0  0  0
    0.3636    3.1557   -0.9353 H   0  0  0  0  0  0  0  0  0  0  0  0
    4.3488    1.9206    0.0554 H   0  0  0  0  0  0  0  0  0  0  0  0
    4.9907    4.2266   -1.7443 H   0  0  0  0  0  0  0  0  0  0  0  0
    6.1193    3.3679   -0.6947 H   0  0  0  0  0  0  0  0  0  0  0  0
    7.1345    1.2290   -1.3973 H   0  0  0  0  0  0  0  0  0  0  0  0
    7.6723   -0.3020   -3.2759 H   0  0  0  0  0  0  0  0  0  0  0  0
    4.6997    1.5912   -5.7094 H   0  0  0  0  0  0  0  0  0  0  0  0
    4.1355    3.1402   -3.8502 H   0  0  0  0  0  0  0  0  0  0  0  0
   -5.4235   -0.2533    1.9856 H   0  0  0  0  0  0  0  0  0  0  0  0
   -6.8609   -2.1824    2.5534 H   0  0  0  0  0  0  0  0  0  0  0  0
  1  2  1  0
  2  3  1  0
  3  4  2  0
  4  5  1  0
  5  6  2  0
  6  7  1  0
  7  8  2  0
  7  9  2  0
  7 10  1  0
 10 11  1  0
 11 12  1  0
 12 13  1  0
 13 14  1  0
 14 15  1  0
 15 16  1  0
 16 17  1  0
 17 18  2  0
 17 19  1  0
 19 20  2  0
 19 21  1  0
 21 22  1  0
 22 23  1  0
 23 24  2  0
 24 25  1  0
 25 26  2  0
 26 27  1  0
 26 28  1  0
 28 29  2  0
  6 30  1  0
 30 31  2  0
 31  3  1  0
 14 10  1  0
 29 23  1  0
  1 32  1  0
  1 33  1  0
  1 34  1  0
  4 35  1  0
  5 36  1  0
 11 37  1  0
 11 38  1  0
 12 39  1  0
 12 40  1  0
 14 41  1  0
 15 42  1  0
 15 43  1  0
 16 44  1  0
 21 45  1  0
 22 46  1  0
 22 47  1  0
 24 48  1  0
 25 49  1  0
 28 50  1  0
 29 51  1  0
 30 52  1  0
 31 53  1  0
M  END
$$$$
