
     RDKit          3D

 70 75  0  0  0  0  0  0  0  0999 V2000
   -5.1378   -3.3528    2.4528 C   0  0  0  0  0  0  0  0  0  0  0  0
   -4.0679   -2.6971    1.6185 C   0  0  0  0  0  0  0  0  0  0  0  0
   -3.3662   -1.5963    2.1676 C   0  0  0  0  0  0  0  0  0  0  0  0
   -2.3604   -0.9421    1.4551 C   0  0  0  0  0  0  0  0  0  0  0  0
   -2.0635   -1.3969    0.1836 C   0  0  0  0  0  0  0  0  0  0  0  0
   -2.7545   -2.4864   -0.3640 C   0  0  0  0  0  0  0  0  0  0  0  0
   -3.7753   -3.1470    0.3099 C   0  0  0  0  0  0  0  0  0  0  0  0
   -4.4898   -4.3188   -0.2975 C   0  0  0  0  0  0  0  0  0  0  0  0
   -2.2538   -2.7700   -1.6339 N   0  0  0  0  0  0  0  0  0  0  0  0
   -1.2140   -1.9069   -1.9863 C   0  0  0  0  0  0  0  0  0  0  0  0
   -0.5704   -1.9755   -3.0230 O   0  0  0  0  0  0  0  0  0  0  0  0
   -1.0530   -0.9110   -0.8093 C   0  0  1  0  0  0  0  0  0  0  0  0
   -1.3725    0.4908   -1.1948 C   0  0  0  0  0  0  0  0  0  0  0  0
   -0.1889    1.2355   -1.3130 C   0  0  0  0  0  0  0  0  0  0  0  0
   -0.5051    2.5153   -1.6807 C   0  0  0  0  0  0  0  0  0  0  0  0
    0.2900    3.5668   -1.8621 O   0  0  0  0  0  0  0  0  0  0  0  0
   -1.9142    2.5861   -1.8021 N   0  0  0  0  0  0  0  0  0  0  0  0
   -2.6776    3.7473   -2.1778 C   0  0  0  0  0  0  0  0  0  0  0  0
   -4.0187    3.8844   -1.7900 C   0  0  0  0  0  0  0  0  0  0  0  0
   -4.7589    5.0140   -2.1564 C   0  0  0  0  0  0  0  0  0  0  0  0
   -4.1717    6.0207   -2.9164 C   0  0  0  0  0  0  0  0  0  0  0  0
   -2.8430    5.8983   -3.3106 C   0  0  0  0  0  0  0  0  0  0  0  0
   -2.0998    4.7708   -2.9437 C   0  0  0  0  0  0  0  0  0  0  0  0
   -2.4346    1.3090   -1.4840 C   0  0  0  0  0  0  0  0  0  0  0  0
   -3.7343    1.0229   -1.5315 O   0  0  0  0  0  0  0  0  0  0  0  0
    0.9848    0.3801   -1.0248 C   0  0  1  0  0  0  0  0  0  0  0  0
    2.0698    0.9357   -0.1047 C   0  0  0  0  0  0  0  0  0  0  0  0
    2.9427   -0.1184    0.4366 N   0  0  0  0  0  0  0  0  0  0  0  0
    4.0685    0.2729    1.1349 C   0  0  0  0  0  0  0  0  0  0  0  0
    4.3180    1.4425    1.3994 O   0  0  0  0  0  0  0  0  0  0  0  0
    4.8558   -0.7795    1.4718 O   0  0  0  0  0  0  0  0  0  0  0  0
    6.0913   -0.5845    2.2057 C   0  0  0  0  0  0  0  0  0  0  0  0
    5.8281    0.0095    3.5936 C   0  0  0  0  0  0  0  0  0  0  0  0
    6.6658   -1.9991    2.3800 C   0  0  0  0  0  0  0  0  0  0  0  0
    7.0926    0.2528    1.4021 C   0  0  0  0  0  0  0  0  0  0  0  0
    2.6954   -1.5058    0.0096 C   0  0  0  0  0  0  0  0  0  0  0  0
    1.1925   -1.8912   -0.1006 C   0  0  0  0  0  0  0  0  0  0  0  0
    0.3272   -0.7484   -0.3181 N   0  0  0  0  0  0  0  0  0  0  0  0
   -5.1093   -3.0021    3.4899 H   0  0  0  0  0  0  0  0  0  0  0  0
   -6.1268   -3.1221    2.0450 H   0  0  0  0  0  0  0  0  0  0  0  0
   -4.9957   -4.4378    2.4772 H   0  0  0  0  0  0  0  0  0  0  0  0
   -3.6035   -1.2457    3.1712 H   0  0  0  0  0  0  0  0  0  0  0  0
   -1.8250   -0.1019    1.8880 H   0  0  0  0  0  0  0  0  0  0  0  0
   -5.5553   -4.3049   -0.0467 H   0  0  0  0  0  0  0  0  0  0  0  0
   -4.0493   -5.2535    0.0627 H   0  0  0  0  0  0  0  0  0  0  0  0
   -4.4362   -4.3063   -1.3903 H   0  0  0  0  0  0  0  0  0  0  0  0
   -2.5527   -3.5226   -2.2354 H   0  0  0  0  0  0  0  0  0  0  0  0
    1.2057    3.3006   -1.6762 H   0  0  0  0  0  0  0  0  0  0  0  0
   -4.5117    3.1443   -1.1681 H   0  0  0  0  0  0  0  0  0  0  0  0
   -5.7946    5.1054   -1.8405 H   0  0  0  0  0  0  0  0  0  0  0  0
   -4.7475    6.8965   -3.2016 H   0  0  0  0  0  0  0  0  0  0  0  0
   -2.3801    6.6768   -3.9114 H   0  0  0  0  0  0  0  0  0  0  0  0
   -1.0788    4.7055   -3.3065 H   0  0  0  0  0  0  0  0  0  0  0  0
   -3.8583    0.1127   -1.2103 H   0  0  0  0  0  0  0  0  0  0  0  0
    1.4190    0.0331   -1.9725 H   0  0  0  0  0  0  0  0  0  0  0  0
    2.6907    1.6595   -0.6469 H   0  0  0  0  0  0  0  0  0  0  0  0
    1.6368    1.4682    0.7525 H   0  0  0  0  0  0  0  0  0  0  0  0
    5.0505   -0.5573    4.1179 H   0  0  0  0  0  0  0  0  0  0  0  0
    5.4769    1.0441    3.5364 H   0  0  0  0  0  0  0  0  0  0  0  0
    6.7354    0.0049    4.2073 H   0  0  0  0  0  0  0  0  0  0  0  0
    5.9600   -2.6428    2.9176 H   0  0  0  0  0  0  0  0  0  0  0  0
    6.8357   -2.4731    1.4063 H   0  0  0  0  0  0  0  0  0  0  0  0
    7.6128   -1.9891    2.9294 H   0  0  0  0  0  0  0  0  0  0  0  0
    8.0807    0.2538    1.8750 H   0  0  0  0  0  0  0  0  0  0  0  0
    7.1949   -0.1363    0.3829 H   0  0  0  0  0  0  0  0  0  0  0  0
    6.7739    1.2952    1.3100 H   0  0  0  0  0  0  0  0  0  0  0  0
    3.2011   -2.2137    0.6741 H   0  0  0  0  0  0  0  0  0  0  0  0
    3.1638   -1.5994   -0.9785 H   0  0  0  0  0  0  0  0  0  0  0  0
    0.8899   -2.3744    0.8359 H   0  0  0  0  0  0  0  0  0  0  0  0
    1.1001   -2.6453   -0.8900 H   0  0  0  0  0  0  0  0  0  0  0  0
  1  2  1  0
  2  3  2  0
  3  4  1  0
  4  5  2  0
  5  6  1  0
  6  7  2  0
  7  8  1  0
  6  9  1  0
  9 10  1  0
 10 11  2  0
 10 12  1  0
 12 13  1  0
 13 14  1  0
 14 15  2  0
 15 16  1  0
 15 17  1  0
 17 18  1  0
 18 19  2  0
 19 20  1  0
 20 21  2  0
 21 22  1  0
 22 23  2  0
 17 24  1  0
 24 25  1  0
 14 26  1  0
 26 27  1  0
 27 28  1  0
 28 29  1  0
 29 30  2  0
 29 31  1  0
 31 32  1  0
 32 33  1  0
 32 34  1  0
 32 35  1  0
 28 36  1  0
 36 37  1  0
 37 38  1  0
  7  2  1  0
 12 38  1  1
 12  5  1  0
 24 13  2  0
 38 26  1  0
 23 18  1  0
  1 39  1  0
  1 40  1  0
  1 41  1  0
  3 42  1  0
  4 43  1  0
  8 44  1  0
  8 45  1  0
  8 46  1  0
  9 47  1  0
 16 48  1  0
 19 49  1  0
 20 50  1  0
 21 51  1  0
 22 52  1  0
 23 53  1  0
 25 54  1  0
 26 55  1  6
 27 56  1  0
 27 57  1  0
 33 58  1  0
 33 59  1  0
 33 60  1  0
 34 61  1  0
 34 62  1  0
 34 63  1  0
 35 64  1  0
 35 65  1  0
 35 66  1  0
 36 67  1  0
 36 68  1  0
 37 69  1  0
 37 70  1  0
M  END
$$$$
