
     RDKit          3D

 51 53  0  0  0  0  0  0  0  0999 V2000
    7.0634    2.4925    1.2552 C   0  0  0  0  0  0  0  0  0  0  0  0
    6.3018    2.3518    0.0645 O   0  0  0  0  0  0  0  0  0  0  0  0
    5.6523    1.1597   -0.1405 C   0  0  0  0  0  0  0  0  0  0  0  0
    5.7271    0.0606    0.7208 C   0  0  0  0  0  0  0  0  0  0  0  0
    5.0273   -1.1152    0.4342 C   0  0  0  0  0  0  0  0  0  0  0  0
    4.2393   -1.2088   -0.7174 C   0  0  0  0  0  0  0  0  0  0  0  0
    3.4851   -2.4814   -1.0289 C   0  0  0  0  0  0  0  0  0  0  0  0
    1.9918   -2.2773   -1.2518 C   0  0  0  0  0  0  0  0  0  0  0  0
    1.4611   -2.6510   -2.2943 O   0  0  0  0  0  0  0  0  0  0  0  0
    1.3573   -1.6866   -0.1712 N   0  0  0  0  0  0  0  0  0  0  0  0
   -0.0126   -1.3878   -0.0343 C   0  0  0  0  0  0  0  0  0  0  0  0
   -0.4093   -0.7297    1.1341 C   0  0  0  0  0  0  0  0  0  0  0  0
   -1.7528   -0.3976    1.3538 C   0  0  0  0  0  0  0  0  0  0  0  0
   -2.7233   -0.7157    0.4064 C   0  0  0  0  0  0  0  0  0  0  0  0
   -4.0959   -0.4234    0.5496 N   0  0  0  0  0  0  0  0  0  0  0  0
   -4.7039    0.2607    1.5871 C   0  0  0  0  0  0  0  0  0  0  0  0
   -4.1518    0.7912    2.5439 O   0  0  0  0  0  0  0  0  0  0  0  0
   -6.1869    0.3754    1.4803 C   0  0  0  0  0  0  0  0  0  0  0  0
   -6.8012    1.5457    1.9474 C   0  0  0  0  0  0  0  0  0  0  0  0
   -8.1882    1.6923    1.8682 C   0  0  0  0  0  0  0  0  0  0  0  0
   -8.9608    0.6627    1.3327 C   0  0  0  0  0  0  0  0  0  0  0  0
  -10.8381    0.8569    1.2262 Br  0  0  0  0  0  0  0  0  0  0  0  0
   -8.3616   -0.5141    0.8820 C   0  0  0  0  0  0  0  0  0  0  0  0
   -6.9733   -0.6620    0.9589 C   0  0  0  0  0  0  0  0  0  0  0  0
   -2.3268   -1.3760   -0.7611 C   0  0  0  0  0  0  0  0  0  0  0  0
   -0.9833   -1.7103   -0.9801 C   0  0  0  0  0  0  0  0  0  0  0  0
    4.1782   -0.1118   -1.5923 C   0  0  0  0  0  0  0  0  0  0  0  0
    4.8715    1.0725   -1.3103 C   0  0  0  0  0  0  0  0  0  0  0  0
    4.8562    2.1893   -2.1109 O   0  0  0  0  0  0  0  0  0  0  0  0
    4.0207    2.1685   -3.2595 C   0  0  0  0  0  0  0  0  0  0  0  0
    6.4359    2.3728    2.1433 H   0  0  0  0  0  0  0  0  0  0  0  0
    7.4724    3.5066    1.2732 H   0  0  0  0  0  0  0  0  0  0  0  0
    7.9064    1.7935    1.2684 H   0  0  0  0  0  0  0  0  0  0  0  0
    6.3281    0.0850    1.6238 H   0  0  0  0  0  0  0  0  0  0  0  0
    5.1131   -1.9581    1.1189 H   0  0  0  0  0  0  0  0  0  0  0  0
    3.5992   -3.2116   -0.2183 H   0  0  0  0  0  0  0  0  0  0  0  0
    3.9190   -2.9340   -1.9291 H   0  0  0  0  0  0  0  0  0  0  0  0
    1.9541   -1.3760    0.5869 H   0  0  0  0  0  0  0  0  0  0  0  0
    0.3164   -0.4595    1.8978 H   0  0  0  0  0  0  0  0  0  0  0  0
   -2.0031    0.1121    2.2788 H   0  0  0  0  0  0  0  0  0  0  0  0
   -4.6803   -0.6939   -0.2293 H   0  0  0  0  0  0  0  0  0  0  0  0
   -6.1981    2.3466    2.3732 H   0  0  0  0  0  0  0  0  0  0  0  0
   -8.6519    2.6068    2.2298 H   0  0  0  0  0  0  0  0  0  0  0  0
   -8.9667   -1.3233    0.4790 H   0  0  0  0  0  0  0  0  0  0  0  0
   -6.5274   -1.6000    0.6395 H   0  0  0  0  0  0  0  0  0  0  0  0
   -3.0517   -1.6444   -1.5249 H   0  0  0  0  0  0  0  0  0  0  0  0
   -0.7335   -2.2244   -1.9028 H   0  0  0  0  0  0  0  0  0  0  0  0
    3.5798   -0.2044   -2.4952 H   0  0  0  0  0  0  0  0  0  0  0  0
    4.0983    3.1449   -3.7466 H   0  0  0  0  0  0  0  0  0  0  0  0
    2.9712    2.0190   -2.9842 H   0  0  0  0  0  0  0  0  0  0  0  0
    4.3556    1.4114   -3.9758 H   0  0  0  0  0  0  0  0  0  0  0  0
  1  2  1  0
  2  3  1  0
  3  4  2  0
  4  5  1  0
  5  6  2  0
  6  7  1  0
  7  8  1  0
  8  9  2  0
  8 10  1  0
 10 11  1  0
 11 12  2  0
 12 13  1  0
 13 14  2  0
 14 15  1  0
 15 16  1  0
 16 17  2  0
 16 18  1  0
 18 19  2  0
 19 20  1  0
 20 21  2  0
 21 22  1  0
 21 23  1  0
 23 24  2  0
 14 25  1  0
 25 26  2  0
  6 27  1  0
 27 28  2  0
 28 29  1  0
 29 30  1  0
 28  3  1  0
 26 11  1  0
 24 18  1  0
  1 31  1  0
  1 32  1  0
  1 33  1  0
  4 34  1  0
  5 35  1  0
  7 36  1  0
  7 37  1  0
 10 38  1  0
 12 39  1  0
 13 40  1  0
 15 41  1  0
 19 42  1  0
 20 43  1  0
 23 44  1  0
 24 45  1  0
 25 46  1  0
 26 47  1  0
 27 48  1  0
 30 49  1  0
 30 50  1  0
 30 51  1  0
M  END
$$$$
