
     RDKit          3D

 58 63  0  0  0  0  0  0  0  0999 V2000
    7.5990    1.6291   -1.2854 C   0  0  0  0  0  0  0  0  0  0  0  0
    6.2970    1.6781   -0.5592 C   0  0  0  0  0  0  0  0  0  0  0  0
    5.2686    2.5849   -0.7040 C   0  0  0  0  0  0  0  0  0  0  0  0
    4.1799    2.3103    0.1752 C   0  0  0  0  0  0  0  0  0  0  0  0
    4.4131    1.1965    0.9624 C   0  0  0  0  0  0  0  0  0  0  0  0
    3.5707    0.6079    1.9900 C   0  0  0  0  0  0  0  0  0  0  0  0
    3.9732    0.4225    3.1385 O   0  0  0  0  0  0  0  0  0  0  0  0
    2.2523    0.2794    1.6342 N   0  0  0  0  0  0  0  0  0  0  0  0
    1.7975    0.1073    0.2572 C   0  0  0  0  0  0  0  0  0  0  0  0
    0.8921   -1.1130    0.1076 C   0  0  0  0  0  0  0  0  0  0  0  0
   -0.3370   -1.0972    1.0594 C   0  0  0  0  0  0  0  0  0  0  0  0
   -0.0959   -0.1418    2.2587 C   0  0  0  0  0  0  0  0  0  0  0  0
    1.3634   -0.1773    2.6982 C   0  0  0  0  0  0  0  0  0  0  0  0
   -0.4023   -2.4041    1.7008 O   0  0  0  0  0  0  0  0  0  0  0  0
   -1.0083   -3.4212    1.0277 C   0  0  0  0  0  0  0  0  0  0  0  0
   -0.8133   -4.7007    1.5484 C   0  0  0  0  0  0  0  0  0  0  0  0
   -1.3755   -5.8106    0.9134 C   0  0  0  0  0  0  0  0  0  0  0  0
   -2.1375   -5.6363   -0.2413 C   0  0  0  0  0  0  0  0  0  0  0  0
   -2.8197   -7.0053   -1.0269 Cl  0  0  0  0  0  0  0  0  0  0  0  0
   -2.3495   -4.3624   -0.7608 C   0  0  0  0  0  0  0  0  0  0  0  0
   -1.7872   -3.2581   -0.1115 C   0  0  0  0  0  0  0  0  0  0  0  0
   -2.0048   -1.8997   -0.6241 C   0  0  0  0  0  0  0  0  0  0  0  0
   -2.4187   -1.7399   -1.7696 O   0  0  0  0  0  0  0  0  0  0  0  0
   -1.6691   -0.7586    0.3326 C   0  0  0  0  0  0  0  0  0  0  0  0
   -1.6958    0.5795   -0.3930 C   0  0  0  0  0  0  0  0  0  0  0  0
   -3.1063    0.9646   -0.1001 C   0  0  0  0  0  0  0  0  0  0  0  0
   -3.7908    2.0622   -0.8228 C   0  0  0  0  0  0  0  0  0  0  0  0
   -5.1594    2.2699   -0.5986 C   0  0  0  0  0  0  0  0  0  0  0  0
   -5.8368    3.2954   -1.2653 C   0  0  0  0  0  0  0  0  0  0  0  0
   -5.1457    4.1153   -2.1542 C   0  0  0  0  0  0  0  0  0  0  0  0
   -5.9757    5.3769   -2.9774 Cl  0  0  0  0  0  0  0  0  0  0  0  0
   -3.7831    3.9200   -2.3809 C   0  0  0  0  0  0  0  0  0  0  0  0
   -3.1033    2.8934   -1.7159 C   0  0  0  0  0  0  0  0  0  0  0  0
   -3.6657    0.2870    0.8510 N   0  0  0  0  0  0  0  0  0  0  0  0
   -2.7349   -0.6776    1.2927 O   0  0  0  0  0  0  0  0  0  0  0  0
    5.9398    0.5051    0.6350 S   0  0  0  0  0  0  0  0  0  0  0  0
    7.5652    0.8697   -2.0743 H   0  0  0  0  0  0  0  0  0  0  0  0
    7.8210    2.5943   -1.7531 H   0  0  0  0  0  0  0  0  0  0  0  0
    8.4281    1.3911   -0.6085 H   0  0  0  0  0  0  0  0  0  0  0  0
    5.2993    3.4198   -1.4005 H   0  0  0  0  0  0  0  0  0  0  0  0
    3.2787    2.9131    0.2432 H   0  0  0  0  0  0  0  0  0  0  0  0
    2.6489   -0.0090   -0.4204 H   0  0  0  0  0  0  0  0  0  0  0  0
    1.2683    1.0228   -0.0280 H   0  0  0  0  0  0  0  0  0  0  0  0
    1.4981   -2.0084    0.3039 H   0  0  0  0  0  0  0  0  0  0  0  0
    0.5799   -1.1913   -0.9396 H   0  0  0  0  0  0  0  0  0  0  0  0
   -0.7236   -0.4349    3.1097 H   0  0  0  0  0  0  0  0  0  0  0  0
   -0.3549    0.8932    2.0116 H   0  0  0  0  0  0  0  0  0  0  0  0
    1.6689   -1.1938    2.9787 H   0  0  0  0  0  0  0  0  0  0  0  0
    1.5036    0.4619    3.5787 H   0  0  0  0  0  0  0  0  0  0  0  0
   -0.2160   -4.8371    2.4473 H   0  0  0  0  0  0  0  0  0  0  0  0
   -1.2135   -6.8047    1.3228 H   0  0  0  0  0  0  0  0  0  0  0  0
   -2.9525   -4.2265   -1.6553 H   0  0  0  0  0  0  0  0  0  0  0  0
   -1.4855    0.5145   -1.4628 H   0  0  0  0  0  0  0  0  0  0  0  0
   -1.0483    1.3369    0.0529 H   0  0  0  0  0  0  0  0  0  0  0  0
   -5.7096    1.6324    0.0923 H   0  0  0  0  0  0  0  0  0  0  0  0
   -6.8994    3.4441   -1.0863 H   0  0  0  0  0  0  0  0  0  0  0  0
   -3.2455    4.5625   -3.0742 H   0  0  0  0  0  0  0  0  0  0  0  0
   -2.0418    2.7680   -1.9101 H   0  0  0  0  0  0  0  0  0  0  0  0
  1  2  1  0
  2  3  2  0
  3  4  1  0
  4  5  2  0
  5  6  1  0
  6  7  2  0
  6  8  1  0
  8  9  1  0
  9 10  1  0
 10 11  1  0
 11 12  1  0
 12 13  1  0
 11 14  1  0
 14 15  1  0
 15 16  2  0
 16 17  1  0
 17 18  2  0
 18 19  1  0
 18 20  1  0
 20 21  2  0
 21 22  1  0
 22 23  2  0
 22 24  1  0
 24 25  1  0
 25 26  1  0
 26 27  1  0
 27 28  2  0
 28 29  1  0
 29 30  2  0
 30 31  1  0
 30 32  1  0
 32 33  2  0
 26 34  2  0
 34 35  1  0
  5 36  1  0
 36  2  1  0
 13  8  1  0
 21 15  1  0
 35 24  1  0
 24 11  1  0
 33 27  1  0
  1 37  1  0
  1 38  1  0
  1 39  1  0
  3 40  1  0
  4 41  1  0
  9 42  1  0
  9 43  1  0
 10 44  1  0
 10 45  1  0
 12 46  1  0
 12 47  1  0
 13 48  1  0
 13 49  1  0
 16 50  1  0
 17 51  1  0
 20 52  1  0
 25 53  1  0
 25 54  1  0
 28 55  1  0
 29 56  1  0
 32 57  1  0
 33 58  1  0
M  END
$$$$
