
     RDKit          3D

 46 49  0  0  0  0  0  0  0  0999 V2000
   -6.4894    1.5029   -0.3005 C   0  0  0  0  0  0  0  0  0  0  0  0
   -6.0971    0.0414   -0.4284 C   0  0  0  0  0  0  0  0  0  0  0  0
   -4.8663   -0.2138    0.2495 O   0  0  0  0  0  0  0  0  0  0  0  0
   -3.6896   -0.0724   -0.4426 C   0  0  0  0  0  0  0  0  0  0  0  0
   -3.5496    0.4296   -1.7327 C   0  0  0  0  0  0  0  0  0  0  0  0
   -2.2809    0.5299   -2.3021 C   0  0  0  0  0  0  0  0  0  0  0  0
   -1.1512    0.1266   -1.5840 C   0  0  0  0  0  0  0  0  0  0  0  0
   -1.2497   -0.3912   -0.2767 C   0  0  0  0  0  0  0  0  0  0  0  0
   -0.0336   -0.8095    0.4407 C   0  0  0  0  0  0  0  0  0  0  0  0
   -0.1106   -1.8737    1.2673 N   0  0  0  0  0  0  0  0  0  0  0  0
    1.0311   -2.2469    1.8920 C   0  0  0  0  0  0  0  0  0  0  0  0
    0.9359   -3.4062    2.8204 C   0  0  0  0  0  0  0  0  0  0  0  0
   -0.3180   -3.9346    2.9687 N   0  0  0  0  0  0  0  0  0  0  0  0
    1.9075   -3.8528    3.4172 O   0  0  0  0  0  0  0  0  0  0  0  0
    2.2097   -1.5980    1.6851 C   0  0  0  0  0  0  0  0  0  0  0  0
    3.4917   -1.7966    2.1714 N   0  0  0  0  0  0  0  0  0  0  0  0
    4.3387   -0.8367    1.6027 C   0  0  0  0  0  0  0  0  0  0  0  0
    5.5309   -0.7650    1.8506 O   0  0  0  0  0  0  0  0  0  0  0  0
    3.5242   -0.0281    0.7513 N   0  0  0  0  0  0  0  0  0  0  0  0
    3.9453    1.0745   -0.0410 C   0  0  0  0  0  0  0  0  0  0  0  0
    3.0413    1.9592   -0.6538 C   0  0  0  0  0  0  0  0  0  0  0  0
    3.4777    3.0410   -1.4305 C   0  0  0  0  0  0  0  0  0  0  0  0
    4.8361    3.2661   -1.6123 C   0  0  0  0  0  0  0  0  0  0  0  0
    5.7492    2.4093   -1.0116 C   0  0  0  0  0  0  0  0  0  0  0  0
    7.4357    2.6789   -1.2333 Cl  0  0  0  0  0  0  0  0  0  0  0  0
    5.3136    1.3304   -0.2346 C   0  0  0  0  0  0  0  0  0  0  0  0
    2.1989   -0.5304    0.8207 C   0  0  0  0  0  0  0  0  0  0  0  0
    1.1021   -0.1225    0.1734 N   0  0  0  0  0  0  0  0  0  0  0  0
   -2.5414   -0.4700    0.2720 C   0  0  0  0  0  0  0  0  0  0  0  0
   -2.7268   -0.9210    1.5602 O   0  0  0  0  0  0  0  0  0  0  0  0
   -5.7563    2.1584   -0.7796 H   0  0  0  0  0  0  0  0  0  0  0  0
   -6.5347    1.7960    0.7537 H   0  0  0  0  0  0  0  0  0  0  0  0
   -7.4671    1.6818   -0.7571 H   0  0  0  0  0  0  0  0  0  0  0  0
   -6.0840   -0.3010   -1.4689 H   0  0  0  0  0  0  0  0  0  0  0  0
   -6.8578   -0.5651    0.0763 H   0  0  0  0  0  0  0  0  0  0  0  0
   -4.3975    0.7638   -2.3201 H   0  0  0  0  0  0  0  0  0  0  0  0
   -2.1669    0.9251   -3.3091 H   0  0  0  0  0  0  0  0  0  0  0  0
   -0.1747    0.2150   -2.0602 H   0  0  0  0  0  0  0  0  0  0  0  0
   -1.1074   -3.4926    2.5057 H   0  0  0  0  0  0  0  0  0  0  0  0
   -0.4713   -4.6880    3.6231 H   0  0  0  0  0  0  0  0  0  0  0  0
    3.7746   -2.5199    2.8225 H   0  0  0  0  0  0  0  0  0  0  0  0
    1.9683    1.8613   -0.5284 H   0  0  0  0  0  0  0  0  0  0  0  0
    2.7495    3.7087   -1.8847 H   0  0  0  0  0  0  0  0  0  0  0  0
    5.1744    4.1050   -2.2137 H   0  0  0  0  0  0  0  0  0  0  0  0
    6.0753    0.6885    0.1978 H   0  0  0  0  0  0  0  0  0  0  0  0
   -3.6898   -0.8579    1.7165 H   0  0  0  0  0  0  0  0  0  0  0  0
  1  2  1  0
  2  3  1  0
  3  4  1  0
  4  5  2  0
  5  6  1  0
  6  7  2  0
  7  8  1  0
  8  9  1  0
  9 10  2  0
 10 11  1  0
 11 12  1  0
 12 13  1  0
 12 14  2  0
 11 15  2  0
 15 16  1  0
 16 17  1  0
 17 18  2  0
 17 19  1  0
 19 20  1  0
 20 21  2  0
 21 22  1  0
 22 23  2  0
 23 24  1  0
 24 25  1  0
 24 26  2  0
 19 27  1  0
 27 28  2  0
  8 29  2  0
 29 30  1  0
 29  4  1  0
 28  9  1  0
 27 15  1  0
 26 20  1  0
  1 31  1  0
  1 32  1  0
  1 33  1  0
  2 34  1  0
  2 35  1  0
  5 36  1  0
  6 37  1  0
  7 38  1  0
 13 39  1  0
 13 40  1  0
 16 41  1  0
 21 42  1  0
 22 43  1  0
 23 44  1  0
 26 45  1  0
 30 46  1  0
M  END
$$$$
