
     RDKit          3D

 42 44  0  0  0  0  0  0  0  0999 V2000
   -5.8068   -0.7842    2.0863 C   0  0  0  0  0  0  0  0  0  0  0  0
   -4.6457   -1.5045    1.6931 O   0  0  0  0  0  0  0  0  0  0  0  0
   -3.9274   -1.0002    0.6445 C   0  0  0  0  0  0  0  0  0  0  0  0
   -4.2198    0.1677   -0.0641 C   0  0  0  0  0  0  0  0  0  0  0  0
   -3.3971    0.5747   -1.1198 C   0  0  0  0  0  0  0  0  0  0  0  0
   -2.2735   -0.1855   -1.4567 C   0  0  0  0  0  0  0  0  0  0  0  0
   -1.2408    0.3235   -2.8125 S   0  0  0  0  0  6  0  0  0  0  0  0
   -2.0289    1.2023   -3.6525 O   0  0  0  0  0  0  0  0  0  0  0  0
   -0.6030   -0.8545   -3.3583 O   0  0  0  0  0  0  0  0  0  0  0  0
   -0.0848    1.3093   -2.0772 N   0  0  0  0  0  0  0  0  0  0  0  0
    0.6906    0.8213   -0.9848 C   0  0  0  0  0  0  0  0  0  0  0  0
    1.5457   -0.2712   -1.1769 C   0  0  0  0  0  0  0  0  0  0  0  0
    2.3063   -0.7906   -0.1204 C   0  0  0  0  0  0  0  0  0  0  0  0
    3.2861   -2.2480   -0.4464 S   0  0  0  0  0  0  0  0  0  0  0  0
    4.9044   -1.6854   -0.1507 C   0  0  0  0  0  0  0  0  0  0  0  0
    5.2932   -1.1766    1.0632 N   0  0  0  0  0  0  0  0  0  0  0  0
    6.5647   -0.9088    0.8727 C   0  0  0  0  0  0  0  0  0  0  0  0
    6.9177   -1.2550   -0.3937 N   0  0  0  0  0  0  0  0  0  0  0  0
    5.8737   -1.7638   -1.0651 N   0  0  0  0  0  0  0  0  0  0  0  0
    2.1932   -0.1871    1.1364 C   0  0  0  0  0  0  0  0  0  0  0  0
    2.8877   -0.6070    2.2375 O   0  0  0  0  0  0  0  0  0  0  0  0
    1.3438    0.9012    1.3361 C   0  0  0  0  0  0  0  0  0  0  0  0
    0.5859    1.4239    0.2787 C   0  0  0  0  0  0  0  0  0  0  0  0
   -0.3044    2.6065    0.5351 C   0  0  0  0  0  0  0  0  0  0  0  0
   -1.9866   -1.3668   -0.7708 C   0  0  0  0  0  0  0  0  0  0  0  0
   -2.8110   -1.7624    0.2839 C   0  0  0  0  0  0  0  0  0  0  0  0
   -5.5480    0.2210    2.4351 H   0  0  0  0  0  0  0  0  0  0  0  0
   -6.5409   -0.7450    1.2747 H   0  0  0  0  0  0  0  0  0  0  0  0
   -6.2647   -1.3195    2.9237 H   0  0  0  0  0  0  0  0  0  0  0  0
   -5.0828    0.7802    0.1758 H   0  0  0  0  0  0  0  0  0  0  0  0
   -3.6426    1.4792   -1.6719 H   0  0  0  0  0  0  0  0  0  0  0  0
   -0.3582    2.2894   -2.0807 H   0  0  0  0  0  0  0  0  0  0  0  0
    1.6250   -0.7227   -2.1646 H   0  0  0  0  0  0  0  0  0  0  0  0
    7.2547   -0.4828    1.5875 H   0  0  0  0  0  0  0  0  0  0  0  0
    7.8186   -1.1814   -0.8538 H   0  0  0  0  0  0  0  0  0  0  0  0
    3.7076   -1.0467    1.9267 H   0  0  0  0  0  0  0  0  0  0  0  0
    1.2837    1.3396    2.3303 H   0  0  0  0  0  0  0  0  0  0  0  0
   -0.2832    2.9067    1.5882 H   0  0  0  0  0  0  0  0  0  0  0  0
   -1.3423    2.3686    0.2855 H   0  0  0  0  0  0  0  0  0  0  0  0
    0.0260    3.4643   -0.0592 H   0  0  0  0  0  0  0  0  0  0  0  0
   -1.1307   -1.9802   -1.0431 H   0  0  0  0  0  0  0  0  0  0  0  0
   -2.5855   -2.6769    0.8284 H   0  0  0  0  0  0  0  0  0  0  0  0
  1  2  1  0
  2  3  1  0
  3  4  2  0
  4  5  1  0
  5  6  2  0
  6  7  1  0
  7  8  2  0
  7  9  2  0
  7 10  1  0
 10 11  1  0
 11 12  2  0
 12 13  1  0
 13 14  1  0
 14 15  1  0
 15 16  1  0
 16 17  2  0
 17 18  1  0
 18 19  1  0
 13 20  2  0
 20 21  1  0
 20 22  1  0
 22 23  2  0
 23 24  1  0
  6 25  1  0
 25 26  2  0
 26  3  1  0
 23 11  1  0
 19 15  2  0
  1 27  1  0
  1 28  1  0
  1 29  1  0
  4 30  1  0
  5 31  1  0
 10 32  1  0
 12 33  1  0
 17 34  1  0
 18 35  1  0
 21 36  1  0
 22 37  1  0
 24 38  1  0
 24 39  1  0
 24 40  1  0
 25 41  1  0
 26 42  1  0
M  END
$$$$
