
     RDKit          3D

 42 44  0  0  0  0  0  0  0  0999 V2000
   -3.3581    0.6113   -2.4417 C   0  0  0  0  0  0  0  0  0  0  0  0
   -3.7161    0.3158   -1.0080 C   0  0  0  0  0  0  0  0  0  0  0  0
   -5.0605    0.4888   -0.6238 C   0  0  0  0  0  0  0  0  0  0  0  0
   -5.4774    0.1938    0.6707 C   0  0  0  0  0  0  0  0  0  0  0  0
   -4.5505   -0.2740    1.5897 C   0  0  0  0  0  0  0  0  0  0  0  0
   -5.0493   -0.6455    3.1949 Cl  0  0  0  0  0  0  0  0  0  0  0  0
   -3.2107   -0.4355    1.2295 C   0  0  0  0  0  0  0  0  0  0  0  0
   -2.7567   -0.1289   -0.0656 C   0  0  0  0  0  0  0  0  0  0  0  0
   -1.4067   -0.2565   -0.4150 N   0  0  0  0  0  0  0  0  0  0  0  0
   -0.5892   -1.2908    0.2389 C   0  0  0  0  0  0  0  0  0  0  0  0
    0.8017   -1.3741   -0.4291 C   0  0  0  0  0  0  0  0  0  0  0  0
    1.5310   -0.0683   -0.4317 N   0  0  0  0  0  0  0  0  0  0  0  0
    2.7345   -0.0955    0.2764 C   0  0  0  0  0  0  0  0  0  0  0  0
    2.7935   -0.2651    1.6698 C   0  0  0  0  0  0  0  0  0  0  0  0
    4.0173   -0.2893    2.3278 C   0  0  0  0  0  0  0  0  0  0  0  0
    5.1809   -0.1466    1.5914 C   0  0  0  0  0  0  0  0  0  0  0  0
    5.0962    0.0154    0.2156 C   0  0  0  0  0  0  0  0  0  0  0  0
    3.8992    0.0372   -0.4124 N   0  0  0  0  0  4  0  0  0  0  0  0
    3.8546    0.2053   -1.8762 C   0  0  0  0  0  0  0  0  0  0  0  0
    0.6737    1.1018   -0.0864 C   0  0  0  0  0  0  0  0  0  0  0  0
   -0.7151    1.0063   -0.7593 C   0  0  0  0  0  0  0  0  0  0  0  0
   -2.9514    1.6232   -2.5288 H   0  0  0  0  0  0  0  0  0  0  0  0
   -4.2379    0.5403   -3.0908 H   0  0  0  0  0  0  0  0  0  0  0  0
   -2.6313   -0.1125   -2.8240 H   0  0  0  0  0  0  0  0  0  0  0  0
   -5.7963    0.8424   -1.3442 H   0  0  0  0  0  0  0  0  0  0  0  0
   -6.5196    0.3243    0.9489 H   0  0  0  0  0  0  0  0  0  0  0  0
   -2.5225   -0.7817    1.9929 H   0  0  0  0  0  0  0  0  0  0  0  0
   -0.4546   -1.0662    1.3037 H   0  0  0  0  0  0  0  0  0  0  0  0
   -1.0807   -2.2673    0.1530 H   0  0  0  0  0  0  0  0  0  0  0  0
    1.3891   -2.1702    0.0458 H   0  0  0  0  0  0  0  0  0  0  0  0
    0.6727   -1.6663   -1.4789 H   0  0  0  0  0  0  0  0  0  0  0  0
    1.8815   -0.3806    2.2508 H   0  0  0  0  0  0  0  0  0  0  0  0
    4.0597   -0.4195    3.4081 H   0  0  0  0  0  0  0  0  0  0  0  0
    6.1502   -0.1627    2.0854 H   0  0  0  0  0  0  0  0  0  0  0  0
    5.9890    0.1279   -0.3931 H   0  0  0  0  0  0  0  0  0  0  0  0
    3.2926    1.1159   -2.1007 H   0  0  0  0  0  0  0  0  0  0  0  0
    3.3796   -0.6793   -2.3090 H   0  0  0  0  0  0  0  0  0  0  0  0
    4.8686    0.3007   -2.2727 H   0  0  0  0  0  0  0  0  0  0  0  0
    1.1697    2.0202   -0.4232 H   0  0  0  0  0  0  0  0  0  0  0  0
    0.5318    1.1801    0.9993 H   0  0  0  0  0  0  0  0  0  0  0  0
   -0.5811    1.0398   -1.8469 H   0  0  0  0  0  0  0  0  0  0  0  0
   -1.3015    1.8858   -0.4650 H   0  0  0  0  0  0  0  0  0  0  0  0
  1  2  1  0
  2  3  2  0
  3  4  1  0
  4  5  2  0
  5  6  1  0
  5  7  1  0
  7  8  2  0
  8  9  1  0
  9 10  1  0
 10 11  1  0
 11 12  1  0
 12 13  1  0
 13 14  2  0
 14 15  1  0
 15 16  2  0
 16 17  1  0
 17 18  2  0
 18 19  1  0
 12 20  1  0
 20 21  1  0
  8  2  1  0
 21  9  1  0
 18 13  1  0
  1 22  1  0
  1 23  1  0
  1 24  1  0
  3 25  1  0
  4 26  1  0
  7 27  1  0
 10 28  1  0
 10 29  1  0
 11 30  1  0
 11 31  1  0
 14 32  1  0
 15 33  1  0
 16 34  1  0
 17 35  1  0
 19 36  1  0
 19 37  1  0
 19 38  1  0
 20 39  1  0
 20 40  1  0
 21 41  1  0
 21 42  1  0
M  CHG  1  18   1
M  END
$$$$
