
     RDKit          3D

 56 58  0  0  0  0  0  0  0  0999 V2000
    6.0484   -0.2842    0.4770 C   0  0  0  0  0  0  0  0  0  0  0  0
    5.6128    1.0099    0.0709 O   0  0  0  0  0  0  0  0  0  0  0  0
    4.3641    1.0944   -0.4836 C   0  0  0  0  0  0  0  0  0  0  0  0
    3.9718    2.3863   -0.8347 C   0  0  0  0  0  0  0  0  0  0  0  0
    2.7202    2.6232   -1.4075 C   0  0  0  0  0  0  0  0  0  0  0  0
    1.8488    1.5583   -1.6454 C   0  0  0  0  0  0  0  0  0  0  0  0
    0.5944    1.6810   -2.2026 O   0  0  0  0  0  0  0  0  0  0  0  0
    0.2683    2.9539   -2.7524 C   0  0  0  0  0  0  0  0  0  0  0  0
    2.2379    0.2483   -1.2917 C   0  0  0  0  0  0  0  0  0  0  0  0
    1.3070   -0.7833   -1.5450 N   0  0  0  0  0  0  0  0  0  0  0  0
    1.4254   -2.1378   -1.2996 C   0  0  0  0  0  0  0  0  0  0  0  0
    2.4404   -2.7063   -0.9009 O   0  0  0  0  0  0  0  0  0  0  0  0
    0.1904   -2.9508   -1.6741 C   0  0  0  0  0  0  0  0  0  0  0  0
   -1.3819   -2.0829   -1.3802 S   0  0  0  0  0  0  0  0  0  0  0  0
   -1.3311   -1.8648    0.3636 C   0  0  0  0  0  0  0  0  0  0  0  0
   -0.4344   -2.5172    1.0229 N   0  0  0  0  0  0  0  0  0  0  0  0
   -0.3479   -2.3356    2.4043 C   0  0  0  0  0  0  0  0  0  0  0  0
    0.6052   -3.0601    3.1235 C   0  0  0  0  0  0  0  0  0  0  0  0
    0.7273   -2.8965    4.5061 C   0  0  0  0  0  0  0  0  0  0  0  0
   -0.1026   -2.0002    5.1799 C   0  0  0  0  0  0  0  0  0  0  0  0
   -1.0531   -1.2675    4.4703 C   0  0  0  0  0  0  0  0  0  0  0  0
   -1.1674   -1.4429    3.0862 C   0  0  0  0  0  0  0  0  0  0  0  0
   -2.1533   -0.6874    2.2976 C   0  0  0  0  0  0  0  0  0  0  0  0
   -2.8221    0.1822    2.8499 O   0  0  0  0  0  0  0  0  0  0  0  0
   -2.2441   -0.9966    0.9412 N   0  0  0  0  0  0  0  0  0  0  0  0
   -3.2787   -0.2729    0.1875 C   0  0  0  0  0  0  0  0  0  0  0  0
   -2.7815    1.0987   -0.2968 C   0  0  0  0  0  0  0  0  0  0  0  0
   -3.4391    1.5663   -1.5060 N   0  0  0  0  0  0  0  0  0  0  0  0
   -4.7949    1.7938   -1.5506 C   0  0  0  0  0  0  0  0  0  0  0  0
   -5.2841    2.3893   -2.8429 C   0  0  0  0  0  0  0  0  0  0  0  0
   -5.5569    1.5258   -0.6291 O   0  0  0  0  0  0  0  0  0  0  0  0
    3.4924    0.0273   -0.7105 C   0  0  0  0  0  0  0  0  0  0  0  0
    7.0510   -0.1790    0.9035 H   0  0  0  0  0  0  0  0  0  0  0  0
    5.3954   -0.6948    1.2551 H   0  0  0  0  0  0  0  0  0  0  0  0
    6.1222   -0.9624   -0.3804 H   0  0  0  0  0  0  0  0  0  0  0  0
    4.6486    3.2189   -0.6529 H   0  0  0  0  0  0  0  0  0  0  0  0
    2.4619    3.6487   -1.6475 H   0  0  0  0  0  0  0  0  0  0  0  0
    0.1646    3.7035   -1.9612 H   0  0  0  0  0  0  0  0  0  0  0  0
    1.0018    3.2629   -3.5051 H   0  0  0  0  0  0  0  0  0  0  0  0
   -0.7014    2.8622   -3.2518 H   0  0  0  0  0  0  0  0  0  0  0  0
    0.4271   -0.4601   -1.9369 H   0  0  0  0  0  0  0  0  0  0  0  0
    0.1959   -3.8959   -1.1224 H   0  0  0  0  0  0  0  0  0  0  0  0
    0.2586   -3.1852   -2.7410 H   0  0  0  0  0  0  0  0  0  0  0  0
    1.2597   -3.7522    2.5991 H   0  0  0  0  0  0  0  0  0  0  0  0
    1.4728   -3.4674    5.0548 H   0  0  0  0  0  0  0  0  0  0  0  0
   -0.0076   -1.8708    6.2556 H   0  0  0  0  0  0  0  0  0  0  0  0
   -1.7003   -0.5658    4.9920 H   0  0  0  0  0  0  0  0  0  0  0  0
   -3.6262   -0.8831   -0.6512 H   0  0  0  0  0  0  0  0  0  0  0  0
   -4.1555   -0.1362    0.8312 H   0  0  0  0  0  0  0  0  0  0  0  0
   -1.7112    1.0664   -0.5237 H   0  0  0  0  0  0  0  0  0  0  0  0
   -2.9292    1.8537    0.4826 H   0  0  0  0  0  0  0  0  0  0  0  0
   -2.8589    1.9529   -2.2386 H   0  0  0  0  0  0  0  0  0  0  0  0
   -6.0445    1.7314   -3.2720 H   0  0  0  0  0  0  0  0  0  0  0  0
   -4.4769    2.5042   -3.5710 H   0  0  0  0  0  0  0  0  0  0  0  0
   -5.7168    3.3728   -2.6421 H   0  0  0  0  0  0  0  0  0  0  0  0
    3.7870   -0.9764   -0.4331 H   0  0  0  0  0  0  0  0  0  0  0  0
  1  2  1  0
  2  3  1  0
  3  4  2  0
  4  5  1  0
  5  6  2  0
  6  7  1  0
  7  8  1  0
  6  9  1  0
  9 10  1  0
 10 11  1  0
 11 12  2  0
 11 13  1  0
 13 14  1  0
 14 15  1  0
 15 16  2  0
 16 17  1  0
 17 18  2  0
 18 19  1  0
 19 20  2  0
 20 21  1  0
 21 22  2  0
 22 23  1  0
 23 24  2  0
 23 25  1  0
 25 26  1  0
 26 27  1  0
 27 28  1  0
 28 29  1  0
 29 30  1  0
 29 31  2  0
  9 32  2  0
 32  3  1  0
 25 15  1  0
 22 17  1  0
  1 33  1  0
  1 34  1  0
  1 35  1  0
  4 36  1  0
  5 37  1  0
  8 38  1  0
  8 39  1  0
  8 40  1  0
 10 41  1  0
 13 42  1  0
 13 43  1  0
 18 44  1  0
 19 45  1  0
 20 46  1  0
 21 47  1  0
 26 48  1  0
 26 49  1  0
 27 50  1  0
 27 51  1  0
 28 52  1  0
 30 53  1  0
 30 54  1  0
 30 55  1  0
 32 56  1  0
M  END
$$$$
