
     RDKit          3D

 57 60  0  0  0  0  0  0  0  0999 V2000
   -8.0990    2.2220    2.4655 C   0  0  0  0  0  0  0  0  0  0  0  0
   -7.5851    0.8035    2.6573 C   0  0  0  0  0  0  0  0  0  0  0  0
   -6.3893    0.5177    1.7862 C   0  0  0  0  0  0  0  0  0  0  0  0
   -5.0941    0.7663    2.2490 C   0  0  0  0  0  0  0  0  0  0  0  0
   -3.9845    0.5146    1.4321 C   0  0  0  0  0  0  0  0  0  0  0  0
   -4.1317    0.0076    0.1283 C   0  0  0  0  0  0  0  0  0  0  0  0
   -2.9740   -0.2745   -0.7485 C   0  0  0  0  0  0  0  0  0  0  0  0
   -1.7283   -0.6371   -0.2659 C   0  0  0  0  0  0  0  0  0  0  0  0
   -0.7096   -0.8900   -1.1856 C   0  0  0  0  0  0  0  0  0  0  0  0
    0.6178   -1.2472   -0.6442 C   0  0  0  0  0  0  0  0  0  0  0  0
    1.0106   -2.3966   -0.7748 O   0  0  0  0  0  0  0  0  0  0  0  0
    1.2634   -0.1833   -0.0455 N   0  0  0  0  0  0  0  0  0  0  0  0
    2.5292   -0.1940    0.5745 C   0  0  0  0  0  0  0  0  0  0  0  0
    3.0204    1.0321    1.0455 C   0  0  0  0  0  0  0  0  0  0  0  0
    4.2697    1.1106    1.6682 C   0  0  0  0  0  0  0  0  0  0  0  0
    5.0379   -0.0455    1.8187 C   0  0  0  0  0  0  0  0  0  0  0  0
    6.6047    0.0406    2.6470 S   0  0  0  0  0  6  0  0  0  0  0  0
    6.5994    1.2450    3.4535 O   0  0  0  0  0  0  0  0  0  0  0  0
    6.9080   -1.2414    3.2386 O   0  0  0  0  0  0  0  0  0  0  0  0
    7.6754    0.3567    1.4179 N   0  0  0  0  0  0  0  0  0  0  0  0
    8.0082   -0.5258    0.3848 C   0  0  0  0  0  0  0  0  0  0  0  0
    9.0826   -0.0127   -0.5321 C   0  0  0  0  0  0  0  0  0  0  0  0
    7.4656   -1.6068    0.2183 O   0  0  0  0  0  0  0  0  0  0  0  0
    4.5502   -1.2756    1.3774 C   0  0  0  0  0  0  0  0  0  0  0  0
    3.3017   -1.3450    0.7488 C   0  0  0  0  0  0  0  0  0  0  0  0
   -0.9288   -0.8030   -2.5728 C   0  0  0  0  0  0  0  0  0  0  0  0
    0.0507   -1.0585   -3.5646 C   0  0  0  0  0  0  0  0  0  0  0  0
   -0.2539   -0.9352   -4.9182 C   0  0  0  0  0  0  0  0  0  0  0  0
   -1.5337   -0.5560   -5.2974 C   0  0  0  0  0  0  0  0  0  0  0  0
   -2.5003   -0.3066   -4.3199 C   0  0  0  0  0  0  0  0  0  0  0  0
   -2.2231   -0.4242   -2.9642 C   0  0  0  0  0  0  0  0  0  0  0  0
   -3.2045   -0.1651   -2.0817 N   0  0  0  0  0  0  0  0  0  0  0  0
   -5.4442   -0.2211   -0.3237 C   0  0  0  0  0  0  0  0  0  0  0  0
   -6.5561    0.0283    0.4884 C   0  0  0  0  0  0  0  0  0  0  0  0
   -8.4059    2.3966    1.4287 H   0  0  0  0  0  0  0  0  0  0  0  0
   -7.3300    2.9605    2.7169 H   0  0  0  0  0  0  0  0  0  0  0  0
   -8.9652    2.4011    3.1104 H   0  0  0  0  0  0  0  0  0  0  0  0
   -7.3216    0.6445    3.7099 H   0  0  0  0  0  0  0  0  0  0  0  0
   -8.3840    0.0861    2.4335 H   0  0  0  0  0  0  0  0  0  0  0  0
   -4.9375    1.1628    3.2501 H   0  0  0  0  0  0  0  0  0  0  0  0
   -3.0001    0.7406    1.8341 H   0  0  0  0  0  0  0  0  0  0  0  0
   -1.5450   -0.7577    0.7964 H   0  0  0  0  0  0  0  0  0  0  0  0
    0.8009    0.7168   -0.0972 H   0  0  0  0  0  0  0  0  0  0  0  0
    2.4372    1.9436    0.9370 H   0  0  0  0  0  0  0  0  0  0  0  0
    4.6266    2.0696    2.0366 H   0  0  0  0  0  0  0  0  0  0  0  0
    8.1272    1.2603    1.5082 H   0  0  0  0  0  0  0  0  0  0  0  0
    9.9878    0.2028    0.0416 H   0  0  0  0  0  0  0  0  0  0  0  0
    9.3148   -0.7680   -1.2882 H   0  0  0  0  0  0  0  0  0  0  0  0
    8.7366    0.8962   -1.0316 H   0  0  0  0  0  0  0  0  0  0  0  0
    5.1354   -2.1852    1.5066 H   0  0  0  0  0  0  0  0  0  0  0  0
    2.9597   -2.3196    0.4122 H   0  0  0  0  0  0  0  0  0  0  0  0
    1.0562   -1.3702   -3.2852 H   0  0  0  0  0  0  0  0  0  0  0  0
    0.5040   -1.1410   -5.6699 H   0  0  0  0  0  0  0  0  0  0  0  0
   -1.7878   -0.4580   -6.3496 H   0  0  0  0  0  0  0  0  0  0  0  0
   -3.5022   -0.0128   -4.6258 H   0  0  0  0  0  0  0  0  0  0  0  0
   -5.6105   -0.6055   -1.3295 H   0  0  0  0  0  0  0  0  0  0  0  0
   -7.5517   -0.1634    0.0949 H   0  0  0  0  0  0  0  0  0  0  0  0
  1  2  1  0
  2  3  1  0
  3  4  2  0
  4  5  1  0
  5  6  2  0
  6  7  1  0
  7  8  2  0
  8  9  1  0
  9 10  1  0
 10 11  2  0
 10 12  1  0
 12 13  1  0
 13 14  2  0
 14 15  1  0
 15 16  2  0
 16 17  1  0
 17 18  2  0
 17 19  2  0
 17 20  1  0
 20 21  1  0
 21 22  1  0
 21 23  2  0
 16 24  1  0
 24 25  2  0
  9 26  2  0
 26 27  1  0
 27 28  2  0
 28 29  1  0
 29 30  2  0
 30 31  1  0
 31 32  2  0
  6 33  1  0
 33 34  2  0
 34  3  1  0
 32  7  1  0
 25 13  1  0
 31 26  1  0
  1 35  1  0
  1 36  1  0
  1 37  1  0
  2 38  1  0
  2 39  1  0
  4 40  1  0
  5 41  1  0
  8 42  1  0
 12 43  1  0
 14 44  1  0
 15 45  1  0
 20 46  1  0
 22 47  1  0
 22 48  1  0
 22 49  1  0
 24 50  1  0
 25 51  1  0
 27 52  1  0
 28 53  1  0
 29 54  1  0
 30 55  1  0
 33 56  1  0
 34 57  1  0
M  END
$$$$
