
     RDKit          3D

 57 61  0  0  0  0  0  0  0  0999 V2000
    6.4565    0.7367    0.1084 C   0  0  0  0  0  0  0  0  0  0  0  0
    5.0437    0.4791    0.6418 C   0  0  0  0  0  0  0  0  0  0  0  0
    4.7961    1.3547    1.8686 C   0  0  0  0  0  0  0  0  0  0  0  0
    3.9973    0.7574   -0.4436 C   0  0  0  0  0  0  0  0  0  0  0  0
    4.3083    1.3547   -1.4776 O   0  0  0  0  0  0  0  0  0  0  0  0
    2.6855    0.3476   -0.2258 N   0  0  0  0  0  0  0  0  0  0  0  0
    1.6889    0.7213   -1.2263 C   0  0  0  0  0  0  0  0  0  0  0  0
    0.2730    0.6405   -0.6654 C   0  0  0  0  0  0  0  0  0  0  0  0
   -0.0883   -0.8071   -0.2318 C   0  0  0  0  0  0  0  0  0  0  0  0
    1.1789   -1.5079    0.3519 C   0  0  0  0  0  0  0  0  0  0  0  0
    2.2258   -0.5198    0.8585 C   0  0  0  0  0  0  0  0  0  0  0  0
   -0.4566   -1.4702   -1.4715 O   0  0  0  0  0  0  0  0  0  0  0  0
   -1.0447   -2.6965   -1.3487 C   0  0  0  0  0  0  0  0  0  0  0  0
   -1.0339   -3.5000   -2.4900 C   0  0  0  0  0  0  0  0  0  0  0  0
   -1.5989   -4.7755   -2.4488 C   0  0  0  0  0  0  0  0  0  0  0  0
   -2.1753   -5.2349   -1.2687 C   0  0  0  0  0  0  0  0  0  0  0  0
   -2.7155   -6.4593   -1.2341 F   0  0  0  0  0  0  0  0  0  0  0  0
   -2.2069   -4.4405   -0.1299 C   0  0  0  0  0  0  0  0  0  0  0  0
   -1.6455   -3.1618   -0.1800 C   0  0  0  0  0  0  0  0  0  0  0  0
   -1.7038   -2.2746    0.9954 C   0  0  0  0  0  0  0  0  0  0  0  0
   -2.1124   -2.7148    2.0651 O   0  0  0  0  0  0  0  0  0  0  0  0
   -1.2887   -0.8258    0.7568 C   0  0  0  0  0  0  0  0  0  0  0  0
   -2.5297   -0.0587    0.3166 C   0  0  0  0  0  0  0  0  0  0  0  0
   -2.4262    1.1160    1.2253 C   0  0  0  0  0  0  0  0  0  0  0  0
   -3.2971    2.3056    1.0742 C   0  0  0  0  0  0  0  0  0  0  0  0
   -3.0821    3.4132    1.9061 C   0  0  0  0  0  0  0  0  0  0  0  0
   -3.8833    4.5520    1.7865 C   0  0  0  0  0  0  0  0  0  0  0  0
   -4.9014    4.5841    0.8368 C   0  0  0  0  0  0  0  0  0  0  0  0
   -5.8891    5.9838    0.6868 Cl  0  0  0  0  0  0  0  0  0  0  0  0
   -5.1258    3.4864    0.0069 C   0  0  0  0  0  0  0  0  0  0  0  0
   -4.3250    2.3451    0.1243 C   0  0  0  0  0  0  0  0  0  0  0  0
   -1.5241    1.0148    2.1473 N   0  0  0  0  0  0  0  0  0  0  0  0
   -0.9044   -0.2465    2.0093 O   0  0  0  0  0  0  0  0  0  0  0  0
    7.2090    0.4837    0.8628 H   0  0  0  0  0  0  0  0  0  0  0  0
    6.6537    0.1273   -0.7804 H   0  0  0  0  0  0  0  0  0  0  0  0
    6.5963    1.7871   -0.1705 H   0  0  0  0  0  0  0  0  0  0  0  0
    5.0028   -0.5790    0.9165 H   0  0  0  0  0  0  0  0  0  0  0  0
    3.8270    1.1493    2.3305 H   0  0  0  0  0  0  0  0  0  0  0  0
    5.5655    1.1858    2.6295 H   0  0  0  0  0  0  0  0  0  0  0  0
    4.8090    2.4175    1.6018 H   0  0  0  0  0  0  0  0  0  0  0  0
    1.8108    0.0515   -2.0859 H   0  0  0  0  0  0  0  0  0  0  0  0
    1.8893    1.7414   -1.5740 H   0  0  0  0  0  0  0  0  0  0  0  0
   -0.4231    0.9964   -1.4343 H   0  0  0  0  0  0  0  0  0  0  0  0
    0.2118    1.3343    0.1797 H   0  0  0  0  0  0  0  0  0  0  0  0
    0.9163   -2.1866    1.1711 H   0  0  0  0  0  0  0  0  0  0  0  0
    1.6426   -2.1372   -0.4203 H   0  0  0  0  0  0  0  0  0  0  0  0
    3.0567   -1.0759    1.2952 H   0  0  0  0  0  0  0  0  0  0  0  0
    1.8080    0.1206    1.6428 H   0  0  0  0  0  0  0  0  0  0  0  0
   -0.5750   -3.1399   -3.4080 H   0  0  0  0  0  0  0  0  0  0  0  0
   -1.5904   -5.4149   -3.3267 H   0  0  0  0  0  0  0  0  0  0  0  0
   -2.6726   -4.8184    0.7761 H   0  0  0  0  0  0  0  0  0  0  0  0
   -3.4647   -0.5878    0.5318 H   0  0  0  0  0  0  0  0  0  0  0  0
   -2.5164    0.2277   -0.7374 H   0  0  0  0  0  0  0  0  0  0  0  0
   -2.2909    3.3979    2.6540 H   0  0  0  0  0  0  0  0  0  0  0  0
   -3.7074    5.4048    2.4374 H   0  0  0  0  0  0  0  0  0  0  0  0
   -5.9240    3.5124   -0.7311 H   0  0  0  0  0  0  0  0  0  0  0  0
   -4.5297    1.5033   -0.5306 H   0  0  0  0  0  0  0  0  0  0  0  0
  1  2  1  0
  2  3  1  0
  2  4  1  0
  4  5  2  0
  4  6  1  0
  6  7  1  0
  7  8  1  0
  8  9  1  0
  9 10  1  0
 10 11  1  0
  9 12  1  0
 12 13  1  0
 13 14  2  0
 14 15  1  0
 15 16  2  0
 16 17  1  0
 16 18  1  0
 18 19  2  0
 19 20  1  0
 20 21  2  0
 20 22  1  0
 22 23  1  0
 23 24  1  0
 24 25  1  0
 25 26  2  0
 26 27  1  0
 27 28  2  0
 28 29  1  0
 28 30  1  0
 30 31  2  0
 24 32  2  0
 32 33  1  0
 11  6  1  0
 19 13  1  0
 33 22  1  0
 22  9  1  0
 31 25  1  0
  1 34  1  0
  1 35  1  0
  1 36  1  0
  2 37  1  0
  3 38  1  0
  3 39  1  0
  3 40  1  0
  7 41  1  0
  7 42  1  0
  8 43  1  0
  8 44  1  0
 10 45  1  0
 10 46  1  0
 11 47  1  0
 11 48  1  0
 14 49  1  0
 15 50  1  0
 18 51  1  0
 23 52  1  0
 23 53  1  0
 26 54  1  0
 27 55  1  0
 30 56  1  0
 31 57  1  0
M  END
$$$$
