
     RDKit          3D

 47 50  0  0  0  0  0  0  0  0999 V2000
   -5.2876    4.2668    2.5418 N   0  0  0  0  0  0  0  0  0  0  0  0
   -5.3541    3.0958    1.8812 C   0  0  0  0  0  0  0  0  0  0  0  0
   -6.4731    2.5786    1.3761 N   0  0  0  0  0  0  0  0  0  0  0  0
   -6.0983    1.3724    0.7955 O   0  0  0  0  0  0  0  0  0  0  0  0
   -4.7301    1.1448    0.9394 N   0  0  0  0  0  0  0  0  0  0  0  0
   -4.2921    2.2126    1.6073 C   0  0  0  0  0  0  0  0  0  0  0  0
   -2.9195    2.3692    1.9247 N   0  0  0  0  0  0  0  0  0  0  0  0
   -2.4568    3.5099    2.5080 N   0  0  0  0  0  0  0  0  0  0  0  0
   -1.1399    3.4495    2.5990 N   0  0  0  0  0  0  0  0  0  0  0  0
   -0.7251    2.2543    2.0818 C   0  0  0  0  0  0  0  0  0  0  0  0
    0.6914    1.8915    2.0078 C   0  0  0  0  0  0  0  0  0  0  0  0
    1.5033    2.2900    2.8375 O   0  0  0  0  0  0  0  0  0  0  0  0
    1.0053    1.0829    0.9201 N   0  0  0  0  0  0  0  0  0  0  0  0
    2.2721    0.6059    0.7514 N   0  0  0  0  0  0  0  0  0  0  0  0
    2.4512   -0.1306   -0.2986 C   0  0  0  0  0  0  0  0  0  0  0  0
    3.7639   -0.7245   -0.6168 C   0  0  0  0  0  0  0  0  0  0  0  0
    4.8774   -0.4779    0.1941 C   0  0  0  0  0  0  0  0  0  0  0  0
    6.1108   -1.0500   -0.1246 C   0  0  0  0  0  0  0  0  0  0  0  0
    6.2163   -1.8627   -1.2500 C   0  0  0  0  0  0  0  0  0  0  0  0
    7.4001   -2.4415   -1.5985 O   0  0  0  0  0  0  0  0  0  0  0  0
    5.1125   -2.1126   -2.0601 C   0  0  0  0  0  0  0  0  0  0  0  0
    3.8781   -1.5421   -1.7452 C   0  0  0  0  0  0  0  0  0  0  0  0
   -1.8424    1.5117    1.7164 C   0  0  0  0  0  0  0  0  0  0  0  0
   -1.9331    0.1143    1.2293 C   0  0  0  0  0  0  0  0  0  0  0  0
   -1.5888    0.1833   -0.1526 O   0  0  0  0  0  0  0  0  0  0  0  0
   -1.5482   -0.9926   -0.8493 C   0  0  0  0  0  0  0  0  0  0  0  0
   -1.3199   -0.8436   -2.2227 C   0  0  0  0  0  0  0  0  0  0  0  0
   -1.2299   -1.9623   -3.0516 C   0  0  0  0  0  0  0  0  0  0  0  0
   -1.3679   -3.2292   -2.5015 C   0  0  0  0  0  0  0  0  0  0  0  0
   -1.2788   -4.3062   -3.2918 F   0  0  0  0  0  0  0  0  0  0  0  0
   -1.5956   -3.3941   -1.1405 C   0  0  0  0  0  0  0  0  0  0  0  0
   -1.6868   -2.2733   -0.3092 C   0  0  0  0  0  0  0  0  0  0  0  0
   -4.3920    4.7143    2.7355 H   0  0  0  0  0  0  0  0  0  0  0  0
   -6.0741    4.9064    2.4966 H   0  0  0  0  0  0  0  0  0  0  0  0
    0.3042    0.8832    0.2122 H   0  0  0  0  0  0  0  0  0  0  0  0
    1.6277   -0.3511   -1.0012 H   0  0  0  0  0  0  0  0  0  0  0  0
    4.7897    0.1588    1.0727 H   0  0  0  0  0  0  0  0  0  0  0  0
    6.9673   -0.8505    0.5118 H   0  0  0  0  0  0  0  0  0  0  0  0
    8.0768   -2.1798   -0.9521 H   0  0  0  0  0  0  0  0  0  0  0  0
    5.2159   -2.7507   -2.9337 H   0  0  0  0  0  0  0  0  0  0  0  0
    3.0217   -1.7443   -2.3825 H   0  0  0  0  0  0  0  0  0  0  0  0
   -2.9129   -0.3432    1.3797 H   0  0  0  0  0  0  0  0  0  0  0  0
   -1.1966   -0.4931    1.7711 H   0  0  0  0  0  0  0  0  0  0  0  0
   -1.2191    0.1504   -2.6528 H   0  0  0  0  0  0  0  0  0  0  0  0
   -1.0589   -1.8531   -4.1179 H   0  0  0  0  0  0  0  0  0  0  0  0
   -1.7013   -4.3957   -0.7340 H   0  0  0  0  0  0  0  0  0  0  0  0
   -1.8629   -2.4419    0.7483 H   0  0  0  0  0  0  0  0  0  0  0  0
  1  2  1  0
  2  3  2  0
  3  4  1  0
  4  5  1  0
  5  6  2  0
  6  7  1  0
  7  8  1  0
  8  9  2  0
  9 10  1  0
 10 11  1  0
 11 12  2  0
 11 13  1  0
 13 14  1  0
 14 15  2  3
 15 16  1  0
 16 17  2  0
 17 18  1  0
 18 19  2  0
 19 20  1  0
 19 21  1  0
 21 22  2  0
 10 23  2  0
 23 24  1  0
 24 25  1  0
 25 26  1  0
 26 27  2  0
 27 28  1  0
 28 29  2  0
 29 30  1  0
 29 31  1  0
 31 32  2  0
  6  2  1  0
 23  7  1  0
 32 26  1  0
 22 16  1  0
  1 33  1  0
  1 34  1  0
 13 35  1  0
 15 36  1  0
 17 37  1  0
 18 38  1  0
 20 39  1  0
 21 40  1  0
 22 41  1  0
 24 42  1  0
 24 43  1  0
 27 44  1  0
 28 45  1  0
 31 46  1  0
 32 47  1  0
M  END
$$$$
