
     RDKit          3D

 61 66  0  0  0  0  0  0  0  0999 V2000
    5.8058    0.8169    3.6002 F   0  0  0  0  0  0  0  0  0  0  0  0
    6.8279    1.0921    2.7417 C   0  0  0  0  0  0  0  0  0  0  0  0
    7.2973    2.3182    3.1069 F   0  0  0  0  0  0  0  0  0  0  0  0
    7.8177    0.2070    3.0447 F   0  0  0  0  0  0  0  0  0  0  0  0
    6.4131    1.0154    1.2930 C   0  0  0  0  0  0  0  0  0  0  0  0
    6.9305    1.9151    0.3495 C   0  0  0  0  0  0  0  0  0  0  0  0
    6.5555    1.8276   -0.9910 C   0  0  0  0  0  0  0  0  0  0  0  0
    5.6658    0.8366   -1.4039 C   0  0  0  0  0  0  0  0  0  0  0  0
    5.1413   -0.0813   -0.4831 C   0  0  0  0  0  0  0  0  0  0  0  0
    4.1823   -1.1615   -0.9410 C   0  0  0  0  0  0  0  0  0  0  0  0
    2.9263   -0.6271   -1.4900 N   0  0  0  0  0  0  0  0  0  0  0  0
    2.1488    0.0960   -0.4558 C   0  0  0  0  0  0  0  0  0  0  0  0
    0.6383    0.1959   -0.7620 C   0  0  0  0  0  0  0  0  0  0  0  0
    0.0232   -1.1354   -0.8807 N   0  0  0  0  0  0  0  0  0  0  0  0
   -1.1692   -1.4493   -0.2358 C   0  0  0  0  0  0  0  0  0  0  0  0
   -1.2806   -2.6385    0.3052 N   0  0  0  0  0  0  0  0  0  0  0  0
   -2.4423   -3.0058    1.0100 C   0  0  0  0  0  0  0  0  0  0  0  0
   -2.4976   -4.2800    1.5785 C   0  0  0  0  0  0  0  0  0  0  0  0
   -3.6207   -4.6913    2.3011 C   0  0  0  0  0  0  0  0  0  0  0  0
   -4.7036   -3.8268    2.4629 C   0  0  0  0  0  0  0  0  0  0  0  0
   -4.6703   -2.5492    1.9025 C   0  0  0  0  0  0  0  0  0  0  0  0
   -3.5395   -2.1519    1.1822 C   0  0  0  0  0  0  0  0  0  0  0  0
   -3.4284   -0.8923    0.5712 N   0  0  0  0  0  0  0  0  0  0  0  0
   -4.3358    0.1396    0.5337 C   0  0  0  0  0  0  0  0  0  0  0  0
   -3.8208    1.1500   -0.2563 C   0  0  0  0  0  0  0  0  0  0  0  0
   -4.5282    2.3842   -0.5659 C   0  0  0  0  0  0  0  0  0  0  0  0
   -4.3859    2.9778   -1.8274 C   0  0  0  0  0  0  0  0  0  0  0  0
   -5.0586    4.1634   -2.1360 C   0  0  0  0  0  0  0  0  0  0  0  0
   -5.8772    4.7692   -1.1853 C   0  0  0  0  0  0  0  0  0  0  0  0
   -6.0233    4.1915    0.0741 C   0  0  0  0  0  0  0  0  0  0  0  0
   -5.3520    3.0051    0.3831 C   0  0  0  0  0  0  0  0  0  0  0  0
   -2.5468    0.7017   -0.7002 C   0  0  0  0  0  0  0  0  0  0  0  0
   -2.3022   -0.5396   -0.1390 C   0  0  0  0  0  0  0  0  0  0  0  0
    0.9540   -2.2208   -1.2341 C   0  0  0  0  0  0  0  0  0  0  0  0
    2.1109   -1.6971   -2.1084 C   0  0  0  0  0  0  0  0  0  0  0  0
    5.5242    0.0148    0.8634 C   0  0  0  0  0  0  0  0  0  0  0  0
    7.6283    2.6928    0.6572 H   0  0  0  0  0  0  0  0  0  0  0  0
    6.9555    2.5323   -1.7161 H   0  0  0  0  0  0  0  0  0  0  0  0
    5.3725    0.7807   -2.4509 H   0  0  0  0  0  0  0  0  0  0  0  0
    3.9806   -1.8665   -0.1236 H   0  0  0  0  0  0  0  0  0  0  0  0
    4.7117   -1.7351   -1.7137 H   0  0  0  0  0  0  0  0  0  0  0  0
    2.2557   -0.3978    0.5200 H   0  0  0  0  0  0  0  0  0  0  0  0
    2.5496    1.1110   -0.3529 H   0  0  0  0  0  0  0  0  0  0  0  0
    0.1757    0.7703    0.0486 H   0  0  0  0  0  0  0  0  0  0  0  0
    0.4838    0.7475   -1.6966 H   0  0  0  0  0  0  0  0  0  0  0  0
   -1.6545   -4.9545    1.4560 H   0  0  0  0  0  0  0  0  0  0  0  0
   -3.6478   -5.6867    2.7372 H   0  0  0  0  0  0  0  0  0  0  0  0
   -5.5758   -4.1511    3.0256 H   0  0  0  0  0  0  0  0  0  0  0  0
   -5.5263   -1.8969    2.0391 H   0  0  0  0  0  0  0  0  0  0  0  0
   -5.2879    0.0680    1.0391 H   0  0  0  0  0  0  0  0  0  0  0  0
   -3.7624    2.5158   -2.5888 H   0  0  0  0  0  0  0  0  0  0  0  0
   -4.9450    4.6106   -3.1200 H   0  0  0  0  0  0  0  0  0  0  0  0
   -6.4008    5.6909   -1.4259 H   0  0  0  0  0  0  0  0  0  0  0  0
   -6.6584    4.6645    0.8188 H   0  0  0  0  0  0  0  0  0  0  0  0
   -5.4705    2.5800    1.3764 H   0  0  0  0  0  0  0  0  0  0  0  0
   -1.8777    1.2389   -1.3578 H   0  0  0  0  0  0  0  0  0  0  0  0
    0.4168   -2.9943   -1.7959 H   0  0  0  0  0  0  0  0  0  0  0  0
    1.3577   -2.6827   -0.3246 H   0  0  0  0  0  0  0  0  0  0  0  0
    2.7338   -2.5388   -2.4353 H   0  0  0  0  0  0  0  0  0  0  0  0
    1.6807   -1.2768   -3.0274 H   0  0  0  0  0  0  0  0  0  0  0  0
    5.1253   -0.6923    1.5905 H   0  0  0  0  0  0  0  0  0  0  0  0
  1  2  1  0
  2  3  1  0
  2  4  1  0
  2  5  1  0
  5  6  2  0
  6  7  1  0
  7  8  2  0
  8  9  1  0
  9 10  1  0
 10 11  1  0
 11 12  1  0
 12 13  1  0
 13 14  1  0
 14 15  1  0
 15 16  2  0
 16 17  1  0
 17 18  2  0
 18 19  1  0
 19 20  2  0
 20 21  1  0
 21 22  2  0
 22 23  1  0
 23 24  1  0
 24 25  2  0
 25 26  1  0
 26 27  2  0
 27 28  1  0
 28 29  2  0
 29 30  1  0
 30 31  2  0
 25 32  1  0
 32 33  2  0
 14 34  1  0
 34 35  1  0
  9 36  2  0
 36  5  1  0
 35 11  1  0
 33 15  1  0
 22 17  1  0
 33 23  1  0
 31 26  1  0
  6 37  1  0
  7 38  1  0
  8 39  1  0
 10 40  1  0
 10 41  1  0
 12 42  1  0
 12 43  1  0
 13 44  1  0
 13 45  1  0
 18 46  1  0
 19 47  1  0
 20 48  1  0
 21 49  1  0
 24 50  1  0
 27 51  1  0
 28 52  1  0
 29 53  1  0
 30 54  1  0
 31 55  1  0
 32 56  1  0
 34 57  1  0
 34 58  1  0
 35 59  1  0
 35 60  1  0
 36 61  1  0
M  END
$$$$
