
     RDKit          3D

 69 74  0  0  0  0  0  0  0  0999 V2000
    6.3251   -3.4346    1.8365 C   0  0  0  0  0  0  0  0  0  0  0  0
    6.3176   -2.4593    0.8048 O   0  0  0  0  0  0  0  0  0  0  0  0
    5.1083   -1.9111    0.4534 C   0  0  0  0  0  0  0  0  0  0  0  0
    3.8792   -2.2871    1.0067 C   0  0  0  0  0  0  0  0  0  0  0  0
    2.6871   -1.6793    0.5848 C   0  0  0  0  0  0  0  0  0  0  0  0
    2.7256   -0.6591   -0.3816 C   0  0  0  0  0  0  0  0  0  0  0  0
    3.9599   -0.2923   -0.9436 C   0  0  0  0  0  0  0  0  0  0  0  0
    5.1483   -0.9092   -0.5357 C   0  0  0  0  0  0  0  0  0  0  0  0
    6.3911   -0.6062   -1.0362 O   0  0  0  0  0  0  0  0  0  0  0  0
    6.4713    0.3775   -2.0567 C   0  0  0  0  0  0  0  0  0  0  0  0
    1.4551    0.0071   -0.8818 C   0  0  0  0  0  0  0  0  0  0  0  0
    0.3336   -0.2151    0.0459 N   0  0  0  0  0  0  0  0  0  0  0  0
   -0.8435    0.3097   -0.5220 C   0  0  0  0  0  0  0  0  0  0  0  0
   -1.4450   -0.3457   -1.5419 N   0  0  0  0  0  0  0  0  0  0  0  0
   -2.5795    0.1486   -2.0806 C   0  0  0  0  0  0  0  0  0  0  0  0
   -3.2238   -0.6575   -3.2030 C   0  0  0  0  0  0  0  0  0  0  0  0
   -4.1207   -1.7755   -2.8303 N   0  0  0  0  0  0  0  0  0  0  0  0
   -3.4157   -2.8553   -2.1161 C   0  0  0  0  0  0  0  0  0  0  0  0
   -4.3810   -4.0086   -1.7949 C   0  0  0  0  0  0  0  0  0  0  0  0
   -5.4880   -3.5529   -1.0044 O   0  0  0  0  0  0  0  0  0  0  0  0
   -6.1971   -2.5156   -1.6985 C   0  0  0  0  0  0  0  0  0  0  0  0
   -5.2740   -1.3295   -2.0255 C   0  0  0  0  0  0  0  0  0  0  0  0
   -3.2040    1.2722   -1.7024 N   0  0  0  0  0  0  0  0  0  0  0  0
   -2.5856    1.9025   -0.6925 C   0  0  0  0  0  0  0  0  0  0  0  0
   -3.2340    3.3469   -0.0613 S   0  0  0  0  0  0  0  0  0  0  0  0
   -1.9924    3.4671    1.0921 C   0  0  0  0  0  0  0  0  0  0  0  0
   -1.0727    2.4388    0.9949 C   0  0  0  0  0  0  0  0  0  0  0  0
   -1.4218    1.5066   -0.0529 C   0  0  0  0  0  0  0  0  0  0  0  0
    0.0972    2.3369    1.9313 C   0  0  0  0  0  0  0  0  0  0  0  0
    0.3334    3.6412    2.7115 C   0  0  0  0  0  0  0  0  0  0  0  0
   -0.9842    4.2448    3.2406 C   0  0  0  0  0  0  0  0  0  0  0  0
   -0.7114    5.4792    4.0970 C   0  0  0  0  0  0  0  0  0  0  0  0
   -1.9312    4.5970    2.0735 C   0  0  0  0  0  0  0  0  0  0  0  0
    0.1715   -1.6379    0.3776 C   0  0  0  0  0  0  0  0  0  0  0  0
    1.3743   -2.0801    1.2171 C   0  0  0  0  0  0  0  0  0  0  0  0
    5.9425   -3.0218    2.7760 H   0  0  0  0  0  0  0  0  0  0  0  0
    5.7659   -4.3278    1.5391 H   0  0  0  0  0  0  0  0  0  0  0  0
    7.3637   -3.7344    2.0050 H   0  0  0  0  0  0  0  0  0  0  0  0
    3.8194   -3.0553    1.7707 H   0  0  0  0  0  0  0  0  0  0  0  0
    3.9660    0.4830   -1.7033 H   0  0  0  0  0  0  0  0  0  0  0  0
    5.9062    0.0748   -2.9448 H   0  0  0  0  0  0  0  0  0  0  0  0
    7.5220    0.4713   -2.3488 H   0  0  0  0  0  0  0  0  0  0  0  0
    6.1399    1.3548   -1.6895 H   0  0  0  0  0  0  0  0  0  0  0  0
    1.6378    1.0857   -0.9748 H   0  0  0  0  0  0  0  0  0  0  0  0
    1.2391   -0.3977   -1.8804 H   0  0  0  0  0  0  0  0  0  0  0  0
   -2.4227   -1.0470   -3.8446 H   0  0  0  0  0  0  0  0  0  0  0  0
   -3.7855    0.0364   -3.8419 H   0  0  0  0  0  0  0  0  0  0  0  0
   -2.9957   -2.4873   -1.1728 H   0  0  0  0  0  0  0  0  0  0  0  0
   -2.5948   -3.2416   -2.7300 H   0  0  0  0  0  0  0  0  0  0  0  0
   -4.7604   -4.4788   -2.7102 H   0  0  0  0  0  0  0  0  0  0  0  0
   -3.8588   -4.7792   -1.2187 H   0  0  0  0  0  0  0  0  0  0  0  0
   -6.6464   -2.9328   -2.6078 H   0  0  0  0  0  0  0  0  0  0  0  0
   -7.0116   -2.1817   -1.0485 H   0  0  0  0  0  0  0  0  0  0  0  0
   -4.9373   -0.8853   -1.0809 H   0  0  0  0  0  0  0  0  0  0  0  0
   -5.8478   -0.5744   -2.5743 H   0  0  0  0  0  0  0  0  0  0  0  0
    1.0109    2.0897    1.3816 H   0  0  0  0  0  0  0  0  0  0  0  0
   -0.0937    1.5217    2.6399 H   0  0  0  0  0  0  0  0  0  0  0  0
    1.0238    3.4422    3.5399 H   0  0  0  0  0  0  0  0  0  0  0  0
    0.8277    4.3700    2.0554 H   0  0  0  0  0  0  0  0  0  0  0  0
   -1.4732    3.4925    3.8750 H   0  0  0  0  0  0  0  0  0  0  0  0
   -1.6467    5.8970    4.4831 H   0  0  0  0  0  0  0  0  0  0  0  0
   -0.2023    6.2598    3.5221 H   0  0  0  0  0  0  0  0  0  0  0  0
   -0.0795    5.2243    4.9538 H   0  0  0  0  0  0  0  0  0  0  0  0
   -1.5706    5.4937    1.5536 H   0  0  0  0  0  0  0  0  0  0  0  0
   -2.9287    4.8233    2.4690 H   0  0  0  0  0  0  0  0  0  0  0  0
   -0.7422   -1.8032    0.9633 H   0  0  0  0  0  0  0  0  0  0  0  0
    0.1049   -2.2541   -0.5303 H   0  0  0  0  0  0  0  0  0  0  0  0
    1.3349   -3.1674    1.3502 H   0  0  0  0  0  0  0  0  0  0  0  0
    1.3204   -1.6143    2.2093 H   0  0  0  0  0  0  0  0  0  0  0  0
  1  2  1  0
  2  3  1  0
  3  4  2  0
  4  5  1  0
  5  6  2  0
  6  7  1  0
  7  8  2  0
  8  9  1  0
  9 10  1  0
  6 11  1  0
 11 12  1  0
 12 13  1  0
 13 14  2  0
 14 15  1  0
 15 16  1  0
 16 17  1  0
 17 18  1  0
 18 19  1  0
 19 20  1  0
 20 21  1  0
 21 22  1  0
 15 23  2  0
 23 24  1  0
 24 25  1  0
 25 26  1  0
 26 27  2  0
 27 28  1  0
 27 29  1  0
 29 30  1  0
 30 31  1  0
 31 32  1  0
 31 33  1  0
 12 34  1  0
 34 35  1  0
  8  3  1  0
 28 13  1  0
 35  5  1  0
 22 17  1  0
 28 24  2  0
 33 26  1  0
  1 36  1  0
  1 37  1  0
  1 38  1  0
  4 39  1  0
  7 40  1  0
 10 41  1  0
 10 42  1  0
 10 43  1  0
 11 44  1  0
 11 45  1  0
 16 46  1  0
 16 47  1  0
 18 48  1  0
 18 49  1  0
 19 50  1  0
 19 51  1  0
 21 52  1  0
 21 53  1  0
 22 54  1  0
 22 55  1  0
 29 56  1  0
 29 57  1  0
 30 58  1  0
 30 59  1  0
 31 60  1  0
 32 61  1  0
 32 62  1  0
 32 63  1  0
 33 64  1  0
 33 65  1  0
 34 66  1  0
 34 67  1  0
 35 68  1  0
 35 69  1  0
M  END
$$$$
