
     RDKit          3D

 47 50  0  0  0  0  0  0  0  0999 V2000
   -6.9662   -0.9824   -0.3563 C   0  0  0  0  0  0  0  0  0  0  0  0
   -6.6140    0.4728   -0.6304 C   0  0  0  0  0  0  0  0  0  0  0  0
   -5.3932    0.9348    0.1641 C   0  0  0  0  0  0  0  0  0  0  0  0
   -4.2665    0.1603   -0.2364 O   0  0  0  0  0  0  0  0  0  0  0  0
   -3.1125    0.2999    0.4882 C   0  0  0  0  0  0  0  0  0  0  0  0
   -2.8501    1.3484    1.3731 C   0  0  0  0  0  0  0  0  0  0  0  0
   -1.6274    1.4099    2.0528 C   0  0  0  0  0  0  0  0  0  0  0  0
   -0.6506    0.4261    1.8572 C   0  0  0  0  0  0  0  0  0  0  0  0
    0.5990    0.4997    2.6218 C   0  0  0  0  0  0  0  0  0  0  0  0
    1.8466    0.5333    2.1261 C   0  0  0  0  0  0  0  0  0  0  0  0
    3.2490    0.6348    3.1967 S   0  0  0  0  0  0  0  0  0  0  0  0
    4.2850    0.6410    1.8358 C   0  0  0  0  0  0  0  0  0  0  0  0
    5.5716    0.6870    1.6520 N   0  0  0  0  0  0  0  0  0  0  0  0
    5.6557    0.6466    0.2679 C   0  0  0  0  0  0  0  0  0  0  0  0
    7.0258    0.6808   -0.4865 C   0  0  0  0  0  0  0  0  0  0  0  0
    7.1941    0.6525   -1.8578 C   0  0  0  0  0  0  0  0  0  0  0  0
    8.5889    0.7042   -2.0998 C   0  0  0  0  0  0  0  0  0  0  0  0
    9.1871    0.7599   -0.8637 C   0  0  0  0  0  0  0  0  0  0  0  0
    8.2506    0.7467    0.1193 O   0  0  0  0  0  0  0  0  0  0  0  0
    4.4719    0.5772   -0.3777 N   0  0  0  0  0  0  0  0  0  0  0  0
    3.6229    0.5769    0.6653 N   0  0  0  0  0  0  0  0  0  0  0  0
    2.2458    0.5174    0.6779 C   0  0  0  0  0  0  0  0  0  0  0  0
    1.5731    0.4632   -0.3339 O   0  0  0  0  0  0  0  0  0  0  0  0
   -0.9184   -0.6340    0.9860 C   0  0  0  0  0  0  0  0  0  0  0  0
   -2.1260   -0.6774    0.2799 C   0  0  0  0  0  0  0  0  0  0  0  0
   -2.4115   -1.7110   -0.5803 O   0  0  0  0  0  0  0  0  0  0  0  0
   -1.3878   -1.9078   -1.5656 C   0  0  0  0  0  0  0  0  0  0  0  0
   -2.0132   -2.6203   -2.7505 C   0  0  0  0  0  0  0  0  0  0  0  0
   -7.1530   -1.1451    0.7088 H   0  0  0  0  0  0  0  0  0  0  0  0
   -7.8687   -1.2639   -0.9077 H   0  0  0  0  0  0  0  0  0  0  0  0
   -6.1605   -1.6517   -0.6697 H   0  0  0  0  0  0  0  0  0  0  0  0
   -6.4170    0.5840   -1.7030 H   0  0  0  0  0  0  0  0  0  0  0  0
   -7.4714    1.1074   -0.3811 H   0  0  0  0  0  0  0  0  0  0  0  0
   -5.5870    0.8105    1.2365 H   0  0  0  0  0  0  0  0  0  0  0  0
   -5.2113    1.9928   -0.0578 H   0  0  0  0  0  0  0  0  0  0  0  0
   -3.5721    2.1405    1.5481 H   0  0  0  0  0  0  0  0  0  0  0  0
   -1.4494    2.2394    2.7351 H   0  0  0  0  0  0  0  0  0  0  0  0
    0.4457    0.5506    3.7004 H   0  0  0  0  0  0  0  0  0  0  0  0
    6.3982    0.6020   -2.5884 H   0  0  0  0  0  0  0  0  0  0  0  0
    9.0953    0.7023   -3.0550 H   0  0  0  0  0  0  0  0  0  0  0  0
   10.2148    0.8126   -0.5292 H   0  0  0  0  0  0  0  0  0  0  0  0
   -0.1924   -1.4317    0.8553 H   0  0  0  0  0  0  0  0  0  0  0  0
   -0.9644   -0.9525   -1.9029 H   0  0  0  0  0  0  0  0  0  0  0  0
   -0.5920   -2.5368   -1.1456 H   0  0  0  0  0  0  0  0  0  0  0  0
   -1.2674   -2.8098   -3.5307 H   0  0  0  0  0  0  0  0  0  0  0  0
   -2.4546   -3.5740   -2.4392 H   0  0  0  0  0  0  0  0  0  0  0  0
   -2.8229   -2.0169   -3.1751 H   0  0  0  0  0  0  0  0  0  0  0  0
  1  2  1  0
  2  3  1  0
  3  4  1  0
  4  5  1  0
  5  6  2  0
  6  7  1  0
  7  8  2  0
  8  9  1  0
  9 10  2  3
 10 11  1  0
 11 12  1  0
 12 13  2  0
 13 14  1  0
 14 15  1  0
 15 16  2  0
 16 17  1  0
 17 18  2  0
 18 19  1  0
 14 20  2  0
 20 21  1  0
 21 22  1  0
 22 23  2  0
  8 24  1  0
 24 25  2  0
 25 26  1  0
 26 27  1  0
 27 28  1  0
 25  5  1  0
 22 10  1  0
 21 12  1  0
 19 15  1  0
  1 29  1  0
  1 30  1  0
  1 31  1  0
  2 32  1  0
  2 33  1  0
  3 34  1  0
  3 35  1  0
  6 36  1  0
  7 37  1  0
  9 38  1  0
 16 39  1  0
 17 40  1  0
 18 41  1  0
 24 42  1  0
 27 43  1  0
 27 44  1  0
 28 45  1  0
 28 46  1  0
 28 47  1  0
M  END
$$$$
