
     RDKit          3D

 43 46  0  0  0  0  0  0  0  0999 V2000
    2.9631   -2.8065    1.1332 O   0  0  0  0  0  0  0  0  0  0  0  0
    3.1408   -1.6087    1.3475 C   0  0  0  0  0  0  0  0  0  0  0  0
    2.1807   -0.5153    0.9109 C   0  0  0  0  0  0  0  0  0  0  0  0
    0.8182   -1.1669   -0.0997 S   0  0  0  0  0  0  0  0  0  0  0  0
   -0.0783    0.2848   -0.3693 C   0  0  0  0  0  0  0  0  0  0  0  0
    0.3059    1.4900   -0.0265 N   0  0  0  0  0  0  0  0  0  0  0  0
   -0.6527    2.3682   -0.4594 N   0  0  0  0  0  0  0  0  0  0  0  0
   -1.6220    1.6827   -1.0394 C   0  0  0  0  0  0  0  0  0  0  0  0
   -2.7933    2.2705   -1.6695 C   0  0  0  0  0  0  0  0  0  0  0  0
   -2.6560    3.0882   -2.7937 C   0  0  0  0  0  0  0  0  0  0  0  0
   -3.7859    3.6518   -3.3824 C   0  0  0  0  0  0  0  0  0  0  0  0
   -5.0224    3.3838   -2.8190 C   0  0  0  0  0  0  0  0  0  0  0  0
   -5.1948    2.6116   -1.7250 N   0  0  0  0  0  0  0  0  0  0  0  0
   -4.0764    2.0841   -1.1686 C   0  0  0  0  0  0  0  0  0  0  0  0
   -1.2904    0.3416   -1.0047 N   0  0  0  0  0  0  0  0  0  0  0  0
   -2.0024   -0.7509   -1.6425 C   0  0  0  0  0  0  0  0  0  0  0  0
   -2.8240   -1.5058   -0.6646 C   0  0  0  0  0  0  0  0  0  0  0  0
   -2.5942   -2.6180    0.1205 C   0  0  0  0  0  0  0  0  0  0  0  0
   -3.7926   -2.8603    0.8341 C   0  0  0  0  0  0  0  0  0  0  0  0
   -4.6801   -1.8914    0.4323 C   0  0  0  0  0  0  0  0  0  0  0  0
   -4.1022   -1.0691   -0.4796 O   0  0  0  0  0  0  0  0  0  0  0  0
    4.3760   -1.2023    2.0916 C   0  0  0  0  0  0  0  0  0  0  0  0
    4.6209    0.1213    2.4774 C   0  0  0  0  0  0  0  0  0  0  0  0
    5.7926    0.4456    3.1709 C   0  0  0  0  0  0  0  0  0  0  0  0
    6.7277   -0.5444    3.4846 C   0  0  0  0  0  0  0  0  0  0  0  0
    8.1493   -0.0656    4.3399 Cl  0  0  0  0  0  0  0  0  0  0  0  0
    6.4881   -1.8681    3.1042 C   0  0  0  0  0  0  0  0  0  0  0  0
    7.5955   -3.1462    3.4571 Cl  0  0  0  0  0  0  0  0  0  0  0  0
    5.3166   -2.1935    2.4122 C   0  0  0  0  0  0  0  0  0  0  0  0
    2.7311    0.2176    0.3126 H   0  0  0  0  0  0  0  0  0  0  0  0
    1.7608   -0.0447    1.8055 H   0  0  0  0  0  0  0  0  0  0  0  0
   -1.6714    3.2952   -3.2070 H   0  0  0  0  0  0  0  0  0  0  0  0
   -3.7023    4.2902   -4.2547 H   0  0  0  0  0  0  0  0  0  0  0  0
   -5.9328    3.8005   -3.2406 H   0  0  0  0  0  0  0  0  0  0  0  0
   -4.2547    1.4978   -0.2712 H   0  0  0  0  0  0  0  0  0  0  0  0
   -1.2693   -1.4034   -2.1282 H   0  0  0  0  0  0  0  0  0  0  0  0
   -2.6279   -0.3423   -2.4427 H   0  0  0  0  0  0  0  0  0  0  0  0
   -1.6758   -3.1873    0.1755 H   0  0  0  0  0  0  0  0  0  0  0  0
   -3.9876   -3.6471    1.5495 H   0  0  0  0  0  0  0  0  0  0  0  0
   -5.7065   -1.6632    0.6848 H   0  0  0  0  0  0  0  0  0  0  0  0
    3.9222    0.9253    2.2584 H   0  0  0  0  0  0  0  0  0  0  0  0
    5.9703    1.4783    3.4658 H   0  0  0  0  0  0  0  0  0  0  0  0
    5.1360   -3.2279    2.1204 H   0  0  0  0  0  0  0  0  0  0  0  0
  1  2  2  0
  2  3  1  0
  3  4  1  0
  4  5  1  0
  5  6  2  0
  6  7  1  0
  7  8  2  0
  8  9  1  0
  9 10  2  0
 10 11  1  0
 11 12  2  0
 12 13  1  0
 13 14  2  0
  8 15  1  0
 15 16  1  0
 16 17  1  0
 17 18  2  0
 18 19  1  0
 19 20  2  0
 20 21  1  0
  2 22  1  0
 22 23  2  0
 23 24  1  0
 24 25  2  0
 25 26  1  0
 25 27  1  0
 27 28  1  0
 27 29  2  0
 15  5  1  0
 21 17  1  0
 29 22  1  0
 14  9  1  0
  3 30  1  0
  3 31  1  0
 10 32  1  0
 11 33  1  0
 12 34  1  0
 14 35  1  0
 16 36  1  0
 16 37  1  0
 18 38  1  0
 19 39  1  0
 20 40  1  0
 23 41  1  0
 24 42  1  0
 29 43  1  0
M  END
$$$$
