
     RDKit          3D

 52 55  0  0  0  0  0  0  0  0999 V2000
    5.9874   -3.0310    1.1772 C   0  0  0  0  0  0  0  0  0  0  0  0
    5.8104   -1.6235    1.0728 O   0  0  0  0  0  0  0  0  0  0  0  0
    4.5559   -1.1389    1.3145 C   0  0  0  0  0  0  0  0  0  0  0  0
    3.4506   -1.8829    1.7198 C   0  0  0  0  0  0  0  0  0  0  0  0
    2.2179   -1.2517    1.9271 C   0  0  0  0  0  0  0  0  0  0  0  0
    2.0718    0.1274    1.7339 C   0  0  0  0  0  0  0  0  0  0  0  0
    0.7936    0.6730    1.9573 N   0  0  0  0  0  0  0  0  0  0  0  0
    0.3946    1.9952    1.8408 C   0  0  0  0  0  0  0  0  0  0  0  0
    1.1115    2.9385    1.5171 O   0  0  0  0  0  0  0  0  0  0  0  0
   -1.0437    2.2328    2.2859 C   0  0  0  0  0  0  0  0  0  0  0  0
   -2.2089    1.0074    1.6189 S   0  0  0  0  0  0  0  0  0  0  0  0
   -2.1377    1.3866   -0.1044 C   0  0  0  0  0  0  0  0  0  0  0  0
   -1.7463    2.5816   -0.4218 N   0  0  0  0  0  0  0  0  0  0  0  0
   -1.7707    2.9035   -1.7441 C   0  0  0  0  0  0  0  0  0  0  0  0
   -2.2261    2.1169   -2.7160 C   0  0  0  0  0  0  0  0  0  0  0  0
   -2.7126    0.7632   -2.3832 C   0  0  0  0  0  0  0  0  0  0  0  0
   -3.1453    0.0139   -3.2582 O   0  0  0  0  0  0  0  0  0  0  0  0
   -2.5977    0.4392   -1.0256 N   0  0  0  0  0  0  0  0  0  0  0  0
   -2.8788   -0.9128   -0.6632 C   0  0  0  0  0  0  0  0  0  0  0  0
   -4.1679   -1.4320   -0.8407 C   0  0  0  0  0  0  0  0  0  0  0  0
   -4.4455   -2.7569   -0.4975 C   0  0  0  0  0  0  0  0  0  0  0  0
   -3.4381   -3.5752    0.0134 C   0  0  0  0  0  0  0  0  0  0  0  0
   -2.1431   -3.0798    0.1625 C   0  0  0  0  0  0  0  0  0  0  0  0
   -1.8599   -1.7618   -0.2004 C   0  0  0  0  0  0  0  0  0  0  0  0
   -0.5809   -1.2775   -0.1035 O   0  0  0  0  0  0  0  0  0  0  0  0
    0.2867   -1.9195   -1.0419 C   0  0  0  0  0  0  0  0  0  0  0  0
   -2.1450    2.7709   -4.2995 S   0  0  0  0  0  0  0  0  0  0  0  0
   -1.7113    4.4271   -3.6562 C   0  0  0  0  0  0  0  0  0  0  0  0
   -1.2551    4.2330   -2.2065 C   0  0  0  0  0  0  0  0  0  0  0  0
    3.1831    0.8690    1.3398 C   0  0  0  0  0  0  0  0  0  0  0  0
    4.4146    0.2367    1.1314 C   0  0  0  0  0  0  0  0  0  0  0  0
    5.3501   -3.5629    0.4629 H   0  0  0  0  0  0  0  0  0  0  0  0
    7.0285   -3.2572    0.9262 H   0  0  0  0  0  0  0  0  0  0  0  0
    5.8083   -3.3764    2.2014 H   0  0  0  0  0  0  0  0  0  0  0  0
    3.5103   -2.9515    1.8853 H   0  0  0  0  0  0  0  0  0  0  0  0
    1.3707   -1.8574    2.2399 H   0  0  0  0  0  0  0  0  0  0  0  0
    0.0534    0.0094    2.1633 H   0  0  0  0  0  0  0  0  0  0  0  0
   -1.0668    2.1683    3.3790 H   0  0  0  0  0  0  0  0  0  0  0  0
   -1.3543    3.2459    2.0124 H   0  0  0  0  0  0  0  0  0  0  0  0
   -4.9641   -0.8091   -1.2418 H   0  0  0  0  0  0  0  0  0  0  0  0
   -5.4506   -3.1507   -0.6315 H   0  0  0  0  0  0  0  0  0  0  0  0
   -3.6603   -4.6047    0.2832 H   0  0  0  0  0  0  0  0  0  0  0  0
   -1.3626   -3.7257    0.5523 H   0  0  0  0  0  0  0  0  0  0  0  0
    1.1787   -1.2962   -1.1529 H   0  0  0  0  0  0  0  0  0  0  0  0
    0.5997   -2.8970   -0.6633 H   0  0  0  0  0  0  0  0  0  0  0  0
   -0.1797   -2.0192   -2.0296 H   0  0  0  0  0  0  0  0  0  0  0  0
   -0.9313    4.8893   -4.2677 H   0  0  0  0  0  0  0  0  0  0  0  0
   -2.6049    5.0588   -3.6965 H   0  0  0  0  0  0  0  0  0  0  0  0
   -1.6302    5.0507   -1.5812 H   0  0  0  0  0  0  0  0  0  0  0  0
   -0.1600    4.2440   -2.1451 H   0  0  0  0  0  0  0  0  0  0  0  0
    3.1298    1.9395    1.1764 H   0  0  0  0  0  0  0  0  0  0  0  0
    5.2718    0.8293    0.8178 H   0  0  0  0  0  0  0  0  0  0  0  0
  1  2  1  0
  2  3  1  0
  3  4  2  0
  4  5  1  0
  5  6  2  0
  6  7  1  0
  7  8  1  0
  8  9  2  0
  8 10  1  0
 10 11  1  0
 11 12  1  0
 12 13  2  0
 13 14  1  0
 14 15  2  0
 15 16  1  0
 16 17  2  0
 16 18  1  0
 18 19  1  0
 19 20  2  0
 20 21  1  0
 21 22  2  0
 22 23  1  0
 23 24  2  0
 24 25  1  0
 25 26  1  0
 15 27  1  0
 27 28  1  0
 28 29  1  0
  6 30  1  0
 30 31  2  0
 31  3  1  0
 18 12  1  0
 24 19  1  0
 29 14  1  0
  1 32  1  0
  1 33  1  0
  1 34  1  0
  4 35  1  0
  5 36  1  0
  7 37  1  0
 10 38  1  0
 10 39  1  0
 20 40  1  0
 21 41  1  0
 22 42  1  0
 23 43  1  0
 26 44  1  0
 26 45  1  0
 26 46  1  0
 28 47  1  0
 28 48  1  0
 29 49  1  0
 29 50  1  0
 30 51  1  0
 31 52  1  0
M  END
$$$$
