
     RDKit          3D

 40 41  0  0  0  0  0  0  0  0999 V2000
    6.0730   -0.5206   -4.3993 C   0  0  0  0  0  0  0  0  0  0  0  0
    5.4148    0.8502   -4.4730 C   0  0  0  0  0  0  0  0  0  0  0  0
    3.8954    0.7793   -4.3328 C   0  0  0  0  0  0  0  0  0  0  0  0
    3.4201    0.4960   -2.9131 C   0  0  0  0  0  0  0  0  0  0  0  0
    4.1854    0.4758   -1.9572 O   0  0  0  0  0  0  0  0  0  0  0  0
    2.0475    0.2994   -2.8728 N   0  0  0  0  0  0  0  0  0  0  0  0
    1.2526    0.0164   -1.7433 C   0  0  0  0  0  0  0  0  0  0  0  0
    1.7549   -0.1313   -0.4499 C   0  0  0  0  0  0  0  0  0  0  0  0
    0.8951   -0.4128    0.6193 C   0  0  0  0  0  0  0  0  0  0  0  0
   -0.4816   -0.5422    0.4099 C   0  0  0  0  0  0  0  0  0  0  0  0
   -1.3517   -0.8405    1.5808 C   0  0  0  0  0  0  0  0  0  0  0  0
   -0.8885   -1.3235    2.6116 O   0  0  0  0  0  0  0  0  0  0  0  0
   -2.6907   -0.5163    1.4574 N   0  0  0  0  0  0  0  0  0  0  0  0
   -3.4591   -0.5647    2.6406 N   0  0  0  0  0  0  0  0  0  0  0  0
   -4.3809    0.4540    2.8441 C   0  0  0  0  0  0  0  0  0  0  0  0
   -4.6493    1.2295    1.9226 O   0  0  0  0  0  0  0  0  0  0  0  0
   -4.9522    0.5166    4.1828 C   0  0  0  0  0  0  0  0  0  0  0  0
   -4.8416   -0.3631    5.2472 C   0  0  0  0  0  0  0  0  0  0  0  0
   -5.5620    0.0735    6.3990 C   0  0  0  0  0  0  0  0  0  0  0  0
   -6.2055    1.2693    6.1810 C   0  0  0  0  0  0  0  0  0  0  0  0
   -5.9451    1.8567    4.5987 S   0  0  0  0  0  0  0  0  0  0  0  0
   -0.9897   -0.4099   -0.8865 C   0  0  0  0  0  0  0  0  0  0  0  0
   -0.1254   -0.1296   -1.9524 C   0  0  0  0  0  0  0  0  0  0  0  0
    7.1548   -0.4263   -4.5374 H   0  0  0  0  0  0  0  0  0  0  0  0
    5.6892   -1.1814   -5.1831 H   0  0  0  0  0  0  0  0  0  0  0  0
    5.8984   -0.9998   -3.4315 H   0  0  0  0  0  0  0  0  0  0  0  0
    5.8437    1.5037   -3.7047 H   0  0  0  0  0  0  0  0  0  0  0  0
    5.6572    1.2971   -5.4445 H   0  0  0  0  0  0  0  0  0  0  0  0
    3.4708    1.7475   -4.6256 H   0  0  0  0  0  0  0  0  0  0  0  0
    3.4904    0.0163   -5.0079 H   0  0  0  0  0  0  0  0  0  0  0  0
    1.5561    0.3734   -3.7546 H   0  0  0  0  0  0  0  0  0  0  0  0
    2.8147   -0.0373   -0.2324 H   0  0  0  0  0  0  0  0  0  0  0  0
    1.3122   -0.5270    1.6187 H   0  0  0  0  0  0  0  0  0  0  0  0
   -3.0044    0.1774    0.7782 H   0  0  0  0  0  0  0  0  0  0  0  0
   -2.9956   -1.0163    3.4270 H   0  0  0  0  0  0  0  0  0  0  0  0
   -4.2794   -1.2885    5.2184 H   0  0  0  0  0  0  0  0  0  0  0  0
   -5.6073   -0.4650    7.3381 H   0  0  0  0  0  0  0  0  0  0  0  0
   -6.8207    1.8278    6.8736 H   0  0  0  0  0  0  0  0  0  0  0  0
   -2.0471   -0.5428   -1.0975 H   0  0  0  0  0  0  0  0  0  0  0  0
   -0.5486   -0.0336   -2.9496 H   0  0  0  0  0  0  0  0  0  0  0  0
  1  2  1  0
  2  3  1  0
  3  4  1  0
  4  5  2  0
  4  6  1  0
  6  7  1  0
  7  8  2  0
  8  9  1  0
  9 10  2  0
 10 11  1  0
 11 12  2  0
 11 13  1  0
 13 14  1  0
 14 15  1  0
 15 16  2  0
 15 17  1  0
 17 18  2  0
 18 19  1  0
 19 20  2  0
 20 21  1  0
 10 22  1  0
 22 23  2  0
 23  7  1  0
 21 17  1  0
  1 24  1  0
  1 25  1  0
  1 26  1  0
  2 27  1  0
  2 28  1  0
  3 29  1  0
  3 30  1  0
  6 31  1  0
  8 32  1  0
  9 33  1  0
 13 34  1  0
 14 35  1  0
 18 36  1  0
 19 37  1  0
 20 38  1  0
 22 39  1  0
 23 40  1  0
M  END
$$$$
