
     RDKit          3D

 56 60  0  0  0  0  0  0  0  0999 V2000
   -1.1959    4.4033   -0.1208 C   0  0  0  0  0  0  0  0  0  0  0  0
   -1.5781    3.4352   -1.2106 C   0  0  0  0  0  0  0  0  0  0  0  0
   -1.6615    3.9296   -2.5225 C   0  0  0  0  0  0  0  0  0  0  0  0
   -2.0783    3.1115   -3.5690 C   0  0  0  0  0  0  0  0  0  0  0  0
   -2.4245    1.7874   -3.3198 C   0  0  0  0  0  0  0  0  0  0  0  0
   -2.3196    1.2475   -2.0277 C   0  0  0  0  0  0  0  0  0  0  0  0
   -2.7481   -0.1829   -1.8324 C   0  0  0  0  0  0  0  0  0  0  0  0
   -1.8654    2.0708   -0.9678 C   0  0  0  0  0  0  0  0  0  0  0  0
   -1.7227    1.5281    0.3484 N   0  0  0  0  0  0  0  0  0  0  0  0
   -0.4836    1.3573    0.9631 C   0  0  0  0  0  0  0  0  0  0  0  0
    1.0075    1.6334    0.0742 S   0  0  0  0  0  0  0  0  0  0  0  0
    1.0943    0.1478   -0.9607 C   0  0  0  0  0  0  0  0  0  0  0  0
    0.9166   -1.1356   -0.1568 C   0  0  0  0  0  0  0  0  0  0  0  0
   -0.1807   -1.4219    0.3320 O   0  0  0  0  0  0  0  0  0  0  0  0
    2.0357   -1.9223    0.0774 N   0  0  0  0  0  0  0  0  0  0  0  0
    2.0311   -2.6930    1.3191 C   0  0  0  0  0  0  0  0  0  0  0  0
    3.4030   -3.1087    1.8286 C   0  0  0  0  0  0  0  0  0  0  0  0
    3.5950   -3.4839    2.9839 O   0  0  0  0  0  0  0  0  0  0  0  0
    4.4040   -3.1901    0.8982 N   0  0  0  0  0  0  0  0  0  0  0  0
    4.2166   -2.8802   -0.4518 C   0  0  0  0  0  0  0  0  0  0  0  0
    5.2377   -3.1933   -1.3543 C   0  0  0  0  0  0  0  0  0  0  0  0
    5.0588   -2.9544   -2.7154 C   0  0  0  0  0  0  0  0  0  0  0  0
    3.8603   -2.4133   -3.1721 C   0  0  0  0  0  0  0  0  0  0  0  0
    2.8473   -2.0819   -2.2649 C   0  0  0  0  0  0  0  0  0  0  0  0
    3.0253   -2.2746   -0.8886 C   0  0  0  0  0  0  0  0  0  0  0  0
   -0.3170    0.9966    2.1951 N   0  0  0  0  0  0  0  0  0  0  0  0
   -1.4494    0.6944    2.9547 C   0  0  0  0  0  0  0  0  0  0  0  0
   -1.2788    0.2625    4.2723 C   0  0  0  0  0  0  0  0  0  0  0  0
   -2.3830   -0.0627    5.0645 C   0  0  0  0  0  0  0  0  0  0  0  0
   -3.6718    0.0416    4.5417 C   0  0  0  0  0  0  0  0  0  0  0  0
   -3.8541    0.4716    3.2285 C   0  0  0  0  0  0  0  0  0  0  0  0
   -2.7399    0.7925    2.4419 C   0  0  0  0  0  0  0  0  0  0  0  0
   -2.9005    1.2639    1.0540 C   0  0  0  0  0  0  0  0  0  0  0  0
   -4.0423    1.4225    0.6207 O   0  0  0  0  0  0  0  0  0  0  0  0
   -0.1081    4.5015   -0.0592 H   0  0  0  0  0  0  0  0  0  0  0  0
   -1.6195    5.3929   -0.3254 H   0  0  0  0  0  0  0  0  0  0  0  0
   -1.5870    4.0991    0.8548 H   0  0  0  0  0  0  0  0  0  0  0  0
   -1.4239    4.9704   -2.7302 H   0  0  0  0  0  0  0  0  0  0  0  0
   -2.1570    3.5137   -4.5757 H   0  0  0  0  0  0  0  0  0  0  0  0
   -2.7822    1.1719   -4.1433 H   0  0  0  0  0  0  0  0  0  0  0  0
   -3.8300   -0.2294   -1.6732 H   0  0  0  0  0  0  0  0  0  0  0  0
   -2.2461   -0.6541   -0.9848 H   0  0  0  0  0  0  0  0  0  0  0  0
   -2.4977   -0.7837   -2.7139 H   0  0  0  0  0  0  0  0  0  0  0  0
    0.3397    0.1702   -1.7512 H   0  0  0  0  0  0  0  0  0  0  0  0
    2.0726    0.2031   -1.4401 H   0  0  0  0  0  0  0  0  0  0  0  0
    1.5532   -2.0932    2.1057 H   0  0  0  0  0  0  0  0  0  0  0  0
    1.4306   -3.5950    1.1524 H   0  0  0  0  0  0  0  0  0  0  0  0
    5.2817   -3.5730    1.2246 H   0  0  0  0  0  0  0  0  0  0  0  0
    6.1663   -3.6410   -1.0124 H   0  0  0  0  0  0  0  0  0  0  0  0
    5.8470   -3.2082   -3.4214 H   0  0  0  0  0  0  0  0  0  0  0  0
    3.7081   -2.2545   -4.2409 H   0  0  0  0  0  0  0  0  0  0  0  0
    1.9138   -1.7079   -2.6727 H   0  0  0  0  0  0  0  0  0  0  0  0
   -0.2743    0.1752    4.6817 H   0  0  0  0  0  0  0  0  0  0  0  0
   -2.2352   -0.4007    6.0867 H   0  0  0  0  0  0  0  0  0  0  0  0
   -4.5311   -0.2120    5.1570 H   0  0  0  0  0  0  0  0  0  0  0  0
   -4.8586    0.5563    2.8186 H   0  0  0  0  0  0  0  0  0  0  0  0
  1  2  1  0
  2  3  2  0
  3  4  1  0
  4  5  2  0
  5  6  1  0
  6  7  1  0
  6  8  2  0
  8  9  1  0
  9 10  1  0
 10 11  1  0
 11 12  1  0
 12 13  1  0
 13 14  2  0
 13 15  1  0
 15 16  1  0
 16 17  1  0
 17 18  2  0
 17 19  1  0
 19 20  1  0
 20 21  2  0
 21 22  1  0
 22 23  2  0
 23 24  1  0
 24 25  2  0
 10 26  2  0
 26 27  1  0
 27 28  2  0
 28 29  1  0
 29 30  2  0
 30 31  1  0
 31 32  2  0
 32 33  1  0
 33 34  2  0
  8  2  1  0
 33  9  1  0
 25 15  1  0
 32 27  1  0
 25 20  1  0
  1 35  1  0
  1 36  1  0
  1 37  1  0
  3 38  1  0
  4 39  1  0
  5 40  1  0
  7 41  1  0
  7 42  1  0
  7 43  1  0
 12 44  1  0
 12 45  1  0
 16 46  1  0
 16 47  1  0
 19 48  1  0
 21 49  1  0
 22 50  1  0
 23 51  1  0
 24 52  1  0
 28 53  1  0
 29 54  1  0
 30 55  1  0
 31 56  1  0
M  END
$$$$
