
     RDKit          3D

 39 41  0  0  0  0  0  0  0  0999 V2000
   -2.9108    0.7761   -2.5372 C   0  0  0  0  0  0  0  0  0  0  0  0
   -2.2837    0.2854   -1.3601 O   0  0  0  0  0  0  0  0  0  0  0  0
   -3.0957   -0.2067   -0.3667 C   0  0  0  0  0  0  0  0  0  0  0  0
   -4.4935   -0.2463   -0.4258 C   0  0  0  0  0  0  0  0  0  0  0  0
   -5.2396   -0.7746    0.6374 C   0  0  0  0  0  0  0  0  0  0  0  0
   -6.7394   -0.7836    0.5822 C   0  0  0  0  0  0  0  0  0  0  0  0
   -4.5724   -1.2408    1.7736 C   0  0  0  0  0  0  0  0  0  0  0  0
   -3.1775   -1.2052    1.8433 C   0  0  0  0  0  0  0  0  0  0  0  0
   -2.4339   -0.6912    0.7784 C   0  0  0  0  0  0  0  0  0  0  0  0
   -1.0660   -0.6146    0.7472 O   0  0  0  0  0  0  0  0  0  0  0  0
   -0.3443   -1.0256    1.9012 C   0  0  0  0  0  0  0  0  0  0  0  0
    1.1575   -0.8176    1.6842 C   0  0  0  0  0  0  0  0  0  0  0  0
    1.9574   -1.1273    2.5629 O   0  0  0  0  0  0  0  0  0  0  0  0
    1.4461   -0.2729    0.4540 N   0  0  0  0  0  0  0  0  0  0  0  0
    2.6779    0.0403   -0.0557 C   0  0  0  0  0  0  0  0  0  0  0  0
    2.8331    0.5566   -1.2563 N   0  0  0  0  0  0  0  0  0  0  0  0
    4.1626    0.7892   -1.5564 N   0  0  0  0  0  0  0  0  0  0  0  0
    4.9450    0.4423   -0.5594 C   0  0  0  0  0  0  0  0  0  0  0  0
    6.4959    0.5889   -0.6285 C   0  0  0  0  0  0  0  0  0  0  0  0
    7.0899    1.8170   -1.2709 C   0  0  0  0  0  0  0  0  0  0  0  0
    7.1777    1.6355    0.2162 C   0  0  0  0  0  0  0  0  0  0  0  0
    4.1340   -0.2016    0.7980 S   0  0  0  0  0  0  0  0  0  0  0  0
   -2.1244    1.1171   -3.2172 H   0  0  0  0  0  0  0  0  0  0  0  0
   -3.4701   -0.0156   -3.0465 H   0  0  0  0  0  0  0  0  0  0  0  0
   -3.5521    1.6350   -2.3137 H   0  0  0  0  0  0  0  0  0  0  0  0
   -5.0293    0.1292   -1.2918 H   0  0  0  0  0  0  0  0  0  0  0  0
   -7.1343    0.1490    0.9968 H   0  0  0  0  0  0  0  0  0  0  0  0
   -7.0924   -0.8903   -0.4491 H   0  0  0  0  0  0  0  0  0  0  0  0
   -7.1460   -1.6255    1.1526 H   0  0  0  0  0  0  0  0  0  0  0  0
   -5.1360   -1.6380    2.6154 H   0  0  0  0  0  0  0  0  0  0  0  0
   -2.7069   -1.5866    2.7431 H   0  0  0  0  0  0  0  0  0  0  0  0
   -0.5016   -2.0938    2.0870 H   0  0  0  0  0  0  0  0  0  0  0  0
   -0.6336   -0.4217    2.7685 H   0  0  0  0  0  0  0  0  0  0  0  0
    0.6636   -0.0755   -0.1648 H   0  0  0  0  0  0  0  0  0  0  0  0
    7.0190   -0.3481   -0.7864 H   0  0  0  0  0  0  0  0  0  0  0  0
    6.4168    2.5766   -1.6539 H   0  0  0  0  0  0  0  0  0  0  0  0
    7.9932    1.6929   -1.8566 H   0  0  0  0  0  0  0  0  0  0  0  0
    8.1433    1.3899    0.6430 H   0  0  0  0  0  0  0  0  0  0  0  0
    6.5705    2.2823    0.8396 H   0  0  0  0  0  0  0  0  0  0  0  0
  1  2  1  0
  2  3  1  0
  3  4  2  0
  4  5  1  0
  5  6  1  0
  5  7  2  0
  7  8  1  0
  8  9  2  0
  9 10  1  0
 10 11  1  0
 11 12  1  0
 12 13  2  0
 12 14  1  0
 14 15  1  0
 15 16  2  0
 16 17  1  0
 17 18  2  0
 18 19  1  0
 19 20  1  0
 20 21  1  0
 18 22  1  0
  9  3  1  0
 22 15  1  0
 21 19  1  0
  1 23  1  0
  1 24  1  0
  1 25  1  0
  4 26  1  0
  6 27  1  0
  6 28  1  0
  6 29  1  0
  7 30  1  0
  8 31  1  0
 11 32  1  0
 11 33  1  0
 14 34  1  0
 19 35  1  0
 20 36  1  0
 20 37  1  0
 21 38  1  0
 21 39  1  0
M  END
$$$$
