
     RDKit          3D

 48 51  0  0  0  0  0  0  0  0999 V2000
    2.7918   -0.1223   -3.2207 C   0  0  0  0  0  0  0  0  0  0  0  0
    2.7234   -1.4015   -2.4002 C   0  0  0  0  0  0  0  0  0  0  0  0
    2.5796   -1.0995   -0.9789 N   0  0  0  0  0  0  0  0  0  0  0  0
    1.3935   -0.9384   -0.2552 C   0  0  0  0  0  0  0  0  0  0  0  0
    0.1438   -0.9874   -0.7568 C   0  0  0  0  0  0  0  0  0  0  0  0
   -1.1110   -0.8226   -0.0029 C   0  0  0  0  0  0  0  0  0  0  0  0
   -1.5143   -1.8975    0.7819 C   0  0  0  0  0  0  0  0  0  0  0  0
   -2.6767   -1.8158    1.5101 C   0  0  0  0  0  0  0  0  0  0  0  0
   -3.4753   -0.6904    1.3900 C   0  0  0  0  0  0  0  0  0  0  0  0
   -4.6525   -0.6718    2.1445 C   0  0  0  0  0  0  0  0  0  0  0  0
   -5.5273    0.3948    2.0584 C   0  0  0  0  0  0  0  0  0  0  0  0
   -5.2489    1.4298    1.1809 C   0  0  0  0  0  0  0  0  0  0  0  0
   -4.0770    1.4447    0.3838 C   0  0  0  0  0  0  0  0  0  0  0  0
   -4.0446    2.5824   -0.6060 C   0  0  0  0  0  0  0  0  0  0  0  0
   -3.1127    0.3991    0.5201 C   0  0  0  0  0  0  0  0  0  0  0  0
   -1.8670    0.3210   -0.0979 N   0  0  0  0  0  4  0  0  0  0  0  0
   -1.2319    1.5060   -0.7506 C   0  0  0  0  0  0  0  0  0  0  0  0
   -0.7132    2.4695    0.3022 C   0  0  0  0  0  0  0  0  0  0  0  0
    1.6521   -0.5974    1.4795 S   0  0  0  0  0  0  0  0  0  0  0  0
    3.4139   -0.6316    1.1851 C   0  0  0  0  0  0  0  0  0  0  0  0
    4.3976   -0.4133    2.1398 C   0  0  0  0  0  0  0  0  0  0  0  0
    5.7309   -0.4658    1.7396 C   0  0  0  0  0  0  0  0  0  0  0  0
    6.0563   -0.7309    0.4041 C   0  0  0  0  0  0  0  0  0  0  0  0
    5.0540   -0.9500   -0.5503 C   0  0  0  0  0  0  0  0  0  0  0  0
    3.7176   -0.9054   -0.1672 C   0  0  0  0  0  0  0  0  0  0  0  0
    3.6535    0.4897   -2.9358 H   0  0  0  0  0  0  0  0  0  0  0  0
    2.8812   -0.3599   -4.2853 H   0  0  0  0  0  0  0  0  0  0  0  0
    1.8910    0.4848   -3.0824 H   0  0  0  0  0  0  0  0  0  0  0  0
    1.8750   -2.0037   -2.7463 H   0  0  0  0  0  0  0  0  0  0  0  0
    3.6038   -2.0244   -2.5946 H   0  0  0  0  0  0  0  0  0  0  0  0
   -0.0076   -1.1747   -1.8158 H   0  0  0  0  0  0  0  0  0  0  0  0
   -0.9033   -2.7969    0.8539 H   0  0  0  0  0  0  0  0  0  0  0  0
   -2.9576   -2.6504    2.1525 H   0  0  0  0  0  0  0  0  0  0  0  0
   -4.9083   -1.4928    2.8150 H   0  0  0  0  0  0  0  0  0  0  0  0
   -6.4405    0.4069    2.6510 H   0  0  0  0  0  0  0  0  0  0  0  0
   -5.9835    2.2339    1.1043 H   0  0  0  0  0  0  0  0  0  0  0  0
   -4.9831    3.1502   -0.6065 H   0  0  0  0  0  0  0  0  0  0  0  0
   -3.9434    2.1959   -1.6246 H   0  0  0  0  0  0  0  0  0  0  0  0
   -3.2611    3.3036   -0.3673 H   0  0  0  0  0  0  0  0  0  0  0  0
   -0.4005    1.1992   -1.3885 H   0  0  0  0  0  0  0  0  0  0  0  0
   -1.9264    1.9507   -1.4548 H   0  0  0  0  0  0  0  0  0  0  0  0
   -1.4946    2.7915    0.9955 H   0  0  0  0  0  0  0  0  0  0  0  0
    0.0760    2.0078    0.9010 H   0  0  0  0  0  0  0  0  0  0  0  0
   -0.2936    3.3597   -0.1764 H   0  0  0  0  0  0  0  0  0  0  0  0
    4.1420   -0.2071    3.1742 H   0  0  0  0  0  0  0  0  0  0  0  0
    6.5236   -0.3003    2.4663 H   0  0  0  0  0  0  0  0  0  0  0  0
    7.1023   -0.7679    0.1048 H   0  0  0  0  0  0  0  0  0  0  0  0
    5.3528   -1.1479   -1.5738 H   0  0  0  0  0  0  0  0  0  0  0  0
  1  2  1  0
  2  3  1  0
  3  4  1  0
  4  5  2  3
  5  6  1  0
  6  7  2  0
  7  8  1  0
  8  9  2  0
  9 10  1  0
 10 11  2  0
 11 12  1  0
 12 13  2  0
 13 14  1  0
 13 15  1  0
 15 16  2  0
 16 17  1  0
 17 18  1  0
  4 19  1  0
 19 20  1  0
 20 21  2  0
 21 22  1  0
 22 23  2  0
 23 24  1  0
 24 25  2  0
 25  3  1  0
 16  6  1  0
 25 20  1  0
 15  9  1  0
  1 26  1  0
  1 27  1  0
  1 28  1  0
  2 29  1  0
  2 30  1  0
  5 31  1  0
  7 32  1  0
  8 33  1  0
 10 34  1  0
 11 35  1  0
 12 36  1  0
 14 37  1  0
 14 38  1  0
 14 39  1  0
 17 40  1  0
 17 41  1  0
 18 42  1  0
 18 43  1  0
 18 44  1  0
 21 45  1  0
 22 46  1  0
 23 47  1  0
 24 48  1  0
M  CHG  1  16   1
M  END
$$$$
