
     RDKit          3D

 60 63  0  0  0  0  0  0  0  0999 V2000
    8.5880   -2.5555    0.5033 C   0  0  0  0  0  0  0  0  0  0  0  0
    7.3071   -3.1724    0.5373 O   0  0  0  0  0  0  0  0  0  0  0  0
    6.2779   -2.4281    1.0452 C   0  0  0  0  0  0  0  0  0  0  0  0
    6.3691   -1.1243    1.5310 C   0  0  0  0  0  0  0  0  0  0  0  0
    5.2300   -0.4756    2.0201 C   0  0  0  0  0  0  0  0  0  0  0  0
    3.9865   -1.1224    2.0366 C   0  0  0  0  0  0  0  0  0  0  0  0
    2.7625   -0.4008    2.5380 C   0  0  0  0  0  0  0  0  0  0  0  0
    2.2182    0.4482    1.5065 N   0  0  0  0  0  0  0  0  0  0  0  0
    2.4438    1.8110    1.4730 C   0  0  0  0  0  0  0  0  0  0  0  0
    3.1104    2.3938    2.3260 O   0  0  0  0  0  0  0  0  0  0  0  0
    1.9593    2.4924    0.1793 C   0  0  0  0  0  0  0  0  0  0  0  0
    1.8521    4.0083    0.3160 C   0  0  0  0  0  0  0  0  0  0  0  0
    0.7371    1.8556   -0.3411 N   0  0  0  0  0  0  0  0  0  0  0  0
    0.9029    1.1021   -1.5151 N   0  0  0  0  0  0  0  0  0  0  0  0
   -0.1105    0.5236   -2.0977 C   0  0  0  0  0  0  0  0  0  0  0  0
    0.1415   -0.2655   -3.3510 C   0  0  0  0  0  0  0  0  0  0  0  0
   -1.4253    0.6561   -1.5231 C   0  0  0  0  0  0  0  0  0  0  0  0
   -2.6924    0.2525   -1.9106 C   0  0  0  0  0  0  0  0  0  0  0  0
   -3.1474   -0.3596   -3.1857 C   0  0  0  0  0  0  0  0  0  0  0  0
   -3.5352    0.6053   -0.8487 N   0  0  0  0  0  0  0  0  0  0  0  0
   -4.8983    0.2630   -0.5871 C   0  0  0  0  0  0  0  0  0  0  0  0
   -5.5359   -0.8159   -1.2091 C   0  0  0  0  0  0  0  0  0  0  0  0
   -6.8731   -1.1142   -0.9163 C   0  0  0  0  0  0  0  0  0  0  0  0
   -7.5913   -0.3489    0.0066 C   0  0  0  0  0  0  0  0  0  0  0  0
   -9.0197   -0.6692    0.3340 C   0  0  0  0  0  0  0  0  0  0  0  0
   -6.9472    0.7091    0.6530 C   0  0  0  0  0  0  0  0  0  0  0  0
   -5.6126    1.0092    0.3649 C   0  0  0  0  0  0  0  0  0  0  0  0
   -2.8811    1.3971    0.0441 N   0  0  0  0  0  0  0  0  0  0  0  0
   -1.6026    1.3722   -0.3357 C   0  0  0  0  0  0  0  0  0  0  0  0
   -0.4874    2.0209    0.3431 C   0  0  0  0  0  0  0  0  0  0  0  0
   -0.6034    2.6348    1.3997 O   0  0  0  0  0  0  0  0  0  0  0  0
    3.8996   -2.4285    1.5418 C   0  0  0  0  0  0  0  0  0  0  0  0
    5.0391   -3.0739    1.0545 C   0  0  0  0  0  0  0  0  0  0  0  0
    8.5812   -1.6648   -0.1341 H   0  0  0  0  0  0  0  0  0  0  0  0
    9.2928   -3.2709    0.0679 H   0  0  0  0  0  0  0  0  0  0  0  0
    8.9375   -2.3162    1.5131 H   0  0  0  0  0  0  0  0  0  0  0  0
    7.3071   -0.5796    1.5422 H   0  0  0  0  0  0  0  0  0  0  0  0
    5.3141    0.5467    2.3887 H   0  0  0  0  0  0  0  0  0  0  0  0
    1.9821   -1.1170    2.8159 H   0  0  0  0  0  0  0  0  0  0  0  0
    3.0047    0.1798    3.4346 H   0  0  0  0  0  0  0  0  0  0  0  0
    1.8627    0.0157    0.6620 H   0  0  0  0  0  0  0  0  0  0  0  0
    2.7514    2.2966   -0.5575 H   0  0  0  0  0  0  0  0  0  0  0  0
    1.4604    4.4567   -0.6029 H   0  0  0  0  0  0  0  0  0  0  0  0
    1.2023    4.3055    1.1441 H   0  0  0  0  0  0  0  0  0  0  0  0
    2.8370    4.4461    0.5138 H   0  0  0  0  0  0  0  0  0  0  0  0
    1.2139   -0.4384   -3.4805 H   0  0  0  0  0  0  0  0  0  0  0  0
   -0.3618   -1.2344   -3.2977 H   0  0  0  0  0  0  0  0  0  0  0  0
   -0.2264    0.2949   -4.2145 H   0  0  0  0  0  0  0  0  0  0  0  0
   -3.0956   -1.4514   -3.1328 H   0  0  0  0  0  0  0  0  0  0  0  0
   -2.5193   -0.0344   -4.0198 H   0  0  0  0  0  0  0  0  0  0  0  0
   -4.1630   -0.0509   -3.4498 H   0  0  0  0  0  0  0  0  0  0  0  0
   -5.0220   -1.4800   -1.8924 H   0  0  0  0  0  0  0  0  0  0  0  0
   -7.3459   -1.9627   -1.4078 H   0  0  0  0  0  0  0  0  0  0  0  0
   -9.4217   -1.4373   -0.3353 H   0  0  0  0  0  0  0  0  0  0  0  0
   -9.6429    0.2249    0.2242 H   0  0  0  0  0  0  0  0  0  0  0  0
   -9.0964   -1.0378    1.3624 H   0  0  0  0  0  0  0  0  0  0  0  0
   -7.4789    1.3118    1.3871 H   0  0  0  0  0  0  0  0  0  0  0  0
   -5.1455    1.8419    0.8896 H   0  0  0  0  0  0  0  0  0  0  0  0
    2.9484   -2.9548    1.5329 H   0  0  0  0  0  0  0  0  0  0  0  0
    4.9621   -4.0905    0.6766 H   0  0  0  0  0  0  0  0  0  0  0  0
  1  2  1  0
  2  3  1  0
  3  4  2  0
  4  5  1  0
  5  6  2  0
  6  7  1  0
  7  8  1  0
  8  9  1  0
  9 10  2  0
  9 11  1  0
 11 12  1  0
 11 13  1  0
 13 14  1  0
 14 15  2  0
 15 16  1  0
 15 17  1  0
 17 18  2  0
 18 19  1  0
 18 20  1  0
 20 21  1  0
 21 22  2  0
 22 23  1  0
 23 24  2  0
 24 25  1  0
 24 26  1  0
 26 27  2  0
 20 28  1  0
 28 29  2  0
 29 30  1  0
 30 31  2  0
  6 32  1  0
 32 33  2  0
 33  3  1  0
 30 13  1  0
 29 17  1  0
 27 21  1  0
  1 34  1  0
  1 35  1  0
  1 36  1  0
  4 37  1  0
  5 38  1  0
  7 39  1  0
  7 40  1  0
  8 41  1  0
 11 42  1  0
 12 43  1  0
 12 44  1  0
 12 45  1  0
 16 46  1  0
 16 47  1  0
 16 48  1  0
 19 49  1  0
 19 50  1  0
 19 51  1  0
 22 52  1  0
 23 53  1  0
 25 54  1  0
 25 55  1  0
 25 56  1  0
 26 57  1  0
 27 58  1  0
 32 59  1  0
 33 60  1  0
M  END
$$$$
