
     RDKit          3D

 56 58  0  0  0  0  0  0  0  0999 V2000
    1.5553    1.3141    2.9656 C   0  0  0  0  0  0  0  0  0  0  0  0
    2.1031    0.9820    1.6978 O   0  0  0  0  0  0  0  0  0  0  0  0
    1.2345    0.8751    0.6387 C   0  0  0  0  0  0  0  0  0  0  0  0
   -0.1617    0.8930    0.7559 C   0  0  0  0  0  0  0  0  0  0  0  0
   -0.9783    0.7784   -0.3782 C   0  0  0  0  0  0  0  0  0  0  0  0
   -2.4447    0.7607   -0.2839 C   0  0  0  0  0  0  0  0  0  0  0  0
   -3.1374    1.5981    0.5031 C   0  0  0  0  0  0  0  0  0  0  0  0
   -4.6186    1.6260    0.6321 C   0  0  0  0  0  0  0  0  0  0  0  0
   -5.1711    2.5132    1.2737 O   0  0  0  0  0  0  0  0  0  0  0  0
   -5.4327    0.5893   -0.0204 C   0  0  0  0  0  0  0  0  0  0  0  0
   -5.5123   -0.7054    0.5298 C   0  0  0  0  0  0  0  0  0  0  0  0
   -4.7651   -0.9375    1.6540 O   0  0  0  0  0  0  0  0  0  0  0  0
   -4.9060   -2.1982    2.2963 C   0  0  0  0  0  0  0  0  0  0  0  0
   -6.3253   -1.6652   -0.0952 C   0  0  0  0  0  0  0  0  0  0  0  0
   -7.0555   -1.3432   -1.2439 C   0  0  0  0  0  0  0  0  0  0  0  0
   -6.9609   -0.0591   -1.7582 C   0  0  0  0  0  0  0  0  0  0  0  0
   -7.6715    0.2898   -2.9038 O   0  0  0  0  0  0  0  0  0  0  0  0
   -7.3726    1.6188   -3.1898 C   0  0  0  0  0  0  0  0  0  0  0  0
   -7.8453    2.2045   -4.1540 O   0  0  0  0  0  0  0  0  0  0  0  0
   -6.2483    2.4037   -2.0787 S   0  0  0  0  0  0  0  0  0  0  0  0
   -6.1616    0.9081   -1.1610 C   0  0  0  0  0  0  0  0  0  0  0  0
   -0.3809    0.6201   -1.6314 C   0  0  0  0  0  0  0  0  0  0  0  0
    1.0109    0.5956   -1.7588 C   0  0  0  0  0  0  0  0  0  0  0  0
    1.8252    0.7154   -0.6300 C   0  0  0  0  0  0  0  0  0  0  0  0
    3.1970    0.7091   -0.6621 O   0  0  0  0  0  0  0  0  0  0  0  0
    3.8290    0.2937   -1.8699 C   0  0  0  0  0  0  0  0  0  0  0  0
    5.3345    0.1886   -1.6295 C   0  0  0  0  0  0  0  0  0  0  0  0
    5.6648   -0.8485   -0.5477 C   0  0  0  0  0  0  0  0  0  0  0  0
    7.1116   -1.1229   -0.4427 N   0  0  0  0  0  0  0  0  0  0  0  0
    7.8495    0.0326    0.0736 C   0  0  0  0  0  0  0  0  0  0  0  0
    7.3336   -2.2756    0.4355 C   0  0  0  0  0  0  0  0  0  0  0  0
    2.3869    1.4476    3.6641 H   0  0  0  0  0  0  0  0  0  0  0  0
    0.9998    2.2570    2.9255 H   0  0  0  0  0  0  0  0  0  0  0  0
    0.9293    0.5013    3.3473 H   0  0  0  0  0  0  0  0  0  0  0  0
   -0.6331    0.9797    1.7294 H   0  0  0  0  0  0  0  0  0  0  0  0
   -2.9374    0.0271   -0.9150 H   0  0  0  0  0  0  0  0  0  0  0  0
   -2.6424    2.3568    1.1032 H   0  0  0  0  0  0  0  0  0  0  0  0
   -4.2779   -2.1884    3.1921 H   0  0  0  0  0  0  0  0  0  0  0  0
   -5.9400   -2.3663    2.6151 H   0  0  0  0  0  0  0  0  0  0  0  0
   -4.5523   -3.0090    1.6513 H   0  0  0  0  0  0  0  0  0  0  0  0
   -6.4132   -2.6764    0.2911 H   0  0  0  0  0  0  0  0  0  0  0  0
   -7.6860   -2.0870   -1.7234 H   0  0  0  0  0  0  0  0  0  0  0  0
   -0.9918    0.5257   -2.5269 H   0  0  0  0  0  0  0  0  0  0  0  0
    1.4274    0.4914   -2.7548 H   0  0  0  0  0  0  0  0  0  0  0  0
    3.6526    1.0386   -2.6544 H   0  0  0  0  0  0  0  0  0  0  0  0
    3.4420   -0.6803   -2.1931 H   0  0  0  0  0  0  0  0  0  0  0  0
    5.7072    1.1728   -1.3239 H   0  0  0  0  0  0  0  0  0  0  0  0
    5.8268   -0.0807   -2.5716 H   0  0  0  0  0  0  0  0  0  0  0  0
    5.1516   -1.7802   -0.8174 H   0  0  0  0  0  0  0  0  0  0  0  0
    5.2602   -0.5314    0.4216 H   0  0  0  0  0  0  0  0  0  0  0  0
    7.4742    0.3615    1.0493 H   0  0  0  0  0  0  0  0  0  0  0  0
    7.8026    0.8766   -0.6214 H   0  0  0  0  0  0  0  0  0  0  0  0
    8.9135   -0.2084    0.1808 H   0  0  0  0  0  0  0  0  0  0  0  0
    6.9644   -2.0988    1.4520 H   0  0  0  0  0  0  0  0  0  0  0  0
    6.8353   -3.1659    0.0362 H   0  0  0  0  0  0  0  0  0  0  0  0
    8.4011   -2.5175    0.4928 H   0  0  0  0  0  0  0  0  0  0  0  0
  1  2  1  0
  2  3  1  0
  3  4  2  0
  4  5  1  0
  5  6  1  0
  6  7  2  0
  7  8  1  0
  8  9  2  0
  8 10  1  0
 10 11  2  0
 11 12  1  0
 12 13  1  0
 11 14  1  0
 14 15  2  0
 15 16  1  0
 16 17  1  0
 17 18  1  0
 18 19  2  0
 18 20  1  0
 20 21  1  0
  5 22  2  0
 22 23  1  0
 23 24  2  0
 24 25  1  0
 25 26  1  0
 26 27  1  0
 27 28  1  0
 28 29  1  0
 29 30  1  0
 29 31  1  0
 24  3  1  0
 21 10  1  0
 21 16  2  0
  1 32  1  0
  1 33  1  0
  1 34  1  0
  4 35  1  0
  6 36  1  0
  7 37  1  0
 13 38  1  0
 13 39  1  0
 13 40  1  0
 14 41  1  0
 15 42  1  0
 22 43  1  0
 23 44  1  0
 26 45  1  0
 26 46  1  0
 27 47  1  0
 27 48  1  0
 28 49  1  0
 28 50  1  0
 30 51  1  0
 30 52  1  0
 30 53  1  0
 31 54  1  0
 31 55  1  0
 31 56  1  0
M  END
$$$$
