
     RDKit          3D

 49 53  0  0  0  0  0  0  0  0999 V2000
    6.7489   -2.1738    2.3149 C   0  0  0  0  0  0  0  0  0  0  0  0
    5.7581   -1.6244    1.3409 C   0  0  0  0  0  0  0  0  0  0  0  0
    6.2189   -1.4433   -0.2907 S   0  0  0  0  0  0  0  0  0  0  0  0
    4.6934   -0.8444   -0.7281 C   0  0  0  0  0  0  0  0  0  0  0  0
    4.4561   -0.5223   -2.0105 N   0  0  0  0  0  0  0  0  0  0  0  0
    3.2215   -0.0714   -2.2092 C   0  0  0  0  0  0  0  0  0  0  0  0
    2.2603    0.0807   -1.2917 N   0  0  0  0  0  0  0  0  0  0  0  0
    2.5364   -0.2484   -0.0089 C   0  0  0  0  0  0  0  0  0  0  0  0
    1.2590   -0.0722    1.2062 S   0  0  0  0  0  0  0  0  0  0  0  0
   -0.0881    0.7281    0.2395 C   0  0  0  0  0  0  0  0  0  0  0  0
    0.1432    2.2328    0.1193 C   0  0  0  0  0  0  0  0  0  0  0  0
   -1.4415    0.4890    0.9453 C   0  0  0  0  0  0  0  0  0  0  0  0
   -1.5566    0.3970    2.1694 O   0  0  0  0  0  0  0  0  0  0  0  0
   -2.5347    0.5021    0.0583 N   0  0  0  0  0  0  0  0  0  0  0  0
   -3.5717    1.4985    0.2013 C   0  0  0  0  0  0  0  0  0  0  0  0
   -3.5562    2.3853    1.3023 C   0  0  0  0  0  0  0  0  0  0  0  0
   -4.5347    3.3694    1.4839 C   0  0  0  0  0  0  0  0  0  0  0  0
   -5.5536    3.5094    0.5563 C   0  0  0  0  0  0  0  0  0  0  0  0
   -5.5800    2.6719   -0.5538 C   0  0  0  0  0  0  0  0  0  0  0  0
   -4.5991    1.6769   -0.7410 C   0  0  0  0  0  0  0  0  0  0  0  0
   -4.7121    0.7704   -2.2604 S   0  0  0  0  0  0  0  0  0  0  0  0
   -3.6279   -0.5842   -1.9209 C   0  0  0  0  0  0  0  0  0  0  0  0
   -3.7238   -1.6848   -2.7963 C   0  0  0  0  0  0  0  0  0  0  0  0
   -2.9184   -2.8089   -2.6346 C   0  0  0  0  0  0  0  0  0  0  0  0
   -2.0181   -2.8494   -1.5821 C   0  0  0  0  0  0  0  0  0  0  0  0
   -1.9176   -1.7604   -0.7098 C   0  0  0  0  0  0  0  0  0  0  0  0
   -2.7001   -0.5921   -0.8693 C   0  0  0  0  0  0  0  0  0  0  0  0
    3.8091   -0.7479    0.3399 C   0  0  0  0  0  0  0  0  0  0  0  0
    4.4511   -1.2073    1.5723 C   0  0  0  0  0  0  0  0  0  0  0  0
    3.7998   -1.2430    2.9256 C   0  0  0  0  0  0  0  0  0  0  0  0
    6.2808   -2.9252    2.9609 H   0  0  0  0  0  0  0  0  0  0  0  0
    7.1361   -1.3697    2.9458 H   0  0  0  0  0  0  0  0  0  0  0  0
    7.5960   -2.6555    1.8188 H   0  0  0  0  0  0  0  0  0  0  0  0
    2.9652    0.2008   -3.2311 H   0  0  0  0  0  0  0  0  0  0  0  0
   -0.1248    0.2867   -0.7587 H   0  0  0  0  0  0  0  0  0  0  0  0
    0.0636    2.7359    1.0918 H   0  0  0  0  0  0  0  0  0  0  0  0
    1.1204    2.4675   -0.3121 H   0  0  0  0  0  0  0  0  0  0  0  0
   -0.6183    2.6815   -0.5325 H   0  0  0  0  0  0  0  0  0  0  0  0
   -2.7917    2.3297    2.0729 H   0  0  0  0  0  0  0  0  0  0  0  0
   -4.4941    4.0201    2.3564 H   0  0  0  0  0  0  0  0  0  0  0  0
   -6.3180    4.2708    0.6883 H   0  0  0  0  0  0  0  0  0  0  0  0
   -6.3753    2.8063   -1.2873 H   0  0  0  0  0  0  0  0  0  0  0  0
   -4.4374   -1.6703   -3.6192 H   0  0  0  0  0  0  0  0  0  0  0  0
   -3.0060   -3.6503   -3.3173 H   0  0  0  0  0  0  0  0  0  0  0  0
   -1.3958   -3.7293   -1.4278 H   0  0  0  0  0  0  0  0  0  0  0  0
   -1.2221   -1.8722    0.1187 H   0  0  0  0  0  0  0  0  0  0  0  0
    3.4708   -0.2409    3.2240 H   0  0  0  0  0  0  0  0  0  0  0  0
    4.4856   -1.5939    3.7026 H   0  0  0  0  0  0  0  0  0  0  0  0
    2.9438   -1.9254    2.9223 H   0  0  0  0  0  0  0  0  0  0  0  0
  1  2  1  0
  2  3  1  0
  3  4  1  0
  4  5  2  0
  5  6  1  0
  6  7  2  0
  7  8  1  0
  8  9  1  0
  9 10  1  0
 10 11  1  0
 10 12  1  0
 12 13  2  0
 12 14  1  0
 14 15  1  0
 15 16  2  0
 16 17  1  0
 17 18  2  0
 18 19  1  0
 19 20  2  0
 20 21  1  0
 21 22  1  0
 22 23  2  0
 23 24  1  0
 24 25  2  0
 25 26  1  0
 26 27  2  0
  8 28  2  0
 28 29  1  0
 29 30  1  0
 29  2  2  0
 28  4  1  0
 27 14  1  0
 20 15  1  0
 27 22  1  0
  1 31  1  0
  1 32  1  0
  1 33  1  0
  6 34  1  0
 10 35  1  0
 11 36  1  0
 11 37  1  0
 11 38  1  0
 16 39  1  0
 17 40  1  0
 18 41  1  0
 19 42  1  0
 23 43  1  0
 24 44  1  0
 25 45  1  0
 26 46  1  0
 30 47  1  0
 30 48  1  0
 30 49  1  0
M  END
$$$$
