
     RDKit          3D

 51 55  0  0  0  0  0  0  0  0999 V2000
    4.5054   -0.9052    4.9908 Cl  0  0  0  0  0  0  0  0  0  0  0  0
    4.4082   -0.3026    3.3741 C   0  0  0  0  0  0  0  0  0  0  0  0
    5.1311   -0.9734    2.3851 C   0  0  0  0  0  0  0  0  0  0  0  0
    5.0857   -0.5334    1.0597 C   0  0  0  0  0  0  0  0  0  0  0  0
    4.3094    0.5780    0.7022 C   0  0  0  0  0  0  0  0  0  0  0  0
    4.2800    1.0526   -0.7331 C   0  0  0  0  0  0  0  0  0  0  0  0
    2.8865    1.1609   -1.3908 C   0  0  0  0  0  0  0  0  0  0  0  0
    2.3821   -0.0974   -1.9764 N   0  0  0  0  0  0  0  0  0  0  0  0
    1.8956   -1.0706   -0.9712 C   0  0  0  0  0  0  0  0  0  0  0  0
    0.5878   -0.6798   -0.2479 C   0  0  0  0  0  0  0  0  0  0  0  0
   -0.4858   -0.3834   -1.2189 N   0  0  0  0  0  0  0  0  0  0  0  0
   -1.7814   -0.2660   -0.7161 C   0  0  0  0  0  0  0  0  0  0  0  0
   -2.3879    0.8935   -0.7776 N   0  0  0  0  0  0  0  0  0  0  0  0
   -3.6831    1.0523   -0.2444 C   0  0  0  0  0  0  0  0  0  0  0  0
   -4.2803    2.3123   -0.3181 C   0  0  0  0  0  0  0  0  0  0  0  0
   -5.5575    2.5284    0.2060 C   0  0  0  0  0  0  0  0  0  0  0  0
   -6.2526    1.4809    0.8114 C   0  0  0  0  0  0  0  0  0  0  0  0
   -5.6767    0.2128    0.8953 C   0  0  0  0  0  0  0  0  0  0  0  0
   -4.3978    0.0121    0.3677 C   0  0  0  0  0  0  0  0  0  0  0  0
   -3.7483   -1.2328    0.4005 N   0  0  0  0  0  0  0  0  0  0  0  0
   -4.1836   -2.4373    0.9009 C   0  0  0  0  0  0  0  0  0  0  0  0
   -3.2174   -3.3856    0.6425 C   0  0  0  0  0  0  0  0  0  0  0  0
   -2.1551   -2.7309   -0.0235 C   0  0  0  0  0  0  0  0  0  0  0  0
   -2.4890   -1.3927   -0.1318 C   0  0  0  0  0  0  0  0  0  0  0  0
   -0.0644    0.6010   -2.2367 C   0  0  0  0  0  0  0  0  0  0  0  0
    1.2573    0.1698   -2.9104 C   0  0  0  0  0  0  0  0  0  0  0  0
    3.6007    1.2574    1.7052 C   0  0  0  0  0  0  0  0  0  0  0  0
    3.6432    0.8176    3.0340 C   0  0  0  0  0  0  0  0  0  0  0  0
    2.7306    1.7068    4.2023 Cl  0  0  0  0  0  0  0  0  0  0  0  0
    5.7374   -1.8396    2.6396 H   0  0  0  0  0  0  0  0  0  0  0  0
    5.6578   -1.0706    0.3041 H   0  0  0  0  0  0  0  0  0  0  0  0
    4.9260    0.4221   -1.3582 H   0  0  0  0  0  0  0  0  0  0  0  0
    4.7458    2.0476   -0.7455 H   0  0  0  0  0  0  0  0  0  0  0  0
    3.0194    1.8719   -2.2182 H   0  0  0  0  0  0  0  0  0  0  0  0
    2.1608    1.6231   -0.7134 H   0  0  0  0  0  0  0  0  0  0  0  0
    1.7241   -2.0226   -1.4933 H   0  0  0  0  0  0  0  0  0  0  0  0
    2.6697   -1.2973   -0.2349 H   0  0  0  0  0  0  0  0  0  0  0  0
    0.7490    0.1932    0.3960 H   0  0  0  0  0  0  0  0  0  0  0  0
    0.3044   -1.5077    0.4095 H   0  0  0  0  0  0  0  0  0  0  0  0
   -3.7410    3.1311   -0.7867 H   0  0  0  0  0  0  0  0  0  0  0  0
   -6.0076    3.5159    0.1417 H   0  0  0  0  0  0  0  0  0  0  0  0
   -7.2455    1.6544    1.2183 H   0  0  0  0  0  0  0  0  0  0  0  0
   -6.2370   -0.5869    1.3682 H   0  0  0  0  0  0  0  0  0  0  0  0
   -5.1433   -2.5393    1.3852 H   0  0  0  0  0  0  0  0  0  0  0  0
   -3.2776   -4.4359    0.8979 H   0  0  0  0  0  0  0  0  0  0  0  0
   -1.2431   -3.1851   -0.3881 H   0  0  0  0  0  0  0  0  0  0  0  0
    0.0479    1.5922   -1.7805 H   0  0  0  0  0  0  0  0  0  0  0  0
   -0.8339    0.6776   -3.0148 H   0  0  0  0  0  0  0  0  0  0  0  0
    1.5546    0.9194   -3.6543 H   0  0  0  0  0  0  0  0  0  0  0  0
    1.0734   -0.7503   -3.4819 H   0  0  0  0  0  0  0  0  0  0  0  0
    3.0162    2.1417    1.4563 H   0  0  0  0  0  0  0  0  0  0  0  0
  1  2  1  0
  2  3  2  0
  3  4  1  0
  4  5  2  0
  5  6  1  0
  6  7  1  0
  7  8  1  0
  8  9  1  0
  9 10  1  0
 10 11  1  0
 11 12  1  0
 12 13  2  0
 13 14  1  0
 14 15  2  0
 15 16  1  0
 16 17  2  0
 17 18  1  0
 18 19  2  0
 19 20  1  0
 20 21  1  0
 21 22  2  0
 22 23  1  0
 23 24  2  0
 11 25  1  0
 25 26  1  0
  5 27  1  0
 27 28  2  0
 28 29  1  0
 28  2  1  0
 26  8  1  0
 24 12  1  0
 19 14  1  0
 24 20  1  0
  3 30  1  0
  4 31  1  0
  6 32  1  0
  6 33  1  0
  7 34  1  0
  7 35  1  0
  9 36  1  0
  9 37  1  0
 10 38  1  0
 10 39  1  0
 15 40  1  0
 16 41  1  0
 17 42  1  0
 18 43  1  0
 21 44  1  0
 22 45  1  0
 23 46  1  0
 25 47  1  0
 25 48  1  0
 26 49  1  0
 26 50  1  0
 27 51  1  0
M  END
$$$$
