
     RDKit          3D

 38 40  0  0  0  0  0  0  0  0999 V2000
   -2.1862    1.2272    1.4346 C   0  0  0  0  0  0  0  0  0  0  0  0
   -1.4222    0.7189    0.2081 C   0  0  0  0  0  0  0  0  0  0  0  0
   -1.5051    1.7418   -0.9514 C   0  0  0  0  0  0  0  0  0  0  0  0
   -1.4043    0.9031   -2.2293 C   0  0  0  0  0  0  0  0  0  0  0  0
   -1.2170   -0.5366   -1.7294 C   0  0  0  0  0  0  0  0  0  0  0  0
    0.2817   -0.7499   -1.5491 C   0  0  0  0  0  0  0  0  0  0  0  0
    0.8794   -1.4002   -2.4078 O   0  0  0  0  0  0  0  0  0  0  0  0
    0.8614   -0.0863   -0.4505 N   0  0  0  0  0  0  0  0  0  0  0  0
    2.2960   -0.1505   -0.2499 C   0  0  0  0  0  0  0  0  0  0  0  0
    3.0600   -1.2548   -0.6652 C   0  0  0  0  0  0  0  0  0  0  0  0
    4.4468   -1.2982   -0.4762 C   0  0  0  0  0  0  0  0  0  0  0  0
    5.1022   -0.2331    0.1314 C   0  0  0  0  0  0  0  0  0  0  0  0
    4.3660    0.8694    0.5482 C   0  0  0  0  0  0  0  0  0  0  0  0
    5.1720    2.1989    1.2883 Cl  0  0  0  0  0  0  0  0  0  0  0  0
    2.9815    0.9142    0.3624 C   0  0  0  0  0  0  0  0  0  0  0  0
    0.0748    0.5315    0.5479 C   0  0  0  0  0  0  0  0  0  0  0  0
    0.4975    0.8768    1.6535 O   0  0  0  0  0  0  0  0  0  0  0  0
   -1.9733   -0.5946   -0.3951 C   0  0  0  0  0  0  0  0  0  0  0  0
   -3.5019   -0.5691   -0.6365 C   0  0  0  0  0  0  0  0  0  0  0  0
   -1.6845   -1.8640    0.4280 C   0  0  0  0  0  0  0  0  0  0  0  0
   -2.1511    0.5007    2.2536 H   0  0  0  0  0  0  0  0  0  0  0  0
   -1.7536    2.1628    1.8083 H   0  0  0  0  0  0  0  0  0  0  0  0
   -3.2378    1.4299    1.2082 H   0  0  0  0  0  0  0  0  0  0  0  0
   -2.4531    2.2923   -0.9463 H   0  0  0  0  0  0  0  0  0  0  0  0
   -0.6997    2.4844   -0.9075 H   0  0  0  0  0  0  0  0  0  0  0  0
   -0.5810    1.2462   -2.8657 H   0  0  0  0  0  0  0  0  0  0  0  0
   -2.3270    0.9947   -2.8134 H   0  0  0  0  0  0  0  0  0  0  0  0
   -1.5915   -1.2700   -2.4523 H   0  0  0  0  0  0  0  0  0  0  0  0
    2.5968   -2.1290   -1.1166 H   0  0  0  0  0  0  0  0  0  0  0  0
    5.0094   -2.1696   -0.8031 H   0  0  0  0  0  0  0  0  0  0  0  0
    6.1785   -0.2682    0.2758 H   0  0  0  0  0  0  0  0  0  0  0  0
    2.4528    1.8086    0.6829 H   0  0  0  0  0  0  0  0  0  0  0  0
   -3.8440    0.3361   -1.1463 H   0  0  0  0  0  0  0  0  0  0  0  0
   -3.8089   -1.4234   -1.2512 H   0  0  0  0  0  0  0  0  0  0  0  0
   -4.0522   -0.6338    0.3090 H   0  0  0  0  0  0  0  0  0  0  0  0
   -2.2201   -1.8394    1.3836 H   0  0  0  0  0  0  0  0  0  0  0  0
   -0.6264   -2.0102    0.6601 H   0  0  0  0  0  0  0  0  0  0  0  0
   -2.0159   -2.7569   -0.1150 H   0  0  0  0  0  0  0  0  0  0  0  0
  1  2  1  0
  2  3  1  0
  3  4  1  0
  4  5  1  0
  5  6  1  0
  6  7  2  0
  6  8  1  0
  8  9  1  0
  9 10  2  0
 10 11  1  0
 11 12  2  0
 12 13  1  0
 13 14  1  0
 13 15  2  0
  8 16  1  0
 16 17  2  0
  5 18  1  0
 18 19  1  0
 18 20  1  0
 16  2  1  0
 18  2  1  0
 15  9  1  0
  1 21  1  0
  1 22  1  0
  1 23  1  0
  3 24  1  0
  3 25  1  0
  4 26  1  0
  4 27  1  0
  5 28  1  0
 10 29  1  0
 11 30  1  0
 12 31  1  0
 15 32  1  0
 19 33  1  0
 19 34  1  0
 19 35  1  0
 20 36  1  0
 20 37  1  0
 20 38  1  0
M  END
$$$$
