
     RDKit          3D

 71 77  0  0  0  0  0  0  0  0999 V2000
    5.7286    0.7266   -1.8749 C   0  0  0  0  0  0  0  0  0  0  0  0
    4.5935    1.1341   -1.1231 O   0  0  0  0  0  0  0  0  0  0  0  0
    4.5688    0.5466    0.1824 C   0  0  0  0  0  0  0  0  0  0  0  0
    4.1823   -0.9603    0.1593 C   0  0  0  0  0  0  0  0  0  0  0  0
    4.8875   -1.7761    0.7667 O   0  0  0  0  0  0  0  0  0  0  0  0
    3.0495   -1.3639   -0.5315 N   0  0  0  0  0  0  0  0  0  0  0  0
    2.6446   -2.7787   -0.4973 C   0  0  0  0  0  0  0  0  0  0  0  0
    1.2130   -2.9630    0.0773 C   0  0  0  0  0  0  0  0  0  0  0  0
    0.3742   -1.8141   -0.2117 N   0  0  0  0  0  0  0  0  0  0  0  0
    0.7407   -1.0884   -1.4592 C   0  0  2  0  0  0  0  0  0  0  0  0
    2.1238   -0.4489   -1.2507 C   0  0  0  0  0  0  0  0  0  0  0  0
   -0.4219   -0.1871   -1.5863 C   0  0  0  0  0  0  0  0  0  0  0  0
   -1.4814   -0.6093   -0.7689 C   0  0  0  0  0  0  0  0  0  0  0  0
   -2.5223    0.2724   -0.9228 C   0  0  0  0  0  0  0  0  0  0  0  0
   -3.7353    0.2722   -0.3737 O   0  0  0  0  0  0  0  0  0  0  0  0
   -2.1172    1.2361   -1.8712 N   0  0  0  0  0  0  0  0  0  0  0  0
   -2.9212    2.2980   -2.3942 C   0  0  0  0  0  0  0  0  0  0  0  0
   -3.8891    2.9180   -1.5957 C   0  0  0  0  0  0  0  0  0  0  0  0
   -4.6526    3.9712   -2.1062 C   0  0  0  0  0  0  0  0  0  0  0  0
   -4.4641    4.4030   -3.4171 C   0  0  0  0  0  0  0  0  0  0  0  0
   -3.5174    3.7777   -4.2250 C   0  0  0  0  0  0  0  0  0  0  0  0
   -2.7485    2.7276   -3.7188 C   0  0  0  0  0  0  0  0  0  0  0  0
   -0.7780    0.9659   -2.2235 C   0  0  0  0  0  0  0  0  0  0  0  0
   -0.0114    1.7476   -2.9811 O   0  0  0  0  0  0  0  0  0  0  0  0
   -1.0834   -1.8330   -0.0233 C   0  0  1  0  0  0  0  0  0  0  0  0
   -1.7918   -3.1161   -0.5185 C   0  0  0  0  0  0  0  0  0  0  0  0
   -1.6999   -3.6719   -1.6033 O   0  0  0  0  0  0  0  0  0  0  0  0
   -2.5792   -3.5693    0.5447 N   0  0  0  0  0  0  0  0  0  0  0  0
   -2.4371   -2.7674    1.6768 C   0  0  0  0  0  0  0  0  0  0  0  0
   -1.5517   -1.7154    1.3975 C   0  0  0  0  0  0  0  0  0  0  0  0
   -1.2197   -0.7862    2.3700 C   0  0  0  0  0  0  0  0  0  0  0  0
   -1.8020   -0.9230    3.6293 C   0  0  0  0  0  0  0  0  0  0  0  0
   -2.6972   -1.9783    3.8992 C   0  0  0  0  0  0  0  0  0  0  0  0
   -3.3624   -2.0606    5.4946 Cl  0  0  0  0  0  0  0  0  0  0  0  0
   -3.0379   -2.9310    2.9183 C   0  0  0  0  0  0  0  0  0  0  0  0
   -3.9850   -4.0565    3.2125 C   0  0  0  0  0  0  0  0  0  0  0  0
    3.7114    1.3941    1.1252 C   0  0  0  0  0  0  0  0  0  0  0  0
    3.0082    0.8321    2.2052 C   0  0  0  0  0  0  0  0  0  0  0  0
    2.2605    1.6351    3.0703 C   0  0  0  0  0  0  0  0  0  0  0  0
    2.2167    3.0154    2.8831 C   0  0  0  0  0  0  0  0  0  0  0  0
    2.9245    3.5937    1.8334 C   0  0  0  0  0  0  0  0  0  0  0  0
    3.6709    2.7917    0.9671 C   0  0  0  0  0  0  0  0  0  0  0  0
    5.6792    1.2078   -2.8555 H   0  0  0  0  0  0  0  0  0  0  0  0
    5.7318   -0.3578   -2.0234 H   0  0  0  0  0  0  0  0  0  0  0  0
    6.6522    1.0437   -1.3798 H   0  0  0  0  0  0  0  0  0  0  0  0
    5.5845    0.5998    0.6008 H   0  0  0  0  0  0  0  0  0  0  0  0
    2.6741   -3.1313   -1.5349 H   0  0  0  0  0  0  0  0  0  0  0  0
    3.3509   -3.3908    0.0709 H   0  0  0  0  0  0  0  0  0  0  0  0
    1.2856   -3.0743    1.1664 H   0  0  0  0  0  0  0  0  0  0  0  0
    0.8004   -3.8976   -0.3202 H   0  0  0  0  0  0  0  0  0  0  0  0
    0.7563   -1.7835   -2.3098 H   0  0  0  0  0  0  0  0  0  0  0  0
    2.5779   -0.2163   -2.2206 H   0  0  0  0  0  0  0  0  0  0  0  0
    2.0309    0.4855   -0.6933 H   0  0  0  0  0  0  0  0  0  0  0  0
   -3.7906   -0.4846    0.2352 H   0  0  0  0  0  0  0  0  0  0  0  0
   -4.0446    2.6230   -0.5616 H   0  0  0  0  0  0  0  0  0  0  0  0
   -5.3932    4.4565   -1.4762 H   0  0  0  0  0  0  0  0  0  0  0  0
   -5.0595    5.2226   -3.8096 H   0  0  0  0  0  0  0  0  0  0  0  0
   -3.3863    4.1010   -5.2545 H   0  0  0  0  0  0  0  0  0  0  0  0
   -2.0573    2.2250   -4.3916 H   0  0  0  0  0  0  0  0  0  0  0  0
   -0.3794    2.6498   -2.9668 H   0  0  0  0  0  0  0  0  0  0  0  0
   -3.1281   -4.4138    0.4725 H   0  0  0  0  0  0  0  0  0  0  0  0
   -0.5226    0.0205    2.1549 H   0  0  0  0  0  0  0  0  0  0  0  0
   -1.5550   -0.2064    4.4093 H   0  0  0  0  0  0  0  0  0  0  0  0
   -3.5799   -4.6978    4.0022 H   0  0  0  0  0  0  0  0  0  0  0  0
   -4.1627   -4.6915    2.3407 H   0  0  0  0  0  0  0  0  0  0  0  0
   -4.9585   -3.6646    3.5260 H   0  0  0  0  0  0  0  0  0  0  0  0
    3.0252   -0.2409    2.3905 H   0  0  0  0  0  0  0  0  0  0  0  0
    1.7171    1.1798    3.8932 H   0  0  0  0  0  0  0  0  0  0  0  0
    1.6356    3.6396    3.5553 H   0  0  0  0  0  0  0  0  0  0  0  0
    2.9042    4.6716    1.6905 H   0  0  0  0  0  0  0  0  0  0  0  0
    4.2210    3.2644    0.1545 H   0  0  0  0  0  0  0  0  0  0  0  0
  1  2  1  0
  2  3  1  0
  3  4  1  0
  4  5  2  0
  4  6  1  0
  6  7  1  0
  7  8  1  0
  8  9  1  0
  9 10  1  0
 10 11  1  0
 10 12  1  0
 12 13  1  0
 13 14  2  0
 14 15  1  0
 14 16  1  0
 16 17  1  0
 17 18  2  0
 18 19  1  0
 19 20  2  0
 20 21  1  0
 21 22  2  0
 16 23  1  0
 23 24  1  0
 13 25  1  0
 25 26  1  0
 26 27  2  0
 26 28  1  0
 28 29  1  0
 29 30  2  0
 30 31  1  0
 31 32  2  0
 32 33  1  0
 33 34  1  0
 33 35  2  0
 35 36  1  0
  3 37  1  0
 37 38  2  0
 38 39  1  0
 39 40  2  0
 40 41  1  0
 41 42  2  0
 11  6  1  0
 23 12  2  0
 30 25  1  0
 42 37  1  0
 25  9  1  1
 35 29  1  0
 22 17  1  0
  1 43  1  0
  1 44  1  0
  1 45  1  0
  3 46  1  0
  7 47  1  0
  7 48  1  0
  8 49  1  0
  8 50  1  0
 10 51  1  6
 11 52  1  0
 11 53  1  0
 15 54  1  0
 18 55  1  0
 19 56  1  0
 20 57  1  0
 21 58  1  0
 22 59  1  0
 24 60  1  0
 28 61  1  0
 31 62  1  0
 32 63  1  0
 36 64  1  0
 36 65  1  0
 36 66  1  0
 38 67  1  0
 39 68  1  0
 40 69  1  0
 41 70  1  0
 42 71  1  0
M  END
$$$$
