
     RDKit          3D

 45 47  0  0  0  0  0  0  0  0999 V2000
   -8.2460   -0.6503   -0.1298 C   0  0  0  0  0  0  0  0  0  0  0  0
   -6.8678   -0.6424   -0.7669 C   0  0  0  0  0  0  0  0  0  0  0  0
   -5.9009   -0.6555    0.2788 O   0  0  0  0  0  0  0  0  0  0  0  0
   -4.5739   -0.6465   -0.0721 C   0  0  0  0  0  0  0  0  0  0  0  0
   -4.1039   -0.6322   -1.3889 C   0  0  0  0  0  0  0  0  0  0  0  0
   -2.7308   -0.6224   -1.6496 C   0  0  0  0  0  0  0  0  0  0  0  0
   -1.8118   -0.6218   -0.5985 C   0  0  0  0  0  0  0  0  0  0  0  0
   -0.3767   -0.6340   -0.9036 C   0  0  0  0  0  0  0  0  0  0  0  0
    0.5108    0.3138   -0.5723 C   0  0  0  0  0  0  0  0  0  0  0  0
    0.2251    1.7933    0.2694 S   0  0  0  0  0  0  0  0  0  0  0  0
    1.9169    2.2820    0.1988 C   0  0  0  0  0  0  0  0  0  0  0  0
    2.4827    3.7275    0.8095 S   0  0  0  0  0  0  0  0  0  0  0  0
    2.6270    1.3015   -0.4623 N   0  0  0  0  0  0  0  0  0  0  0  0
    4.0270    1.3503   -0.6102 N   0  0  0  0  0  0  0  0  0  0  0  0
    4.7620    0.7264    0.3850 C   0  0  0  0  0  0  0  0  0  0  0  0
    4.2738    0.3183    1.4342 O   0  0  0  0  0  0  0  0  0  0  0  0
    6.2067    0.5285    0.1028 C   0  0  0  0  0  0  0  0  0  0  0  0
    6.8648   -0.5280    0.7327 C   0  0  0  0  0  0  0  0  0  0  0  0
    8.2088   -0.7058    0.4665 C   0  0  0  0  0  0  0  0  0  0  0  0
    8.9173    0.0906   -0.3624 N   0  0  0  0  0  0  0  0  0  0  0  0
    8.2614    1.1184   -0.9409 C   0  0  0  0  0  0  0  0  0  0  0  0
    6.9171    1.3804   -0.7440 C   0  0  0  0  0  0  0  0  0  0  0  0
    1.9468    0.1986   -0.9469 C   0  0  0  0  0  0  0  0  0  0  0  0
    2.4249   -0.7101   -1.6136 O   0  0  0  0  0  0  0  0  0  0  0  0
   -2.2777   -0.6502    0.7223 C   0  0  0  0  0  0  0  0  0  0  0  0
   -3.6518   -0.6527    0.9939 C   0  0  0  0  0  0  0  0  0  0  0  0
   -4.1910   -0.6747    2.2572 O   0  0  0  0  0  0  0  0  0  0  0  0
   -3.3016   -0.5298    3.3553 C   0  0  0  0  0  0  0  0  0  0  0  0
   -9.0286   -0.6408   -0.8936 H   0  0  0  0  0  0  0  0  0  0  0  0
   -8.3753    0.2216    0.5201 H   0  0  0  0  0  0  0  0  0  0  0  0
   -8.3753   -1.5380    0.4982 H   0  0  0  0  0  0  0  0  0  0  0  0
   -6.7606    0.2640   -1.3738 H   0  0  0  0  0  0  0  0  0  0  0  0
   -6.7606   -1.5333   -1.3961 H   0  0  0  0  0  0  0  0  0  0  0  0
   -4.7799   -0.6291   -2.2371 H   0  0  0  0  0  0  0  0  0  0  0  0
   -2.3898   -0.6121   -2.6827 H   0  0  0  0  0  0  0  0  0  0  0  0
   -0.0453   -1.5061   -1.4667 H   0  0  0  0  0  0  0  0  0  0  0  0
    4.3515    1.2761   -1.5693 H   0  0  0  0  0  0  0  0  0  0  0  0
    6.3441   -1.1965    1.4110 H   0  0  0  0  0  0  0  0  0  0  0  0
    8.7699   -1.5151    0.9257 H   0  0  0  0  0  0  0  0  0  0  0  0
    8.8696    1.7498   -1.5833 H   0  0  0  0  0  0  0  0  0  0  0  0
    6.4646    2.2425   -1.2191 H   0  0  0  0  0  0  0  0  0  0  0  0
   -1.5517   -0.6784    1.5282 H   0  0  0  0  0  0  0  0  0  0  0  0
   -3.9025   -0.4884    4.2689 H   0  0  0  0  0  0  0  0  0  0  0  0
   -2.7346    0.4047    3.2880 H   0  0  0  0  0  0  0  0  0  0  0  0
   -2.6343   -1.3939    3.4363 H   0  0  0  0  0  0  0  0  0  0  0  0
  1  2  1  0
  2  3  1  0
  3  4  1  0
  4  5  2  0
  5  6  1  0
  6  7  2  0
  7  8  1  0
  8  9  2  3
  9 10  1  0
 10 11  1  0
 11 12  2  0
 11 13  1  0
 13 14  1  0
 14 15  1  0
 15 16  2  0
 15 17  1  0
 17 18  2  0
 18 19  1  0
 19 20  2  0
 20 21  1  0
 21 22  2  0
 13 23  1  0
 23 24  2  0
  7 25  1  0
 25 26  2  0
 26 27  1  0
 27 28  1  0
 26  4  1  0
 23  9  1  0
 22 17  1  0
  1 29  1  0
  1 30  1  0
  1 31  1  0
  2 32  1  0
  2 33  1  0
  5 34  1  0
  6 35  1  0
  8 36  1  0
 14 37  1  0
 18 38  1  0
 19 39  1  0
 21 40  1  0
 22 41  1  0
 25 42  1  0
 28 43  1  0
 28 44  1  0
 28 45  1  0
M  END
$$$$
