
     RDKit          3D

 74 79  0  0  0  0  0  0  0  0999 V2000
    8.6068   -0.2490   -4.8090 C   0  0  0  0  0  0  0  0  0  0  0  0
    8.6746   -0.2782   -3.3858 O   0  0  0  0  0  0  0  0  0  0  0  0
    7.4953   -0.4630   -2.7185 C   0  0  0  0  0  0  0  0  0  0  0  0
    6.2720   -0.8003   -3.2915 C   0  0  0  0  0  0  0  0  0  0  0  0
    5.1331   -0.9687   -2.4865 C   0  0  0  0  0  0  0  0  0  0  0  0
    5.1793   -0.7967   -1.0904 C   0  0  0  0  0  0  0  0  0  0  0  0
    3.9858   -0.9606   -0.2254 C   0  0  0  0  0  0  0  0  0  0  0  0
    2.6847   -0.8579   -0.6867 C   0  0  0  0  0  0  0  0  0  0  0  0
    1.6387   -1.0144    0.2243 C   0  0  0  0  0  0  0  0  0  0  0  0
    0.2730   -0.8329   -0.3133 C   0  0  0  0  0  0  0  0  0  0  0  0
   -0.1245   -1.6023   -1.1773 O   0  0  0  0  0  0  0  0  0  0  0  0
   -0.3971    0.2294    0.2373 N   0  0  0  0  0  0  0  0  0  0  0  0
   -1.6816    0.7137   -0.0740 C   0  0  0  0  0  0  0  0  0  0  0  0
   -2.4831    0.1972   -1.0891 C   0  0  0  0  0  0  0  0  0  0  0  0
   -3.7480    0.7507   -1.3087 C   0  0  0  0  0  0  0  0  0  0  0  0
   -4.7657    0.1137   -2.6250 S   0  0  0  0  0  6  0  0  0  0  0  0
   -3.8880   -0.4265   -3.6401 O   0  0  0  0  0  0  0  0  0  0  0  0
   -5.7376    1.1392   -2.9470 O   0  0  0  0  0  0  0  0  0  0  0  0
   -5.5886   -1.1683   -1.8988 N   0  0  0  0  0  0  0  0  0  0  0  0
   -4.8339   -2.4271   -1.6470 C   0  0  0  0  0  0  0  0  0  0  0  0
   -5.7270   -3.4229   -0.8976 C   0  0  0  0  0  0  0  0  0  0  0  0
   -6.1426   -2.9471    0.3934 O   0  0  0  0  0  0  0  0  0  0  0  0
   -6.2564   -1.5194    0.4668 C   0  0  0  0  0  0  0  0  0  0  0  0
   -6.6165   -0.8630   -0.8686 C   0  0  0  0  0  0  0  0  0  0  0  0
   -4.1966    1.8401   -0.5549 C   0  0  0  0  0  0  0  0  0  0  0  0
   -3.3890    2.3600    0.4568 C   0  0  0  0  0  0  0  0  0  0  0  0
   -2.1288    1.8029    0.7157 C   0  0  0  0  0  0  0  0  0  0  0  0
   -1.2749    2.2854    1.7373 N   0  0  0  0  0  0  0  0  0  0  0  0
   -0.8171    3.6857    1.5405 C   0  0  0  0  0  0  0  0  0  0  0  0
   -1.3575    4.6280    2.6286 C   0  0  0  0  0  0  0  0  0  0  0  0
   -1.0303    4.2157    3.9645 O   0  0  0  0  0  0  0  0  0  0  0  0
   -0.9695    2.7896    4.1315 C   0  0  0  0  0  0  0  0  0  0  0  0
   -1.8035    2.0175    3.0962 C   0  0  0  0  0  0  0  0  0  0  0  0
    1.8803   -1.3037    1.5832 C   0  0  0  0  0  0  0  0  0  0  0  0
    0.8782   -1.5358    2.5628 C   0  0  0  0  0  0  0  0  0  0  0  0
    1.2175   -1.8055    3.8879 C   0  0  0  0  0  0  0  0  0  0  0  0
    2.5550   -1.8550    4.2513 C   0  0  0  0  0  0  0  0  0  0  0  0
    3.5427   -1.6422    3.2851 C   0  0  0  0  0  0  0  0  0  0  0  0
    3.2316   -1.3753    1.9576 C   0  0  0  0  0  0  0  0  0  0  0  0
    4.2407   -1.1996    1.0867 N   0  0  0  0  0  0  0  0  0  0  0  0
    6.4310   -0.4668   -0.5365 C   0  0  0  0  0  0  0  0  0  0  0  0
    7.5701   -0.3053   -1.3357 C   0  0  0  0  0  0  0  0  0  0  0  0
    8.2928   -1.2202   -5.2091 H   0  0  0  0  0  0  0  0  0  0  0  0
    7.9463    0.5562   -5.1537 H   0  0  0  0  0  0  0  0  0  0  0  0
    9.6130   -0.0439   -5.1927 H   0  0  0  0  0  0  0  0  0  0  0  0
    6.1638   -0.9531   -4.3608 H   0  0  0  0  0  0  0  0  0  0  0  0
    4.2098   -1.2586   -2.9845 H   0  0  0  0  0  0  0  0  0  0  0  0
    2.4599   -0.6354   -1.7241 H   0  0  0  0  0  0  0  0  0  0  0  0
    0.0599    0.7874    0.9582 H   0  0  0  0  0  0  0  0  0  0  0  0
   -2.1379   -0.6145   -1.7227 H   0  0  0  0  0  0  0  0  0  0  0  0
   -4.5323   -2.8612   -2.6037 H   0  0  0  0  0  0  0  0  0  0  0  0
   -3.9466   -2.2158   -1.0456 H   0  0  0  0  0  0  0  0  0  0  0  0
   -5.1982   -4.3694   -0.7422 H   0  0  0  0  0  0  0  0  0  0  0  0
   -6.6315   -3.6422   -1.4775 H   0  0  0  0  0  0  0  0  0  0  0  0
   -7.0232   -1.2908    1.2150 H   0  0  0  0  0  0  0  0  0  0  0  0
   -5.3042   -1.1287    0.8438 H   0  0  0  0  0  0  0  0  0  0  0  0
   -7.5697   -1.2590   -1.2377 H   0  0  0  0  0  0  0  0  0  0  0  0
   -6.7425    0.2141   -0.7250 H   0  0  0  0  0  0  0  0  0  0  0  0
   -5.1660    2.2923   -0.7527 H   0  0  0  0  0  0  0  0  0  0  0  0
   -3.7504    3.2053    1.0357 H   0  0  0  0  0  0  0  0  0  0  0  0
   -1.0718    4.0710    0.5458 H   0  0  0  0  0  0  0  0  0  0  0  0
    0.2780    3.6653    1.6008 H   0  0  0  0  0  0  0  0  0  0  0  0
   -2.4461    4.7198    2.5616 H   0  0  0  0  0  0  0  0  0  0  0  0
   -0.9398    5.6273    2.4845 H   0  0  0  0  0  0  0  0  0  0  0  0
    0.0857    2.4928    4.0800 H   0  0  0  0  0  0  0  0  0  0  0  0
   -1.3308    2.5706    5.1395 H   0  0  0  0  0  0  0  0  0  0  0  0
   -2.8503    2.3348    3.1833 H   0  0  0  0  0  0  0  0  0  0  0  0
   -1.7453    0.9421    3.3032 H   0  0  0  0  0  0  0  0  0  0  0  0
   -0.1757   -1.5283    2.2923 H   0  0  0  0  0  0  0  0  0  0  0  0
    0.4412   -1.9857    4.6283 H   0  0  0  0  0  0  0  0  0  0  0  0
    2.8387   -2.0701    5.2794 H   0  0  0  0  0  0  0  0  0  0  0  0
    4.5894   -1.6969    3.5764 H   0  0  0  0  0  0  0  0  0  0  0  0
    6.5313   -0.3343    0.5398 H   0  0  0  0  0  0  0  0  0  0  0  0
    8.5193   -0.0520   -0.8688 H   0  0  0  0  0  0  0  0  0  0  0  0
  1  2  1  0
  2  3  1  0
  3  4  2  0
  4  5  1  0
  5  6  2  0
  6  7  1  0
  7  8  2  0
  8  9  1  0
  9 10  1  0
 10 11  2  0
 10 12  1  0
 12 13  1  0
 13 14  2  0
 14 15  1  0
 15 16  1  0
 16 17  2  0
 16 18  2  0
 16 19  1  0
 19 20  1  0
 20 21  1  0
 21 22  1  0
 22 23  1  0
 23 24  1  0
 15 25  2  0
 25 26  1  0
 26 27  2  0
 27 28  1  0
 28 29  1  0
 29 30  1  0
 30 31  1  0
 31 32  1  0
 32 33  1  0
  9 34  2  0
 34 35  1  0
 35 36  2  0
 36 37  1  0
 37 38  2  0
 38 39  1  0
 39 40  2  0
  6 41  1  0
 41 42  2  0
 42  3  1  0
 40  7  1  0
 27 13  1  0
 33 28  1  0
 39 34  1  0
 24 19  1  0
  1 43  1  0
  1 44  1  0
  1 45  1  0
  4 46  1  0
  5 47  1  0
  8 48  1  0
 12 49  1  0
 14 50  1  0
 20 51  1  0
 20 52  1  0
 21 53  1  0
 21 54  1  0
 23 55  1  0
 23 56  1  0
 24 57  1  0
 24 58  1  0
 25 59  1  0
 26 60  1  0
 29 61  1  0
 29 62  1  0
 30 63  1  0
 30 64  1  0
 32 65  1  0
 32 66  1  0
 33 67  1  0
 33 68  1  0
 35 69  1  0
 36 70  1  0
 37 71  1  0
 38 72  1  0
 41 73  1  0
 42 74  1  0
M  END
$$$$
