
     RDKit          3D

 40 42  0  0  0  0  0  0  0  0999 V2000
    0.1173   -3.4292    1.8130 O   0  0  0  0  0  0  0  0  0  0  0  0
    0.5533   -2.5045    1.1292 C   0  0  0  0  0  0  0  0  0  0  0  0
    1.7441   -2.7003    0.2001 C   0  0  0  0  0  0  0  0  0  0  0  0
    2.5675   -1.4604   -0.0677 C   0  0  0  0  0  0  0  0  0  0  0  0
    3.4288   -0.9560    0.9167 C   0  0  0  0  0  0  0  0  0  0  0  0
    4.1571    0.2117    0.6856 C   0  0  0  0  0  0  0  0  0  0  0  0
    4.0313    0.8851   -0.5280 C   0  0  0  0  0  0  0  0  0  0  0  0
    3.1774    0.3922   -1.5128 C   0  0  0  0  0  0  0  0  0  0  0  0
    2.4471   -0.7750   -1.2850 C   0  0  0  0  0  0  0  0  0  0  0  0
   -0.0447   -1.2659    1.0920 N   0  0  0  0  0  0  0  0  0  0  0  0
   -1.1451   -0.9253    1.9796 C   0  0  0  0  0  0  0  0  0  0  0  0
   -1.9043    0.3692    1.5972 C   0  0  0  0  0  0  0  0  0  0  0  0
   -1.1569    1.5187    2.0488 O   0  0  0  0  0  0  0  0  0  0  0  0
   -0.4058    2.1848    1.0384 C   0  0  0  0  0  0  0  0  0  0  0  0
   -1.3245    2.6975   -0.0594 C   0  0  0  0  0  0  0  0  0  0  0  0
   -2.0937    1.5487   -0.6502 C   0  0  0  0  0  0  0  0  0  0  0  0
   -2.5667    1.6132   -1.9673 C   0  0  0  0  0  0  0  0  0  0  0  0
   -3.3065    0.5594   -2.4996 C   0  0  0  0  0  0  0  0  0  0  0  0
   -3.5890   -0.5568   -1.7168 C   0  0  0  0  0  0  0  0  0  0  0  0
   -3.1342   -0.6203   -0.3988 C   0  0  0  0  0  0  0  0  0  0  0  0
   -2.3787    0.4280    0.1506 C   0  0  0  0  0  0  0  0  0  0  0  0
    1.3633   -3.1146   -0.7412 H   0  0  0  0  0  0  0  0  0  0  0  0
    2.3985   -3.4633    0.6402 H   0  0  0  0  0  0  0  0  0  0  0  0
    3.5344   -1.4685    1.8712 H   0  0  0  0  0  0  0  0  0  0  0  0
    4.8261    0.5941    1.4531 H   0  0  0  0  0  0  0  0  0  0  0  0
    4.6024    1.7920   -0.7078 H   0  0  0  0  0  0  0  0  0  0  0  0
    3.0823    0.9151   -2.4609 H   0  0  0  0  0  0  0  0  0  0  0  0
    1.7812   -1.1444   -2.0627 H   0  0  0  0  0  0  0  0  0  0  0  0
    0.4847   -0.5034    0.6929 H   0  0  0  0  0  0  0  0  0  0  0  0
   -0.7186   -0.8251    2.9843 H   0  0  0  0  0  0  0  0  0  0  0  0
   -1.8344   -1.7770    1.9977 H   0  0  0  0  0  0  0  0  0  0  0  0
   -2.8100    0.3891    2.2174 H   0  0  0  0  0  0  0  0  0  0  0  0
    0.1045    3.0294    1.5136 H   0  0  0  0  0  0  0  0  0  0  0  0
    0.3708    1.5236    0.6437 H   0  0  0  0  0  0  0  0  0  0  0  0
   -0.7300    3.2043   -0.8277 H   0  0  0  0  0  0  0  0  0  0  0  0
   -2.0459    3.4121    0.3541 H   0  0  0  0  0  0  0  0  0  0  0  0
   -2.3629    2.4855   -2.5838 H   0  0  0  0  0  0  0  0  0  0  0  0
   -3.6693    0.6113   -3.5227 H   0  0  0  0  0  0  0  0  0  0  0  0
   -4.1711   -1.3770   -2.1290 H   0  0  0  0  0  0  0  0  0  0  0  0
   -3.3796   -1.4980    0.1958 H   0  0  0  0  0  0  0  0  0  0  0  0
  1  2  2  0
  2  3  1  0
  3  4  1  0
  4  5  2  0
  5  6  1  0
  6  7  2  0
  7  8  1  0
  8  9  2  0
  2 10  1  0
 10 11  1  0
 11 12  1  0
 12 13  1  0
 13 14  1  0
 14 15  1  0
 15 16  1  0
 16 17  2  0
 17 18  1  0
 18 19  2  0
 19 20  1  0
 20 21  2  0
  9  4  1  0
 21 12  1  0
 21 16  1  0
  3 22  1  0
  3 23  1  0
  5 24  1  0
  6 25  1  0
  7 26  1  0
  8 27  1  0
  9 28  1  0
 10 29  1  0
 11 30  1  0
 11 31  1  0
 12 32  1  0
 14 33  1  0
 14 34  1  0
 15 35  1  0
 15 36  1  0
 17 37  1  0
 18 38  1  0
 19 39  1  0
 20 40  1  0
M  END
$$$$
