
     RDKit          3D

 61 67  0  0  0  0  0  0  0  0999 V2000
    2.9445    0.4009    3.1604 O   0  0  0  0  0  0  0  0  0  0  0  0
    3.0112    0.1220    1.9653 C   0  0  0  0  0  0  0  0  0  0  0  0
    4.3282    0.2440    1.2993 C   0  0  0  0  0  0  0  0  0  0  0  0
    5.0622    1.4363    1.4738 C   0  0  0  0  0  0  0  0  0  0  0  0
    6.3189    1.5855    0.8801 C   0  0  0  0  0  0  0  0  0  0  0  0
    6.8068    0.5273    0.1429 C   0  0  0  0  0  0  0  0  0  0  0  0
    6.0985   -0.6437   -0.0071 C   0  0  0  0  0  0  0  0  0  0  0  0
    4.8580   -0.8245    0.5649 C   0  0  0  0  0  0  0  0  0  0  0  0
    6.7650   -1.5595   -0.7598 O   0  0  0  0  0  0  0  0  0  0  0  0
    7.9775   -0.8358   -1.0597 C   0  0  0  0  0  0  0  0  0  0  0  0
    8.0048    0.4933   -0.4990 O   0  0  0  0  0  0  0  0  0  0  0  0
    1.9080   -0.3012    1.2222 N   0  0  0  0  0  0  0  0  0  0  0  0
    0.6654   -0.5380    1.9442 C   0  0  0  0  0  0  0  0  0  0  0  0
   -0.2896   -1.4314    1.1631 C   0  0  0  0  0  0  0  0  0  0  0  0
   -0.6235   -0.8822   -0.2519 C   0  0  0  0  0  0  0  0  0  0  0  0
    0.4536    0.1318   -0.7239 C   0  0  0  0  0  0  0  0  0  0  0  0
    1.8436   -0.2718   -0.2410 C   0  0  0  0  0  0  0  0  0  0  0  0
   -0.4582   -1.9840   -1.1921 O   0  0  0  0  0  0  0  0  0  0  0  0
   -1.4926   -2.8579   -1.3413 C   0  0  0  0  0  0  0  0  0  0  0  0
   -1.2016   -4.0388   -2.0273 C   0  0  0  0  0  0  0  0  0  0  0  0
   -2.1937   -5.0035   -2.2109 C   0  0  0  0  0  0  0  0  0  0  0  0
   -3.4716   -4.7785   -1.7096 C   0  0  0  0  0  0  0  0  0  0  0  0
   -4.4195   -5.7078   -1.8835 F   0  0  0  0  0  0  0  0  0  0  0  0
   -3.7791   -3.6043   -1.0356 C   0  0  0  0  0  0  0  0  0  0  0  0
   -2.7814   -2.6406   -0.8655 C   0  0  0  0  0  0  0  0  0  0  0  0
   -3.0759   -1.3775   -0.1786 C   0  0  0  0  0  0  0  0  0  0  0  0
   -4.0991   -1.2755    0.4936 O   0  0  0  0  0  0  0  0  0  0  0  0
   -2.0472   -0.2637   -0.3489 C   0  0  0  0  0  0  0  0  0  0  0  0
   -2.3288    0.8835    0.6120 C   0  0  0  0  0  0  0  0  0  0  0  0
   -3.1384    1.7467   -0.2959 C   0  0  0  0  0  0  0  0  0  0  0  0
   -3.9324    2.8933    0.2054 C   0  0  0  0  0  0  0  0  0  0  0  0
   -3.8929    3.2818    1.5499 C   0  0  0  0  0  0  0  0  0  0  0  0
   -4.6530    4.3724    1.9863 C   0  0  0  0  0  0  0  0  0  0  0  0
   -5.4492    5.0738    1.0820 C   0  0  0  0  0  0  0  0  0  0  0  0
   -6.3800    6.4144    1.6243 Cl  0  0  0  0  0  0  0  0  0  0  0  0
   -5.4933    4.6956   -0.2577 C   0  0  0  0  0  0  0  0  0  0  0  0
   -4.7349    3.6066   -0.6959 C   0  0  0  0  0  0  0  0  0  0  0  0
   -3.0610    1.4361   -1.5509 N   0  0  0  0  0  0  0  0  0  0  0  0
   -2.2375    0.2951   -1.6597 O   0  0  0  0  0  0  0  0  0  0  0  0
    4.6494    2.2422    2.0778 H   0  0  0  0  0  0  0  0  0  0  0  0
    6.8946    2.4964    1.0015 H   0  0  0  0  0  0  0  0  0  0  0  0
    4.3286   -1.7639    0.4585 H   0  0  0  0  0  0  0  0  0  0  0  0
    8.8299   -1.4010   -0.6653 H   0  0  0  0  0  0  0  0  0  0  0  0
    8.0792   -0.7591   -2.1483 H   0  0  0  0  0  0  0  0  0  0  0  0
    0.8926   -0.9996    2.9124 H   0  0  0  0  0  0  0  0  0  0  0  0
    0.2125    0.4370    2.1547 H   0  0  0  0  0  0  0  0  0  0  0  0
    0.1703   -2.4254    1.0751 H   0  0  0  0  0  0  0  0  0  0  0  0
   -1.1997   -1.5779    1.7558 H   0  0  0  0  0  0  0  0  0  0  0  0
    0.4688    0.1872   -1.8198 H   0  0  0  0  0  0  0  0  0  0  0  0
    0.2457    1.1421   -0.3564 H   0  0  0  0  0  0  0  0  0  0  0  0
    2.1039   -1.2723   -0.6039 H   0  0  0  0  0  0  0  0  0  0  0  0
    2.5793    0.4355   -0.6359 H   0  0  0  0  0  0  0  0  0  0  0  0
   -0.2002   -4.2118   -2.4143 H   0  0  0  0  0  0  0  0  0  0  0  0
   -1.9786   -5.9273   -2.7394 H   0  0  0  0  0  0  0  0  0  0  0  0
   -4.7864   -3.4459   -0.6617 H   0  0  0  0  0  0  0  0  0  0  0  0
   -1.4404    1.4498    0.8987 H   0  0  0  0  0  0  0  0  0  0  0  0
   -2.8699    0.5892    1.5141 H   0  0  0  0  0  0  0  0  0  0  0  0
   -3.2804    2.7578    2.2775 H   0  0  0  0  0  0  0  0  0  0  0  0
   -4.6197    4.6694    3.0318 H   0  0  0  0  0  0  0  0  0  0  0  0
   -6.1133    5.2395   -0.9657 H   0  0  0  0  0  0  0  0  0  0  0  0
   -4.7779    3.3181   -1.7449 H   0  0  0  0  0  0  0  0  0  0  0  0
  1  2  2  0
  2  3  1  0
  3  4  2  0
  4  5  1  0
  5  6  2  0
  6  7  1  0
  7  8  2  0
  7  9  1  0
  9 10  1  0
 10 11  1  0
  2 12  1  0
 12 13  1  0
 13 14  1  0
 14 15  1  0
 15 16  1  0
 16 17  1  0
 15 18  1  0
 18 19  1  0
 19 20  2  0
 20 21  1  0
 21 22  2  0
 22 23  1  0
 22 24  1  0
 24 25  2  0
 25 26  1  0
 26 27  2  0
 26 28  1  0
 28 29  1  0
 29 30  1  0
 30 31  1  0
 31 32  2  0
 32 33  1  0
 33 34  2  0
 34 35  1  0
 34 36  1  0
 36 37  2  0
 30 38  2  0
 38 39  1  0
  8  3  1  0
 17 12  1  0
 25 19  1  0
 39 28  1  0
 11  6  1  0
 28 15  1  0
 37 31  1  0
  4 40  1  0
  5 41  1  0
  8 42  1  0
 10 43  1  0
 10 44  1  0
 13 45  1  0
 13 46  1  0
 14 47  1  0
 14 48  1  0
 16 49  1  0
 16 50  1  0
 17 51  1  0
 17 52  1  0
 20 53  1  0
 21 54  1  0
 24 55  1  0
 29 56  1  0
 29 57  1  0
 32 58  1  0
 33 59  1  0
 36 60  1  0
 37 61  1  0
M  END
$$$$
