
     RDKit          3D

 42 44  0  0  0  0  0  0  0  0999 V2000
   -3.3572    0.0528   -2.5201 C   0  0  0  0  0  0  0  0  0  0  0  0
   -3.7148    0.1216   -1.0577 C   0  0  0  0  0  0  0  0  0  0  0  0
   -5.0561    0.3989   -0.7280 C   0  0  0  0  0  0  0  0  0  0  0  0
   -5.4730    0.4348    0.5992 C   0  0  0  0  0  0  0  0  0  0  0  0
   -4.5490    0.1959    1.6051 C   0  0  0  0  0  0  0  0  0  0  0  0
   -5.0478    0.2347    3.2523 Cl  0  0  0  0  0  0  0  0  0  0  0  0
   -3.2120   -0.0643    1.2957 C   0  0  0  0  0  0  0  0  0  0  0  0
   -2.7580   -0.0895   -0.0349 C   0  0  0  0  0  0  0  0  0  0  0  0
   -1.4103   -0.3142   -0.3421 N   0  0  0  0  0  0  0  0  0  0  0  0
   -0.7057    0.8177   -0.9853 C   0  0  0  0  0  0  0  0  0  0  0  0
    0.6859    1.0593   -0.3562 C   0  0  0  0  0  0  0  0  0  0  0  0
    1.5292   -0.1694   -0.4040 N   0  0  0  0  0  0  0  0  0  0  0  0
    2.7342   -0.0361    0.2893 C   0  0  0  0  0  0  0  0  0  0  0  0
    2.7952    0.1407    1.6818 C   0  0  0  0  0  0  0  0  0  0  0  0
    4.0203    0.2645    2.3257 C   0  0  0  0  0  0  0  0  0  0  0  0
    5.1835    0.2089    1.5769 C   0  0  0  0  0  0  0  0  0  0  0  0
    5.0969    0.0294    0.2034 C   0  0  0  0  0  0  0  0  0  0  0  0
    3.8984   -0.0897   -0.4109 N   0  0  0  0  0  4  0  0  0  0  0  0
    3.8517   -0.2853   -1.8712 C   0  0  0  0  0  0  0  0  0  0  0  0
    0.7854   -1.4263   -0.0814 C   0  0  0  0  0  0  0  0  0  0  0  0
   -0.6027   -1.1659    0.5457 C   0  0  0  0  0  0  0  0  0  0  0  0
   -2.6393   -0.7508   -2.7132 H   0  0  0  0  0  0  0  0  0  0  0  0
   -2.9397    1.0078   -2.8525 H   0  0  0  0  0  0  0  0  0  0  0  0
   -4.2394   -0.1653   -3.1322 H   0  0  0  0  0  0  0  0  0  0  0  0
   -5.7898    0.5736   -1.5133 H   0  0  0  0  0  0  0  0  0  0  0  0
   -6.5130    0.6414    0.8367 H   0  0  0  0  0  0  0  0  0  0  0  0
   -2.5258   -0.2208    2.1209 H   0  0  0  0  0  0  0  0  0  0  0  0
   -0.5742    0.5820   -2.0479 H   0  0  0  0  0  0  0  0  0  0  0  0
   -1.2815    1.7492   -0.9156 H   0  0  0  0  0  0  0  0  0  0  0  0
    1.1912    1.8613   -0.9078 H   0  0  0  0  0  0  0  0  0  0  0  0
    0.5479    1.4031    0.6772 H   0  0  0  0  0  0  0  0  0  0  0  0
    1.8835    0.1817    2.2733 H   0  0  0  0  0  0  0  0  0  0  0  0
    4.0643    0.4028    3.4050 H   0  0  0  0  0  0  0  0  0  0  0  0
    6.1539    0.3033    2.0599 H   0  0  0  0  0  0  0  0  0  0  0  0
    5.9892   -0.0210   -0.4143 H   0  0  0  0  0  0  0  0  0  0  0  0
    3.3658   -1.2435   -2.0739 H   0  0  0  0  0  0  0  0  0  0  0  0
    4.8657   -0.3017   -2.2789 H   0  0  0  0  0  0  0  0  0  0  0  0
    3.2994    0.5488   -2.3122 H   0  0  0  0  0  0  0  0  0  0  0  0
    1.3652   -2.0883    0.5744 H   0  0  0  0  0  0  0  0  0  0  0  0
    0.6504   -1.9656   -1.0274 H   0  0  0  0  0  0  0  0  0  0  0  0
   -0.4627   -0.6886    1.5228 H   0  0  0  0  0  0  0  0  0  0  0  0
   -1.1052   -2.1279    0.7018 H   0  0  0  0  0  0  0  0  0  0  0  0
  1  2  1  0
  2  3  2  0
  3  4  1  0
  4  5  2  0
  5  6  1  0
  5  7  1  0
  7  8  2  0
  8  9  1  0
  9 10  1  0
 10 11  1  0
 11 12  1  0
 12 13  1  0
 13 14  2  0
 14 15  1  0
 15 16  2  0
 16 17  1  0
 17 18  2  0
 18 19  1  0
 12 20  1  0
 20 21  1  0
  8  2  1  0
 21  9  1  0
 18 13  1  0
  1 22  1  0
  1 23  1  0
  1 24  1  0
  3 25  1  0
  4 26  1  0
  7 27  1  0
 10 28  1  0
 10 29  1  0
 11 30  1  0
 11 31  1  0
 14 32  1  0
 15 33  1  0
 16 34  1  0
 17 35  1  0
 19 36  1  0
 19 37  1  0
 19 38  1  0
 20 39  1  0
 20 40  1  0
 21 41  1  0
 21 42  1  0
M  CHG  1  18   1
M  END
$$$$
