
     RDKit          3D

 38 40  0  0  0  0  0  0  0  0999 V2000
   -2.1171   -2.0283   -1.1633 C   0  0  0  0  0  0  0  0  0  0  0  0
   -1.3936   -0.6984   -0.9294 C   0  0  0  0  0  0  0  0  0  0  0  0
   -1.4861    0.2033   -2.1848 C   0  0  0  0  0  0  0  0  0  0  0  0
   -1.4352    1.6374   -1.6490 C   0  0  0  0  0  0  0  0  0  0  0  0
   -1.2624    1.4739   -0.1321 C   0  0  0  0  0  0  0  0  0  0  0  0
    0.2360    1.3892    0.1339 C   0  0  0  0  0  0  0  0  0  0  0  0
    0.8026    2.3915    0.5720 O   0  0  0  0  0  0  0  0  0  0  0  0
    0.8555    0.1849   -0.2520 N   0  0  0  0  0  0  0  0  0  0  0  0
    2.2921    0.0453   -0.1135 C   0  0  0  0  0  0  0  0  0  0  0  0
    3.0212   -0.7676   -1.0020 C   0  0  0  0  0  0  0  0  0  0  0  0
    4.4093   -0.9098   -0.8959 C   0  0  0  0  0  0  0  0  0  0  0  0
    5.1021   -0.2393    0.1053 C   0  0  0  0  0  0  0  0  0  0  0  0
    4.4014    0.5684    0.9938 C   0  0  0  0  0  0  0  0  0  0  0  0
    5.2533    1.3889    2.2458 Cl  0  0  0  0  0  0  0  0  0  0  0  0
    3.0145    0.7134    0.8886 C   0  0  0  0  0  0  0  0  0  0  0  0
    0.1078   -0.9459   -0.6524 C   0  0  0  0  0  0  0  0  0  0  0  0
    0.5653   -2.0867   -0.7509 O   0  0  0  0  0  0  0  0  0  0  0  0
   -1.9852    0.1641    0.2105 C   0  0  0  0  0  0  0  0  0  0  0  0
   -3.5188    0.3493    0.1120 C   0  0  0  0  0  0  0  0  0  0  0  0
   -1.7004   -0.3490    1.6346 C   0  0  0  0  0  0  0  0  0  0  0  0
   -3.1703   -1.8825   -1.4236 H   0  0  0  0  0  0  0  0  0  0  0  0
   -2.0742   -2.6655   -0.2734 H   0  0  0  0  0  0  0  0  0  0  0  0
   -1.6586   -2.5866   -1.9880 H   0  0  0  0  0  0  0  0  0  0  0  0
   -2.4225    0.0485   -2.7335 H   0  0  0  0  0  0  0  0  0  0  0  0
   -0.6653    0.0202   -2.8881 H   0  0  0  0  0  0  0  0  0  0  0  0
   -0.6226    2.2065   -2.1141 H   0  0  0  0  0  0  0  0  0  0  0  0
   -2.3710    2.1589   -1.8795 H   0  0  0  0  0  0  0  0  0  0  0  0
   -1.6687    2.3297    0.4185 H   0  0  0  0  0  0  0  0  0  0  0  0
    2.5267   -1.2940   -1.8162 H   0  0  0  0  0  0  0  0  0  0  0  0
    4.9440   -1.5445   -1.5986 H   0  0  0  0  0  0  0  0  0  0  0  0
    6.1795   -0.3513    0.1896 H   0  0  0  0  0  0  0  0  0  0  0  0
    2.5143    1.3309    1.6294 H   0  0  0  0  0  0  0  0  0  0  0  0
   -3.8563    0.6354   -0.8883 H   0  0  0  0  0  0  0  0  0  0  0  0
   -4.0460   -0.5738    0.3781 H   0  0  0  0  0  0  0  0  0  0  0  0
   -3.8576    1.1290    0.8042 H   0  0  0  0  0  0  0  0  0  0  0  0
   -2.2110   -1.3015    1.8152 H   0  0  0  0  0  0  0  0  0  0  0  0
   -0.6399   -0.5123    1.8429 H   0  0  0  0  0  0  0  0  0  0  0  0
   -2.0629    0.3682    2.3803 H   0  0  0  0  0  0  0  0  0  0  0  0
  1  2  1  0
  2  3  1  0
  3  4  1  0
  4  5  1  0
  5  6  1  0
  6  7  2  0
  6  8  1  0
  8  9  1  0
  9 10  2  0
 10 11  1  0
 11 12  2  0
 12 13  1  0
 13 14  1  0
 13 15  2  0
  8 16  1  0
 16 17  2  0
  5 18  1  0
 18 19  1  0
 18 20  1  0
 16  2  1  0
 18  2  1  0
 15  9  1  0
  1 21  1  0
  1 22  1  0
  1 23  1  0
  3 24  1  0
  3 25  1  0
  4 26  1  0
  4 27  1  0
  5 28  1  0
 10 29  1  0
 11 30  1  0
 12 31  1  0
 15 32  1  0
 19 33  1  0
 19 34  1  0
 19 35  1  0
 20 36  1  0
 20 37  1  0
 20 38  1  0
M  END
$$$$
