
     RDKit          3D

 52 54  0  0  0  0  0  0  0  0999 V2000
    7.5169   -2.9549   -1.1481 C   0  0  0  0  0  0  0  0  0  0  0  0
    6.4147   -1.9463   -1.0157 C   0  0  0  0  0  0  0  0  0  0  0  0
    5.5429   -1.9884    0.0777 C   0  0  0  0  0  0  0  0  0  0  0  0
    4.4964   -1.0696    0.1846 C   0  0  0  0  0  0  0  0  0  0  0  0
    4.3005   -0.0943   -0.8022 C   0  0  0  0  0  0  0  0  0  0  0  0
    3.1562    0.8784   -0.6933 C   0  0  0  0  0  0  0  0  0  0  0  0
    1.9478    0.3095   -1.2261 N   0  0  0  0  0  0  0  0  0  0  0  0
    0.9788   -0.2534   -0.4334 C   0  0  0  0  0  0  0  0  0  0  0  0
    0.9576   -0.2761    0.7909 O   0  0  0  0  0  0  0  0  0  0  0  0
   -0.1670   -0.9158   -1.2365 C   0  0  0  0  0  0  0  0  0  0  0  0
   -0.1647   -0.9087   -2.4592 O   0  0  0  0  0  0  0  0  0  0  0  0
   -1.1446   -1.4656   -0.4381 N   0  0  0  0  0  0  0  0  0  0  0  0
   -2.4256   -1.8615   -0.9826 C   0  0  0  0  0  0  0  0  0  0  0  0
   -3.3814   -0.6868   -1.2826 C   0  0  0  0  0  0  0  0  0  0  0  0
   -4.6670   -1.2390   -1.6296 O   0  0  0  0  0  0  0  0  0  0  0  0
   -5.6415   -0.3696   -1.0534 C   0  0  0  0  0  0  0  0  0  0  0  0
   -5.0223    0.0275    0.2653 C   0  0  0  0  0  0  0  0  0  0  0  0
   -3.5837    0.1415   -0.0562 N   0  0  0  0  0  0  0  0  0  0  0  0
   -2.9722    1.7171   -0.2004 S   0  0  0  0  0  6  0  0  0  0  0  0
   -3.9343    2.4913   -0.9555 O   0  0  0  0  0  0  0  0  0  0  0  0
   -1.5860    1.6425   -0.6034 O   0  0  0  0  0  0  0  0  0  0  0  0
   -2.9947    2.2796    1.4854 C   0  0  0  0  0  0  0  0  0  0  0  0
   -3.9313    3.2325    1.8974 C   0  0  0  0  0  0  0  0  0  0  0  0
   -3.9245    3.6723    3.2227 C   0  0  0  0  0  0  0  0  0  0  0  0
   -2.9794    3.1659    4.1173 C   0  0  0  0  0  0  0  0  0  0  0  0
   -2.9746    3.7655    5.9102 Br  0  0  0  0  0  0  0  0  0  0  0  0
   -2.0348    2.2268    3.7005 C   0  0  0  0  0  0  0  0  0  0  0  0
   -2.0374    1.7828    2.3771 C   0  0  0  0  0  0  0  0  0  0  0  0
    5.1588   -0.0699   -1.9090 C   0  0  0  0  0  0  0  0  0  0  0  0
    6.2057   -0.9891   -2.0148 C   0  0  0  0  0  0  0  0  0  0  0  0
    7.1563   -3.8341   -1.6908 H   0  0  0  0  0  0  0  0  0  0  0  0
    8.3709   -2.5313   -1.6869 H   0  0  0  0  0  0  0  0  0  0  0  0
    7.8785   -3.2701   -0.1637 H   0  0  0  0  0  0  0  0  0  0  0  0
    5.6701   -2.7396    0.8539 H   0  0  0  0  0  0  0  0  0  0  0  0
    3.8257   -1.1218    1.0407 H   0  0  0  0  0  0  0  0  0  0  0  0
    3.3717    1.7883   -1.2641 H   0  0  0  0  0  0  0  0  0  0  0  0
    3.0111    1.1777    0.3511 H   0  0  0  0  0  0  0  0  0  0  0  0
    1.8500    0.1738   -2.2275 H   0  0  0  0  0  0  0  0  0  0  0  0
   -1.0727   -1.2432    0.5505 H   0  0  0  0  0  0  0  0  0  0  0  0
   -2.8829   -2.5421   -0.2548 H   0  0  0  0  0  0  0  0  0  0  0  0
   -2.2635   -2.4412   -1.8990 H   0  0  0  0  0  0  0  0  0  0  0  0
   -3.0252   -0.0947   -2.1327 H   0  0  0  0  0  0  0  0  0  0  0  0
   -6.5926   -0.8950   -0.9346 H   0  0  0  0  0  0  0  0  0  0  0  0
   -5.7854    0.4882   -1.7192 H   0  0  0  0  0  0  0  0  0  0  0  0
   -5.4723    0.9315    0.6805 H   0  0  0  0  0  0  0  0  0  0  0  0
   -5.1308   -0.7738    1.0051 H   0  0  0  0  0  0  0  0  0  0  0  0
   -4.6601    3.6389    1.1995 H   0  0  0  0  0  0  0  0  0  0  0  0
   -4.6518    4.4128    3.5467 H   0  0  0  0  0  0  0  0  0  0  0  0
   -1.2902    1.8418    4.3932 H   0  0  0  0  0  0  0  0  0  0  0  0
   -1.2896    1.0634    2.0479 H   0  0  0  0  0  0  0  0  0  0  0  0
    5.0164    0.6632   -2.6997 H   0  0  0  0  0  0  0  0  0  0  0  0
    6.8569   -0.9545   -2.8854 H   0  0  0  0  0  0  0  0  0  0  0  0
  1  2  1  0
  2  3  2  0
  3  4  1  0
  4  5  2  0
  5  6  1  0
  6  7  1  0
  7  8  1  0
  8  9  2  0
  8 10  1  0
 10 11  2  0
 10 12  1  0
 12 13  1  0
 13 14  1  0
 14 15  1  0
 15 16  1  0
 16 17  1  0
 17 18  1  0
 18 19  1  0
 19 20  2  0
 19 21  2  0
 19 22  1  0
 22 23  2  0
 23 24  1  0
 24 25  2  0
 25 26  1  0
 25 27  1  0
 27 28  2  0
  5 29  1  0
 29 30  2  0
 30  2  1  0
 18 14  1  0
 28 22  1  0
  1 31  1  0
  1 32  1  0
  1 33  1  0
  3 34  1  0
  4 35  1  0
  6 36  1  0
  6 37  1  0
  7 38  1  0
 12 39  1  0
 13 40  1  0
 13 41  1  0
 14 42  1  0
 16 43  1  0
 16 44  1  0
 17 45  1  0
 17 46  1  0
 23 47  1  0
 24 48  1  0
 27 49  1  0
 28 50  1  0
 29 51  1  0
 30 52  1  0
M  END
$$$$
