
     RDKit          3D

 25 27  0  0  0  0  0  0  0  0999 V2000
    4.4436   -0.0082    2.5639 O   0  0  0  0  0  0  0  0  0  0  0  0
    3.7800    0.3024    1.5897 C   0  0  0  0  0  0  0  0  0  0  0  0
    4.1431    1.1956    0.6321 N   0  0  0  0  0  0  0  0  0  0  0  0
    3.2797    1.4374   -0.4050 C   0  0  0  0  0  0  0  0  0  0  0  0
    3.6893    2.5249   -1.6007 S   0  0  0  0  0  0  0  0  0  0  0  0
    2.0492    0.6081   -0.2307 C   0  0  0  0  0  0  0  0  0  0  0  0
    1.0181    0.5923   -1.0905 C   0  0  0  0  0  0  0  0  0  0  0  0
   -0.1783   -0.1786   -0.9894 C   0  0  0  0  0  0  0  0  0  0  0  0
   -0.5677   -1.0932   -1.9422 C   0  0  0  0  0  0  0  0  0  0  0  0
   -1.7554   -1.6404   -1.5333 N   0  0  0  0  0  0  0  0  0  0  0  0
   -2.1632   -1.0681   -0.3494 C   0  0  0  0  0  0  0  0  0  0  0  0
   -3.3134   -1.3036    0.4138 C   0  0  0  0  0  0  0  0  0  0  0  0
   -3.4803   -0.5568    1.5833 C   0  0  0  0  0  0  0  0  0  0  0  0
   -2.5356    0.3899    1.9703 C   0  0  0  0  0  0  0  0  0  0  0  0
   -1.3909    0.6130    1.1962 C   0  0  0  0  0  0  0  0  0  0  0  0
   -1.1904   -0.1343    0.0160 C   0  0  0  0  0  0  0  0  0  0  0  0
    2.2017   -0.3413    1.2132 S   0  0  0  0  0  0  0  0  0  0  0  0
    5.0357    1.6603    0.7005 H   0  0  0  0  0  0  0  0  0  0  0  0
    1.0784    1.2018   -1.9900 H   0  0  0  0  0  0  0  0  0  0  0  0
   -0.1030   -1.4154   -2.8646 H   0  0  0  0  0  0  0  0  0  0  0  0
   -2.2722   -2.3518   -2.0314 H   0  0  0  0  0  0  0  0  0  0  0  0
   -4.0547   -2.0366    0.1131 H   0  0  0  0  0  0  0  0  0  0  0  0
   -4.3629   -0.7166    2.1984 H   0  0  0  0  0  0  0  0  0  0  0  0
   -2.6860    0.9624    2.8822 H   0  0  0  0  0  0  0  0  0  0  0  0
   -0.6648    1.3570    1.5087 H   0  0  0  0  0  0  0  0  0  0  0  0
  1  2  2  0
  2  3  1  0
  3  4  1  0
  4  5  2  0
  4  6  1  0
  6  7  2  3
  7  8  1  0
  8  9  2  0
  9 10  1  0
 10 11  1  0
 11 12  2  0
 12 13  1  0
 13 14  2  0
 14 15  1  0
 15 16  2  0
  6 17  1  0
 17  2  1  0
 16  8  1  0
 16 11  1  0
  3 18  1  0
  7 19  1  0
  9 20  1  0
 10 21  1  0
 12 22  1  0
 13 23  1  0
 14 24  1  0
 15 25  1  0
M  END
$$$$
