
     RDKit          3D

 51 55  0  0  0  0  0  0  0  0999 V2000
   -7.6673   -1.6151   -2.9857 C   0  0  0  0  0  0  0  0  0  0  0  0
   -7.3138   -1.5977   -1.5264 C   0  0  0  0  0  0  0  0  0  0  0  0
   -8.0661   -2.3416   -0.6076 C   0  0  0  0  0  0  0  0  0  0  0  0
   -7.7178   -2.3663    0.7429 C   0  0  0  0  0  0  0  0  0  0  0  0
   -6.6114   -1.6450    1.1931 C   0  0  0  0  0  0  0  0  0  0  0  0
   -5.8529   -0.8926    0.2898 C   0  0  0  0  0  0  0  0  0  0  0  0
   -4.6793   -0.1312    0.8085 C   0  0  0  0  0  0  0  0  0  0  0  0
   -4.0303   -0.6180    1.7254 O   0  0  0  0  0  0  0  0  0  0  0  0
   -4.4786    1.0838    0.1978 N   0  0  0  0  0  0  0  0  0  0  0  0
   -3.4642    1.9743    0.4462 C   0  0  0  0  0  0  0  0  0  0  0  0
   -3.3950    3.1330   -0.1727 N   0  0  0  0  0  0  0  0  0  0  0  0
   -2.2995    3.8701    0.2292 N   0  0  0  0  0  0  0  0  0  0  0  0
   -1.5775    3.2160    1.1141 C   0  0  0  0  0  0  0  0  0  0  0  0
   -0.1316    3.9077    1.8080 S   0  0  0  0  0  0  0  0  0  0  0  0
    0.8054    4.2066    0.2823 C   0  0  0  0  0  0  0  0  0  0  0  0
    1.4378    2.9063   -0.1912 C   0  0  0  0  0  0  0  0  0  0  0  0
    0.9269    2.2440   -1.0896 O   0  0  0  0  0  0  0  0  0  0  0  0
    2.5997    2.5974    0.5027 N   0  0  0  0  0  0  0  0  0  0  0  0
    3.4653    1.5009    0.2997 C   0  0  0  0  0  0  0  0  0  0  0  0
    3.2827    0.5406   -0.7018 C   0  0  0  0  0  0  0  0  0  0  0  0
    4.1858   -0.5250   -0.8743 C   0  0  0  0  0  0  0  0  0  0  0  0
    5.2979   -0.6196   -0.0206 C   0  0  0  0  0  0  0  0  0  0  0  0
    5.4489    0.3472    0.9655 C   0  0  0  0  0  0  0  0  0  0  0  0
    4.5682    1.4106    1.1636 C   0  0  0  0  0  0  0  0  0  0  0  0
    6.5709    0.1125    1.7000 O   0  0  0  0  0  0  0  0  0  0  0  0
    7.1521   -1.0078    1.1889 C   0  0  0  0  0  0  0  0  0  0  0  0
    8.3295   -1.5870    1.6562 C   0  0  0  0  0  0  0  0  0  0  0  0
    8.7659   -2.7383    0.9931 C   0  0  0  0  0  0  0  0  0  0  0  0
    8.0468   -3.2693   -0.0812 C   0  0  0  0  0  0  0  0  0  0  0  0
    6.8640   -2.6641   -0.5291 C   0  0  0  0  0  0  0  0  0  0  0  0
    6.4068   -1.5037    0.1236 C   0  0  0  0  0  0  0  0  0  0  0  0
   -2.1942    1.6814    1.5441 S   0  0  0  0  0  0  0  0  0  0  0  0
   -6.1929   -0.8874   -1.0741 C   0  0  0  0  0  0  0  0  0  0  0  0
   -7.1699   -2.4556   -3.4822 H   0  0  0  0  0  0  0  0  0  0  0  0
   -8.7482   -1.7111   -3.1227 H   0  0  0  0  0  0  0  0  0  0  0  0
   -7.3600   -0.6835   -3.4739 H   0  0  0  0  0  0  0  0  0  0  0  0
   -8.9274   -2.9161   -0.9420 H   0  0  0  0  0  0  0  0  0  0  0  0
   -8.3066   -2.9509    1.4458 H   0  0  0  0  0  0  0  0  0  0  0  0
   -6.3410   -1.6708    2.2475 H   0  0  0  0  0  0  0  0  0  0  0  0
   -5.1539    1.4314   -0.4719 H   0  0  0  0  0  0  0  0  0  0  0  0
    1.5918    4.9407    0.4860 H   0  0  0  0  0  0  0  0  0  0  0  0
    0.1791    4.6232   -0.5128 H   0  0  0  0  0  0  0  0  0  0  0  0
    2.8402    3.2095    1.2746 H   0  0  0  0  0  0  0  0  0  0  0  0
    2.4368    0.5863   -1.3826 H   0  0  0  0  0  0  0  0  0  0  0  0
    4.0218   -1.2570   -1.6592 H   0  0  0  0  0  0  0  0  0  0  0  0
    4.7543    2.1269    1.9550 H   0  0  0  0  0  0  0  0  0  0  0  0
    8.8733   -1.1608    2.4903 H   0  0  0  0  0  0  0  0  0  0  0  0
    9.6810   -3.2275    1.3209 H   0  0  0  0  0  0  0  0  0  0  0  0
    8.4095   -4.1665   -0.5790 H   0  0  0  0  0  0  0  0  0  0  0  0
    6.3146   -3.0857   -1.3647 H   0  0  0  0  0  0  0  0  0  0  0  0
   -5.5774   -0.3551   -1.7967 H   0  0  0  0  0  0  0  0  0  0  0  0
  1  2  1  0
  2  3  2  0
  3  4  1  0
  4  5  2  0
  5  6  1  0
  6  7  1  0
  7  8  2  0
  7  9  1  0
  9 10  1  0
 10 11  2  0
 11 12  1  0
 12 13  2  0
 13 14  1  0
 14 15  1  0
 15 16  1  0
 16 17  2  0
 16 18  1  0
 18 19  1  0
 19 20  2  0
 20 21  1  0
 21 22  2  0
 22 23  1  0
 23 24  2  0
 23 25  1  0
 25 26  1  0
 26 27  2  0
 27 28  1  0
 28 29  2  0
 29 30  1  0
 30 31  2  0
 13 32  1  0
  6 33  2  0
 33  2  1  0
 32 10  1  0
 24 19  1  0
 31 26  1  0
 31 22  1  0
  1 34  1  0
  1 35  1  0
  1 36  1  0
  3 37  1  0
  4 38  1  0
  5 39  1  0
  9 40  1  0
 15 41  1  0
 15 42  1  0
 18 43  1  0
 20 44  1  0
 21 45  1  0
 24 46  1  0
 27 47  1  0
 28 48  1  0
 29 49  1  0
 30 50  1  0
 33 51  1  0
M  END
$$$$
