
     RDKit          3D

 42 44  0  0  0  0  0  0  0  0999 V2000
    3.5417   -3.0084    1.5419 C   0  0  0  0  0  0  0  0  0  0  0  0
    4.4124   -2.2610    0.7012 O   0  0  0  0  0  0  0  0  0  0  0  0
    3.8975   -1.1403    0.1093 C   0  0  0  0  0  0  0  0  0  0  0  0
    4.7660   -0.4958   -0.7761 C   0  0  0  0  0  0  0  0  0  0  0  0
    4.3856    0.6693   -1.4472 C   0  0  0  0  0  0  0  0  0  0  0  0
    5.3410    1.1932   -2.2740 O   0  0  0  0  0  0  0  0  0  0  0  0
    5.0225    2.4137   -2.9323 C   0  0  0  0  0  0  0  0  0  0  0  0
    3.1109    1.1888   -1.2368 C   0  0  0  0  0  0  0  0  0  0  0  0
    2.2237    0.5441   -0.3612 C   0  0  0  0  0  0  0  0  0  0  0  0
    0.8681    1.1443   -0.1711 C   0  0  0  0  0  0  0  0  0  0  0  0
    0.7638    2.3592   -0.2893 O   0  0  0  0  0  0  0  0  0  0  0  0
   -0.1334    0.2318    0.0937 N   0  0  0  0  0  0  0  0  0  0  0  0
   -1.4783    0.4870    0.3267 C   0  0  0  0  0  0  0  0  0  0  0  0
   -2.0967    2.0825    0.3325 S   0  0  0  0  0  0  0  0  0  0  0  0
   -3.6368    1.5153    0.6120 C   0  0  0  0  0  0  0  0  0  0  0  0
   -3.7241    0.1546    0.7233 C   0  0  0  0  0  0  0  0  0  0  0  0
   -2.4547   -0.4846    0.5838 C   0  0  0  0  0  0  0  0  0  0  0  0
   -2.1186   -1.9057    0.6637 C   0  0  0  0  0  0  0  0  0  0  0  0
   -3.1018   -2.7550    1.0786 N   0  0  0  0  0  0  0  0  0  0  0  0
   -0.9974   -2.3441    0.4107 O   0  0  0  0  0  0  0  0  0  0  0  0
   -5.1372   -0.2506    0.9541 C   0  0  0  0  0  0  0  0  0  0  0  0
   -5.9284    1.0500    0.6134 C   0  0  0  0  0  0  0  0  0  0  0  0
   -4.9252    2.2313    0.7517 C   0  0  0  0  0  0  0  0  0  0  0  0
    2.6257   -0.6121    0.3257 C   0  0  0  0  0  0  0  0  0  0  0  0
    4.0875   -3.8915    1.8875 H   0  0  0  0  0  0  0  0  0  0  0  0
    3.2547   -2.4277    2.4246 H   0  0  0  0  0  0  0  0  0  0  0  0
    2.6604   -3.3552    0.9920 H   0  0  0  0  0  0  0  0  0  0  0  0
    5.7606   -0.9050   -0.9412 H   0  0  0  0  0  0  0  0  0  0  0  0
    4.1802    2.2821   -3.6194 H   0  0  0  0  0  0  0  0  0  0  0  0
    5.8928    2.7098   -3.5258 H   0  0  0  0  0  0  0  0  0  0  0  0
    4.8243    3.2128   -2.2102 H   0  0  0  0  0  0  0  0  0  0  0  0
    2.7754    2.0909   -1.7400 H   0  0  0  0  0  0  0  0  0  0  0  0
    0.0906   -0.7612    0.0589 H   0  0  0  0  0  0  0  0  0  0  0  0
   -3.9470   -2.4252    1.5154 H   0  0  0  0  0  0  0  0  0  0  0  0
   -2.8300   -3.7153    1.2392 H   0  0  0  0  0  0  0  0  0  0  0  0
   -5.4535   -1.0763    0.3109 H   0  0  0  0  0  0  0  0  0  0  0  0
   -5.2902   -0.5236    2.0036 H   0  0  0  0  0  0  0  0  0  0  0  0
   -6.2734    0.9942   -0.4277 H   0  0  0  0  0  0  0  0  0  0  0  0
   -6.8126    1.1770    1.2457 H   0  0  0  0  0  0  0  0  0  0  0  0
   -5.0085    2.6934    1.7407 H   0  0  0  0  0  0  0  0  0  0  0  0
   -5.0907    2.9854   -0.0224 H   0  0  0  0  0  0  0  0  0  0  0  0
    1.9530   -1.0722    1.0404 H   0  0  0  0  0  0  0  0  0  0  0  0
  1  2  1  0
  2  3  1  0
  3  4  2  0
  4  5  1  0
  5  6  1  0
  6  7  1  0
  5  8  2  0
  8  9  1  0
  9 10  1  0
 10 11  2  0
 10 12  1  0
 12 13  1  0
 13 14  1  0
 14 15  1  0
 15 16  2  0
 16 17  1  0
 17 18  1  0
 18 19  1  0
 18 20  2  0
 16 21  1  0
 21 22  1  0
 22 23  1  0
  9 24  2  0
 24  3  1  0
 17 13  2  0
 23 15  1  0
  1 25  1  0
  1 26  1  0
  1 27  1  0
  4 28  1  0
  7 29  1  0
  7 30  1  0
  7 31  1  0
  8 32  1  0
 12 33  1  0
 19 34  1  0
 19 35  1  0
 21 36  1  0
 21 37  1  0
 22 38  1  0
 22 39  1  0
 23 40  1  0
 23 41  1  0
 24 42  1  0
M  END
$$$$
