
     RDKit          3D

 39 41  0  0  0  0  0  0  0  0999 V2000
   -4.3116    0.9871   -2.3840 C   0  0  0  0  0  0  0  0  0  0  0  0
   -3.9171    0.8057   -0.9471 C   0  0  0  0  0  0  0  0  0  0  0  0
   -4.8962    0.7521    0.0480 C   0  0  0  0  0  0  0  0  0  0  0  0
   -4.5582    0.5680    1.3919 C   0  0  0  0  0  0  0  0  0  0  0  0
   -3.2035    0.4199    1.7091 C   0  0  0  0  0  0  0  0  0  0  0  0
   -2.6016    0.2475    2.9331 N   0  0  0  0  0  0  0  0  0  0  0  0
   -1.2377    0.1499    2.7955 C   0  0  0  0  0  0  0  0  0  0  0  0
   -0.3587   -0.0342    3.9798 C   0  0  0  0  0  0  0  0  0  0  0  0
   -0.9568    0.2397    1.4432 C   0  0  0  0  0  0  0  0  0  0  0  0
    0.3685    0.1675    0.9109 C   0  0  0  0  0  0  0  0  0  0  0  0
    0.7036   -0.4555   -0.2315 C   0  0  0  0  0  0  0  0  0  0  0  0
    2.0679   -0.5285   -0.7647 C   0  0  0  0  0  0  0  0  0  0  0  0
    3.1792   -0.7348    0.0513 C   0  0  0  0  0  0  0  0  0  0  0  0
    4.4453   -0.8246   -0.5167 C   0  0  0  0  0  0  0  0  0  0  0  0
    4.6097   -0.7170   -1.8538 N   0  0  0  0  0  4  0  0  0  0  0  0
    5.9595   -0.8240   -2.4331 C   0  0  0  0  0  0  0  0  0  0  0  0
    3.5451   -0.5405   -2.6674 C   0  0  0  0  0  0  0  0  0  0  0  0
    2.2609   -0.4473   -2.1427 C   0  0  0  0  0  0  0  0  0  0  0  0
   -2.1933    0.4340    0.7478 C   0  0  0  0  0  0  0  0  0  0  0  0
   -2.5649    0.6372   -0.6011 C   0  0  0  0  0  0  0  0  0  0  0  0
   -4.4967    0.0127   -2.8465 H   0  0  0  0  0  0  0  0  0  0  0  0
   -5.2173    1.5970   -2.4669 H   0  0  0  0  0  0  0  0  0  0  0  0
   -3.5229    1.5007   -2.9439 H   0  0  0  0  0  0  0  0  0  0  0  0
   -5.9468    0.8640   -0.2152 H   0  0  0  0  0  0  0  0  0  0  0  0
   -5.3274    0.5447    2.1575 H   0  0  0  0  0  0  0  0  0  0  0  0
   -3.1040    0.2081    3.8095 H   0  0  0  0  0  0  0  0  0  0  0  0
    0.2766    0.8459    4.1212 H   0  0  0  0  0  0  0  0  0  0  0  0
   -0.9397   -0.1830    4.8958 H   0  0  0  0  0  0  0  0  0  0  0  0
    0.2862   -0.9087    3.8462 H   0  0  0  0  0  0  0  0  0  0  0  0
    1.1393    0.6463    1.5103 H   0  0  0  0  0  0  0  0  0  0  0  0
   -0.0669   -0.9479   -0.8224 H   0  0  0  0  0  0  0  0  0  0  0  0
    3.0701   -0.8409    1.1289 H   0  0  0  0  0  0  0  0  0  0  0  0
    5.3314   -0.9888    0.0902 H   0  0  0  0  0  0  0  0  0  0  0  0
    6.6893   -0.4437   -1.7137 H   0  0  0  0  0  0  0  0  0  0  0  0
    6.1396   -1.8798   -2.6501 H   0  0  0  0  0  0  0  0  0  0  0  0
    6.0060   -0.2246   -3.3460 H   0  0  0  0  0  0  0  0  0  0  0  0
    3.7299   -0.4780   -3.7362 H   0  0  0  0  0  0  0  0  0  0  0  0
    1.4165   -0.3033   -2.8148 H   0  0  0  0  0  0  0  0  0  0  0  0
   -1.8032    0.6771   -1.3726 H   0  0  0  0  0  0  0  0  0  0  0  0
  1  2  1  0
  2  3  2  0
  3  4  1  0
  4  5  2  0
  5  6  1  0
  6  7  1  0
  7  8  1  0
  7  9  2  0
  9 10  1  0
 10 11  2  3
 11 12  1  0
 12 13  2  0
 13 14  1  0
 14 15  2  0
 15 16  1  0
 15 17  1  0
 17 18  2  0
  9 19  1  0
 19 20  2  0
 20  2  1  0
 19  5  1  0
 18 12  1  0
  1 21  1  0
  1 22  1  0
  1 23  1  0
  3 24  1  0
  4 25  1  0
  6 26  1  0
  8 27  1  0
  8 28  1  0
  8 29  1  0
 10 30  1  0
 11 31  1  0
 13 32  1  0
 14 33  1  0
 16 34  1  0
 16 35  1  0
 16 36  1  0
 17 37  1  0
 18 38  1  0
 20 39  1  0
M  CHG  1  15   1
M  END
$$$$
