
     RDKit          3D

 74 75  0  0  0  0  0  0  0  0999 V2000
    0.2756    6.0666   -1.2346 C   0  0  0  0  0  0  0  0  0  0  0  0
    0.2383    4.6482   -1.3194 O   0  0  0  0  0  0  0  0  0  0  0  0
   -0.8404    4.0016   -0.7735 C   0  0  0  0  0  0  0  0  0  0  0  0
   -1.9839    4.6623   -0.3187 C   0  0  0  0  0  0  0  0  0  0  0  0
   -3.0242    3.9472    0.2673 C   0  0  0  0  0  0  0  0  0  0  0  0
   -2.9266    2.5656    0.4247 C   0  0  0  0  0  0  0  0  0  0  0  0
   -1.7925    1.8594   -0.0145 C   0  0  0  0  0  0  0  0  0  0  0  0
   -1.6664    0.3385    0.1464 C   0  0  0  0  0  0  0  0  0  0  0  0
   -2.9686   -0.4666    0.4692 C   0  0  0  0  0  0  0  0  0  0  0  0
   -4.0863   -0.1403    0.0775 O   0  0  0  0  0  0  0  0  0  0  0  0
   -2.7412   -1.6619    1.1317 N   0  0  0  0  0  0  0  0  0  0  0  0
   -3.7750   -2.5996    1.5894 C   0  0  0  0  0  0  0  0  0  0  0  0
   -3.0688   -3.7977    2.2502 C   0  0  0  0  0  0  0  0  0  0  0  0
   -4.6088   -3.1275    0.4106 C   0  0  0  0  0  0  0  0  0  0  0  0
   -4.6885   -1.9336    2.6289 C   0  0  0  0  0  0  0  0  0  0  0  0
   -0.4948   -0.1408    0.9790 N   0  0  0  0  0  0  0  0  0  0  0  0
    0.4848   -0.9781    0.4039 C   0  0  0  0  0  0  0  0  0  0  0  0
    1.5074   -1.3160    1.0041 O   0  0  0  0  0  0  0  0  0  0  0  0
    0.2361   -1.5548   -0.9882 C   0  0  0  0  0  0  0  0  0  0  0  0
    1.2985   -2.5894   -1.3616 C   0  0  0  0  0  0  0  0  0  0  0  0
    2.6231   -1.9341   -1.7185 C   0  0  0  0  0  0  0  0  0  0  0  0
    2.6712   -0.8710   -2.3319 O   0  0  0  0  0  0  0  0  0  0  0  0
    3.7056   -2.6966   -1.3485 N   0  0  0  0  0  0  0  0  0  0  0  0
    5.0247   -2.3528   -1.5433 C   0  0  0  0  0  0  0  0  0  0  0  0
    5.5751   -1.1949   -2.1362 C   0  0  0  0  0  0  0  0  0  0  0  0
    6.9329   -1.3809   -2.0627 C   0  0  0  0  0  0  0  0  0  0  0  0
    8.1037   -0.5913   -2.4777 C   0  0  0  0  0  0  0  0  0  0  0  0
    7.1862   -2.5771   -1.4695 O   0  0  0  0  0  0  0  0  0  0  0  0
    5.9902   -3.1872   -1.1390 N   0  0  0  0  0  0  0  0  0  0  0  0
   -0.2638    0.3701    2.3958 C   0  0  0  0  0  0  0  0  0  0  0  0
   -0.0014   -0.7993    3.3857 C   0  0  0  0  0  0  0  0  0  0  0  0
   -1.4564    1.1366    3.0147 C   0  0  0  0  0  0  0  0  0  0  0  0
    0.9513    1.3235    2.4278 C   0  0  0  0  0  0  0  0  0  0  0  0
   -0.7696    2.5942   -0.6632 C   0  0  0  0  0  0  0  0  0  0  0  0
    0.3001    1.8518   -1.1084 O   0  0  0  0  0  0  0  0  0  0  0  0
    0.7899    2.1959   -2.4028 C   0  0  0  0  0  0  0  0  0  0  0  0
   -0.4997    6.5158   -1.8630 H   0  0  0  0  0  0  0  0  0  0  0  0
    0.1955    6.4071   -0.1969 H   0  0  0  0  0  0  0  0  0  0  0  0
    1.2450    6.3982   -1.6186 H   0  0  0  0  0  0  0  0  0  0  0  0
   -2.0993    5.7372   -0.4070 H   0  0  0  0  0  0  0  0  0  0  0  0
   -3.9138    4.4686    0.6122 H   0  0  0  0  0  0  0  0  0  0  0  0
   -3.7570    2.0570    0.9097 H   0  0  0  0  0  0  0  0  0  0  0  0
   -1.5062    0.0160   -0.8866 H   0  0  0  0  0  0  0  0  0  0  0  0
   -1.8058   -1.7727    1.5055 H   0  0  0  0  0  0  0  0  0  0  0  0
   -2.4621   -3.4772    3.1053 H   0  0  0  0  0  0  0  0  0  0  0  0
   -2.3943   -4.2954    1.5437 H   0  0  0  0  0  0  0  0  0  0  0  0
   -3.7897   -4.5410    2.6100 H   0  0  0  0  0  0  0  0  0  0  0  0
   -3.9627   -3.5444   -0.3718 H   0  0  0  0  0  0  0  0  0  0  0  0
   -5.2164   -2.3422   -0.0510 H   0  0  0  0  0  0  0  0  0  0  0  0
   -5.2962   -3.9177    0.7357 H   0  0  0  0  0  0  0  0  0  0  0  0
   -5.4182   -2.6474    3.0283 H   0  0  0  0  0  0  0  0  0  0  0  0
   -5.2490   -1.0948    2.2018 H   0  0  0  0  0  0  0  0  0  0  0  0
   -4.1058   -1.5402    3.4699 H   0  0  0  0  0  0  0  0  0  0  0  0
   -0.7354   -2.0605   -0.9846 H   0  0  0  0  0  0  0  0  0  0  0  0
    0.2238   -0.7511   -1.7276 H   0  0  0  0  0  0  0  0  0  0  0  0
    1.4287   -3.3197   -0.5547 H   0  0  0  0  0  0  0  0  0  0  0  0
    0.9719   -3.1411   -2.2517 H   0  0  0  0  0  0  0  0  0  0  0  0
    3.5813   -3.5591   -0.8375 H   0  0  0  0  0  0  0  0  0  0  0  0
    5.0599   -0.3437   -2.5542 H   0  0  0  0  0  0  0  0  0  0  0  0
    7.8013    0.3939   -2.8475 H   0  0  0  0  0  0  0  0  0  0  0  0
    8.6480   -1.1041   -3.2769 H   0  0  0  0  0  0  0  0  0  0  0  0
    8.7868   -0.4432   -1.6357 H   0  0  0  0  0  0  0  0  0  0  0  0
   -0.8188   -1.5269    3.3685 H   0  0  0  0  0  0  0  0  0  0  0  0
    0.0866   -0.4312    4.4159 H   0  0  0  0  0  0  0  0  0  0  0  0
    0.9272   -1.3396    3.1891 H   0  0  0  0  0  0  0  0  0  0  0  0
   -2.3977    0.5909    2.9129 H   0  0  0  0  0  0  0  0  0  0  0  0
   -1.3029    1.3052    4.0883 H   0  0  0  0  0  0  0  0  0  0  0  0
   -1.5684    2.1343    2.5896 H   0  0  0  0  0  0  0  0  0  0  0  0
    1.8772    0.8325    2.1142 H   0  0  0  0  0  0  0  0  0  0  0  0
    1.1194    1.7130    3.4387 H   0  0  0  0  0  0  0  0  0  0  0  0
    0.7999    2.1816    1.7657 H   0  0  0  0  0  0  0  0  0  0  0  0
    1.6290    2.8919   -2.3167 H   0  0  0  0  0  0  0  0  0  0  0  0
    0.0094    2.5961   -3.0591 H   0  0  0  0  0  0  0  0  0  0  0  0
    1.1713    1.2841   -2.8695 H   0  0  0  0  0  0  0  0  0  0  0  0
  1  2  1  0
  2  3  1  0
  3  4  2  0
  4  5  1  0
  5  6  2  0
  6  7  1  0
  7  8  1  0
  8  9  1  0
  9 10  2  0
  9 11  1  0
 11 12  1  0
 12 13  1  0
 12 14  1  0
 12 15  1  0
  8 16  1  0
 16 17  1  0
 17 18  2  0
 17 19  1  0
 19 20  1  0
 20 21  1  0
 21 22  2  0
 21 23  1  0
 23 24  1  0
 24 25  1  0
 25 26  2  0
 26 27  1  0
 26 28  1  0
 28 29  1  0
 16 30  1  0
 30 31  1  0
 30 32  1  0
 30 33  1  0
  7 34  2  0
 34 35  1  0
 35 36  1  0
 34  3  1  0
 29 24  2  0
  1 37  1  0
  1 38  1  0
  1 39  1  0
  4 40  1  0
  5 41  1  0
  6 42  1  0
  8 43  1  0
 11 44  1  0
 13 45  1  0
 13 46  1  0
 13 47  1  0
 14 48  1  0
 14 49  1  0
 14 50  1  0
 15 51  1  0
 15 52  1  0
 15 53  1  0
 19 54  1  0
 19 55  1  0
 20 56  1  0
 20 57  1  0
 23 58  1  0
 25 59  1  0
 27 60  1  0
 27 61  1  0
 27 62  1  0
 31 63  1  0
 31 64  1  0
 31 65  1  0
 32 66  1  0
 32 67  1  0
 32 68  1  0
 33 69  1  0
 33 70  1  0
 33 71  1  0
 36 72  1  0
 36 73  1  0
 36 74  1  0
M  END
$$$$
