
     RDKit          3D

 37 39  0  0  0  0  0  0  0  0999 V2000
   -0.3882   -0.9411    2.4027 C   0  0  0  0  0  0  0  0  0  0  0  0
   -0.8380   -0.4887    1.1026 N   0  0  0  0  0  0  0  0  0  0  0  0
   -0.0804   -0.0259    0.0183 C   0  0  0  0  0  0  0  0  0  0  0  0
    1.2422   -0.0924   -0.2384 C   0  0  0  0  0  0  0  0  0  0  0  0
    2.2650   -0.7739    0.5260 C   0  0  0  0  0  0  0  0  0  0  0  0
    3.5925   -0.6805    0.3574 C   0  0  0  0  0  0  0  0  0  0  0  0
    4.7181   -1.5834    1.3282 S   0  0  0  0  0  0  0  0  0  0  0  0
    6.1058   -0.9045    0.5140 C   0  0  0  0  0  0  0  0  0  0  0  0
    7.6955   -1.2391    0.8304 S   0  0  0  0  0  0  0  0  0  0  0  0
    5.6939   -0.0351   -0.4463 N   0  0  0  0  0  0  0  0  0  0  0  0
    4.3507    0.1614   -0.6145 C   0  0  0  0  0  0  0  0  0  0  0  0
    3.8790    0.9195   -1.4456 O   0  0  0  0  0  0  0  0  0  0  0  0
   -1.0610    0.6340   -1.0130 C   0  0  0  0  0  0  0  0  0  0  0  0
   -0.9843   -0.0305   -2.3962 C   0  0  0  0  0  0  0  0  0  0  0  0
   -0.8303    2.1483   -1.1160 C   0  0  0  0  0  0  0  0  0  0  0  0
   -2.4088    0.3499   -0.3696 C   0  0  0  0  0  0  0  0  0  0  0  0
   -3.6824    0.6529   -0.8362 C   0  0  0  0  0  0  0  0  0  0  0  0
   -4.7774    0.2808   -0.0583 C   0  0  0  0  0  0  0  0  0  0  0  0
   -4.5872   -0.3838    1.1605 C   0  0  0  0  0  0  0  0  0  0  0  0
   -3.2988   -0.6807    1.6210 C   0  0  0  0  0  0  0  0  0  0  0  0
   -2.2051   -0.3058    0.8565 C   0  0  0  0  0  0  0  0  0  0  0  0
   -1.1077   -0.7282    3.2004 H   0  0  0  0  0  0  0  0  0  0  0  0
    0.5302   -0.4269    2.7041 H   0  0  0  0  0  0  0  0  0  0  0  0
   -0.2035   -2.0200    2.3875 H   0  0  0  0  0  0  0  0  0  0  0  0
    1.5877    0.3821   -1.1553 H   0  0  0  0  0  0  0  0  0  0  0  0
    1.9036   -1.4608    1.2846 H   0  0  0  0  0  0  0  0  0  0  0  0
    6.3505    0.4627   -1.0279 H   0  0  0  0  0  0  0  0  0  0  0  0
   -0.0148    0.1441   -2.8755 H   0  0  0  0  0  0  0  0  0  0  0  0
   -1.7530    0.3626   -3.0718 H   0  0  0  0  0  0  0  0  0  0  0  0
   -1.1326   -1.1152   -2.3301 H   0  0  0  0  0  0  0  0  0  0  0  0
   -0.8839    2.6328   -0.1334 H   0  0  0  0  0  0  0  0  0  0  0  0
    0.1524    2.3754   -1.5444 H   0  0  0  0  0  0  0  0  0  0  0  0
   -1.5835    2.6240   -1.7548 H   0  0  0  0  0  0  0  0  0  0  0  0
   -3.8275    1.1649   -1.7816 H   0  0  0  0  0  0  0  0  0  0  0  0
   -5.7852    0.5036   -0.3999 H   0  0  0  0  0  0  0  0  0  0  0  0
   -5.4506   -0.6748    1.7540 H   0  0  0  0  0  0  0  0  0  0  0  0
   -3.1829   -1.2078    2.5606 H   0  0  0  0  0  0  0  0  0  0  0  0
  1  2  1  0
  2  3  1  0
  3  4  2  3
  4  5  1  0
  5  6  2  3
  6  7  1  0
  7  8  1  0
  8  9  2  0
  8 10  1  0
 10 11  1  0
 11 12  2  0
  3 13  1  0
 13 14  1  0
 13 15  1  0
 13 16  1  0
 16 17  2  0
 17 18  1  0
 18 19  2  0
 19 20  1  0
 20 21  2  0
 21  2  1  0
 11  6  1  0
 21 16  1  0
  1 22  1  0
  1 23  1  0
  1 24  1  0
  4 25  1  0
  5 26  1  0
 10 27  1  0
 14 28  1  0
 14 29  1  0
 14 30  1  0
 15 31  1  0
 15 32  1  0
 15 33  1  0
 17 34  1  0
 18 35  1  0
 19 36  1  0
 20 37  1  0
M  END
$$$$
