
     RDKit          3D

 60 63  0  0  0  0  0  0  0  0999 V2000
    9.9666   -1.3514    1.5358 C   0  0  0  0  0  0  0  0  0  0  0  0
    9.5267   -0.8811    0.1602 C   0  0  0  0  0  0  0  0  0  0  0  0
    8.9460    0.4198    0.2298 O   0  0  0  0  0  0  0  0  0  0  0  0
    7.6051    0.5336    0.4670 C   0  0  0  0  0  0  0  0  0  0  0  0
    7.1191    1.8428    0.4144 C   0  0  0  0  0  0  0  0  0  0  0  0
    5.7674    2.1160    0.6392 C   0  0  0  0  0  0  0  0  0  0  0  0
    4.8779    1.0762    0.9305 C   0  0  0  0  0  0  0  0  0  0  0  0
    3.4131    1.3473    1.1503 C   0  0  0  0  0  0  0  0  0  0  0  0
    2.6737    1.1189   -0.0692 N   0  0  0  0  0  0  0  0  0  0  0  0
    1.7963    0.0641   -0.2143 C   0  0  0  0  0  0  0  0  0  0  0  0
    1.5819   -0.7512    0.6807 O   0  0  0  0  0  0  0  0  0  0  0  0
    1.1467   -0.0184   -1.5979 C   0  0  0  0  0  0  0  0  0  0  0  0
   -0.2655   -0.3364   -1.4727 N   0  0  0  0  0  0  0  0  0  0  0  0
   -0.6370   -1.6640   -1.7091 N   0  0  0  0  0  0  0  0  0  0  0  0
   -1.8761   -2.0464   -1.5707 C   0  0  0  0  0  0  0  0  0  0  0  0
   -2.2074   -3.4915   -1.8118 C   0  0  0  0  0  0  0  0  0  0  0  0
   -2.8811   -1.0773   -1.2041 C   0  0  0  0  0  0  0  0  0  0  0  0
   -4.2573   -1.1227   -1.0513 C   0  0  0  0  0  0  0  0  0  0  0  0
   -5.2137   -2.2190   -1.3526 C   0  0  0  0  0  0  0  0  0  0  0  0
   -4.6216    0.1494   -0.5906 N   0  0  0  0  0  0  0  0  0  0  0  0
   -5.8620    0.6296   -0.0662 C   0  0  0  0  0  0  0  0  0  0  0  0
   -6.0778    2.0163    0.0016 C   0  0  0  0  0  0  0  0  0  0  0  0
   -7.2743    2.5297    0.5115 C   0  0  0  0  0  0  0  0  0  0  0  0
   -8.2760    1.6696    0.9685 C   0  0  0  0  0  0  0  0  0  0  0  0
   -9.5433    2.2199    1.5520 C   0  0  0  0  0  0  0  0  0  0  0  0
   -8.0468    0.2901    0.9403 C   0  0  0  0  0  0  0  0  0  0  0  0
   -6.8499   -0.2280    0.4292 C   0  0  0  0  0  0  0  0  0  0  0  0
   -3.5771    1.0173   -0.6875 N   0  0  0  0  0  0  0  0  0  0  0  0
   -2.5208    0.2559   -0.9794 C   0  0  0  0  0  0  0  0  0  0  0  0
   -1.1414    0.7034   -1.1080 C   0  0  0  0  0  0  0  0  0  0  0  0
   -0.7713    1.8630   -0.9290 O   0  0  0  0  0  0  0  0  0  0  0  0
    5.3667   -0.2364    0.9783 C   0  0  0  0  0  0  0  0  0  0  0  0
    6.7217   -0.5057    0.7531 C   0  0  0  0  0  0  0  0  0  0  0  0
   10.6408   -0.6196    1.9934 H   0  0  0  0  0  0  0  0  0  0  0  0
   10.4848   -2.3122    1.4682 H   0  0  0  0  0  0  0  0  0  0  0  0
    9.1144   -1.4629    2.2127 H   0  0  0  0  0  0  0  0  0  0  0  0
    8.8780   -1.6060   -0.3435 H   0  0  0  0  0  0  0  0  0  0  0  0
   10.4172   -0.7877   -0.4721 H   0  0  0  0  0  0  0  0  0  0  0  0
    7.8028    2.6595    0.1941 H   0  0  0  0  0  0  0  0  0  0  0  0
    5.4195    3.1448    0.5871 H   0  0  0  0  0  0  0  0  0  0  0  0
    3.0317    0.7285    1.9699 H   0  0  0  0  0  0  0  0  0  0  0  0
    3.2547    2.3931    1.4363 H   0  0  0  0  0  0  0  0  0  0  0  0
    2.8007    1.7805   -0.8231 H   0  0  0  0  0  0  0  0  0  0  0  0
    1.2538    0.9312   -2.1329 H   0  0  0  0  0  0  0  0  0  0  0  0
    1.6544   -0.7991   -2.1743 H   0  0  0  0  0  0  0  0  0  0  0  0
   -2.7400   -3.5901   -2.7615 H   0  0  0  0  0  0  0  0  0  0  0  0
   -2.8270   -3.8789   -0.9987 H   0  0  0  0  0  0  0  0  0  0  0  0
   -1.2913   -4.0877   -1.8652 H   0  0  0  0  0  0  0  0  0  0  0  0
   -5.3526   -2.8638   -0.4800 H   0  0  0  0  0  0  0  0  0  0  0  0
   -4.8489   -2.8411   -2.1746 H   0  0  0  0  0  0  0  0  0  0  0  0
   -6.1835   -1.8373   -1.6853 H   0  0  0  0  0  0  0  0  0  0  0  0
   -5.3212    2.7180   -0.3476 H   0  0  0  0  0  0  0  0  0  0  0  0
   -7.4119    3.6080    0.5518 H   0  0  0  0  0  0  0  0  0  0  0  0
   -9.4206    2.3795    2.6283 H   0  0  0  0  0  0  0  0  0  0  0  0
  -10.3792    1.5308    1.3895 H   0  0  0  0  0  0  0  0  0  0  0  0
   -9.8099    3.1724    1.0803 H   0  0  0  0  0  0  0  0  0  0  0  0
   -8.7968   -0.3947    1.3310 H   0  0  0  0  0  0  0  0  0  0  0  0
   -6.7126   -1.3009    0.4858 H   0  0  0  0  0  0  0  0  0  0  0  0
    4.6866   -1.0601    1.1927 H   0  0  0  0  0  0  0  0  0  0  0  0
    7.0474   -1.5380    0.8158 H   0  0  0  0  0  0  0  0  0  0  0  0
  1  2  1  0
  2  3  1  0
  3  4  1  0
  4  5  2  0
  5  6  1  0
  6  7  2  0
  7  8  1  0
  8  9  1  0
  9 10  1  0
 10 11  2  0
 10 12  1  0
 12 13  1  0
 13 14  1  0
 14 15  2  0
 15 16  1  0
 15 17  1  0
 17 18  2  0
 18 19  1  0
 18 20  1  0
 20 21  1  0
 21 22  2  0
 22 23  1  0
 23 24  2  0
 24 25  1  0
 24 26  1  0
 26 27  2  0
 20 28  1  0
 28 29  2  0
 29 30  1  0
 30 31  2  0
  7 32  1  0
 32 33  2  0
 33  4  1  0
 30 13  1  0
 29 17  1  0
 27 21  1  0
  1 34  1  0
  1 35  1  0
  1 36  1  0
  2 37  1  0
  2 38  1  0
  5 39  1  0
  6 40  1  0
  8 41  1  0
  8 42  1  0
  9 43  1  0
 12 44  1  0
 12 45  1  0
 16 46  1  0
 16 47  1  0
 16 48  1  0
 19 49  1  0
 19 50  1  0
 19 51  1  0
 22 52  1  0
 23 53  1  0
 25 54  1  0
 25 55  1  0
 25 56  1  0
 26 57  1  0
 27 58  1  0
 32 59  1  0
 33 60  1  0
M  END
$$$$
