
     RDKit          3D

 53 58  0  0  0  0  0  0  0  0999 V2000
    0.8319   -1.5088   -1.4219 O   0  0  0  0  0  0  0  0  0  0  0  0
    1.4102   -1.0609   -0.4268 C   0  0  0  0  0  0  0  0  0  0  0  0
    0.6817   -1.1536    0.9328 C   0  0  0  0  0  0  0  0  0  0  0  0
   -0.7584   -0.8855    0.7583 N   0  0  0  0  0  4  0  0  0  0  0  0
   -1.4120    0.3282    0.9671 C   0  0  0  0  0  0  0  0  0  0  0  0
   -2.7494    0.1871    0.6152 C   0  0  0  0  0  0  0  0  0  0  0  0
   -3.8635    1.2922    0.7200 C   0  0  0  0  0  0  0  0  0  0  0  0
   -3.5235    2.5886    1.1351 C   0  0  0  0  0  0  0  0  0  0  0  0
   -4.5087    3.5754    1.2325 C   0  0  0  0  0  0  0  0  0  0  0  0
   -5.8254    3.2654    0.9201 C   0  0  0  0  0  0  0  0  0  0  0  0
   -6.7678    4.2106    1.0149 F   0  0  0  0  0  0  0  0  0  0  0  0
   -6.1764    1.9851    0.5127 C   0  0  0  0  0  0  0  0  0  0  0  0
   -5.1948    0.9943    0.4128 C   0  0  0  0  0  0  0  0  0  0  0  0
   -2.8247   -1.1209    0.1709 N   0  0  0  0  0  0  0  0  0  0  0  0
   -1.6488   -1.7377    0.2602 C   0  0  0  0  0  0  0  0  0  0  0  0
   -1.6924   -3.1456   -0.1991 C   0  0  0  0  0  0  0  0  0  0  0  0
   -3.0398   -3.1967   -0.9449 C   0  0  0  0  0  0  0  0  0  0  0  0
   -3.8469   -1.9860   -0.4017 C   0  0  0  0  0  0  0  0  0  0  0  0
    2.6218   -0.3476   -0.4235 N   0  0  0  0  0  0  0  0  0  0  0  0
    3.0601    0.4026   -1.5790 C   0  0  0  0  0  0  0  0  0  0  0  0
    2.7296   -0.0050   -2.8840 C   0  0  0  0  0  0  0  0  0  0  0  0
    3.1401    0.7223   -4.0072 C   0  0  0  0  0  0  0  0  0  0  0  0
    3.8872    1.8814   -3.8530 C   0  0  0  0  0  0  0  0  0  0  0  0
    4.2240    2.3125   -2.5744 C   0  0  0  0  0  0  0  0  0  0  0  0
    3.8202    1.5824   -1.4448 C   0  0  0  0  0  0  0  0  0  0  0  0
    4.2261    2.2671    0.1463 S   0  0  0  0  0  0  0  0  0  0  0  0
    4.2818    0.7596    1.0727 C   0  0  0  0  0  0  0  0  0  0  0  0
    5.1074    0.7129    2.2054 C   0  0  0  0  0  0  0  0  0  0  0  0
    5.1948   -0.4462    2.9728 C   0  0  0  0  0  0  0  0  0  0  0  0
    4.4674   -1.5708    2.6052 C   0  0  0  0  0  0  0  0  0  0  0  0
    3.6351   -1.5264    1.4840 C   0  0  0  0  0  0  0  0  0  0  0  0
    3.5023   -0.3513    0.7165 C   0  0  0  0  0  0  0  0  0  0  0  0
    0.7913   -2.1647    1.3362 H   0  0  0  0  0  0  0  0  0  0  0  0
    1.0589   -0.4253    1.6558 H   0  0  0  0  0  0  0  0  0  0  0  0
   -0.8339    1.1509    1.3528 H   0  0  0  0  0  0  0  0  0  0  0  0
   -2.5037    2.8685    1.3826 H   0  0  0  0  0  0  0  0  0  0  0  0
   -4.2597    4.5848    1.5483 H   0  0  0  0  0  0  0  0  0  0  0  0
   -7.2150    1.7677    0.2786 H   0  0  0  0  0  0  0  0  0  0  0  0
   -5.5093    0.0049    0.1069 H   0  0  0  0  0  0  0  0  0  0  0  0
   -0.8364   -3.3579   -0.8377 H   0  0  0  0  0  0  0  0  0  0  0  0
   -1.6901   -3.7639    0.7013 H   0  0  0  0  0  0  0  0  0  0  0  0
   -2.8614   -3.0516   -2.0171 H   0  0  0  0  0  0  0  0  0  0  0  0
   -3.5632   -4.1479   -0.8167 H   0  0  0  0  0  0  0  0  0  0  0  0
   -4.5330   -2.2934    0.3929 H   0  0  0  0  0  0  0  0  0  0  0  0
   -4.3833   -1.4797   -1.2075 H   0  0  0  0  0  0  0  0  0  0  0  0
    2.1859   -0.9246   -3.0780 H   0  0  0  0  0  0  0  0  0  0  0  0
    2.8815    0.3719   -5.0043 H   0  0  0  0  0  0  0  0  0  0  0  0
    4.2083    2.4478   -4.7241 H   0  0  0  0  0  0  0  0  0  0  0  0
    4.8027    3.2281   -2.4642 H   0  0  0  0  0  0  0  0  0  0  0  0
    5.7018    1.5795    2.4915 H   0  0  0  0  0  0  0  0  0  0  0  0
    5.8515   -0.4761    3.8400 H   0  0  0  0  0  0  0  0  0  0  0  0
    4.5702   -2.4907    3.1779 H   0  0  0  0  0  0  0  0  0  0  0  0
    3.1476   -2.4530    1.1898 H   0  0  0  0  0  0  0  0  0  0  0  0
  1  2  2  0
  2  3  1  0
  3  4  1  0
  4  5  1  0
  5  6  2  0
  6  7  1  0
  7  8  2  0
  8  9  1  0
  9 10  2  0
 10 11  1  0
 10 12  1  0
 12 13  2  0
  6 14  1  0
 14 15  1  0
 15 16  1  0
 16 17  1  0
 17 18  1  0
  2 19  1  0
 19 20  1  0
 20 21  2  0
 21 22  1  0
 22 23  2  0
 23 24  1  0
 24 25  2  0
 25 26  1  0
 26 27  1  0
 27 28  2  0
 28 29  1  0
 29 30  2  0
 30 31  1  0
 31 32  2  0
 15  4  2  0
 32 19  1  0
 13  7  1  0
 18 14  1  0
 25 20  1  0
 32 27  1  0
  3 33  1  0
  3 34  1  0
  5 35  1  0
  8 36  1  0
  9 37  1  0
 12 38  1  0
 13 39  1  0
 16 40  1  0
 16 41  1  0
 17 42  1  0
 17 43  1  0
 18 44  1  0
 18 45  1  0
 21 46  1  0
 22 47  1  0
 23 48  1  0
 24 49  1  0
 28 50  1  0
 29 51  1  0
 30 52  1  0
 31 53  1  0
M  CHG  1   4   1
M  END
$$$$
