
     RDKit          3D

 34 35  0  0  0  0  0  0  0  0999 V2000
    1.1883    0.7362    1.8575 C   0  0  0  0  0  0  0  0  0  0  0  0
    2.2624    0.3225    0.8660 C   0  0  0  0  0  0  0  0  0  0  0  0
    2.1956   -0.7347    0.1027 N   0  0  0  0  0  0  0  0  0  0  0  0
    1.0375   -1.4679    0.0519 N   0  0  0  0  0  0  0  0  0  0  0  0
   -0.1427   -0.9014   -0.4566 C   0  0  0  0  0  0  0  0  0  0  0  0
   -0.2954    0.2970   -0.6663 O   0  0  0  0  0  0  0  0  0  0  0  0
   -1.1855   -1.9721   -0.7219 C   0  0  0  0  0  0  0  0  0  0  0  0
   -2.5926   -1.4483   -1.0046 C   0  0  0  0  0  0  0  0  0  0  0  0
   -3.5266   -2.6400   -1.2517 C   0  0  0  0  0  0  0  0  0  0  0  0
   -3.1254   -0.7363    0.1216 O   0  0  0  0  0  0  0  0  0  0  0  0
   -3.3740    0.5879   -0.3562 C   0  0  0  0  0  0  0  0  0  0  0  0
   -3.5035    0.4408   -1.8502 C   0  0  0  0  0  0  0  0  0  0  0  0
   -2.6207   -0.6311   -2.1792 O   0  0  0  0  0  0  0  0  0  0  0  0
    3.4552    1.1697    0.8021 C   0  0  0  0  0  0  0  0  0  0  0  0
    3.6672    2.4158    1.3691 C   0  0  0  0  0  0  0  0  0  0  0  0
    4.9650    2.9379    1.0921 C   0  0  0  0  0  0  0  0  0  0  0  0
    5.7094    2.0783    0.3192 C   0  0  0  0  0  0  0  0  0  0  0  0
    4.8467    0.6567   -0.0687 S   0  0  0  0  0  0  0  0  0  0  0  0
    0.6345    1.5924    1.4620 H   0  0  0  0  0  0  0  0  0  0  0  0
    0.4928   -0.0763    2.0771 H   0  0  0  0  0  0  0  0  0  0  0  0
    1.6489    1.0252    2.8075 H   0  0  0  0  0  0  0  0  0  0  0  0
    1.2083   -2.4261   -0.2421 H   0  0  0  0  0  0  0  0  0  0  0  0
   -1.2115   -2.6274    0.1582 H   0  0  0  0  0  0  0  0  0  0  0  0
   -0.8254   -2.5507   -1.5821 H   0  0  0  0  0  0  0  0  0  0  0  0
   -3.5669   -3.3018   -0.3799 H   0  0  0  0  0  0  0  0  0  0  0  0
   -3.2118   -3.2169   -2.1279 H   0  0  0  0  0  0  0  0  0  0  0  0
   -4.5511   -2.2991   -1.4414 H   0  0  0  0  0  0  0  0  0  0  0  0
   -4.2741    0.9982    0.1097 H   0  0  0  0  0  0  0  0  0  0  0  0
   -2.5260    1.2212   -0.0814 H   0  0  0  0  0  0  0  0  0  0  0  0
   -3.2335    1.3474   -2.3978 H   0  0  0  0  0  0  0  0  0  0  0  0
   -4.5192    0.1451   -2.1341 H   0  0  0  0  0  0  0  0  0  0  0  0
    2.9247    2.9452    1.9538 H   0  0  0  0  0  0  0  0  0  0  0  0
    5.3302    3.8969    1.4389 H   0  0  0  0  0  0  0  0  0  0  0  0
    6.7192    2.2159   -0.0421 H   0  0  0  0  0  0  0  0  0  0  0  0
  1  2  1  0
  2  3  2  3
  3  4  1  0
  4  5  1  0
  5  6  2  0
  5  7  1  0
  7  8  1  0
  8  9  1  0
  8 10  1  0
 10 11  1  0
 11 12  1  0
 12 13  1  0
  2 14  1  0
 14 15  2  0
 15 16  1  0
 16 17  2  0
 17 18  1  0
 13  8  1  0
 18 14  1  0
  1 19  1  0
  1 20  1  0
  1 21  1  0
  4 22  1  0
  7 23  1  0
  7 24  1  0
  9 25  1  0
  9 26  1  0
  9 27  1  0
 11 28  1  0
 11 29  1  0
 12 30  1  0
 12 31  1  0
 15 32  1  0
 16 33  1  0
 17 34  1  0
M  END
$$$$
