
     RDKit          3D

 61 65  0  0  0  0  0  0  0  0999 V2000
   -7.5393   -1.9557   -4.0810 C   0  0  0  0  0  0  0  0  0  0  0  0
   -6.4005   -1.8408   -3.1121 C   0  0  0  0  0  0  0  0  0  0  0  0
   -5.1616   -2.4209   -3.4013 C   0  0  0  0  0  0  0  0  0  0  0  0
   -4.0942   -2.2981   -2.5062 C   0  0  0  0  0  0  0  0  0  0  0  0
   -4.2338   -1.5722   -1.3142 C   0  0  0  0  0  0  0  0  0  0  0  0
   -3.1340   -1.4633   -0.3974 N   0  0  0  0  0  0  0  0  0  0  0  0
   -2.7330   -0.2614    0.1803 C   0  0  0  0  0  0  0  0  0  0  0  0
   -3.3460    1.2840   -0.4068 S   0  0  0  0  0  0  0  0  0  0  0  0
   -2.3551    1.4103   -1.9261 C   0  0  0  0  0  0  0  0  0  0  0  0
   -0.8801    1.1152   -1.6904 C   0  0  0  0  0  0  0  0  0  0  0  0
   -0.3153    0.2416   -2.3427 O   0  0  0  0  0  0  0  0  0  0  0  0
   -0.3063    1.9292   -0.7304 N   0  0  0  0  0  0  0  0  0  0  0  0
    1.0238    1.9107   -0.2700 C   0  0  0  0  0  0  0  0  0  0  0  0
    1.3330    2.7155    0.8278 C   0  0  0  0  0  0  0  0  0  0  0  0
    2.6355    2.7513    1.3465 C   0  0  0  0  0  0  0  0  0  0  0  0
    3.6784    1.9949    0.7930 C   0  0  0  0  0  0  0  0  0  0  0  0
    4.9623    2.0443    1.3040 N   0  0  0  0  0  0  0  0  0  0  0  0
    5.2330    2.4624    2.6890 C   0  0  0  0  0  0  0  0  0  0  0  0
    6.4993    1.7678    3.2232 C   0  0  0  0  0  0  0  0  0  0  0  0
    7.6791    2.0204    2.4485 O   0  0  0  0  0  0  0  0  0  0  0  0
    7.4073    2.2421    1.0571 C   0  0  0  0  0  0  0  0  0  0  0  0
    6.1264    1.5586    0.5453 C   0  0  0  0  0  0  0  0  0  0  0  0
    3.3424    1.1995   -0.3139 C   0  0  0  0  0  0  0  0  0  0  0  0
    2.0404    1.1530   -0.8394 C   0  0  0  0  0  0  0  0  0  0  0  0
   -1.8389   -0.1426    1.1069 N   0  0  0  0  0  0  0  0  0  0  0  0
   -1.1670   -1.2887    1.5329 C   0  0  0  0  0  0  0  0  0  0  0  0
   -0.1751   -1.1647    2.5093 C   0  0  0  0  0  0  0  0  0  0  0  0
    0.5383   -2.2839    2.9460 C   0  0  0  0  0  0  0  0  0  0  0  0
    0.2657   -3.5394    2.4045 C   0  0  0  0  0  0  0  0  0  0  0  0
   -0.7174   -3.6719    1.4244 C   0  0  0  0  0  0  0  0  0  0  0  0
   -1.4254   -2.5425    0.9917 C   0  0  0  0  0  0  0  0  0  0  0  0
   -2.4806   -2.6510   -0.0333 C   0  0  0  0  0  0  0  0  0  0  0  0
   -2.7420   -3.7758   -0.4609 O   0  0  0  0  0  0  0  0  0  0  0  0
   -5.4796   -0.9941   -1.0298 C   0  0  0  0  0  0  0  0  0  0  0  0
   -6.5492   -1.1192   -1.9238 C   0  0  0  0  0  0  0  0  0  0  0  0
   -8.4998   -1.9595   -3.5549 H   0  0  0  0  0  0  0  0  0  0  0  0
   -7.5223   -1.1156   -4.7805 H   0  0  0  0  0  0  0  0  0  0  0  0
   -7.4774   -2.8908   -4.6492 H   0  0  0  0  0  0  0  0  0  0  0  0
   -5.0162   -2.9832   -4.3217 H   0  0  0  0  0  0  0  0  0  0  0  0
   -3.1460   -2.7688   -2.7611 H   0  0  0  0  0  0  0  0  0  0  0  0
   -2.4510    2.4216   -2.3339 H   0  0  0  0  0  0  0  0  0  0  0  0
   -2.7439    0.7113   -2.6727 H   0  0  0  0  0  0  0  0  0  0  0  0
   -0.9526    2.4934   -0.1891 H   0  0  0  0  0  0  0  0  0  0  0  0
    0.5718    3.3293    1.3021 H   0  0  0  0  0  0  0  0  0  0  0  0
    2.8215    3.4151    2.1874 H   0  0  0  0  0  0  0  0  0  0  0  0
    5.3683    3.5501    2.7106 H   0  0  0  0  0  0  0  0  0  0  0  0
    4.4039    2.1973    3.3538 H   0  0  0  0  0  0  0  0  0  0  0  0
    6.7042    2.0983    4.2483 H   0  0  0  0  0  0  0  0  0  0  0  0
    6.3509    0.6802    3.2570 H   0  0  0  0  0  0  0  0  0  0  0  0
    7.3438    3.3274    0.9027 H   0  0  0  0  0  0  0  0  0  0  0  0
    8.2750    1.8838    0.4932 H   0  0  0  0  0  0  0  0  0  0  0  0
    6.2068    0.4716    0.6677 H   0  0  0  0  0  0  0  0  0  0  0  0
    6.0274    1.7907   -0.5212 H   0  0  0  0  0  0  0  0  0  0  0  0
    4.0884    0.5703   -0.7921 H   0  0  0  0  0  0  0  0  0  0  0  0
    1.8644    0.5107   -1.6972 H   0  0  0  0  0  0  0  0  0  0  0  0
    0.0501   -0.1846    2.9237 H   0  0  0  0  0  0  0  0  0  0  0  0
    1.3101   -2.1727    3.7040 H   0  0  0  0  0  0  0  0  0  0  0  0
    0.8196   -4.4122    2.7417 H   0  0  0  0  0  0  0  0  0  0  0  0
   -0.9302   -4.6506    0.9994 H   0  0  0  0  0  0  0  0  0  0  0  0
   -5.6529   -0.4685   -0.0934 H   0  0  0  0  0  0  0  0  0  0  0  0
   -7.5044   -0.6598   -1.6755 H   0  0  0  0  0  0  0  0  0  0  0  0
  1  2  1  0
  2  3  2  0
  3  4  1  0
  4  5  2  0
  5  6  1  0
  6  7  1  0
  7  8  1  0
  8  9  1  0
  9 10  1  0
 10 11  2  0
 10 12  1  0
 12 13  1  0
 13 14  2  0
 14 15  1  0
 15 16  2  0
 16 17  1  0
 17 18  1  0
 18 19  1  0
 19 20  1  0
 20 21  1  0
 21 22  1  0
 16 23  1  0
 23 24  2  0
  7 25  2  0
 25 26  1  0
 26 27  2  0
 27 28  1  0
 28 29  2  0
 29 30  1  0
 30 31  2  0
 31 32  1  0
 32 33  2  0
  5 34  1  0
 34 35  2  0
 35  2  1  0
 32  6  1  0
 24 13  1  0
 31 26  1  0
 22 17  1  0
  1 36  1  0
  1 37  1  0
  1 38  1  0
  3 39  1  0
  4 40  1  0
  9 41  1  0
  9 42  1  0
 12 43  1  0
 14 44  1  0
 15 45  1  0
 18 46  1  0
 18 47  1  0
 19 48  1  0
 19 49  1  0
 21 50  1  0
 21 51  1  0
 22 52  1  0
 22 53  1  0
 23 54  1  0
 24 55  1  0
 27 56  1  0
 28 57  1  0
 29 58  1  0
 30 59  1  0
 34 60  1  0
 35 61  1  0
M  END
$$$$
