
     RDKit          3D

 59 62  0  0  0  0  0  0  0  0999 V2000
   -6.2938    2.2281   -4.1825 C   0  0  0  0  0  0  0  0  0  0  0  0
   -5.6947    2.4239   -2.9080 O   0  0  0  0  0  0  0  0  0  0  0  0
   -4.7659    1.5041   -2.5087 C   0  0  0  0  0  0  0  0  0  0  0  0
   -4.3663    0.3752   -3.2207 C   0  0  0  0  0  0  0  0  0  0  0  0
   -3.4139   -0.4967   -2.6764 C   0  0  0  0  0  0  0  0  0  0  0  0
   -2.8467   -0.2493   -1.4197 C   0  0  0  0  0  0  0  0  0  0  0  0
   -1.8770   -1.1890   -0.8676 C   0  0  0  0  0  0  0  0  0  0  0  0
   -0.6706   -1.6155   -1.3937 C   0  0  0  0  0  0  0  0  0  0  0  0
   -0.0854   -2.5717   -0.6090 N   0  0  0  0  0  0  0  0  0  0  0  0
   -0.9279   -2.7583    0.3787 C   0  0  0  0  0  0  0  0  0  0  0  0
   -0.6953   -3.9154    1.6491 S   0  0  0  0  0  0  0  0  0  0  0  0
    1.1025   -4.1270    1.5852 C   0  0  0  0  0  0  0  0  0  0  0  0
    1.7919   -2.8952    2.1434 C   0  0  0  0  0  0  0  0  0  0  0  0
    1.9450   -2.7655    3.3546 O   0  0  0  0  0  0  0  0  0  0  0  0
    2.1992   -2.0220    1.1626 N   0  0  0  0  0  0  0  0  0  0  0  0
    3.0095   -0.9264    1.3119 C   0  0  0  0  0  0  0  0  0  0  0  0
    3.4466   -0.2592    0.2704 N   0  0  0  0  0  0  0  0  0  0  0  0
    4.3405    0.7287    0.6659 C   0  0  0  0  0  0  0  0  0  0  0  0
    5.0928    1.5298   -0.3922 C   0  0  0  0  0  0  0  0  0  0  0  0
    5.1017    3.0342   -0.0546 C   0  0  0  0  0  0  0  0  0  0  0  0
    6.5506    1.0260   -0.4647 C   0  0  0  0  0  0  0  0  0  0  0  0
    4.4503    1.3641   -1.7836 C   0  0  0  0  0  0  0  0  0  0  0  0
    4.4580    0.8562    2.0425 C   0  0  0  0  0  0  0  0  0  0  0  0
    3.5267   -0.3487    2.8252 S   0  0  0  0  0  0  0  0  0  0  0  0
   -2.0057   -1.9089    0.3092 N   0  0  0  0  0  0  0  0  0  0  0  0
   -3.0895   -1.8091    1.2830 C   0  0  0  0  0  0  0  0  0  0  0  0
   -2.7668   -0.8281    2.3536 C   0  0  0  0  0  0  0  0  0  0  0  0
   -1.5972   -0.3424    2.9049 C   0  0  0  0  0  0  0  0  0  0  0  0
   -1.9741    0.6167    3.8706 C   0  0  0  0  0  0  0  0  0  0  0  0
   -3.3452    0.6414    3.8726 C   0  0  0  0  0  0  0  0  0  0  0  0
   -3.8364   -0.2256    2.9514 O   0  0  0  0  0  0  0  0  0  0  0  0
   -3.2363    0.8954   -0.7193 C   0  0  0  0  0  0  0  0  0  0  0  0
   -4.1960    1.7580   -1.2586 C   0  0  0  0  0  0  0  0  0  0  0  0
   -7.0084    3.0381   -4.3383 H   0  0  0  0  0  0  0  0  0  0  0  0
   -5.5450    2.2911   -4.9805 H   0  0  0  0  0  0  0  0  0  0  0  0
   -6.8353    1.2765   -4.2264 H   0  0  0  0  0  0  0  0  0  0  0  0
   -4.7756    0.1386   -4.1982 H   0  0  0  0  0  0  0  0  0  0  0  0
   -3.1241   -1.3796   -3.2438 H   0  0  0  0  0  0  0  0  0  0  0  0
   -0.2003   -1.2680   -2.3067 H   0  0  0  0  0  0  0  0  0  0  0  0
    1.3849   -4.9817    2.2112 H   0  0  0  0  0  0  0  0  0  0  0  0
    1.4428   -4.3573    0.5682 H   0  0  0  0  0  0  0  0  0  0  0  0
    1.8864   -2.1618    0.2072 H   0  0  0  0  0  0  0  0  0  0  0  0
    5.5957    3.2358    0.9020 H   0  0  0  0  0  0  0  0  0  0  0  0
    4.0812    3.4364    0.0071 H   0  0  0  0  0  0  0  0  0  0  0  0
    5.6378    3.6067   -0.8219 H   0  0  0  0  0  0  0  0  0  0  0  0
    6.5905   -0.0484   -0.6864 H   0  0  0  0  0  0  0  0  0  0  0  0
    7.0750    1.1792    0.4868 H   0  0  0  0  0  0  0  0  0  0  0  0
    7.1199    1.5477   -1.2462 H   0  0  0  0  0  0  0  0  0  0  0  0
    3.4099    1.7090   -1.7828 H   0  0  0  0  0  0  0  0  0  0  0  0
    4.4483    0.3145   -2.1016 H   0  0  0  0  0  0  0  0  0  0  0  0
    4.9924    1.9335   -2.5478 H   0  0  0  0  0  0  0  0  0  0  0  0
    5.0619    1.5453    2.6137 H   0  0  0  0  0  0  0  0  0  0  0  0
   -3.9999   -1.5261    0.7466 H   0  0  0  0  0  0  0  0  0  0  0  0
   -3.2668   -2.8055    1.7032 H   0  0  0  0  0  0  0  0  0  0  0  0
   -0.5859   -0.6307    2.6460 H   0  0  0  0  0  0  0  0  0  0  0  0
   -1.3234    1.2074    4.5010 H   0  0  0  0  0  0  0  0  0  0  0  0
   -4.0835    1.1997    4.4290 H   0  0  0  0  0  0  0  0  0  0  0  0
   -2.8064    1.1337    0.2511 H   0  0  0  0  0  0  0  0  0  0  0  0
   -4.5027    2.6380   -0.6979 H   0  0  0  0  0  0  0  0  0  0  0  0
  1  2  1  0
  2  3  1  0
  3  4  2  0
  4  5  1  0
  5  6  2  0
  6  7  1  0
  7  8  2  0
  8  9  1  0
  9 10  2  0
 10 11  1  0
 11 12  1  0
 12 13  1  0
 13 14  2  0
 13 15  1  0
 15 16  1  0
 16 17  2  0
 17 18  1  0
 18 19  1  0
 19 20  1  0
 19 21  1  0
 19 22  1  0
 18 23  2  0
 23 24  1  0
 10 25  1  0
 25 26  1  0
 26 27  1  0
 27 28  2  0
 28 29  1  0
 29 30  2  0
 30 31  1  0
  6 32  1  0
 32 33  2  0
 33  3  1  0
 25  7  1  0
 31 27  1  0
 24 16  1  0
  1 34  1  0
  1 35  1  0
  1 36  1  0
  4 37  1  0
  5 38  1  0
  8 39  1  0
 12 40  1  0
 12 41  1  0
 15 42  1  0
 20 43  1  0
 20 44  1  0
 20 45  1  0
 21 46  1  0
 21 47  1  0
 21 48  1  0
 22 49  1  0
 22 50  1  0
 22 51  1  0
 23 52  1  0
 26 53  1  0
 26 54  1  0
 28 55  1  0
 29 56  1  0
 30 57  1  0
 32 58  1  0
 33 59  1  0
M  END
$$$$
