
     RDKit          3D

 60 64  0  0  0  0  0  0  0  0999 V2000
   -8.1681   -0.0590   -0.9080 C   0  0  0  0  0  0  0  0  0  0  0  0
   -6.9884   -0.3303   -0.0217 C   0  0  0  0  0  0  0  0  0  0  0  0
   -6.7794   -1.6109    0.4999 C   0  0  0  0  0  0  0  0  0  0  0  0
   -5.6646   -1.8792    1.2979 C   0  0  0  0  0  0  0  0  0  0  0  0
   -4.7358   -0.8707    1.5860 C   0  0  0  0  0  0  0  0  0  0  0  0
   -3.5231   -1.1640    2.4329 C   0  0  0  0  0  0  0  0  0  0  0  0
   -2.4363   -1.6940    1.6379 N   0  0  0  0  0  0  0  0  0  0  0  0
   -2.2240   -3.0311    1.5508 N   0  0  0  0  0  0  0  0  0  0  0  0
   -1.1657   -3.2235    0.7634 N   0  0  0  0  0  0  0  0  0  0  0  0
   -0.7155   -1.9968    0.3848 C   0  0  0  0  0  0  0  0  0  0  0  0
    0.3847   -1.6166   -0.4584 C   0  0  0  0  0  0  0  0  0  0  0  0
    1.1566   -2.3863   -1.0189 O   0  0  0  0  0  0  0  0  0  0  0  0
    0.4919   -0.2371   -0.5764 N   0  0  0  0  0  0  0  0  0  0  0  0
   -0.3551    0.6752    0.0392 C   0  0  0  0  0  0  0  0  0  0  0  0
   -0.0647    2.1541   -0.2094 C   0  0  0  0  0  0  0  0  0  0  0  0
    1.1709    2.6155    0.5676 C   0  0  0  0  0  0  0  0  0  0  0  0
    2.4949    2.0897    0.0060 C   0  0  0  0  0  0  0  0  0  0  0  0
    2.3780    1.7381   -1.4470 N   0  0  0  0  0  0  0  0  0  0  0  0
    3.9037    1.5612   -2.2521 S   0  0  0  0  0  6  0  0  0  0  0  0
    4.6354    2.7938   -2.0515 O   0  0  0  0  0  0  0  0  0  0  0  0
    3.6298    1.0537   -3.5787 O   0  0  0  0  0  0  0  0  0  0  0  0
    4.6852    0.2710   -1.3232 C   0  0  0  0  0  0  0  0  0  0  0  0
    5.7458    0.5711   -0.4655 C   0  0  0  0  0  0  0  0  0  0  0  0
    6.3411   -0.4525    0.2731 C   0  0  0  0  0  0  0  0  0  0  0  0
    5.8770   -1.7712    0.1622 C   0  0  0  0  0  0  0  0  0  0  0  0
    6.5386   -2.8740    0.9349 C   0  0  0  0  0  0  0  0  0  0  0  0
    4.8309   -2.0600   -0.7250 C   0  0  0  0  0  0  0  0  0  0  0  0
    4.2352   -1.0433   -1.4710 C   0  0  0  0  0  0  0  0  0  0  0  0
    1.4875    2.6933   -2.1674 C   0  0  0  0  0  0  0  0  0  0  0  0
    0.0469    2.4767   -1.7065 C   0  0  0  0  0  0  0  0  0  0  0  0
   -1.3487    0.3392    0.8159 N   0  0  0  0  0  0  0  0  0  0  0  0
   -1.4855   -1.0043    0.9413 C   0  0  0  0  0  0  0  0  0  0  0  0
   -4.9359    0.4064    1.0448 C   0  0  0  0  0  0  0  0  0  0  0  0
   -6.0509    0.6727    0.2461 C   0  0  0  0  0  0  0  0  0  0  0  0
   -9.0508   -0.6030   -0.5550 H   0  0  0  0  0  0  0  0  0  0  0  0
   -7.9447   -0.3684   -1.9339 H   0  0  0  0  0  0  0  0  0  0  0  0
   -8.4223    1.0067   -0.9101 H   0  0  0  0  0  0  0  0  0  0  0  0
   -7.4826   -2.4120    0.2826 H   0  0  0  0  0  0  0  0  0  0  0  0
   -5.5212   -2.8867    1.6837 H   0  0  0  0  0  0  0  0  0  0  0  0
   -3.1653   -0.2595    2.9376 H   0  0  0  0  0  0  0  0  0  0  0  0
   -3.7621   -1.8910    3.2169 H   0  0  0  0  0  0  0  0  0  0  0  0
    1.2481    0.0963   -1.1653 H   0  0  0  0  0  0  0  0  0  0  0  0
   -0.9338    2.7006    0.1829 H   0  0  0  0  0  0  0  0  0  0  0  0
    1.0922    2.3387    1.6262 H   0  0  0  0  0  0  0  0  0  0  0  0
    1.1977    3.7134    0.5449 H   0  0  0  0  0  0  0  0  0  0  0  0
    2.7676    1.1798    0.5534 H   0  0  0  0  0  0  0  0  0  0  0  0
    3.2803    2.8345    0.1778 H   0  0  0  0  0  0  0  0  0  0  0  0
    6.1151    1.5898   -0.3663 H   0  0  0  0  0  0  0  0  0  0  0  0
    7.1713   -0.2173    0.9365 H   0  0  0  0  0  0  0  0  0  0  0  0
    7.3924   -3.2647    0.3735 H   0  0  0  0  0  0  0  0  0  0  0  0
    6.8890   -2.5111    1.9069 H   0  0  0  0  0  0  0  0  0  0  0  0
    5.8371   -3.6926    1.1276 H   0  0  0  0  0  0  0  0  0  0  0  0
    4.4692   -3.0808   -0.8410 H   0  0  0  0  0  0  0  0  0  0  0  0
    3.4279   -1.2873   -2.1589 H   0  0  0  0  0  0  0  0  0  0  0  0
    1.8069    3.7231   -1.9649 H   0  0  0  0  0  0  0  0  0  0  0  0
    1.5309    2.5368   -3.2502 H   0  0  0  0  0  0  0  0  0  0  0  0
   -0.4186    1.6862   -2.3080 H   0  0  0  0  0  0  0  0  0  0  0  0
   -0.5191    3.3897   -1.9276 H   0  0  0  0  0  0  0  0  0  0  0  0
   -4.2173    1.2029    1.2315 H   0  0  0  0  0  0  0  0  0  0  0  0
   -6.1804    1.6691   -0.1697 H   0  0  0  0  0  0  0  0  0  0  0  0
  1  2  1  0
  2  3  2  0
  3  4  1  0
  4  5  2  0
  5  6  1  0
  6  7  1  0
  7  8  1  0
  8  9  2  0
  9 10  1  0
 10 11  1  0
 11 12  2  0
 11 13  1  0
 13 14  1  0
 14 15  1  0
 15 16  1  0
 16 17  1  0
 17 18  1  0
 18 19  1  0
 19 20  2  0
 19 21  2  0
 19 22  1  0
 22 23  2  0
 23 24  1  0
 24 25  2  0
 25 26  1  0
 25 27  1  0
 27 28  2  0
 18 29  1  0
 29 30  1  0
 14 31  2  0
 31 32  1  0
  5 33  1  0
 33 34  2  0
 34  2  1  0
 32  7  1  0
 32 10  2  0
 30 15  1  0
 28 22  1  0
  1 35  1  0
  1 36  1  0
  1 37  1  0
  3 38  1  0
  4 39  1  0
  6 40  1  0
  6 41  1  0
 13 42  1  0
 15 43  1  0
 16 44  1  0
 16 45  1  0
 17 46  1  0
 17 47  1  0
 23 48  1  0
 24 49  1  0
 26 50  1  0
 26 51  1  0
 26 52  1  0
 27 53  1  0
 28 54  1  0
 29 55  1  0
 29 56  1  0
 30 57  1  0
 30 58  1  0
 33 59  1  0
 34 60  1  0
M  END
$$$$
