
     RDKit          3D

 52 55  0  0  0  0  0  0  0  0999 V2000
    5.7466   -2.6801   -0.5980 C   0  0  0  0  0  0  0  0  0  0  0  0
    5.1778   -1.3839   -0.1589 C   0  0  0  0  0  0  0  0  0  0  0  0
    3.8503   -0.9226   -0.2906 C   0  0  0  0  0  0  0  0  0  0  0  0
    3.8276    0.3466    0.2668 C   0  0  0  0  0  0  0  0  0  0  0  0
    2.7544    1.3039    0.4200 C   0  0  0  0  0  0  0  0  0  0  0  0
    2.9114    2.4281    0.8870 O   0  0  0  0  0  0  0  0  0  0  0  0
    1.5177    0.8638    0.0100 N   0  0  0  0  0  0  0  0  0  0  0  0
    0.3280    1.6756    0.1612 C   0  0  0  0  0  0  0  0  0  0  0  0
   -0.1870    1.7050    1.6210 C   0  0  0  0  0  0  0  0  0  0  0  0
   -1.0483    0.4737    2.0476 C   0  0  0  0  0  0  0  0  0  0  0  0
   -0.2054   -0.8168    2.0907 C   0  0  0  0  0  0  0  0  0  0  0  0
   -1.5813    0.7275    3.4728 C   0  0  0  0  0  0  0  0  0  0  0  0
   -2.2641    0.2857    1.0875 C   0  0  0  0  0  0  0  0  0  0  0  0
   -1.8798    0.5020   -0.3392 C   0  0  0  0  0  0  0  0  0  0  0  0
   -0.7129    1.1241   -0.7489 C   0  0  0  0  0  0  0  0  0  0  0  0
   -0.7483    1.0680   -2.1452 C   0  0  0  0  0  0  0  0  0  0  0  0
   -1.8297    0.4397   -2.5962 N   0  0  0  0  0  0  0  0  0  0  0  0
   -2.5746    0.1456   -1.4901 N   0  0  0  0  0  0  0  0  0  0  0  0
   -3.8652   -0.4426   -1.6724 C   0  0  0  0  0  0  0  0  0  0  0  0
   -4.8034   -0.5597   -0.6381 C   0  0  0  0  0  0  0  0  0  0  0  0
   -6.0550   -1.1455   -0.8737 C   0  0  0  0  0  0  0  0  0  0  0  0
   -6.3839   -1.6114   -2.1433 C   0  0  0  0  0  0  0  0  0  0  0  0
   -5.4636   -1.4815   -3.1732 C   0  0  0  0  0  0  0  0  0  0  0  0
   -5.7804   -1.9222   -4.3977 F   0  0  0  0  0  0  0  0  0  0  0  0
   -4.2181   -0.9019   -2.9541 C   0  0  0  0  0  0  0  0  0  0  0  0
    5.1236    0.5604    0.6803 N   0  0  0  0  0  0  0  0  0  0  0  0
    5.6574    1.7378    1.3283 C   0  0  0  0  0  0  0  0  0  0  0  0
    5.9518   -0.4750    0.4366 N   0  0  0  0  0  0  0  0  0  0  0  0
    6.3039   -2.5535   -1.5317 H   0  0  0  0  0  0  0  0  0  0  0  0
    6.4260   -3.0859    0.1587 H   0  0  0  0  0  0  0  0  0  0  0  0
    4.9558   -3.4178   -0.7691 H   0  0  0  0  0  0  0  0  0  0  0  0
    3.0292   -1.4593   -0.7432 H   0  0  0  0  0  0  0  0  0  0  0  0
    1.4076   -0.0893   -0.3001 H   0  0  0  0  0  0  0  0  0  0  0  0
    0.5803    2.6998   -0.1406 H   0  0  0  0  0  0  0  0  0  0  0  0
   -0.8154    2.6014    1.7269 H   0  0  0  0  0  0  0  0  0  0  0  0
    0.6488    1.8374    2.3195 H   0  0  0  0  0  0  0  0  0  0  0  0
   -0.7662   -1.6343    2.5588 H   0  0  0  0  0  0  0  0  0  0  0  0
    0.7107   -0.6702    2.6735 H   0  0  0  0  0  0  0  0  0  0  0  0
    0.0782   -1.1642    1.0936 H   0  0  0  0  0  0  0  0  0  0  0  0
   -2.1755    1.6473    3.5170 H   0  0  0  0  0  0  0  0  0  0  0  0
   -0.7590    0.8285    4.1901 H   0  0  0  0  0  0  0  0  0  0  0  0
   -2.2214   -0.0962    3.8092 H   0  0  0  0  0  0  0  0  0  0  0  0
   -3.0371    1.0219    1.3426 H   0  0  0  0  0  0  0  0  0  0  0  0
   -2.6815   -0.7170    1.2328 H   0  0  0  0  0  0  0  0  0  0  0  0
   -0.0190    1.4359   -2.8566 H   0  0  0  0  0  0  0  0  0  0  0  0
   -4.6265   -0.1788    0.3588 H   0  0  0  0  0  0  0  0  0  0  0  0
   -6.7769   -1.2276   -0.0643 H   0  0  0  0  0  0  0  0  0  0  0  0
   -7.3500   -2.0653   -2.3388 H   0  0  0  0  0  0  0  0  0  0  0  0
   -3.5349   -0.8264   -3.7968 H   0  0  0  0  0  0  0  0  0  0  0  0
    6.7169    1.5818    1.5500 H   0  0  0  0  0  0  0  0  0  0  0  0
    5.1115    1.9002    2.2607 H   0  0  0  0  0  0  0  0  0  0  0  0
    5.5487    2.5871    0.6497 H   0  0  0  0  0  0  0  0  0  0  0  0
  1  2  1  0
  2  3  1  0
  3  4  2  0
  4  5  1  0
  5  6  2  0
  5  7  1  0
  7  8  1  0
  8  9  1  0
  9 10  1  0
 10 11  1  0
 10 12  1  0
 10 13  1  0
 13 14  1  0
 14 15  2  0
 15 16  1  0
 16 17  2  0
 17 18  1  0
 18 19  1  0
 19 20  2  0
 20 21  1  0
 21 22  2  0
 22 23  1  0
 23 24  1  0
 23 25  2  0
  4 26  1  0
 26 27  1  0
 26 28  1  0
 28  2  2  0
 15  8  1  0
 25 19  1  0
 18 14  1  0
  1 29  1  0
  1 30  1  0
  1 31  1  0
  3 32  1  0
  7 33  1  0
  8 34  1  0
  9 35  1  0
  9 36  1  0
 11 37  1  0
 11 38  1  0
 11 39  1  0
 12 40  1  0
 12 41  1  0
 12 42  1  0
 13 43  1  0
 13 44  1  0
 16 45  1  0
 20 46  1  0
 21 47  1  0
 22 48  1  0
 25 49  1  0
 27 50  1  0
 27 51  1  0
 27 52  1  0
M  END
$$$$
