
     RDKit          3D

 33 34  0  0  0  0  0  0  0  0999 V2000
   -5.1531    1.5640   -1.4561 N   0  0  0  0  0  0  0  0  0  0  0  0
   -4.1508    0.9895   -0.6682 C   0  0  0  0  0  0  0  0  0  0  0  0
   -4.2878   -0.3192   -0.1995 C   0  0  0  0  0  0  0  0  0  0  0  0
   -3.2424   -0.9464    0.4865 C   0  0  0  0  0  0  0  0  0  0  0  0
   -2.0255   -0.2823    0.6774 C   0  0  0  0  0  0  0  0  0  0  0  0
   -0.9396   -0.9942    1.4035 C   0  0  0  0  0  0  0  0  0  0  0  0
   -1.0214   -2.1538    1.7759 O   0  0  0  0  0  0  0  0  0  0  0  0
    0.1275   -0.1776    1.5758 O   0  0  0  0  0  0  0  0  0  0  0  0
    1.2710   -0.7637    2.2225 C   0  0  0  0  0  0  0  0  0  0  0  0
    2.1149   -1.5793    1.2401 C   0  0  0  0  0  0  0  0  0  0  0  0
    2.7806   -0.7122    0.1963 C   0  0  0  0  0  0  0  0  0  0  0  0
    4.0164   -0.1051    0.4578 C   0  0  0  0  0  0  0  0  0  0  0  0
    4.6203    0.7100   -0.5010 C   0  0  0  0  0  0  0  0  0  0  0  0
    3.9942    0.9285   -1.7269 C   0  0  0  0  0  0  0  0  0  0  0  0
    2.7635    0.3327   -1.9955 C   0  0  0  0  0  0  0  0  0  0  0  0
    2.1582   -0.4831   -1.0386 C   0  0  0  0  0  0  0  0  0  0  0  0
   -1.8621    1.0061    0.1552 C   0  0  0  0  0  0  0  0  0  0  0  0
   -2.9142    1.6249   -0.5294 C   0  0  0  0  0  0  0  0  0  0  0  0
   -6.0853    1.2130   -1.2595 H   0  0  0  0  0  0  0  0  0  0  0  0
   -5.1232    2.5783   -1.4888 H   0  0  0  0  0  0  0  0  0  0  0  0
   -5.2127   -0.8661   -0.3641 H   0  0  0  0  0  0  0  0  0  0  0  0
   -3.3797   -1.9602    0.8576 H   0  0  0  0  0  0  0  0  0  0  0  0
    0.9474   -1.3880    3.0641 H   0  0  0  0  0  0  0  0  0  0  0  0
    1.8551    0.0603    2.6475 H   0  0  0  0  0  0  0  0  0  0  0  0
    2.8890   -2.1263    1.7922 H   0  0  0  0  0  0  0  0  0  0  0  0
    1.5019   -2.3362    0.7366 H   0  0  0  0  0  0  0  0  0  0  0  0
    4.5174   -0.2641    1.4098 H   0  0  0  0  0  0  0  0  0  0  0  0
    5.5799    1.1750   -0.2913 H   0  0  0  0  0  0  0  0  0  0  0  0
    4.4653    1.5628   -2.4729 H   0  0  0  0  0  0  0  0  0  0  0  0
    2.2737    0.5027   -2.9506 H   0  0  0  0  0  0  0  0  0  0  0  0
    1.1959   -0.9388   -1.2615 H   0  0  0  0  0  0  0  0  0  0  0  0
   -0.9181    1.5363    0.2559 H   0  0  0  0  0  0  0  0  0  0  0  0
   -2.7562    2.6124   -0.9558 H   0  0  0  0  0  0  0  0  0  0  0  0
  1  2  1  0
  2  3  2  0
  3  4  1  0
  4  5  2  0
  5  6  1  0
  6  7  2  0
  6  8  1  0
  8  9  1  0
  9 10  1  0
 10 11  1  0
 11 12  2  0
 12 13  1  0
 13 14  2  0
 14 15  1  0
 15 16  2  0
  5 17  1  0
 17 18  2  0
 18  2  1  0
 16 11  1  0
  1 19  1  0
  1 20  1  0
  3 21  1  0
  4 22  1  0
  9 23  1  0
  9 24  1  0
 10 25  1  0
 10 26  1  0
 12 27  1  0
 13 28  1  0
 14 29  1  0
 15 30  1  0
 16 31  1  0
 17 32  1  0
 18 33  1  0
M  END
$$$$
