
     RDKit          3D

 51 54  0  0  0  0  0  0  0  0999 V2000
   -3.7596   -4.2250    2.5551 C   0  0  0  0  0  0  0  0  0  0  0  0
   -2.3452   -4.1192    2.5111 O   0  0  0  0  0  0  0  0  0  0  0  0
   -1.8108   -3.2198    1.6303 C   0  0  0  0  0  0  0  0  0  0  0  0
   -2.5377   -2.3318    0.8433 C   0  0  0  0  0  0  0  0  0  0  0  0
   -1.8742   -1.4465   -0.0283 C   0  0  0  0  0  0  0  0  0  0  0  0
   -2.6722   -0.5046   -0.8315 C   0  0  0  0  0  0  0  0  0  0  0  0
   -3.8974   -0.5985   -0.8159 O   0  0  0  0  0  0  0  0  0  0  0  0
   -1.9711    0.4252   -1.5805 N   0  0  0  0  0  0  0  0  0  0  0  0
   -2.7381    1.4509   -2.2742 C   0  0  0  0  0  0  0  0  0  0  0  0
   -2.7127    2.7100   -1.4736 C   0  0  0  0  0  0  0  0  0  0  0  0
   -1.8832    3.8143   -1.4769 C   0  0  0  0  0  0  0  0  0  0  0  0
   -2.3646    4.6801   -0.4655 C   0  0  0  0  0  0  0  0  0  0  0  0
   -3.4556    4.0519    0.0892 C   0  0  0  0  0  0  0  0  0  0  0  0
   -3.6769    2.8562   -0.5185 O   0  0  0  0  0  0  0  0  0  0  0  0
   -0.5940    0.4328   -1.7433 C   0  0  0  0  0  0  0  0  0  0  0  0
   -0.0274    1.2475   -2.4791 O   0  0  0  0  0  0  0  0  0  0  0  0
    0.1329   -0.5324   -1.0520 N   0  0  0  0  0  0  0  0  0  0  0  0
    1.5911   -0.4924   -1.2089 C   0  0  0  0  0  0  0  0  0  0  0  0
    2.2387    0.3969   -0.1464 C   0  0  0  0  0  0  0  0  0  0  0  0
    1.7967    0.4900    0.9998 O   0  0  0  0  0  0  0  0  0  0  0  0
    3.4863    1.1458   -0.4897 C   0  0  0  0  0  0  0  0  0  0  0  0
    3.8525    2.2279    0.3289 C   0  0  0  0  0  0  0  0  0  0  0  0
    5.0184    2.9553    0.0682 C   0  0  0  0  0  0  0  0  0  0  0  0
    5.8308    2.5995   -1.0059 C   0  0  0  0  0  0  0  0  0  0  0  0
    5.4751    1.5192   -1.8139 C   0  0  0  0  0  0  0  0  0  0  0  0
    6.5866    1.0334   -3.2666 Br  0  0  0  0  0  0  0  0  0  0  0  0
    4.3081    0.7866   -1.5637 C   0  0  0  0  0  0  0  0  0  0  0  0
   -0.4850   -1.4369   -0.1449 C   0  0  0  0  0  0  0  0  0  0  0  0
    0.2412   -2.3286    0.6522 C   0  0  0  0  0  0  0  0  0  0  0  0
   -0.4162   -3.1894    1.5390 C   0  0  0  0  0  0  0  0  0  0  0  0
    0.3503   -4.0518    2.2832 O   0  0  0  0  0  0  0  0  0  0  0  0
    0.6869   -3.4428    3.5372 C   0  0  0  0  0  0  0  0  0  0  0  0
   -4.0129   -5.0217    3.2607 H   0  0  0  0  0  0  0  0  0  0  0  0
   -4.1671   -4.5030    1.5801 H   0  0  0  0  0  0  0  0  0  0  0  0
   -4.2111   -3.2989    2.9229 H   0  0  0  0  0  0  0  0  0  0  0  0
   -3.6214   -2.2941    0.8906 H   0  0  0  0  0  0  0  0  0  0  0  0
   -3.7753    1.1310   -2.4337 H   0  0  0  0  0  0  0  0  0  0  0  0
   -2.3048    1.6310   -3.2662 H   0  0  0  0  0  0  0  0  0  0  0  0
   -1.0285    3.9627   -2.1246 H   0  0  0  0  0  0  0  0  0  0  0  0
   -1.9595    5.6405   -0.1722 H   0  0  0  0  0  0  0  0  0  0  0  0
   -4.1462    4.3075    0.8814 H   0  0  0  0  0  0  0  0  0  0  0  0
    2.0193   -1.4979   -1.1687 H   0  0  0  0  0  0  0  0  0  0  0  0
    1.8198   -0.1012   -2.2051 H   0  0  0  0  0  0  0  0  0  0  0  0
    3.2274    2.5118    1.1752 H   0  0  0  0  0  0  0  0  0  0  0  0
    5.2899    3.7938    0.7068 H   0  0  0  0  0  0  0  0  0  0  0  0
    6.7348    3.1708   -1.2065 H   0  0  0  0  0  0  0  0  0  0  0  0
    4.0706   -0.0602   -2.2035 H   0  0  0  0  0  0  0  0  0  0  0  0
    1.3226   -2.3669    0.6394 H   0  0  0  0  0  0  0  0  0  0  0  0
   -0.1772   -2.9631    4.0207 H   0  0  0  0  0  0  0  0  0  0  0  0
    1.4984   -2.7110    3.3954 H   0  0  0  0  0  0  0  0  0  0  0  0
    1.0474   -4.2348    4.2021 H   0  0  0  0  0  0  0  0  0  0  0  0
  1  2  1  0
  2  3  1  0
  3  4  2  0
  4  5  1  0
  5  6  1  0
  6  7  2  0
  6  8  1  0
  8  9  1  0
  9 10  1  0
 10 11  2  0
 11 12  1  0
 12 13  2  0
 13 14  1  0
  8 15  1  0
 15 16  2  0
 15 17  1  0
 17 18  1  0
 18 19  1  0
 19 20  2  0
 19 21  1  0
 21 22  2  0
 22 23  1  0
 23 24  2  0
 24 25  1  0
 25 26  1  0
 25 27  2  0
 17 28  1  0
 28 29  1  0
 29 30  2  0
 30 31  1  0
 31 32  1  0
 30  3  1  0
 28  5  2  0
 14 10  1  0
 27 21  1  0
  1 33  1  0
  1 34  1  0
  1 35  1  0
  4 36  1  0
  9 37  1  0
  9 38  1  0
 11 39  1  0
 12 40  1  0
 13 41  1  0
 18 42  1  0
 18 43  1  0
 22 44  1  0
 23 45  1  0
 24 46  1  0
 27 47  1  0
 29 48  1  0
 32 49  1  0
 32 50  1  0
 32 51  1  0
M  END
$$$$
