
     RDKit          3D

 47 50  0  0  0  0  0  0  0  0999 V2000
   -7.2243    0.6299   -0.4530 C   0  0  0  0  0  0  0  0  0  0  0  0
   -6.2995    1.4130   -1.3743 C   0  0  0  0  0  0  0  0  0  0  0  0
   -4.9144    1.6240   -0.7659 C   0  0  0  0  0  0  0  0  0  0  0  0
   -4.2931    0.3541   -0.5874 O   0  0  0  0  0  0  0  0  0  0  0  0
   -3.0447    0.3208   -0.0187 C   0  0  0  0  0  0  0  0  0  0  0  0
   -2.3097    1.4537    0.3433 C   0  0  0  0  0  0  0  0  0  0  0  0
   -1.0416    1.3205    0.9146 C   0  0  0  0  0  0  0  0  0  0  0  0
   -0.4931    0.0535    1.1241 C   0  0  0  0  0  0  0  0  0  0  0  0
    0.8340   -0.1012    1.7268 C   0  0  0  0  0  0  0  0  0  0  0  0
    1.9991    0.1848    1.1287 C   0  0  0  0  0  0  0  0  0  0  0  0
    2.2322    0.7979   -0.4983 S   0  0  0  0  0  0  0  0  0  0  0  0
    3.9291    0.7821   -0.2520 C   0  0  0  0  0  0  0  0  0  0  0  0
    4.9718    1.0958   -0.9648 N   0  0  0  0  0  0  0  0  0  0  0  0
    6.0040    0.8106   -0.0798 C   0  0  0  0  0  0  0  0  0  0  0  0
    7.5052    1.0206   -0.4636 C   0  0  0  0  0  0  0  0  0  0  0  0
    7.9608    1.4945   -1.6791 C   0  0  0  0  0  0  0  0  0  0  0  0
    9.3743    1.5279   -1.6000 C   0  0  0  0  0  0  0  0  0  0  0  0
    9.6953    1.0732   -0.3433 C   0  0  0  0  0  0  0  0  0  0  0  0
    8.5718    0.7635    0.3525 O   0  0  0  0  0  0  0  0  0  0  0  0
    5.6160    0.3435    1.1246 N   0  0  0  0  0  0  0  0  0  0  0  0
    4.2827    0.3412    0.9715 N   0  0  0  0  0  0  0  0  0  0  0  0
    3.2900   -0.0309    1.8520 C   0  0  0  0  0  0  0  0  0  0  0  0
    3.4882   -0.4453    2.9794 O   0  0  0  0  0  0  0  0  0  0  0  0
   -1.2265   -1.0851    0.7694 C   0  0  0  0  0  0  0  0  0  0  0  0
   -2.4981   -0.9609    0.1963 C   0  0  0  0  0  0  0  0  0  0  0  0
   -3.2850   -2.0199   -0.1847 O   0  0  0  0  0  0  0  0  0  0  0  0
   -2.7771   -3.3363    0.0083 C   0  0  0  0  0  0  0  0  0  0  0  0
   -3.8223   -4.3184   -0.4897 C   0  0  0  0  0  0  0  0  0  0  0  0
   -7.3480    1.1433    0.5058 H   0  0  0  0  0  0  0  0  0  0  0  0
   -8.2127    0.5248   -0.9116 H   0  0  0  0  0  0  0  0  0  0  0  0
   -6.8358   -0.3746   -0.2578 H   0  0  0  0  0  0  0  0  0  0  0  0
   -6.7504    2.3865   -1.5963 H   0  0  0  0  0  0  0  0  0  0  0  0
   -6.2056    0.8649   -2.3191 H   0  0  0  0  0  0  0  0  0  0  0  0
   -5.0134    2.1408    0.1963 H   0  0  0  0  0  0  0  0  0  0  0  0
   -4.3202    2.2348   -1.4557 H   0  0  0  0  0  0  0  0  0  0  0  0
   -2.6945    2.4567    0.1931 H   0  0  0  0  0  0  0  0  0  0  0  0
   -0.4919    2.2169    1.1931 H   0  0  0  0  0  0  0  0  0  0  0  0
    0.8260   -0.5009    2.7408 H   0  0  0  0  0  0  0  0  0  0  0  0
    7.3390    1.7793   -2.5169 H   0  0  0  0  0  0  0  0  0  0  0  0
   10.0721    1.8436   -2.3628 H   0  0  0  0  0  0  0  0  0  0  0  0
   10.6268    0.9180    0.1834 H   0  0  0  0  0  0  0  0  0  0  0  0
   -0.7862   -2.0610    0.9456 H   0  0  0  0  0  0  0  0  0  0  0  0
   -1.8537   -3.4762   -0.5653 H   0  0  0  0  0  0  0  0  0  0  0  0
   -2.5924   -3.5210    1.0727 H   0  0  0  0  0  0  0  0  0  0  0  0
   -3.4804   -5.3494   -0.3632 H   0  0  0  0  0  0  0  0  0  0  0  0
   -4.0401   -4.1453   -1.5489 H   0  0  0  0  0  0  0  0  0  0  0  0
   -4.7636   -4.1884    0.0545 H   0  0  0  0  0  0  0  0  0  0  0  0
  1  2  1  0
  2  3  1  0
  3  4  1  0
  4  5  1  0
  5  6  2  0
  6  7  1  0
  7  8  2  0
  8  9  1  0
  9 10  2  3
 10 11  1  0
 11 12  1  0
 12 13  2  0
 13 14  1  0
 14 15  1  0
 15 16  2  0
 16 17  1  0
 17 18  2  0
 18 19  1  0
 14 20  2  0
 20 21  1  0
 21 22  1  0
 22 23  2  0
  8 24  1  0
 24 25  2  0
 25 26  1  0
 26 27  1  0
 27 28  1  0
 25  5  1  0
 22 10  1  0
 21 12  1  0
 19 15  1  0
  1 29  1  0
  1 30  1  0
  1 31  1  0
  2 32  1  0
  2 33  1  0
  3 34  1  0
  3 35  1  0
  6 36  1  0
  7 37  1  0
  9 38  1  0
 16 39  1  0
 17 40  1  0
 18 41  1  0
 24 42  1  0
 27 43  1  0
 27 44  1  0
 28 45  1  0
 28 46  1  0
 28 47  1  0
M  END
$$$$
