
     RDKit          3D

 63 67  0  0  0  0  0  0  0  0999 V2000
   -4.9495   -1.0417    6.3966 C   0  0  0  0  0  0  0  0  0  0  0  0
   -4.0260   -0.7943    5.3441 O   0  0  0  0  0  0  0  0  0  0  0  0
   -4.4924   -0.9290    4.0649 C   0  0  0  0  0  0  0  0  0  0  0  0
   -5.7831   -1.2858    3.6995 C   0  0  0  0  0  0  0  0  0  0  0  0
   -6.1381   -1.3933    2.3500 C   0  0  0  0  0  0  0  0  0  0  0  0
   -5.1712   -1.1331    1.3598 C   0  0  0  0  0  0  0  0  0  0  0  0
   -5.3924   -1.2115   -0.3411 S   0  0  0  0  0  0  0  0  0  0  0  0
   -3.7738   -0.7606   -0.6619 C   0  0  0  0  0  0  0  0  0  0  0  0
   -3.3495   -0.6398   -2.0652 C   0  0  0  0  0  0  0  0  0  0  0  0
   -3.1759   -1.8076   -2.8280 C   0  0  0  0  0  0  0  0  0  0  0  0
   -2.7504   -1.7351   -4.1540 C   0  0  0  0  0  0  0  0  0  0  0  0
   -2.4971   -0.4949   -4.7324 C   0  0  0  0  0  0  0  0  0  0  0  0
   -2.6643    0.6749   -3.9872 C   0  0  0  0  0  0  0  0  0  0  0  0
   -3.0788    0.6128   -2.6510 C   0  0  0  0  0  0  0  0  0  0  0  0
   -3.2908    1.7256   -1.8752 O   0  0  0  0  0  0  0  0  0  0  0  0
   -2.5127    2.8709   -2.2007 C   0  0  0  0  0  0  0  0  0  0  0  0
   -3.0606   -0.5508    0.5087 C   0  0  0  0  0  0  0  0  0  0  0  0
   -1.6586   -0.1446    0.4929 C   0  0  0  0  0  0  0  0  0  0  0  0
   -1.2967    1.1309    0.9351 C   0  0  0  0  0  0  0  0  0  0  0  0
    0.0439    1.5226    0.9194 C   0  0  0  0  0  0  0  0  0  0  0  0
    1.0361    0.6492    0.4670 C   0  0  0  0  0  0  0  0  0  0  0  0
    2.3042    1.1604    0.5014 O   0  0  0  0  0  0  0  0  0  0  0  0
    3.3593    0.3135    0.0348 C   0  0  0  0  0  0  0  0  0  0  0  0
    4.6824    1.0836    0.1791 C   0  0  0  0  0  0  0  0  0  0  0  0
    5.8574    0.3117   -0.2561 N   0  0  0  0  0  0  0  0  0  0  0  0
    5.9710    0.2035   -1.7278 C   0  0  0  0  0  0  0  0  0  0  0  0
    7.0273    1.1397   -2.3389 C   0  0  0  0  0  0  0  0  0  0  0  0
    8.3441    0.9223   -1.8168 O   0  0  0  0  0  0  0  0  0  0  0  0
    8.3407    0.4465   -0.4636 C   0  0  0  0  0  0  0  0  0  0  0  0
    7.0946    0.8876    0.3174 C   0  0  0  0  0  0  0  0  0  0  0  0
    0.6764   -0.6272    0.0324 C   0  0  0  0  0  0  0  0  0  0  0  0
   -0.6660   -1.0234    0.0473 C   0  0  0  0  0  0  0  0  0  0  0  0
   -3.8664   -0.7669    1.6911 C   0  0  0  0  0  0  0  0  0  0  0  0
   -3.5409   -0.6730    3.0702 C   0  0  0  0  0  0  0  0  0  0  0  0
   -5.3064   -2.0767    6.3735 H   0  0  0  0  0  0  0  0  0  0  0  0
   -5.7844   -0.3340    6.3638 H   0  0  0  0  0  0  0  0  0  0  0  0
   -4.4238   -0.8923    7.3446 H   0  0  0  0  0  0  0  0  0  0  0  0
   -6.5501   -1.4919    4.4389 H   0  0  0  0  0  0  0  0  0  0  0  0
   -7.1499   -1.6745    2.0709 H   0  0  0  0  0  0  0  0  0  0  0  0
   -3.3705   -2.7824   -2.3857 H   0  0  0  0  0  0  0  0  0  0  0  0
   -2.6225   -2.6449   -4.7345 H   0  0  0  0  0  0  0  0  0  0  0  0
   -2.1762   -0.4352   -5.7694 H   0  0  0  0  0  0  0  0  0  0  0  0
   -2.4820    1.6247   -4.4789 H   0  0  0  0  0  0  0  0  0  0  0  0
   -2.5803    3.5694   -1.3611 H   0  0  0  0  0  0  0  0  0  0  0  0
   -2.9162    3.3744   -3.0847 H   0  0  0  0  0  0  0  0  0  0  0  0
   -1.4558    2.6177   -2.3391 H   0  0  0  0  0  0  0  0  0  0  0  0
   -2.0555    1.8283    1.2822 H   0  0  0  0  0  0  0  0  0  0  0  0
    0.3159    2.5176    1.2623 H   0  0  0  0  0  0  0  0  0  0  0  0
    3.4058   -0.5979    0.6435 H   0  0  0  0  0  0  0  0  0  0  0  0
    3.1810    0.0532   -1.0142 H   0  0  0  0  0  0  0  0  0  0  0  0
    4.6199    2.0446   -0.3489 H   0  0  0  0  0  0  0  0  0  0  0  0
    4.7828    1.3397    1.2431 H   0  0  0  0  0  0  0  0  0  0  0  0
    6.2656   -0.8310   -1.9446 H   0  0  0  0  0  0  0  0  0  0  0  0
    5.0112    0.3621   -2.2304 H   0  0  0  0  0  0  0  0  0  0  0  0
    6.7598    2.1892   -2.1685 H   0  0  0  0  0  0  0  0  0  0  0  0
    7.0776    0.9907   -3.4224 H   0  0  0  0  0  0  0  0  0  0  0  0
    9.2444    0.8309    0.0202 H   0  0  0  0  0  0  0  0  0  0  0  0
    8.4227   -0.6466   -0.4846 H   0  0  0  0  0  0  0  0  0  0  0  0
    7.1851    0.5700    1.3620 H   0  0  0  0  0  0  0  0  0  0  0  0
    7.0482    1.9847    0.3001 H   0  0  0  0  0  0  0  0  0  0  0  0
    1.4116   -1.3412   -0.3230 H   0  0  0  0  0  0  0  0  0  0  0  0
   -0.9297   -2.0225   -0.2915 H   0  0  0  0  0  0  0  0  0  0  0  0
   -2.5302   -0.3982    3.3644 H   0  0  0  0  0  0  0  0  0  0  0  0
  1  2  1  0
  2  3  1  0
  3  4  2  0
  4  5  1  0
  5  6  2  0
  6  7  1  0
  7  8  1  0
  8  9  1  0
  9 10  2  0
 10 11  1  0
 11 12  2  0
 12 13  1  0
 13 14  2  0
 14 15  1  0
 15 16  1  0
  8 17  2  0
 17 18  1  0
 18 19  2  0
 19 20  1  0
 20 21  2  0
 21 22  1  0
 22 23  1  0
 23 24  1  0
 24 25  1  0
 25 26  1  0
 26 27  1  0
 27 28  1  0
 28 29  1  0
 29 30  1  0
 21 31  1  0
 31 32  2  0
 17 33  1  0
 33 34  2  0
 34  3  1  0
 33  6  1  0
 14  9  1  0
 32 18  1  0
 30 25  1  0
  1 35  1  0
  1 36  1  0
  1 37  1  0
  4 38  1  0
  5 39  1  0
 10 40  1  0
 11 41  1  0
 12 42  1  0
 13 43  1  0
 16 44  1  0
 16 45  1  0
 16 46  1  0
 19 47  1  0
 20 48  1  0
 23 49  1  0
 23 50  1  0
 24 51  1  0
 24 52  1  0
 26 53  1  0
 26 54  1  0
 27 55  1  0
 27 56  1  0
 29 57  1  0
 29 58  1  0
 30 59  1  0
 30 60  1  0
 31 61  1  0
 32 62  1  0
 34 63  1  0
M  END
$$$$
