
     RDKit          3D

 59 61  0  0  0  0  0  0  0  0999 V2000
   -8.3536    0.4972   -0.4980 C   0  0  0  0  0  0  0  0  0  0  0  0
   -7.0345    0.4217   -1.2361 C   0  0  0  0  0  0  0  0  0  0  0  0
   -6.3398    1.6579   -1.0273 O   0  0  0  0  0  0  0  0  0  0  0  0
   -4.9864    1.5589   -1.2272 C   0  0  0  0  0  0  0  0  0  0  0  0
   -4.1935    2.1443   -0.2358 C   0  0  0  0  0  0  0  0  0  0  0  0
   -2.8013    2.0928   -0.3373 C   0  0  0  0  0  0  0  0  0  0  0  0
   -2.0106    2.6414    0.6695 N   0  0  0  0  0  0  0  0  0  0  0  0
   -0.6416    2.6040    0.6753 C   0  0  0  0  0  0  0  0  0  0  0  0
    0.1017    3.2258    2.0413 S   0  0  0  0  0  0  0  0  0  0  0  0
   -0.0192    2.0459   -0.4403 N   0  0  0  0  0  0  0  0  0  0  0  0
    1.4492    2.0013   -0.5701 C   0  0  0  0  0  0  0  0  0  0  0  0
    2.0224    0.6740   -0.0682 C   0  0  0  0  0  0  0  0  0  0  0  0
    3.5339    0.6833   -0.1142 C   0  0  0  0  0  0  0  0  0  0  0  0
    4.2024    1.6637   -0.4391 O   0  0  0  0  0  0  0  0  0  0  0  0
    4.0808   -0.5131    0.2857 N   0  0  0  0  0  0  0  0  0  0  0  0
    5.5082   -0.7237    0.3781 C   0  0  0  0  0  0  0  0  0  0  0  0
    5.8269   -1.4990    1.6268 C   0  0  0  0  0  0  0  0  0  0  0  0
    5.7561   -0.8721    2.8749 C   0  0  0  0  0  0  0  0  0  0  0  0
    5.9986   -1.5977    4.0428 C   0  0  0  0  0  0  0  0  0  0  0  0
    6.3112   -2.9565    3.9876 C   0  0  0  0  0  0  0  0  0  0  0  0
    6.5127   -3.5509    5.2022 O   0  0  0  0  0  0  0  0  0  0  0  0
    6.8125   -4.9410    5.2059 C   0  0  0  0  0  0  0  0  0  0  0  0
    6.3885   -3.5841    2.7467 C   0  0  0  0  0  0  0  0  0  0  0  0
    6.1450   -2.8608    1.5735 C   0  0  0  0  0  0  0  0  0  0  0  0
   -0.7248    1.4342   -1.4885 C   0  0  0  0  0  0  0  0  0  0  0  0
   -0.1876    0.8434   -2.4339 O   0  0  0  0  0  0  0  0  0  0  0  0
   -2.1958    1.4780   -1.4244 C   0  0  0  0  0  0  0  0  0  0  0  0
   -2.9774    0.9140   -2.4363 C   0  0  0  0  0  0  0  0  0  0  0  0
   -4.3703    0.9816   -2.3508 C   0  0  0  0  0  0  0  0  0  0  0  0
   -5.0951    0.4356   -3.3850 O   0  0  0  0  0  0  0  0  0  0  0  0
   -5.2463    1.4024   -4.4391 C   0  0  0  0  0  0  0  0  0  0  0  0
   -5.1774    0.6542   -5.7582 C   0  0  0  0  0  0  0  0  0  0  0  0
   -8.2092    0.7091    0.5612 H   0  0  0  0  0  0  0  0  0  0  0  0
   -8.8972   -0.4462   -0.5951 H   0  0  0  0  0  0  0  0  0  0  0  0
   -8.9651    1.3152   -0.8995 H   0  0  0  0  0  0  0  0  0  0  0  0
   -7.2406    0.2811   -2.2966 H   0  0  0  0  0  0  0  0  0  0  0  0
   -6.4597   -0.4362   -0.8559 H   0  0  0  0  0  0  0  0  0  0  0  0
   -4.6735    2.6158    0.6165 H   0  0  0  0  0  0  0  0  0  0  0  0
   -2.4524    3.0646    1.4803 H   0  0  0  0  0  0  0  0  0  0  0  0
    1.7150    2.1392   -1.6288 H   0  0  0  0  0  0  0  0  0  0  0  0
    1.9005    2.8449   -0.0394 H   0  0  0  0  0  0  0  0  0  0  0  0
    1.7146    0.4904    0.9746 H   0  0  0  0  0  0  0  0  0  0  0  0
    1.6513   -0.1691   -0.6787 H   0  0  0  0  0  0  0  0  0  0  0  0
    3.4813   -1.3258    0.4073 H   0  0  0  0  0  0  0  0  0  0  0  0
    5.8173   -1.2749   -0.5136 H   0  0  0  0  0  0  0  0  0  0  0  0
    6.0448    0.2270    0.3763 H   0  0  0  0  0  0  0  0  0  0  0  0
    5.5039    0.1829    2.9378 H   0  0  0  0  0  0  0  0  0  0  0  0
    5.9383   -1.1026    5.0062 H   0  0  0  0  0  0  0  0  0  0  0  0
    7.7677   -5.1360    4.7052 H   0  0  0  0  0  0  0  0  0  0  0  0
    5.9962   -5.5239    4.7567 H   0  0  0  0  0  0  0  0  0  0  0  0
    6.9129   -5.2592    6.2471 H   0  0  0  0  0  0  0  0  0  0  0  0
    6.6332   -4.6372    2.6545 H   0  0  0  0  0  0  0  0  0  0  0  0
    6.2041   -3.3734    0.6175 H   0  0  0  0  0  0  0  0  0  0  0  0
   -2.5105    0.4314   -3.2886 H   0  0  0  0  0  0  0  0  0  0  0  0
   -6.2232    1.8905   -4.3323 H   0  0  0  0  0  0  0  0  0  0  0  0
   -4.4706    2.1762   -4.4204 H   0  0  0  0  0  0  0  0  0  0  0  0
   -5.9788   -0.0878   -5.8189 H   0  0  0  0  0  0  0  0  0  0  0  0
   -5.2642    1.3429   -6.6050 H   0  0  0  0  0  0  0  0  0  0  0  0
   -4.2310    0.1041   -5.8364 H   0  0  0  0  0  0  0  0  0  0  0  0
  1  2  1  0
  2  3  1  0
  3  4  1  0
  4  5  2  0
  5  6  1  0
  6  7  1  0
  7  8  1  0
  8  9  2  0
  8 10  1  0
 10 11  1  0
 11 12  1  0
 12 13  1  0
 13 14  2  0
 13 15  1  0
 15 16  1  0
 16 17  1  0
 17 18  2  0
 18 19  1  0
 19 20  2  0
 20 21  1  0
 21 22  1  0
 20 23  1  0
 23 24  2  0
 10 25  1  0
 25 26  2  0
 25 27  1  0
 27 28  1  0
 28 29  2  0
 29 30  1  0
 30 31  1  0
 31 32  1  0
 29  4  1  0
 27  6  2  0
 24 17  1  0
  1 33  1  0
  1 34  1  0
  1 35  1  0
  2 36  1  0
  2 37  1  0
  5 38  1  0
  7 39  1  0
 11 40  1  0
 11 41  1  0
 12 42  1  0
 12 43  1  0
 15 44  1  0
 16 45  1  0
 16 46  1  0
 18 47  1  0
 19 48  1  0
 22 49  1  0
 22 50  1  0
 22 51  1  0
 23 52  1  0
 24 53  1  0
 28 54  1  0
 31 55  1  0
 31 56  1  0
 32 57  1  0
 32 58  1  0
 32 59  1  0
M  END
$$$$
