
     RDKit          3D

 56 61  0  0  0  0  0  0  0  0999 V2000
    8.0549    0.3600   -2.8016 C   0  0  0  0  0  0  0  0  0  0  0  0
    6.6569    0.2017   -2.2781 C   0  0  0  0  0  0  0  0  0  0  0  0
    6.4289   -0.0231   -0.9175 C   0  0  0  0  0  0  0  0  0  0  0  0
    5.1259   -0.1450   -0.4232 C   0  0  0  0  0  0  0  0  0  0  0  0
    4.0344   -0.0330   -1.2852 C   0  0  0  0  0  0  0  0  0  0  0  0
    2.5657   -0.1720   -0.7447 C   0  0  0  0  0  0  0  0  0  0  0  0
    1.3978   -0.0321   -1.4864 C   0  0  0  0  0  0  0  0  0  0  0  0
    0.3011   -0.2071   -0.6443 N   0  0  0  0  0  4  0  0  0  0  0  0
   -1.1266   -0.1050   -1.0099 C   0  0  0  0  0  0  0  0  0  0  0  0
   -1.8659    0.8993   -0.0983 C   0  0  0  0  0  0  0  0  0  0  0  0
   -1.2187    1.8378    0.3759 O   0  0  0  0  0  0  0  0  0  0  0  0
   -3.1834    0.5552    0.2568 N   0  0  0  0  0  0  0  0  0  0  0  0
   -4.0214   -0.2598   -0.5807 C   0  0  0  0  0  0  0  0  0  0  0  0
   -3.9923   -0.0765   -1.9769 C   0  0  0  0  0  0  0  0  0  0  0  0
   -4.7818   -0.8563   -2.8256 C   0  0  0  0  0  0  0  0  0  0  0  0
   -5.6260   -1.8227   -2.2934 C   0  0  0  0  0  0  0  0  0  0  0  0
   -5.6989   -1.9919   -0.9125 C   0  0  0  0  0  0  0  0  0  0  0  0
   -4.9170   -1.2047   -0.0556 C   0  0  0  0  0  0  0  0  0  0  0  0
   -5.0617   -1.4712    1.6902 S   0  0  0  0  0  0  0  0  0  0  0  0
   -4.6376    0.1673    2.2384 C   0  0  0  0  0  0  0  0  0  0  0  0
   -5.1626    0.5913    3.4688 C   0  0  0  0  0  0  0  0  0  0  0  0
   -4.8314    1.8392    3.9866 C   0  0  0  0  0  0  0  0  0  0  0  0
   -3.9696    2.6662    3.2794 C   0  0  0  0  0  0  0  0  0  0  0  0
   -3.4346    2.2431    2.0585 C   0  0  0  0  0  0  0  0  0  0  0  0
   -3.7534    0.9879    1.5114 C   0  0  0  0  0  0  0  0  0  0  0  0
    0.7728   -0.4209    0.5810 C   0  0  0  0  0  0  0  0  0  0  0  0
    2.1015   -0.4496    0.5284 N   0  0  0  0  0  0  0  0  0  0  0  0
    2.6882   -0.7191    1.8331 C   0  0  0  0  0  0  0  0  0  0  0  0
    1.4787   -1.1986    2.6823 C   0  0  0  0  0  0  0  0  0  0  0  0
    0.2362   -0.6670    1.9410 C   0  0  0  0  0  0  0  0  0  0  0  0
    4.2569    0.2135   -2.6449 C   0  0  0  0  0  0  0  0  0  0  0  0
    5.5609    0.3324   -3.1354 C   0  0  0  0  0  0  0  0  0  0  0  0
    8.3365    1.4171   -2.8024 H   0  0  0  0  0  0  0  0  0  0  0  0
    8.7692   -0.1955   -2.1849 H   0  0  0  0  0  0  0  0  0  0  0  0
    8.1341   -0.0290   -3.8223 H   0  0  0  0  0  0  0  0  0  0  0  0
    7.2708   -0.1064   -0.2315 H   0  0  0  0  0  0  0  0  0  0  0  0
    5.0082   -0.3152    0.6390 H   0  0  0  0  0  0  0  0  0  0  0  0
    1.2069    0.1856   -2.5233 H   0  0  0  0  0  0  0  0  0  0  0  0
   -1.5345   -1.1155   -0.9119 H   0  0  0  0  0  0  0  0  0  0  0  0
   -1.1921    0.2339   -2.0477 H   0  0  0  0  0  0  0  0  0  0  0  0
   -3.4085    0.7215   -2.4303 H   0  0  0  0  0  0  0  0  0  0  0  0
   -4.7587   -0.6935   -3.9019 H   0  0  0  0  0  0  0  0  0  0  0  0
   -6.2494   -2.4277   -2.9491 H   0  0  0  0  0  0  0  0  0  0  0  0
   -6.3837   -2.7363   -0.5081 H   0  0  0  0  0  0  0  0  0  0  0  0
   -5.8363   -0.0501    4.0340 H   0  0  0  0  0  0  0  0  0  0  0  0
   -5.2502    2.1669    4.9350 H   0  0  0  0  0  0  0  0  0  0  0  0
   -3.7204    3.6509    3.6686 H   0  0  0  0  0  0  0  0  0  0  0  0
   -2.8011    2.9511    1.5305 H   0  0  0  0  0  0  0  0  0  0  0  0
    3.4520   -1.4970    1.7669 H   0  0  0  0  0  0  0  0  0  0  0  0
    3.1073    0.2101    2.2301 H   0  0  0  0  0  0  0  0  0  0  0  0
    1.4549   -2.2951    2.6801 H   0  0  0  0  0  0  0  0  0  0  0  0
    1.5309   -0.8650    3.7220 H   0  0  0  0  0  0  0  0  0  0  0  0
   -0.0966    0.2969    2.3320 H   0  0  0  0  0  0  0  0  0  0  0  0
   -0.5785   -1.3902    1.8786 H   0  0  0  0  0  0  0  0  0  0  0  0
    3.4425    0.3163   -3.3553 H   0  0  0  0  0  0  0  0  0  0  0  0
    5.7191    0.5272   -4.1953 H   0  0  0  0  0  0  0  0  0  0  0  0
  1  2  1  0
  2  3  2  0
  3  4  1  0
  4  5  2  0
  5  6  1  0
  6  7  2  0
  7  8  1  0
  8  9  1  0
  9 10  1  0
 10 11  2  0
 10 12  1  0
 12 13  1  0
 13 14  2  0
 14 15  1  0
 15 16  2  0
 16 17  1  0
 17 18  2  0
 18 19  1  0
 19 20  1  0
 20 21  2  0
 21 22  1  0
 22 23  2  0
 23 24  1  0
 24 25  2  0
  8 26  2  0
 26 27  1  0
 27 28  1  0
 28 29  1  0
 29 30  1  0
  5 31  1  0
 31 32  2  0
 32  2  1  0
 27  6  1  0
 25 12  1  0
 30 26  1  0
 18 13  1  0
 25 20  1  0
  1 33  1  0
  1 34  1  0
  1 35  1  0
  3 36  1  0
  4 37  1  0
  7 38  1  0
  9 39  1  0
  9 40  1  0
 14 41  1  0
 15 42  1  0
 16 43  1  0
 17 44  1  0
 21 45  1  0
 22 46  1  0
 23 47  1  0
 24 48  1  0
 28 49  1  0
 28 50  1  0
 29 51  1  0
 29 52  1  0
 30 53  1  0
 30 54  1  0
 31 55  1  0
 32 56  1  0
M  CHG  1   8   1
M  END
$$$$
