
     RDKit          3D

 36 37  0  0  0  0  0  0  0  0999 V2000
   -1.5468    2.3091    0.0864 O   0  0  0  0  0  0  0  0  0  0  0  0
   -1.0071    1.3065    0.5493 C   0  0  0  0  0  0  0  0  0  0  0  0
   -0.0317    1.3697    1.7275 C   0  0  0  0  0  0  0  0  0  0  0  0
    1.3098    1.6414    1.3208 O   0  0  0  0  0  0  0  0  0  0  0  0
    1.9302    0.6099    0.6979 C   0  0  0  0  0  0  0  0  0  0  0  0
    1.4737   -0.5048    0.5067 O   0  0  0  0  0  0  0  0  0  0  0  0
    3.2638    1.0598    0.2603 C   0  0  0  0  0  0  0  0  0  0  0  0
    4.1505    1.5547    1.2297 C   0  0  0  0  0  0  0  0  0  0  0  0
    5.4327    1.9600    0.8598 C   0  0  0  0  0  0  0  0  0  0  0  0
    5.8325    1.8738   -0.4739 C   0  0  0  0  0  0  0  0  0  0  0  0
    4.9517    1.3843   -1.4415 C   0  0  0  0  0  0  0  0  0  0  0  0
    3.6640    0.9750   -1.0785 C   0  0  0  0  0  0  0  0  0  0  0  0
    2.5159    0.3686   -2.4647 Br  0  0  0  0  0  0  0  0  0  0  0  0
   -1.2062    0.0342    0.0520 N   0  0  0  0  0  0  0  0  0  0  0  0
   -1.9406   -0.1771   -1.1832 C   0  0  0  0  0  0  0  0  0  0  0  0
   -2.3166   -1.6449   -1.4018 C   0  0  0  0  0  0  0  0  0  0  0  0
   -3.2436   -2.1347   -0.3954 N   0  0  0  0  0  0  0  0  0  0  0  0
   -4.6022   -1.9607   -0.4746 C   0  0  0  0  0  0  0  0  0  0  0  0
   -5.1277   -1.3705   -1.5847 O   0  0  0  0  0  0  0  0  0  0  0  0
   -5.2824   -2.4000    0.5907 C   0  0  0  0  0  0  0  0  0  0  0  0
   -4.2134   -3.0602    1.7916 S   0  0  0  0  0  0  0  0  0  0  0  0
   -2.7938   -2.6907    0.7916 C   0  0  0  0  0  0  0  0  0  0  0  0
   -1.6463   -2.9051    1.1451 O   0  0  0  0  0  0  0  0  0  0  0  0
   -0.3535    2.1839    2.3834 H   0  0  0  0  0  0  0  0  0  0  0  0
   -0.0782    0.4520    2.3238 H   0  0  0  0  0  0  0  0  0  0  0  0
    3.8470    1.6174    2.2734 H   0  0  0  0  0  0  0  0  0  0  0  0
    6.1213    2.3403    1.6115 H   0  0  0  0  0  0  0  0  0  0  0  0
    6.8324    2.1886   -0.7635 H   0  0  0  0  0  0  0  0  0  0  0  0
    5.2791    1.3313   -2.4787 H   0  0  0  0  0  0  0  0  0  0  0  0
   -0.4728   -0.6438    0.2751 H   0  0  0  0  0  0  0  0  0  0  0  0
   -1.2983    0.1659   -2.0015 H   0  0  0  0  0  0  0  0  0  0  0  0
   -2.8335    0.4567   -1.1731 H   0  0  0  0  0  0  0  0  0  0  0  0
   -1.4109   -2.2618   -1.3646 H   0  0  0  0  0  0  0  0  0  0  0  0
   -2.7575   -1.7804   -2.3960 H   0  0  0  0  0  0  0  0  0  0  0  0
   -6.0894   -1.2914   -1.4633 H   0  0  0  0  0  0  0  0  0  0  0  0
   -6.3522   -2.3570    0.7299 H   0  0  0  0  0  0  0  0  0  0  0  0
  1  2  2  0
  2  3  1  0
  3  4  1  0
  4  5  1  0
  5  6  2  0
  5  7  1  0
  7  8  2  0
  8  9  1  0
  9 10  2  0
 10 11  1  0
 11 12  2  0
 12 13  1  0
  2 14  1  0
 14 15  1  0
 15 16  1  0
 16 17  1  0
 17 18  1  0
 18 19  1  0
 18 20  2  0
 20 21  1  0
 21 22  1  0
 22 23  2  0
 12  7  1  0
 22 17  1  0
  3 24  1  0
  3 25  1  0
  8 26  1  0
  9 27  1  0
 10 28  1  0
 11 29  1  0
 14 30  1  0
 15 31  1  0
 15 32  1  0
 16 33  1  0
 16 34  1  0
 19 35  1  0
 20 36  1  0
M  END
$$$$
