
     RDKit          3D

 31 32  0  0  0  0  0  0  0  0999 V2000
   -2.9419   -1.4611    1.6600 C   0  0  0  0  0  0  0  0  0  0  0  0
   -2.5949   -1.2918    0.1878 C   0  0  0  0  0  0  0  0  0  0  0  0
   -1.7190   -0.1294   -0.0174 N   0  0  0  0  0  0  0  0  0  0  0  0
   -2.4041    1.1369   -0.3155 C   0  0  0  0  0  0  0  0  0  0  0  0
   -2.5528    1.3376   -1.8169 C   0  0  0  0  0  0  0  0  0  0  0  0
   -0.3348   -0.2206    0.0615 C   0  0  0  0  0  0  0  0  0  0  0  0
    0.3217   -1.3951    0.4671 C   0  0  0  0  0  0  0  0  0  0  0  0
    1.7237   -1.4985    0.5509 C   0  0  0  0  0  0  0  0  0  0  0  0
    2.5452   -0.4186    0.2280 C   0  0  0  0  0  0  0  0  0  0  0  0
    4.0122   -0.4239    0.2816 C   0  0  0  0  0  0  0  0  0  0  0  0
    4.7965   -1.8916    0.7894 Cl  0  0  0  0  0  0  0  0  0  0  0  0
    4.7174    0.6719   -0.0520 C   0  0  0  0  0  0  0  0  0  0  0  0
    6.5997    0.7601   -0.0145 Br  0  0  0  0  0  0  0  0  0  0  0  0
    4.0263    1.9172   -0.4840 C   0  0  0  0  0  0  0  0  0  0  0  0
    4.6297    2.9386   -0.7974 O   0  0  0  0  0  0  0  0  0  0  0  0
    2.6396    1.8886   -0.5228 O   0  0  0  0  0  0  0  0  0  0  0  0
    1.9057    0.7427   -0.1729 C   0  0  0  0  0  0  0  0  0  0  0  0
    0.5099    0.8516   -0.2571 C   0  0  0  0  0  0  0  0  0  0  0  0
   -2.0497   -1.6291    2.2708 H   0  0  0  0  0  0  0  0  0  0  0  0
   -3.4473   -0.5713    2.0497 H   0  0  0  0  0  0  0  0  0  0  0  0
   -3.6108   -2.3169    1.7943 H   0  0  0  0  0  0  0  0  0  0  0  0
   -3.5280   -1.1544   -0.3736 H   0  0  0  0  0  0  0  0  0  0  0  0
   -2.1569   -2.2094   -0.2205 H   0  0  0  0  0  0  0  0  0  0  0  0
   -1.8988    1.9922    0.1468 H   0  0  0  0  0  0  0  0  0  0  0  0
   -3.4058    1.1287    0.1331 H   0  0  0  0  0  0  0  0  0  0  0  0
   -3.1224    0.5187   -2.2686 H   0  0  0  0  0  0  0  0  0  0  0  0
   -3.0830    2.2728   -2.0221 H   0  0  0  0  0  0  0  0  0  0  0  0
   -1.5816    1.3814   -2.3189 H   0  0  0  0  0  0  0  0  0  0  0  0
   -0.2423   -2.2805    0.7471 H   0  0  0  0  0  0  0  0  0  0  0  0
    2.1365   -2.4500    0.8782 H   0  0  0  0  0  0  0  0  0  0  0  0
    0.1102    1.8032   -0.5920 H   0  0  0  0  0  0  0  0  0  0  0  0
  1  2  1  0
  2  3  1  0
  3  4  1  0
  4  5  1  0
  3  6  1  0
  6  7  2  0
  7  8  1  0
  8  9  2  0
  9 10  1  0
 10 11  1  0
 10 12  2  0
 12 13  1  0
 12 14  1  0
 14 15  2  0
 14 16  1  0
 16 17  1  0
 17 18  2  0
 18  6  1  0
 17  9  1  0
  1 19  1  0
  1 20  1  0
  1 21  1  0
  2 22  1  0
  2 23  1  0
  4 24  1  0
  4 25  1  0
  5 26  1  0
  5 27  1  0
  5 28  1  0
  7 29  1  0
  8 30  1  0
 18 31  1  0
M  END
$$$$
