
     RDKit          3D

 42 44  0  0  0  0  0  0  0  0999 V2000
    2.0776    1.8873    2.9327 O   0  0  0  0  0  0  0  0  0  0  0  0
    1.5634    1.4037    1.9323 C   0  0  0  0  0  0  0  0  0  0  0  0
    1.5182    0.0630    1.6081 N   0  0  0  0  0  0  0  0  0  0  0  0
    1.9867   -1.0372    2.3643 C   0  0  0  0  0  0  0  0  0  0  0  0
    2.5269   -0.9086    3.6465 C   0  0  0  0  0  0  0  0  0  0  0  0
    2.9595   -2.0365    4.3540 C   0  0  0  0  0  0  0  0  0  0  0  0
    2.8657   -3.3055    3.7863 C   0  0  0  0  0  0  0  0  0  0  0  0
    2.3319   -3.4518    2.5080 C   0  0  0  0  0  0  0  0  0  0  0  0
    1.8967   -2.3269    1.8037 C   0  0  0  0  0  0  0  0  0  0  0  0
    1.2665   -2.5649    0.2019 Cl  0  0  0  0  0  0  0  0  0  0  0  0
    0.9547    2.3397    0.9354 C   0  0  0  0  0  0  0  0  0  0  0  0
    1.5122    3.6290    0.8545 C   0  0  0  0  0  0  0  0  0  0  0  0
    0.9894    4.5776   -0.0259 C   0  0  0  0  0  0  0  0  0  0  0  0
   -0.1135    4.2594   -0.8149 C   0  0  0  0  0  0  0  0  0  0  0  0
   -0.6859    2.9897   -0.7337 C   0  0  0  0  0  0  0  0  0  0  0  0
   -0.1449    2.0165    0.1233 C   0  0  0  0  0  0  0  0  0  0  0  0
   -0.7310    0.7749    0.2637 O   0  0  0  0  0  0  0  0  0  0  0  0
   -1.2489    0.1653   -0.8564 C   0  0  0  0  0  0  0  0  0  0  0  0
   -0.4531   -0.0534   -1.9859 C   0  0  0  0  0  0  0  0  0  0  0  0
   -0.9614   -0.7620   -3.0821 C   0  0  0  0  0  0  0  0  0  0  0  0
   -2.2733   -1.2705   -3.0680 C   0  0  0  0  0  0  0  0  0  0  0  0
   -2.8023   -2.0662   -4.2425 C   0  0  0  0  0  0  0  0  0  0  0  0
   -4.1620   -2.0745   -4.3082 F   0  0  0  0  0  0  0  0  0  0  0  0
   -2.3711   -1.5888   -5.4384 F   0  0  0  0  0  0  0  0  0  0  0  0
   -2.4213   -3.3687   -4.1947 F   0  0  0  0  0  0  0  0  0  0  0  0
   -3.0656   -1.0690   -1.9263 C   0  0  0  0  0  0  0  0  0  0  0  0
   -2.5450   -0.3573   -0.8360 C   0  0  0  0  0  0  0  0  0  0  0  0
   -3.3929   -0.1682    0.3276 N   0  0  0  0  0  4  0  0  0  0  0  0
   -3.9424   -1.1775    0.7869 O   0  0  0  0  0  0  0  0  0  0  0  0
   -3.5361    0.9880    0.7481 O   0  0  0  0  0  1  0  0  0  0  0  0
    1.0964   -0.1863    0.7208 H   0  0  0  0  0  0  0  0  0  0  0  0
    2.6260    0.0564    4.1318 H   0  0  0  0  0  0  0  0  0  0  0  0
    3.3623   -1.9165    5.3580 H   0  0  0  0  0  0  0  0  0  0  0  0
    3.2016   -4.1769    4.3443 H   0  0  0  0  0  0  0  0  0  0  0  0
    2.2676   -4.4433    2.0647 H   0  0  0  0  0  0  0  0  0  0  0  0
    2.3578    3.8971    1.4832 H   0  0  0  0  0  0  0  0  0  0  0  0
    1.4323    5.5668   -0.0803 H   0  0  0  0  0  0  0  0  0  0  0  0
   -0.5412    5.0067   -1.4788 H   0  0  0  0  0  0  0  0  0  0  0  0
   -1.5738    2.7850   -1.3228 H   0  0  0  0  0  0  0  0  0  0  0  0
    0.5757    0.3034   -2.0200 H   0  0  0  0  0  0  0  0  0  0  0  0
   -0.3206   -0.9350   -3.9495 H   0  0  0  0  0  0  0  0  0  0  0  0
   -4.0829   -1.4643   -1.8873 H   0  0  0  0  0  0  0  0  0  0  0  0
  1  2  2  0
  2  3  1  0
  3  4  1  0
  4  5  2  0
  5  6  1  0
  6  7  2  0
  7  8  1  0
  8  9  2  0
  9 10  1  0
  2 11  1  0
 11 12  2  0
 12 13  1  0
 13 14  2  0
 14 15  1  0
 15 16  2  0
 16 17  1  0
 17 18  1  0
 18 19  2  0
 19 20  1  0
 20 21  2  0
 21 22  1  0
 22 23  1  0
 22 24  1  0
 22 25  1  0
 21 26  1  0
 26 27  2  0
 27 28  1  0
 28 29  2  0
 28 30  1  0
  9  4  1  0
 16 11  1  0
 27 18  1  0
  3 31  1  0
  5 32  1  0
  6 33  1  0
  7 34  1  0
  8 35  1  0
 12 36  1  0
 13 37  1  0
 14 38  1  0
 15 39  1  0
 19 40  1  0
 20 41  1  0
 26 42  1  0
M  CHG  2  28   1  30  -1
M  END
$$$$
