
     RDKit          3D

 42 44  0  0  0  0  0  0  0  0999 V2000
    5.1512   -1.7214   -2.1797 C   0  0  0  0  0  0  0  0  0  0  0  0
    4.3709   -1.7344   -0.9828 O   0  0  0  0  0  0  0  0  0  0  0  0
    4.9514   -1.0815    0.0639 C   0  0  0  0  0  0  0  0  0  0  0  0
    6.0574   -0.5554    0.0358 O   0  0  0  0  0  0  0  0  0  0  0  0
    4.0750   -1.1246    1.2855 C   0  0  0  0  0  0  0  0  0  0  0  0
    2.8075   -0.4416    1.0843 N   0  0  0  0  0  0  0  0  0  0  0  0
    1.5916   -1.0704    0.9929 C   0  0  0  0  0  0  0  0  0  0  0  0
    0.6249   -0.1052    0.8143 C   0  0  0  0  0  0  0  0  0  0  0  0
   -0.7582   -0.4271    0.6587 C   0  0  0  0  0  0  0  0  0  0  0  0
   -1.6262    0.2449   -0.1160 C   0  0  0  0  0  0  0  0  0  0  0  0
   -3.0421   -0.1073   -0.2679 C   0  0  0  0  0  0  0  0  0  0  0  0
   -3.4758   -1.4272   -0.3821 C   0  0  0  0  0  0  0  0  0  0  0  0
   -4.8292   -1.6967   -0.5539 C   0  0  0  0  0  0  0  0  0  0  0  0
   -5.7284   -0.6901   -0.6248 N   0  0  0  0  0  4  0  0  0  0  0  0
   -7.1582   -1.0004   -0.7940 C   0  0  0  0  0  0  0  0  0  0  0  0
   -5.3313    0.5978   -0.5240 C   0  0  0  0  0  0  0  0  0  0  0  0
   -3.9878    0.9131   -0.3540 C   0  0  0  0  0  0  0  0  0  0  0  0
    1.2733    1.1690    0.8474 C   0  0  0  0  0  0  0  0  0  0  0  0
    0.8376    2.5118    0.7769 C   0  0  0  0  0  0  0  0  0  0  0  0
    1.7681    3.5548    0.8399 C   0  0  0  0  0  0  0  0  0  0  0  0
    3.1237    3.2832    0.9790 C   0  0  0  0  0  0  0  0  0  0  0  0
    3.5856    1.9682    1.0685 C   0  0  0  0  0  0  0  0  0  0  0  0
    2.6438    0.9270    1.0071 C   0  0  0  0  0  0  0  0  0  0  0  0
    5.3247   -0.6937   -2.5138 H   0  0  0  0  0  0  0  0  0  0  0  0
    6.0992   -2.2455   -2.0237 H   0  0  0  0  0  0  0  0  0  0  0  0
    4.5884   -2.2470   -2.9561 H   0  0  0  0  0  0  0  0  0  0  0  0
    3.8865   -2.1664    1.5647 H   0  0  0  0  0  0  0  0  0  0  0  0
    4.5839   -0.6403    2.1257 H   0  0  0  0  0  0  0  0  0  0  0  0
    1.5204   -2.1497    1.0404 H   0  0  0  0  0  0  0  0  0  0  0  0
   -1.0960   -1.3038    1.2074 H   0  0  0  0  0  0  0  0  0  0  0  0
   -1.2888    1.1106   -0.6827 H   0  0  0  0  0  0  0  0  0  0  0  0
   -2.7682   -2.2535   -0.3496 H   0  0  0  0  0  0  0  0  0  0  0  0
   -5.2009   -2.7140   -0.6390 H   0  0  0  0  0  0  0  0  0  0  0  0
   -7.5909   -1.1024    0.2042 H   0  0  0  0  0  0  0  0  0  0  0  0
   -7.2591   -1.9303   -1.3596 H   0  0  0  0  0  0  0  0  0  0  0  0
   -7.6381   -0.1881   -1.3460 H   0  0  0  0  0  0  0  0  0  0  0  0
   -6.0948    1.3686   -0.5805 H   0  0  0  0  0  0  0  0  0  0  0  0
   -3.6878    1.9570   -0.2782 H   0  0  0  0  0  0  0  0  0  0  0  0
   -0.2168    2.7486    0.6862 H   0  0  0  0  0  0  0  0  0  0  0  0
    1.4285    4.5861    0.7843 H   0  0  0  0  0  0  0  0  0  0  0  0
    3.8367    4.1038    1.0260 H   0  0  0  0  0  0  0  0  0  0  0  0
    4.6484    1.7735    1.1843 H   0  0  0  0  0  0  0  0  0  0  0  0
  1  2  1  0
  2  3  1  0
  3  4  2  0
  3  5  1  0
  5  6  1  0
  6  7  1  0
  7  8  2  0
  8  9  1  0
  9 10  2  3
 10 11  1  0
 11 12  2  0
 12 13  1  0
 13 14  2  0
 14 15  1  0
 14 16  1  0
 16 17  2  0
  8 18  1  0
 18 19  2  0
 19 20  1  0
 20 21  2  0
 21 22  1  0
 22 23  2  0
 23  6  1  0
 17 11  1  0
 23 18  1  0
  1 24  1  0
  1 25  1  0
  1 26  1  0
  5 27  1  0
  5 28  1  0
  7 29  1  0
  9 30  1  0
 10 31  1  0
 12 32  1  0
 13 33  1  0
 15 34  1  0
 15 35  1  0
 15 36  1  0
 16 37  1  0
 17 38  1  0
 19 39  1  0
 20 40  1  0
 21 41  1  0
 22 42  1  0
M  CHG  1  14   1
M  END
$$$$
