
     RDKit          3D

 46 49  0  0  0  0  0  0  0  0999 V2000
    3.6579   -1.1982   -0.8307 O   0  0  0  0  0  0  0  0  0  0  0  0
    3.0275   -0.3785   -1.4912 C   0  0  0  0  0  0  0  0  0  0  0  0
    1.5174   -0.4779   -1.6283 C   0  0  0  0  0  0  0  0  0  0  0  0
    0.7433    0.2003   -0.1375 S   0  0  0  0  0  0  0  0  0  0  0  0
   -0.9189   -0.0293   -0.5460 C   0  0  0  0  0  0  0  0  0  0  0  0
   -1.3992   -0.0593   -1.7647 N   0  0  0  0  0  0  0  0  0  0  0  0
   -2.7473   -0.2822   -1.6734 N   0  0  0  0  0  0  0  0  0  0  0  0
   -3.0677   -0.3923   -0.3977 C   0  0  0  0  0  0  0  0  0  0  0  0
   -4.4364   -0.7019    0.1186 C   0  0  0  0  0  0  0  0  0  0  0  0
   -5.0711    0.4000    0.9212 C   0  0  0  0  0  0  0  0  0  0  0  0
   -5.5400    0.3405    2.2201 C   0  0  0  0  0  0  0  0  0  0  0  0
   -6.0985    1.5756    2.6547 C   0  0  0  0  0  0  0  0  0  0  0  0
   -6.0576    2.5336    1.6681 C   0  0  0  0  0  0  0  0  0  0  0  0
   -5.3388    1.9474    0.2337 S   0  0  0  0  0  0  0  0  0  0  0  0
   -1.9261   -0.2215    0.3606 N   0  0  0  0  0  0  0  0  0  0  0  0
   -1.8168   -0.2494    1.8067 C   0  0  0  0  0  0  0  0  0  0  0  0
   -1.7461   -1.6468    2.2996 C   0  0  0  0  0  0  0  0  0  0  0  0
   -0.7528   -2.6039    2.3071 C   0  0  0  0  0  0  0  0  0  0  0  0
   -1.3097   -3.7534    2.9152 C   0  0  0  0  0  0  0  0  0  0  0  0
   -2.6024   -3.4235    3.2457 C   0  0  0  0  0  0  0  0  0  0  0  0
   -2.8756   -2.1460    2.8794 O   0  0  0  0  0  0  0  0  0  0  0  0
    3.5634    0.7029   -2.1693 N   0  0  0  0  0  0  0  0  0  0  0  0
    4.9199    1.0986   -2.2533 C   0  0  0  0  0  0  0  0  0  0  0  0
    5.9566    0.4325   -1.5956 C   0  0  0  0  0  0  0  0  0  0  0  0
    7.2778    0.8761   -1.7170 C   0  0  0  0  0  0  0  0  0  0  0  0
    7.5704    1.9931   -2.4947 C   0  0  0  0  0  0  0  0  0  0  0  0
    9.1970    2.5292   -2.6354 Cl  0  0  0  0  0  0  0  0  0  0  0  0
    6.5560    2.6765   -3.1551 C   0  0  0  0  0  0  0  0  0  0  0  0
    5.2395    2.2277   -3.0335 C   0  0  0  0  0  0  0  0  0  0  0  0
    4.0044    3.0944   -3.8867 Cl  0  0  0  0  0  0  0  0  0  0  0  0
    1.2503   -1.5313   -1.7500 H   0  0  0  0  0  0  0  0  0  0  0  0
    1.1774    0.0590   -2.5172 H   0  0  0  0  0  0  0  0  0  0  0  0
   -4.3958   -1.6212    0.7138 H   0  0  0  0  0  0  0  0  0  0  0  0
   -5.0907   -0.9311   -0.7326 H   0  0  0  0  0  0  0  0  0  0  0  0
   -5.4858   -0.5518    2.8341 H   0  0  0  0  0  0  0  0  0  0  0  0
   -6.5237    1.7491    3.6357 H   0  0  0  0  0  0  0  0  0  0  0  0
   -6.4155    3.5523    1.7177 H   0  0  0  0  0  0  0  0  0  0  0  0
   -0.9312    0.3127    2.1135 H   0  0  0  0  0  0  0  0  0  0  0  0
   -2.6709    0.2851    2.2284 H   0  0  0  0  0  0  0  0  0  0  0  0
    0.2521   -2.4914    1.9202 H   0  0  0  0  0  0  0  0  0  0  0  0
   -0.8274   -4.7048    3.0940 H   0  0  0  0  0  0  0  0  0  0  0  0
   -3.4126   -3.9587    3.7220 H   0  0  0  0  0  0  0  0  0  0  0  0
    2.9168    1.3078   -2.6688 H   0  0  0  0  0  0  0  0  0  0  0  0
    5.7751   -0.4377   -0.9723 H   0  0  0  0  0  0  0  0  0  0  0  0
    8.0698    0.3467   -1.1908 H   0  0  0  0  0  0  0  0  0  0  0  0
    6.7862    3.5507   -3.7587 H   0  0  0  0  0  0  0  0  0  0  0  0
  1  2  2  0
  2  3  1  0
  3  4  1  0
  4  5  1  0
  5  6  2  0
  6  7  1  0
  7  8  2  0
  8  9  1  0
  9 10  1  0
 10 11  2  0
 11 12  1  0
 12 13  2  0
 13 14  1  0
  8 15  1  0
 15 16  1  0
 16 17  1  0
 17 18  2  0
 18 19  1  0
 19 20  2  0
 20 21  1  0
  2 22  1  0
 22 23  1  0
 23 24  2  0
 24 25  1  0
 25 26  2  0
 26 27  1  0
 26 28  1  0
 28 29  2  0
 29 30  1  0
 15  5  1  0
 21 17  1  0
 29 23  1  0
 14 10  1  0
  3 31  1  0
  3 32  1  0
  9 33  1  0
  9 34  1  0
 11 35  1  0
 12 36  1  0
 13 37  1  0
 16 38  1  0
 16 39  1  0
 18 40  1  0
 19 41  1  0
 20 42  1  0
 22 43  1  0
 24 44  1  0
 25 45  1  0
 28 46  1  0
M  END
$$$$
