
     RDKit          3D

 31 32  0  0  0  0  0  0  0  0999 V2000
   -2.4301    0.0925    2.3860 C   0  0  0  0  0  0  0  0  0  0  0  0
   -2.3470    0.7772    1.0292 C   0  0  0  0  0  0  0  0  0  0  0  0
   -1.7206   -0.1024    0.0314 N   0  0  0  0  0  0  0  0  0  0  0  0
   -2.6457   -0.9363   -0.7491 C   0  0  0  0  0  0  0  0  0  0  0  0
   -3.0552   -0.2382   -2.0381 C   0  0  0  0  0  0  0  0  0  0  0  0
   -0.3447   -0.1441   -0.1578 C   0  0  0  0  0  0  0  0  0  0  0  0
    0.2523   -0.8869   -1.1907 C   0  0  0  0  0  0  0  0  0  0  0  0
    1.6452   -0.9360   -1.3918 C   0  0  0  0  0  0  0  0  0  0  0  0
    2.5175   -0.2363   -0.5582 C   0  0  0  0  0  0  0  0  0  0  0  0
    3.9801   -0.2223   -0.6823 C   0  0  0  0  0  0  0  0  0  0  0  0
    4.6902   -1.1498   -1.9720 Cl  0  0  0  0  0  0  0  0  0  0  0  0
    4.7373    0.4853    0.1751 C   0  0  0  0  0  0  0  0  0  0  0  0
    6.6187    0.5639    0.0953 Br  0  0  0  0  0  0  0  0  0  0  0  0
    4.1093    1.2718    1.2716 C   0  0  0  0  0  0  0  0  0  0  0  0
    4.7612    1.9305    2.0757 O   0  0  0  0  0  0  0  0  0  0  0  0
    2.7250    1.2376    1.3602 O   0  0  0  0  0  0  0  0  0  0  0  0
    1.9368    0.4981    0.4624 C   0  0  0  0  0  0  0  0  0  0  0  0
    0.5502    0.5515    0.6666 C   0  0  0  0  0  0  0  0  0  0  0  0
   -1.4393   -0.1641    2.7728 H   0  0  0  0  0  0  0  0  0  0  0  0
   -3.0115   -0.8334    2.3242 H   0  0  0  0  0  0  0  0  0  0  0  0
   -2.9175    0.7508    3.1119 H   0  0  0  0  0  0  0  0  0  0  0  0
   -1.8290    1.7397    1.1063 H   0  0  0  0  0  0  0  0  0  0  0  0
   -3.3649    1.0331    0.7081 H   0  0  0  0  0  0  0  0  0  0  0  0
   -2.2260   -1.9272   -0.9554 H   0  0  0  0  0  0  0  0  0  0  0  0
   -3.5508   -1.1338   -0.1604 H   0  0  0  0  0  0  0  0  0  0  0  0
   -2.1941   -0.0376   -2.6826 H   0  0  0  0  0  0  0  0  0  0  0  0
   -3.5426    0.7198   -1.8287 H   0  0  0  0  0  0  0  0  0  0  0  0
   -3.7596   -0.8616   -2.5977 H   0  0  0  0  0  0  0  0  0  0  0  0
   -0.3541   -1.4528   -1.8924 H   0  0  0  0  0  0  0  0  0  0  0  0
    2.0100   -1.5375   -2.2212 H   0  0  0  0  0  0  0  0  0  0  0  0
    0.1988    1.1487    1.5017 H   0  0  0  0  0  0  0  0  0  0  0  0
  1  2  1  0
  2  3  1  0
  3  4  1  0
  4  5  1  0
  3  6  1  0
  6  7  2  0
  7  8  1  0
  8  9  2  0
  9 10  1  0
 10 11  1  0
 10 12  2  0
 12 13  1  0
 12 14  1  0
 14 15  2  0
 14 16  1  0
 16 17  1  0
 17 18  2  0
 18  6  1  0
 17  9  1  0
  1 19  1  0
  1 20  1  0
  1 21  1  0
  2 22  1  0
  2 23  1  0
  4 24  1  0
  4 25  1  0
  5 26  1  0
  5 27  1  0
  5 28  1  0
  7 29  1  0
  8 30  1  0
 18 31  1  0
M  END
$$$$
