
     RDKit          3D

 36 37  0  0  0  0  0  0  0  0999 V2000
    7.5370    0.9117    0.4670 C   0  0  0  0  0  0  0  0  0  0  0  0
    6.0523    0.9853    0.7209 C   0  0  0  0  0  0  0  0  0  0  0  0
    5.5697    1.8923    1.3889 O   0  0  0  0  0  0  0  0  0  0  0  0
    5.3743   -0.0629    0.1240 N   0  0  0  0  0  0  0  0  0  0  0  0
    3.9894   -0.3223    0.1635 C   0  0  0  0  0  0  0  0  0  0  0  0
    3.5266   -1.4350   -0.5497 C   0  0  0  0  0  0  0  0  0  0  0  0
    2.1661   -1.7588   -0.5626 C   0  0  0  0  0  0  0  0  0  0  0  0
    1.2464   -0.9678    0.1334 C   0  0  0  0  0  0  0  0  0  0  0  0
   -0.1931   -1.3487    0.0886 C   0  0  0  0  0  0  0  0  0  0  0  0
   -0.4921   -2.5303   -0.0553 O   0  0  0  0  0  0  0  0  0  0  0  0
   -1.0898   -0.2940    0.1804 N   0  0  0  0  0  0  0  0  0  0  0  0
   -2.4290   -0.5426    0.1287 N   0  0  0  0  0  0  0  0  0  0  0  0
   -3.1967    0.4983    0.1600 C   0  0  0  0  0  0  0  0  0  0  0  0
   -4.6673    0.3749    0.1094 C   0  0  0  0  0  0  0  0  0  0  0  0
   -5.2768   -0.8831    0.0228 C   0  0  0  0  0  0  0  0  0  0  0  0
   -6.6685   -0.9770   -0.0240 C   0  0  0  0  0  0  0  0  0  0  0  0
   -7.4353    0.1827    0.0158 C   0  0  0  0  0  0  0  0  0  0  0  0
   -8.7707    0.0927   -0.0293 F   0  0  0  0  0  0  0  0  0  0  0  0
   -6.8378    1.4370    0.1019 C   0  0  0  0  0  0  0  0  0  0  0  0
   -5.4457    1.5376    0.1491 C   0  0  0  0  0  0  0  0  0  0  0  0
    1.7060    0.1316    0.8658 C   0  0  0  0  0  0  0  0  0  0  0  0
    3.0700    0.4529    0.8739 C   0  0  0  0  0  0  0  0  0  0  0  0
    7.7326    0.8645   -0.6080 H   0  0  0  0  0  0  0  0  0  0  0  0
    7.9524    0.0287    0.9603 H   0  0  0  0  0  0  0  0  0  0  0  0
    8.0234    1.8046    0.8700 H   0  0  0  0  0  0  0  0  0  0  0  0
    5.9333   -0.7173   -0.4096 H   0  0  0  0  0  0  0  0  0  0  0  0
    4.2129   -2.0694   -1.1051 H   0  0  0  0  0  0  0  0  0  0  0  0
    1.8237   -2.6300   -1.1188 H   0  0  0  0  0  0  0  0  0  0  0  0
   -0.7664    0.6652    0.1681 H   0  0  0  0  0  0  0  0  0  0  0  0
   -2.7861    1.5220    0.2266 H   0  0  0  0  0  0  0  0  0  0  0  0
   -4.6734   -1.7889   -0.0082 H   0  0  0  0  0  0  0  0  0  0  0  0
   -7.1557   -1.9447   -0.0911 H   0  0  0  0  0  0  0  0  0  0  0  0
   -7.4614    2.3252    0.1314 H   0  0  0  0  0  0  0  0  0  0  0  0
   -4.9847    2.5192    0.2164 H   0  0  0  0  0  0  0  0  0  0  0  0
    1.0308    0.7352    1.4656 H   0  0  0  0  0  0  0  0  0  0  0  0
    3.3836    1.3110    1.4612 H   0  0  0  0  0  0  0  0  0  0  0  0
  1  2  1  0
  2  3  2  0
  2  4  1  0
  4  5  1  0
  5  6  2  0
  6  7  1  0
  7  8  2  0
  8  9  1  0
  9 10  2  0
  9 11  1  0
 11 12  1  0
 12 13  2  3
 13 14  1  0
 14 15  2  0
 15 16  1  0
 16 17  2  0
 17 18  1  0
 17 19  1  0
 19 20  2  0
  8 21  1  0
 21 22  2  0
 22  5  1  0
 20 14  1  0
  1 23  1  0
  1 24  1  0
  1 25  1  0
  4 26  1  0
  6 27  1  0
  7 28  1  0
 11 29  1  0
 13 30  1  0
 15 31  1  0
 16 32  1  0
 19 33  1  0
 20 34  1  0
 21 35  1  0
 22 36  1  0
M  END
$$$$
