
     RDKit          3D

 58 61  0  0  0  0  0  0  0  0999 V2000
   -5.2305    5.1978   -0.0742 C   0  0  0  0  0  0  0  0  0  0  0  0
   -5.0935    3.8095   -0.3496 O   0  0  0  0  0  0  0  0  0  0  0  0
   -4.2132    3.1081    0.4279 C   0  0  0  0  0  0  0  0  0  0  0  0
   -3.4503    3.6270    1.4740 C   0  0  0  0  0  0  0  0  0  0  0  0
   -2.5822    2.7968    2.1871 C   0  0  0  0  0  0  0  0  0  0  0  0
   -2.4742    1.4452    1.8586 C   0  0  0  0  0  0  0  0  0  0  0  0
   -3.2337    0.9085    0.8127 C   0  0  0  0  0  0  0  0  0  0  0  0
   -3.1027   -0.5094    0.4525 C   0  0  0  0  0  0  0  0  0  0  0  0
   -4.4714   -1.5218    0.6283 S   0  0  0  0  0  0  0  0  0  0  0  0
   -3.6253   -2.9148    0.0918 C   0  0  0  0  0  0  0  0  0  0  0  0
   -4.1429   -4.2178   -0.0398 C   0  0  0  0  0  0  0  0  0  0  0  0
   -3.3094   -5.2425   -0.5017 C   0  0  0  0  0  0  0  0  0  0  0  0
   -1.9863   -4.9832   -0.8309 C   0  0  0  0  0  0  0  0  0  0  0  0
   -1.0785   -5.8961   -1.2940 O   0  0  0  0  0  0  0  0  0  0  0  0
   -1.5484   -7.2214   -1.5066 C   0  0  0  0  0  0  0  0  0  0  0  0
   -1.4838   -3.6837   -0.6922 C   0  0  0  0  0  0  0  0  0  0  0  0
   -2.2985   -2.6199   -0.2216 C   0  0  0  0  0  0  0  0  0  0  0  0
   -2.0011   -1.2199   -0.0026 C   0  0  0  0  0  0  0  0  0  0  0  0
   -0.7069   -0.5787   -0.2204 C   0  0  0  0  0  0  0  0  0  0  0  0
   -0.5481    0.3872   -1.2180 C   0  0  0  0  0  0  0  0  0  0  0  0
    0.6930    1.0008   -1.4050 C   0  0  0  0  0  0  0  0  0  0  0  0
    1.7865    0.6582   -0.6054 C   0  0  0  0  0  0  0  0  0  0  0  0
    2.9372    1.3397   -0.8904 O   0  0  0  0  0  0  0  0  0  0  0  0
    4.0704    1.0818   -0.0541 C   0  0  0  0  0  0  0  0  0  0  0  0
    5.2098    2.0140   -0.4980 C   0  0  0  0  0  0  0  0  0  0  0  0
    6.4173    1.9378    0.3479 N   0  0  0  0  0  0  0  0  0  0  0  0
    7.1100    0.6568    0.1919 C   0  0  0  0  0  0  0  0  0  0  0  0
    7.3293    3.0349    0.0108 C   0  0  0  0  0  0  0  0  0  0  0  0
    1.6323   -0.3160    0.3813 C   0  0  0  0  0  0  0  0  0  0  0  0
    0.3903   -0.9324    0.5729 C   0  0  0  0  0  0  0  0  0  0  0  0
   -4.1008    1.7521    0.1039 C   0  0  0  0  0  0  0  0  0  0  0  0
   -5.9578    5.6090   -0.7810 H   0  0  0  0  0  0  0  0  0  0  0  0
   -5.6186    5.3634    0.9361 H   0  0  0  0  0  0  0  0  0  0  0  0
   -4.2835    5.7258   -0.2266 H   0  0  0  0  0  0  0  0  0  0  0  0
   -3.5047    4.6719    1.7597 H   0  0  0  0  0  0  0  0  0  0  0  0
   -1.9858    3.2046    2.9994 H   0  0  0  0  0  0  0  0  0  0  0  0
   -1.7920    0.8137    2.4229 H   0  0  0  0  0  0  0  0  0  0  0  0
   -5.1790   -4.4270    0.2125 H   0  0  0  0  0  0  0  0  0  0  0  0
   -3.7370   -6.2357   -0.5918 H   0  0  0  0  0  0  0  0  0  0  0  0
   -0.7152   -7.8126   -1.8989 H   0  0  0  0  0  0  0  0  0  0  0  0
   -1.8691   -7.6813   -0.5660 H   0  0  0  0  0  0  0  0  0  0  0  0
   -2.3508   -7.2419   -2.2515 H   0  0  0  0  0  0  0  0  0  0  0  0
   -0.4472   -3.4882   -0.9584 H   0  0  0  0  0  0  0  0  0  0  0  0
   -1.3844    0.6731   -1.8507 H   0  0  0  0  0  0  0  0  0  0  0  0
    0.8060    1.7562   -2.1781 H   0  0  0  0  0  0  0  0  0  0  0  0
    4.3719    0.0349   -0.1693 H   0  0  0  0  0  0  0  0  0  0  0  0
    3.8205    1.2914    0.9934 H   0  0  0  0  0  0  0  0  0  0  0  0
    4.8116    3.0381   -0.4700 H   0  0  0  0  0  0  0  0  0  0  0  0
    5.4513    1.8226   -1.5528 H   0  0  0  0  0  0  0  0  0  0  0  0
    6.4902   -0.1728    0.5458 H   0  0  0  0  0  0  0  0  0  0  0  0
    8.0203    0.6347    0.8022 H   0  0  0  0  0  0  0  0  0  0  0  0
    7.3912    0.4628   -0.8493 H   0  0  0  0  0  0  0  0  0  0  0  0
    6.8439    4.0037    0.1733 H   0  0  0  0  0  0  0  0  0  0  0  0
    8.2112    3.0164    0.6605 H   0  0  0  0  0  0  0  0  0  0  0  0
    7.6664    2.9874   -1.0311 H   0  0  0  0  0  0  0  0  0  0  0  0
    2.4547   -0.6206    1.0202 H   0  0  0  0  0  0  0  0  0  0  0  0
    0.2849   -1.6860    1.3509 H   0  0  0  0  0  0  0  0  0  0  0  0
   -4.6936    1.3578   -0.7186 H   0  0  0  0  0  0  0  0  0  0  0  0
  1  2  1  0
  2  3  1  0
  3  4  2  0
  4  5  1  0
  5  6  2  0
  6  7  1  0
  7  8  1  0
  8  9  1  0
  9 10  1  0
 10 11  2  0
 11 12  1  0
 12 13  2  0
 13 14  1  0
 14 15  1  0
 13 16  1  0
 16 17  2  0
 17 18  1  0
 18 19  1  0
 19 20  2  0
 20 21  1  0
 21 22  2  0
 22 23  1  0
 23 24  1  0
 24 25  1  0
 25 26  1  0
 26 27  1  0
 26 28  1  0
 22 29  1  0
 29 30  2  0
  7 31  2  0
 31  3  1  0
 18  8  2  0
 30 19  1  0
 17 10  1  0
  1 32  1  0
  1 33  1  0
  1 34  1  0
  4 35  1  0
  5 36  1  0
  6 37  1  0
 11 38  1  0
 12 39  1  0
 15 40  1  0
 15 41  1  0
 15 42  1  0
 16 43  1  0
 20 44  1  0
 21 45  1  0
 24 46  1  0
 24 47  1  0
 25 48  1  0
 25 49  1  0
 27 50  1  0
 27 51  1  0
 27 52  1  0
 28 53  1  0
 28 54  1  0
 28 55  1  0
 29 56  1  0
 30 57  1  0
 31 58  1  0
M  END
$$$$
