
     RDKit          3D

 53 56  0  0  0  0  0  0  0  0999 V2000
    8.6637    0.0049   -1.5631 C   0  0  0  0  0  0  0  0  0  0  0  0
    7.3814    0.2800   -2.1203 O   0  0  0  0  0  0  0  0  0  0  0  0
    6.3224    0.2959   -1.2522 C   0  0  0  0  0  0  0  0  0  0  0  0
    5.1079    0.6929   -1.8128 C   0  0  0  0  0  0  0  0  0  0  0  0
    3.9546    0.7819   -1.0258 C   0  0  0  0  0  0  0  0  0  0  0  0
    3.9979    0.4621    0.3361 C   0  0  0  0  0  0  0  0  0  0  0  0
    2.8043    0.6060    1.0654 N   0  0  0  0  0  0  0  0  0  0  0  0
    2.5849    0.3403    2.4066 C   0  0  0  0  0  0  0  0  0  0  0  0
    3.4087   -0.1163    3.1984 O   0  0  0  0  0  0  0  0  0  0  0  0
    1.1790    0.6896    2.8718 C   0  0  0  0  0  0  0  0  0  0  0  0
   -0.0134   -0.5926    2.3905 S   0  0  0  0  0  0  0  0  0  0  0  0
   -0.5071   -0.0288    0.8254 C   0  0  0  0  0  0  0  0  0  0  0  0
    0.1830    0.8297    0.1109 N   0  0  0  0  0  0  0  0  0  0  0  0
   -0.5403    1.1320   -1.0000 N   0  0  0  0  0  0  0  0  0  0  0  0
   -1.6855    0.4733   -0.9445 C   0  0  0  0  0  0  0  0  0  0  0  0
   -2.6856    0.4380   -2.0621 C   0  0  0  0  0  0  0  0  0  0  0  0
   -3.5183    1.6909   -2.1491 C   0  0  0  0  0  0  0  0  0  0  0  0
   -3.0877    3.0038   -2.1824 C   0  0  0  0  0  0  0  0  0  0  0  0
   -4.1644    3.9283   -2.2849 C   0  0  0  0  0  0  0  0  0  0  0  0
   -5.3849    3.2951   -2.3369 C   0  0  0  0  0  0  0  0  0  0  0  0
   -5.2246    1.5956   -2.2887 S   0  0  0  0  0  0  0  0  0  0  0  0
   -1.7217   -0.2963    0.2166 N   0  0  0  0  0  0  0  0  0  0  0  0
   -2.7603   -1.1606    0.6517 C   0  0  0  0  0  0  0  0  0  0  0  0
   -4.0889   -0.7350    0.6024 C   0  0  0  0  0  0  0  0  0  0  0  0
   -5.1154   -1.5886    1.0162 C   0  0  0  0  0  0  0  0  0  0  0  0
   -4.8254   -2.8723    1.4885 C   0  0  0  0  0  0  0  0  0  0  0  0
   -5.9350   -3.7942    1.9047 C   0  0  0  0  0  0  0  0  0  0  0  0
   -3.4935   -3.2956    1.5286 C   0  0  0  0  0  0  0  0  0  0  0  0
   -2.4621   -2.4438    1.1222 C   0  0  0  0  0  0  0  0  0  0  0  0
    5.2097    0.0404    0.8881 C   0  0  0  0  0  0  0  0  0  0  0  0
    6.3648   -0.0394    0.1002 C   0  0  0  0  0  0  0  0  0  0  0  0
    8.9124    0.7140   -0.7651 H   0  0  0  0  0  0  0  0  0  0  0  0
    8.7193   -1.0303   -1.2098 H   0  0  0  0  0  0  0  0  0  0  0  0
    9.4076    0.1280   -2.3577 H   0  0  0  0  0  0  0  0  0  0  0  0
    5.0604    0.9516   -2.8686 H   0  0  0  0  0  0  0  0  0  0  0  0
    3.0298    1.1109   -1.4918 H   0  0  0  0  0  0  0  0  0  0  0  0
    1.9957    0.9186    0.5283 H   0  0  0  0  0  0  0  0  0  0  0  0
    1.1918    0.7417    3.9646 H   0  0  0  0  0  0  0  0  0  0  0  0
    0.8875    1.6824    2.5115 H   0  0  0  0  0  0  0  0  0  0  0  0
   -3.3076   -0.4647   -2.0155 H   0  0  0  0  0  0  0  0  0  0  0  0
   -2.1242    0.3472   -3.0043 H   0  0  0  0  0  0  0  0  0  0  0  0
   -2.0422    3.2890   -2.1319 H   0  0  0  0  0  0  0  0  0  0  0  0
   -4.0481    5.0048   -2.3197 H   0  0  0  0  0  0  0  0  0  0  0  0
   -6.3603    3.7510   -2.4138 H   0  0  0  0  0  0  0  0  0  0  0  0
   -4.3511    0.2744    0.2994 H   0  0  0  0  0  0  0  0  0  0  0  0
   -6.1434   -1.2327    0.9864 H   0  0  0  0  0  0  0  0  0  0  0  0
   -5.5702   -4.5670    2.5895 H   0  0  0  0  0  0  0  0  0  0  0  0
   -6.7230   -3.2401    2.4294 H   0  0  0  0  0  0  0  0  0  0  0  0
   -6.3666   -4.2816    1.0242 H   0  0  0  0  0  0  0  0  0  0  0  0
   -3.2500   -4.2981    1.8759 H   0  0  0  0  0  0  0  0  0  0  0  0
   -1.4434   -2.8235    1.1474 H   0  0  0  0  0  0  0  0  0  0  0  0
    5.2963   -0.2282    1.9373 H   0  0  0  0  0  0  0  0  0  0  0  0
    7.2813   -0.3649    0.5834 H   0  0  0  0  0  0  0  0  0  0  0  0
  1  2  1  0
  2  3  1  0
  3  4  2  0
  4  5  1  0
  5  6  2  0
  6  7  1  0
  7  8  1  0
  8  9  2  0
  8 10  1  0
 10 11  1  0
 11 12  1  0
 12 13  2  0
 13 14  1  0
 14 15  2  0
 15 16  1  0
 16 17  1  0
 17 18  2  0
 18 19  1  0
 19 20  2  0
 20 21  1  0
 15 22  1  0
 22 23  1  0
 23 24  2  0
 24 25  1  0
 25 26  2  0
 26 27  1  0
 26 28  1  0
 28 29  2  0
  6 30  1  0
 30 31  2  0
 31  3  1  0
 22 12  1  0
 29 23  1  0
 21 17  1  0
  1 32  1  0
  1 33  1  0
  1 34  1  0
  4 35  1  0
  5 36  1  0
  7 37  1  0
 10 38  1  0
 10 39  1  0
 16 40  1  0
 16 41  1  0
 18 42  1  0
 19 43  1  0
 20 44  1  0
 24 45  1  0
 25 46  1  0
 27 47  1  0
 27 48  1  0
 27 49  1  0
 28 50  1  0
 29 51  1  0
 30 52  1  0
 31 53  1  0
M  END
$$$$
