
     RDKit          3D

 37 39  0  0  0  0  0  0  0  0999 V2000
    7.0594    1.3167    0.5885 O   0  0  0  0  0  0  0  0  0  0  0  0
    5.6454    1.2237    0.5273 C   0  0  0  0  0  0  0  0  0  0  0  0
    5.2084   -0.1072    1.1320 C   0  0  0  0  0  0  0  0  0  0  0  0
    3.7349   -0.2296    1.0815 N   0  0  0  0  0  4  0  0  0  0  0  0
    2.9902    0.2122    2.1207 C   0  0  0  0  0  0  0  0  0  0  0  0
    1.6046    0.1024    2.0961 C   0  0  0  0  0  0  0  0  0  0  0  0
    0.9750   -0.4599    0.9876 C   0  0  0  0  0  0  0  0  0  0  0  0
   -0.4857   -0.5923    0.9838 C   0  0  0  0  0  0  0  0  0  0  0  0
   -1.2549   -0.3246   -0.0858 C   0  0  0  0  0  0  0  0  0  0  0  0
   -2.6806   -0.4319   -0.1444 C   0  0  0  0  0  0  0  0  0  0  0  0
   -3.5055   -0.9100    0.8517 C   0  0  0  0  0  0  0  0  0  0  0  0
   -4.7979   -0.8517    0.3964 N   0  0  0  0  0  0  0  0  0  0  0  0
   -4.8312   -0.3443   -0.8815 C   0  0  0  0  0  0  0  0  0  0  0  0
   -5.9232   -0.1121   -1.7266 C   0  0  0  0  0  0  0  0  0  0  0  0
   -5.6630    0.4190   -2.9923 C   0  0  0  0  0  0  0  0  0  0  0  0
   -4.3618    0.7060   -3.3948 C   0  0  0  0  0  0  0  0  0  0  0  0
   -3.2809    0.4676   -2.5374 C   0  0  0  0  0  0  0  0  0  0  0  0
   -3.5132   -0.0695   -1.2519 C   0  0  0  0  0  0  0  0  0  0  0  0
    1.7644   -0.9283   -0.0617 C   0  0  0  0  0  0  0  0  0  0  0  0
    3.1470   -0.8012    0.0056 C   0  0  0  0  0  0  0  0  0  0  0  0
    7.3313    2.1706    0.1999 H   0  0  0  0  0  0  0  0  0  0  0  0
    5.2124    2.0637    1.0796 H   0  0  0  0  0  0  0  0  0  0  0  0
    5.3318    1.2981   -0.5188 H   0  0  0  0  0  0  0  0  0  0  0  0
    5.6482   -0.9547    0.5937 H   0  0  0  0  0  0  0  0  0  0  0  0
    5.5308   -0.1972    2.1758 H   0  0  0  0  0  0  0  0  0  0  0  0
    3.5118    0.6516    2.9669 H   0  0  0  0  0  0  0  0  0  0  0  0
    1.0218    0.4657    2.9412 H   0  0  0  0  0  0  0  0  0  0  0  0
   -0.9379   -0.9055    1.9222 H   0  0  0  0  0  0  0  0  0  0  0  0
   -0.7783    0.0205   -1.0006 H   0  0  0  0  0  0  0  0  0  0  0  0
   -3.3040   -1.2917    1.8428 H   0  0  0  0  0  0  0  0  0  0  0  0
   -5.6151   -1.1401    0.9171 H   0  0  0  0  0  0  0  0  0  0  0  0
   -6.9398   -0.3339   -1.4171 H   0  0  0  0  0  0  0  0  0  0  0  0
   -6.4908    0.6108   -3.6719 H   0  0  0  0  0  0  0  0  0  0  0  0
   -4.1836    1.1198   -4.3845 H   0  0  0  0  0  0  0  0  0  0  0  0
   -2.2742    0.6995   -2.8691 H   0  0  0  0  0  0  0  0  0  0  0  0
    1.3132   -1.4058   -0.9299 H   0  0  0  0  0  0  0  0  0  0  0  0
    3.7910   -1.1566   -0.7944 H   0  0  0  0  0  0  0  0  0  0  0  0
  1  2  1  0
  2  3  1  0
  3  4  1  0
  4  5  2  0
  5  6  1  0
  6  7  2  0
  7  8  1  0
  8  9  2  3
  9 10  1  0
 10 11  2  0
 11 12  1  0
 12 13  1  0
 13 14  2  0
 14 15  1  0
 15 16  2  0
 16 17  1  0
 17 18  2  0
  7 19  1  0
 19 20  2  0
 20  4  1  0
 18 10  1  0
 18 13  1  0
  1 21  1  0
  2 22  1  0
  2 23  1  0
  3 24  1  0
  3 25  1  0
  5 26  1  0
  6 27  1  0
  8 28  1  0
  9 29  1  0
 11 30  1  0
 12 31  1  0
 14 32  1  0
 15 33  1  0
 16 34  1  0
 17 35  1  0
 19 36  1  0
 20 37  1  0
M  CHG  1   4   1
M  END
$$$$
