
     RDKit          3D

 50 51  0  0  0  0  0  0  0  0999 V2000
   -5.0525   -4.3275    0.1867 C   0  0  0  0  0  0  0  0  0  0  0  0
   -5.1666   -2.9871    0.6427 O   0  0  0  0  0  0  0  0  0  0  0  0
   -4.0486   -2.1940    0.5800 C   0  0  0  0  0  0  0  0  0  0  0  0
   -2.7912   -2.6333    0.1552 C   0  0  0  0  0  0  0  0  0  0  0  0
   -1.7084   -1.7519    0.1338 C   0  0  0  0  0  0  0  0  0  0  0  0
   -1.8662   -0.4324    0.5558 C   0  0  0  0  0  0  0  0  0  0  0  0
   -0.7246    0.4339    0.4421 N   0  0  0  0  0  0  0  0  0  0  0  0
   -0.6284    1.1781   -0.8452 C   0  0  0  0  0  0  0  0  0  0  0  0
    0.5667    0.6519   -1.6333 C   0  0  0  0  0  0  0  0  0  0  0  0
    0.3934   -0.0957   -2.5935 O   0  0  0  0  0  0  0  0  0  0  0  0
    1.7908    1.0899   -1.1442 N   0  0  0  0  0  0  0  0  0  0  0  0
    3.0785    0.8673   -1.6973 C   0  0  0  0  0  0  0  0  0  0  0  0
    3.2464    0.2476   -2.9480 C   0  0  0  0  0  0  0  0  0  0  0  0
    4.5121    0.0459   -3.5068 C   0  0  0  0  0  0  0  0  0  0  0  0
    5.6420    0.4746   -2.8290 C   0  0  0  0  0  0  0  0  0  0  0  0
    5.4851    1.1012   -1.5885 C   0  0  0  0  0  0  0  0  0  0  0  0
    6.7029    1.5560   -0.9423 N   0  0  0  0  0  4  0  0  0  0  0  0
    7.4752    0.6839   -0.5233 O   0  0  0  0  0  0  0  0  0  0  0  0
    6.8828    2.7790   -0.8748 O   0  0  0  0  0  1  0  0  0  0  0  0
    4.2230    1.3021   -0.9849 C   0  0  0  0  0  0  0  0  0  0  0  0
    4.0942    1.9385    0.3762 C   0  0  0  0  0  0  0  0  0  0  0  0
   -0.2415    1.3200    1.8003 S   0  0  0  0  0  6  0  0  0  0  0  0
    0.0677    0.0460    3.0091 C   0  0  0  0  0  0  0  0  0  0  0  0
   -1.3354    2.1541    2.2456 O   0  0  0  0  0  0  0  0  0  0  0  0
    1.0333    1.9193    1.4482 O   0  0  0  0  0  0  0  0  0  0  0  0
   -3.1281    0.0274    0.9383 C   0  0  0  0  0  0  0  0  0  0  0  0
   -4.2182   -0.8508    0.9748 C   0  0  0  0  0  0  0  0  0  0  0  0
   -5.4868   -0.4917    1.3603 O   0  0  0  0  0  0  0  0  0  0  0  0
   -5.6741    0.8179    1.8798 C   0  0  0  0  0  0  0  0  0  0  0  0
   -6.0358   -4.7981    0.2822 H   0  0  0  0  0  0  0  0  0  0  0  0
   -4.7682   -4.3633   -0.8701 H   0  0  0  0  0  0  0  0  0  0  0  0
   -4.3508   -4.8959    0.8058 H   0  0  0  0  0  0  0  0  0  0  0  0
   -2.6208   -3.6534   -0.1726 H   0  0  0  0  0  0  0  0  0  0  0  0
   -0.7412   -2.1037   -0.2190 H   0  0  0  0  0  0  0  0  0  0  0  0
   -0.5170    2.2575   -0.6916 H   0  0  0  0  0  0  0  0  0  0  0  0
   -1.5309    1.0524   -1.4554 H   0  0  0  0  0  0  0  0  0  0  0  0
    1.7500    1.5832   -0.2507 H   0  0  0  0  0  0  0  0  0  0  0  0
    2.3974   -0.0906   -3.5349 H   0  0  0  0  0  0  0  0  0  0  0  0
    4.6028   -0.4394   -4.4760 H   0  0  0  0  0  0  0  0  0  0  0  0
    6.6273    0.3265   -3.2652 H   0  0  0  0  0  0  0  0  0  0  0  0
    5.0530    2.1509    0.8549 H   0  0  0  0  0  0  0  0  0  0  0  0
    3.5680    1.2584    1.0536 H   0  0  0  0  0  0  0  0  0  0  0  0
    3.5508    2.8857    0.2999 H   0  0  0  0  0  0  0  0  0  0  0  0
    0.4857    0.5255    3.8972 H   0  0  0  0  0  0  0  0  0  0  0  0
   -0.8704   -0.4472    3.2670 H   0  0  0  0  0  0  0  0  0  0  0  0
    0.7899   -0.6623    2.5987 H   0  0  0  0  0  0  0  0  0  0  0  0
   -3.2546    1.0729    1.1935 H   0  0  0  0  0  0  0  0  0  0  0  0
   -6.7165    0.9037    2.2014 H   0  0  0  0  0  0  0  0  0  0  0  0
   -5.0405    0.9928    2.7557 H   0  0  0  0  0  0  0  0  0  0  0  0
   -5.5017    1.5745    1.1075 H   0  0  0  0  0  0  0  0  0  0  0  0
  1  2  1  0
  2  3  1  0
  3  4  2  0
  4  5  1  0
  5  6  2  0
  6  7  1  0
  7  8  1  0
  8  9  1  0
  9 10  2  0
  9 11  1  0
 11 12  1  0
 12 13  2  0
 13 14  1  0
 14 15  2  0
 15 16  1  0
 16 17  1  0
 17 18  2  0
 17 19  1  0
 16 20  2  0
 20 21  1  0
  7 22  1  0
 22 23  1  0
 22 24  2  0
 22 25  2  0
  6 26  1  0
 26 27  2  0
 27 28  1  0
 28 29  1  0
 27  3  1  0
 20 12  1  0
  1 30  1  0
  1 31  1  0
  1 32  1  0
  4 33  1  0
  5 34  1  0
  8 35  1  0
  8 36  1  0
 11 37  1  0
 13 38  1  0
 14 39  1  0
 15 40  1  0
 21 41  1  0
 21 42  1  0
 21 43  1  0
 23 44  1  0
 23 45  1  0
 23 46  1  0
 26 47  1  0
 29 48  1  0
 29 49  1  0
 29 50  1  0
M  CHG  2  17   1  19  -1
M  END
$$$$
