
     RDKit          3D

 63 67  0  0  0  0  0  0  0  0999 V2000
    6.5694    1.4223   -4.3962 C   0  0  0  0  0  0  0  0  0  0  0  0
    6.8192    0.0912   -3.7126 C   0  0  0  0  0  0  0  0  0  0  0  0
    6.0425   -0.0003   -2.5110 O   0  0  0  0  0  0  0  0  0  0  0  0
    4.7725   -0.4794   -2.6582 C   0  0  0  0  0  0  0  0  0  0  0  0
    4.2754   -0.8153   -3.7259 O   0  0  0  0  0  0  0  0  0  0  0  0
    4.0520   -0.5476   -1.3929 C   0  0  0  0  0  0  0  0  0  0  0  0
    2.7220   -1.0160   -1.1874 C   0  0  0  0  0  0  0  0  0  0  0  0
    2.4216   -0.8967    0.1569 C   0  0  0  0  0  0  0  0  0  0  0  0
    1.2226   -1.2249    0.9117 C   0  0  0  0  0  0  0  0  0  0  0  0
    0.0571   -1.6737    0.2934 N   0  0  0  0  0  0  0  0  0  0  0  0
   -0.6228   -0.7763   -0.6619 C   0  0  0  0  0  0  0  0  0  0  0  0
   -1.5920    0.1804    0.0735 C   0  0  0  0  0  0  0  0  0  0  0  0
   -2.6027   -0.5417    0.8805 N   0  0  0  0  0  0  0  0  0  0  0  0
   -3.4807    0.3734    1.6328 C   0  0  0  0  0  0  0  0  0  0  0  0
   -4.3563    1.3143    0.7744 C   0  0  0  0  0  0  0  0  0  0  0  0
   -5.2994    0.7054   -0.2535 C   0  0  0  0  0  0  0  0  0  0  0  0
   -5.7178   -0.6335   -0.1549 C   0  0  0  0  0  0  0  0  0  0  0  0
   -6.6059   -1.1858   -1.0794 C   0  0  0  0  0  0  0  0  0  0  0  0
   -7.1040   -0.4103   -2.1182 C   0  0  0  0  0  0  0  0  0  0  0  0
   -6.7170    0.9229   -2.2303 C   0  0  0  0  0  0  0  0  0  0  0  0
   -5.8252    1.5007   -1.3044 C   0  0  0  0  0  0  0  0  0  0  0  0
   -5.4420    2.9563   -1.4772 C   0  0  0  0  0  0  0  0  0  0  0  0
   -5.5950    3.6875   -0.3376 F   0  0  0  0  0  0  0  0  0  0  0  0
   -6.1764    3.6070   -2.4252 F   0  0  0  0  0  0  0  0  0  0  0  0
   -4.1414    3.1135   -1.8525 F   0  0  0  0  0  0  0  0  0  0  0  0
   -1.9104   -1.4629    1.8171 C   0  0  0  0  0  0  0  0  0  0  0  0
   -0.9319   -2.4180    1.0995 C   0  0  0  0  0  0  0  0  0  0  0  0
    1.2557   -1.1053    2.2150 N   0  0  0  0  0  0  0  0  0  0  0  0
    2.4102   -0.6248    2.8643 C   0  0  0  0  0  0  0  0  0  0  0  0
    2.3849   -0.4981    4.2546 C   0  0  0  0  0  0  0  0  0  0  0  0
    3.4995   -0.0183    4.9478 C   0  0  0  0  0  0  0  0  0  0  0  0
    4.6549    0.3416    4.2530 C   0  0  0  0  0  0  0  0  0  0  0  0
    4.7031    0.2236    2.8635 C   0  0  0  0  0  0  0  0  0  0  0  0
    3.5799   -0.2576    2.1838 C   0  0  0  0  0  0  0  0  0  0  0  0
    3.5453   -0.4190    0.7894 N   0  0  0  0  0  0  0  0  0  0  0  0
    4.5247   -0.1771   -0.1430 C   0  0  0  0  0  0  0  0  0  0  0  0
    6.7768    2.2517   -3.7119 H   0  0  0  0  0  0  0  0  0  0  0  0
    7.2025    1.5288   -5.2817 H   0  0  0  0  0  0  0  0  0  0  0  0
    5.5223    1.5166   -4.7014 H   0  0  0  0  0  0  0  0  0  0  0  0
    7.8717    0.0215   -3.4188 H   0  0  0  0  0  0  0  0  0  0  0  0
    6.6183   -0.7507   -4.3849 H   0  0  0  0  0  0  0  0  0  0  0  0
    2.0595   -1.4035   -1.9519 H   0  0  0  0  0  0  0  0  0  0  0  0
    0.0907   -0.1815   -1.2404 H   0  0  0  0  0  0  0  0  0  0  0  0
   -1.1813   -1.3852   -1.3839 H   0  0  0  0  0  0  0  0  0  0  0  0
   -2.0890    0.7857   -0.6920 H   0  0  0  0  0  0  0  0  0  0  0  0
   -1.0128    0.8608    0.7115 H   0  0  0  0  0  0  0  0  0  0  0  0
   -2.8821    0.9934    2.3142 H   0  0  0  0  0  0  0  0  0  0  0  0
   -4.1495   -0.2187    2.2707 H   0  0  0  0  0  0  0  0  0  0  0  0
   -3.6871    2.0246    0.2762 H   0  0  0  0  0  0  0  0  0  0  0  0
   -4.9762    1.9037    1.4636 H   0  0  0  0  0  0  0  0  0  0  0  0
   -5.3506   -1.2778    0.6406 H   0  0  0  0  0  0  0  0  0  0  0  0
   -6.9056   -2.2270   -0.9851 H   0  0  0  0  0  0  0  0  0  0  0  0
   -7.7938   -0.8420   -2.8383 H   0  0  0  0  0  0  0  0  0  0  0  0
   -7.1200    1.5180   -3.0496 H   0  0  0  0  0  0  0  0  0  0  0  0
   -2.6577   -2.0746    2.3371 H   0  0  0  0  0  0  0  0  0  0  0  0
   -1.3729   -0.8882    2.5819 H   0  0  0  0  0  0  0  0  0  0  0  0
   -1.4954   -3.0830    0.4323 H   0  0  0  0  0  0  0  0  0  0  0  0
   -0.4328   -3.0688    1.8275 H   0  0  0  0  0  0  0  0  0  0  0  0
    1.4864   -0.7767    4.7987 H   0  0  0  0  0  0  0  0  0  0  0  0
    3.4642    0.0736    6.0305 H   0  0  0  0  0  0  0  0  0  0  0  0
    5.5198    0.7134    4.7976 H   0  0  0  0  0  0  0  0  0  0  0  0
    5.6138    0.5074    2.3466 H   0  0  0  0  0  0  0  0  0  0  0  0
    5.4895    0.2211    0.1384 H   0  0  0  0  0  0  0  0  0  0  0  0
  1  2  1  0
  2  3  1  0
  3  4  1  0
  4  5  2  0
  4  6  1  0
  6  7  1  0
  7  8  2  0
  8  9  1  0
  9 10  1  0
 10 11  1  0
 11 12  1  0
 12 13  1  0
 13 14  1  0
 14 15  1  0
 15 16  1  0
 16 17  2  0
 17 18  1  0
 18 19  2  0
 19 20  1  0
 20 21  2  0
 21 22  1  0
 22 23  1  0
 22 24  1  0
 22 25  1  0
 13 26  1  0
 26 27  1  0
  9 28  2  0
 28 29  1  0
 29 30  2  0
 30 31  1  0
 31 32  2  0
 32 33  1  0
 33 34  2  0
 34 35  1  0
 35 36  1  0
 36  6  2  0
 35  8  1  0
 27 10  1  0
 34 29  1  0
 21 16  1  0
  1 37  1  0
  1 38  1  0
  1 39  1  0
  2 40  1  0
  2 41  1  0
  7 42  1  0
 11 43  1  0
 11 44  1  0
 12 45  1  0
 12 46  1  0
 14 47  1  0
 14 48  1  0
 15 49  1  0
 15 50  1  0
 17 51  1  0
 18 52  1  0
 19 53  1  0
 20 54  1  0
 26 55  1  0
 26 56  1  0
 27 57  1  0
 27 58  1  0
 30 59  1  0
 31 60  1  0
 32 61  1  0
 33 62  1  0
 36 63  1  0
M  END
$$$$
