
     RDKit          3D

 49 53  0  0  0  0  0  0  0  0999 V2000
    4.9802   -1.6626    3.4635 C   0  0  0  0  0  0  0  0  0  0  0  0
    3.8069   -0.7441    3.3364 C   0  0  0  0  0  0  0  0  0  0  0  0
    2.7643   -0.5421    4.6705 S   0  0  0  0  0  0  0  0  0  0  0  0
    1.7704    0.5395    3.8213 C   0  0  0  0  0  0  0  0  0  0  0  0
    0.6981    1.0708    4.4309 N   0  0  0  0  0  0  0  0  0  0  0  0
    0.0245    1.9119    3.6516 C   0  0  0  0  0  0  0  0  0  0  0  0
    0.2965    2.2279    2.3828 N   0  0  0  0  0  0  0  0  0  0  0  0
    1.3817    1.6687    1.8039 C   0  0  0  0  0  0  0  0  0  0  0  0
    1.7292    2.1513    0.1408 S   0  0  0  0  0  0  0  0  0  0  0  0
    0.1229    1.7224   -0.6400 C   0  0  0  0  0  0  0  0  0  0  0  0
    0.0437    2.4507   -1.9800 C   0  0  0  0  0  0  0  0  0  0  0  0
   -0.0048    0.1997   -0.8547 C   0  0  0  0  0  0  0  0  0  0  0  0
    0.9417   -0.5857   -0.7907 O   0  0  0  0  0  0  0  0  0  0  0  0
   -1.3071   -0.1904   -1.2067 N   0  0  0  0  0  0  0  0  0  0  0  0
   -2.3072   -0.3088   -0.1779 C   0  0  0  0  0  0  0  0  0  0  0  0
   -1.9090   -0.3072    1.1766 C   0  0  0  0  0  0  0  0  0  0  0  0
   -2.8311   -0.4222    2.2205 C   0  0  0  0  0  0  0  0  0  0  0  0
   -4.1817   -0.5445    1.9362 C   0  0  0  0  0  0  0  0  0  0  0  0
   -4.5999   -0.5645    0.6086 C   0  0  0  0  0  0  0  0  0  0  0  0
   -3.6746   -0.4591   -0.4468 C   0  0  0  0  0  0  0  0  0  0  0  0
   -4.3415   -0.4904   -2.0845 S   0  0  0  0  0  0  0  0  0  0  0  0
   -2.8854   -0.8728   -3.0197 C   0  0  0  0  0  0  0  0  0  0  0  0
   -3.0977   -1.3253   -4.3361 C   0  0  0  0  0  0  0  0  0  0  0  0
   -2.0283   -1.5792   -5.1892 C   0  0  0  0  0  0  0  0  0  0  0  0
   -0.7354   -1.3718   -4.7354 C   0  0  0  0  0  0  0  0  0  0  0  0
   -0.5175   -0.9189   -3.4302 C   0  0  0  0  0  0  0  0  0  0  0  0
   -1.5820   -0.6725   -2.5359 C   0  0  0  0  0  0  0  0  0  0  0  0
    2.1980    0.7741    2.5204 C   0  0  0  0  0  0  0  0  0  0  0  0
    3.4034    0.0007    2.2335 C   0  0  0  0  0  0  0  0  0  0  0  0
    4.1247   -0.0122    0.9184 C   0  0  0  0  0  0  0  0  0  0  0  0
    4.8295   -2.5515    2.8410 H   0  0  0  0  0  0  0  0  0  0  0  0
    5.8960   -1.1617    3.1347 H   0  0  0  0  0  0  0  0  0  0  0  0
    5.1409   -1.9968    4.4948 H   0  0  0  0  0  0  0  0  0  0  0  0
   -0.8457    2.3879    4.0907 H   0  0  0  0  0  0  0  0  0  0  0  0
   -0.6938    2.0804   -0.0067 H   0  0  0  0  0  0  0  0  0  0  0  0
   -0.9313    2.2949   -2.4536 H   0  0  0  0  0  0  0  0  0  0  0  0
    0.1707    3.5330   -1.8592 H   0  0  0  0  0  0  0  0  0  0  0  0
    0.8023    2.0867   -2.6835 H   0  0  0  0  0  0  0  0  0  0  0  0
   -0.8599   -0.2630    1.4562 H   0  0  0  0  0  0  0  0  0  0  0  0
   -2.4853   -0.4316    3.2517 H   0  0  0  0  0  0  0  0  0  0  0  0
   -4.9070   -0.6373    2.7408 H   0  0  0  0  0  0  0  0  0  0  0  0
   -5.6630   -0.6699    0.3989 H   0  0  0  0  0  0  0  0  0  0  0  0
   -4.1094   -1.4734   -4.7106 H   0  0  0  0  0  0  0  0  0  0  0  0
   -2.2064   -1.9295   -6.2034 H   0  0  0  0  0  0  0  0  0  0  0  0
    0.1111   -1.5649   -5.3902 H   0  0  0  0  0  0  0  0  0  0  0  0
    0.5199   -0.7892   -3.1307 H   0  0  0  0  0  0  0  0  0  0  0  0
    4.9866   -0.6856    0.9310 H   0  0  0  0  0  0  0  0  0  0  0  0
    3.4631   -0.3595    0.1200 H   0  0  0  0  0  0  0  0  0  0  0  0
    4.4986    0.9878    0.6744 H   0  0  0  0  0  0  0  0  0  0  0  0
  1  2  1  0
  2  3  1  0
  3  4  1  0
  4  5  2  0
  5  6  1  0
  6  7  2  0
  7  8  1  0
  8  9  1  0
  9 10  1  0
 10 11  1  0
 10 12  1  0
 12 13  2  0
 12 14  1  0
 14 15  1  0
 15 16  2  0
 16 17  1  0
 17 18  2  0
 18 19  1  0
 19 20  2  0
 20 21  1  0
 21 22  1  0
 22 23  2  0
 23 24  1  0
 24 25  2  0
 25 26  1  0
 26 27  2  0
  8 28  2  0
 28 29  1  0
 29 30  1  0
 29  2  2  0
 28  4  1  0
 27 14  1  0
 20 15  1  0
 27 22  1  0
  1 31  1  0
  1 32  1  0
  1 33  1  0
  6 34  1  0
 10 35  1  0
 11 36  1  0
 11 37  1  0
 11 38  1  0
 16 39  1  0
 17 40  1  0
 18 41  1  0
 19 42  1  0
 23 43  1  0
 24 44  1  0
 25 45  1  0
 26 46  1  0
 30 47  1  0
 30 48  1  0
 30 49  1  0
M  END
$$$$
