
     RDKit          3D

 54 57  0  0  0  0  0  0  0  0999 V2000
   -3.4732   -3.4026   -2.4329 C   0  0  0  0  0  0  0  0  0  0  0  0
   -2.7686   -2.2287   -2.8220 O   0  0  0  0  0  0  0  0  0  0  0  0
   -2.4445   -1.3443   -1.8305 C   0  0  0  0  0  0  0  0  0  0  0  0
   -1.7647   -0.2018   -2.2689 C   0  0  0  0  0  0  0  0  0  0  0  0
   -1.3642    0.7827   -1.3631 C   0  0  0  0  0  0  0  0  0  0  0  0
   -1.6258    0.6068   -0.0042 C   0  0  0  0  0  0  0  0  0  0  0  0
   -1.2366    1.6403    0.9816 C   0  0  0  0  0  0  0  0  0  0  0  0
   -2.1953    2.3263    1.5198 N   0  0  0  0  0  0  0  0  0  0  0  0
   -1.8768    3.3144    2.4551 C   0  0  0  0  0  0  0  0  0  0  0  0
   -2.9078    4.0831    3.0016 C   0  0  0  0  0  0  0  0  0  0  0  0
   -2.6329    5.0755    3.9467 C   0  0  0  0  0  0  0  0  0  0  0  0
   -1.3195    5.3057    4.3556 C   0  0  0  0  0  0  0  0  0  0  0  0
   -0.2825    4.5446    3.8167 C   0  0  0  0  0  0  0  0  0  0  0  0
   -0.5708    3.5556    2.8681 C   0  0  0  0  0  0  0  0  0  0  0  0
    0.4951    2.7264    2.2832 C   0  0  0  0  0  0  0  0  0  0  0  0
    1.6479    2.8510    2.6923 O   0  0  0  0  0  0  0  0  0  0  0  0
    0.1100    1.8130    1.2999 N   0  0  0  0  0  0  0  0  0  0  0  0
    1.1826    0.9619    0.7682 C   0  0  0  0  0  0  0  0  0  0  0  0
    1.3930   -0.3061    1.6079 C   0  0  0  0  0  0  0  0  0  0  0  0
    2.4950   -1.0922    1.1359 O   0  0  0  0  0  0  0  0  0  0  0  0
    2.3380   -1.6604   -0.1011 C   0  0  0  0  0  0  0  0  0  0  0  0
    1.1712   -2.3201   -0.4926 C   0  0  0  0  0  0  0  0  0  0  0  0
    1.0710   -2.8684   -1.7733 C   0  0  0  0  0  0  0  0  0  0  0  0
    2.1447   -2.7891   -2.6653 C   0  0  0  0  0  0  0  0  0  0  0  0
    2.0260   -3.3440   -4.0542 C   0  0  0  0  0  0  0  0  0  0  0  0
    3.3206   -2.1435   -2.2603 C   0  0  0  0  0  0  0  0  0  0  0  0
    3.4339   -1.5894   -0.9760 C   0  0  0  0  0  0  0  0  0  0  0  0
    4.7060   -0.9032   -0.5635 C   0  0  0  0  0  0  0  0  0  0  0  0
   -2.3291   -0.5152    0.4421 C   0  0  0  0  0  0  0  0  0  0  0  0
   -2.7321   -1.4940   -0.4719 C   0  0  0  0  0  0  0  0  0  0  0  0
   -3.6655   -3.9922   -3.3350 H   0  0  0  0  0  0  0  0  0  0  0  0
   -2.8690   -4.0174   -1.7564 H   0  0  0  0  0  0  0  0  0  0  0  0
   -4.4421   -3.1539   -1.9863 H   0  0  0  0  0  0  0  0  0  0  0  0
   -1.5504   -0.0778   -3.3283 H   0  0  0  0  0  0  0  0  0  0  0  0
   -0.8562    1.6739   -1.7209 H   0  0  0  0  0  0  0  0  0  0  0  0
   -3.9327    3.9038    2.6854 H   0  0  0  0  0  0  0  0  0  0  0  0
   -3.4456    5.6660    4.3633 H   0  0  0  0  0  0  0  0  0  0  0  0
   -1.1041    6.0759    5.0922 H   0  0  0  0  0  0  0  0  0  0  0  0
    0.7431    4.7191    4.1344 H   0  0  0  0  0  0  0  0  0  0  0  0
    2.1220    1.5288    0.7390 H   0  0  0  0  0  0  0  0  0  0  0  0
    0.9804    0.7056   -0.2731 H   0  0  0  0  0  0  0  0  0  0  0  0
    1.6472   -0.0153    2.6341 H   0  0  0  0  0  0  0  0  0  0  0  0
    0.4807   -0.9053    1.6963 H   0  0  0  0  0  0  0  0  0  0  0  0
    0.3295   -2.4331    0.1840 H   0  0  0  0  0  0  0  0  0  0  0  0
    0.1466   -3.3612   -2.0678 H   0  0  0  0  0  0  0  0  0  0  0  0
    1.7208   -2.5539   -4.7482 H   0  0  0  0  0  0  0  0  0  0  0  0
    1.2871   -4.1517   -4.0931 H   0  0  0  0  0  0  0  0  0  0  0  0
    2.9823   -3.7619   -4.3879 H   0  0  0  0  0  0  0  0  0  0  0  0
    4.1578   -2.0735   -2.9527 H   0  0  0  0  0  0  0  0  0  0  0  0
    5.1069   -1.3585    0.3482 H   0  0  0  0  0  0  0  0  0  0  0  0
    5.4754   -0.9849   -1.3385 H   0  0  0  0  0  0  0  0  0  0  0  0
    4.5207    0.1619   -0.3880 H   0  0  0  0  0  0  0  0  0  0  0  0
   -2.5719   -0.6242    1.4963 H   0  0  0  0  0  0  0  0  0  0  0  0
   -3.2735   -2.3544   -0.0916 H   0  0  0  0  0  0  0  0  0  0  0  0
  1  2  1  0
  2  3  1  0
  3  4  2  0
  4  5  1  0
  5  6  2  0
  6  7  1  0
  7  8  2  0
  8  9  1  0
  9 10  2  0
 10 11  1  0
 11 12  2  0
 12 13  1  0
 13 14  2  0
 14 15  1  0
 15 16  2  0
 15 17  1  0
 17 18  1  0
 18 19  1  0
 19 20  1  0
 20 21  1  0
 21 22  2  0
 22 23  1  0
 23 24  2  0
 24 25  1  0
 24 26  1  0
 26 27  2  0
 27 28  1  0
  6 29  1  0
 29 30  2  0
 30  3  1  0
 17  7  1  0
 27 21  1  0
 14  9  1  0
  1 31  1  0
  1 32  1  0
  1 33  1  0
  4 34  1  0
  5 35  1  0
 10 36  1  0
 11 37  1  0
 12 38  1  0
 13 39  1  0
 18 40  1  0
 18 41  1  0
 19 42  1  0
 19 43  1  0
 22 44  1  0
 23 45  1  0
 25 46  1  0
 25 47  1  0
 25 48  1  0
 26 49  1  0
 28 50  1  0
 28 51  1  0
 28 52  1  0
 29 53  1  0
 30 54  1  0
M  END
$$$$
