
     RDKit          3D

 29 30  0  0  0  0  0  0  0  0999 V2000
    4.0934    0.4060   -1.2395 C   0  0  0  0  0  0  0  0  0  0  0  0
    2.7597   -0.0598   -0.6837 C   0  0  0  0  0  0  0  0  0  0  0  0
    2.8863   -0.2512    0.7587 N   0  0  0  0  0  0  0  0  0  0  0  0
    1.8339   -1.2841    1.5597 S   0  0  0  0  0  6  0  0  0  0  0  0
    2.1018   -1.1205    2.9716 O   0  0  0  0  0  0  0  0  0  0  0  0
    1.8951   -2.5762    0.9144 O   0  0  0  0  0  0  0  0  0  0  0  0
    0.2509   -0.5567    1.2194 C   0  0  0  0  0  0  0  0  0  0  0  0
   -0.1804    0.5354    1.9966 C   0  0  0  0  0  0  0  0  0  0  0  0
   -1.4211    1.1232    1.7460 C   0  0  0  0  0  0  0  0  0  0  0  0
   -2.2059    0.5843    0.7394 C   0  0  0  0  0  0  0  0  0  0  0  0
   -1.7875   -0.5157   -0.0079 C   0  0  0  0  0  0  0  0  0  0  0  0
   -0.5526   -1.0948    0.2083 C   0  0  0  0  0  0  0  0  0  0  0  0
   -2.7083   -0.9068   -1.0114 N   0  0  0  0  0  0  0  0  0  0  0  0
   -3.9113   -0.1049   -0.6995 C   0  0  0  0  0  0  0  0  0  0  0  0
   -3.5205    1.0575    0.2290 C   0  0  0  0  0  0  0  0  0  0  0  0
    4.4049    1.3489   -0.7774 H   0  0  0  0  0  0  0  0  0  0  0  0
    4.0232    0.5616   -2.3204 H   0  0  0  0  0  0  0  0  0  0  0  0
    4.8778   -0.3344   -1.0494 H   0  0  0  0  0  0  0  0  0  0  0  0
    1.9974    0.6991   -0.8855 H   0  0  0  0  0  0  0  0  0  0  0  0
    2.4700   -0.9911   -1.1796 H   0  0  0  0  0  0  0  0  0  0  0  0
    3.2287    0.5155    1.3343 H   0  0  0  0  0  0  0  0  0  0  0  0
    0.4491    0.9269    2.7932 H   0  0  0  0  0  0  0  0  0  0  0  0
   -1.7577    1.9775    2.3249 H   0  0  0  0  0  0  0  0  0  0  0  0
   -0.2336   -1.9509   -0.3779 H   0  0  0  0  0  0  0  0  0  0  0  0
   -2.3182   -0.6786   -1.9247 H   0  0  0  0  0  0  0  0  0  0  0  0
   -4.3863    0.2586   -1.6172 H   0  0  0  0  0  0  0  0  0  0  0  0
   -4.6358   -0.7567   -0.1948 H   0  0  0  0  0  0  0  0  0  0  0  0
   -3.3949    1.9854   -0.3384 H   0  0  0  0  0  0  0  0  0  0  0  0
   -4.2581    1.2024    1.0232 H   0  0  0  0  0  0  0  0  0  0  0  0
  1  2  1  0
  2  3  1  0
  3  4  1  0
  4  5  2  0
  4  6  2  0
  4  7  1  0
  7  8  2  0
  8  9  1  0
  9 10  2  0
 10 11  1  0
 11 12  2  0
 11 13  1  0
 13 14  1  0
 14 15  1  0
 12  7  1  0
 15 10  1  0
  1 16  1  0
  1 17  1  0
  1 18  1  0
  2 19  1  0
  2 20  1  0
  3 21  1  0
  8 22  1  0
  9 23  1  0
 12 24  1  0
 13 25  1  0
 14 26  1  0
 14 27  1  0
 15 28  1  0
 15 29  1  0
M  END
$$$$
