
     RDKit          3D

 52 54  0  0  0  0  0  0  0  0999 V2000
    6.1904   -0.9798   -1.4610 C   0  0  0  0  0  0  0  0  0  0  0  0
    4.8872   -0.6208   -0.8020 C   0  0  0  0  0  0  0  0  0  0  0  0
    3.7457   -0.3924   -1.5817 C   0  0  0  0  0  0  0  0  0  0  0  0
    2.5254   -0.0485   -0.9903 C   0  0  0  0  0  0  0  0  0  0  0  0
    1.3233    0.2088   -1.8522 C   0  0  0  0  0  0  0  0  0  0  0  0
    2.4708    0.0987    0.4030 C   0  0  0  0  0  0  0  0  0  0  0  0
    1.2768    0.4504    0.9811 O   0  0  0  0  0  0  0  0  0  0  0  0
    1.2315    1.8575    1.2539 C   0  0  0  0  0  0  0  0  0  0  0  0
   -0.0697    2.4914    0.7535 C   0  0  0  0  0  0  0  0  0  0  0  0
   -0.1820    3.7134    0.6696 O   0  0  0  0  0  0  0  0  0  0  0  0
   -1.0400    1.5563    0.4659 N   0  0  0  0  0  0  0  0  0  0  0  0
   -2.3442    1.7405   -0.0276 C   0  0  0  0  0  0  0  0  0  0  0  0
   -2.9136    2.9902   -0.2727 C   0  0  0  0  0  0  0  0  0  0  0  0
   -4.2091    3.0760   -0.7857 C   0  0  0  0  0  0  0  0  0  0  0  0
   -4.9385    1.9182   -1.0523 C   0  0  0  0  0  0  0  0  0  0  0  0
   -4.3742    0.6644   -0.8075 C   0  0  0  0  0  0  0  0  0  0  0  0
   -3.0741    0.5533   -0.2944 C   0  0  0  0  0  0  0  0  0  0  0  0
   -2.4705   -0.6931   -0.0042 N   0  0  0  0  0  0  0  0  0  0  0  0
   -2.5722   -1.7313   -1.0545 C   0  0  0  0  0  0  0  0  0  0  0  0
   -3.5065   -2.8772   -0.6373 C   0  0  0  0  0  0  0  0  0  0  0  0
   -3.1306   -3.5177    0.5910 O   0  0  0  0  0  0  0  0  0  0  0  0
   -2.4369   -2.6435    1.4990 C   0  0  0  0  0  0  0  0  0  0  0  0
   -2.8439   -1.1735    1.3478 C   0  0  0  0  0  0  0  0  0  0  0  0
    3.5959   -0.1549    1.2075 C   0  0  0  0  0  0  0  0  0  0  0  0
    3.5322   -0.0438    2.7021 C   0  0  0  0  0  0  0  0  0  0  0  0
    4.8056   -0.4909    0.5880 C   0  0  0  0  0  0  0  0  0  0  0  0
    6.9067   -1.3812   -0.7360 H   0  0  0  0  0  0  0  0  0  0  0  0
    6.0305   -1.7535   -2.2216 H   0  0  0  0  0  0  0  0  0  0  0  0
    6.6313   -0.0949   -1.9304 H   0  0  0  0  0  0  0  0  0  0  0  0
    3.8130   -0.4828   -2.6636 H   0  0  0  0  0  0  0  0  0  0  0  0
    0.4477   -0.3139   -1.4560 H   0  0  0  0  0  0  0  0  0  0  0  0
    1.4776   -0.1522   -2.8738 H   0  0  0  0  0  0  0  0  0  0  0  0
    1.1192    1.2815   -1.8978 H   0  0  0  0  0  0  0  0  0  0  0  0
    2.0669    2.4104    0.8070 H   0  0  0  0  0  0  0  0  0  0  0  0
    1.2563    1.9850    2.3426 H   0  0  0  0  0  0  0  0  0  0  0  0
   -0.7695    0.5730    0.5292 H   0  0  0  0  0  0  0  0  0  0  0  0
   -2.3693    3.9083   -0.0782 H   0  0  0  0  0  0  0  0  0  0  0  0
   -4.6489    4.0535   -0.9752 H   0  0  0  0  0  0  0  0  0  0  0  0
   -5.9514    1.9954   -1.4448 H   0  0  0  0  0  0  0  0  0  0  0  0
   -4.9691   -0.2200   -1.0054 H   0  0  0  0  0  0  0  0  0  0  0  0
   -2.8770   -1.3178   -2.0228 H   0  0  0  0  0  0  0  0  0  0  0  0
   -1.5614   -2.1354   -1.1917 H   0  0  0  0  0  0  0  0  0  0  0  0
   -3.5208   -3.6487   -1.4133 H   0  0  0  0  0  0  0  0  0  0  0  0
   -4.5360   -2.5206   -0.5191 H   0  0  0  0  0  0  0  0  0  0  0  0
   -1.3639   -2.7686    1.3273 H   0  0  0  0  0  0  0  0  0  0  0  0
   -2.6496   -2.9898    2.5127 H   0  0  0  0  0  0  0  0  0  0  0  0
   -3.9261   -1.0904    1.5018 H   0  0  0  0  0  0  0  0  0  0  0  0
   -2.3345   -0.5736    2.1097 H   0  0  0  0  0  0  0  0  0  0  0  0
    2.6579   -0.5808    3.0928 H   0  0  0  0  0  0  0  0  0  0  0  0
    4.4187   -0.4838    3.1704 H   0  0  0  0  0  0  0  0  0  0  0  0
    3.4793    1.0086    3.0021 H   0  0  0  0  0  0  0  0  0  0  0  0
    5.6938   -0.6593    1.1950 H   0  0  0  0  0  0  0  0  0  0  0  0
  1  2  1  0
  2  3  2  0
  3  4  1  0
  4  5  1  0
  4  6  2  0
  6  7  1  0
  7  8  1  0
  8  9  1  0
  9 10  2  0
  9 11  1  0
 11 12  1  0
 12 13  2  0
 13 14  1  0
 14 15  2  0
 15 16  1  0
 16 17  2  0
 17 18  1  0
 18 19  1  0
 19 20  1  0
 20 21  1  0
 21 22  1  0
 22 23  1  0
  6 24  1  0
 24 25  1  0
 24 26  2  0
 26  2  1  0
 17 12  1  0
 23 18  1  0
  1 27  1  0
  1 28  1  0
  1 29  1  0
  3 30  1  0
  5 31  1  0
  5 32  1  0
  5 33  1  0
  8 34  1  0
  8 35  1  0
 11 36  1  0
 13 37  1  0
 14 38  1  0
 15 39  1  0
 16 40  1  0
 19 41  1  0
 19 42  1  0
 20 43  1  0
 20 44  1  0
 22 45  1  0
 22 46  1  0
 23 47  1  0
 23 48  1  0
 25 49  1  0
 25 50  1  0
 25 51  1  0
 26 52  1  0
M  END
$$$$
