
     RDKit          3D

 72 77  0  0  0  0  0  0  0  0999 V2000
   -5.2216   -0.0625    1.6209 O   0  0  0  0  0  0  0  0  0  0  0  0
   -4.4355   -0.2713    0.6915 C   0  0  0  0  0  0  0  0  0  0  0  0
   -4.9189   -0.8160   -0.6769 C   0  0  0  0  0  0  0  0  0  0  0  0
   -5.9438   -1.9430   -0.5197 C   0  0  0  0  0  0  0  0  0  0  0  0
   -5.5699   -3.2719   -0.7928 C   0  0  0  0  0  0  0  0  0  0  0  0
   -6.4839   -4.3182   -0.6446 C   0  0  0  0  0  0  0  0  0  0  0  0
   -7.7832   -4.0537   -0.2187 C   0  0  0  0  0  0  0  0  0  0  0  0
   -8.1694   -2.7430    0.0609 C   0  0  0  0  0  0  0  0  0  0  0  0
   -7.2564   -1.6945   -0.0873 C   0  0  0  0  0  0  0  0  0  0  0  0
   -5.3763    0.2840   -1.6387 C   0  0  0  0  0  0  0  0  0  0  0  0
   -5.9551    1.4833   -1.1908 C   0  0  0  0  0  0  0  0  0  0  0  0
   -6.3610    2.4633   -2.1003 C   0  0  0  0  0  0  0  0  0  0  0  0
   -6.2029    2.2558   -3.4704 C   0  0  0  0  0  0  0  0  0  0  0  0
   -5.6469    1.0653   -3.9329 C   0  0  0  0  0  0  0  0  0  0  0  0
   -5.2400    0.0854   -3.0256 C   0  0  0  0  0  0  0  0  0  0  0  0
   -3.0770   -0.0012    0.8444 N   0  0  0  0  0  0  0  0  0  0  0  0
   -2.0780   -0.0651   -0.2257 C   0  0  0  0  0  0  0  0  0  0  0  0
   -0.7877    0.7071    0.1141 C   0  0  0  0  0  0  0  0  0  0  0  0
   -0.1538    0.3566    1.4030 N   0  0  0  0  0  0  0  0  0  0  0  0
    0.9391   -0.6227    1.2598 C   0  0  0  0  0  0  0  0  0  0  0  0
    2.2353   -0.0805    0.6170 C   0  0  0  0  0  0  0  0  0  0  0  0
    3.1333   -1.1965    0.4824 O   0  0  0  0  0  0  0  0  0  0  0  0
    2.8594    1.0486    1.4650 C   0  0  0  0  0  0  0  0  0  0  0  0
    3.9061    1.7475    0.7290 N   0  0  0  0  0  0  0  0  0  0  0  0
    5.2067    1.3275    0.6032 C   0  0  0  0  0  0  0  0  0  0  0  0
    5.5361    0.1380    1.0354 N   0  0  0  0  0  0  0  0  0  0  0  0
    6.8713   -0.3091    0.9317 C   0  0  0  0  0  0  0  0  0  0  0  0
    7.1820   -1.5848    1.4076 C   0  0  0  0  0  0  0  0  0  0  0  0
    8.4897   -2.0721    1.3387 C   0  0  0  0  0  0  0  0  0  0  0  0
    9.5030   -1.2833    0.7918 C   0  0  0  0  0  0  0  0  0  0  0  0
    9.2148   -0.0073    0.3046 C   0  0  0  0  0  0  0  0  0  0  0  0
    7.9019    0.4660    0.3781 C   0  0  0  0  0  0  0  0  0  0  0  0
    7.5228    1.7324   -0.0971 N   0  0  0  0  0  0  0  0  0  0  0  0
    8.2818    2.7100   -0.6971 C   0  0  0  0  0  0  0  0  0  0  0  0
    7.4555    3.7671   -1.0073 C   0  0  0  0  0  0  0  0  0  0  0  0
    6.1520    3.4239   -0.5738 C   0  0  0  0  0  0  0  0  0  0  0  0
    6.2187    2.1638   -0.0076 C   0  0  0  0  0  0  0  0  0  0  0  0
   -1.1498   -0.1386    2.3863 C   0  0  0  0  0  0  0  0  0  0  0  0
   -2.5751    0.3951    2.1616 C   0  0  0  0  0  0  0  0  0  0  0  0
   -4.0455   -1.2824   -1.1501 H   0  0  0  0  0  0  0  0  0  0  0  0
   -4.5598   -3.5087   -1.1208 H   0  0  0  0  0  0  0  0  0  0  0  0
   -6.1787   -5.3406   -0.8577 H   0  0  0  0  0  0  0  0  0  0  0  0
   -8.4933   -4.8693   -0.1000 H   0  0  0  0  0  0  0  0  0  0  0  0
   -9.1806   -2.5337    0.4015 H   0  0  0  0  0  0  0  0  0  0  0  0
   -7.5752   -0.6819    0.1513 H   0  0  0  0  0  0  0  0  0  0  0  0
   -6.1054    1.6669   -0.1266 H   0  0  0  0  0  0  0  0  0  0  0  0
   -6.8059    3.3874   -1.7371 H   0  0  0  0  0  0  0  0  0  0  0  0
   -6.5235    3.0180   -4.1757 H   0  0  0  0  0  0  0  0  0  0  0  0
   -5.5356    0.8943   -5.0014 H   0  0  0  0  0  0  0  0  0  0  0  0
   -4.8215   -0.8437   -3.4091 H   0  0  0  0  0  0  0  0  0  0  0  0
   -2.5078    0.3434   -1.1452 H   0  0  0  0  0  0  0  0  0  0  0  0
   -1.8486   -1.1245   -0.3954 H   0  0  0  0  0  0  0  0  0  0  0  0
   -0.0904    0.6230   -0.7245 H   0  0  0  0  0  0  0  0  0  0  0  0
   -1.0413    1.7734    0.1706 H   0  0  0  0  0  0  0  0  0  0  0  0
    1.2165   -1.0040    2.2539 H   0  0  0  0  0  0  0  0  0  0  0  0
    0.5956   -1.5033    0.6999 H   0  0  0  0  0  0  0  0  0  0  0  0
    2.0400    0.2823   -0.3980 H   0  0  0  0  0  0  0  0  0  0  0  0
    4.0449   -0.8374    0.5810 H   0  0  0  0  0  0  0  0  0  0  0  0
    2.0990    1.7904    1.7304 H   0  0  0  0  0  0  0  0  0  0  0  0
    3.2693    0.6484    2.4017 H   0  0  0  0  0  0  0  0  0  0  0  0
    3.6529    2.6477    0.3328 H   0  0  0  0  0  0  0  0  0  0  0  0
    6.3968   -2.2011    1.8380 H   0  0  0  0  0  0  0  0  0  0  0  0
    8.7148   -3.0671    1.7160 H   0  0  0  0  0  0  0  0  0  0  0  0
   10.5200   -1.6652    0.7471 H   0  0  0  0  0  0  0  0  0  0  0  0
   10.0192    0.5850   -0.1188 H   0  0  0  0  0  0  0  0  0  0  0  0
    9.3419    2.5863   -0.8646 H   0  0  0  0  0  0  0  0  0  0  0  0
    7.7610    4.6858   -1.4924 H   0  0  0  0  0  0  0  0  0  0  0  0
    5.2659    4.0360   -0.6678 H   0  0  0  0  0  0  0  0  0  0  0  0
   -1.2049   -1.2361    2.3475 H   0  0  0  0  0  0  0  0  0  0  0  0
   -0.8141    0.1369    3.3917 H   0  0  0  0  0  0  0  0  0  0  0  0
   -3.2348    0.0182    2.9504 H   0  0  0  0  0  0  0  0  0  0  0  0
   -2.5938    1.4900    2.2072 H   0  0  0  0  0  0  0  0  0  0  0  0
  1  2  2  0
  2  3  1  0
  3  4  1  0
  4  5  2  0
  5  6  1  0
  6  7  2  0
  7  8  1  0
  8  9  2  0
  3 10  1  0
 10 11  2  0
 11 12  1  0
 12 13  2  0
 13 14  1  0
 14 15  2  0
  2 16  1  0
 16 17  1  0
 17 18  1  0
 18 19  1  0
 19 20  1  0
 20 21  1  0
 21 22  1  0
 21 23  1  0
 23 24  1  0
 24 25  1  0
 25 26  2  0
 26 27  1  0
 27 28  2  0
 28 29  1  0
 29 30  2  0
 30 31  1  0
 31 32  2  0
 32 33  1  0
 33 34  1  0
 34 35  2  0
 35 36  1  0
 36 37  2  0
 19 38  1  0
 38 39  1  0
  9  4  1  0
 15 10  1  0
 39 16  1  0
 37 25  1  0
 32 27  1  0
 37 33  1  0
  3 40  1  0
  5 41  1  0
  6 42  1  0
  7 43  1  0
  8 44  1  0
  9 45  1  0
 11 46  1  0
 12 47  1  0
 13 48  1  0
 14 49  1  0
 15 50  1  0
 17 51  1  0
 17 52  1  0
 18 53  1  0
 18 54  1  0
 20 55  1  0
 20 56  1  0
 21 57  1  0
 22 58  1  0
 23 59  1  0
 23 60  1  0
 24 61  1  0
 28 62  1  0
 29 63  1  0
 30 64  1  0
 31 65  1  0
 34 66  1  0
 35 67  1  0
 36 68  1  0
 38 69  1  0
 38 70  1  0
 39 71  1  0
 39 72  1  0
M  END
$$$$
