
     RDKit          3D

 52 54  0  0  0  0  0  0  0  0999 V2000
    6.0772   -2.0588    0.5217 C   0  0  0  0  0  0  0  0  0  0  0  0
    4.8120   -1.2614    0.3936 C   0  0  0  0  0  0  0  0  0  0  0  0
    3.6456   -1.6658    1.0546 C   0  0  0  0  0  0  0  0  0  0  0  0
    2.4542   -0.9400    0.9210 C   0  0  0  0  0  0  0  0  0  0  0  0
    1.2182   -1.3913    1.6449 C   0  0  0  0  0  0  0  0  0  0  0  0
    2.4546    0.2181    0.1271 C   0  0  0  0  0  0  0  0  0  0  0  0
    1.2924    0.9370    0.0082 O   0  0  0  0  0  0  0  0  0  0  0  0
    1.2587    2.0005    0.9690 C   0  0  0  0  0  0  0  0  0  0  0  0
   -0.1810    2.4230    1.2750 C   0  0  0  0  0  0  0  0  0  0  0  0
   -0.4131    3.4325    1.9357 O   0  0  0  0  0  0  0  0  0  0  0  0
   -1.1125    1.5524    0.7579 N   0  0  0  0  0  0  0  0  0  0  0  0
   -2.5159    1.5853    0.8404 C   0  0  0  0  0  0  0  0  0  0  0  0
   -3.2302    2.5638    1.5314 C   0  0  0  0  0  0  0  0  0  0  0  0
   -4.6246    2.5148    1.5648 C   0  0  0  0  0  0  0  0  0  0  0  0
   -5.3064    1.4945    0.9055 C   0  0  0  0  0  0  0  0  0  0  0  0
   -4.5973    0.5121    0.2110 C   0  0  0  0  0  0  0  0  0  0  0  0
   -3.1963    0.5343    0.1740 C   0  0  0  0  0  0  0  0  0  0  0  0
   -2.4334   -0.4211   -0.5354 N   0  0  0  0  0  0  0  0  0  0  0  0
   -2.7536   -1.8368   -0.2548 C   0  0  0  0  0  0  0  0  0  0  0  0
   -2.0450   -2.7295   -1.2851 C   0  0  0  0  0  0  0  0  0  0  0  0
   -2.4896   -2.4994   -2.6328 O   0  0  0  0  0  0  0  0  0  0  0  0
   -2.9891   -1.1696   -2.8494 C   0  0  0  0  0  0  0  0  0  0  0  0
   -2.3044   -0.1036   -1.9800 C   0  0  0  0  0  0  0  0  0  0  0  0
    3.5914    0.6045   -0.5972 C   0  0  0  0  0  0  0  0  0  0  0  0
    3.5891    1.8055   -1.4988 C   0  0  0  0  0  0  0  0  0  0  0  0
    4.7712   -0.1369   -0.4402 C   0  0  0  0  0  0  0  0  0  0  0  0
    6.9486   -1.3966    0.5500 H   0  0  0  0  0  0  0  0  0  0  0  0
    6.1761   -2.7439   -0.3253 H   0  0  0  0  0  0  0  0  0  0  0  0
    6.0839   -2.6423    1.4480 H   0  0  0  0  0  0  0  0  0  0  0  0
    3.6664   -2.5570    1.6790 H   0  0  0  0  0  0  0  0  0  0  0  0
    0.3545   -1.3867    0.9718 H   0  0  0  0  0  0  0  0  0  0  0  0
    1.3277   -2.4150    2.0198 H   0  0  0  0  0  0  0  0  0  0  0  0
    1.0178   -0.7354    2.4978 H   0  0  0  0  0  0  0  0  0  0  0  0
    1.7196    1.7114    1.9217 H   0  0  0  0  0  0  0  0  0  0  0  0
    1.7761    2.8716    0.5526 H   0  0  0  0  0  0  0  0  0  0  0  0
   -0.7579    0.7613    0.2201 H   0  0  0  0  0  0  0  0  0  0  0  0
   -2.7274    3.3720    2.0524 H   0  0  0  0  0  0  0  0  0  0  0  0
   -5.1767    3.2794    2.1047 H   0  0  0  0  0  0  0  0  0  0  0  0
   -6.3928    1.4662    0.9276 H   0  0  0  0  0  0  0  0  0  0  0  0
   -5.1562   -0.2564   -0.3133 H   0  0  0  0  0  0  0  0  0  0  0  0
   -2.4103   -2.0919    0.7539 H   0  0  0  0  0  0  0  0  0  0  0  0
   -3.8310   -2.0290   -0.3114 H   0  0  0  0  0  0  0  0  0  0  0  0
   -0.9616   -2.5630   -1.2591 H   0  0  0  0  0  0  0  0  0  0  0  0
   -2.2219   -3.7851   -1.0573 H   0  0  0  0  0  0  0  0  0  0  0  0
   -2.8476   -0.9358   -3.9094 H   0  0  0  0  0  0  0  0  0  0  0  0
   -4.0689   -1.1841   -2.6611 H   0  0  0  0  0  0  0  0  0  0  0  0
   -2.7012    0.8894   -2.2254 H   0  0  0  0  0  0  0  0  0  0  0  0
   -1.2324   -0.0906   -2.2111 H   0  0  0  0  0  0  0  0  0  0  0  0
    3.8069    2.7095   -0.9224 H   0  0  0  0  0  0  0  0  0  0  0  0
    4.3438    1.7048   -2.2861 H   0  0  0  0  0  0  0  0  0  0  0  0
    2.6230    1.9226   -2.0003 H   0  0  0  0  0  0  0  0  0  0  0  0
    5.6692    0.1604   -0.9792 H   0  0  0  0  0  0  0  0  0  0  0  0
  1  2  1  0
  2  3  2  0
  3  4  1  0
  4  5  1  0
  4  6  2  0
  6  7  1  0
  7  8  1  0
  8  9  1  0
  9 10  2  0
  9 11  1  0
 11 12  1  0
 12 13  2  0
 13 14  1  0
 14 15  2  0
 15 16  1  0
 16 17  2  0
 17 18  1  0
 18 19  1  0
 19 20  1  0
 20 21  1  0
 21 22  1  0
 22 23  1  0
  6 24  1  0
 24 25  1  0
 24 26  2  0
 26  2  1  0
 17 12  1  0
 23 18  1  0
  1 27  1  0
  1 28  1  0
  1 29  1  0
  3 30  1  0
  5 31  1  0
  5 32  1  0
  5 33  1  0
  8 34  1  0
  8 35  1  0
 11 36  1  0
 13 37  1  0
 14 38  1  0
 15 39  1  0
 16 40  1  0
 19 41  1  0
 19 42  1  0
 20 43  1  0
 20 44  1  0
 22 45  1  0
 22 46  1  0
 23 47  1  0
 23 48  1  0
 25 49  1  0
 25 50  1  0
 25 51  1  0
 26 52  1  0
M  END
$$$$
