
     RDKit          3D

 41 42  0  0  0  0  0  0  0  0999 V2000
   -0.0945    4.4626    1.3579 C   0  0  0  0  0  0  0  0  0  0  0  0
    1.0223    3.4378    1.3945 C   0  0  0  0  0  0  0  0  0  0  0  0
    0.5475    2.2429    0.7567 O   0  0  0  0  0  0  0  0  0  0  0  0
    1.4654    1.2116    0.7294 C   0  0  0  0  0  0  0  0  0  0  0  0
    2.5917    1.3248    1.1921 O   0  0  0  0  0  0  0  0  0  0  0  0
    0.8627   -0.0277    0.0019 C   0  0  0  0  0  0  0  0  0  0  0  0
   -0.6190    0.1565    0.0032 N   0  0  0  0  0  0  0  0  0  0  0  0
   -1.4731   -0.7165   -0.6213 C   0  0  0  0  0  0  0  0  0  0  0  0
   -1.1079   -1.8209   -1.0029 O   0  0  0  0  0  0  0  0  0  0  0  0
   -2.8767   -0.2672   -0.8175 C   0  0  0  0  0  0  0  0  0  0  0  0
   -3.6125   -0.8345   -1.8672 C   0  0  0  0  0  0  0  0  0  0  0  0
   -4.9333   -0.4431   -2.0931 C   0  0  0  0  0  0  0  0  0  0  0  0
   -5.5261    0.5104   -1.2661 C   0  0  0  0  0  0  0  0  0  0  0  0
   -4.7983    1.0620   -0.2124 C   0  0  0  0  0  0  0  0  0  0  0  0
   -5.5373    2.2280    0.8154 Cl  0  0  0  0  0  0  0  0  0  0  0  0
   -3.4780    0.6779    0.0220 C   0  0  0  0  0  0  0  0  0  0  0  0
    1.0435   -1.2749    0.7718 N   0  0  0  0  0  0  0  0  0  0  0  0
    2.2500   -1.8924    0.7770 C   0  0  0  0  0  0  0  0  0  0  0  0
    3.4141   -1.3561    0.4955 N   0  0  0  0  0  0  0  0  0  0  0  0
    4.4547   -2.2592    0.5577 N   0  0  0  0  0  0  0  0  0  0  0  0
    4.0434   -3.4606    0.8958 C   0  0  0  0  0  0  0  0  0  0  0  0
    4.9198   -4.6472    1.0524 C   0  0  0  0  0  0  0  0  0  0  0  0
    2.3517   -3.5737    1.1514 S   0  0  0  0  0  0  0  0  0  0  0  0
    1.4684    0.0389   -1.4386 C   0  0  0  0  0  0  0  0  0  0  0  0
    2.7756    0.3675   -1.4871 F   0  0  0  0  0  0  0  0  0  0  0  0
    0.8159    0.9923   -2.1677 F   0  0  0  0  0  0  0  0  0  0  0  0
    1.3212   -1.1234   -2.1195 F   0  0  0  0  0  0  0  0  0  0  0  0
    0.2158    5.3956    1.8364 H   0  0  0  0  0  0  0  0  0  0  0  0
   -0.3881    4.6752    0.3247 H   0  0  0  0  0  0  0  0  0  0  0  0
   -0.9846    4.0811    1.8691 H   0  0  0  0  0  0  0  0  0  0  0  0
    1.2913    3.2200    2.4340 H   0  0  0  0  0  0  0  0  0  0  0  0
    1.8955    3.8217    0.8556 H   0  0  0  0  0  0  0  0  0  0  0  0
   -0.9037    1.1258    0.0930 H   0  0  0  0  0  0  0  0  0  0  0  0
   -3.1566   -1.5823   -2.5150 H   0  0  0  0  0  0  0  0  0  0  0  0
   -5.4984   -0.8831   -2.9116 H   0  0  0  0  0  0  0  0  0  0  0  0
   -6.5555    0.8127   -1.4432 H   0  0  0  0  0  0  0  0  0  0  0  0
   -2.9467    1.0992    0.8699 H   0  0  0  0  0  0  0  0  0  0  0  0
    0.2808   -1.9187    0.5604 H   0  0  0  0  0  0  0  0  0  0  0  0
    4.6349   -5.4374    0.3505 H   0  0  0  0  0  0  0  0  0  0  0  0
    5.9633   -4.3819    0.8546 H   0  0  0  0  0  0  0  0  0  0  0  0
    4.8609   -5.0439    2.0708 H   0  0  0  0  0  0  0  0  0  0  0  0
  1  2  1  0
  2  3  1  0
  3  4  1  0
  4  5  2  0
  4  6  1  0
  6  7  1  0
  7  8  1  0
  8  9  2  0
  8 10  1  0
 10 11  2  0
 11 12  1  0
 12 13  2  0
 13 14  1  0
 14 15  1  0
 14 16  2  0
  6 17  1  0
 17 18  1  0
 18 19  2  0
 19 20  1  0
 20 21  2  0
 21 22  1  0
 21 23  1  0
  6 24  1  0
 24 25  1  0
 24 26  1  0
 24 27  1  0
 16 10  1  0
 23 18  1  0
  1 28  1  0
  1 29  1  0
  1 30  1  0
  2 31  1  0
  2 32  1  0
  7 33  1  0
 11 34  1  0
 12 35  1  0
 13 36  1  0
 16 37  1  0
 17 38  1  0
 22 39  1  0
 22 40  1  0
 22 41  1  0
M  END
$$$$
