
     RDKit          3D

 22 22  0  0  0  0  0  0  0  0999 V2000
    2.9947    0.7695   -1.1587 N   0  0  0  0  0  0  0  0  0  0  0  0
    2.4011   -0.3165   -0.8211 C   0  0  0  0  0  0  0  0  0  0  0  0
    2.6269   -0.9407    0.3497 N   0  0  0  0  0  0  0  0  0  0  0  0
    1.2372   -1.0295   -1.8845 S   0  0  0  0  0  0  0  0  0  0  0  0
   -0.1003    0.1896   -1.7645 C   0  0  0  0  0  0  0  0  0  0  0  0
   -0.7794    0.1088   -0.4318 C   0  0  0  0  0  0  0  0  0  0  0  0
   -1.7287   -0.7847   -0.1012 C   0  0  0  0  0  0  0  0  0  0  0  0
   -2.2628   -0.7295    1.2967 C   0  0  0  0  0  0  0  0  0  0  0  0
   -1.1931    0.4569    2.1031 S   0  0  0  0  0  6  0  0  0  0  0  0
   -2.0040    1.4938    2.7101 O   0  0  0  0  0  0  0  0  0  0  0  0
   -0.1902   -0.2702    2.8614 O   0  0  0  0  0  0  0  0  0  0  0  0
   -0.4125    1.1087    0.6319 C   0  0  0  0  0  0  0  0  0  0  0  0
    2.6948    1.0098   -2.1086 H   0  0  0  0  0  0  0  0  0  0  0  0
    1.8888   -1.5304    0.7111 H   0  0  0  0  0  0  0  0  0  0  0  0
    3.0975   -0.3715    1.0430 H   0  0  0  0  0  0  0  0  0  0  0  0
   -0.8212   -0.0329   -2.5592 H   0  0  0  0  0  0  0  0  0  0  0  0
    0.2730    1.2004   -1.9591 H   0  0  0  0  0  0  0  0  0  0  0  0
   -2.0867   -1.5444   -0.7886 H   0  0  0  0  0  0  0  0  0  0  0  0
   -2.1730   -1.6903    1.8071 H   0  0  0  0  0  0  0  0  0  0  0  0
   -3.2918   -0.3653    1.3169 H   0  0  0  0  0  0  0  0  0  0  0  0
    0.6602    1.1747    0.8160 H   0  0  0  0  0  0  0  0  0  0  0  0
   -0.8305    2.0936    0.4110 H   0  0  0  0  0  0  0  0  0  0  0  0
  1  2  2  3
  2  3  1  0
  2  4  1  0
  4  5  1  0
  5  6  1  0
  6  7  2  0
  7  8  1  0
  8  9  1  0
  9 10  2  0
  9 11  2  0
  9 12  1  0
 12  6  1  0
  1 13  1  0
  3 14  1  0
  3 15  1  0
  5 16  1  0
  5 17  1  0
  7 18  1  0
  8 19  1  0
  8 20  1  0
 12 21  1  0
 12 22  1  0
M  END
$$$$
