
     RDKit          3D

 32 34  0  0  0  0  0  0  0  0999 V2000
   -0.1819    1.2940   -2.6820 O   0  0  0  0  0  0  0  0  0  0  0  0
   -0.5974    1.6110   -1.5719 C   0  0  0  0  0  0  0  0  0  0  0  0
   -1.9808    2.2530   -1.4151 C   0  0  0  0  0  0  0  0  0  0  0  0
   -2.5689    2.0790   -0.1317 O   0  0  0  0  0  0  0  0  0  0  0  0
   -3.1831    0.8865    0.1376 C   0  0  0  0  0  0  0  0  0  0  0  0
   -3.2033   -0.2383   -0.6894 C   0  0  0  0  0  0  0  0  0  0  0  0
   -3.8603   -1.4025   -0.2745 C   0  0  0  0  0  0  0  0  0  0  0  0
   -4.4939   -1.4415    0.9657 C   0  0  0  0  0  0  0  0  0  0  0  0
   -5.3793   -3.0160    1.5201 Br  0  0  0  0  0  0  0  0  0  0  0  0
   -4.4765   -0.3267    1.7983 C   0  0  0  0  0  0  0  0  0  0  0  0
   -3.8197    0.8334    1.3817 C   0  0  0  0  0  0  0  0  0  0  0  0
    0.0631    1.4935   -0.3705 N   0  0  0  0  0  0  0  0  0  0  0  0
    1.3137    0.9770   -0.1547 C   0  0  0  0  0  0  0  0  0  0  0  0
    1.8286    0.8724    1.0515 N   0  0  0  0  0  0  0  0  0  0  0  0
    3.0995    0.3291    1.0294 N   0  0  0  0  0  0  0  0  0  0  0  0
    3.4773    0.0454   -0.1969 C   0  0  0  0  0  0  0  0  0  0  0  0
    4.8729   -0.5723   -0.5165 C   0  0  0  0  0  0  0  0  0  0  0  0
    4.9572   -2.0013   -0.9903 C   0  0  0  0  0  0  0  0  0  0  0  0
    5.4277   -1.6427    0.3888 C   0  0  0  0  0  0  0  0  0  0  0  0
    2.3344    0.4310   -1.4058 S   0  0  0  0  0  0  0  0  0  0  0  0
   -2.6512    1.9171   -2.2146 H   0  0  0  0  0  0  0  0  0  0  0  0
   -1.8397    3.3308   -1.5569 H   0  0  0  0  0  0  0  0  0  0  0  0
   -2.7190   -0.2567   -1.6608 H   0  0  0  0  0  0  0  0  0  0  0  0
   -3.8690   -2.2725   -0.9268 H   0  0  0  0  0  0  0  0  0  0  0  0
   -4.9667   -0.3477    2.7679 H   0  0  0  0  0  0  0  0  0  0  0  0
   -3.8078    1.7036    2.0344 H   0  0  0  0  0  0  0  0  0  0  0  0
   -0.4314    1.7532    0.4757 H   0  0  0  0  0  0  0  0  0  0  0  0
    5.5827    0.1362   -0.9297 H   0  0  0  0  0  0  0  0  0  0  0  0
    4.0443   -2.5801   -1.0758 H   0  0  0  0  0  0  0  0  0  0  0  0
    5.7053   -2.2429   -1.7365 H   0  0  0  0  0  0  0  0  0  0  0  0
    4.8290   -1.9672    1.2332 H   0  0  0  0  0  0  0  0  0  0  0  0
    6.4942   -1.6378    0.5811 H   0  0  0  0  0  0  0  0  0  0  0  0
  1  2  2  0
  2  3  1  0
  3  4  1  0
  4  5  1  0
  5  6  2  0
  6  7  1  0
  7  8  2  0
  8  9  1  0
  8 10  1  0
 10 11  2  0
  2 12  1  0
 12 13  1  0
 13 14  2  0
 14 15  1  0
 15 16  2  0
 16 17  1  0
 17 18  1  0
 18 19  1  0
 16 20  1  0
 11  5  1  0
 20 13  1  0
 19 17  1  0
  3 21  1  0
  3 22  1  0
  6 23  1  0
  7 24  1  0
 10 25  1  0
 11 26  1  0
 12 27  1  0
 17 28  1  0
 18 29  1  0
 18 30  1  0
 19 31  1  0
 19 32  1  0
M  END
$$$$
