
     RDKit          3D

 63 66  0  0  0  0  0  0  0  0999 V2000
    2.7216   -0.0715   -3.2444 C   0  0  0  0  0  0  0  0  0  0  0  0
    2.9459    0.0862   -1.7674 C   0  0  0  0  0  0  0  0  0  0  0  0
    2.2204   -0.6269   -0.9521 N   0  0  0  0  0  0  0  0  0  0  0  0
    2.3857   -0.5295    0.4337 N   0  0  0  0  0  0  0  0  0  0  0  0
    1.5069   -1.3765    1.2360 C   0  0  0  0  0  0  0  0  0  0  0  0
    0.2264   -0.6466    1.6179 C   0  0  0  0  0  0  0  0  0  0  0  0
   -0.6867   -1.5388    2.4258 C   0  0  0  0  0  0  0  0  0  0  0  0
   -0.4345   -2.7100    2.6863 O   0  0  0  0  0  0  0  0  0  0  0  0
   -1.8344   -0.8948    2.8358 N   0  0  0  0  0  0  0  0  0  0  0  0
   -2.9003   -1.5993    3.5117 C   0  0  0  0  0  0  0  0  0  0  0  0
   -3.9728   -2.0066    2.5340 C   0  0  0  0  0  0  0  0  0  0  0  0
   -5.0996   -1.2017    2.3206 C   0  0  0  0  0  0  0  0  0  0  0  0
   -6.0811   -1.5757    1.3933 C   0  0  0  0  0  0  0  0  0  0  0  0
   -5.9440   -2.7538    0.6604 C   0  0  0  0  0  0  0  0  0  0  0  0
   -6.8205   -3.2427   -0.2662 O   0  0  0  0  0  0  0  0  0  0  0  0
   -7.9188   -2.4288   -0.6895 C   0  0  0  0  0  0  0  0  0  0  0  0
   -9.1279   -2.6803    0.2072 C   0  0  0  0  0  0  0  0  0  0  0  0
   -8.2377   -2.8409   -2.1248 C   0  0  0  0  0  0  0  0  0  0  0  0
   -4.8195   -3.5563    0.8695 C   0  0  0  0  0  0  0  0  0  0  0  0
   -3.8388   -3.1867    1.7926 C   0  0  0  0  0  0  0  0  0  0  0  0
    3.2653    0.3585    1.0859 C   0  0  0  0  0  0  0  0  0  0  0  0
    3.3324    0.4721    2.3074 O   0  0  0  0  0  0  0  0  0  0  0  0
    4.0760    1.1307    0.1536 C   0  0  0  0  0  0  0  0  0  0  0  0
    5.0341    2.0039    0.4717 N   0  0  0  0  0  0  0  0  0  0  0  0
    5.4577    2.5155   -0.7160 N   0  0  0  0  0  0  0  0  0  0  0  0
    6.3525    3.6314   -0.6955 C   0  0  0  0  0  0  0  0  0  0  0  0
    7.0377    3.9289    0.4970 C   0  0  0  0  0  0  0  0  0  0  0  0
    7.9207    5.0100    0.5634 C   0  0  0  0  0  0  0  0  0  0  0  0
    8.1174    5.8159   -0.5551 C   0  0  0  0  0  0  0  0  0  0  0  0
    7.4240    5.5476   -1.7333 C   0  0  0  0  0  0  0  0  0  0  0  0
    6.5401    4.4642   -1.8054 C   0  0  0  0  0  0  0  0  0  0  0  0
    4.8958    1.8141   -1.7906 C   0  0  0  0  0  0  0  0  0  0  0  0
    5.3444    1.9264   -3.2024 C   0  0  0  0  0  0  0  0  0  0  0  0
    3.9307    0.9935   -1.2302 C   0  0  0  0  0  0  0  0  0  0  0  0
    3.5418   -0.6499   -3.6776 H   0  0  0  0  0  0  0  0  0  0  0  0
    2.6644    0.9070   -3.7285 H   0  0  0  0  0  0  0  0  0  0  0  0
    1.7852   -0.6054   -3.4303 H   0  0  0  0  0  0  0  0  0  0  0  0
    2.0471   -1.6915    2.1373 H   0  0  0  0  0  0  0  0  0  0  0  0
    1.2856   -2.2848    0.6608 H   0  0  0  0  0  0  0  0  0  0  0  0
    0.4571    0.2484    2.2078 H   0  0  0  0  0  0  0  0  0  0  0  0
   -0.3093   -0.3267    0.7158 H   0  0  0  0  0  0  0  0  0  0  0  0
   -2.0499    0.0121    2.4452 H   0  0  0  0  0  0  0  0  0  0  0  0
   -2.5120   -2.4783    4.0398 H   0  0  0  0  0  0  0  0  0  0  0  0
   -3.3111   -0.9212    4.2686 H   0  0  0  0  0  0  0  0  0  0  0  0
   -5.2273   -0.2769    2.8794 H   0  0  0  0  0  0  0  0  0  0  0  0
   -6.9429   -0.9269    1.2799 H   0  0  0  0  0  0  0  0  0  0  0  0
   -7.6551   -1.3647   -0.7094 H   0  0  0  0  0  0  0  0  0  0  0  0
   -8.9187   -2.3959    1.2433 H   0  0  0  0  0  0  0  0  0  0  0  0
   -9.9996   -2.1129   -0.1351 H   0  0  0  0  0  0  0  0  0  0  0  0
   -9.3892   -3.7452    0.2238 H   0  0  0  0  0  0  0  0  0  0  0  0
   -8.4696   -3.9115   -2.1862 H   0  0  0  0  0  0  0  0  0  0  0  0
   -9.0839   -2.2733   -2.5241 H   0  0  0  0  0  0  0  0  0  0  0  0
   -7.3677   -2.6702   -2.7701 H   0  0  0  0  0  0  0  0  0  0  0  0
   -4.7022   -4.4792    0.3054 H   0  0  0  0  0  0  0  0  0  0  0  0
   -2.9659   -3.8242    1.9287 H   0  0  0  0  0  0  0  0  0  0  0  0
    6.9044    3.3151    1.3879 H   0  0  0  0  0  0  0  0  0  0  0  0
    8.4523    5.2185    1.4896 H   0  0  0  0  0  0  0  0  0  0  0  0
    8.8034    6.6580   -0.5035 H   0  0  0  0  0  0  0  0  0  0  0  0
    7.5632    6.1912   -2.5990 H   0  0  0  0  0  0  0  0  0  0  0  0
    5.9892    4.3364   -2.7288 H   0  0  0  0  0  0  0  0  0  0  0  0
    4.7666    2.6890   -3.7335 H   0  0  0  0  0  0  0  0  0  0  0  0
    6.4117    2.1541   -3.2762 H   0  0  0  0  0  0  0  0  0  0  0  0
    5.2135    0.9772   -3.7310 H   0  0  0  0  0  0  0  0  0  0  0  0
  1  2  1  0
  2  3  2  0
  3  4  1  0
  4  5  1  0
  5  6  1  0
  6  7  1  0
  7  8  2  0
  7  9  1  0
  9 10  1  0
 10 11  1  0
 11 12  2  0
 12 13  1  0
 13 14  2  0
 14 15  1  0
 15 16  1  0
 16 17  1  0
 16 18  1  0
 14 19  1  0
 19 20  2  0
  4 21  1  0
 21 22  2  0
 21 23  1  0
 23 24  2  0
 24 25  1  0
 25 26  1  0
 26 27  2  0
 27 28  1  0
 28 29  2  0
 29 30  1  0
 30 31  2  0
 25 32  1  0
 32 33  1  0
 32 34  2  0
 34  2  1  0
 20 11  1  0
 34 23  1  0
 31 26  1  0
  1 35  1  0
  1 36  1  0
  1 37  1  0
  5 38  1  0
  5 39  1  0
  6 40  1  0
  6 41  1  0
  9 42  1  0
 10 43  1  0
 10 44  1  0
 12 45  1  0
 13 46  1  0
 16 47  1  0
 17 48  1  0
 17 49  1  0
 17 50  1  0
 18 51  1  0
 18 52  1  0
 18 53  1  0
 19 54  1  0
 20 55  1  0
 27 56  1  0
 28 57  1  0
 29 58  1  0
 30 59  1  0
 31 60  1  0
 33 61  1  0
 33 62  1  0
 33 63  1  0
M  END
$$$$
