
     RDKit          3D

 52 55  0  0  0  0  0  0  0  0999 V2000
    6.1029   -0.0061    0.7227 C   0  0  0  0  0  0  0  0  0  0  0  0
    5.3139    1.1706    0.5677 O   0  0  0  0  0  0  0  0  0  0  0  0
    4.0828    1.0088   -0.0040 C   0  0  0  0  0  0  0  0  0  0  0  0
    3.4294    2.1949   -0.3394 C   0  0  0  0  0  0  0  0  0  0  0  0
    2.1593    2.1736   -0.9299 C   0  0  0  0  0  0  0  0  0  0  0  0
    1.5250    0.9609   -1.1934 C   0  0  0  0  0  0  0  0  0  0  0  0
    0.2329    0.8473   -1.7488 N   0  0  0  0  0  0  0  0  0  0  0  0
   -0.5810    1.8864   -2.1843 C   0  0  0  0  0  0  0  0  0  0  0  0
   -0.2490    3.0609   -2.3185 O   0  0  0  0  0  0  0  0  0  0  0  0
   -2.0061    1.4402   -2.4778 C   0  0  0  0  0  0  0  0  0  0  0  0
   -3.1286    1.8364   -1.0994 S   0  0  0  0  0  0  0  0  0  0  0  0
   -2.1768    1.1969    0.2356 C   0  0  0  0  0  0  0  0  0  0  0  0
   -1.5154    2.0809    0.9147 N   0  0  0  0  0  0  0  0  0  0  0  0
   -0.6510    1.6035    1.8557 C   0  0  0  0  0  0  0  0  0  0  0  0
   -0.4643    0.3163    2.1425 C   0  0  0  0  0  0  0  0  0  0  0  0
   -1.2556   -0.7066    1.4306 C   0  0  0  0  0  0  0  0  0  0  0  0
   -1.1552   -1.8964    1.7252 O   0  0  0  0  0  0  0  0  0  0  0  0
   -2.1124   -0.1819    0.4506 N   0  0  0  0  0  0  0  0  0  0  0  0
   -2.9411   -1.1103   -0.2504 C   0  0  0  0  0  0  0  0  0  0  0  0
   -4.3355   -1.0430   -0.1131 C   0  0  0  0  0  0  0  0  0  0  0  0
   -5.1546   -1.9475   -0.7902 C   0  0  0  0  0  0  0  0  0  0  0  0
   -4.5899   -2.9219   -1.6116 C   0  0  0  0  0  0  0  0  0  0  0  0
   -3.2041   -3.0021   -1.7526 C   0  0  0  0  0  0  0  0  0  0  0  0
   -2.3774   -2.1116   -1.0611 C   0  0  0  0  0  0  0  0  0  0  0  0
   -1.0149   -2.1128   -1.2537 O   0  0  0  0  0  0  0  0  0  0  0  0
   -0.4503   -3.4063   -1.0134 C   0  0  0  0  0  0  0  0  0  0  0  0
    0.7484   -0.0187    3.3056 S   0  0  0  0  0  0  0  0  0  0  0  0
    0.9361    1.7549    3.7126 C   0  0  0  0  0  0  0  0  0  0  0  0
    0.2498    2.5461    2.5937 C   0  0  0  0  0  0  0  0  0  0  0  0
    2.1823   -0.2269   -0.8496 C   0  0  0  0  0  0  0  0  0  0  0  0
    3.4494   -0.2060   -0.2558 C   0  0  0  0  0  0  0  0  0  0  0  0
    7.0914    0.3002    1.0811 H   0  0  0  0  0  0  0  0  0  0  0  0
    6.2422   -0.5222   -0.2373 H   0  0  0  0  0  0  0  0  0  0  0  0
    5.6670   -0.6728    1.4766 H   0  0  0  0  0  0  0  0  0  0  0  0
    3.9087    3.1513   -0.1420 H   0  0  0  0  0  0  0  0  0  0  0  0
    1.6915    3.1278   -1.1557 H   0  0  0  0  0  0  0  0  0  0  0  0
   -0.1368   -0.0992   -1.8072 H   0  0  0  0  0  0  0  0  0  0  0  0
   -2.0425    0.3704   -2.6978 H   0  0  0  0  0  0  0  0  0  0  0  0
   -2.3504    1.9583   -3.3790 H   0  0  0  0  0  0  0  0  0  0  0  0
   -4.7959   -0.2972    0.5320 H   0  0  0  0  0  0  0  0  0  0  0  0
   -6.2354   -1.8878   -0.6797 H   0  0  0  0  0  0  0  0  0  0  0  0
   -5.2308   -3.6171   -2.1480 H   0  0  0  0  0  0  0  0  0  0  0  0
   -2.7859   -3.7483   -2.4220 H   0  0  0  0  0  0  0  0  0  0  0  0
   -0.5186   -4.0224   -1.9154 H   0  0  0  0  0  0  0  0  0  0  0  0
   -0.9183   -3.9154   -0.1633 H   0  0  0  0  0  0  0  0  0  0  0  0
    0.6094   -3.2720   -0.7807 H   0  0  0  0  0  0  0  0  0  0  0  0
    0.4486    1.9429    4.6733 H   0  0  0  0  0  0  0  0  0  0  0  0
    1.9936    2.0213    3.8024 H   0  0  0  0  0  0  0  0  0  0  0  0
    1.0004    2.9578    1.9064 H   0  0  0  0  0  0  0  0  0  0  0  0
   -0.3097    3.3900    3.0151 H   0  0  0  0  0  0  0  0  0  0  0  0
    1.7160   -1.1903   -1.0319 H   0  0  0  0  0  0  0  0  0  0  0  0
    3.9069   -1.1556    0.0030 H   0  0  0  0  0  0  0  0  0  0  0  0
  1  2  1  0
  2  3  1  0
  3  4  2  0
  4  5  1  0
  5  6  2  0
  6  7  1  0
  7  8  1  0
  8  9  2  0
  8 10  1  0
 10 11  1  0
 11 12  1  0
 12 13  2  0
 13 14  1  0
 14 15  2  0
 15 16  1  0
 16 17  2  0
 16 18  1  0
 18 19  1  0
 19 20  2  0
 20 21  1  0
 21 22  2  0
 22 23  1  0
 23 24  2  0
 24 25  1  0
 25 26  1  0
 15 27  1  0
 27 28  1  0
 28 29  1  0
  6 30  1  0
 30 31  2  0
 31  3  1  0
 18 12  1  0
 24 19  1  0
 29 14  1  0
  1 32  1  0
  1 33  1  0
  1 34  1  0
  4 35  1  0
  5 36  1  0
  7 37  1  0
 10 38  1  0
 10 39  1  0
 20 40  1  0
 21 41  1  0
 22 42  1  0
 23 43  1  0
 26 44  1  0
 26 45  1  0
 26 46  1  0
 28 47  1  0
 28 48  1  0
 29 49  1  0
 29 50  1  0
 30 51  1  0
 31 52  1  0
M  END
$$$$
