
     RDKit          3D

 51 55  0  0  0  0  0  0  0  0999 V2000
   -0.8543    1.7438    0.5318 C   0  0  0  0  0  0  0  0  0  0  0  0
   -1.2652    0.7091   -0.4905 C   0  0  0  0  0  0  0  0  0  0  0  0
   -0.2241   -0.1031   -0.9337 N   0  0  0  0  0  0  0  0  0  0  0  0
   -0.4214   -1.0964   -1.8338 C   0  0  0  0  0  0  0  0  0  0  0  0
    0.3842   -2.0492   -2.4224 C   0  0  0  0  0  0  0  0  0  0  0  0
    1.8076   -2.2779   -2.2802 C   0  0  0  0  0  0  0  0  0  0  0  0
    2.3335   -3.3343   -2.6098 O   0  0  0  0  0  0  0  0  0  0  0  0
    2.5119   -1.2095   -1.7750 N   0  0  0  0  0  0  0  0  0  0  0  0
    3.9474   -1.2523   -1.6307 C   0  0  0  0  0  0  0  0  0  0  0  0
    4.3771   -0.3166   -0.5281 C   0  0  0  0  0  0  0  0  0  0  0  0
    5.0650    0.8843   -0.8238 C   0  0  0  0  0  0  0  0  0  0  0  0
    5.4510    1.7610    0.1984 C   0  0  0  0  0  0  0  0  0  0  0  0
    5.1369    1.4163    1.4959 C   0  0  0  0  0  0  0  0  0  0  0  0
    4.4639    0.2556    1.7925 C   0  0  0  0  0  0  0  0  0  0  0  0
    4.0724   -0.6297    0.8090 C   0  0  0  0  0  0  0  0  0  0  0  0
    4.2421    0.1089    3.1273 O   0  0  0  0  0  0  0  0  0  0  0  0
    4.8550    1.3120    3.6388 C   0  0  0  0  0  0  0  0  0  0  0  0
    5.4297    2.1425    2.6089 O   0  0  0  0  0  0  0  0  0  0  0  0
   -0.5175   -2.8044   -3.2114 C   0  0  0  0  0  0  0  0  0  0  0  0
   -1.7691   -2.3392   -3.1808 N   0  0  0  0  0  0  0  0  0  0  0  0
   -1.6984   -1.2841   -2.3265 N   0  0  0  0  0  0  0  0  0  0  0  0
   -2.8116   -0.4996   -1.9846 C   0  0  0  0  0  0  0  0  0  0  0  0
   -3.9036   -0.6869   -2.5091 O   0  0  0  0  0  0  0  0  0  0  0  0
   -2.5350    0.5634   -0.9485 C   0  0  0  0  0  0  0  0  0  0  0  0
   -3.7460    1.3711   -0.5448 C   0  0  0  0  0  0  0  0  0  0  0  0
   -4.5803    0.7019    0.5271 C   0  0  0  0  0  0  0  0  0  0  0  0
   -5.6290   -0.1658    0.1879 C   0  0  0  0  0  0  0  0  0  0  0  0
   -6.3836   -0.7944    1.1854 C   0  0  0  0  0  0  0  0  0  0  0  0
   -6.0997   -0.5681    2.5352 C   0  0  0  0  0  0  0  0  0  0  0  0
   -5.0613    0.2904    2.8856 C   0  0  0  0  0  0  0  0  0  0  0  0
   -4.3135    0.9139    1.8867 C   0  0  0  0  0  0  0  0  0  0  0  0
   -3.3210    1.7376    2.2560 F   0  0  0  0  0  0  0  0  0  0  0  0
   -0.6989    1.2692    1.5079 H   0  0  0  0  0  0  0  0  0  0  0  0
   -1.5779    2.5540    0.6538 H   0  0  0  0  0  0  0  0  0  0  0  0
    0.0875    2.2163    0.2282 H   0  0  0  0  0  0  0  0  0  0  0  0
    0.6217   -0.0689   -0.3623 H   0  0  0  0  0  0  0  0  0  0  0  0
    2.0760   -0.2987   -1.8244 H   0  0  0  0  0  0  0  0  0  0  0  0
    4.2850   -2.2720   -1.4152 H   0  0  0  0  0  0  0  0  0  0  0  0
    4.3850   -0.9586   -2.5923 H   0  0  0  0  0  0  0  0  0  0  0  0
    5.3110    1.1377   -1.8562 H   0  0  0  0  0  0  0  0  0  0  0  0
    5.9880    2.6794   -0.0224 H   0  0  0  0  0  0  0  0  0  0  0  0
    3.5435   -1.5425    1.0707 H   0  0  0  0  0  0  0  0  0  0  0  0
    5.6435    1.0320    4.3474 H   0  0  0  0  0  0  0  0  0  0  0  0
    4.0955    1.8937    4.1714 H   0  0  0  0  0  0  0  0  0  0  0  0
   -0.2969   -3.6733   -3.8223 H   0  0  0  0  0  0  0  0  0  0  0  0
   -4.3738    1.5727   -1.4287 H   0  0  0  0  0  0  0  0  0  0  0  0
   -3.4661    2.3796   -0.2004 H   0  0  0  0  0  0  0  0  0  0  0  0
   -5.8622   -0.3676   -0.8538 H   0  0  0  0  0  0  0  0  0  0  0  0
   -7.1905   -1.4668    0.9082 H   0  0  0  0  0  0  0  0  0  0  0  0
   -6.6865   -1.0623    3.3091 H   0  0  0  0  0  0  0  0  0  0  0  0
   -4.8270    0.4756    3.9312 H   0  0  0  0  0  0  0  0  0  0  0  0
  1  2  1  0
  2  3  1  0
  3  4  1  0
  4  5  2  0
  5  6  1  0
  6  7  2  0
  6  8  1  0
  8  9  1  0
  9 10  1  0
 10 11  2  0
 11 12  1  0
 12 13  2  0
 13 14  1  0
 14 15  2  0
 14 16  1  0
 16 17  1  0
 17 18  1  0
  5 19  1  0
 19 20  2  0
 20 21  1  0
 21 22  1  0
 22 23  2  0
 22 24  1  0
 24 25  1  0
 25 26  1  0
 26 27  2  0
 27 28  1  0
 28 29  2  0
 29 30  1  0
 30 31  2  0
 31 32  1  0
 24  2  2  0
 31 26  1  0
 21  4  1  0
 15 10  1  0
 18 13  1  0
  1 33  1  0
  1 34  1  0
  1 35  1  0
  3 36  1  0
  8 37  1  0
  9 38  1  0
  9 39  1  0
 11 40  1  0
 12 41  1  0
 15 42  1  0
 17 43  1  0
 17 44  1  0
 19 45  1  0
 25 46  1  0
 25 47  1  0
 27 48  1  0
 28 49  1  0
 29 50  1  0
 30 51  1  0
M  END
$$$$
