
     RDKit          3D

 56 60  0  0  0  0  0  0  0  0999 V2000
   -5.5611   -2.7594   -1.7430 C   0  0  0  0  0  0  0  0  0  0  0  0
   -4.1467   -2.4005   -1.3876 C   0  0  0  0  0  0  0  0  0  0  0  0
   -3.2915   -3.4304   -0.9609 C   0  0  0  0  0  0  0  0  0  0  0  0
   -1.9624   -3.1731   -0.6080 C   0  0  0  0  0  0  0  0  0  0  0  0
   -1.4348   -1.8776   -0.6716 C   0  0  0  0  0  0  0  0  0  0  0  0
   -0.0370   -1.6144   -0.2933 C   0  0  0  0  0  0  0  0  0  0  0  0
    0.8634   -2.2979   -1.0364 N   0  0  0  0  0  0  0  0  0  0  0  0
    2.1989   -2.1254   -0.8278 N   0  0  0  0  0  0  0  0  0  0  0  0
    2.6431   -1.2617    0.1094 C   0  0  0  0  0  0  0  0  0  0  0  0
    4.0487   -1.1308    0.1990 N   0  0  0  0  0  0  0  0  0  0  0  0
    4.7898    0.0631   -0.0176 C   0  0  0  0  0  0  0  0  0  0  0  0
    4.2481    1.1900   -0.6762 C   0  0  0  0  0  0  0  0  0  0  0  0
    5.0234    2.3314   -0.9137 C   0  0  0  0  0  0  0  0  0  0  0  0
    6.3362    2.3120   -0.5002 C   0  0  0  0  0  0  0  0  0  0  0  0
    6.8803    1.2137    0.1202 C   0  0  0  0  0  0  0  0  0  0  0  0
    6.1398    0.0764    0.3665 C   0  0  0  0  0  0  0  0  0  0  0  0
    8.1902    1.3940    0.4391 O   0  0  0  0  0  0  0  0  0  0  0  0
    8.4074    2.7331   -0.0528 C   0  0  0  0  0  0  0  0  0  0  0  0
    7.2332    3.3223   -0.6493 O   0  0  0  0  0  0  0  0  0  0  0  0
    1.7492   -0.5648    0.9515 C   0  0  0  0  0  0  0  0  0  0  0  0
    2.1674    0.2814    2.0099 C   0  0  0  0  0  0  0  0  0  0  0  0
    1.2553    0.9511    2.8253 C   0  0  0  0  0  0  0  0  0  0  0  0
   -0.1033    0.7811    2.6166 C   0  0  0  0  0  0  0  0  0  0  0  0
   -0.5449   -0.0606    1.5960 C   0  0  0  0  0  0  0  0  0  0  0  0
    0.3616   -0.7439    0.7426 C   0  0  0  0  0  0  0  0  0  0  0  0
   -2.2756   -0.8517   -1.1264 C   0  0  0  0  0  0  0  0  0  0  0  0
   -3.6223   -1.0990   -1.4591 C   0  0  0  0  0  0  0  0  0  0  0  0
   -4.5727    0.3378   -1.9406 S   0  0  0  0  0  6  0  0  0  0  0  0
   -3.7473    1.1174   -2.8365 O   0  0  0  0  0  0  0  0  0  0  0  0
   -5.9207   -0.0438   -2.2921 O   0  0  0  0  0  0  0  0  0  0  0  0
   -4.6593    1.1986   -0.5007 N   0  0  0  0  0  0  0  0  0  0  0  0
   -5.3252    0.5824    0.6579 C   0  0  0  0  0  0  0  0  0  0  0  0
   -5.3159    1.5868    1.8113 C   0  0  0  0  0  0  0  0  0  0  0  0
   -3.9616    1.8932    2.1577 O   0  0  0  0  0  0  0  0  0  0  0  0
   -5.7667   -2.5212   -2.7908 H   0  0  0  0  0  0  0  0  0  0  0  0
   -6.2657   -2.2445   -1.0832 H   0  0  0  0  0  0  0  0  0  0  0  0
   -5.7438   -3.8333   -1.6226 H   0  0  0  0  0  0  0  0  0  0  0  0
   -3.6527   -4.4564   -0.9003 H   0  0  0  0  0  0  0  0  0  0  0  0
   -1.3313   -4.0007   -0.2851 H   0  0  0  0  0  0  0  0  0  0  0  0
    4.4004   -1.8232   -0.4668 H   0  0  0  0  0  0  0  0  0  0  0  0
    3.2163    1.1881   -1.0201 H   0  0  0  0  0  0  0  0  0  0  0  0
    4.6070    3.1982   -1.4143 H   0  0  0  0  0  0  0  0  0  0  0  0
    6.5936   -0.7779    0.8568 H   0  0  0  0  0  0  0  0  0  0  0  0
    8.7309    3.3651    0.7823 H   0  0  0  0  0  0  0  0  0  0  0  0
    9.2058    2.7058   -0.8032 H   0  0  0  0  0  0  0  0  0  0  0  0
    3.2277    0.4166    2.2167 H   0  0  0  0  0  0  0  0  0  0  0  0
    1.6120    1.5947    3.6254 H   0  0  0  0  0  0  0  0  0  0  0  0
   -0.8246    1.2907    3.2506 H   0  0  0  0  0  0  0  0  0  0  0  0
   -1.6204   -0.1874    1.4864 H   0  0  0  0  0  0  0  0  0  0  0  0
   -1.8766    0.1585   -1.2224 H   0  0  0  0  0  0  0  0  0  0  0  0
   -3.8106    1.7250   -0.2845 H   0  0  0  0  0  0  0  0  0  0  0  0
   -6.3541    0.3096    0.4074 H   0  0  0  0  0  0  0  0  0  0  0  0
   -4.7696   -0.3091    0.9648 H   0  0  0  0  0  0  0  0  0  0  0  0
   -5.8112    1.1648    2.6908 H   0  0  0  0  0  0  0  0  0  0  0  0
   -5.8176    2.5171    1.5250 H   0  0  0  0  0  0  0  0  0  0  0  0
   -4.0028    2.5887    2.8385 H   0  0  0  0  0  0  0  0  0  0  0  0
  1  2  1  0
  2  3  2  0
  3  4  1  0
  4  5  2  0
  5  6  1  0
  6  7  2  0
  7  8  1  0
  8  9  2  0
  9 10  1  0
 10 11  1  0
 11 12  2  0
 12 13  1  0
 13 14  2  0
 14 15  1  0
 15 16  2  0
 15 17  1  0
 17 18  1  0
 18 19  1  0
  9 20  1  0
 20 21  2  0
 21 22  1  0
 22 23  2  0
 23 24  1  0
 24 25  2  0
  5 26  1  0
 26 27  2  0
 27 28  1  0
 28 29  2  0
 28 30  2  0
 28 31  1  0
 31 32  1  0
 32 33  1  0
 33 34  1  0
 27  2  1  0
 25  6  1  0
 16 11  1  0
 25 20  1  0
 19 14  1  0
  1 35  1  0
  1 36  1  0
  1 37  1  0
  3 38  1  0
  4 39  1  0
 10 40  1  0
 12 41  1  0
 13 42  1  0
 16 43  1  0
 18 44  1  0
 18 45  1  0
 21 46  1  0
 22 47  1  0
 23 48  1  0
 24 49  1  0
 26 50  1  0
 31 51  1  0
 32 52  1  0
 32 53  1  0
 33 54  1  0
 33 55  1  0
 34 56  1  0
M  END
$$$$
