
     RDKit          3D

 40 42  0  0  0  0  0  0  0  0999 V2000
   -5.8423   -1.7621    1.3984 C   0  0  0  0  0  0  0  0  0  0  0  0
   -6.0528   -1.3859    0.0422 O   0  0  0  0  0  0  0  0  0  0  0  0
   -4.9317   -1.2224   -0.7307 C   0  0  0  0  0  0  0  0  0  0  0  0
   -3.6132   -1.4424   -0.3292 C   0  0  0  0  0  0  0  0  0  0  0  0
   -2.5552   -1.2262   -1.2282 C   0  0  0  0  0  0  0  0  0  0  0  0
   -1.1618   -1.4623   -0.8337 C   0  0  0  0  0  0  0  0  0  0  0  0
   -0.4767   -0.7820    0.0960 C   0  0  0  0  0  0  0  0  0  0  0  0
   -1.0290    0.5358    1.0661 S   0  0  0  0  0  0  0  0  0  0  0  0
    0.5237    0.7272    1.8695 C   0  0  0  0  0  0  0  0  0  0  0  0
    0.8137    1.8423    3.0775 S   0  0  0  0  0  0  0  0  0  0  0  0
    1.4018   -0.2041    1.3561 N   0  0  0  0  0  0  0  0  0  0  0  0
    2.7538   -0.2681    1.7716 N   0  0  0  0  0  0  0  0  0  0  0  0
    3.6114    0.5390    0.9685 C   0  0  0  0  0  0  0  0  0  0  0  0
    3.1239    1.1121   -0.1631 N   0  0  0  0  0  0  0  0  0  0  0  0
    3.9708    1.8364   -0.9330 C   0  0  0  0  0  0  0  0  0  0  0  0
    5.3117    2.0302   -0.6414 C   0  0  0  0  0  0  0  0  0  0  0  0
    6.1656    2.8679   -1.5419 C   0  0  0  0  0  0  0  0  0  0  0  0
    6.0875    4.1914   -1.2384 F   0  0  0  0  0  0  0  0  0  0  0  0
    5.8197    2.7617   -2.8536 F   0  0  0  0  0  0  0  0  0  0  0  0
    7.4860    2.5445   -1.4760 F   0  0  0  0  0  0  0  0  0  0  0  0
    5.8060    1.4499    0.5298 C   0  0  0  0  0  0  0  0  0  0  0  0
    4.9561    0.6946    1.3378 C   0  0  0  0  0  0  0  0  0  0  0  0
    5.5897   -0.0009    2.7850 Cl  0  0  0  0  0  0  0  0  0  0  0  0
    0.9492   -1.1023    0.4001 C   0  0  0  0  0  0  0  0  0  0  0  0
    1.5597   -2.0317   -0.1115 O   0  0  0  0  0  0  0  0  0  0  0  0
   -2.8274   -0.8097   -2.5378 C   0  0  0  0  0  0  0  0  0  0  0  0
   -4.1424   -0.5925   -2.9459 C   0  0  0  0  0  0  0  0  0  0  0  0
   -5.1760   -0.7990   -2.0421 C   0  0  0  0  0  0  0  0  0  0  0  0
   -6.4581   -0.5783   -2.4668 O   0  0  0  0  0  0  0  0  0  0  0  0
   -5.2521   -1.0090    1.9309 H   0  0  0  0  0  0  0  0  0  0  0  0
   -6.8212   -1.8222    1.8838 H   0  0  0  0  0  0  0  0  0  0  0  0
   -5.3766   -2.7509    1.4646 H   0  0  0  0  0  0  0  0  0  0  0  0
   -3.3829   -1.7852    0.6740 H   0  0  0  0  0  0  0  0  0  0  0  0
   -0.6648   -2.2561   -1.3911 H   0  0  0  0  0  0  0  0  0  0  0  0
    2.8663    0.0018    2.7499 H   0  0  0  0  0  0  0  0  0  0  0  0
    3.5158    2.2667   -1.8241 H   0  0  0  0  0  0  0  0  0  0  0  0
    6.8497    1.5830    0.8087 H   0  0  0  0  0  0  0  0  0  0  0  0
   -2.0194   -0.6468   -3.2476 H   0  0  0  0  0  0  0  0  0  0  0  0
   -4.3608   -0.2657   -3.9580 H   0  0  0  0  0  0  0  0  0  0  0  0
   -7.0178   -0.7787   -1.6915 H   0  0  0  0  0  0  0  0  0  0  0  0
  1  2  1  0
  2  3  1  0
  3  4  2  0
  4  5  1  0
  5  6  1  0
  6  7  2  3
  7  8  1  0
  8  9  1  0
  9 10  2  0
  9 11  1  0
 11 12  1  0
 12 13  1  0
 13 14  2  0
 14 15  1  0
 15 16  2  0
 16 17  1  0
 17 18  1  0
 17 19  1  0
 17 20  1  0
 16 21  1  0
 21 22  2  0
 22 23  1  0
 11 24  1  0
 24 25  2  0
  5 26  2  0
 26 27  1  0
 27 28  2  0
 28 29  1  0
 28  3  1  0
 24  7  1  0
 22 13  1  0
  1 30  1  0
  1 31  1  0
  1 32  1  0
  4 33  1  0
  6 34  1  0
 12 35  1  0
 15 36  1  0
 21 37  1  0
 26 38  1  0
 27 39  1  0
 29 40  1  0
M  END
$$$$
