
     RDKit          3D

 55 57  0  0  0  0  0  0  0  0999 V2000
   -4.5322   -2.5185   -1.2521 C   0  0  0  0  0  0  0  0  0  0  0  0
   -3.8494   -1.4549   -0.6014 O   0  0  0  0  0  0  0  0  0  0  0  0
   -4.6090   -0.4987    0.0308 C   0  0  0  0  0  0  0  0  0  0  0  0
   -6.0095   -0.4950    0.0725 C   0  0  0  0  0  0  0  0  0  0  0  0
   -6.6925    0.5267    0.7453 C   0  0  0  0  0  0  0  0  0  0  0  0
   -8.1843    0.5770    0.8187 C   0  0  0  0  0  0  0  0  0  0  0  0
   -8.9887   -0.5152    0.1636 C   0  0  0  0  0  0  0  0  0  0  0  0
   -8.7354    1.5038    1.4089 O   0  0  0  0  0  0  0  0  0  0  0  0
   -5.9646    1.5437    1.3740 C   0  0  0  0  0  0  0  0  0  0  0  0
   -4.5682    1.5469    1.3368 C   0  0  0  0  0  0  0  0  0  0  0  0
   -3.8847    0.5293    0.6692 C   0  0  0  0  0  0  0  0  0  0  0  0
   -2.5210    0.4421    0.5712 O   0  0  0  0  0  0  0  0  0  0  0  0
   -1.7346    1.4046    1.2674 C   0  0  0  0  0  0  0  0  0  0  0  0
   -0.2455    1.0937    1.0871 C   0  0  0  0  0  0  0  0  0  0  0  0
    0.6122    1.8463    1.5391 O   0  0  0  0  0  0  0  0  0  0  0  0
   -0.0214   -0.0778    0.3854 N   0  0  0  0  0  0  0  0  0  0  0  0
    1.2052   -0.6801    0.0608 C   0  0  0  0  0  0  0  0  0  0  0  0
    1.1563   -1.8227   -0.7433 C   0  0  0  0  0  0  0  0  0  0  0  0
    2.3314   -2.4779   -1.1212 C   0  0  0  0  0  0  0  0  0  0  0  0
    3.5766   -2.0060   -0.6962 C   0  0  0  0  0  0  0  0  0  0  0  0
    4.9591   -2.8776   -1.2498 Cl  0  0  0  0  0  0  0  0  0  0  0  0
    3.6295   -0.8723    0.1162 C   0  0  0  0  0  0  0  0  0  0  0  0
    5.1729   -0.2425    0.7169 S   0  0  0  0  0  6  0  0  0  0  0  0
    5.8906   -1.3415    1.3245 O   0  0  0  0  0  0  0  0  0  0  0  0
    4.9132    0.9609    1.4784 O   0  0  0  0  0  0  0  0  0  0  0  0
    5.9769    0.2336   -0.7040 N   0  0  0  0  0  0  0  0  0  0  0  0
    5.4012    1.3902   -1.4590 C   0  0  0  0  0  0  0  0  0  0  0  0
    5.8950    2.7378   -0.9150 C   0  0  0  0  0  0  0  0  0  0  0  0
    7.3280    2.7931   -0.8694 O   0  0  0  0  0  0  0  0  0  0  0  0
    7.8421    1.7498   -0.0276 C   0  0  0  0  0  0  0  0  0  0  0  0
    7.4603    0.3750   -0.5808 C   0  0  0  0  0  0  0  0  0  0  0  0
    2.4458   -0.2119    0.4956 C   0  0  0  0  0  0  0  0  0  0  0  0
   -5.1157   -3.1085   -0.5377 H   0  0  0  0  0  0  0  0  0  0  0  0
   -5.1615   -2.1437   -2.0659 H   0  0  0  0  0  0  0  0  0  0  0  0
   -3.7789   -3.1792   -1.6918 H   0  0  0  0  0  0  0  0  0  0  0  0
   -6.5708   -1.2816   -0.4160 H   0  0  0  0  0  0  0  0  0  0  0  0
  -10.0539   -0.3250    0.3289 H   0  0  0  0  0  0  0  0  0  0  0  0
   -8.7461   -1.4839    0.6082 H   0  0  0  0  0  0  0  0  0  0  0  0
   -8.8095   -0.5229   -0.9145 H   0  0  0  0  0  0  0  0  0  0  0  0
   -6.4835    2.3451    1.8991 H   0  0  0  0  0  0  0  0  0  0  0  0
   -4.0516    2.3601    1.8368 H   0  0  0  0  0  0  0  0  0  0  0  0
   -1.9115    2.4047    0.8565 H   0  0  0  0  0  0  0  0  0  0  0  0
   -1.9462    1.3690    2.3420 H   0  0  0  0  0  0  0  0  0  0  0  0
   -0.8711   -0.5285    0.0475 H   0  0  0  0  0  0  0  0  0  0  0  0
    0.2042   -2.2166   -1.0930 H   0  0  0  0  0  0  0  0  0  0  0  0
    2.2660   -3.3614   -1.7532 H   0  0  0  0  0  0  0  0  0  0  0  0
    5.7239    1.2790   -2.5019 H   0  0  0  0  0  0  0  0  0  0  0  0
    4.3082    1.3535   -1.4637 H   0  0  0  0  0  0  0  0  0  0  0  0
    5.5580    3.5420   -1.5772 H   0  0  0  0  0  0  0  0  0  0  0  0
    5.4981    2.9545    0.0813 H   0  0  0  0  0  0  0  0  0  0  0  0
    7.4786    1.8961    0.9955 H   0  0  0  0  0  0  0  0  0  0  0  0
    8.9318    1.8504   -0.0102 H   0  0  0  0  0  0  0  0  0  0  0  0
    7.8829   -0.4252    0.0340 H   0  0  0  0  0  0  0  0  0  0  0  0
    7.8791    0.2528   -1.5875 H   0  0  0  0  0  0  0  0  0  0  0  0
    2.5138    0.6605    1.1400 H   0  0  0  0  0  0  0  0  0  0  0  0
  1  2  1  0
  2  3  1  0
  3  4  2  0
  4  5  1  0
  5  6  1  0
  6  7  1  0
  6  8  2  0
  5  9  2  0
  9 10  1  0
 10 11  2  0
 11 12  1  0
 12 13  1  0
 13 14  1  0
 14 15  2  0
 14 16  1  0
 16 17  1  0
 17 18  2  0
 18 19  1  0
 19 20  2  0
 20 21  1  0
 20 22  1  0
 22 23  1  0
 23 24  2  0
 23 25  2  0
 23 26  1  0
 26 27  1  0
 27 28  1  0
 28 29  1  0
 29 30  1  0
 30 31  1  0
 22 32  2  0
 11  3  1  0
 32 17  1  0
 31 26  1  0
  1 33  1  0
  1 34  1  0
  1 35  1  0
  4 36  1  0
  7 37  1  0
  7 38  1  0
  7 39  1  0
  9 40  1  0
 10 41  1  0
 13 42  1  0
 13 43  1  0
 16 44  1  0
 18 45  1  0
 19 46  1  0
 27 47  1  0
 27 48  1  0
 28 49  1  0
 28 50  1  0
 30 51  1  0
 30 52  1  0
 31 53  1  0
 31 54  1  0
 32 55  1  0
M  END
$$$$
