
     RDKit          3D

 62 65  0  0  0  0  0  0  0  0999 V2000
   -3.7026   -2.1612    2.9750 C   0  0  0  0  0  0  0  0  0  0  0  0
   -3.6572   -0.6409    2.9329 C   0  0  0  0  0  0  0  0  0  0  0  0
   -3.5270   -0.1595    1.5616 N   0  0  0  0  0  0  0  0  0  0  0  0
   -2.3537    0.0159    0.8015 C   0  0  0  0  0  0  0  0  0  0  0  0
   -1.1025   -0.1476    1.2807 C   0  0  0  0  0  0  0  0  0  0  0  0
    0.1571    0.0193    0.5882 C   0  0  0  0  0  0  0  0  0  0  0  0
    1.3355   -0.1857    1.1944 C   0  0  0  0  0  0  0  0  0  0  0  0
    2.6160   -0.0463    0.4689 C   0  0  0  0  0  0  0  0  0  0  0  0
    3.0490    0.9980   -0.1765 N   0  0  0  0  0  4  0  0  0  0  0  0
    2.4500    2.3403   -0.3288 C   0  0  0  0  0  0  0  0  0  0  0  0
    1.8721    2.5122   -1.7224 C   0  0  0  0  0  0  0  0  0  0  0  0
    4.3934    0.7153   -0.7168 C   0  0  0  0  0  0  0  0  0  0  0  0
    5.2342    1.5446   -1.4382 C   0  0  0  0  0  0  0  0  0  0  0  0
    6.4691    1.0257   -1.8360 C   0  0  0  0  0  0  0  0  0  0  0  0
    6.8336   -0.2901   -1.5063 C   0  0  0  0  0  0  0  0  0  0  0  0
    5.9732   -1.1089   -0.7714 C   0  0  0  0  0  0  0  0  0  0  0  0
    4.7512   -0.5863   -0.3803 C   0  0  0  0  0  0  0  0  0  0  0  0
    3.6422   -1.2084    0.4213 C   0  0  0  0  0  0  0  0  0  0  0  0
    3.0449   -2.4197   -0.3006 C   0  0  0  0  0  0  0  0  0  0  0  0
    4.1216   -1.5810    1.8273 C   0  0  0  0  0  0  0  0  0  0  0  0
   -2.7775    0.4196   -0.6524 C   0  0  0  0  0  0  0  0  0  0  0  0
   -2.3316    1.8424   -1.0178 C   0  0  0  0  0  0  0  0  0  0  0  0
   -2.3367   -0.6074   -1.7064 C   0  0  0  0  0  0  0  0  0  0  0  0
   -4.2979    0.3888   -0.5423 C   0  0  0  0  0  0  0  0  0  0  0  0
   -5.2506    0.6441   -1.5231 C   0  0  0  0  0  0  0  0  0  0  0  0
   -6.5977    0.5375   -1.1822 C   0  0  0  0  0  0  0  0  0  0  0  0
   -6.9719    0.1804    0.1194 C   0  0  0  0  0  0  0  0  0  0  0  0
   -6.0039   -0.0724    1.0982 C   0  0  0  0  0  0  0  0  0  0  0  0
   -4.6624    0.0348    0.7662 C   0  0  0  0  0  0  0  0  0  0  0  0
   -3.7849   -2.5090    4.0097 H   0  0  0  0  0  0  0  0  0  0  0  0
   -4.5601   -2.5495    2.4170 H   0  0  0  0  0  0  0  0  0  0  0  0
   -2.7963   -2.5971    2.5408 H   0  0  0  0  0  0  0  0  0  0  0  0
   -4.5465   -0.2262    3.4213 H   0  0  0  0  0  0  0  0  0  0  0  0
   -2.8171   -0.2874    3.5411 H   0  0  0  0  0  0  0  0  0  0  0  0
   -1.0070   -0.4404    2.3249 H   0  0  0  0  0  0  0  0  0  0  0  0
    0.1183    0.3024   -0.4553 H   0  0  0  0  0  0  0  0  0  0  0  0
    1.3908   -0.5363    2.2221 H   0  0  0  0  0  0  0  0  0  0  0  0
    1.6659    2.4602    0.4252 H   0  0  0  0  0  0  0  0  0  0  0  0
    3.2176    3.0919   -0.1160 H   0  0  0  0  0  0  0  0  0  0  0  0
    1.1418    1.7333   -1.9623 H   0  0  0  0  0  0  0  0  0  0  0  0
    1.3685    3.4812   -1.8006 H   0  0  0  0  0  0  0  0  0  0  0  0
    2.6473    2.4803   -2.4941 H   0  0  0  0  0  0  0  0  0  0  0  0
    4.9794    2.5655   -1.7029 H   0  0  0  0  0  0  0  0  0  0  0  0
    7.1619    1.6433   -2.4076 H   0  0  0  0  0  0  0  0  0  0  0  0
    7.8022   -0.6738   -1.8258 H   0  0  0  0  0  0  0  0  0  0  0  0
    6.2692   -2.1242   -0.5181 H   0  0  0  0  0  0  0  0  0  0  0  0
    2.2116   -2.8486    0.2671 H   0  0  0  0  0  0  0  0  0  0  0  0
    2.6564   -2.1465   -1.2894 H   0  0  0  0  0  0  0  0  0  0  0  0
    3.7912   -3.2093   -0.4448 H   0  0  0  0  0  0  0  0  0  0  0  0
    3.3124   -2.0177    2.4229 H   0  0  0  0  0  0  0  0  0  0  0  0
    4.4889   -0.7030    2.3719 H   0  0  0  0  0  0  0  0  0  0  0  0
    4.9361   -2.3139    1.7924 H   0  0  0  0  0  0  0  0  0  0  0  0
   -2.6621    2.5719   -0.2687 H   0  0  0  0  0  0  0  0  0  0  0  0
   -1.2452    1.9269   -1.1003 H   0  0  0  0  0  0  0  0  0  0  0  0
   -2.7498    2.1565   -1.9814 H   0  0  0  0  0  0  0  0  0  0  0  0
   -2.6478   -1.6225   -1.4309 H   0  0  0  0  0  0  0  0  0  0  0  0
   -1.2529   -0.6221   -1.8469 H   0  0  0  0  0  0  0  0  0  0  0  0
   -2.7770   -0.3887   -2.6864 H   0  0  0  0  0  0  0  0  0  0  0  0
   -4.9641    0.9174   -2.5333 H   0  0  0  0  0  0  0  0  0  0  0  0
   -7.3645    0.7299   -1.9294 H   0  0  0  0  0  0  0  0  0  0  0  0
   -8.0268    0.0992    0.3718 H   0  0  0  0  0  0  0  0  0  0  0  0
   -6.3269   -0.3472    2.0957 H   0  0  0  0  0  0  0  0  0  0  0  0
  1  2  1  0
  2  3  1  0
  3  4  1  0
  4  5  2  3
  5  6  1  0
  6  7  2  3
  7  8  1  0
  8  9  2  0
  9 10  1  0
 10 11  1  0
  9 12  1  0
 12 13  2  0
 13 14  1  0
 14 15  2  0
 15 16  1  0
 16 17  2  0
 17 18  1  0
 18 19  1  0
 18 20  1  0
  4 21  1  0
 21 22  1  0
 21 23  1  0
 21 24  1  0
 24 25  2  0
 25 26  1  0
 26 27  2  0
 27 28  1  0
 28 29  2  0
 29  3  1  0
 18  8  1  0
 29 24  1  0
 17 12  1  0
  1 30  1  0
  1 31  1  0
  1 32  1  0
  2 33  1  0
  2 34  1  0
  5 35  1  0
  6 36  1  0
  7 37  1  0
 10 38  1  0
 10 39  1  0
 11 40  1  0
 11 41  1  0
 11 42  1  0
 13 43  1  0
 14 44  1  0
 15 45  1  0
 16 46  1  0
 19 47  1  0
 19 48  1  0
 19 49  1  0
 20 50  1  0
 20 51  1  0
 20 52  1  0
 22 53  1  0
 22 54  1  0
 22 55  1  0
 23 56  1  0
 23 57  1  0
 23 58  1  0
 25 59  1  0
 26 60  1  0
 27 61  1  0
 28 62  1  0
M  CHG  1   9   1
M  END
$$$$
