
     RDKit          3D

 35 37  0  0  0  0  0  0  0  0999 V2000
    7.3498    0.1012   -0.0053 C   0  0  0  0  0  0  0  0  0  0  0  0
    6.1768    0.8802   -0.2040 O   0  0  0  0  0  0  0  0  0  0  0  0
    4.9775    0.2487   -0.0268 C   0  0  0  0  0  0  0  0  0  0  0  0
    3.8565    1.0552   -0.2318 C   0  0  0  0  0  0  0  0  0  0  0  0
    2.5654    0.5373   -0.0840 C   0  0  0  0  0  0  0  0  0  0  0  0
    2.3724   -0.8037    0.2731 C   0  0  0  0  0  0  0  0  0  0  0  0
    1.0413   -1.3729    0.4347 C   0  0  0  0  0  0  0  0  0  0  0  0
    0.6713   -2.5944    0.7693 N   0  0  0  0  0  0  0  0  0  0  0  0
   -0.7099   -2.5943    0.7763 N   0  0  0  0  0  0  0  0  0  0  0  0
   -1.0805   -1.3760    0.4483 C   0  0  0  0  0  0  0  0  0  0  0  0
   -2.3656   -0.9325    0.3277 N   0  0  0  0  0  0  0  0  0  0  0  0
   -2.6816    0.3713    0.0335 C   0  0  0  0  0  0  0  0  0  0  0  0
   -1.8943    1.2981   -0.1156 O   0  0  0  0  0  0  0  0  0  0  0  0
   -4.1417    0.6584   -0.0713 C   0  0  0  0  0  0  0  0  0  0  0  0
   -5.0533   -0.2893   -0.5623 C   0  0  0  0  0  0  0  0  0  0  0  0
   -6.4116    0.0296   -0.6440 C   0  0  0  0  0  0  0  0  0  0  0  0
   -6.8501    1.2886   -0.2460 C   0  0  0  0  0  0  0  0  0  0  0  0
   -8.1526    1.5879   -0.3278 F   0  0  0  0  0  0  0  0  0  0  0  0
   -5.9562    2.2422    0.2266 C   0  0  0  0  0  0  0  0  0  0  0  0
   -4.5980    1.9297    0.3097 C   0  0  0  0  0  0  0  0  0  0  0  0
   -0.0269   -0.5467    0.2124 O   0  0  0  0  0  0  0  0  0  0  0  0
    3.5040   -1.6069    0.4775 C   0  0  0  0  0  0  0  0  0  0  0  0
    4.7968   -1.0868    0.3291 C   0  0  0  0  0  0  0  0  0  0  0  0
    7.4125   -0.2621    1.0258 H   0  0  0  0  0  0  0  0  0  0  0  0
    7.3999   -0.7264   -0.7205 H   0  0  0  0  0  0  0  0  0  0  0  0
    8.2146    0.7477   -0.1834 H   0  0  0  0  0  0  0  0  0  0  0  0
    3.9871    2.0987   -0.5094 H   0  0  0  0  0  0  0  0  0  0  0  0
    1.7148    1.1967   -0.2513 H   0  0  0  0  0  0  0  0  0  0  0  0
   -3.0705   -1.6197    0.5447 H   0  0  0  0  0  0  0  0  0  0  0  0
   -4.7257   -1.2636   -0.9140 H   0  0  0  0  0  0  0  0  0  0  0  0
   -7.1303   -0.6896   -1.0258 H   0  0  0  0  0  0  0  0  0  0  0  0
   -6.3191    3.2219    0.5222 H   0  0  0  0  0  0  0  0  0  0  0  0
   -3.8953    2.6784    0.6723 H   0  0  0  0  0  0  0  0  0  0  0  0
    3.3867   -2.6535    0.7564 H   0  0  0  0  0  0  0  0  0  0  0  0
    5.6358   -1.7533    0.4994 H   0  0  0  0  0  0  0  0  0  0  0  0
  1  2  1  0
  2  3  1  0
  3  4  2  0
  4  5  1  0
  5  6  2  0
  6  7  1  0
  7  8  2  0
  8  9  1  0
  9 10  2  0
 10 11  1  0
 11 12  1  0
 12 13  2  0
 12 14  1  0
 14 15  2  0
 15 16  1  0
 16 17  2  0
 17 18  1  0
 17 19  1  0
 19 20  2  0
 10 21  1  0
  6 22  1  0
 22 23  2  0
 23  3  1  0
 21  7  1  0
 20 14  1  0
  1 24  1  0
  1 25  1  0
  1 26  1  0
  4 27  1  0
  5 28  1  0
 11 29  1  0
 15 30  1  0
 16 31  1  0
 19 32  1  0
 20 33  1  0
 22 34  1  0
 23 35  1  0
M  END
$$$$
