
     RDKit          3D

 39 40  0  0  0  0  0  0  0  0999 V2000
   -1.5615   -0.4774   -2.3329 C   0  0  0  0  0  0  0  0  0  0  0  0
   -2.4349   -0.1265   -1.1455 C   0  0  0  0  0  0  0  0  0  0  0  0
   -1.9262    0.1623    0.0679 C   0  0  0  0  0  0  0  0  0  0  0  0
   -0.4644    0.2380    0.3325 C   0  0  0  0  0  0  0  0  0  0  0  0
    0.3715    0.8517   -0.4470 N   0  0  0  0  0  0  0  0  0  0  0  0
    1.6973    0.7940   -0.0985 N   0  0  0  0  0  0  0  0  0  0  0  0
    2.3452   -0.3595    0.3271 C   0  0  0  0  0  0  0  0  0  0  0  0
    1.7800   -1.4186    0.5939 O   0  0  0  0  0  0  0  0  0  0  0  0
    3.8371   -0.2773    0.4506 C   0  0  0  0  0  0  0  0  0  0  0  0
    4.4881   -1.3667    1.0550 C   0  0  0  0  0  0  0  0  0  0  0  0
    5.8736   -1.3632    1.2089 C   0  0  0  0  0  0  0  0  0  0  0  0
    6.7320   -2.8355    2.0268 Br  0  0  0  0  0  0  0  0  0  0  0  0
    6.6325   -0.2832    0.7653 C   0  0  0  0  0  0  0  0  0  0  0  0
    6.0017    0.8038    0.1593 C   0  0  0  0  0  0  0  0  0  0  0  0
    4.6119    0.8055    0.0016 C   0  0  0  0  0  0  0  0  0  0  0  0
    4.0234    1.8814   -0.6103 O   0  0  0  0  0  0  0  0  0  0  0  0
   -2.8416    0.3822    1.2101 C   0  0  0  0  0  0  0  0  0  0  0  0
   -2.3799    0.6748    2.3132 O   0  0  0  0  0  0  0  0  0  0  0  0
   -4.1911    0.2493    0.9610 N   0  0  0  0  0  0  0  0  0  0  0  0
   -5.1145    0.4518    2.0615 C   0  0  0  0  0  0  0  0  0  0  0  0
   -4.7349    0.0671   -0.3013 C   0  0  0  0  0  0  0  0  0  0  0  0
   -5.9537    0.0757   -0.4861 O   0  0  0  0  0  0  0  0  0  0  0  0
   -3.8213   -0.1260   -1.3406 N   0  0  0  0  0  0  0  0  0  0  0  0
   -4.3799   -0.3457   -2.6744 C   0  0  0  0  0  0  0  0  0  0  0  0
   -1.9709   -1.3277   -2.8885 H   0  0  0  0  0  0  0  0  0  0  0  0
   -0.5545   -0.7959   -2.0515 H   0  0  0  0  0  0  0  0  0  0  0  0
   -1.4768    0.3779   -3.0108 H   0  0  0  0  0  0  0  0  0  0  0  0
   -0.1543   -0.2145    1.2919 H   0  0  0  0  0  0  0  0  0  0  0  0
    2.2807    1.5109   -0.5314 H   0  0  0  0  0  0  0  0  0  0  0  0
    3.9076   -2.2177    1.4076 H   0  0  0  0  0  0  0  0  0  0  0  0
    7.7133   -0.2801    0.8853 H   0  0  0  0  0  0  0  0  0  0  0  0
    6.6105    1.6358   -0.1840 H   0  0  0  0  0  0  0  0  0  0  0  0
    4.7113    2.5280   -0.8528 H   0  0  0  0  0  0  0  0  0  0  0  0
   -4.6365    0.2741    3.0290 H   0  0  0  0  0  0  0  0  0  0  0  0
   -5.4724    1.4857    2.0251 H   0  0  0  0  0  0  0  0  0  0  0  0
   -5.9732   -0.2205    1.9673 H   0  0  0  0  0  0  0  0  0  0  0  0
   -3.8718    0.2937   -3.4027 H   0  0  0  0  0  0  0  0  0  0  0  0
   -4.2572   -1.3999   -2.9411 H   0  0  0  0  0  0  0  0  0  0  0  0
   -5.4464   -0.1079   -2.7213 H   0  0  0  0  0  0  0  0  0  0  0  0
  1  2  1  0
  2  3  2  0
  3  4  1  0
  4  5  2  3
  5  6  1  0
  6  7  1  0
  7  8  2  0
  7  9  1  0
  9 10  2  0
 10 11  1  0
 11 12  1  0
 11 13  2  0
 13 14  1  0
 14 15  2  0
 15 16  1  0
  3 17  1  0
 17 18  2  0
 17 19  1  0
 19 20  1  0
 19 21  1  0
 21 22  2  0
 21 23  1  0
 23 24  1  0
 23  2  1  0
 15  9  1  0
  1 25  1  0
  1 26  1  0
  1 27  1  0
  4 28  1  0
  6 29  1  0
 10 30  1  0
 13 31  1  0
 14 32  1  0
 16 33  1  0
 20 34  1  0
 20 35  1  0
 20 36  1  0
 24 37  1  0
 24 38  1  0
 24 39  1  0
M  END
$$$$
