
     RDKit          3D

 25 26  0  0  0  0  0  0  0  0999 V2000
   -4.8065    0.0175    0.1974 O   0  0  0  0  0  0  0  0  0  0  0  0
   -3.6050   -0.0187   -0.0052 C   0  0  0  0  0  0  0  0  0  0  0  0
   -2.9254   -0.1081   -1.3384 C   0  0  0  0  0  0  0  0  0  0  0  0
   -1.4704    0.1755   -0.9804 C   0  0  0  0  0  0  0  0  0  0  0  0
   -1.3481   -0.2640    0.4207 N   0  0  0  0  0  0  0  0  0  0  0  0
   -0.2969    0.4704    1.1444 C   0  0  0  0  0  0  0  0  0  0  0  0
    1.0960    0.1560    0.6389 C   0  0  0  0  0  0  0  0  0  0  0  0
    1.6037   -1.1505    0.7219 C   0  0  0  0  0  0  0  0  0  0  0  0
    2.8877   -1.4443    0.2579 C   0  0  0  0  0  0  0  0  0  0  0  0
    3.6725   -0.4328   -0.2902 C   0  0  0  0  0  0  0  0  0  0  0  0
    5.2544   -0.7930   -0.8631 Cl  0  0  0  0  0  0  0  0  0  0  0  0
    3.1847    0.8694   -0.3784 C   0  0  0  0  0  0  0  0  0  0  0  0
    1.9000    1.1638    0.0852 C   0  0  0  0  0  0  0  0  0  0  0  0
   -2.6181   -0.0342    0.9590 N   0  0  0  0  0  0  0  0  0  0  0  0
   -3.0561   -1.1197   -1.7348 H   0  0  0  0  0  0  0  0  0  0  0  0
   -3.3268    0.6352   -2.0312 H   0  0  0  0  0  0  0  0  0  0  0  0
   -1.2840    1.2527   -1.0863 H   0  0  0  0  0  0  0  0  0  0  0  0
   -0.7835   -0.3620   -1.6417 H   0  0  0  0  0  0  0  0  0  0  0  0
   -0.4824    1.5526    1.1120 H   0  0  0  0  0  0  0  0  0  0  0  0
   -0.3246    0.1910    2.2064 H   0  0  0  0  0  0  0  0  0  0  0  0
    0.9930   -1.9468    1.1441 H   0  0  0  0  0  0  0  0  0  0  0  0
    3.2660   -2.4607    0.3258 H   0  0  0  0  0  0  0  0  0  0  0  0
    3.7981    1.6581   -0.8058 H   0  0  0  0  0  0  0  0  0  0  0  0
    1.5322    2.1849    0.0098 H   0  0  0  0  0  0  0  0  0  0  0  0
   -2.8602   -0.1924    1.9317 H   0  0  0  0  0  0  0  0  0  0  0  0
  1  2  2  0
  2  3  1  0
  3  4  1  0
  4  5  1  0
  5  6  1  0
  6  7  1  0
  7  8  2  0
  8  9  1  0
  9 10  2  0
 10 11  1  0
 10 12  1  0
 12 13  2  0
  5 14  1  0
 14  2  1  0
 13  7  1  0
  3 15  1  0
  3 16  1  0
  4 17  1  0
  4 18  1  0
  6 19  1  0
  6 20  1  0
  8 21  1  0
  9 22  1  0
 12 23  1  0
 13 24  1  0
 14 25  1  0
M  END
$$$$
