
     RDKit          3D

 39 42  0  0  0  0  0  0  0  0999 V2000
   -8.0411   -2.0853   -1.1038 O   0  0  0  0  0  0  0  0  0  0  0  0
   -7.6489   -1.6431   -0.0384 C   0  0  0  0  0  0  0  0  0  0  0  0
   -8.3486   -1.8491    1.0937 O   0  0  0  0  0  0  0  0  0  0  0  0
   -6.4097   -0.8351    0.2071 C   0  0  0  0  0  0  0  0  0  0  0  0
   -5.6269   -0.6580   -1.0903 C   0  0  0  0  0  0  0  0  0  0  0  0
   -4.4084    0.1324   -0.8872 N   0  0  0  0  0  0  0  0  0  0  0  0
   -3.2634   -0.5165   -0.4577 C   0  0  0  0  0  0  0  0  0  0  0  0
   -3.1731   -1.7117   -0.2116 O   0  0  0  0  0  0  0  0  0  0  0  0
   -2.1410    0.4500   -0.3004 C   0  0  0  0  0  0  0  0  0  0  0  0
   -0.9262    0.0138    0.0552 C   0  0  0  0  0  0  0  0  0  0  0  0
    0.2510    0.7930    0.2363 C   0  0  0  0  0  0  0  0  0  0  0  0
    0.4645    2.1297    0.5415 C   0  0  0  0  0  0  0  0  0  0  0  0
    1.8631    2.3461    0.6136 C   0  0  0  0  0  0  0  0  0  0  0  0
    2.4777    1.1329    0.3661 C   0  0  0  0  0  0  0  0  0  0  0  0
    3.8771    0.7912    0.3231 C   0  0  0  0  0  0  0  0  0  0  0  0
    4.2863   -0.4353    0.0777 N   0  0  0  0  0  0  0  0  0  0  0  0
    5.6688   -0.4895    0.0934 C   0  0  0  0  0  0  0  0  0  0  0  0
    6.4536   -1.6391   -0.1289 C   0  0  0  0  0  0  0  0  0  0  0  0
    7.8487   -1.5491   -0.0832 C   0  0  0  0  0  0  0  0  0  0  0  0
    8.4676   -0.3312    0.1806 C   0  0  0  0  0  0  0  0  0  0  0  0
    7.7116    0.8238    0.4047 C   0  0  0  0  0  0  0  0  0  0  0  0
    6.3113    0.7212    0.3562 C   0  0  0  0  0  0  0  0  0  0  0  0
    5.1228    1.9439    0.5858 S   0  0  0  0  0  0  0  0  0  0  0  0
    1.4927    0.2040    0.1514 O   0  0  0  0  0  0  0  0  0  0  0  0
   -2.6868    2.0333   -0.6703 S   0  0  0  0  0  0  0  0  0  0  0  0
   -4.3239    1.5008   -1.0263 C   0  0  0  0  0  0  0  0  0  0  0  0
   -5.5307    2.5706   -1.4503 S   0  0  0  0  0  0  0  0  0  0  0  0
   -9.1226   -2.3815    0.8120 H   0  0  0  0  0  0  0  0  0  0  0  0
   -5.7962   -1.3540    0.9516 H   0  0  0  0  0  0  0  0  0  0  0  0
   -6.7030    0.1388    0.6130 H   0  0  0  0  0  0  0  0  0  0  0  0
   -5.3412   -1.6405   -1.4871 H   0  0  0  0  0  0  0  0  0  0  0  0
   -6.2511   -0.1845   -1.8555 H   0  0  0  0  0  0  0  0  0  0  0  0
   -0.7814   -1.0572    0.1955 H   0  0  0  0  0  0  0  0  0  0  0  0
   -0.2953    2.8794    0.7100 H   0  0  0  0  0  0  0  0  0  0  0  0
    2.3571    3.2831    0.8305 H   0  0  0  0  0  0  0  0  0  0  0  0
    5.9654   -2.5867   -0.3344 H   0  0  0  0  0  0  0  0  0  0  0  0
    8.4499   -2.4388   -0.2554 H   0  0  0  0  0  0  0  0  0  0  0  0
    9.5538   -0.2752    0.2133 H   0  0  0  0  0  0  0  0  0  0  0  0
    8.1963    1.7733    0.6103 H   0  0  0  0  0  0  0  0  0  0  0  0
  1  2  2  0
  2  3  1  0
  2  4  1  0
  4  5  1  0
  5  6  1  0
  6  7  1  0
  7  8  2  0
  7  9  1  0
  9 10  2  3
 10 11  1  0
 11 12  2  0
 12 13  1  0
 13 14  2  0
 14 15  1  0
 15 16  2  0
 16 17  1  0
 17 18  2  0
 18 19  1  0
 19 20  2  0
 20 21  1  0
 21 22  2  0
 22 23  1  0
 14 24  1  0
  9 25  1  0
 25 26  1  0
 26 27  2  0
 26  6  1  0
 24 11  1  0
 23 15  1  0
 22 17  1  0
  3 28  1  0
  4 29  1  0
  4 30  1  0
  5 31  1  0
  5 32  1  0
 10 33  1  0
 12 34  1  0
 13 35  1  0
 18 36  1  0
 19 37  1  0
 20 38  1  0
 21 39  1  0
M  END
$$$$
