
     RDKit          3D

 36 37  0  0  0  0  0  0  0  0999 V2000
   -2.1190    0.3680    1.5831 O   0  0  0  0  0  0  0  0  0  0  0  0
   -1.0421   -0.0351    1.1455 C   0  0  0  0  0  0  0  0  0  0  0  0
    0.1061   -0.4877    2.0421 C   0  0  0  0  0  0  0  0  0  0  0  0
    1.3555   -0.3706    1.3514 O   0  0  0  0  0  0  0  0  0  0  0  0
    2.4078   -0.8442    2.0640 C   0  0  0  0  0  0  0  0  0  0  0  0
    2.3438   -1.3557    3.1693 O   0  0  0  0  0  0  0  0  0  0  0  0
    3.6764   -0.6797    1.3064 C   0  0  0  0  0  0  0  0  0  0  0  0
    3.7564    0.0813    0.1306 C   0  0  0  0  0  0  0  0  0  0  0  0
    4.9740    0.2063   -0.5429 C   0  0  0  0  0  0  0  0  0  0  0  0
    6.1142   -0.4245   -0.0450 C   0  0  0  0  0  0  0  0  0  0  0  0
    6.0356   -1.1763    1.1265 C   0  0  0  0  0  0  0  0  0  0  0  0
    7.4455   -1.9498    1.7376 Cl  0  0  0  0  0  0  0  0  0  0  0  0
    4.8259   -1.3064    1.8056 C   0  0  0  0  0  0  0  0  0  0  0  0
   -0.8054   -0.1681   -0.2081 N   0  0  0  0  0  0  0  0  0  0  0  0
   -1.7418    0.3705   -1.1769 C   0  0  0  0  0  0  0  0  0  0  0  0
   -3.0865   -0.3731   -1.1971 C   0  0  0  0  0  0  0  0  0  0  0  0
   -4.2005    0.5348   -1.3747 N   0  0  0  0  0  0  0  0  0  0  0  0
   -4.9517    1.0786   -0.3598 C   0  0  0  0  0  0  0  0  0  0  0  0
   -4.6973    0.8156    0.9529 O   0  0  0  0  0  0  0  0  0  0  0  0
   -5.9403    1.8781   -0.7711 C   0  0  0  0  0  0  0  0  0  0  0  0
   -5.9648    2.0254   -2.5006 S   0  0  0  0  0  0  0  0  0  0  0  0
   -4.5646    0.9516   -2.6482 C   0  0  0  0  0  0  0  0  0  0  0  0
   -4.0299    0.6653   -3.7074 O   0  0  0  0  0  0  0  0  0  0  0  0
    0.1201    0.1592    2.9260 H   0  0  0  0  0  0  0  0  0  0  0  0
   -0.0826   -1.5298    2.3231 H   0  0  0  0  0  0  0  0  0  0  0  0
    2.8837    0.5911   -0.2694 H   0  0  0  0  0  0  0  0  0  0  0  0
    5.0361    0.7982   -1.4536 H   0  0  0  0  0  0  0  0  0  0  0  0
    7.0604   -0.3242   -0.5714 H   0  0  0  0  0  0  0  0  0  0  0  0
    4.7770   -1.8940    2.7203 H   0  0  0  0  0  0  0  0  0  0  0  0
    0.1612   -0.3068   -0.4851 H   0  0  0  0  0  0  0  0  0  0  0  0
   -1.8773    1.4321   -0.9373 H   0  0  0  0  0  0  0  0  0  0  0  0
   -1.2651    0.3115   -2.1613 H   0  0  0  0  0  0  0  0  0  0  0  0
   -3.0784   -1.0803   -2.0364 H   0  0  0  0  0  0  0  0  0  0  0  0
   -3.2556   -0.9811   -0.3019 H   0  0  0  0  0  0  0  0  0  0  0  0
   -3.7415    0.6299    1.0761 H   0  0  0  0  0  0  0  0  0  0  0  0
   -6.6357    2.3901   -0.1215 H   0  0  0  0  0  0  0  0  0  0  0  0
  1  2  2  0
  2  3  1  0
  3  4  1  0
  4  5  1  0
  5  6  2  0
  5  7  1  0
  7  8  2  0
  8  9  1  0
  9 10  2  0
 10 11  1  0
 11 12  1  0
 11 13  2  0
  2 14  1  0
 14 15  1  0
 15 16  1  0
 16 17  1  0
 17 18  1  0
 18 19  1  0
 18 20  2  0
 20 21  1  0
 21 22  1  0
 22 23  2  0
 13  7  1  0
 22 17  1  0
  3 24  1  0
  3 25  1  0
  8 26  1  0
  9 27  1  0
 10 28  1  0
 13 29  1  0
 14 30  1  0
 15 31  1  0
 15 32  1  0
 16 33  1  0
 16 34  1  0
 19 35  1  0
 20 36  1  0
M  END
$$$$
