
     RDKit          3D

 60 64  0  0  0  0  0  0  0  0999 V2000
   -2.4799    0.4007    2.9591 C   0  0  0  0  0  0  0  0  0  0  0  0
   -2.5086   -0.7157    2.0198 N   0  0  0  0  0  0  0  0  0  0  0  0
   -3.7605   -1.1047    1.5345 C   0  0  0  0  0  0  0  0  0  0  0  0
   -4.8119   -0.6068    1.9404 O   0  0  0  0  0  0  0  0  0  0  0  0
   -3.7978   -2.1397    0.4507 C   0  0  0  0  0  0  0  0  0  0  0  0
   -4.6496   -2.0805   -0.5894 C   0  0  0  0  0  0  0  0  0  0  0  0
   -5.5826   -0.9898   -0.8850 C   0  0  0  0  0  0  0  0  0  0  0  0
   -6.9562   -1.1867   -0.7148 C   0  0  0  0  0  0  0  0  0  0  0  0
   -7.8566   -0.1570   -1.0024 C   0  0  0  0  0  0  0  0  0  0  0  0
   -7.3969    1.0810   -1.4756 C   0  0  0  0  0  0  0  0  0  0  0  0
   -8.3603    2.2054   -1.7660 C   0  0  0  0  0  0  0  0  0  0  0  0
   -9.6386    1.7820   -1.9788 F   0  0  0  0  0  0  0  0  0  0  0  0
   -8.0195    2.9190   -2.8770 F   0  0  0  0  0  0  0  0  0  0  0  0
   -8.4291    3.1089   -0.7503 F   0  0  0  0  0  0  0  0  0  0  0  0
   -6.0159    1.2721   -1.6423 C   0  0  0  0  0  0  0  0  0  0  0  0
   -5.1154    0.2433   -1.3524 C   0  0  0  0  0  0  0  0  0  0  0  0
   -2.7382   -3.4902    0.6146 S   0  0  0  0  0  0  0  0  0  0  0  0
   -1.2548   -2.5915    1.0018 C   0  0  0  0  0  0  0  0  0  0  0  0
   -0.0344   -3.2129    0.6849 C   0  0  0  0  0  0  0  0  0  0  0  0
    1.1776   -2.6000    0.9937 C   0  0  0  0  0  0  0  0  0  0  0  0
    1.1728   -1.3519    1.6135 C   0  0  0  0  0  0  0  0  0  0  0  0
    2.4411   -0.6818    1.9918 C   0  0  0  0  0  0  0  0  0  0  0  0
    2.5063   -0.1643    3.1047 O   0  0  0  0  0  0  0  0  0  0  0  0
    3.5038   -0.6922    1.0880 N   0  0  0  0  0  0  0  0  0  0  0  0
    3.2929   -0.5163   -0.3616 C   0  0  0  0  0  0  0  0  0  0  0  0
    3.3756    0.9792   -0.7519 C   0  0  0  0  0  0  0  0  0  0  0  0
    4.6076    1.6324   -0.2476 N   0  0  0  0  0  0  0  0  0  0  0  0
    5.7438    1.4283   -1.0477 C   0  0  0  0  0  0  0  0  0  0  0  0
    6.8838    2.2078   -0.8388 C   0  0  0  0  0  0  0  0  0  0  0  0
    8.0131    2.0242   -1.6348 C   0  0  0  0  0  0  0  0  0  0  0  0
    7.9842    1.0676   -2.6361 C   0  0  0  0  0  0  0  0  0  0  0  0
    6.8190    0.3438   -2.7987 C   0  0  0  0  0  0  0  0  0  0  0  0
    5.7135    0.5076   -2.0362 N   0  0  0  0  0  0  0  0  0  0  0  0
    4.8310    1.4010    1.2035 C   0  0  0  0  0  0  0  0  0  0  0  0
    4.7687   -0.1035    1.5433 C   0  0  0  0  0  0  0  0  0  0  0  0
   -0.0406   -0.7414    1.9598 C   0  0  0  0  0  0  0  0  0  0  0  0
   -1.2735   -1.3438    1.6511 C   0  0  0  0  0  0  0  0  0  0  0  0
   -2.0369    1.2721    2.4665 H   0  0  0  0  0  0  0  0  0  0  0  0
   -1.9000    0.1248    3.8455 H   0  0  0  0  0  0  0  0  0  0  0  0
   -3.4803    0.6840    3.2975 H   0  0  0  0  0  0  0  0  0  0  0  0
   -4.6741   -2.8838   -1.3237 H   0  0  0  0  0  0  0  0  0  0  0  0
   -7.3339   -2.1349   -0.3390 H   0  0  0  0  0  0  0  0  0  0  0  0
   -8.9214   -0.3253   -0.8477 H   0  0  0  0  0  0  0  0  0  0  0  0
   -5.6351    2.2291   -1.9972 H   0  0  0  0  0  0  0  0  0  0  0  0
   -4.0495    0.4152   -1.4900 H   0  0  0  0  0  0  0  0  0  0  0  0
   -0.0220   -4.1911    0.2065 H   0  0  0  0  0  0  0  0  0  0  0  0
    2.1142   -3.1029    0.7648 H   0  0  0  0  0  0  0  0  0  0  0  0
    2.3203   -0.9003   -0.6754 H   0  0  0  0  0  0  0  0  0  0  0  0
    4.0609   -1.1073   -0.8707 H   0  0  0  0  0  0  0  0  0  0  0  0
    3.2620    1.1066   -1.8357 H   0  0  0  0  0  0  0  0  0  0  0  0
    2.5234    1.5028   -0.2992 H   0  0  0  0  0  0  0  0  0  0  0  0
    6.8874    2.9817   -0.0790 H   0  0  0  0  0  0  0  0  0  0  0  0
    8.8978    2.6341   -1.4782 H   0  0  0  0  0  0  0  0  0  0  0  0
    8.8399    0.8988   -3.2791 H   0  0  0  0  0  0  0  0  0  0  0  0
    6.7352   -0.4121   -3.5740 H   0  0  0  0  0  0  0  0  0  0  0  0
    5.7783    1.8242    1.5549 H   0  0  0  0  0  0  0  0  0  0  0  0
    4.0391    1.9290    1.7495 H   0  0  0  0  0  0  0  0  0  0  0  0
    4.8889   -0.2504    2.6222 H   0  0  0  0  0  0  0  0  0  0  0  0
    5.5806   -0.6463    1.0452 H   0  0  0  0  0  0  0  0  0  0  0  0
    0.0113    0.2181    2.4680 H   0  0  0  0  0  0  0  0  0  0  0  0
  1  2  1  0
  2  3  1  0
  3  4  2  0
  3  5  1  0
  5  6  2  3
  6  7  1  0
  7  8  2  0
  8  9  1  0
  9 10  2  0
 10 11  1  0
 11 12  1  0
 11 13  1  0
 11 14  1  0
 10 15  1  0
 15 16  2  0
  5 17  1  0
 17 18  1  0
 18 19  2  0
 19 20  1  0
 20 21  2  0
 21 22  1  0
 22 23  2  0
 22 24  1  0
 24 25  1  0
 25 26  1  0
 26 27  1  0
 27 28  1  0
 28 29  2  0
 29 30  1  0
 30 31  2  0
 31 32  1  0
 32 33  2  0
 27 34  1  0
 34 35  1  0
 21 36  1  0
 36 37  2  0
 37  2  1  0
 16  7  1  0
 37 18  1  0
 35 24  1  0
 33 28  1  0
  1 38  1  0
  1 39  1  0
  1 40  1  0
  6 41  1  0
  8 42  1  0
  9 43  1  0
 15 44  1  0
 16 45  1  0
 19 46  1  0
 20 47  1  0
 25 48  1  0
 25 49  1  0
 26 50  1  0
 26 51  1  0
 29 52  1  0
 30 53  1  0
 31 54  1  0
 32 55  1  0
 34 56  1  0
 34 57  1  0
 35 58  1  0
 35 59  1  0
 36 60  1  0
M  END
$$$$
