
     RDKit          3D

 47 49  0  0  0  0  0  0  0  0999 V2000
    8.1130    0.7618    0.7636 C   0  0  0  0  0  0  0  0  0  0  0  0
    6.7166    1.2595    1.1022 C   0  0  0  0  0  0  0  0  0  0  0  0
    5.6455    0.3724    0.5184 C   0  0  0  0  0  0  0  0  0  0  0  0
    5.1273   -0.6937    1.2612 C   0  0  0  0  0  0  0  0  0  0  0  0
    4.1527   -1.5302    0.7134 C   0  0  0  0  0  0  0  0  0  0  0  0
    3.6792   -1.3111   -0.5797 C   0  0  0  0  0  0  0  0  0  0  0  0
    2.6948   -2.1430   -1.1234 N   0  0  0  0  0  0  0  0  0  0  0  0
    1.4570   -1.8234   -0.9669 C   0  0  0  0  0  0  0  0  0  0  0  0
    0.9543   -0.7395   -0.3213 N   0  0  0  0  0  0  0  0  0  0  0  0
   -0.4000   -0.5729   -0.3058 C   0  0  0  0  0  0  0  0  0  0  0  0
   -0.9576    0.3874    0.2044 O   0  0  0  0  0  0  0  0  0  0  0  0
   -1.0558   -1.7159   -1.0087 C   0  0  0  0  0  0  0  0  0  0  0  0
   -2.3670   -1.9423   -1.1765 C   0  0  0  0  0  0  0  0  0  0  0  0
   -3.4517   -1.0747   -0.7116 C   0  0  0  0  0  0  0  0  0  0  0  0
   -4.2952   -1.5171    0.3107 C   0  0  0  0  0  0  0  0  0  0  0  0
   -5.3267   -0.7006    0.7737 C   0  0  0  0  0  0  0  0  0  0  0  0
   -6.1018   -1.2198    1.7742 O   0  0  0  0  0  0  0  0  0  0  0  0
   -6.1855   -0.3461    2.9007 C   0  0  0  0  0  0  0  0  0  0  0  0
   -5.5424    0.5390    0.1752 C   0  0  0  0  0  0  0  0  0  0  0  0
   -6.5796    1.3432    0.5808 O   0  0  0  0  0  0  0  0  0  0  0  0
   -4.7214    0.9846   -0.8672 C   0  0  0  0  0  0  0  0  0  0  0  0
   -5.0562    2.2128   -1.3747 O   0  0  0  0  0  0  0  0  0  0  0  0
   -4.2014    2.7421   -2.3786 C   0  0  0  0  0  0  0  0  0  0  0  0
   -3.6748    0.1743   -1.3058 C   0  0  0  0  0  0  0  0  0  0  0  0
    0.1634   -2.7960   -1.6055 S   0  0  0  0  0  0  0  0  0  0  0  0
    4.2136   -0.2669   -1.3329 C   0  0  0  0  0  0  0  0  0  0  0  0
    5.1865    0.5733   -0.7878 C   0  0  0  0  0  0  0  0  0  0  0  0
    8.2685   -0.2556    1.1350 H   0  0  0  0  0  0  0  0  0  0  0  0
    8.2849    0.7567   -0.3182 H   0  0  0  0  0  0  0  0  0  0  0  0
    8.8684    1.4064    1.2260 H   0  0  0  0  0  0  0  0  0  0  0  0
    6.5872    2.2836    0.7384 H   0  0  0  0  0  0  0  0  0  0  0  0
    6.5981    1.3074    2.1918 H   0  0  0  0  0  0  0  0  0  0  0  0
    5.4887   -0.8903    2.2689 H   0  0  0  0  0  0  0  0  0  0  0  0
    3.7679   -2.3616    1.2964 H   0  0  0  0  0  0  0  0  0  0  0  0
    1.5453   -0.0486    0.1046 H   0  0  0  0  0  0  0  0  0  0  0  0
   -2.7060   -2.8452   -1.6836 H   0  0  0  0  0  0  0  0  0  0  0  0
   -4.1510   -2.4941    0.7667 H   0  0  0  0  0  0  0  0  0  0  0  0
   -5.2770    0.2492    3.0458 H   0  0  0  0  0  0  0  0  0  0  0  0
   -6.3187   -0.9644    3.7943 H   0  0  0  0  0  0  0  0  0  0  0  0
   -7.0548    0.3039    2.8140 H   0  0  0  0  0  0  0  0  0  0  0  0
   -6.5508    2.1165   -0.0164 H   0  0  0  0  0  0  0  0  0  0  0  0
   -4.1813    2.0953   -3.2663 H   0  0  0  0  0  0  0  0  0  0  0  0
   -3.1947    2.9161   -1.9932 H   0  0  0  0  0  0  0  0  0  0  0  0
   -4.6112    3.7094   -2.6842 H   0  0  0  0  0  0  0  0  0  0  0  0
   -3.0176    0.4927   -2.1067 H   0  0  0  0  0  0  0  0  0  0  0  0
    3.8757   -0.1105   -2.3529 H   0  0  0  0  0  0  0  0  0  0  0  0
    5.5915    1.3758   -1.3946 H   0  0  0  0  0  0  0  0  0  0  0  0
  1  2  1  0
  2  3  1  0
  3  4  2  0
  4  5  1  0
  5  6  2  0
  6  7  1  0
  7  8  2  3
  8  9  1  0
  9 10  1  0
 10 11  2  0
 10 12  1  0
 12 13  2  3
 13 14  1  0
 14 15  2  0
 15 16  1  0
 16 17  1  0
 17 18  1  0
 16 19  2  0
 19 20  1  0
 19 21  1  0
 21 22  1  0
 22 23  1  0
 21 24  2  0
 12 25  1  0
  6 26  1  0
 26 27  2  0
 27  3  1  0
 25  8  1  0
 24 14  1  0
  1 28  1  0
  1 29  1  0
  1 30  1  0
  2 31  1  0
  2 32  1  0
  4 33  1  0
  5 34  1  0
  9 35  1  0
 13 36  1  0
 15 37  1  0
 18 38  1  0
 18 39  1  0
 18 40  1  0
 20 41  1  0
 23 42  1  0
 23 43  1  0
 23 44  1  0
 24 45  1  0
 26 46  1  0
 27 47  1  0
M  END
$$$$
