
     RDKit          3D

 49 52  0  0  0  0  0  0  0  0999 V2000
   -3.5115    4.4523   -1.0933 C   0  0  0  0  0  0  0  0  0  0  0  0
   -3.0621    3.0579   -0.7713 C   0  0  0  0  0  0  0  0  0  0  0  0
   -3.9173    2.1727   -0.1053 C   0  0  0  0  0  0  0  0  0  0  0  0
   -3.5135    0.8625    0.1628 C   0  0  0  0  0  0  0  0  0  0  0  0
   -2.2476    0.4249   -0.2429 C   0  0  0  0  0  0  0  0  0  0  0  0
   -1.8466   -0.9093    0.0194 N   0  0  0  0  0  0  0  0  0  0  0  0
   -2.5765   -2.0715   -0.2114 C   0  0  0  0  0  0  0  0  0  0  0  0
   -3.8542   -2.1733   -0.9837 C   0  0  0  0  0  0  0  0  0  0  0  0
   -3.7120   -1.7720   -2.4277 C   0  0  0  0  0  0  0  0  0  0  0  0
   -4.2270   -0.6592   -3.0655 C   0  0  0  0  0  0  0  0  0  0  0  0
   -3.8763   -0.6108   -4.4454 C   0  0  0  0  0  0  0  0  0  0  0  0
   -3.1177   -1.6952   -4.8222 C   0  0  0  0  0  0  0  0  0  0  0  0
   -2.8323   -2.7629   -3.5190 S   0  0  0  0  0  0  0  0  0  0  0  0
   -1.9031   -3.1105    0.2485 N   0  0  0  0  0  0  0  0  0  0  0  0
   -0.7031   -2.6684    0.7257 N   0  0  0  0  0  0  0  0  0  0  0  0
   -0.6607   -1.3660    0.5692 C   0  0  0  0  0  0  0  0  0  0  0  0
    0.6437   -0.3685    1.1295 S   0  0  0  0  0  0  0  0  0  0  0  0
    1.4294   -1.5051    2.3105 C   0  0  0  0  0  0  0  0  0  0  0  0
    2.7079   -0.8760    2.8388 C   0  0  0  0  0  0  0  0  0  0  0  0
    2.7474   -0.3580    3.9510 O   0  0  0  0  0  0  0  0  0  0  0  0
    3.7626   -0.9744    1.9408 N   0  0  0  0  0  0  0  0  0  0  0  0
    5.0878   -0.5273    2.1162 C   0  0  0  0  0  0  0  0  0  0  0  0
    5.5644    0.0705    3.2888 C   0  0  0  0  0  0  0  0  0  0  0  0
    6.8984    0.4849    3.3866 C   0  0  0  0  0  0  0  0  0  0  0  0
    7.7568    0.2999    2.3118 C   0  0  0  0  0  0  0  0  0  0  0  0
    9.0323    0.6978    2.4081 F   0  0  0  0  0  0  0  0  0  0  0  0
    7.2933   -0.2935    1.1467 C   0  0  0  0  0  0  0  0  0  0  0  0
    8.1184   -0.4740    0.1070 F   0  0  0  0  0  0  0  0  0  0  0  0
    5.9677   -0.7081    1.0416 C   0  0  0  0  0  0  0  0  0  0  0  0
   -1.3881    1.3023   -0.9116 C   0  0  0  0  0  0  0  0  0  0  0  0
   -1.8007    2.6095   -1.1807 C   0  0  0  0  0  0  0  0  0  0  0  0
   -2.6624    5.1441   -1.1019 H   0  0  0  0  0  0  0  0  0  0  0  0
   -4.2203    4.8175   -0.3428 H   0  0  0  0  0  0  0  0  0  0  0  0
   -3.9943    4.4716   -2.0751 H   0  0  0  0  0  0  0  0  0  0  0  0
   -4.9020    2.5038    0.2190 H   0  0  0  0  0  0  0  0  0  0  0  0
   -4.1857    0.2210    0.7267 H   0  0  0  0  0  0  0  0  0  0  0  0
   -4.2069   -3.2127   -0.9424 H   0  0  0  0  0  0  0  0  0  0  0  0
   -4.6437   -1.5875   -0.5029 H   0  0  0  0  0  0  0  0  0  0  0  0
   -4.8231    0.0963   -2.5678 H   0  0  0  0  0  0  0  0  0  0  0  0
   -4.1680    0.1787   -5.1273 H   0  0  0  0  0  0  0  0  0  0  0  0
   -2.7174   -1.9158   -5.8022 H   0  0  0  0  0  0  0  0  0  0  0  0
    0.7553   -1.7006    3.1509 H   0  0  0  0  0  0  0  0  0  0  0  0
    1.6741   -2.4611    1.8357 H   0  0  0  0  0  0  0  0  0  0  0  0
    3.5424   -1.3805    1.0381 H   0  0  0  0  0  0  0  0  0  0  0  0
    4.9226    0.2306    4.1503 H   0  0  0  0  0  0  0  0  0  0  0  0
    7.2658    0.9499    4.2963 H   0  0  0  0  0  0  0  0  0  0  0  0
    5.6459   -1.1674    0.1127 H   0  0  0  0  0  0  0  0  0  0  0  0
   -0.4124    0.9837   -1.2718 H   0  0  0  0  0  0  0  0  0  0  0  0
   -1.1297    3.2771   -1.7183 H   0  0  0  0  0  0  0  0  0  0  0  0
  1  2  1  0
  2  3  2  0
  3  4  1  0
  4  5  2  0
  5  6  1  0
  6  7  1  0
  7  8  1  0
  8  9  1  0
  9 10  2  0
 10 11  1  0
 11 12  2  0
 12 13  1  0
  7 14  2  0
 14 15  1  0
 15 16  2  0
 16 17  1  0
 17 18  1  0
 18 19  1  0
 19 20  2  0
 19 21  1  0
 21 22  1  0
 22 23  2  0
 23 24  1  0
 24 25  2  0
 25 26  1  0
 25 27  1  0
 27 28  1  0
 27 29  2  0
  5 30  1  0
 30 31  2  0
 31  2  1  0
 16  6  1  0
 29 22  1  0
 13  9  1  0
  1 32  1  0
  1 33  1  0
  1 34  1  0
  3 35  1  0
  4 36  1  0
  8 37  1  0
  8 38  1  0
 10 39  1  0
 11 40  1  0
 12 41  1  0
 18 42  1  0
 18 43  1  0
 21 44  1  0
 23 45  1  0
 24 46  1  0
 29 47  1  0
 30 48  1  0
 31 49  1  0
M  END
$$$$
