
     RDKit          3D

 52 54  0  0  0  0  0  0  0  0999 V2000
    5.9833   -2.4678    0.4717 C   0  0  0  0  0  0  0  0  0  0  0  0
    4.6161   -1.8540    0.5460 C   0  0  0  0  0  0  0  0  0  0  0  0
    3.4771   -2.6673    0.5104 C   0  0  0  0  0  0  0  0  0  0  0  0
    2.1927   -2.1145    0.6073 C   0  0  0  0  0  0  0  0  0  0  0  0
    0.9871   -3.0075    0.5275 C   0  0  0  0  0  0  0  0  0  0  0  0
    2.0669   -0.7281    0.7872 C   0  0  0  0  0  0  0  0  0  0  0  0
    0.8117   -0.1842    0.8934 O   0  0  0  0  0  0  0  0  0  0  0  0
    0.4447   -0.0371    2.2715 C   0  0  0  0  0  0  0  0  0  0  0  0
   -0.9202    0.6477    2.3935 C   0  0  0  0  0  0  0  0  0  0  0  0
   -1.3518    0.9899    3.4909 O   0  0  0  0  0  0  0  0  0  0  0  0
   -1.5497    0.7913    1.1738 N   0  0  0  0  0  0  0  0  0  0  0  0
   -2.7905    1.3827    0.8648 C   0  0  0  0  0  0  0  0  0  0  0  0
   -3.5970    1.9665    1.8508 C   0  0  0  0  0  0  0  0  0  0  0  0
   -4.8183    2.5593    1.5228 C   0  0  0  0  0  0  0  0  0  0  0  0
   -5.2501    2.5763    0.2035 C   0  0  0  0  0  0  0  0  0  0  0  0
   -4.4592    1.9966   -0.7865 C   0  0  0  0  0  0  0  0  0  0  0  0
   -3.2252    1.3907   -0.4848 C   0  0  0  0  0  0  0  0  0  0  0  0
   -2.5401    0.8311   -1.5723 N   0  0  0  0  0  0  0  0  0  0  0  0
   -1.3198    1.5258   -2.0180 C   0  0  0  0  0  0  0  0  0  0  0  0
   -0.9002    0.9787   -3.3933 C   0  0  0  0  0  0  0  0  0  0  0  0
   -0.7453   -0.4515   -3.3695 O   0  0  0  0  0  0  0  0  0  0  0  0
   -1.9868   -1.0805   -3.0055 C   0  0  0  0  0  0  0  0  0  0  0  0
   -2.4508   -0.6384   -1.6081 C   0  0  0  0  0  0  0  0  0  0  0  0
    3.1909    0.1117    0.7804 C   0  0  0  0  0  0  0  0  0  0  0  0
    3.0731    1.6039    0.9105 C   0  0  0  0  0  0  0  0  0  0  0  0
    4.4635   -0.4698    0.6887 C   0  0  0  0  0  0  0  0  0  0  0  0
    6.7264   -1.7381    0.1332 H   0  0  0  0  0  0  0  0  0  0  0  0
    5.9956   -3.2982   -0.2418 H   0  0  0  0  0  0  0  0  0  0  0  0
    6.2811   -2.8386    1.4573 H   0  0  0  0  0  0  0  0  0  0  0  0
    3.5942   -3.7437    0.3966 H   0  0  0  0  0  0  0  0  0  0  0  0
    1.2586   -4.0178    0.2029 H   0  0  0  0  0  0  0  0  0  0  0  0
    0.2713   -2.6177   -0.2023 H   0  0  0  0  0  0  0  0  0  0  0  0
    0.5037   -3.0853    1.5058 H   0  0  0  0  0  0  0  0  0  0  0  0
    0.3642   -1.0184    2.7522 H   0  0  0  0  0  0  0  0  0  0  0  0
    1.1704    0.5873    2.8048 H   0  0  0  0  0  0  0  0  0  0  0  0
   -1.0270    0.4317    0.3849 H   0  0  0  0  0  0  0  0  0  0  0  0
   -3.2990    1.9800    2.8943 H   0  0  0  0  0  0  0  0  0  0  0  0
   -5.4275    3.0067    2.3031 H   0  0  0  0  0  0  0  0  0  0  0  0
   -6.1990    3.0357   -0.0574 H   0  0  0  0  0  0  0  0  0  0  0  0
   -4.8075    2.0084   -1.8175 H   0  0  0  0  0  0  0  0  0  0  0  0
   -1.4957    2.6048   -2.0981 H   0  0  0  0  0  0  0  0  0  0  0  0
   -0.4980    1.3638   -1.3140 H   0  0  0  0  0  0  0  0  0  0  0  0
   -1.6363    1.2430   -4.1618 H   0  0  0  0  0  0  0  0  0  0  0  0
    0.0605    1.4125   -3.6878 H   0  0  0  0  0  0  0  0  0  0  0  0
   -2.7417   -0.8436   -3.7647 H   0  0  0  0  0  0  0  0  0  0  0  0
   -1.8275   -2.1630   -3.0188 H   0  0  0  0  0  0  0  0  0  0  0  0
   -3.4250   -1.0927   -1.3922 H   0  0  0  0  0  0  0  0  0  0  0  0
   -1.7301   -1.0036   -0.8701 H   0  0  0  0  0  0  0  0  0  0  0  0
    2.1553    1.9729    0.4412 H   0  0  0  0  0  0  0  0  0  0  0  0
    3.0770    1.8909    1.9659 H   0  0  0  0  0  0  0  0  0  0  0  0
    3.9076    2.1058    0.4094 H   0  0  0  0  0  0  0  0  0  0  0  0
    5.3466    0.1657    0.7182 H   0  0  0  0  0  0  0  0  0  0  0  0
  1  2  1  0
  2  3  2  0
  3  4  1  0
  4  5  1  0
  4  6  2  0
  6  7  1  0
  7  8  1  0
  8  9  1  0
  9 10  2  0
  9 11  1  0
 11 12  1  0
 12 13  2  0
 13 14  1  0
 14 15  2  0
 15 16  1  0
 16 17  2  0
 17 18  1  0
 18 19  1  0
 19 20  1  0
 20 21  1  0
 21 22  1  0
 22 23  1  0
  6 24  1  0
 24 25  1  0
 24 26  2  0
 26  2  1  0
 17 12  1  0
 23 18  1  0
  1 27  1  0
  1 28  1  0
  1 29  1  0
  3 30  1  0
  5 31  1  0
  5 32  1  0
  5 33  1  0
  8 34  1  0
  8 35  1  0
 11 36  1  0
 13 37  1  0
 14 38  1  0
 15 39  1  0
 16 40  1  0
 19 41  1  0
 19 42  1  0
 20 43  1  0
 20 44  1  0
 22 45  1  0
 22 46  1  0
 23 47  1  0
 23 48  1  0
 25 49  1  0
 25 50  1  0
 25 51  1  0
 26 52  1  0
M  END
$$$$
