
     RDKit          3D

 40 42  0  0  0  0  0  0  0  0999 V2000
   -2.4120    4.0398    3.2489 C   0  0  0  0  0  0  0  0  0  0  0  0
   -1.7396    3.2389    2.2839 O   0  0  0  0  0  0  0  0  0  0  0  0
   -1.9488    1.8867    2.3495 C   0  0  0  0  0  0  0  0  0  0  0  0
   -2.7383    1.2257    3.2853 C   0  0  0  0  0  0  0  0  0  0  0  0
   -2.8875   -0.1666    3.2489 C   0  0  0  0  0  0  0  0  0  0  0  0
   -2.2136   -0.8844    2.2485 C   0  0  0  0  0  0  0  0  0  0  0  0
   -1.3965   -0.2541    1.3039 C   0  0  0  0  0  0  0  0  0  0  0  0
   -1.2826    1.1531    1.3591 C   0  0  0  0  0  0  0  0  0  0  0  0
   -0.8677   -1.2787    0.4580 C   0  0  0  0  0  0  0  0  0  0  0  0
    0.0239   -1.1774   -0.6536 C   0  0  0  0  0  0  0  0  0  0  0  0
    1.0350   -0.2981   -0.7533 C   0  0  0  0  0  0  0  0  0  0  0  0
    1.9380   -0.2004   -1.9046 C   0  0  0  0  0  0  0  0  0  0  0  0
    2.4353   -1.3233   -2.5636 C   0  0  0  0  0  0  0  0  0  0  0  0
    3.3112   -1.1642   -3.6317 C   0  0  0  0  0  0  0  0  0  0  0  0
    3.6882    0.0692   -4.0360 N   0  0  0  0  0  4  0  0  0  0  0  0
    4.6236    0.2124   -5.1644 C   0  0  0  0  0  0  0  0  0  0  0  0
    3.2374    1.1719   -3.3979 C   0  0  0  0  0  0  0  0  0  0  0  0
    2.3621    1.0596   -2.3239 C   0  0  0  0  0  0  0  0  0  0  0  0
   -1.3975   -2.4798    0.8771 C   0  0  0  0  0  0  0  0  0  0  0  0
   -2.1929   -2.2340    1.9655 N   0  0  0  0  0  0  0  0  0  0  0  0
   -2.9163   -3.2463    2.7036 C   0  0  0  0  0  0  0  0  0  0  0  0
   -3.4987    3.9441    3.1537 H   0  0  0  0  0  0  0  0  0  0  0  0
   -2.1518    5.0848    3.0549 H   0  0  0  0  0  0  0  0  0  0  0  0
   -2.0794    3.7969    4.2635 H   0  0  0  0  0  0  0  0  0  0  0  0
   -3.2667    1.7644    4.0657 H   0  0  0  0  0  0  0  0  0  0  0  0
   -3.5158   -0.6672    3.9794 H   0  0  0  0  0  0  0  0  0  0  0  0
   -0.6858    1.6851    0.6260 H   0  0  0  0  0  0  0  0  0  0  0  0
   -0.1481   -1.8925   -1.4551 H   0  0  0  0  0  0  0  0  0  0  0  0
    1.2210    0.4062    0.0554 H   0  0  0  0  0  0  0  0  0  0  0  0
    2.1584   -2.3267   -2.2459 H   0  0  0  0  0  0  0  0  0  0  0  0
    3.7204   -2.0180   -4.1646 H   0  0  0  0  0  0  0  0  0  0  0  0
    4.4822   -0.6225   -5.8556 H   0  0  0  0  0  0  0  0  0  0  0  0
    5.6358    0.2102   -4.7525 H   0  0  0  0  0  0  0  0  0  0  0  0
    4.4161    1.1511   -5.6845 H   0  0  0  0  0  0  0  0  0  0  0  0
    3.5844    2.1389   -3.7514 H   0  0  0  0  0  0  0  0  0  0  0  0
    2.0081    1.9601   -1.8241 H   0  0  0  0  0  0  0  0  0  0  0  0
   -1.2639   -3.4868    0.5037 H   0  0  0  0  0  0  0  0  0  0  0  0
   -2.7202   -4.2287    2.2666 H   0  0  0  0  0  0  0  0  0  0  0  0
   -2.5734   -3.2284    3.7413 H   0  0  0  0  0  0  0  0  0  0  0  0
   -3.9841   -3.0210    2.6433 H   0  0  0  0  0  0  0  0  0  0  0  0
  1  2  1  0
  2  3  1  0
  3  4  2  0
  4  5  1  0
  5  6  2  0
  6  7  1  0
  7  8  2  0
  7  9  1  0
  9 10  1  0
 10 11  2  3
 11 12  1  0
 12 13  2  0
 13 14  1  0
 14 15  2  0
 15 16  1  0
 15 17  1  0
 17 18  2  0
  9 19  2  0
 19 20  1  0
 20 21  1  0
  8  3  1  0
 18 12  1  0
 20  6  1  0
  1 22  1  0
  1 23  1  0
  1 24  1  0
  4 25  1  0
  5 26  1  0
  8 27  1  0
 10 28  1  0
 11 29  1  0
 13 30  1  0
 14 31  1  0
 16 32  1  0
 16 33  1  0
 16 34  1  0
 17 35  1  0
 18 36  1  0
 19 37  1  0
 21 38  1  0
 21 39  1  0
 21 40  1  0
M  CHG  1  15   1
M  END
$$$$
