
     RDKit          3D

 26 28  0  0  0  0  0  0  0  0999 V2000
   -4.0354    0.8935   -0.2917 C   0  0  0  0  0  0  0  0  0  0  0  0
   -2.6046    0.5486   -0.1521 C   0  0  0  0  0  0  0  0  0  0  0  0
   -1.7207    1.5497   -0.4167 O   0  0  0  0  0  0  0  0  0  0  0  0
   -0.4723    1.0437   -0.2379 C   0  0  0  0  0  0  0  0  0  0  0  0
    0.7132    1.7503   -0.4125 C   0  0  0  0  0  0  0  0  0  0  0  0
    1.8824    1.0257   -0.1739 C   0  0  0  0  0  0  0  0  0  0  0  0
    3.1004    1.7215   -0.3448 O   0  0  0  0  0  0  0  0  0  0  0  0
    4.3241    1.1018   -0.1354 C   0  0  0  0  0  0  0  0  0  0  0  0
    5.3914    1.6869   -0.2780 O   0  0  0  0  0  0  0  0  0  0  0  0
    4.2916   -0.3131    0.2727 C   0  0  0  0  0  0  0  0  0  0  0  0
    3.1495   -0.9867    0.4391 C   0  0  0  0  0  0  0  0  0  0  0  0
    1.8780   -0.3160    0.2137 C   0  0  0  0  0  0  0  0  0  0  0  0
    0.6586   -0.9906    0.3785 C   0  0  0  0  0  0  0  0  0  0  0  0
   -0.5442   -0.2905    0.1466 C   0  0  0  0  0  0  0  0  0  0  0  0
   -1.9366   -0.6107    0.2057 C   0  0  0  0  0  0  0  0  0  0  0  0
   -2.5350   -1.9188    0.5686 C   0  0  0  0  0  0  0  0  0  0  0  0
   -4.5551    0.1407   -0.8924 H   0  0  0  0  0  0  0  0  0  0  0  0
   -4.5120    0.9401    0.6921 H   0  0  0  0  0  0  0  0  0  0  0  0
   -4.1658    1.8640   -0.7808 H   0  0  0  0  0  0  0  0  0  0  0  0
    0.7200    2.7895   -0.7132 H   0  0  0  0  0  0  0  0  0  0  0  0
    5.2570   -0.7781    0.4310 H   0  0  0  0  0  0  0  0  0  0  0  0
    3.1530   -2.0285    0.7403 H   0  0  0  0  0  0  0  0  0  0  0  0
    0.6298   -2.0334    0.6792 H   0  0  0  0  0  0  0  0  0  0  0  0
   -3.6061   -1.8276    0.7742 H   0  0  0  0  0  0  0  0  0  0  0  0
   -2.4041   -2.6347   -0.2490 H   0  0  0  0  0  0  0  0  0  0  0  0
   -2.0572   -2.3270    1.4650 H   0  0  0  0  0  0  0  0  0  0  0  0
  1  2  1  0
  2  3  1  0
  3  4  1  0
  4  5  2  0
  5  6  1  0
  6  7  1  0
  7  8  1  0
  8  9  2  0
  8 10  1  0
 10 11  2  0
 11 12  1  0
 12 13  1  0
 13 14  2  0
 14 15  1  0
 15 16  1  0
 15  2  2  0
 14  4  1  0
 12  6  2  0
  1 17  1  0
  1 18  1  0
  1 19  1  0
  5 20  1  0
 10 21  1  0
 11 22  1  0
 13 23  1  0
 16 24  1  0
 16 25  1  0
 16 26  1  0
M  END
$$$$
