
     RDKit          3D

 33 35  0  0  0  0  0  0  0  0999 V2000
    5.9752    0.3754    0.7310 C   0  0  0  0  0  0  0  0  0  0  0  0
    4.5155    0.2446    0.5854 N   0  0  0  0  0  4  0  0  0  0  0  0
    3.7359    1.3469    0.6478 C   0  0  0  0  0  0  0  0  0  0  0  0
    2.3548    1.2452    0.5233 C   0  0  0  0  0  0  0  0  0  0  0  0
    1.7673   -0.0030    0.3244 C   0  0  0  0  0  0  0  0  0  0  0  0
    0.3069   -0.0955    0.2225 C   0  0  0  0  0  0  0  0  0  0  0  0
   -0.3404   -0.9163   -0.6216 C   0  0  0  0  0  0  0  0  0  0  0  0
   -1.7599   -1.0313   -0.7328 C   0  0  0  0  0  0  0  0  0  0  0  0
   -2.3817   -2.2230   -1.0379 C   0  0  0  0  0  0  0  0  0  0  0  0
   -3.7336   -2.0029   -1.0517 N   0  0  0  0  0  0  0  0  0  0  0  0
   -4.0031   -0.6795   -0.7891 C   0  0  0  0  0  0  0  0  0  0  0  0
   -5.2338   -0.0147   -0.7191 C   0  0  0  0  0  0  0  0  0  0  0  0
   -5.2183    1.3564   -0.4542 C   0  0  0  0  0  0  0  0  0  0  0  0
   -4.0176    2.0356   -0.2734 C   0  0  0  0  0  0  0  0  0  0  0  0
   -2.7956    1.3555   -0.3450 C   0  0  0  0  0  0  0  0  0  0  0  0
   -2.7780   -0.0347   -0.5955 C   0  0  0  0  0  0  0  0  0  0  0  0
    2.5908   -1.1273    0.2875 C   0  0  0  0  0  0  0  0  0  0  0  0
    3.9671   -0.9794    0.4189 C   0  0  0  0  0  0  0  0  0  0  0  0
    6.2891    1.3452    0.3363 H   0  0  0  0  0  0  0  0  0  0  0  0
    6.2063    0.2946    1.7960 H   0  0  0  0  0  0  0  0  0  0  0  0
    6.4645   -0.4209    0.1642 H   0  0  0  0  0  0  0  0  0  0  0  0
    4.2253    2.3048    0.8005 H   0  0  0  0  0  0  0  0  0  0  0  0
    1.7443    2.1452    0.5745 H   0  0  0  0  0  0  0  0  0  0  0  0
   -0.2582    0.5530    0.8888 H   0  0  0  0  0  0  0  0  0  0  0  0
    0.2310   -1.5761   -1.2712 H   0  0  0  0  0  0  0  0  0  0  0  0
   -1.9900   -3.2127   -1.2316 H   0  0  0  0  0  0  0  0  0  0  0  0
   -4.4389   -2.7027   -1.2391 H   0  0  0  0  0  0  0  0  0  0  0  0
   -6.1724   -0.5388   -0.8706 H   0  0  0  0  0  0  0  0  0  0  0  0
   -6.1588    1.9005   -0.3970 H   0  0  0  0  0  0  0  0  0  0  0  0
   -4.0288    3.1056   -0.0802 H   0  0  0  0  0  0  0  0  0  0  0  0
   -1.8721    1.9096   -0.2191 H   0  0  0  0  0  0  0  0  0  0  0  0
    2.1708   -2.1246    0.1707 H   0  0  0  0  0  0  0  0  0  0  0  0
    4.6364   -1.8349    0.3985 H   0  0  0  0  0  0  0  0  0  0  0  0
  1  2  1  0
  2  3  2  0
  3  4  1  0
  4  5  2  0
  5  6  1  0
  6  7  2  3
  7  8  1  0
  8  9  2  0
  9 10  1  0
 10 11  1  0
 11 12  2  0
 12 13  1  0
 13 14  2  0
 14 15  1  0
 15 16  2  0
  5 17  1  0
 17 18  2  0
 18  2  1  0
 16  8  1  0
 16 11  1  0
  1 19  1  0
  1 20  1  0
  1 21  1  0
  3 22  1  0
  4 23  1  0
  6 24  1  0
  7 25  1  0
  9 26  1  0
 10 27  1  0
 12 28  1  0
 13 29  1  0
 14 30  1  0
 15 31  1  0
 17 32  1  0
 18 33  1  0
M  CHG  1   2   1
M  END
$$$$
