
     RDKit          3D

 74 80  0  0  0  0  0  0  0  0999 V2000
    1.5230   -2.8116   -0.4460 O   0  0  0  0  0  0  0  0  0  0  0  0
    2.1182   -1.5130   -0.6316 C   0  0  0  0  0  0  0  0  0  0  0  0
    2.8041   -1.4223   -2.0138 C   0  0  0  0  0  0  0  0  0  0  0  0
    3.5529   -0.1899   -2.2065 N   0  0  0  0  0  0  0  0  0  0  0  0
    4.6772    0.1644   -1.5054 C   0  0  0  0  0  0  0  0  0  0  0  0
    5.2082   -0.6820   -0.6651 N   0  0  0  0  0  0  0  0  0  0  0  0
    6.3436   -0.3204    0.0912 C   0  0  0  0  0  0  0  0  0  0  0  0
    6.8874   -1.2641    0.9688 C   0  0  0  0  0  0  0  0  0  0  0  0
    8.0048   -0.9502    1.7441 C   0  0  0  0  0  0  0  0  0  0  0  0
    8.5880    0.3172    1.6560 C   0  0  0  0  0  0  0  0  0  0  0  0
    8.0635    1.2740    0.7856 C   0  0  0  0  0  0  0  0  0  0  0  0
    6.9485    0.9435    0.0103 C   0  0  0  0  0  0  0  0  0  0  0  0
    6.3667    1.8401   -0.9023 N   0  0  0  0  0  0  0  0  0  0  0  0
    6.7125    3.1366   -1.2048 C   0  0  0  0  0  0  0  0  0  0  0  0
    5.8534    3.5954   -2.1810 C   0  0  0  0  0  0  0  0  0  0  0  0
    4.9423    2.5487   -2.4655 C   0  0  0  0  0  0  0  0  0  0  0  0
    5.2733    1.4767   -1.6564 C   0  0  0  0  0  0  0  0  0  0  0  0
    1.0826   -0.3882   -0.3828 C   0  0  0  0  0  0  0  0  0  0  0  0
    0.0570   -0.1811   -1.4343 N   0  0  0  0  0  0  0  0  0  0  0  0
   -0.6977    1.0672   -1.1841 C   0  0  0  0  0  0  0  0  0  0  0  0
   -1.6577    1.0163    0.0280 C   0  0  0  0  0  0  0  0  0  0  0  0
   -2.6131   -0.1179   -0.0102 N   0  0  0  0  0  0  0  0  0  0  0  0
   -3.4350   -0.1595    1.2352 C   0  0  0  0  0  0  0  0  0  0  0  0
   -4.2878    1.1036    1.4101 C   0  0  0  0  0  0  0  0  0  0  0  0
   -4.0117    1.9921    2.4690 C   0  0  0  0  0  0  0  0  0  0  0  0
   -4.7332    3.1813    2.6160 C   0  0  0  0  0  0  0  0  0  0  0  0
   -5.7484    3.4930    1.7167 C   0  0  0  0  0  0  0  0  0  0  0  0
   -6.0439    2.6175    0.6688 C   0  0  0  0  0  0  0  0  0  0  0  0
   -5.3153    1.4264    0.5020 C   0  0  0  0  0  0  0  0  0  0  0  0
   -5.6295    0.4988   -0.6420 C   0  0  0  0  0  0  0  0  0  0  0  0
   -6.2400   -0.8175   -0.1787 C   0  0  0  0  0  0  0  0  0  0  0  0
   -5.4785   -1.7332    0.7619 C   0  0  0  0  0  0  0  0  0  0  0  0
   -6.1061   -2.9754    1.0228 C   0  0  0  0  0  0  0  0  0  0  0  0
   -5.5626   -3.9116    1.9000 C   0  0  0  0  0  0  0  0  0  0  0  0
   -4.3727   -3.6284    2.5486 C   0  0  0  0  0  0  0  0  0  0  0  0
   -3.7355   -2.4106    2.3118 C   0  0  0  0  0  0  0  0  0  0  0  0
   -4.2632   -1.4421    1.4186 C   0  0  0  0  0  0  0  0  0  0  0  0
   -1.8885   -1.3771   -0.2826 C   0  0  0  0  0  0  0  0  0  0  0  0
   -0.9362   -1.2769   -1.5022 C   0  0  0  0  0  0  0  0  0  0  0  0
    2.2461   -3.4584   -0.5622 H   0  0  0  0  0  0  0  0  0  0  0  0
    2.8726   -1.4271    0.1577 H   0  0  0  0  0  0  0  0  0  0  0  0
    3.4777   -2.2789   -2.1450 H   0  0  0  0  0  0  0  0  0  0  0  0
    2.0626   -1.5272   -2.8155 H   0  0  0  0  0  0  0  0  0  0  0  0
    3.0922    0.5042   -2.7752 H   0  0  0  0  0  0  0  0  0  0  0  0
    6.4345   -2.2530    1.0360 H   0  0  0  0  0  0  0  0  0  0  0  0
    8.4282   -1.6924    2.4145 H   0  0  0  0  0  0  0  0  0  0  0  0
    9.4610    0.5509    2.2607 H   0  0  0  0  0  0  0  0  0  0  0  0
    8.5396    2.2488    0.7252 H   0  0  0  0  0  0  0  0  0  0  0  0
    7.5406    3.6324   -0.7175 H   0  0  0  0  0  0  0  0  0  0  0  0
    5.8710    4.5795   -2.6319 H   0  0  0  0  0  0  0  0  0  0  0  0
    4.1320    2.5840   -3.1794 H   0  0  0  0  0  0  0  0  0  0  0  0
    0.6157   -0.5486    0.5935 H   0  0  0  0  0  0  0  0  0  0  0  0
    1.6547    0.5417   -0.2979 H   0  0  0  0  0  0  0  0  0  0  0  0
   -0.0026    1.9113   -1.0682 H   0  0  0  0  0  0  0  0  0  0  0  0
   -1.2816    1.2945   -2.0865 H   0  0  0  0  0  0  0  0  0  0  0  0
   -1.0631    0.9833    0.9485 H   0  0  0  0  0  0  0  0  0  0  0  0
   -2.2048    1.9637    0.0369 H   0  0  0  0  0  0  0  0  0  0  0  0
   -2.7207   -0.1525    2.0731 H   0  0  0  0  0  0  0  0  0  0  0  0
   -3.2128    1.7761    3.1772 H   0  0  0  0  0  0  0  0  0  0  0  0
   -4.4872    3.8667    3.4269 H   0  0  0  0  0  0  0  0  0  0  0  0
   -6.3068    4.4206    1.8242 H   0  0  0  0  0  0  0  0  0  0  0  0
   -6.8411    2.8707   -0.0250 H   0  0  0  0  0  0  0  0  0  0  0  0
   -4.7425    0.3337   -1.2616 H   0  0  0  0  0  0  0  0  0  0  0  0
   -6.3500    0.9861   -1.3132 H   0  0  0  0  0  0  0  0  0  0  0  0
   -6.4761   -1.3954   -1.0832 H   0  0  0  0  0  0  0  0  0  0  0  0
   -7.2030   -0.5891    0.3039 H   0  0  0  0  0  0  0  0  0  0  0  0
   -7.0481   -3.2153    0.5327 H   0  0  0  0  0  0  0  0  0  0  0  0
   -6.0737   -4.8503    2.0781 H   0  0  0  0  0  0  0  0  0  0  0  0
   -3.9409   -4.3470    3.2389 H   0  0  0  0  0  0  0  0  0  0  0  0
   -2.7980   -2.2148    2.8327 H   0  0  0  0  0  0  0  0  0  0  0  0
   -2.6049   -2.1735   -0.5117 H   0  0  0  0  0  0  0  0  0  0  0  0
   -1.3207   -1.6995    0.5930 H   0  0  0  0  0  0  0  0  0  0  0  0
   -0.4507   -2.2384   -1.6893 H   0  0  0  0  0  0  0  0  0  0  0  0
   -1.5495   -1.1064   -2.3967 H   0  0  0  0  0  0  0  0  0  0  0  0
  1  2  1  0
  2  3  1  0
  3  4  1  0
  4  5  1  0
  5  6  2  0
  6  7  1  0
  7  8  2  0
  8  9  1  0
  9 10  2  0
 10 11  1  0
 11 12  2  0
 12 13  1  0
 13 14  1  0
 14 15  2  0
 15 16  1  0
 16 17  2  0
  2 18  1  0
 18 19  1  0
 19 20  1  0
 20 21  1  0
 21 22  1  0
 22 23  1  0
 23 24  1  0
 24 25  2  0
 25 26  1  0
 26 27  2  0
 27 28  1  0
 28 29  2  0
 29 30  1  0
 30 31  1  0
 31 32  1  0
 32 33  2  0
 33 34  1  0
 34 35  2  0
 35 36  1  0
 36 37  2  0
 22 38  1  0
 38 39  1  0
 17  5  1  0
 39 19  1  0
 12  7  1  0
 17 13  1  0
 37 23  1  0
 29 24  1  0
 37 32  1  0
  1 40  1  0
  2 41  1  0
  3 42  1  0
  3 43  1  0
  4 44  1  0
  8 45  1  0
  9 46  1  0
 10 47  1  0
 11 48  1  0
 14 49  1  0
 15 50  1  0
 16 51  1  0
 18 52  1  0
 18 53  1  0
 20 54  1  0
 20 55  1  0
 21 56  1  0
 21 57  1  0
 23 58  1  0
 25 59  1  0
 26 60  1  0
 27 61  1  0
 28 62  1  0
 30 63  1  0
 30 64  1  0
 31 65  1  0
 31 66  1  0
 33 67  1  0
 34 68  1  0
 35 69  1  0
 36 70  1  0
 38 71  1  0
 38 72  1  0
 39 73  1  0
 39 74  1  0
M  END
$$$$
