
     RDKit          3D

 36 37  0  0  0  0  0  0  0  0999 V2000
    1.6671    2.8494   -0.4468 O   0  0  0  0  0  0  0  0  0  0  0  0
    0.6830    2.1163   -0.4661 C   0  0  0  0  0  0  0  0  0  0  0  0
   -0.7075    2.6265   -0.8526 C   0  0  0  0  0  0  0  0  0  0  0  0
   -1.7767    1.7330   -0.5262 O   0  0  0  0  0  0  0  0  0  0  0  0
   -2.2147    1.8202    0.7546 C   0  0  0  0  0  0  0  0  0  0  0  0
   -1.7546    2.5455    1.6196 O   0  0  0  0  0  0  0  0  0  0  0  0
   -3.3367    0.8711    0.9894 C   0  0  0  0  0  0  0  0  0  0  0  0
   -3.8187    0.7291    2.2988 C   0  0  0  0  0  0  0  0  0  0  0  0
   -4.8685   -0.1515    2.5738 C   0  0  0  0  0  0  0  0  0  0  0  0
   -5.4392   -0.8900    1.5389 C   0  0  0  0  0  0  0  0  0  0  0  0
   -6.8587   -2.0817    1.9086 Br  0  0  0  0  0  0  0  0  0  0  0  0
   -4.9719   -0.7556    0.2320 C   0  0  0  0  0  0  0  0  0  0  0  0
   -3.9211    0.1249   -0.0444 C   0  0  0  0  0  0  0  0  0  0  0  0
    0.7493    0.7628   -0.2172 N   0  0  0  0  0  0  0  0  0  0  0  0
    1.9819    0.1047    0.1748 C   0  0  0  0  0  0  0  0  0  0  0  0
    2.9607   -0.0803   -0.9907 C   0  0  0  0  0  0  0  0  0  0  0  0
    4.0422   -0.9920   -0.6579 N   0  0  0  0  0  0  0  0  0  0  0  0
    3.9434   -2.3568   -0.7731 C   0  0  0  0  0  0  0  0  0  0  0  0
    2.7869   -2.8979   -1.2498 O   0  0  0  0  0  0  0  0  0  0  0  0
    5.0315   -3.0292   -0.3812 C   0  0  0  0  0  0  0  0  0  0  0  0
    6.2683   -1.9485    0.1841 S   0  0  0  0  0  0  0  0  0  0  0  0
    5.2354   -0.5358   -0.1207 C   0  0  0  0  0  0  0  0  0  0  0  0
    5.5707    0.6085    0.1297 O   0  0  0  0  0  0  0  0  0  0  0  0
   -0.7159    2.7519   -1.9405 H   0  0  0  0  0  0  0  0  0  0  0  0
   -0.8696    3.6138   -0.4045 H   0  0  0  0  0  0  0  0  0  0  0  0
   -3.3782    1.3048    3.1119 H   0  0  0  0  0  0  0  0  0  0  0  0
   -5.2314   -0.2508    3.5940 H   0  0  0  0  0  0  0  0  0  0  0  0
   -5.4197   -1.3277   -0.5771 H   0  0  0  0  0  0  0  0  0  0  0  0
   -3.5763    0.2213   -1.0711 H   0  0  0  0  0  0  0  0  0  0  0  0
   -0.1017    0.2183   -0.2832 H   0  0  0  0  0  0  0  0  0  0  0  0
    1.6949   -0.8640    0.5980 H   0  0  0  0  0  0  0  0  0  0  0  0
    2.4538    0.6879    0.9740 H   0  0  0  0  0  0  0  0  0  0  0  0
    2.4403   -0.4543   -1.8809 H   0  0  0  0  0  0  0  0  0  0  0  0
    3.3904    0.8899   -1.2672 H   0  0  0  0  0  0  0  0  0  0  0  0
    2.9011   -3.8627   -1.2974 H   0  0  0  0  0  0  0  0  0  0  0  0
    5.1605   -4.1012   -0.3882 H   0  0  0  0  0  0  0  0  0  0  0  0
  1  2  2  0
  2  3  1  0
  3  4  1  0
  4  5  1  0
  5  6  2  0
  5  7  1  0
  7  8  2  0
  8  9  1  0
  9 10  2  0
 10 11  1  0
 10 12  1  0
 12 13  2  0
  2 14  1  0
 14 15  1  0
 15 16  1  0
 16 17  1  0
 17 18  1  0
 18 19  1  0
 18 20  2  0
 20 21  1  0
 21 22  1  0
 22 23  2  0
 13  7  1  0
 22 17  1  0
  3 24  1  0
  3 25  1  0
  8 26  1  0
  9 27  1  0
 12 28  1  0
 13 29  1  0
 14 30  1  0
 15 31  1  0
 15 32  1  0
 16 33  1  0
 16 34  1  0
 19 35  1  0
 20 36  1  0
M  END
$$$$
