
     RDKit          3D

 40 42  0  0  0  0  0  0  0  0999 V2000
    0.3501   -2.6253   -0.9218 O   0  0  0  0  0  0  0  0  0  0  0  0
    0.7825   -1.6204   -0.3624 C   0  0  0  0  0  0  0  0  0  0  0  0
    1.4978   -1.6885    0.9754 C   0  0  0  0  0  0  0  0  0  0  0  0
    2.8601   -1.0345    0.9776 C   0  0  0  0  0  0  0  0  0  0  0  0
    3.1288    0.0486    1.8260 C   0  0  0  0  0  0  0  0  0  0  0  0
    4.3873    0.6518    1.8242 C   0  0  0  0  0  0  0  0  0  0  0  0
    5.3890    0.1758    0.9798 C   0  0  0  0  0  0  0  0  0  0  0  0
    5.1350   -0.9052    0.1380 C   0  0  0  0  0  0  0  0  0  0  0  0
    3.8775   -1.5099    0.1382 C   0  0  0  0  0  0  0  0  0  0  0  0
    0.6162   -0.3491   -0.8592 N   0  0  0  0  0  0  0  0  0  0  0  0
   -0.1733   -0.0589   -2.0467 C   0  0  0  0  0  0  0  0  0  0  0  0
   -1.4323    0.7815   -1.7299 C   0  0  0  0  0  0  0  0  0  0  0  0
   -0.9576    2.0813   -1.3046 O   0  0  0  0  0  0  0  0  0  0  0  0
   -2.0345    2.9243   -0.8988 C   0  0  0  0  0  0  0  0  0  0  0  0
   -2.6169    2.4009    0.4060 C   0  0  0  0  0  0  0  0  0  0  0  0
   -2.9925    0.9479    0.2743 C   0  0  0  0  0  0  0  0  0  0  0  0
   -3.8903    0.3753    1.1860 C   0  0  0  0  0  0  0  0  0  0  0  0
   -4.2260   -0.9732    1.0902 C   0  0  0  0  0  0  0  0  0  0  0  0
   -3.6660   -1.7576    0.0869 C   0  0  0  0  0  0  0  0  0  0  0  0
   -2.7639   -1.1974   -0.8193 C   0  0  0  0  0  0  0  0  0  0  0  0
   -2.3975    0.1551   -0.7282 C   0  0  0  0  0  0  0  0  0  0  0  0
    1.6123   -2.7418    1.2611 H   0  0  0  0  0  0  0  0  0  0  0  0
    0.8418   -1.2277    1.7243 H   0  0  0  0  0  0  0  0  0  0  0  0
    2.3614    0.4295    2.4965 H   0  0  0  0  0  0  0  0  0  0  0  0
    4.5880    1.4914    2.4838 H   0  0  0  0  0  0  0  0  0  0  0  0
    6.3679    0.6473    0.9791 H   0  0  0  0  0  0  0  0  0  0  0  0
    5.9161   -1.2784   -0.5191 H   0  0  0  0  0  0  0  0  0  0  0  0
    3.6939   -2.3544   -0.5236 H   0  0  0  0  0  0  0  0  0  0  0  0
    0.9779    0.4427   -0.3421 H   0  0  0  0  0  0  0  0  0  0  0  0
   -0.4380   -0.9883   -2.5601 H   0  0  0  0  0  0  0  0  0  0  0  0
    0.4870    0.5123   -2.7089 H   0  0  0  0  0  0  0  0  0  0  0  0
   -1.9809    0.9336   -2.6690 H   0  0  0  0  0  0  0  0  0  0  0  0
   -2.7877    2.9784   -1.6947 H   0  0  0  0  0  0  0  0  0  0  0  0
   -1.6364    3.9329   -0.7501 H   0  0  0  0  0  0  0  0  0  0  0  0
   -1.8679    2.4808    1.2033 H   0  0  0  0  0  0  0  0  0  0  0  0
   -3.4878    3.0034    0.6861 H   0  0  0  0  0  0  0  0  0  0  0  0
   -4.3326    0.9793    1.9752 H   0  0  0  0  0  0  0  0  0  0  0  0
   -4.9234   -1.4124    1.7983 H   0  0  0  0  0  0  0  0  0  0  0  0
   -3.9256   -2.8102    0.0097 H   0  0  0  0  0  0  0  0  0  0  0  0
   -2.3394   -1.8408   -1.5877 H   0  0  0  0  0  0  0  0  0  0  0  0
  1  2  2  0
  2  3  1  0
  3  4  1  0
  4  5  2  0
  5  6  1  0
  6  7  2  0
  7  8  1  0
  8  9  2  0
  2 10  1  0
 10 11  1  0
 11 12  1  0
 12 13  1  0
 13 14  1  0
 14 15  1  0
 15 16  1  0
 16 17  2  0
 17 18  1  0
 18 19  2  0
 19 20  1  0
 20 21  2  0
  9  4  1  0
 21 12  1  0
 21 16  1  0
  3 22  1  0
  3 23  1  0
  5 24  1  0
  6 25  1  0
  7 26  1  0
  8 27  1  0
  9 28  1  0
 10 29  1  0
 11 30  1  0
 11 31  1  0
 12 32  1  0
 14 33  1  0
 14 34  1  0
 15 35  1  0
 15 36  1  0
 17 37  1  0
 18 38  1  0
 19 39  1  0
 20 40  1  0
M  END
$$$$
