
     RDKit          3D

 46 48  0  0  0  0  0  0  0  0999 V2000
   -5.3038   -2.8687   -2.3622 C   0  0  0  0  0  0  0  0  0  0  0  0
   -5.9586   -2.0968   -1.3662 O   0  0  0  0  0  0  0  0  0  0  0  0
   -5.1546   -1.4047   -0.4970 C   0  0  0  0  0  0  0  0  0  0  0  0
   -3.7648   -1.3057   -0.5600 C   0  0  0  0  0  0  0  0  0  0  0  0
   -3.0606   -0.5531    0.3968 C   0  0  0  0  0  0  0  0  0  0  0  0
   -1.5961   -0.5084    0.3207 C   0  0  0  0  0  0  0  0  0  0  0  0
   -0.8464    0.6028    0.3795 C   0  0  0  0  0  0  0  0  0  0  0  0
   -1.2368    2.0448    0.4914 C   0  0  0  0  0  0  0  0  0  0  0  0
   -0.0305    2.8159   -0.0400 C   0  0  0  0  0  0  0  0  0  0  0  0
    1.1464    1.9175    0.2095 C   0  0  0  0  0  0  0  0  0  0  0  0
    2.4107    2.3316    0.3875 C   0  0  0  0  0  0  0  0  0  0  0  0
    3.5583    1.4686    0.6813 C   0  0  0  0  0  0  0  0  0  0  0  0
    4.1307    1.4982    1.9608 C   0  0  0  0  0  0  0  0  0  0  0  0
    5.2173    0.6776    2.2612 C   0  0  0  0  0  0  0  0  0  0  0  0
    5.7235   -0.1625    1.2794 C   0  0  0  0  0  0  0  0  0  0  0  0
    6.7849   -0.9657    1.5999 O   0  0  0  0  0  0  0  0  0  0  0  0
    5.1716   -0.2069   -0.0083 C   0  0  0  0  0  0  0  0  0  0  0  0
    5.7756   -1.0892   -0.8695 O   0  0  0  0  0  0  0  0  0  0  0  0
    5.1438   -1.2693   -2.1312 C   0  0  0  0  0  0  0  0  0  0  0  0
    4.0885    0.6210   -0.3051 C   0  0  0  0  0  0  0  0  0  0  0  0
    0.6356    0.5178    0.2772 C   0  0  0  0  0  0  0  0  0  0  0  0
    1.2804   -0.5112    0.2266 O   0  0  0  0  0  0  0  0  0  0  0  0
   -3.7613    0.0808    1.4300 C   0  0  0  0  0  0  0  0  0  0  0  0
   -5.1502   -0.0077    1.4935 C   0  0  0  0  0  0  0  0  0  0  0  0
   -5.8296   -0.7448    0.5327 C   0  0  0  0  0  0  0  0  0  0  0  0
   -7.1919   -0.8206    0.6187 O   0  0  0  0  0  0  0  0  0  0  0  0
   -4.7599   -2.2275   -3.0611 H   0  0  0  0  0  0  0  0  0  0  0  0
   -6.0718   -3.4024   -2.9292 H   0  0  0  0  0  0  0  0  0  0  0  0
   -4.6423   -3.6171   -1.9139 H   0  0  0  0  0  0  0  0  0  0  0  0
   -3.2035   -1.7986   -1.3461 H   0  0  0  0  0  0  0  0  0  0  0  0
   -1.1116   -1.4780    0.2002 H   0  0  0  0  0  0  0  0  0  0  0  0
   -2.1361    2.2903   -0.0824 H   0  0  0  0  0  0  0  0  0  0  0  0
   -1.4112    2.3014    1.5435 H   0  0  0  0  0  0  0  0  0  0  0  0
   -0.1361    2.9861   -1.1192 H   0  0  0  0  0  0  0  0  0  0  0  0
    0.0632    3.7896    0.4543 H   0  0  0  0  0  0  0  0  0  0  0  0
    2.6453    3.3949    0.3444 H   0  0  0  0  0  0  0  0  0  0  0  0
    3.7323    2.1513    2.7313 H   0  0  0  0  0  0  0  0  0  0  0  0
    5.6618    0.6867    3.2495 H   0  0  0  0  0  0  0  0  0  0  0  0
    6.9561   -1.4792    0.7874 H   0  0  0  0  0  0  0  0  0  0  0  0
    5.1854   -0.3504   -2.7226 H   0  0  0  0  0  0  0  0  0  0  0  0
    5.6993   -2.0416   -2.6760 H   0  0  0  0  0  0  0  0  0  0  0  0
    4.1129   -1.6215   -2.0171 H   0  0  0  0  0  0  0  0  0  0  0  0
    3.6239    0.6142   -1.2882 H   0  0  0  0  0  0  0  0  0  0  0  0
   -3.2321    0.6383    2.1997 H   0  0  0  0  0  0  0  0  0  0  0  0
   -5.6975    0.4834    2.2897 H   0  0  0  0  0  0  0  0  0  0  0  0
   -7.4598   -1.3811   -0.1338 H   0  0  0  0  0  0  0  0  0  0  0  0
  1  2  1  0
  2  3  1  0
  3  4  2  0
  4  5  1  0
  5  6  1  0
  6  7  2  3
  7  8  1  0
  8  9  1  0
  9 10  1  0
 10 11  2  3
 11 12  1  0
 12 13  2  0
 13 14  1  0
 14 15  2  0
 15 16  1  0
 15 17  1  0
 17 18  1  0
 18 19  1  0
 17 20  2  0
 10 21  1  0
 21 22  2  0
  5 23  2  0
 23 24  1  0
 24 25  2  0
 25 26  1  0
 25  3  1  0
 21  7  1  0
 20 12  1  0
  1 27  1  0
  1 28  1  0
  1 29  1  0
  4 30  1  0
  6 31  1  0
  8 32  1  0
  8 33  1  0
  9 34  1  0
  9 35  1  0
 11 36  1  0
 13 37  1  0
 14 38  1  0
 16 39  1  0
 19 40  1  0
 19 41  1  0
 19 42  1  0
 20 43  1  0
 23 44  1  0
 24 45  1  0
 26 46  1  0
M  END
$$$$
