
     RDKit          3D

 43 45  0  0  0  0  0  0  0  0999 V2000
    6.2060    1.6891    3.5131 C   0  0  0  0  0  0  0  0  0  0  0  0
    5.1647    1.1541    2.6951 O   0  0  0  0  0  0  0  0  0  0  0  0
    5.6125    0.4334    1.6363 C   0  0  0  0  0  0  0  0  0  0  0  0
    6.7832    0.2209    1.3622 O   0  0  0  0  0  0  0  0  0  0  0  0
    4.4718   -0.0832    0.8315 C   0  0  0  0  0  0  0  0  0  0  0  0
    4.7559   -0.8365   -0.3129 C   0  0  0  0  0  0  0  0  0  0  0  0
    3.7152   -1.3396   -1.0984 C   0  0  0  0  0  0  0  0  0  0  0  0
    2.3818   -1.1078   -0.7510 C   0  0  0  0  0  0  0  0  0  0  0  0
    1.4681   -1.6552   -1.6071 O   0  0  0  0  0  0  0  0  0  0  0  0
    0.1131   -1.7294   -1.1831 C   0  0  0  0  0  0  0  0  0  0  0  0
   -0.7427   -0.4602   -1.4002 C   0  0  0  0  0  0  0  0  0  0  0  0
   -0.2215    0.5362   -1.9038 O   0  0  0  0  0  0  0  0  0  0  0  0
   -2.0968   -0.5465   -0.9876 N   0  0  0  0  0  0  0  0  0  0  0  0
   -2.7023   -1.8673   -0.7602 C   0  0  0  0  0  0  0  0  0  0  0  0
   -4.0475   -1.8458   -0.0596 C   0  0  0  0  0  0  0  0  0  0  0  0
   -4.9945   -0.9595   -0.8358 C   0  0  0  0  0  0  0  0  0  0  0  0
   -4.3895    0.4094   -0.9709 C   0  0  0  0  0  0  0  0  0  0  0  0
   -5.2636    1.5095   -1.0597 C   0  0  0  0  0  0  0  0  0  0  0  0
   -4.7676    2.8023   -1.1751 C   0  0  0  0  0  0  0  0  0  0  0  0
   -3.3956    3.0044   -1.1998 C   0  0  0  0  0  0  0  0  0  0  0  0
   -2.5209    1.9134   -1.1293 C   0  0  0  0  0  0  0  0  0  0  0  0
   -2.9902    0.5932   -1.0422 C   0  0  0  0  0  0  0  0  0  0  0  0
    2.0958   -0.3483    0.3836 C   0  0  0  0  0  0  0  0  0  0  0  0
    3.1355    0.1606    1.1735 C   0  0  0  0  0  0  0  0  0  0  0  0
    5.7413    2.2513    4.3279 H   0  0  0  0  0  0  0  0  0  0  0  0
    6.8055    0.8826    3.9468 H   0  0  0  0  0  0  0  0  0  0  0  0
    6.8350    2.3733    2.9350 H   0  0  0  0  0  0  0  0  0  0  0  0
    5.7865   -1.0316   -0.6028 H   0  0  0  0  0  0  0  0  0  0  0  0
    3.9472   -1.9172   -1.9904 H   0  0  0  0  0  0  0  0  0  0  0  0
   -0.3328   -2.5245   -1.7908 H   0  0  0  0  0  0  0  0  0  0  0  0
    0.0612   -2.0479   -0.1355 H   0  0  0  0  0  0  0  0  0  0  0  0
   -2.0302   -2.4789   -0.1519 H   0  0  0  0  0  0  0  0  0  0  0  0
   -2.7867   -2.3563   -1.7392 H   0  0  0  0  0  0  0  0  0  0  0  0
   -4.4518   -2.8616    0.0114 H   0  0  0  0  0  0  0  0  0  0  0  0
   -3.9275   -1.4701    0.9649 H   0  0  0  0  0  0  0  0  0  0  0  0
   -5.9514   -0.9095   -0.3031 H   0  0  0  0  0  0  0  0  0  0  0  0
   -5.1866   -1.3689   -1.8347 H   0  0  0  0  0  0  0  0  0  0  0  0
   -6.3407    1.3587   -1.0318 H   0  0  0  0  0  0  0  0  0  0  0  0
   -5.4468    3.6479   -1.2375 H   0  0  0  0  0  0  0  0  0  0  0  0
   -2.9929    4.0113   -1.2756 H   0  0  0  0  0  0  0  0  0  0  0  0
   -1.4614    2.1482   -1.1285 H   0  0  0  0  0  0  0  0  0  0  0  0
    1.0780   -0.1090    0.6729 H   0  0  0  0  0  0  0  0  0  0  0  0
    2.8834    0.7553    2.0483 H   0  0  0  0  0  0  0  0  0  0  0  0
  1  2  1  0
  2  3  1  0
  3  4  2  0
  3  5  1  0
  5  6  2  0
  6  7  1  0
  7  8  2  0
  8  9  1  0
  9 10  1  0
 10 11  1  0
 11 12  2  0
 11 13  1  0
 13 14  1  0
 14 15  1  0
 15 16  1  0
 16 17  1  0
 17 18  2  0
 18 19  1  0
 19 20  2  0
 20 21  1  0
 21 22  2  0
  8 23  1  0
 23 24  2  0
 24  5  1  0
 22 13  1  0
 22 17  1  0
  1 25  1  0
  1 26  1  0
  1 27  1  0
  6 28  1  0
  7 29  1  0
 10 30  1  0
 10 31  1  0
 14 32  1  0
 14 33  1  0
 15 34  1  0
 15 35  1  0
 16 36  1  0
 16 37  1  0
 18 38  1  0
 19 39  1  0
 20 40  1  0
 21 41  1  0
 23 42  1  0
 24 43  1  0
M  END
$$$$
