
     RDKit          3D

 43 45  0  0  0  0  0  0  0  0999 V2000
   -1.1550    5.2255   -0.7126 C   0  0  0  0  0  0  0  0  0  0  0  0
   -2.1174    4.1219   -0.3873 C   0  0  0  0  0  0  0  0  0  0  0  0
   -2.6043    3.9406    0.7201 O   0  0  0  0  0  0  0  0  0  0  0  0
   -2.3476    3.3813   -1.5405 O   0  0  0  0  0  0  0  0  0  0  0  0
   -3.1962    2.2883   -1.3256 C   0  0  0  0  0  0  0  0  0  0  0  0
   -4.5768    2.5025   -1.3609 C   0  0  0  0  0  0  0  0  0  0  0  0
   -5.4405    1.4245   -1.1826 C   0  0  0  0  0  0  0  0  0  0  0  0
   -4.9234    0.1435   -0.9886 C   0  0  0  0  0  0  0  0  0  0  0  0
   -3.5399   -0.0650   -0.9743 C   0  0  0  0  0  0  0  0  0  0  0  0
   -2.6528    1.0077   -1.1399 C   0  0  0  0  0  0  0  0  0  0  0  0
   -1.1985    0.7891   -1.1812 C   0  0  0  0  0  0  0  0  0  0  0  0
   -0.5448    0.0343   -0.2829 C   0  0  0  0  0  0  0  0  0  0  0  0
    0.8976   -0.2339   -0.2798 C   0  0  0  0  0  0  0  0  0  0  0  0
    1.8377    0.6394   -0.8074 C   0  0  0  0  0  0  0  0  0  0  0  0
    3.1840    0.2952   -0.7333 C   0  0  0  0  0  0  0  0  0  0  0  0
    3.5655   -0.9048   -0.1240 C   0  0  0  0  0  0  0  0  0  0  0  0
    4.9185   -1.2891   -0.0412 C   0  0  0  0  0  0  0  0  0  0  0  0
    5.2824   -2.4927    0.5630 C   0  0  0  0  0  0  0  0  0  0  0  0
    4.2999   -3.3162    1.0966 C   0  0  0  0  0  0  0  0  0  0  0  0
    2.9636   -2.9122    1.0261 C   0  0  0  0  0  0  0  0  0  0  0  0
    1.9953   -3.7777    1.5557 O   0  0  0  0  0  0  0  0  0  0  0  0
    1.5651   -3.3602    2.8076 C   0  0  0  0  0  0  0  0  0  0  0  0
    0.3756   -4.1818    3.2066 C   0  0  0  0  0  0  0  0  0  0  0  0
    2.0780   -2.5045    3.5177 O   0  0  0  0  0  0  0  0  0  0  0  0
    2.5524   -1.7260    0.4088 C   0  0  0  0  0  0  0  0  0  0  0  0
    1.2432   -1.3922    0.3264 N   0  0  0  0  0  0  0  0  0  0  0  0
   -0.2135    4.8019   -1.0715 H   0  0  0  0  0  0  0  0  0  0  0  0
   -1.5914    5.8885   -1.4637 H   0  0  0  0  0  0  0  0  0  0  0  0
   -0.9520    5.8070    0.1913 H   0  0  0  0  0  0  0  0  0  0  0  0
   -4.9760    3.5002   -1.5150 H   0  0  0  0  0  0  0  0  0  0  0  0
   -6.5160    1.5807   -1.1953 H   0  0  0  0  0  0  0  0  0  0  0  0
   -5.5976   -0.6988   -0.8540 H   0  0  0  0  0  0  0  0  0  0  0  0
   -3.1635   -1.0774   -0.8441 H   0  0  0  0  0  0  0  0  0  0  0  0
   -0.6799    1.2853   -1.9961 H   0  0  0  0  0  0  0  0  0  0  0  0
   -1.0833   -0.4602    0.5225 H   0  0  0  0  0  0  0  0  0  0  0  0
    1.5472    1.5789   -1.2626 H   0  0  0  0  0  0  0  0  0  0  0  0
    3.9290    0.9695   -1.1478 H   0  0  0  0  0  0  0  0  0  0  0  0
    5.6976   -0.6499   -0.4517 H   0  0  0  0  0  0  0  0  0  0  0  0
    6.3286   -2.7821    0.6192 H   0  0  0  0  0  0  0  0  0  0  0  0
    4.5656   -4.2549    1.5728 H   0  0  0  0  0  0  0  0  0  0  0  0
   -0.0339   -3.7942    4.1438 H   0  0  0  0  0  0  0  0  0  0  0  0
   -0.3995   -4.1101    2.4391 H   0  0  0  0  0  0  0  0  0  0  0  0
    0.6768   -5.2217    3.3542 H   0  0  0  0  0  0  0  0  0  0  0  0
  1  2  1  0
  2  3  2  0
  2  4  1  0
  4  5  1  0
  5  6  2  0
  6  7  1  0
  7  8  2  0
  8  9  1  0
  9 10  2  0
 10 11  1  0
 11 12  2  0
 12 13  1  0
 13 14  2  0
 14 15  1  0
 15 16  2  0
 16 17  1  0
 17 18  2  0
 18 19  1  0
 19 20  2  0
 20 21  1  0
 21 22  1  0
 22 23  1  0
 22 24  2  0
 20 25  1  0
 25 26  2  0
 10  5  1  0
 26 13  1  0
 25 16  1  0
  1 27  1  0
  1 28  1  0
  1 29  1  0
  6 30  1  0
  7 31  1  0
  8 32  1  0
  9 33  1  0
 11 34  1  0
 12 35  1  0
 14 36  1  0
 15 37  1  0
 17 38  1  0
 18 39  1  0
 19 40  1  0
 23 41  1  0
 23 42  1  0
 23 43  1  0
M  END
$$$$
