
     RDKit          3D

 80 86  0  0  0  0  0  0  0  0999 V2000
    6.8341   -2.1791    0.7429 C   0  0  0  0  0  0  0  0  0  0  0  0
    5.9548   -1.7788    1.9332 C   0  0  0  0  0  0  0  0  0  0  0  0
    6.5065   -0.5530    2.6700 C   0  0  0  0  0  0  0  0  0  0  0  0
    5.8995   -2.9574    2.9179 C   0  0  0  0  0  0  0  0  0  0  0  0
    4.5767   -1.5761    1.5292 O   0  0  0  0  0  0  0  0  0  0  0  0
    4.2423   -0.6038    0.6411 C   0  0  0  0  0  0  0  0  0  0  0  0
    5.0441    0.1644    0.1264 O   0  0  0  0  0  0  0  0  0  0  0  0
    2.8823   -0.5836    0.3809 N   0  0  0  0  0  0  0  0  0  0  0  0
    1.9256   -1.3212    1.2298 C   0  0  0  0  0  0  0  0  0  0  0  0
    0.5302   -1.5315    0.5867 C   0  0  0  0  0  0  0  0  0  0  0  0
    0.0712   -0.2721    0.0283 N   0  0  0  0  0  0  0  0  0  0  0  0
    1.0194    0.1985   -1.0364 C   0  0  2  0  0  0  0  0  0  0  0  0
    2.3479    0.5618   -0.3847 C   0  0  0  0  0  0  0  0  0  0  0  0
    0.2014    1.2618   -1.6506 C   0  0  0  0  0  0  0  0  0  0  0  0
   -1.1613    1.0588   -1.3606 C   0  0  0  0  0  0  0  0  0  0  0  0
   -1.8771    2.0469   -1.9830 C   0  0  0  0  0  0  0  0  0  0  0  0
   -3.1781    2.3090   -2.0243 O   0  0  0  0  0  0  0  0  0  0  0  0
   -0.9517    2.8592   -2.6362 N   0  0  0  0  0  0  0  0  0  0  0  0
   -1.3265    4.0285   -3.4239 C   0  0  0  0  0  0  0  0  0  0  0  0
   -1.3664    5.2833   -2.5852 C   0  0  0  0  0  0  0  0  0  0  0  0
   -2.5609    5.6725   -1.9588 C   0  0  0  0  0  0  0  0  0  0  0  0
   -2.6119    6.8250   -1.1733 C   0  0  0  0  0  0  0  0  0  0  0  0
   -1.4684    7.6008   -1.0001 C   0  0  0  0  0  0  0  0  0  0  0  0
   -0.2738    7.2235   -1.6100 C   0  0  0  0  0  0  0  0  0  0  0  0
   -0.2213    6.0714   -2.3978 C   0  0  0  0  0  0  0  0  0  0  0  0
    0.3354    2.3574   -2.4547 C   0  0  0  0  0  0  0  0  0  0  0  0
    1.4427    2.8665   -2.9795 O   0  0  0  0  0  0  0  0  0  0  0  0
   -1.3100   -0.1375   -0.4897 C   0  0  1  0  0  0  0  0  0  0  0  0
   -1.8509   -1.3801   -1.2403 C   0  0  0  0  0  0  0  0  0  0  0  0
   -1.3216   -1.9846   -2.1641 O   0  0  0  0  0  0  0  0  0  0  0  0
   -3.0790   -1.7035   -0.6347 N   0  0  0  0  0  0  0  0  0  0  0  0
   -3.8471   -2.8745   -0.9893 C   0  0  0  0  0  0  0  0  0  0  0  0
   -3.4728   -4.0839   -0.1625 C   0  0  0  0  0  0  0  0  0  0  0  0
   -2.2731   -4.7686   -0.4118 C   0  0  0  0  0  0  0  0  0  0  0  0
   -1.9134   -5.8774    0.3557 C   0  0  0  0  0  0  0  0  0  0  0  0
   -2.7478   -6.3148    1.3813 C   0  0  0  0  0  0  0  0  0  0  0  0
   -3.9426   -5.6456    1.6388 C   0  0  0  0  0  0  0  0  0  0  0  0
   -4.3043   -4.5364    0.8715 C   0  0  0  0  0  0  0  0  0  0  0  0
   -3.3771   -0.8218    0.4167 C   0  0  0  0  0  0  0  0  0  0  0  0
   -4.4804   -0.8089    1.2506 C   0  0  0  0  0  0  0  0  0  0  0  0
   -4.5515    0.1839    2.2330 C   0  0  0  0  0  0  0  0  0  0  0  0
   -3.5293    1.1369    2.3690 C   0  0  0  0  0  0  0  0  0  0  0  0
   -2.4205    1.1143    1.5224 C   0  0  0  0  0  0  0  0  0  0  0  0
   -2.3602    0.1321    0.5432 C   0  0  0  0  0  0  0  0  0  0  0  0
    6.3718   -2.9949    0.1752 H   0  0  0  0  0  0  0  0  0  0  0  0
    7.8273   -2.5034    1.0729 H   0  0  0  0  0  0  0  0  0  0  0  0
    6.9782   -1.3510    0.0424 H   0  0  0  0  0  0  0  0  0  0  0  0
    5.8187   -0.2324    3.4609 H   0  0  0  0  0  0  0  0  0  0  0  0
    6.6361    0.3033    2.0013 H   0  0  0  0  0  0  0  0  0  0  0  0
    7.4819   -0.7657    3.1209 H   0  0  0  0  0  0  0  0  0  0  0  0
    5.2421   -2.7270    3.7640 H   0  0  0  0  0  0  0  0  0  0  0  0
    6.8911   -3.2086    3.3082 H   0  0  0  0  0  0  0  0  0  0  0  0
    5.4816   -3.8488    2.4359 H   0  0  0  0  0  0  0  0  0  0  0  0
    1.8218   -0.7412    2.1557 H   0  0  0  0  0  0  0  0  0  0  0  0
    2.3418   -2.2976    1.5001 H   0  0  0  0  0  0  0  0  0  0  0  0
   -0.1588   -1.8933    1.3578 H   0  0  0  0  0  0  0  0  0  0  0  0
    0.6020   -2.3066   -0.1856 H   0  0  0  0  0  0  0  0  0  0  0  0
    1.1762   -0.5978   -1.7784 H   0  0  0  0  0  0  0  0  0  0  0  0
    2.2386    1.3998    0.3162 H   0  0  0  0  0  0  0  0  0  0  0  0
    3.0731    0.8717   -1.1457 H   0  0  0  0  0  0  0  0  0  0  0  0
   -3.6188    1.6893   -1.4149 H   0  0  0  0  0  0  0  0  0  0  0  0
   -0.6193    4.1324   -4.2537 H   0  0  0  0  0  0  0  0  0  0  0  0
   -2.3019    3.8344   -3.8859 H   0  0  0  0  0  0  0  0  0  0  0  0
   -3.4606    5.0703   -2.0746 H   0  0  0  0  0  0  0  0  0  0  0  0
   -3.5434    7.1129   -0.6926 H   0  0  0  0  0  0  0  0  0  0  0  0
   -1.5063    8.4957   -0.3846 H   0  0  0  0  0  0  0  0  0  0  0  0
    0.6208    7.8246   -1.4672 H   0  0  0  0  0  0  0  0  0  0  0  0
    0.7256    5.7993   -2.8557 H   0  0  0  0  0  0  0  0  0  0  0  0
    1.2385    3.6445   -3.5188 H   0  0  0  0  0  0  0  0  0  0  0  0
   -3.6699   -3.1073   -2.0469 H   0  0  0  0  0  0  0  0  0  0  0  0
   -4.9168   -2.6521   -0.9033 H   0  0  0  0  0  0  0  0  0  0  0  0
   -1.6107   -4.4418   -1.2122 H   0  0  0  0  0  0  0  0  0  0  0  0
   -0.9829   -6.4002    0.1500 H   0  0  0  0  0  0  0  0  0  0  0  0
   -2.4676   -7.1785    1.9785 H   0  0  0  0  0  0  0  0  0  0  0  0
   -4.5934   -5.9883    2.4389 H   0  0  0  0  0  0  0  0  0  0  0  0
   -5.2420   -4.0321    1.0892 H   0  0  0  0  0  0  0  0  0  0  0  0
   -5.2790   -1.5350    1.1625 H   0  0  0  0  0  0  0  0  0  0  0  0
   -5.4067    0.2182    2.9046 H   0  0  0  0  0  0  0  0  0  0  0  0
   -3.6001    1.8979    3.1434 H   0  0  0  0  0  0  0  0  0  0  0  0
   -1.6239    1.8467    1.6243 H   0  0  0  0  0  0  0  0  0  0  0  0
  1  2  1  0
  2  3  1  0
  2  4  1  0
  2  5  1  0
  5  6  1  0
  6  7  2  0
  6  8  1  0
  8  9  1  0
  9 10  1  0
 10 11  1  0
 11 12  1  0
 12 13  1  0
 12 14  1  0
 14 15  1  0
 15 16  2  0
 16 17  1  0
 16 18  1  0
 18 19  1  0
 19 20  1  0
 20 21  2  0
 21 22  1  0
 22 23  2  0
 23 24  1  0
 24 25  2  0
 18 26  1  0
 26 27  1  0
 15 28  1  0
 28 29  1  0
 29 30  2  0
 29 31  1  0
 31 32  1  0
 32 33  1  0
 33 34  2  0
 34 35  1  0
 35 36  2  0
 36 37  1  0
 37 38  2  0
 31 39  1  0
 39 40  2  0
 40 41  1  0
 41 42  2  0
 42 43  1  0
 43 44  2  0
 13  8  1  0
 26 14  2  0
 44 28  1  0
 28 11  1  1
 38 33  1  0
 44 39  1  0
 25 20  1  0
  1 45  1  0
  1 46  1  0
  1 47  1  0
  3 48  1  0
  3 49  1  0
  3 50  1  0
  4 51  1  0
  4 52  1  0
  4 53  1  0
  9 54  1  0
  9 55  1  0
 10 56  1  0
 10 57  1  0
 12 58  1  6
 13 59  1  0
 13 60  1  0
 17 61  1  0
 19 62  1  0
 19 63  1  0
 21 64  1  0
 22 65  1  0
 23 66  1  0
 24 67  1  0
 25 68  1  0
 27 69  1  0
 32 70  1  0
 32 71  1  0
 34 72  1  0
 35 73  1  0
 36 74  1  0
 37 75  1  0
 38 76  1  0
 40 77  1  0
 41 78  1  0
 42 79  1  0
 43 80  1  0
M  END
$$$$
