
     RDKit          3D

 40 42  0  0  0  0  0  0  0  0999 V2000
    0.6644   -2.7428    1.0836 O   0  0  0  0  0  0  0  0  0  0  0  0
    1.2669   -2.2545    0.1291 C   0  0  0  0  0  0  0  0  0  0  0  0
    2.7745   -2.3502   -0.0218 C   0  0  0  0  0  0  0  0  0  0  0  0
    3.4784   -1.0618    0.3229 C   0  0  0  0  0  0  0  0  0  0  0  0
    3.4231   -0.5525    1.6316 C   0  0  0  0  0  0  0  0  0  0  0  0
    4.0745    0.6387    1.9566 C   0  0  0  0  0  0  0  0  0  0  0  0
    4.7861    1.3323    0.9777 C   0  0  0  0  0  0  0  0  0  0  0  0
    4.8471    0.8364   -0.3263 C   0  0  0  0  0  0  0  0  0  0  0  0
    4.1975   -0.3558   -0.6543 C   0  0  0  0  0  0  0  0  0  0  0  0
    0.6375   -1.5793   -0.8977 N   0  0  0  0  0  0  0  0  0  0  0  0
   -0.7871   -1.2852   -0.8131 C   0  0  0  0  0  0  0  0  0  0  0  0
   -1.0741   -0.0286    0.0457 C   0  0  0  0  0  0  0  0  0  0  0  0
   -0.4273    1.1196   -0.5519 O   0  0  0  0  0  0  0  0  0  0  0  0
   -1.1900    1.7178   -1.5992 C   0  0  0  0  0  0  0  0  0  0  0  0
   -2.4711    2.3162   -1.0370 C   0  0  0  0  0  0  0  0  0  0  0  0
   -3.2388    1.2822   -0.2585 C   0  0  0  0  0  0  0  0  0  0  0  0
   -4.6083    1.4538   -0.0175 C   0  0  0  0  0  0  0  0  0  0  0  0
   -5.3084    0.5259    0.7536 C   0  0  0  0  0  0  0  0  0  0  0  0
   -4.6434   -0.5699    1.3013 C   0  0  0  0  0  0  0  0  0  0  0  0
   -3.2774   -0.7417    1.0748 C   0  0  0  0  0  0  0  0  0  0  0  0
   -2.5613    0.1772    0.2895 C   0  0  0  0  0  0  0  0  0  0  0  0
    3.0020   -2.6565   -1.0487 H   0  0  0  0  0  0  0  0  0  0  0  0
    3.1449   -3.1520    0.6274 H   0  0  0  0  0  0  0  0  0  0  0  0
    2.8708   -1.0829    2.4075 H   0  0  0  0  0  0  0  0  0  0  0  0
    4.0250    1.0246    2.9756 H   0  0  0  0  0  0  0  0  0  0  0  0
    5.2937    2.2581    1.2355 H   0  0  0  0  0  0  0  0  0  0  0  0
    5.4038    1.3789   -1.0895 H   0  0  0  0  0  0  0  0  0  0  0  0
    4.2593   -0.7261   -1.6775 H   0  0  0  0  0  0  0  0  0  0  0  0
    1.1999   -0.9032   -1.4047 H   0  0  0  0  0  0  0  0  0  0  0  0
   -1.2961   -2.1666   -0.4084 H   0  0  0  0  0  0  0  0  0  0  0  0
   -1.1311   -1.1492   -1.8435 H   0  0  0  0  0  0  0  0  0  0  0  0
   -0.5937   -0.1487    1.0244 H   0  0  0  0  0  0  0  0  0  0  0  0
   -1.3951    0.9862   -2.3879 H   0  0  0  0  0  0  0  0  0  0  0  0
   -0.5805    2.5093   -2.0455 H   0  0  0  0  0  0  0  0  0  0  0  0
   -3.0783    2.7171   -1.8566 H   0  0  0  0  0  0  0  0  0  0  0  0
   -2.2259    3.1378   -0.3527 H   0  0  0  0  0  0  0  0  0  0  0  0
   -5.1343    2.3158   -0.4229 H   0  0  0  0  0  0  0  0  0  0  0  0
   -6.3710    0.6634    0.9370 H   0  0  0  0  0  0  0  0  0  0  0  0
   -5.1864   -1.2872    1.9120 H   0  0  0  0  0  0  0  0  0  0  0  0
   -2.7701   -1.5965    1.5231 H   0  0  0  0  0  0  0  0  0  0  0  0
  1  2  2  0
  2  3  1  0
  3  4  1  0
  4  5  2  0
  5  6  1  0
  6  7  2  0
  7  8  1  0
  8  9  2  0
  2 10  1  0
 10 11  1  0
 11 12  1  0
 12 13  1  0
 13 14  1  0
 14 15  1  0
 15 16  1  0
 16 17  2  0
 17 18  1  0
 18 19  2  0
 19 20  1  0
 20 21  2  0
  9  4  1  0
 21 12  1  0
 21 16  1  0
  3 22  1  0
  3 23  1  0
  5 24  1  0
  6 25  1  0
  7 26  1  0
  8 27  1  0
  9 28  1  0
 10 29  1  0
 11 30  1  0
 11 31  1  0
 12 32  1  0
 14 33  1  0
 14 34  1  0
 15 35  1  0
 15 36  1  0
 17 37  1  0
 18 38  1  0
 19 39  1  0
 20 40  1  0
M  END
$$$$
