
     RDKit          3D

 46 49  0  0  0  0  0  0  0  0999 V2000
    1.4581    1.1076    3.2790 O   0  0  0  0  0  0  0  0  0  0  0  0
    2.0164    1.3854    2.2189 C   0  0  0  0  0  0  0  0  0  0  0  0
    2.2866    2.8358    1.8308 C   0  0  0  0  0  0  0  0  0  0  0  0
    0.8462    3.5450    0.9736 S   0  0  0  0  0  0  0  0  0  0  0  0
    0.8720    2.6266   -0.4870 C   0  0  0  0  0  0  0  0  0  0  0  0
    1.9415    2.0816   -1.0183 N   0  0  0  0  0  0  0  0  0  0  0  0
    1.5354    1.3283   -2.0883 N   0  0  0  0  0  0  0  0  0  0  0  0
    0.2260    1.4508   -2.2092 C   0  0  0  0  0  0  0  0  0  0  0  0
   -0.6164    0.7754   -3.2439 C   0  0  0  0  0  0  0  0  0  0  0  0
   -1.2634   -0.4850   -2.7382 C   0  0  0  0  0  0  0  0  0  0  0  0
   -0.7133   -1.4887   -1.9626 C   0  0  0  0  0  0  0  0  0  0  0  0
   -1.6382   -2.5312   -1.6813 C   0  0  0  0  0  0  0  0  0  0  0  0
   -2.8624   -2.3035   -2.2649 C   0  0  0  0  0  0  0  0  0  0  0  0
   -2.8904   -0.8393   -3.1460 S   0  0  0  0  0  0  0  0  0  0  0  0
   -0.2382    2.2782   -1.2072 N   0  0  0  0  0  0  0  0  0  0  0  0
   -1.6087    2.6920   -0.9751 C   0  0  0  0  0  0  0  0  0  0  0  0
   -2.3603    1.7142   -0.1494 C   0  0  0  0  0  0  0  0  0  0  0  0
   -2.0440    0.8651    0.8932 C   0  0  0  0  0  0  0  0  0  0  0  0
   -3.2397    0.1886    1.2377 C   0  0  0  0  0  0  0  0  0  0  0  0
   -4.2103    0.6736    0.3952 C   0  0  0  0  0  0  0  0  0  0  0  0
   -3.6892    1.6035   -0.4440 O   0  0  0  0  0  0  0  0  0  0  0  0
    2.4355    0.4783    1.2594 N   0  0  0  0  0  0  0  0  0  0  0  0
    2.3455   -0.9268    1.3013 C   0  0  0  0  0  0  0  0  0  0  0  0
    2.6977   -1.6145    0.1308 C   0  0  0  0  0  0  0  0  0  0  0  0
    2.6445   -3.0089    0.0781 C   0  0  0  0  0  0  0  0  0  0  0  0
    2.2435   -3.7290    1.2003 C   0  0  0  0  0  0  0  0  0  0  0  0
    1.8932   -3.0488    2.3648 C   0  0  0  0  0  0  0  0  0  0  0  0
    1.3874   -3.9445    3.7453 Cl  0  0  0  0  0  0  0  0  0  0  0  0
    1.9468   -1.6547    2.4234 C   0  0  0  0  0  0  0  0  0  0  0  0
    3.1916    2.9168    1.2177 H   0  0  0  0  0  0  0  0  0  0  0  0
    2.4702    3.4048    2.7476 H   0  0  0  0  0  0  0  0  0  0  0  0
    0.0229    0.5104   -4.0974 H   0  0  0  0  0  0  0  0  0  0  0  0
   -1.3582    1.4801   -3.6314 H   0  0  0  0  0  0  0  0  0  0  0  0
    0.3088   -1.4691   -1.6062 H   0  0  0  0  0  0  0  0  0  0  0  0
   -1.4144   -3.4098   -1.0851 H   0  0  0  0  0  0  0  0  0  0  0  0
   -3.7429   -2.9283   -2.2186 H   0  0  0  0  0  0  0  0  0  0  0  0
   -2.0846    2.8230   -1.9523 H   0  0  0  0  0  0  0  0  0  0  0  0
   -1.6073    3.6780   -0.5005 H   0  0  0  0  0  0  0  0  0  0  0  0
   -1.0742    0.7332    1.3547 H   0  0  0  0  0  0  0  0  0  0  0  0
   -3.3743   -0.5597    2.0066 H   0  0  0  0  0  0  0  0  0  0  0  0
   -5.2666    0.4693    0.2746 H   0  0  0  0  0  0  0  0  0  0  0  0
    2.6972    0.8728    0.3530 H   0  0  0  0  0  0  0  0  0  0  0  0
    3.0169   -1.0694   -0.7577 H   0  0  0  0  0  0  0  0  0  0  0  0
    2.9222   -3.5283   -0.8358 H   0  0  0  0  0  0  0  0  0  0  0  0
    2.2114   -4.8157    1.1644 H   0  0  0  0  0  0  0  0  0  0  0  0
    1.6794   -1.1630    3.3512 H   0  0  0  0  0  0  0  0  0  0  0  0
  1  2  2  0
  2  3  1  0
  3  4  1  0
  4  5  1  0
  5  6  2  0
  6  7  1  0
  7  8  2  0
  8  9  1  0
  9 10  1  0
 10 11  2  0
 11 12  1  0
 12 13  2  0
 13 14  1  0
  8 15  1  0
 15 16  1  0
 16 17  1  0
 17 18  2  0
 18 19  1  0
 19 20  2  0
 20 21  1  0
  2 22  1  0
 22 23  1  0
 23 24  2  0
 24 25  1  0
 25 26  2  0
 26 27  1  0
 27 28  1  0
 27 29  2  0
 15  5  1  0
 21 17  1  0
 29 23  1  0
 14 10  1  0
  3 30  1  0
  3 31  1  0
  9 32  1  0
  9 33  1  0
 11 34  1  0
 12 35  1  0
 13 36  1  0
 16 37  1  0
 16 38  1  0
 18 39  1  0
 19 40  1  0
 20 41  1  0
 22 42  1  0
 24 43  1  0
 25 44  1  0
 26 45  1  0
 29 46  1  0
M  END
$$$$
