
     RDKit          3D

 46 48  0  0  0  0  0  0  0  0999 V2000
    1.2922    2.7178    1.8199 O   0  0  0  0  0  0  0  0  0  0  0  0
    0.8419    2.2646    0.7669 C   0  0  0  0  0  0  0  0  0  0  0  0
   -0.1725    3.0183   -0.0926 C   0  0  0  0  0  0  0  0  0  0  0  0
   -0.8516    2.2334   -1.0620 O   0  0  0  0  0  0  0  0  0  0  0  0
   -1.9412    1.5140   -0.6557 C   0  0  0  0  0  0  0  0  0  0  0  0
   -2.3626    1.3247    0.6587 C   0  0  0  0  0  0  0  0  0  0  0  0
   -3.4974    0.5477    0.9284 C   0  0  0  0  0  0  0  0  0  0  0  0
   -4.2324   -0.0556   -0.1038 C   0  0  0  0  0  0  0  0  0  0  0  0
   -5.4248   -0.8674    0.1865 C   0  0  0  0  0  0  0  0  0  0  0  0
   -6.6590   -0.5833   -0.4218 C   0  0  0  0  0  0  0  0  0  0  0  0
   -7.7926   -1.3526   -0.1454 C   0  0  0  0  0  0  0  0  0  0  0  0
   -7.7103   -2.4213    0.7434 C   0  0  0  0  0  0  0  0  0  0  0  0
   -6.4964   -2.7209    1.3562 C   0  0  0  0  0  0  0  0  0  0  0  0
   -5.3640   -1.9497    1.0802 C   0  0  0  0  0  0  0  0  0  0  0  0
   -3.7920    0.1405   -1.4203 C   0  0  0  0  0  0  0  0  0  0  0  0
   -2.6581    0.9130   -1.6910 C   0  0  0  0  0  0  0  0  0  0  0  0
    1.2435    1.0467    0.2530 N   0  0  0  0  0  0  0  0  0  0  0  0
    2.4104    0.4726    0.8133 N   0  0  0  0  0  0  0  0  0  0  0  0
    3.4523    0.2333   -0.0755 C   0  0  0  0  0  0  0  0  0  0  0  0
    3.3049    0.3464   -1.2881 O   0  0  0  0  0  0  0  0  0  0  0  0
    4.5952   -0.1504    0.5871 N   0  0  0  0  0  0  0  0  0  0  0  0
    5.8612   -0.4337    0.0352 C   0  0  0  0  0  0  0  0  0  0  0  0
    6.1862   -0.2737   -1.3134 C   0  0  0  0  0  0  0  0  0  0  0  0
    7.4773   -0.5752   -1.7621 C   0  0  0  0  0  0  0  0  0  0  0  0
    8.4372   -1.0316   -0.8641 C   0  0  0  0  0  0  0  0  0  0  0  0
    9.6696   -1.3147   -1.3041 F   0  0  0  0  0  0  0  0  0  0  0  0
    8.1369   -1.1960    0.4790 C   0  0  0  0  0  0  0  0  0  0  0  0
    6.8527   -0.8948    0.9153 C   0  0  0  0  0  0  0  0  0  0  0  0
    6.5564   -1.0505    2.2160 F   0  0  0  0  0  0  0  0  0  0  0  0
   -0.8738    3.5661    0.5478 H   0  0  0  0  0  0  0  0  0  0  0  0
    0.3992    3.7728   -0.6458 H   0  0  0  0  0  0  0  0  0  0  0  0
   -1.8391    1.7567    1.5053 H   0  0  0  0  0  0  0  0  0  0  0  0
   -3.8127    0.4235    1.9630 H   0  0  0  0  0  0  0  0  0  0  0  0
   -6.7478    0.2537   -1.1117 H   0  0  0  0  0  0  0  0  0  0  0  0
   -8.7388   -1.1149   -0.6240 H   0  0  0  0  0  0  0  0  0  0  0  0
   -8.5913   -3.0205    0.9579 H   0  0  0  0  0  0  0  0  0  0  0  0
   -6.4277   -3.5564    2.0477 H   0  0  0  0  0  0  0  0  0  0  0  0
   -4.4228   -2.2081    1.5609 H   0  0  0  0  0  0  0  0  0  0  0  0
   -4.3248   -0.3196   -2.2501 H   0  0  0  0  0  0  0  0  0  0  0  0
   -2.3357    1.0456   -2.7210 H   0  0  0  0  0  0  0  0  0  0  0  0
    1.0981    0.8609   -0.7421 H   0  0  0  0  0  0  0  0  0  0  0  0
    2.6666    0.8978    1.7037 H   0  0  0  0  0  0  0  0  0  0  0  0
    4.5013   -0.3375    1.5780 H   0  0  0  0  0  0  0  0  0  0  0  0
    5.4619    0.0839   -2.0390 H   0  0  0  0  0  0  0  0  0  0  0  0
    7.7363   -0.4548   -2.8103 H   0  0  0  0  0  0  0  0  0  0  0  0
    8.8883   -1.5511    1.1735 H   0  0  0  0  0  0  0  0  0  0  0  0
  1  2  2  0
  2  3  1  0
  3  4  1  0
  4  5  1  0
  5  6  2  0
  6  7  1  0
  7  8  2  0
  8  9  1  0
  9 10  2  0
 10 11  1  0
 11 12  2  0
 12 13  1  0
 13 14  2  0
  8 15  1  0
 15 16  2  0
  2 17  1  0
 17 18  1  0
 18 19  1  0
 19 20  2  0
 19 21  1  0
 21 22  1  0
 22 23  2  0
 23 24  1  0
 24 25  2  0
 25 26  1  0
 25 27  1  0
 27 28  2  0
 28 29  1  0
 16  5  1  0
 28 22  1  0
 14  9  1  0
  3 30  1  0
  3 31  1  0
  6 32  1  0
  7 33  1  0
 10 34  1  0
 11 35  1  0
 12 36  1  0
 13 37  1  0
 14 38  1  0
 15 39  1  0
 16 40  1  0
 17 41  1  0
 18 42  1  0
 21 43  1  0
 23 44  1  0
 24 45  1  0
 27 46  1  0
M  END
$$$$
