
     RDKit          3D

 37 38  0  0  0  0  0  0  0  0999 V2000
    0.9773   -0.8322   -0.5975 O   0  0  0  0  0  0  0  0  0  0  0  0
    0.9388    0.3407   -0.2491 C   0  0  0  0  0  0  0  0  0  0  0  0
   -0.3243    0.9866    0.3012 C   0  0  0  0  0  0  0  0  0  0  0  0
   -1.5041    0.0176    0.3527 C   0  0  0  0  0  0  0  0  0  0  0  0
   -2.7532    0.7001    0.9118 C   0  0  0  0  0  0  0  0  0  0  0  0
   -3.9293   -0.2411    0.9705 C   0  0  0  0  0  0  0  0  0  0  0  0
   -4.7950   -0.3659   -0.1242 C   0  0  0  0  0  0  0  0  0  0  0  0
   -5.8748   -1.2491   -0.0749 C   0  0  0  0  0  0  0  0  0  0  0  0
   -6.0961   -2.0185    1.0657 C   0  0  0  0  0  0  0  0  0  0  0  0
   -5.2367   -1.9074    2.1571 C   0  0  0  0  0  0  0  0  0  0  0  0
   -4.1564   -1.0248    2.1097 C   0  0  0  0  0  0  0  0  0  0  0  0
    1.9908    1.2431   -0.2901 N   0  0  0  0  0  0  0  0  0  0  0  0
    3.3079    1.0104   -0.7392 C   0  0  0  0  0  0  0  0  0  0  0  0
    4.2012    2.0904   -0.6646 C   0  0  0  0  0  0  0  0  0  0  0  0
    5.5283    1.9592   -1.0826 C   0  0  0  0  0  0  0  0  0  0  0  0
    5.9813    0.7420   -1.5835 C   0  0  0  0  0  0  0  0  0  0  0  0
    5.0943   -0.3393   -1.6630 C   0  0  0  0  0  0  0  0  0  0  0  0
    5.5725   -1.6224   -2.1938 N   0  0  0  0  0  4  0  0  0  0  0  0
    6.7886   -1.7364   -2.4081 O   0  0  0  0  0  0  0  0  0  0  0  0
    4.7388   -2.5140   -2.4011 O   0  0  0  0  0  1  0  0  0  0  0  0
    3.7606   -0.2112   -1.2437 C   0  0  0  0  0  0  0  0  0  0  0  0
   -0.1063    1.3588    1.3094 H   0  0  0  0  0  0  0  0  0  0  0  0
   -0.5759    1.8433   -0.3353 H   0  0  0  0  0  0  0  0  0  0  0  0
   -1.7071   -0.3704   -0.6539 H   0  0  0  0  0  0  0  0  0  0  0  0
   -1.2422   -0.8507    0.9710 H   0  0  0  0  0  0  0  0  0  0  0  0
   -2.5518    1.0921    1.9169 H   0  0  0  0  0  0  0  0  0  0  0  0
   -3.0154    1.5707    0.2973 H   0  0  0  0  0  0  0  0  0  0  0  0
   -4.6313    0.2218   -1.0244 H   0  0  0  0  0  0  0  0  0  0  0  0
   -6.5408   -1.3401   -0.9288 H   0  0  0  0  0  0  0  0  0  0  0  0
   -6.9351   -2.7081    1.1022 H   0  0  0  0  0  0  0  0  0  0  0  0
   -5.4050   -2.5119    3.0444 H   0  0  0  0  0  0  0  0  0  0  0  0
   -3.4904   -0.9554    2.9665 H   0  0  0  0  0  0  0  0  0  0  0  0
    1.7942    2.1778    0.0465 H   0  0  0  0  0  0  0  0  0  0  0  0
    3.8768    3.0538   -0.2771 H   0  0  0  0  0  0  0  0  0  0  0  0
    6.2065    2.8071   -1.0165 H   0  0  0  0  0  0  0  0  0  0  0  0
    7.0165    0.6511   -1.9066 H   0  0  0  0  0  0  0  0  0  0  0  0
    3.0968   -1.0676   -1.3170 H   0  0  0  0  0  0  0  0  0  0  0  0
  1  2  2  0
  2  3  1  0
  3  4  1  0
  4  5  1  0
  5  6  1  0
  6  7  2  0
  7  8  1  0
  8  9  2  0
  9 10  1  0
 10 11  2  0
  2 12  1  0
 12 13  1  0
 13 14  2  0
 14 15  1  0
 15 16  2  0
 16 17  1  0
 17 18  1  0
 18 19  2  0
 18 20  1  0
 17 21  2  0
 11  6  1  0
 21 13  1  0
  3 22  1  0
  3 23  1  0
  4 24  1  0
  4 25  1  0
  5 26  1  0
  5 27  1  0
  7 28  1  0
  8 29  1  0
  9 30  1  0
 10 31  1  0
 11 32  1  0
 12 33  1  0
 14 34  1  0
 15 35  1  0
 16 36  1  0
 21 37  1  0
M  CHG  2  18   1  20  -1
M  END
$$$$
