
     RDKit          3D

 40 42  0  0  0  0  0  0  0  0999 V2000
    2.6434    5.1928   -0.4654 C   0  0  0  0  0  0  0  0  0  0  0  0
    2.1652    3.7708   -0.2279 C   0  0  0  0  0  0  0  0  0  0  0  0
    0.4104    3.6239   -0.6973 S   0  0  0  0  0  0  0  0  0  0  0  0
    0.1071    1.9034   -0.3146 C   0  0  0  0  0  0  0  0  0  0  0  0
   -1.1629    1.4029   -0.5042 C   0  0  0  0  0  0  0  0  0  0  0  0
   -1.3745    0.0714   -0.2096 C   0  0  0  0  0  0  0  0  0  0  0  0
   -2.6319   -0.5051   -0.3563 N   0  0  0  0  0  0  0  0  0  0  0  0
   -3.4541   -0.1629   -1.5315 C   0  0  0  0  0  0  0  0  0  0  0  0
   -3.9482   -1.4343   -2.2435 C   0  0  0  0  0  0  0  0  0  0  0  0
   -4.7043   -2.3121   -1.3988 O   0  0  0  0  0  0  0  0  0  0  0  0
   -4.2413   -2.3317   -0.0387 C   0  0  0  0  0  0  0  0  0  0  0  0
   -2.7800   -1.8877    0.1293 C   0  0  0  0  0  0  0  0  0  0  0  0
   -0.3721   -0.6813    0.2733 N   0  0  0  0  0  0  0  0  0  0  0  0
    0.8410   -0.1182    0.4284 C   0  0  0  0  0  0  0  0  0  0  0  0
    1.9339   -0.9675    0.9469 C   0  0  0  0  0  0  0  0  0  0  0  0
    3.2336   -0.4592    1.1413 C   0  0  0  0  0  0  0  0  0  0  0  0
    4.2691   -1.2619    1.6317 C   0  0  0  0  0  0  0  0  0  0  0  0
    4.0289   -2.5971    1.9404 C   0  0  0  0  0  0  0  0  0  0  0  0
    2.7561   -3.1290    1.7596 C   0  0  0  0  0  0  0  0  0  0  0  0
    1.7234   -2.3229    1.2691 C   0  0  0  0  0  0  0  0  0  0  0  0
    1.1238    1.1610    0.1416 N   0  0  0  0  0  0  0  0  0  0  0  0
    2.5587    5.4748   -1.5204 H   0  0  0  0  0  0  0  0  0  0  0  0
    2.0777    5.9133    0.1350 H   0  0  0  0  0  0  0  0  0  0  0  0
    3.6976    5.2827   -0.1828 H   0  0  0  0  0  0  0  0  0  0  0  0
    2.2861    3.5172    0.8302 H   0  0  0  0  0  0  0  0  0  0  0  0
    2.7660    3.0792   -0.8272 H   0  0  0  0  0  0  0  0  0  0  0  0
   -1.9654    2.0417   -0.8472 H   0  0  0  0  0  0  0  0  0  0  0  0
   -4.3157    0.4162   -1.1800 H   0  0  0  0  0  0  0  0  0  0  0  0
   -2.9103    0.4454   -2.2629 H   0  0  0  0  0  0  0  0  0  0  0  0
   -4.5869   -1.1642   -3.0906 H   0  0  0  0  0  0  0  0  0  0  0  0
   -3.1003   -2.0019   -2.6453 H   0  0  0  0  0  0  0  0  0  0  0  0
   -4.3728   -3.3510    0.3379 H   0  0  0  0  0  0  0  0  0  0  0  0
   -4.9049   -1.6794    0.5411 H   0  0  0  0  0  0  0  0  0  0  0  0
   -2.5117   -1.9519    1.1906 H   0  0  0  0  0  0  0  0  0  0  0  0
   -2.1277   -2.5606   -0.4419 H   0  0  0  0  0  0  0  0  0  0  0  0
    3.4507    0.5820    0.9083 H   0  0  0  0  0  0  0  0  0  0  0  0
    5.2612   -0.8404    1.7710 H   0  0  0  0  0  0  0  0  0  0  0  0
    4.8322   -3.2220    2.3215 H   0  0  0  0  0  0  0  0  0  0  0  0
    2.5619   -4.1713    1.9991 H   0  0  0  0  0  0  0  0  0  0  0  0
    0.7371   -2.7653    1.1376 H   0  0  0  0  0  0  0  0  0  0  0  0
  1  2  1  0
  2  3  1  0
  3  4  1  0
  4  5  2  0
  5  6  1  0
  6  7  1  0
  7  8  1  0
  8  9  1  0
  9 10  1  0
 10 11  1  0
 11 12  1  0
  6 13  2  0
 13 14  1  0
 14 15  1  0
 15 16  2  0
 16 17  1  0
 17 18  2  0
 18 19  1  0
 19 20  2  0
 14 21  2  0
 21  4  1  0
 12  7  1  0
 20 15  1  0
  1 22  1  0
  1 23  1  0
  1 24  1  0
  2 25  1  0
  2 26  1  0
  5 27  1  0
  8 28  1  0
  8 29  1  0
  9 30  1  0
  9 31  1  0
 11 32  1  0
 11 33  1  0
 12 34  1  0
 12 35  1  0
 16 36  1  0
 17 37  1  0
 18 38  1  0
 19 39  1  0
 20 40  1  0
M  END
$$$$
