
     RDKit          3D

 58 60  0  0  0  0  0  0  0  0999 V2000
    8.1502   -3.2772   -4.2824 C   0  0  0  0  0  0  0  0  0  0  0  0
    7.2417   -2.7361   -3.2187 C   0  0  0  0  0  0  0  0  0  0  0  0
    7.3676   -3.1606   -1.8912 C   0  0  0  0  0  0  0  0  0  0  0  0
    6.5446   -2.6295   -0.8950 C   0  0  0  0  0  0  0  0  0  0  0  0
    5.5916   -1.6526   -1.2089 C   0  0  0  0  0  0  0  0  0  0  0  0
    4.6904   -1.0848   -0.1422 C   0  0  0  0  0  0  0  0  0  0  0  0
    3.3205   -1.7677   -0.1327 C   0  0  0  0  0  0  0  0  0  0  0  0
    2.4666   -1.2694    0.9316 N   0  0  0  0  0  0  0  0  0  0  0  0
    1.7970   -0.0699    0.8191 C   0  0  0  0  0  0  0  0  0  0  0  0
    1.8462    0.6400   -0.1784 O   0  0  0  0  0  0  0  0  0  0  0  0
    0.9963    0.2792    2.0528 C   0  0  0  0  0  0  0  0  0  0  0  0
    0.2953    1.6225    1.8941 C   0  0  0  0  0  0  0  0  0  0  0  0
   -0.4730    1.9082    3.1187 N   0  0  0  0  0  0  0  0  0  0  0  0
   -1.6126    3.1472    3.0636 S   0  0  0  0  0  6  0  0  0  0  0  0
   -1.9178    3.4664    4.4408 O   0  0  0  0  0  0  0  0  0  0  0  0
   -1.1551    4.1500    2.1312 O   0  0  0  0  0  0  0  0  0  0  0  0
   -3.0256    2.3173    2.3870 C   0  0  0  0  0  0  0  0  0  0  0  0
   -3.7902    1.4883    3.2076 C   0  0  0  0  0  0  0  0  0  0  0  0
   -4.9212    0.8499    2.6872 C   0  0  0  0  0  0  0  0  0  0  0  0
   -5.3042    1.0349    1.3475 C   0  0  0  0  0  0  0  0  0  0  0  0
   -4.5290    1.8772    0.5488 C   0  0  0  0  0  0  0  0  0  0  0  0
   -3.3932    2.5260    1.0594 C   0  0  0  0  0  0  0  0  0  0  0  0
   -4.9139    2.0922   -0.8550 C   0  0  0  0  0  0  0  0  0  0  0  0
   -4.2630    2.8789   -1.5374 O   0  0  0  0  0  0  0  0  0  0  0  0
   -6.0102    1.3819   -1.3172 N   0  0  0  0  0  0  0  0  0  0  0  0
   -6.4082    1.5632   -2.7020 C   0  0  0  0  0  0  0  0  0  0  0  0
   -6.8241    0.5707   -0.5353 C   0  0  0  0  0  0  0  0  0  0  0  0
   -7.8298    0.0307   -1.0030 O   0  0  0  0  0  0  0  0  0  0  0  0
   -6.4502    0.4029    0.7954 N   0  0  0  0  0  0  0  0  0  0  0  0
   -7.2803   -0.4496    1.6382 C   0  0  0  0  0  0  0  0  0  0  0  0
    5.4727   -1.2207   -2.5362 C   0  0  0  0  0  0  0  0  0  0  0  0
    6.2947   -1.7537   -3.5313 C   0  0  0  0  0  0  0  0  0  0  0  0
    7.6292   -3.3423   -5.2438 H   0  0  0  0  0  0  0  0  0  0  0  0
    9.0227   -2.6256   -4.3956 H   0  0  0  0  0  0  0  0  0  0  0  0
    8.4953   -4.2851   -4.0294 H   0  0  0  0  0  0  0  0  0  0  0  0
    8.1110   -3.9087   -1.6231 H   0  0  0  0  0  0  0  0  0  0  0  0
    6.6595   -2.9805    0.1281 H   0  0  0  0  0  0  0  0  0  0  0  0
    4.5813   -0.0037   -0.2985 H   0  0  0  0  0  0  0  0  0  0  0  0
    5.1669   -1.1902    0.8417 H   0  0  0  0  0  0  0  0  0  0  0  0
    3.4249   -2.8473    0.0215 H   0  0  0  0  0  0  0  0  0  0  0  0
    2.8072   -1.6158   -1.0895 H   0  0  0  0  0  0  0  0  0  0  0  0
    2.4539   -1.7702    1.8113 H   0  0  0  0  0  0  0  0  0  0  0  0
    0.2592   -0.5138    2.2272 H   0  0  0  0  0  0  0  0  0  0  0  0
    1.6741    0.3067    2.9147 H   0  0  0  0  0  0  0  0  0  0  0  0
    1.0348    2.4166    1.7406 H   0  0  0  0  0  0  0  0  0  0  0  0
   -0.3724    1.5938    1.0262 H   0  0  0  0  0  0  0  0  0  0  0  0
    0.0342    1.9267    4.0038 H   0  0  0  0  0  0  0  0  0  0  0  0
   -3.5167    1.3387    4.2506 H   0  0  0  0  0  0  0  0  0  0  0  0
   -5.4884    0.2135    3.3610 H   0  0  0  0  0  0  0  0  0  0  0  0
   -2.8078    3.1872    0.4210 H   0  0  0  0  0  0  0  0  0  0  0  0
   -7.3363    2.1470   -2.7245 H   0  0  0  0  0  0  0  0  0  0  0  0
   -6.6020    0.5862   -3.1584 H   0  0  0  0  0  0  0  0  0  0  0  0
   -5.6455    2.0820   -3.2909 H   0  0  0  0  0  0  0  0  0  0  0  0
   -6.6817   -1.2889    2.0067 H   0  0  0  0  0  0  0  0  0  0  0  0
   -7.6716    0.1379    2.4753 H   0  0  0  0  0  0  0  0  0  0  0  0
   -8.1348   -0.8646    1.0964 H   0  0  0  0  0  0  0  0  0  0  0  0
    4.7394   -0.4602   -2.8030 H   0  0  0  0  0  0  0  0  0  0  0  0
    6.1902   -1.3955   -4.5537 H   0  0  0  0  0  0  0  0  0  0  0  0
  1  2  1  0
  2  3  2  0
  3  4  1  0
  4  5  2  0
  5  6  1  0
  6  7  1  0
  7  8  1  0
  8  9  1  0
  9 10  2  0
  9 11  1  0
 11 12  1  0
 12 13  1  0
 13 14  1  0
 14 15  2  0
 14 16  2  0
 14 17  1  0
 17 18  2  0
 18 19  1  0
 19 20  2  0
 20 21  1  0
 21 22  2  0
 21 23  1  0
 23 24  2  0
 23 25  1  0
 25 26  1  0
 25 27  1  0
 27 28  2  0
 27 29  1  0
 29 30  1  0
  5 31  1  0
 31 32  2  0
 32  2  1  0
 22 17  1  0
 29 20  1  0
  1 33  1  0
  1 34  1  0
  1 35  1  0
  3 36  1  0
  4 37  1  0
  6 38  1  0
  6 39  1  0
  7 40  1  0
  7 41  1  0
  8 42  1  0
 11 43  1  0
 11 44  1  0
 12 45  1  0
 12 46  1  0
 13 47  1  0
 18 48  1  0
 19 49  1  0
 22 50  1  0
 26 51  1  0
 26 52  1  0
 26 53  1  0
 30 54  1  0
 30 55  1  0
 30 56  1  0
 31 57  1  0
 32 58  1  0
M  END
$$$$
