
     RDKit          3D

 69 75  0  0  0  0  0  0  0  0999 V2000
   -4.0166    5.3861    1.0492 C   0  0  0  0  0  0  0  0  0  0  0  0
   -3.3910    4.2926    0.2359 C   0  0  0  0  0  0  0  0  0  0  0  0
   -3.4267    4.3095   -1.1721 C   0  0  0  0  0  0  0  0  0  0  0  0
   -4.2031    5.5947   -2.0327 Cl  0  0  0  0  0  0  0  0  0  0  0  0
   -2.8328    3.2876   -1.9396 C   0  0  0  0  0  0  0  0  0  0  0  0
   -2.1840    2.2169   -1.3251 C   0  0  0  0  0  0  0  0  0  0  0  0
   -2.1473    2.1877    0.0591 C   0  0  0  0  0  0  0  0  0  0  0  0
   -2.7352    3.2134    0.8153 C   0  0  0  0  0  0  0  0  0  0  0  0
   -2.5423    2.9605    2.1726 N   0  0  0  0  0  0  0  0  0  0  0  0
   -1.8187    1.7841    2.3882 C   0  0  0  0  0  0  0  0  0  0  0  0
   -1.4911    1.3640    3.4872 O   0  0  0  0  0  0  0  0  0  0  0  0
   -1.5302    1.1840    0.9897 C   0  0  1  0  0  0  0  0  0  0  0  0
   -2.1690   -0.1426    0.7718 C   0  0  0  0  0  0  0  0  0  0  0  0
   -1.1871   -1.1451    0.8195 C   0  0  0  0  0  0  0  0  0  0  0  0
   -1.7810   -2.3623    0.6574 C   0  0  0  0  0  0  0  0  0  0  0  0
   -1.2246   -3.5653    0.7853 O   0  0  0  0  0  0  0  0  0  0  0  0
   -3.1470   -2.1238    0.3966 N   0  0  0  0  0  0  0  0  0  0  0  0
   -4.1125   -3.1147    0.0276 C   0  0  0  0  0  0  0  0  0  0  0  0
   -3.7228   -4.2303   -0.7302 C   0  0  0  0  0  0  0  0  0  0  0  0
   -4.6598   -5.2029   -1.0878 C   0  0  0  0  0  0  0  0  0  0  0  0
   -5.9902   -5.0682   -0.6978 C   0  0  0  0  0  0  0  0  0  0  0  0
   -6.3877   -3.9570    0.0426 C   0  0  0  0  0  0  0  0  0  0  0  0
   -5.4553   -2.9795    0.4008 C   0  0  0  0  0  0  0  0  0  0  0  0
   -3.3832   -0.7385    0.5373 C   0  0  0  0  0  0  0  0  0  0  0  0
   -4.5875   -0.1961    0.3718 O   0  0  0  0  0  0  0  0  0  0  0  0
    0.1304   -0.5625    1.1397 C   0  0  1  0  0  0  0  0  0  0  0  0
    1.3701   -1.0850    0.4239 C   0  0  0  0  0  0  0  0  0  0  0  0
    2.5413   -0.2149    0.6853 N   0  0  0  0  0  0  0  0  0  0  0  0
    3.7904   -0.8133    0.6570 C   0  0  0  0  0  0  0  0  0  0  0  0
    3.9449   -2.0313    0.6880 O   0  0  0  0  0  0  0  0  0  0  0  0
    4.8505    0.0548    0.6169 N   0  0  0  0  0  0  0  0  0  0  0  0
    6.2094   -0.4389    0.5458 C   0  0  0  0  0  0  0  0  0  0  0  0
    6.7098   -0.4473   -0.8768 C   0  0  0  0  0  0  0  0  0  0  0  0
    7.4633    0.6237   -1.3788 C   0  0  0  0  0  0  0  0  0  0  0  0
    7.9033    0.6192   -2.7038 C   0  0  0  0  0  0  0  0  0  0  0  0
    7.5899   -0.4510   -3.5403 C   0  0  0  0  0  0  0  0  0  0  0  0
    6.8337   -1.5162   -3.0548 C   0  0  0  0  0  0  0  0  0  0  0  0
    6.3930   -1.5134   -1.7309 C   0  0  0  0  0  0  0  0  0  0  0  0
    2.3023    1.2428    0.6115 C   0  0  0  0  0  0  0  0  0  0  0  0
    0.9516    1.7076    1.2175 C   0  0  0  0  0  0  0  0  0  0  0  0
   -0.1130    0.8578    0.7180 N   0  0  0  0  0  0  0  0  0  0  0  0
   -5.0832    5.4716    0.8165 H   0  0  0  0  0  0  0  0  0  0  0  0
   -3.5213    6.3409    0.8451 H   0  0  0  0  0  0  0  0  0  0  0  0
   -3.9403    5.2040    2.1247 H   0  0  0  0  0  0  0  0  0  0  0  0
   -2.8754    3.3288   -3.0264 H   0  0  0  0  0  0  0  0  0  0  0  0
   -1.7221    1.4288   -1.9138 H   0  0  0  0  0  0  0  0  0  0  0  0
   -2.8445    3.5434    2.9389 H   0  0  0  0  0  0  0  0  0  0  0  0
   -1.9219   -4.2099    1.0041 H   0  0  0  0  0  0  0  0  0  0  0  0
   -2.7052   -4.3389   -1.1006 H   0  0  0  0  0  0  0  0  0  0  0  0
   -4.3534   -6.0585   -1.6845 H   0  0  0  0  0  0  0  0  0  0  0  0
   -6.7196   -5.8237   -0.9784 H   0  0  0  0  0  0  0  0  0  0  0  0
   -7.4263   -3.8490    0.3451 H   0  0  0  0  0  0  0  0  0  0  0  0
   -5.7970   -2.1396    0.9996 H   0  0  0  0  0  0  0  0  0  0  0  0
   -4.4919    0.7717    0.3978 H   0  0  0  0  0  0  0  0  0  0  0  0
    0.2816   -0.6113    2.2280 H   0  0  0  0  0  0  0  0  0  0  0  0
    1.5777   -2.1145    0.7361 H   0  0  0  0  0  0  0  0  0  0  0  0
    1.2246   -1.1043   -0.6641 H   0  0  0  0  0  0  0  0  0  0  0  0
    4.6899    0.9044    0.1039 H   0  0  0  0  0  0  0  0  0  0  0  0
    6.2924   -1.4382    0.9880 H   0  0  0  0  0  0  0  0  0  0  0  0
    6.8241    0.2331    1.1553 H   0  0  0  0  0  0  0  0  0  0  0  0
    7.7153    1.4668   -0.7396 H   0  0  0  0  0  0  0  0  0  0  0  0
    8.4915    1.4503   -3.0843 H   0  0  0  0  0  0  0  0  0  0  0  0
    7.9332   -0.4548   -4.5714 H   0  0  0  0  0  0  0  0  0  0  0  0
    6.5839   -2.3500   -3.7059 H   0  0  0  0  0  0  0  0  0  0  0  0
    5.7943   -2.3463   -1.3635 H   0  0  0  0  0  0  0  0  0  0  0  0
    3.1098    1.7792    1.1200 H   0  0  0  0  0  0  0  0  0  0  0  0
    2.3411    1.5092   -0.4522 H   0  0  0  0  0  0  0  0  0  0  0  0
    1.0143    1.6669    2.3118 H   0  0  0  0  0  0  0  0  0  0  0  0
    0.7845    2.7526    0.9332 H   0  0  0  0  0  0  0  0  0  0  0  0
  1  2  1  0
  2  3  2  0
  3  4  1  0
  3  5  1  0
  5  6  2  0
  6  7  1  0
  7  8  2  0
  8  9  1  0
  9 10  1  0
 10 11  2  0
 10 12  1  0
 12 13  1  0
 13 14  1  0
 14 15  2  0
 15 16  1  0
 15 17  1  0
 17 18  1  0
 18 19  2  0
 19 20  1  0
 20 21  2  0
 21 22  1  0
 22 23  2  0
 17 24  1  0
 24 25  1  0
 14 26  1  0
 26 27  1  0
 27 28  1  0
 28 29  1  0
 29 30  2  0
 29 31  1  0
 31 32  1  0
 32 33  1  0
 33 34  2  0
 34 35  1  0
 35 36  2  0
 36 37  1  0
 37 38  2  0
 28 39  1  0
 39 40  1  0
 40 41  1  0
  8  2  1  0
 12 41  1  6
 12  7  1  0
 24 13  2  0
 41 26  1  0
 23 18  1  0
 38 33  1  0
  1 42  1  0
  1 43  1  0
  1 44  1  0
  5 45  1  0
  6 46  1  0
  9 47  1  0
 16 48  1  0
 19 49  1  0
 20 50  1  0
 21 51  1  0
 22 52  1  0
 23 53  1  0
 25 54  1  0
 26 55  1  1
 27 56  1  0
 27 57  1  0
 31 58  1  0
 32 59  1  0
 32 60  1  0
 34 61  1  0
 35 62  1  0
 36 63  1  0
 37 64  1  0
 38 65  1  0
 39 66  1  0
 39 67  1  0
 40 68  1  0
 40 69  1  0
M  END
$$$$
