
     RDKit          3D

 40 42  0  0  0  0  0  0  0  0999 V2000
   -5.9076   -1.6030    1.2646 C   0  0  0  0  0  0  0  0  0  0  0  0
   -5.9334   -1.9064   -0.1256 O   0  0  0  0  0  0  0  0  0  0  0  0
   -4.8301   -1.5419   -0.8542 C   0  0  0  0  0  0  0  0  0  0  0  0
   -3.7261   -0.8316   -0.3801 C   0  0  0  0  0  0  0  0  0  0  0  0
   -2.6553   -0.5321   -1.2395 C   0  0  0  0  0  0  0  0  0  0  0  0
   -1.4894    0.2267   -0.7706 C   0  0  0  0  0  0  0  0  0  0  0  0
   -0.6209   -0.1575    0.1751 C   0  0  0  0  0  0  0  0  0  0  0  0
   -0.6249   -1.6185    1.0901 S   0  0  0  0  0  0  0  0  0  0  0  0
    0.8303   -1.1848    1.9850 C   0  0  0  0  0  0  0  0  0  0  0  0
    1.4403   -2.1130    3.2302 S   0  0  0  0  0  0  0  0  0  0  0  0
    1.3118    0.0112    1.4847 N   0  0  0  0  0  0  0  0  0  0  0  0
    2.4315    0.6402    2.0840 N   0  0  0  0  0  0  0  0  0  0  0  0
    3.4629    1.0305    1.2058 C   0  0  0  0  0  0  0  0  0  0  0  0
    3.8836    2.3044    1.4058 N   0  0  0  0  0  0  0  0  0  0  0  0
    4.8768    2.7898    0.6241 C   0  0  0  0  0  0  0  0  0  0  0  0
    5.5168    2.0537   -0.3571 C   0  0  0  0  0  0  0  0  0  0  0  0
    6.5919    2.6759   -1.1920 C   0  0  0  0  0  0  0  0  0  0  0  0
    6.0963    3.2797   -2.3053 F   0  0  0  0  0  0  0  0  0  0  0  0
    7.5108    1.7729   -1.6318 F   0  0  0  0  0  0  0  0  0  0  0  0
    7.2974    3.6316   -0.5276 F   0  0  0  0  0  0  0  0  0  0  0  0
    5.0924    0.7362   -0.5464 C   0  0  0  0  0  0  0  0  0  0  0  0
    4.0648    0.2098    0.2422 C   0  0  0  0  0  0  0  0  0  0  0  0
    3.6281   -1.4367   -0.0314 Cl  0  0  0  0  0  0  0  0  0  0  0  0
    0.5383    0.6972    0.5578 C   0  0  0  0  0  0  0  0  0  0  0  0
    0.7221    1.8280    0.1292 O   0  0  0  0  0  0  0  0  0  0  0  0
   -2.7094   -0.9273   -2.5827 C   0  0  0  0  0  0  0  0  0  0  0  0
   -3.8121   -1.6316   -3.0634 C   0  0  0  0  0  0  0  0  0  0  0  0
   -4.8557   -1.9312   -2.1982 C   0  0  0  0  0  0  0  0  0  0  0  0
   -5.9265   -2.6236   -2.6944 O   0  0  0  0  0  0  0  0  0  0  0  0
   -5.0639   -2.0937    1.7614 H   0  0  0  0  0  0  0  0  0  0  0  0
   -5.8909   -0.5208    1.4302 H   0  0  0  0  0  0  0  0  0  0  0  0
   -6.8284   -1.9938    1.7087 H   0  0  0  0  0  0  0  0  0  0  0  0
   -3.6782   -0.4963    0.6506 H   0  0  0  0  0  0  0  0  0  0  0  0
   -1.3379    1.1761   -1.2841 H   0  0  0  0  0  0  0  0  0  0  0  0
    2.1663    1.5053    2.5611 H   0  0  0  0  0  0  0  0  0  0  0  0
    5.1459    3.8253    0.8258 H   0  0  0  0  0  0  0  0  0  0  0  0
    5.5677    0.1172   -1.3059 H   0  0  0  0  0  0  0  0  0  0  0  0
   -1.8937   -0.6948   -3.2638 H   0  0  0  0  0  0  0  0  0  0  0  0
   -3.8589   -1.9446   -4.1021 H   0  0  0  0  0  0  0  0  0  0  0  0
   -6.5324   -2.7285   -1.9351 H   0  0  0  0  0  0  0  0  0  0  0  0
  1  2  1  0
  2  3  1  0
  3  4  2  0
  4  5  1  0
  5  6  1  0
  6  7  2  3
  7  8  1  0
  8  9  1  0
  9 10  2  0
  9 11  1  0
 11 12  1  0
 12 13  1  0
 13 14  2  0
 14 15  1  0
 15 16  2  0
 16 17  1  0
 17 18  1  0
 17 19  1  0
 17 20  1  0
 16 21  1  0
 21 22  2  0
 22 23  1  0
 11 24  1  0
 24 25  2  0
  5 26  2  0
 26 27  1  0
 27 28  2  0
 28 29  1  0
 28  3  1  0
 24  7  1  0
 22 13  1  0
  1 30  1  0
  1 31  1  0
  1 32  1  0
  4 33  1  0
  6 34  1  0
 12 35  1  0
 15 36  1  0
 21 37  1  0
 26 38  1  0
 27 39  1  0
 29 40  1  0
M  END
$$$$
