
     RDKit          3D

 74 78  0  0  0  0  0  0  0  0999 V2000
   -2.9326    0.7843    2.5135 C   0  0  0  0  0  0  0  0  0  0  0  0
   -2.2783    1.4993    1.3226 C   0  0  0  0  0  0  0  0  0  0  0  0
   -3.2228    2.6304    0.8690 C   0  0  0  0  0  0  0  0  0  0  0  0
   -2.6004    3.6283   -0.0030 N   0  0  0  0  0  0  0  0  0  0  0  0
   -3.3049    4.9355   -0.0784 C   0  0  0  0  0  0  0  0  0  0  0  0
   -3.0427    5.7723    1.1761 C   0  0  0  0  0  0  0  0  0  0  0  0
   -4.8133    4.8483   -0.4195 C   0  0  0  0  0  0  0  0  0  0  0  0
   -5.5930    4.3961    0.6898 O   0  0  0  0  0  0  0  0  0  0  0  0
   -2.2135    3.1418   -1.2567 C   0  0  0  0  0  0  0  0  0  0  0  0
   -2.9631    3.0352   -2.2205 O   0  0  0  0  0  0  0  0  0  0  0  0
   -0.7655    2.9177   -1.4196 C   0  0  0  0  0  0  0  0  0  0  0  0
   -0.1003    3.9024   -2.1733 C   0  0  0  0  0  0  0  0  0  0  0  0
    1.2692    3.8113   -2.4076 C   0  0  0  0  0  0  0  0  0  0  0  0
    1.9843    2.7247   -1.9113 C   0  0  0  0  0  0  0  0  0  0  0  0
    1.3311    1.7279   -1.1825 C   0  0  0  0  0  0  0  0  0  0  0  0
    1.9826    0.5641   -0.7170 N   0  0  0  0  0  0  0  0  0  0  0  0
    3.3266    0.2479   -0.7262 C   0  0  0  0  0  0  0  0  0  0  0  0
    4.2252    1.0189   -1.0382 O   0  0  0  0  0  0  0  0  0  0  0  0
    3.4988   -1.0704   -0.3293 N   0  0  0  0  0  0  0  0  0  0  0  0
    4.7040   -1.7747   -0.1458 C   0  0  0  0  0  0  0  0  0  0  0  0
    5.9744   -1.1677   -0.1612 C   0  0  0  0  0  0  0  0  0  0  0  0
    7.1372   -1.9225    0.0422 C   0  0  0  0  0  0  0  0  0  0  0  0
    6.9967   -3.2744    0.2543 C   0  0  0  0  0  0  0  0  0  0  0  0
    5.7613   -3.8733    0.2755 C   0  0  0  0  0  0  0  0  0  0  0  0
    4.6005   -3.1544    0.0830 C   0  0  0  0  0  0  0  0  0  0  0  0
    5.8376   -5.2105    0.5067 O   0  0  0  0  0  0  0  0  0  0  0  0
    7.2669   -5.3884    0.5889 C   0  0  0  0  0  0  0  0  0  0  0  0
    8.0063   -4.1569    0.4711 O   0  0  0  0  0  0  0  0  0  0  0  0
   -0.0598    1.8220   -0.9171 C   0  0  0  0  0  0  0  0  0  0  0  0
   -0.5172    0.7776   -0.1628 O   0  0  0  0  0  0  0  0  0  0  0  0
   -1.9060    0.5776    0.1265 C   0  0  0  0  0  0  0  0  0  0  0  0
   -2.0347   -0.9401    0.4057 C   0  0  0  0  0  0  0  0  0  0  0  0
   -1.7087   -1.7130   -0.8248 N   0  0  0  0  0  0  0  0  0  0  0  0
   -2.8644   -2.1294   -1.6335 C   0  0  0  0  0  0  0  0  0  0  0  0
   -0.3601   -2.7371   -0.8010 S   0  0  0  0  0  6  0  0  0  0  0  0
   -0.2227   -3.3348   -2.1109 O   0  0  0  0  0  0  0  0  0  0  0  0
    0.7398   -2.0301   -0.1694 O   0  0  0  0  0  0  0  0  0  0  0  0
   -0.7177   -4.0993    0.2930 C   0  0  0  0  0  0  0  0  0  0  0  0
   -1.8232   -4.4456    1.0506 C   0  0  0  0  0  0  0  0  0  0  0  0
   -1.6246   -5.6564    1.7780 C   0  0  0  0  0  0  0  0  0  0  0  0
   -0.3771   -6.1927    1.5510 C   0  0  0  0  0  0  0  0  0  0  0  0
    0.5499   -5.2379    0.4768 S   0  0  0  0  0  0  0  0  0  0  0  0
   -2.2771    0.0111    2.9256 H   0  0  0  0  0  0  0  0  0  0  0  0
   -3.1331    1.4932    3.3261 H   0  0  0  0  0  0  0  0  0  0  0  0
   -3.8870    0.3263    2.2352 H   0  0  0  0  0  0  0  0  0  0  0  0
   -1.3635    1.9712    1.7083 H   0  0  0  0  0  0  0  0  0  0  0  0
   -3.5766    3.1502    1.7649 H   0  0  0  0  0  0  0  0  0  0  0  0
   -4.0950    2.2017    0.3576 H   0  0  0  0  0  0  0  0  0  0  0  0
   -2.8366    5.4766   -0.9121 H   0  0  0  0  0  0  0  0  0  0  0  0
   -3.4846    5.3329    2.0755 H   0  0  0  0  0  0  0  0  0  0  0  0
   -3.4534    6.7802    1.0608 H   0  0  0  0  0  0  0  0  0  0  0  0
   -1.9670    5.8659    1.3522 H   0  0  0  0  0  0  0  0  0  0  0  0
   -5.0004    4.1754   -1.2617 H   0  0  0  0  0  0  0  0  0  0  0  0
   -5.1817    5.8442   -0.6924 H   0  0  0  0  0  0  0  0  0  0  0  0
   -6.5189    4.3933    0.3946 H   0  0  0  0  0  0  0  0  0  0  0  0
   -0.6539    4.7464   -2.5806 H   0  0  0  0  0  0  0  0  0  0  0  0
    1.7815    4.5770   -2.9859 H   0  0  0  0  0  0  0  0  0  0  0  0
    3.0472    2.6657   -2.1267 H   0  0  0  0  0  0  0  0  0  0  0  0
    1.3621   -0.1176   -0.2855 H   0  0  0  0  0  0  0  0  0  0  0  0
    2.6403   -1.6126   -0.2747 H   0  0  0  0  0  0  0  0  0  0  0  0
    6.0883   -0.0993   -0.3217 H   0  0  0  0  0  0  0  0  0  0  0  0
    8.1149   -1.4528    0.0355 H   0  0  0  0  0  0  0  0  0  0  0  0
    3.6421   -3.6599    0.1042 H   0  0  0  0  0  0  0  0  0  0  0  0
    7.5076   -5.8543    1.5514 H   0  0  0  0  0  0  0  0  0  0  0  0
    7.5820   -6.0642   -0.2154 H   0  0  0  0  0  0  0  0  0  0  0  0
   -2.5130    0.7734   -0.7641 H   0  0  0  0  0  0  0  0  0  0  0  0
   -3.0509   -1.1977    0.7243 H   0  0  0  0  0  0  0  0  0  0  0  0
   -1.3512   -1.2290    1.2122 H   0  0  0  0  0  0  0  0  0  0  0  0
   -2.5593   -2.3496   -2.6602 H   0  0  0  0  0  0  0  0  0  0  0  0
   -3.3546   -3.0047   -1.1968 H   0  0  0  0  0  0  0  0  0  0  0  0
   -3.6002   -1.3213   -1.6893 H   0  0  0  0  0  0  0  0  0  0  0  0
   -2.7348   -3.8618    1.0816 H   0  0  0  0  0  0  0  0  0  0  0  0
   -2.3609   -6.1127    2.4308 H   0  0  0  0  0  0  0  0  0  0  0  0
    0.0420   -7.1011    1.9613 H   0  0  0  0  0  0  0  0  0  0  0  0
  1  2  1  0
  2  3  1  0
  3  4  1  0
  4  5  1  0
  5  6  1  0
  5  7  1  0
  7  8  1  0
  4  9  1  0
  9 10  2  0
  9 11  1  0
 11 12  2  0
 12 13  1  0
 13 14  2  0
 14 15  1  0
 15 16  1  0
 16 17  1  0
 17 18  2  0
 17 19  1  0
 19 20  1  0
 20 21  2  0
 21 22  1  0
 22 23  2  0
 23 24  1  0
 24 25  2  0
 24 26  1  0
 26 27  1  0
 27 28  1  0
 15 29  2  0
 29 30  1  0
 30 31  1  0
 31 32  1  0
 32 33  1  0
 33 34  1  0
 33 35  1  0
 35 36  2  0
 35 37  2  0
 35 38  1  0
 38 39  2  0
 39 40  1  0
 40 41  2  0
 41 42  1  0
 31  2  1  0
 42 38  1  0
 29 11  1  0
 25 20  1  0
 28 23  1  0
  1 43  1  0
  1 44  1  0
  1 45  1  0
  2 46  1  0
  3 47  1  0
  3 48  1  0
  5 49  1  0
  6 50  1  0
  6 51  1  0
  6 52  1  0
  7 53  1  0
  7 54  1  0
  8 55  1  0
 12 56  1  0
 13 57  1  0
 14 58  1  0
 16 59  1  0
 19 60  1  0
 21 61  1  0
 22 62  1  0
 25 63  1  0
 27 64  1  0
 27 65  1  0
 31 66  1  0
 32 67  1  0
 32 68  1  0
 34 69  1  0
 34 70  1  0
 34 71  1  0
 39 72  1  0
 40 73  1  0
 41 74  1  0
M  END
$$$$
