
     RDKit          3D

 64 69  0  0  0  0  0  0  0  0999 V2000
    7.0275    4.4085   -0.3502 F   0  0  0  0  0  0  0  0  0  0  0  0
    6.0874    3.5328    0.1099 C   0  0  0  0  0  0  0  0  0  0  0  0
    6.0007    3.7673    1.4500 F   0  0  0  0  0  0  0  0  0  0  0  0
    4.9054    3.9552   -0.4204 F   0  0  0  0  0  0  0  0  0  0  0  0
    6.3927    2.0855   -0.2178 C   0  0  0  0  0  0  0  0  0  0  0  0
    7.4897    1.7997   -1.0553 C   0  0  0  0  0  0  0  0  0  0  0  0
    7.8156    0.4875   -1.3884 C   0  0  0  0  0  0  0  0  0  0  0  0
    7.0515   -0.5583   -0.8882 C   0  0  0  0  0  0  0  0  0  0  0  0
    5.9599   -0.2957   -0.0579 C   0  0  0  0  0  0  0  0  0  0  0  0
    5.6011    1.0189    0.2845 C   0  0  0  0  0  0  0  0  0  0  0  0
    4.4232    1.3124    1.2035 C   0  0  0  0  0  0  0  0  0  0  0  0
    3.4528    0.1690    1.5821 C   0  0  0  0  0  0  0  0  0  0  0  0
    2.7504   -0.4596    0.4531 N   0  0  0  0  0  0  0  0  0  0  0  0
    1.7443    0.4071   -0.1944 C   0  0  0  0  0  0  0  0  0  0  0  0
    0.2773    0.1689    0.2349 C   0  0  0  0  0  0  0  0  0  0  0  0
   -0.1330   -1.2338    0.0682 N   0  0  0  0  0  0  0  0  0  0  0  0
   -1.3742   -1.5783   -0.4601 C   0  0  0  0  0  0  0  0  0  0  0  0
   -1.4331   -2.6179   -1.2571 N   0  0  0  0  0  0  0  0  0  0  0  0
   -2.6447   -3.0021   -1.8598 C   0  0  0  0  0  0  0  0  0  0  0  0
   -2.6395   -4.1078   -2.7124 C   0  0  0  0  0  0  0  0  0  0  0  0
   -3.8122   -4.5249   -3.3474 C   0  0  0  0  0  0  0  0  0  0  0  0
   -5.0061   -3.8358   -3.1337 C   0  0  0  0  0  0  0  0  0  0  0  0
   -5.0342   -2.7284   -2.2853 C   0  0  0  0  0  0  0  0  0  0  0  0
   -3.8524   -2.3225   -1.6578 C   0  0  0  0  0  0  0  0  0  0  0  0
   -3.7922   -1.2295   -0.7780 N   0  0  0  0  0  0  0  0  0  0  0  0
   -4.8009   -0.3935   -0.3618 C   0  0  0  0  0  0  0  0  0  0  0  0
   -4.2860    0.4893    0.5681 C   0  0  0  0  0  0  0  0  0  0  0  0
   -5.0775    1.4964    1.2602 C   0  0  0  0  0  0  0  0  0  0  0  0
   -4.7919    1.8223    2.5929 C   0  0  0  0  0  0  0  0  0  0  0  0
   -5.5433    2.7899    3.2653 C   0  0  0  0  0  0  0  0  0  0  0  0
   -6.5856    3.4434    2.6114 C   0  0  0  0  0  0  0  0  0  0  0  0
   -6.8774    3.1312    1.2855 C   0  0  0  0  0  0  0  0  0  0  0  0
   -6.1269    2.1633    0.6128 C   0  0  0  0  0  0  0  0  0  0  0  0
   -2.9082    0.1668    0.7057 C   0  0  0  0  0  0  0  0  0  0  0  0
   -2.6112   -0.8642   -0.1693 C   0  0  0  0  0  0  0  0  0  0  0  0
    0.9776   -2.1979   -0.0248 C   0  0  0  0  0  0  0  0  0  0  0  0
    2.1532   -1.7503    0.8644 C   0  0  0  0  0  0  0  0  0  0  0  0
    8.1012    2.6084   -1.4545 H   0  0  0  0  0  0  0  0  0  0  0  0
    8.6630    0.2821   -2.0370 H   0  0  0  0  0  0  0  0  0  0  0  0
    7.2989   -1.5853   -1.1456 H   0  0  0  0  0  0  0  0  0  0  0  0
    5.3892   -1.1467    0.3058 H   0  0  0  0  0  0  0  0  0  0  0  0
    3.8398    2.1327    0.7735 H   0  0  0  0  0  0  0  0  0  0  0  0
    4.8448    1.6879    2.1453 H   0  0  0  0  0  0  0  0  0  0  0  0
    2.7221    0.5548    2.3055 H   0  0  0  0  0  0  0  0  0  0  0  0
    4.0364   -0.5929    2.1161 H   0  0  0  0  0  0  0  0  0  0  0  0
    1.9798    1.4697   -0.0756 H   0  0  0  0  0  0  0  0  0  0  0  0
    1.8127    0.2156   -1.2738 H   0  0  0  0  0  0  0  0  0  0  0  0
    0.1571    0.4516    1.2871 H   0  0  0  0  0  0  0  0  0  0  0  0
   -0.3533    0.8315   -0.3692 H   0  0  0  0  0  0  0  0  0  0  0  0
   -1.7096   -4.6441   -2.8822 H   0  0  0  0  0  0  0  0  0  0  0  0
   -3.7918   -5.3868   -4.0090 H   0  0  0  0  0  0  0  0  0  0  0  0
   -5.9164   -4.1643   -3.6294 H   0  0  0  0  0  0  0  0  0  0  0  0
   -5.9760   -2.2122   -2.1329 H   0  0  0  0  0  0  0  0  0  0  0  0
   -5.8099   -0.5058   -0.7307 H   0  0  0  0  0  0  0  0  0  0  0  0
   -3.9918    1.3158    3.1269 H   0  0  0  0  0  0  0  0  0  0  0  0
   -5.3160    3.0292    4.3006 H   0  0  0  0  0  0  0  0  0  0  0  0
   -7.1703    4.1954    3.1345 H   0  0  0  0  0  0  0  0  0  0  0  0
   -7.6878    3.6419    0.7720 H   0  0  0  0  0  0  0  0  0  0  0  0
   -6.3638    1.9461   -0.4256 H   0  0  0  0  0  0  0  0  0  0  0  0
   -2.2085    0.6491    1.3730 H   0  0  0  0  0  0  0  0  0  0  0  0
    1.3065   -2.2987   -1.0668 H   0  0  0  0  0  0  0  0  0  0  0  0
    0.6417   -3.1836    0.3196 H   0  0  0  0  0  0  0  0  0  0  0  0
    2.9346   -2.5185    0.8412 H   0  0  0  0  0  0  0  0  0  0  0  0
    1.7874   -1.6879    1.8985 H   0  0  0  0  0  0  0  0  0  0  0  0
  1  2  1  0
  2  3  1  0
  2  4  1  0
  2  5  1  0
  5  6  2  0
  6  7  1  0
  7  8  2  0
  8  9  1  0
  9 10  2  0
 10 11  1  0
 11 12  1  0
 12 13  1  0
 13 14  1  0
 14 15  1  0
 15 16  1  0
 16 17  1  0
 17 18  2  0
 18 19  1  0
 19 20  2  0
 20 21  1  0
 21 22  2  0
 22 23  1  0
 23 24  2  0
 24 25  1  0
 25 26  1  0
 26 27  2  0
 27 28  1  0
 28 29  2  0
 29 30  1  0
 30 31  2  0
 31 32  1  0
 32 33  2  0
 27 34  1  0
 34 35  2  0
 16 36  1  0
 36 37  1  0
 10  5  1  0
 37 13  1  0
 35 17  1  0
 24 19  1  0
 35 25  1  0
 33 28  1  0
  6 38  1  0
  7 39  1  0
  8 40  1  0
  9 41  1  0
 11 42  1  0
 11 43  1  0
 12 44  1  0
 12 45  1  0
 14 46  1  0
 14 47  1  0
 15 48  1  0
 15 49  1  0
 20 50  1  0
 21 51  1  0
 22 52  1  0
 23 53  1  0
 26 54  1  0
 29 55  1  0
 30 56  1  0
 31 57  1  0
 32 58  1  0
 33 59  1  0
 34 60  1  0
 36 61  1  0
 36 62  1  0
 37 63  1  0
 37 64  1  0
M  END
$$$$
