
     RDKit          3D

 36 37  0  0  0  0  0  0  0  0999 V2000
    0.8203   -0.8338   -3.1849 O   0  0  0  0  0  0  0  0  0  0  0  0
    0.2355   -0.0694   -2.4216 C   0  0  0  0  0  0  0  0  0  0  0  0
   -1.1725    0.4580   -2.7179 C   0  0  0  0  0  0  0  0  0  0  0  0
   -2.1603    0.0867   -1.7546 O   0  0  0  0  0  0  0  0  0  0  0  0
   -2.2013    0.8476   -0.6357 C   0  0  0  0  0  0  0  0  0  0  0  0
   -1.4455    1.7740   -0.3816 O   0  0  0  0  0  0  0  0  0  0  0  0
   -3.2910    0.3990    0.2725 C   0  0  0  0  0  0  0  0  0  0  0  0
   -4.1052   -0.7052   -0.0180 C   0  0  0  0  0  0  0  0  0  0  0  0
   -5.1147   -1.0875    0.8711 C   0  0  0  0  0  0  0  0  0  0  0  0
   -5.3106   -0.3681    2.0492 C   0  0  0  0  0  0  0  0  0  0  0  0
   -6.6756   -0.8874    3.2489 Br  0  0  0  0  0  0  0  0  0  0  0  0
   -4.5074    0.7307    2.3492 C   0  0  0  0  0  0  0  0  0  0  0  0
   -3.4980    1.1137    1.4615 C   0  0  0  0  0  0  0  0  0  0  0  0
    0.7897    0.4038   -1.2516 N   0  0  0  0  0  0  0  0  0  0  0  0
    2.1734    0.1400   -0.9037 C   0  0  0  0  0  0  0  0  0  0  0  0
    2.4202    0.2458    0.6029 C   0  0  0  0  0  0  0  0  0  0  0  0
    3.8157    0.0464    0.9461 N   0  0  0  0  0  0  0  0  0  0  0  0
    4.3760   -1.1880    1.1608 C   0  0  0  0  0  0  0  0  0  0  0  0
    3.5793   -2.2909    1.1072 O   0  0  0  0  0  0  0  0  0  0  0  0
    5.6922   -1.1674    1.3996 C   0  0  0  0  0  0  0  0  0  0  0  0
    6.3145    0.4549    1.3523 S   0  0  0  0  0  0  0  0  0  0  0  0
    4.7084    1.1054    0.9698 C   0  0  0  0  0  0  0  0  0  0  0  0
    4.4857    2.2861    0.7611 O   0  0  0  0  0  0  0  0  0  0  0  0
   -1.4907    0.0351   -3.6772 H   0  0  0  0  0  0  0  0  0  0  0  0
   -1.1349    1.5459   -2.8526 H   0  0  0  0  0  0  0  0  0  0  0  0
   -3.9661   -1.2803   -0.9306 H   0  0  0  0  0  0  0  0  0  0  0  0
   -5.7396   -1.9457    0.6355 H   0  0  0  0  0  0  0  0  0  0  0  0
   -4.6570    1.2943    3.2669 H   0  0  0  0  0  0  0  0  0  0  0  0
   -2.8749    1.9734    1.7028 H   0  0  0  0  0  0  0  0  0  0  0  0
    0.3231    1.1991   -0.8126 H   0  0  0  0  0  0  0  0  0  0  0  0
    2.4551   -0.8543   -1.2685 H   0  0  0  0  0  0  0  0  0  0  0  0
    2.7861    0.8686   -1.4471 H   0  0  0  0  0  0  0  0  0  0  0  0
    2.1180    1.2428    0.9478 H   0  0  0  0  0  0  0  0  0  0  0  0
    1.7987   -0.4724    1.1511 H   0  0  0  0  0  0  0  0  0  0  0  0
    4.1311   -3.0774    1.2569 H   0  0  0  0  0  0  0  0  0  0  0  0
    6.3223   -2.0233    1.5909 H   0  0  0  0  0  0  0  0  0  0  0  0
  1  2  2  0
  2  3  1  0
  3  4  1  0
  4  5  1  0
  5  6  2  0
  5  7  1  0
  7  8  2  0
  8  9  1  0
  9 10  2  0
 10 11  1  0
 10 12  1  0
 12 13  2  0
  2 14  1  0
 14 15  1  0
 15 16  1  0
 16 17  1  0
 17 18  1  0
 18 19  1  0
 18 20  2  0
 20 21  1  0
 21 22  1  0
 22 23  2  0
 13  7  1  0
 22 17  1  0
  3 24  1  0
  3 25  1  0
  8 26  1  0
  9 27  1  0
 12 28  1  0
 13 29  1  0
 14 30  1  0
 15 31  1  0
 15 32  1  0
 16 33  1  0
 16 34  1  0
 19 35  1  0
 20 36  1  0
M  END
$$$$
