
     RDKit          3D

 37 39  0  0  0  0  0  0  0  0999 V2000
   -5.3262    2.6598    0.7851 C   0  0  0  0  0  0  0  0  0  0  0  0
   -4.8968    1.2459    1.0653 C   0  0  0  0  0  0  0  0  0  0  0  0
   -5.7717    0.3665    1.7212 C   0  0  0  0  0  0  0  0  0  0  0  0
   -5.3815   -0.9428    2.0037 C   0  0  0  0  0  0  0  0  0  0  0  0
   -4.1094   -1.3818    1.6444 C   0  0  0  0  0  0  0  0  0  0  0  0
   -3.2303   -0.5171    0.9892 C   0  0  0  0  0  0  0  0  0  0  0  0
   -3.6263    0.7879    0.6775 C   0  0  0  0  0  0  0  0  0  0  0  0
   -2.8127    1.6949    0.0489 O   0  0  0  0  0  0  0  0  0  0  0  0
   -1.9884    1.1772   -0.9843 C   0  0  0  0  0  0  0  0  0  0  0  0
   -0.5432    0.8493   -0.5764 C   0  0  0  0  0  0  0  0  0  0  0  0
   -0.1247    1.0345    0.5608 O   0  0  0  0  0  0  0  0  0  0  0  0
    0.1760    0.3303   -1.6366 N   0  0  0  0  0  0  0  0  0  0  0  0
    1.4866   -0.0774   -1.6215 C   0  0  0  0  0  0  0  0  0  0  0  0
    2.0736   -0.5576   -2.6932 N   0  0  0  0  0  0  0  0  0  0  0  0
    3.3864   -0.9059   -2.4515 N   0  0  0  0  0  0  0  0  0  0  0  0
    3.7538   -0.6781   -1.2023 C   0  0  0  0  0  0  0  0  0  0  0  0
    5.0978   -0.9554   -0.6666 C   0  0  0  0  0  0  0  0  0  0  0  0
    5.4876   -0.6460    0.6420 C   0  0  0  0  0  0  0  0  0  0  0  0
    6.7804   -0.9455    1.0457 C   0  0  0  0  0  0  0  0  0  0  0  0
    7.7024   -1.5207    0.2485 N   0  0  0  0  0  0  0  0  0  0  0  0
    7.3170   -1.8146   -1.0092 C   0  0  0  0  0  0  0  0  0  0  0  0
    6.0489   -1.5565   -1.5031 C   0  0  0  0  0  0  0  0  0  0  0  0
    2.4825   -0.0150   -0.2469 S   0  0  0  0  0  0  0  0  0  0  0  0
   -4.6524    3.3677    1.2786 H   0  0  0  0  0  0  0  0  0  0  0  0
   -5.3268    2.8486   -0.2937 H   0  0  0  0  0  0  0  0  0  0  0  0
   -6.3390    2.8526    1.1583 H   0  0  0  0  0  0  0  0  0  0  0  0
   -6.7614    0.7005    2.0263 H   0  0  0  0  0  0  0  0  0  0  0  0
   -6.0644   -1.6142    2.5189 H   0  0  0  0  0  0  0  0  0  0  0  0
   -3.7953   -2.3939    1.8880 H   0  0  0  0  0  0  0  0  0  0  0  0
   -2.2328   -0.8766    0.7618 H   0  0  0  0  0  0  0  0  0  0  0  0
   -2.4430    0.3049   -1.4736 H   0  0  0  0  0  0  0  0  0  0  0  0
   -1.9245    1.9635   -1.7464 H   0  0  0  0  0  0  0  0  0  0  0  0
   -0.2619    0.2252   -2.5424 H   0  0  0  0  0  0  0  0  0  0  0  0
    4.8175   -0.1814    1.3569 H   0  0  0  0  0  0  0  0  0  0  0  0
    7.1168   -0.7214    2.0545 H   0  0  0  0  0  0  0  0  0  0  0  0
    8.0762   -2.2809   -1.6314 H   0  0  0  0  0  0  0  0  0  0  0  0
    5.8095   -1.8265   -2.5289 H   0  0  0  0  0  0  0  0  0  0  0  0
  1  2  1  0
  2  3  2  0
  3  4  1  0
  4  5  2  0
  5  6  1  0
  6  7  2  0
  7  8  1  0
  8  9  1  0
  9 10  1  0
 10 11  2  0
 10 12  1  0
 12 13  1  0
 13 14  2  0
 14 15  1  0
 15 16  2  0
 16 17  1  0
 17 18  2  0
 18 19  1  0
 19 20  2  0
 20 21  1  0
 21 22  2  0
 16 23  1  0
  7  2  1  0
 23 13  1  0
 22 17  1  0
  1 24  1  0
  1 25  1  0
  1 26  1  0
  3 27  1  0
  4 28  1  0
  5 29  1  0
  6 30  1  0
  9 31  1  0
  9 32  1  0
 12 33  1  0
 18 34  1  0
 19 35  1  0
 21 36  1  0
 22 37  1  0
M  END
$$$$
