
     RDKit          3D

 51 55  0  0  0  0  0  0  0  0999 V2000
    4.8588   -2.2212   -0.4470 F   0  0  0  0  0  0  0  0  0  0  0  0
    5.4616   -1.3360    0.3602 C   0  0  0  0  0  0  0  0  0  0  0  0
    6.7931   -1.5430    0.7083 C   0  0  0  0  0  0  0  0  0  0  0  0
    7.4366   -0.6308    1.5422 C   0  0  0  0  0  0  0  0  0  0  0  0
    6.7441    0.4836    2.0185 C   0  0  0  0  0  0  0  0  0  0  0  0
    5.4077    0.6878    1.6633 C   0  0  0  0  0  0  0  0  0  0  0  0
    4.7500   -0.2272    0.8301 C   0  0  0  0  0  0  0  0  0  0  0  0
    3.3111   -0.0174    0.4281 C   0  0  0  0  0  0  0  0  0  0  0  0
    3.1960    0.5630   -0.9947 C   0  0  0  0  0  0  0  0  0  0  0  0
    1.8419    0.8539   -1.4832 N   0  0  0  0  0  0  0  0  0  0  0  0
    1.0315   -0.3529   -1.7180 C   0  0  0  0  0  0  0  0  0  0  0  0
   -0.4558   -0.0326   -1.9863 C   0  0  0  0  0  0  0  0  0  0  0  0
   -1.0731    0.6857   -0.8593 N   0  0  0  0  0  0  0  0  0  0  0  0
   -2.3418    0.3534   -0.3926 C   0  0  0  0  0  0  0  0  0  0  0  0
   -2.5425    0.3689    0.9036 N   0  0  0  0  0  0  0  0  0  0  0  0
   -3.7888    0.0042    1.4472 C   0  0  0  0  0  0  0  0  0  0  0  0
   -3.9381    0.0239    2.8356 C   0  0  0  0  0  0  0  0  0  0  0  0
   -5.1500   -0.3406    3.4290 C   0  0  0  0  0  0  0  0  0  0  0  0
   -6.2281   -0.7319    2.6350 C   0  0  0  0  0  0  0  0  0  0  0  0
   -6.1012   -0.7590    1.2454 C   0  0  0  0  0  0  0  0  0  0  0  0
   -4.8822   -0.3916    0.6666 C   0  0  0  0  0  0  0  0  0  0  0  0
   -4.6727   -0.3755   -0.7217 N   0  0  0  0  0  0  0  0  0  0  0  0
   -5.5476   -0.6803   -1.7373 C   0  0  0  0  0  0  0  0  0  0  0  0
   -4.9155   -0.4387   -2.9365 C   0  0  0  0  0  0  0  0  0  0  0  0
   -3.6083    0.0098   -2.6363 C   0  0  0  0  0  0  0  0  0  0  0  0
   -3.4599    0.0015   -1.2597 C   0  0  0  0  0  0  0  0  0  0  0  0
   -0.1258    1.3517    0.0521 C   0  0  0  0  0  0  0  0  0  0  0  0
    1.1143    1.8724   -0.7046 C   0  0  0  0  0  0  0  0  0  0  0  0
    7.3177   -2.4137    0.3279 H   0  0  0  0  0  0  0  0  0  0  0  0
    8.4754   -0.7869    1.8208 H   0  0  0  0  0  0  0  0  0  0  0  0
    7.2450    1.1941    2.6717 H   0  0  0  0  0  0  0  0  0  0  0  0
    4.8849    1.5625    2.0439 H   0  0  0  0  0  0  0  0  0  0  0  0
    2.8291    0.6468    1.1553 H   0  0  0  0  0  0  0  0  0  0  0  0
    2.7882   -0.9779    0.5059 H   0  0  0  0  0  0  0  0  0  0  0  0
    3.6808   -0.1165   -1.7079 H   0  0  0  0  0  0  0  0  0  0  0  0
    3.7828    1.4897   -1.0505 H   0  0  0  0  0  0  0  0  0  0  0  0
    1.4372   -0.8938   -2.5809 H   0  0  0  0  0  0  0  0  0  0  0  0
    1.0763   -1.0329   -0.8589 H   0  0  0  0  0  0  0  0  0  0  0  0
   -0.5426    0.5807   -2.8911 H   0  0  0  0  0  0  0  0  0  0  0  0
   -0.9702   -0.9823   -2.1718 H   0  0  0  0  0  0  0  0  0  0  0  0
   -3.0988    0.3255    3.4566 H   0  0  0  0  0  0  0  0  0  0  0  0
   -5.2494   -0.3194    4.5110 H   0  0  0  0  0  0  0  0  0  0  0  0
   -7.1709   -1.0127    3.0994 H   0  0  0  0  0  0  0  0  0  0  0  0
   -6.9544   -1.0631    0.6481 H   0  0  0  0  0  0  0  0  0  0  0  0
   -6.5528   -1.0227   -1.5406 H   0  0  0  0  0  0  0  0  0  0  0  0
   -5.3538   -0.5606   -3.9184 H   0  0  0  0  0  0  0  0  0  0  0  0
   -2.8605    0.3094   -3.3564 H   0  0  0  0  0  0  0  0  0  0  0  0
   -0.6174    2.2054    0.5345 H   0  0  0  0  0  0  0  0  0  0  0  0
    0.1863    0.6542    0.8392 H   0  0  0  0  0  0  0  0  0  0  0  0
    1.7750    2.3998   -0.0059 H   0  0  0  0  0  0  0  0  0  0  0  0
    0.7771    2.6337   -1.4205 H   0  0  0  0  0  0  0  0  0  0  0  0
  1  2  1  0
  2  3  2  0
  3  4  1  0
  4  5  2  0
  5  6  1  0
  6  7  2  0
  7  8  1  0
  8  9  1  0
  9 10  1  0
 10 11  1  0
 11 12  1  0
 12 13  1  0
 13 14  1  0
 14 15  2  0
 15 16  1  0
 16 17  2  0
 17 18  1  0
 18 19  2  0
 19 20  1  0
 20 21  2  0
 21 22  1  0
 22 23  1  0
 23 24  2  0
 24 25  1  0
 25 26  2  0
 13 27  1  0
 27 28  1  0
  7  2  1  0
 28 10  1  0
 26 14  1  0
 21 16  1  0
 26 22  1  0
  3 29  1  0
  4 30  1  0
  5 31  1  0
  6 32  1  0
  8 33  1  0
  8 34  1  0
  9 35  1  0
  9 36  1  0
 11 37  1  0
 11 38  1  0
 12 39  1  0
 12 40  1  0
 17 41  1  0
 18 42  1  0
 19 43  1  0
 20 44  1  0
 23 45  1  0
 24 46  1  0
 25 47  1  0
 27 48  1  0
 27 49  1  0
 28 50  1  0
 28 51  1  0
M  END
$$$$
