
     RDKit          3D

 38 40  0  0  0  0  0  0  0  0999 V2000
   -7.0306    1.0235    1.2469 C   0  0  0  0  0  0  0  0  0  0  0  0
   -6.9737   -0.3707    0.6455 C   0  0  0  0  0  0  0  0  0  0  0  0
   -5.6463   -0.6951    0.2376 O   0  0  0  0  0  0  0  0  0  0  0  0
   -5.3302   -0.2125   -1.0702 C   0  0  0  0  0  0  0  0  0  0  0  0
   -3.9183   -0.5878   -1.3738 C   0  0  0  0  0  0  0  0  0  0  0  0
   -3.5415   -1.3495   -2.3825 N   0  0  0  0  0  0  0  0  0  0  0  0
   -2.1676   -1.5000   -2.4359 N   0  0  0  0  0  0  0  0  0  0  0  0
   -1.5695   -0.8489   -1.4704 C   0  0  0  0  0  0  0  0  0  0  0  0
   -0.2446   -0.7346   -1.1679 N   0  0  0  0  0  0  0  0  0  0  0  0
    0.7461   -1.3243   -1.9171 C   0  0  0  0  0  0  0  0  0  0  0  0
    0.5957   -2.0131   -2.9213 O   0  0  0  0  0  0  0  0  0  0  0  0
    2.1489   -1.0368   -1.3763 C   0  0  0  0  0  0  0  0  0  0  0  0
    2.0949   -0.1700   -0.2410 O   0  0  0  0  0  0  0  0  0  0  0  0
    3.2940    0.2030    0.3055 C   0  0  0  0  0  0  0  0  0  0  0  0
    3.1837    1.0743    1.4086 C   0  0  0  0  0  0  0  0  0  0  0  0
    4.3199    1.5460    2.0743 C   0  0  0  0  0  0  0  0  0  0  0  0
    5.5469    1.1284    1.6116 C   0  0  0  0  0  0  0  0  0  0  0  0
    5.6598    0.2783    0.5376 C   0  0  0  0  0  0  0  0  0  0  0  0
    4.5556   -0.2043   -0.1376 C   0  0  0  0  0  0  0  0  0  0  0  0
    6.9558   -0.0110    0.2416 O   0  0  0  0  0  0  0  0  0  0  0  0
    7.6441    0.7423    1.2619 C   0  0  0  0  0  0  0  0  0  0  0  0
    6.7546    1.4796    2.1272 O   0  0  0  0  0  0  0  0  0  0  0  0
   -2.6089    0.0136   -0.4266 S   0  0  0  0  0  0  0  0  0  0  0  0
   -6.3276    1.1016    2.0847 H   0  0  0  0  0  0  0  0  0  0  0  0
   -6.7424    1.7909    0.5211 H   0  0  0  0  0  0  0  0  0  0  0  0
   -8.0393    1.2477    1.6084 H   0  0  0  0  0  0  0  0  0  0  0  0
   -7.2580   -1.0970    1.4134 H   0  0  0  0  0  0  0  0  0  0  0  0
   -7.6779   -0.4810   -0.1867 H   0  0  0  0  0  0  0  0  0  0  0  0
   -5.4467    0.8755   -1.1212 H   0  0  0  0  0  0  0  0  0  0  0  0
   -6.0018   -0.6762   -1.8019 H   0  0  0  0  0  0  0  0  0  0  0  0
    0.0166   -0.1857   -0.3599 H   0  0  0  0  0  0  0  0  0  0  0  0
    2.7122   -0.5608   -2.1894 H   0  0  0  0  0  0  0  0  0  0  0  0
    2.5905   -1.9986   -1.0935 H   0  0  0  0  0  0  0  0  0  0  0  0
    2.2001    1.3874    1.7509 H   0  0  0  0  0  0  0  0  0  0  0  0
    4.2388    2.2151    2.9228 H   0  0  0  0  0  0  0  0  0  0  0  0
    4.7065   -0.8745   -0.9744 H   0  0  0  0  0  0  0  0  0  0  0  0
    8.3267    1.4477    0.7750 H   0  0  0  0  0  0  0  0  0  0  0  0
    8.2337    0.0478    1.8728 H   0  0  0  0  0  0  0  0  0  0  0  0
  1  2  1  0
  2  3  1  0
  3  4  1  0
  4  5  1  0
  5  6  2  0
  6  7  1  0
  7  8  2  0
  8  9  1  0
  9 10  1  0
 10 11  2  0
 10 12  1  0
 12 13  1  0
 13 14  1  0
 14 15  2  0
 15 16  1  0
 16 17  2  0
 17 18  1  0
 18 19  2  0
 18 20  1  0
 20 21  1  0
 21 22  1  0
  8 23  1  0
 23  5  1  0
 19 14  1  0
 22 17  1  0
  1 24  1  0
  1 25  1  0
  1 26  1  0
  2 27  1  0
  2 28  1  0
  4 29  1  0
  4 30  1  0
  9 31  1  0
 12 32  1  0
 12 33  1  0
 15 34  1  0
 16 35  1  0
 19 36  1  0
 21 37  1  0
 21 38  1  0
M  END
$$$$
