
     RDKit          3D

 49 50  0  0  0  0  0  0  0  0999 V2000
    4.3217   -1.0264   -1.6252 C   0  0  0  0  0  0  0  0  0  0  0  0
    4.0183   -1.7710   -0.3266 C   0  0  0  0  0  0  0  0  0  0  0  0
    4.6810   -1.0842    0.8660 C   0  0  0  0  0  0  0  0  0  0  0  0
    2.5160   -2.0431   -0.1128 C   0  0  0  0  0  0  0  0  0  0  0  0
    1.6176   -0.8887    0.3356 C   0  0  0  0  0  0  0  0  0  0  0  0
    1.3984    0.1303   -0.7246 N   0  0  0  0  0  4  0  0  0  0  0  0
    1.9531    1.3572   -0.5469 C   0  0  0  0  0  0  0  0  0  0  0  0
    1.8295    2.3572   -1.5025 C   0  0  0  0  0  0  0  0  0  0  0  0
    1.1108    2.1082   -2.6580 C   0  0  0  0  0  0  0  0  0  0  0  0
    0.5052    0.8704   -2.8175 C   0  0  0  0  0  0  0  0  0  0  0  0
    0.6320   -0.1138   -1.8264 C   0  0  0  0  0  0  0  0  0  0  0  0
   -0.1131   -1.3661   -2.0060 C   0  0  0  0  0  0  0  0  0  0  0  0
   -1.2647   -1.6916   -1.3929 C   0  0  0  0  0  0  0  0  0  0  0  0
   -1.9703   -0.8779   -0.3970 C   0  0  0  0  0  0  0  0  0  0  0  0
   -2.4104    0.4149   -0.6691 C   0  0  0  0  0  0  0  0  0  0  0  0
   -3.0377    1.1767    0.3282 C   0  0  0  0  0  0  0  0  0  0  0  0
   -3.2757    0.6781    1.6213 C   0  0  0  0  0  0  0  0  0  0  0  0
   -3.8639    1.4633    2.6200 N   0  0  0  0  0  0  0  0  0  0  0  0
   -4.7092    2.5893    2.2110 C   0  0  0  0  0  0  0  0  0  0  0  0
   -4.2607    0.8316    3.8808 C   0  0  0  0  0  0  0  0  0  0  0  0
   -2.8430   -0.6383    1.8561 C   0  0  0  0  0  0  0  0  0  0  0  0
   -2.2155   -1.4102    0.8669 C   0  0  0  0  0  0  0  0  0  0  0  0
    5.3919   -1.0858   -1.8529 H   0  0  0  0  0  0  0  0  0  0  0  0
    4.0679    0.0330   -1.5637 H   0  0  0  0  0  0  0  0  0  0  0  0
    3.7793   -1.4655   -2.4691 H   0  0  0  0  0  0  0  0  0  0  0  0
    4.4890   -2.7595   -0.4260 H   0  0  0  0  0  0  0  0  0  0  0  0
    4.3431   -0.0506    0.9825 H   0  0  0  0  0  0  0  0  0  0  0  0
    4.4654   -1.6238    1.7942 H   0  0  0  0  0  0  0  0  0  0  0  0
    5.7690   -1.0616    0.7386 H   0  0  0  0  0  0  0  0  0  0  0  0
    2.4426   -2.8108    0.6703 H   0  0  0  0  0  0  0  0  0  0  0  0
    2.1174   -2.5165   -1.0156 H   0  0  0  0  0  0  0  0  0  0  0  0
    0.6384   -1.2646    0.6375 H   0  0  0  0  0  0  0  0  0  0  0  0
    2.0265   -0.3944    1.2231 H   0  0  0  0  0  0  0  0  0  0  0  0
    2.5169    1.5309    0.3659 H   0  0  0  0  0  0  0  0  0  0  0  0
    2.2962    3.3273   -1.3449 H   0  0  0  0  0  0  0  0  0  0  0  0
    1.0051    2.8767   -3.4217 H   0  0  0  0  0  0  0  0  0  0  0  0
   -0.0913    0.6797   -3.7088 H   0  0  0  0  0  0  0  0  0  0  0  0
    0.3041   -2.0492   -2.7443 H   0  0  0  0  0  0  0  0  0  0  0  0
   -1.7353   -2.6497   -1.6155 H   0  0  0  0  0  0  0  0  0  0  0  0
   -2.2896    0.8547   -1.6557 H   0  0  0  0  0  0  0  0  0  0  0  0
   -3.3374    2.1853    0.0588 H   0  0  0  0  0  0  0  0  0  0  0  0
   -5.5342    2.2493    1.5749 H   0  0  0  0  0  0  0  0  0  0  0  0
   -4.1276    3.3544    1.6854 H   0  0  0  0  0  0  0  0  0  0  0  0
   -5.1465    3.0916    3.0812 H   0  0  0  0  0  0  0  0  0  0  0  0
   -5.0375    0.0765    3.7163 H   0  0  0  0  0  0  0  0  0  0  0  0
   -3.4010    0.3753    4.3837 H   0  0  0  0  0  0  0  0  0  0  0  0
   -4.6576    1.5721    4.5840 H   0  0  0  0  0  0  0  0  0  0  0  0
   -2.9941   -1.1119    2.8221 H   0  0  0  0  0  0  0  0  0  0  0  0
   -1.9202   -2.4286    1.1109 H   0  0  0  0  0  0  0  0  0  0  0  0
  1  2  1  0
  2  3  1  0
  2  4  1  0
  4  5  1  0
  5  6  1  0
  6  7  2  0
  7  8  1  0
  8  9  2  0
  9 10  1  0
 10 11  2  0
 11 12  1  0
 12 13  2  3
 13 14  1  0
 14 15  2  0
 15 16  1  0
 16 17  2  0
 17 18  1  0
 18 19  1  0
 18 20  1  0
 17 21  1  0
 21 22  2  0
 11  6  1  0
 22 14  1  0
  1 23  1  0
  1 24  1  0
  1 25  1  0
  2 26  1  0
  3 27  1  0
  3 28  1  0
  3 29  1  0
  4 30  1  0
  4 31  1  0
  5 32  1  0
  5 33  1  0
  7 34  1  0
  8 35  1  0
  9 36  1  0
 10 37  1  0
 12 38  1  0
 13 39  1  0
 15 40  1  0
 16 41  1  0
 19 42  1  0
 19 43  1  0
 19 44  1  0
 20 45  1  0
 20 46  1  0
 20 47  1  0
 21 48  1  0
 22 49  1  0
M  CHG  1   6   1
M  END
$$$$
