
     RDKit          3D

 62 66  0  0  0  0  0  0  0  0999 V2000
   -4.2133    6.1461   -1.8424 C   0  0  0  0  0  0  0  0  0  0  0  0
   -3.3517    5.0269   -1.6800 O   0  0  0  0  0  0  0  0  0  0  0  0
   -3.8197    3.9884   -0.9219 C   0  0  0  0  0  0  0  0  0  0  0  0
   -5.0444    3.9405   -0.2697 C   0  0  0  0  0  0  0  0  0  0  0  0
   -5.4113    2.8158    0.4787 C   0  0  0  0  0  0  0  0  0  0  0  0
   -4.5225    1.7273    0.5667 C   0  0  0  0  0  0  0  0  0  0  0  0
   -4.7699    0.2594    1.4260 S   0  0  0  0  0  0  0  0  0  0  0  0
   -3.2513   -0.3693    0.9585 C   0  0  0  0  0  0  0  0  0  0  0  0
   -2.8671   -1.7019    1.4405 C   0  0  0  0  0  0  0  0  0  0  0  0
   -2.1850   -1.8038    2.6642 C   0  0  0  0  0  0  0  0  0  0  0  0
   -1.7859   -3.0467    3.1515 C   0  0  0  0  0  0  0  0  0  0  0  0
   -2.0642   -4.1969    2.4194 C   0  0  0  0  0  0  0  0  0  0  0  0
   -2.7400   -4.1095    1.1984 C   0  0  0  0  0  0  0  0  0  0  0  0
   -3.1449   -2.8670    0.6963 C   0  0  0  0  0  0  0  0  0  0  0  0
   -3.8071   -2.6894   -0.4929 O   0  0  0  0  0  0  0  0  0  0  0  0
   -4.0538   -3.8416   -1.2861 C   0  0  0  0  0  0  0  0  0  0  0  0
   -2.5525    0.5202    0.1605 C   0  0  0  0  0  0  0  0  0  0  0  0
   -1.2260    0.2045   -0.3510 C   0  0  0  0  0  0  0  0  0  0  0  0
   -0.0895    0.6981    0.2960 C   0  0  0  0  0  0  0  0  0  0  0  0
    1.1872    0.4004   -0.1944 C   0  0  0  0  0  0  0  0  0  0  0  0
    1.3348   -0.3852   -1.3383 C   0  0  0  0  0  0  0  0  0  0  0  0
    2.5142   -0.7561   -1.9211 O   0  0  0  0  0  0  0  0  0  0  0  0
    3.7336   -0.2037   -1.4155 C   0  0  0  0  0  0  0  0  0  0  0  0
    4.2975   -1.0743   -0.2778 C   0  0  0  0  0  0  0  0  0  0  0  0
    5.5290   -0.6361    0.3809 N   0  0  0  0  0  0  0  0  0  0  0  0
    5.4181    0.6080    1.1339 C   0  0  0  0  0  0  0  0  0  0  0  0
    6.8683    0.9291    1.4705 C   0  0  0  0  0  0  0  0  0  0  0  0
    7.6981    0.1891    0.4249 C   0  0  0  0  0  0  0  0  0  0  0  0
    6.6813   -0.4683   -0.4969 C   0  0  0  0  0  0  0  0  0  0  0  0
    0.1944   -0.8759   -1.9811 C   0  0  0  0  0  0  0  0  0  0  0  0
   -1.0815   -0.5824   -1.4951 C   0  0  0  0  0  0  0  0  0  0  0  0
   -3.2832    1.7438   -0.0745 C   0  0  0  0  0  0  0  0  0  0  0  0
   -2.9447    2.8998   -0.8255 C   0  0  0  0  0  0  0  0  0  0  0  0
   -5.1446    5.8594   -2.3418 H   0  0  0  0  0  0  0  0  0  0  0  0
   -4.4125    6.6329   -0.8819 H   0  0  0  0  0  0  0  0  0  0  0  0
   -3.7019    6.8709   -2.4830 H   0  0  0  0  0  0  0  0  0  0  0  0
   -5.7502    4.7634   -0.3183 H   0  0  0  0  0  0  0  0  0  0  0  0
   -6.3722    2.7841    0.9848 H   0  0  0  0  0  0  0  0  0  0  0  0
   -1.9609   -0.9084    3.2394 H   0  0  0  0  0  0  0  0  0  0  0  0
   -1.2576   -3.1157    4.0987 H   0  0  0  0  0  0  0  0  0  0  0  0
   -1.7530   -5.1678    2.7972 H   0  0  0  0  0  0  0  0  0  0  0  0
   -2.9336   -5.0329    0.6633 H   0  0  0  0  0  0  0  0  0  0  0  0
   -3.1175   -4.3255   -1.5831 H   0  0  0  0  0  0  0  0  0  0  0  0
   -4.7169   -4.5425   -0.7687 H   0  0  0  0  0  0  0  0  0  0  0  0
   -4.5623   -3.5159   -2.1984 H   0  0  0  0  0  0  0  0  0  0  0  0
   -0.1907    1.3111    1.1886 H   0  0  0  0  0  0  0  0  0  0  0  0
    2.0392    0.7919    0.3500 H   0  0  0  0  0  0  0  0  0  0  0  0
    3.6161    0.8503   -1.1441 H   0  0  0  0  0  0  0  0  0  0  0  0
    4.4343   -0.2182   -2.2576 H   0  0  0  0  0  0  0  0  0  0  0  0
    3.5281   -1.2169    0.4910 H   0  0  0  0  0  0  0  0  0  0  0  0
    4.4596   -2.0853   -0.6751 H   0  0  0  0  0  0  0  0  0  0  0  0
    4.9961    1.4223    0.5341 H   0  0  0  0  0  0  0  0  0  0  0  0
    4.8129    0.4924    2.0385 H   0  0  0  0  0  0  0  0  0  0  0  0
    7.0544    2.0075    1.4431 H   0  0  0  0  0  0  0  0  0  0  0  0
    7.1269    0.5689    2.4731 H   0  0  0  0  0  0  0  0  0  0  0  0
    8.3219   -0.5675    0.9158 H   0  0  0  0  0  0  0  0  0  0  0  0
    8.3613    0.8666   -0.1221 H   0  0  0  0  0  0  0  0  0  0  0  0
    6.4704    0.2007   -1.3390 H   0  0  0  0  0  0  0  0  0  0  0  0
    7.0503   -1.4214   -0.8878 H   0  0  0  0  0  0  0  0  0  0  0  0
    0.3000   -1.4929   -2.8701 H   0  0  0  0  0  0  0  0  0  0  0  0
   -1.9567   -0.9738   -2.0082 H   0  0  0  0  0  0  0  0  0  0  0  0
   -1.9877    2.9412   -1.3411 H   0  0  0  0  0  0  0  0  0  0  0  0
  1  2  1  0
  2  3  1  0
  3  4  2  0
  4  5  1  0
  5  6  2  0
  6  7  1  0
  7  8  1  0
  8  9  1  0
  9 10  2  0
 10 11  1  0
 11 12  2  0
 12 13  1  0
 13 14  2  0
 14 15  1  0
 15 16  1  0
  8 17  2  0
 17 18  1  0
 18 19  2  0
 19 20  1  0
 20 21  2  0
 21 22  1  0
 22 23  1  0
 23 24  1  0
 24 25  1  0
 25 26  1  0
 26 27  1  0
 27 28  1  0
 28 29  1  0
 21 30  1  0
 30 31  2  0
 17 32  1  0
 32 33  2  0
 33  3  1  0
 32  6  1  0
 14  9  1  0
 31 18  1  0
 29 25  1  0
  1 34  1  0
  1 35  1  0
  1 36  1  0
  4 37  1  0
  5 38  1  0
 10 39  1  0
 11 40  1  0
 12 41  1  0
 13 42  1  0
 16 43  1  0
 16 44  1  0
 16 45  1  0
 19 46  1  0
 20 47  1  0
 23 48  1  0
 23 49  1  0
 24 50  1  0
 24 51  1  0
 26 52  1  0
 26 53  1  0
 27 54  1  0
 27 55  1  0
 28 56  1  0
 28 57  1  0
 29 58  1  0
 29 59  1  0
 30 60  1  0
 31 61  1  0
 33 62  1  0
M  END
$$$$
