
     RDKit          3D

 51 55  0  0  0  0  0  0  0  0999 V2000
    7.6006    3.6117    1.5144 F   0  0  0  0  0  0  0  0  0  0  0  0
    6.6702    2.6583    1.3730 C   0  0  0  0  0  0  0  0  0  0  0  0
    6.8783    1.6288    0.4631 C   0  0  0  0  0  0  0  0  0  0  0  0
    5.9087    0.6360    0.3132 C   0  0  0  0  0  0  0  0  0  0  0  0
    4.7319    0.6737    1.0782 C   0  0  0  0  0  0  0  0  0  0  0  0
    3.6728   -0.3912    0.8985 C   0  0  0  0  0  0  0  0  0  0  0  0
    2.6029    0.0393   -0.1198 C   0  0  0  0  0  0  0  0  0  0  0  0
    1.6589   -1.0406   -0.4682 N   0  0  0  0  0  0  0  0  0  0  0  0
    0.8061   -0.6165   -1.6069 C   0  0  0  0  0  0  0  0  0  0  0  0
   -0.2315   -1.6897   -2.0072 C   0  0  0  0  0  0  0  0  0  0  0  0
   -1.0893   -2.0403   -0.8587 N   0  0  0  0  0  0  0  0  0  0  0  0
   -2.2265   -1.2702   -0.6139 C   0  0  0  0  0  0  0  0  0  0  0  0
   -2.3433   -0.6463    0.5318 N   0  0  0  0  0  0  0  0  0  0  0  0
   -3.4577    0.1745    0.7945 C   0  0  0  0  0  0  0  0  0  0  0  0
   -3.5191    0.8331    2.0241 C   0  0  0  0  0  0  0  0  0  0  0  0
   -4.5918    1.6754    2.3290 C   0  0  0  0  0  0  0  0  0  0  0  0
   -5.6166    1.8672    1.4022 C   0  0  0  0  0  0  0  0  0  0  0  0
   -5.5777    1.2159    0.1683 C   0  0  0  0  0  0  0  0  0  0  0  0
   -4.4994    0.3767   -0.1224 C   0  0  0  0  0  0  0  0  0  0  0  0
   -4.3854   -0.3269   -1.3325 N   0  0  0  0  0  0  0  0  0  0  0  0
   -5.2436   -0.3708   -2.4059 C   0  0  0  0  0  0  0  0  0  0  0  0
   -4.7326   -1.2571   -3.3298 C   0  0  0  0  0  0  0  0  0  0  0  0
   -3.5176   -1.7548   -2.8051 C   0  0  0  0  0  0  0  0  0  0  0  0
   -3.3031   -1.1410   -1.5839 C   0  0  0  0  0  0  0  0  0  0  0  0
   -0.2681   -2.4752    0.2894 C   0  0  0  0  0  0  0  0  0  0  0  0
    0.7827   -1.4072    0.6732 C   0  0  0  0  0  0  0  0  0  0  0  0
    4.5376    1.7258    1.9881 C   0  0  0  0  0  0  0  0  0  0  0  0
    5.5094    2.7172    2.1359 C   0  0  0  0  0  0  0  0  0  0  0  0
    7.7912    1.6045   -0.1235 H   0  0  0  0  0  0  0  0  0  0  0  0
    6.0740   -0.1672   -0.4038 H   0  0  0  0  0  0  0  0  0  0  0  0
    4.1521   -1.3248    0.5717 H   0  0  0  0  0  0  0  0  0  0  0  0
    3.2224   -0.6048    1.8756 H   0  0  0  0  0  0  0  0  0  0  0  0
    2.0662    0.9235    0.2505 H   0  0  0  0  0  0  0  0  0  0  0  0
    3.1227    0.3534   -1.0356 H   0  0  0  0  0  0  0  0  0  0  0  0
    0.2806    0.3180   -1.3620 H   0  0  0  0  0  0  0  0  0  0  0  0
    1.4401   -0.4197   -2.4799 H   0  0  0  0  0  0  0  0  0  0  0  0
    0.2836   -2.5931   -2.3544 H   0  0  0  0  0  0  0  0  0  0  0  0
   -0.8137   -1.3179   -2.8552 H   0  0  0  0  0  0  0  0  0  0  0  0
   -2.7201    0.6888    2.7472 H   0  0  0  0  0  0  0  0  0  0  0  0
   -4.6237    2.1825    3.2903 H   0  0  0  0  0  0  0  0  0  0  0  0
   -6.4463    2.5272    1.6433 H   0  0  0  0  0  0  0  0  0  0  0  0
   -6.3859    1.3797   -0.5351 H   0  0  0  0  0  0  0  0  0  0  0  0
   -6.1562    0.2073   -2.4301 H   0  0  0  0  0  0  0  0  0  0  0  0
   -5.1924   -1.5240   -4.2728 H   0  0  0  0  0  0  0  0  0  0  0  0
   -2.8678   -2.4871   -3.2654 H   0  0  0  0  0  0  0  0  0  0  0  0
   -0.8977   -2.7186    1.1527 H   0  0  0  0  0  0  0  0  0  0  0  0
    0.2463   -3.4050    0.0162 H   0  0  0  0  0  0  0  0  0  0  0  0
    0.2806   -0.5136    1.0664 H   0  0  0  0  0  0  0  0  0  0  0  0
    1.3878   -1.8260    1.4842 H   0  0  0  0  0  0  0  0  0  0  0  0
    3.6295    1.7779    2.5854 H   0  0  0  0  0  0  0  0  0  0  0  0
    5.3699    3.5330    2.8391 H   0  0  0  0  0  0  0  0  0  0  0  0
  1  2  1  0
  2  3  2  0
  3  4  1  0
  4  5  2  0
  5  6  1  0
  6  7  1  0
  7  8  1  0
  8  9  1  0
  9 10  1  0
 10 11  1  0
 11 12  1  0
 12 13  2  0
 13 14  1  0
 14 15  2  0
 15 16  1  0
 16 17  2  0
 17 18  1  0
 18 19  2  0
 19 20  1  0
 20 21  1  0
 21 22  2  0
 22 23  1  0
 23 24  2  0
 11 25  1  0
 25 26  1  0
  5 27  1  0
 27 28  2  0
 28  2  1  0
 26  8  1  0
 24 12  1  0
 19 14  1  0
 24 20  1  0
  3 29  1  0
  4 30  1  0
  6 31  1  0
  6 32  1  0
  7 33  1  0
  7 34  1  0
  9 35  1  0
  9 36  1  0
 10 37  1  0
 10 38  1  0
 15 39  1  0
 16 40  1  0
 17 41  1  0
 18 42  1  0
 21 43  1  0
 22 44  1  0
 23 45  1  0
 25 46  1  0
 25 47  1  0
 26 48  1  0
 26 49  1  0
 27 50  1  0
 28 51  1  0
M  END
$$$$
