
     RDKit          3D

 56 60  0  0  0  0  0  0  0  0999 V2000
    0.0326   -1.2867    1.5279 C   0  0  0  0  0  0  0  0  0  0  0  0
   -1.2771   -1.6240    0.8688 C   0  0  0  0  0  0  0  0  0  0  0  0
   -1.5713   -2.9835    0.6776 C   0  0  0  0  0  0  0  0  0  0  0  0
   -2.7734   -3.3805    0.0965 C   0  0  0  0  0  0  0  0  0  0  0  0
   -3.7132   -2.4261   -0.2832 C   0  0  0  0  0  0  0  0  0  0  0  0
   -3.4588   -1.0595   -0.0988 C   0  0  0  0  0  0  0  0  0  0  0  0
   -4.5271   -0.0665   -0.4718 C   0  0  0  0  0  0  0  0  0  0  0  0
   -2.2165   -0.6568    0.4491 C   0  0  0  0  0  0  0  0  0  0  0  0
   -1.9271    0.7338    0.5837 N   0  0  0  0  0  0  0  0  0  0  0  0
   -1.5184    1.5138   -0.4933 C   0  0  0  0  0  0  0  0  0  0  0  0
   -1.2246    0.7468   -2.0522 S   0  0  0  0  0  0  0  0  0  0  0  0
    0.4800    1.2995   -2.3331 C   0  0  0  0  0  0  0  0  0  0  0  0
    1.4267    0.6723   -1.3107 C   0  0  0  0  0  0  0  0  0  0  0  0
    1.4974    1.1938   -0.1944 O   0  0  0  0  0  0  0  0  0  0  0  0
    2.1472   -0.4724   -1.6943 N   0  0  0  0  0  0  0  0  0  0  0  0
    1.7787   -1.2101   -2.9102 C   0  0  0  0  0  0  0  0  0  0  0  0
    2.2738   -2.6334   -3.0882 C   0  0  0  0  0  0  0  0  0  0  0  0
    1.8737   -3.3591   -3.9983 O   0  0  0  0  0  0  0  0  0  0  0  0
    3.2526   -3.0570   -2.2461 N   0  0  0  0  0  0  0  0  0  0  0  0
    3.7666   -2.2768   -1.2102 C   0  0  0  0  0  0  0  0  0  0  0  0
    4.8152   -2.8274   -0.4597 C   0  0  0  0  0  0  0  0  0  0  0  0
    5.3762   -2.1092    0.5895 C   0  0  0  0  0  0  0  0  0  0  0  0
    4.8955   -0.8393    0.8796 C   0  0  0  0  0  0  0  0  0  0  0  0
    3.8469   -0.2917    0.1301 C   0  0  0  0  0  0  0  0  0  0  0  0
    3.2444   -1.0012   -0.9208 C   0  0  0  0  0  0  0  0  0  0  0  0
   -1.3383    2.7941   -0.4442 N   0  0  0  0  0  0  0  0  0  0  0  0
   -1.5204    3.4387    0.7825 C   0  0  0  0  0  0  0  0  0  0  0  0
   -1.3078    4.8180    0.8529 C   0  0  0  0  0  0  0  0  0  0  0  0
   -1.4720    5.5043    2.0591 C   0  0  0  0  0  0  0  0  0  0  0  0
   -1.8531    4.8137    3.2087 C   0  0  0  0  0  0  0  0  0  0  0  0
   -2.0673    3.4367    3.1511 C   0  0  0  0  0  0  0  0  0  0  0  0
   -1.8972    2.7580    1.9373 C   0  0  0  0  0  0  0  0  0  0  0  0
   -2.1263    1.3044    1.8417 C   0  0  0  0  0  0  0  0  0  0  0  0
   -2.4865    0.6990    2.8502 O   0  0  0  0  0  0  0  0  0  0  0  0
    0.2020   -0.2119    1.6288 H   0  0  0  0  0  0  0  0  0  0  0  0
    0.0614   -1.7193    2.5356 H   0  0  0  0  0  0  0  0  0  0  0  0
    0.8611   -1.7019    0.9426 H   0  0  0  0  0  0  0  0  0  0  0  0
   -0.8587   -3.7442    0.9900 H   0  0  0  0  0  0  0  0  0  0  0  0
   -2.9858   -4.4376   -0.0441 H   0  0  0  0  0  0  0  0  0  0  0  0
   -4.6558   -2.7579   -0.7142 H   0  0  0  0  0  0  0  0  0  0  0  0
   -5.4677   -0.5682   -0.7207 H   0  0  0  0  0  0  0  0  0  0  0  0
   -4.2260    0.5217   -1.3425 H   0  0  0  0  0  0  0  0  0  0  0  0
   -4.7355    0.6051    0.3675 H   0  0  0  0  0  0  0  0  0  0  0  0
    0.7742    1.0660   -3.3584 H   0  0  0  0  0  0  0  0  0  0  0  0
    0.5543    2.3892   -2.2491 H   0  0  0  0  0  0  0  0  0  0  0  0
    2.1538   -0.6321   -3.7625 H   0  0  0  0  0  0  0  0  0  0  0  0
    0.6880   -1.2621   -2.9705 H   0  0  0  0  0  0  0  0  0  0  0  0
    3.6069   -3.9903   -2.4119 H   0  0  0  0  0  0  0  0  0  0  0  0
    5.2031   -3.8179   -0.6843 H   0  0  0  0  0  0  0  0  0  0  0  0
    6.1866   -2.5353    1.1756 H   0  0  0  0  0  0  0  0  0  0  0  0
    5.3319   -0.2640    1.6926 H   0  0  0  0  0  0  0  0  0  0  0  0
    3.5395    0.7140    0.3983 H   0  0  0  0  0  0  0  0  0  0  0  0
   -1.0101    5.3606   -0.0422 H   0  0  0  0  0  0  0  0  0  0  0  0
   -1.3026    6.5780    2.0986 H   0  0  0  0  0  0  0  0  0  0  0  0
   -1.9834    5.3462    4.1478 H   0  0  0  0  0  0  0  0  0  0  0  0
   -2.3679    2.8961    4.0464 H   0  0  0  0  0  0  0  0  0  0  0  0
  1  2  1  0
  2  3  2  0
  3  4  1  0
  4  5  2  0
  5  6  1  0
  6  7  1  0
  6  8  2  0
  8  9  1  0
  9 10  1  0
 10 11  1  0
 11 12  1  0
 12 13  1  0
 13 14  2  0
 13 15  1  0
 15 16  1  0
 16 17  1  0
 17 18  2  0
 17 19  1  0
 19 20  1  0
 20 21  2  0
 21 22  1  0
 22 23  2  0
 23 24  1  0
 24 25  2  0
 10 26  2  0
 26 27  1  0
 27 28  2  0
 28 29  1  0
 29 30  2  0
 30 31  1  0
 31 32  2  0
 32 33  1  0
 33 34  2  0
  8  2  1  0
 33  9  1  0
 25 15  1  0
 32 27  1  0
 25 20  1  0
  1 35  1  0
  1 36  1  0
  1 37  1  0
  3 38  1  0
  4 39  1  0
  5 40  1  0
  7 41  1  0
  7 42  1  0
  7 43  1  0
 12 44  1  0
 12 45  1  0
 16 46  1  0
 16 47  1  0
 19 48  1  0
 21 49  1  0
 22 50  1  0
 23 51  1  0
 24 52  1  0
 28 53  1  0
 29 54  1  0
 30 55  1  0
 31 56  1  0
M  END
$$$$
