
     RDKit          3D

 58 63  0  0  0  0  0  0  0  0999 V2000
    6.5876    3.3766   -0.3214 C   0  0  0  0  0  0  0  0  0  0  0  0
    5.8794    2.0843   -0.1037 C   0  0  0  0  0  0  0  0  0  0  0  0
    5.7645    1.3519    1.0609 C   0  0  0  0  0  0  0  0  0  0  0  0
    5.0102    0.1562    0.8742 C   0  0  0  0  0  0  0  0  0  0  0  0
    4.5646    0.0249   -0.4252 C   0  0  0  0  0  0  0  0  0  0  0  0
    3.7867   -1.0480   -1.0113 C   0  0  0  0  0  0  0  0  0  0  0  0
    4.3244   -1.9519   -1.6515 O   0  0  0  0  0  0  0  0  0  0  0  0
    2.3938   -1.0256   -0.8029 N   0  0  0  0  0  0  0  0  0  0  0  0
    1.6499   -2.2222   -1.1758 C   0  0  0  0  0  0  0  0  0  0  0  0
    0.2061   -1.9152   -1.5621 C   0  0  0  0  0  0  0  0  0  0  0  0
   -0.5394   -1.1167   -0.4596 C   0  0  0  0  0  0  0  0  0  0  0  0
    0.2929    0.1684   -0.2230 C   0  0  0  0  0  0  0  0  0  0  0  0
    1.7440   -0.1308    0.1501 C   0  0  0  0  0  0  0  0  0  0  0  0
   -0.5130   -1.8387    0.7961 O   0  0  0  0  0  0  0  0  0  0  0  0
   -1.3467   -2.9176    0.8814 C   0  0  0  0  0  0  0  0  0  0  0  0
   -1.0536   -3.8435    1.8823 C   0  0  0  0  0  0  0  0  0  0  0  0
   -1.8415   -4.9874    2.0274 C   0  0  0  0  0  0  0  0  0  0  0  0
   -2.9252   -5.1983    1.1742 C   0  0  0  0  0  0  0  0  0  0  0  0
   -3.8898   -6.6100    1.3577 Cl  0  0  0  0  0  0  0  0  0  0  0  0
   -3.2350   -4.2713    0.1822 C   0  0  0  0  0  0  0  0  0  0  0  0
   -2.4456   -3.1246    0.0483 C   0  0  0  0  0  0  0  0  0  0  0  0
   -2.7739   -2.1056   -0.9675 C   0  0  0  0  0  0  0  0  0  0  0  0
   -3.6494   -2.3361   -1.7946 O   0  0  0  0  0  0  0  0  0  0  0  0
   -2.0082   -0.7919   -0.8563 C   0  0  0  0  0  0  0  0  0  0  0  0
   -2.7731    0.1040    0.1123 C   0  0  0  0  0  0  0  0  0  0  0  0
   -2.7178    1.3808   -0.6498 C   0  0  0  0  0  0  0  0  0  0  0  0
   -3.0939    2.6788   -0.0440 C   0  0  0  0  0  0  0  0  0  0  0  0
   -3.5617    2.7658    1.2728 C   0  0  0  0  0  0  0  0  0  0  0  0
   -3.8894    4.0131    1.8158 C   0  0  0  0  0  0  0  0  0  0  0  0
   -3.7592    5.1686    1.0433 C   0  0  0  0  0  0  0  0  0  0  0  0
   -4.1771    6.6972    1.7153 Cl  0  0  0  0  0  0  0  0  0  0  0  0
   -3.3013    5.0902   -0.2701 C   0  0  0  0  0  0  0  0  0  0  0  0
   -2.9725    3.8455   -0.8142 C   0  0  0  0  0  0  0  0  0  0  0  0
   -2.3120    1.2631   -1.8732 N   0  0  0  0  0  0  0  0  0  0  0  0
   -2.0553   -0.1046   -2.1105 O   0  0  0  0  0  0  0  0  0  0  0  0
    5.0860    1.3164   -1.4134 S   0  0  0  0  0  0  0  0  0  0  0  0
    6.9459    3.7905    0.6273 H   0  0  0  0  0  0  0  0  0  0  0  0
    5.9213    4.1194   -0.7734 H   0  0  0  0  0  0  0  0  0  0  0  0
    7.4540    3.2368   -0.9771 H   0  0  0  0  0  0  0  0  0  0  0  0
    6.2091    1.6534    2.0018 H   0  0  0  0  0  0  0  0  0  0  0  0
    4.8090   -0.5720    1.6504 H   0  0  0  0  0  0  0  0  0  0  0  0
    1.6881   -2.9105   -0.3225 H   0  0  0  0  0  0  0  0  0  0  0  0
    2.1378   -2.7299   -2.0146 H   0  0  0  0  0  0  0  0  0  0  0  0
    0.2042   -1.3417   -2.4983 H   0  0  0  0  0  0  0  0  0  0  0  0
   -0.2902   -2.8689   -1.7739 H   0  0  0  0  0  0  0  0  0  0  0  0
    0.2903    0.7906   -1.1266 H   0  0  0  0  0  0  0  0  0  0  0  0
   -0.1336    0.7656    0.5912 H   0  0  0  0  0  0  0  0  0  0  0  0
    1.8038   -0.6043    1.1369 H   0  0  0  0  0  0  0  0  0  0  0  0
    2.2789    0.8204    0.2152 H   0  0  0  0  0  0  0  0  0  0  0  0
   -0.2044   -3.6852    2.5432 H   0  0  0  0  0  0  0  0  0  0  0  0
   -1.6033   -5.7115    2.8037 H   0  0  0  0  0  0  0  0  0  0  0  0
   -4.0857   -4.4345   -0.4764 H   0  0  0  0  0  0  0  0  0  0  0  0
   -3.8230   -0.1876    0.2345 H   0  0  0  0  0  0  0  0  0  0  0  0
   -2.3058    0.1801    1.0969 H   0  0  0  0  0  0  0  0  0  0  0  0
   -3.6764    1.8856    1.8993 H   0  0  0  0  0  0  0  0  0  0  0  0
   -4.2509    4.0768    2.8400 H   0  0  0  0  0  0  0  0  0  0  0  0
   -3.2045    5.9866   -0.8778 H   0  0  0  0  0  0  0  0  0  0  0  0
   -2.6200    3.7945   -1.8441 H   0  0  0  0  0  0  0  0  0  0  0  0
  1  2  1  0
  2  3  2  0
  3  4  1  0
  4  5  2  0
  5  6  1  0
  6  7  2  0
  6  8  1  0
  8  9  1  0
  9 10  1  0
 10 11  1  0
 11 12  1  0
 12 13  1  0
 11 14  1  0
 14 15  1  0
 15 16  2  0
 16 17  1  0
 17 18  2  0
 18 19  1  0
 18 20  1  0
 20 21  2  0
 21 22  1  0
 22 23  2  0
 22 24  1  0
 24 25  1  0
 25 26  1  0
 26 27  1  0
 27 28  2  0
 28 29  1  0
 29 30  2  0
 30 31  1  0
 30 32  1  0
 32 33  2  0
 26 34  2  0
 34 35  1  0
  5 36  1  0
 36  2  1  0
 13  8  1  0
 21 15  1  0
 35 24  1  0
 24 11  1  0
 33 27  1  0
  1 37  1  0
  1 38  1  0
  1 39  1  0
  3 40  1  0
  4 41  1  0
  9 42  1  0
  9 43  1  0
 10 44  1  0
 10 45  1  0
 12 46  1  0
 12 47  1  0
 13 48  1  0
 13 49  1  0
 16 50  1  0
 17 51  1  0
 20 52  1  0
 25 53  1  0
 25 54  1  0
 28 55  1  0
 29 56  1  0
 32 57  1  0
 33 58  1  0
M  END
$$$$
