
     RDKit          3D

 56 58  0  0  0  0  0  0  0  0999 V2000
    6.6336    0.1792   -4.1702 C   0  0  0  0  0  0  0  0  0  0  0  0
    5.5475    0.8490   -3.5426 O   0  0  0  0  0  0  0  0  0  0  0  0
    4.3240    0.2396   -3.6021 C   0  0  0  0  0  0  0  0  0  0  0  0
    4.0293   -0.9319   -4.2979 C   0  0  0  0  0  0  0  0  0  0  0  0
    2.7326   -1.4561   -4.2812 C   0  0  0  0  0  0  0  0  0  0  0  0
    1.7226   -0.8138   -3.5607 C   0  0  0  0  0  0  0  0  0  0  0  0
    0.4163   -1.2423   -3.4891 O   0  0  0  0  0  0  0  0  0  0  0  0
    0.1163   -2.4996   -4.0825 C   0  0  0  0  0  0  0  0  0  0  0  0
    2.0142    0.3717   -2.8537 C   0  0  0  0  0  0  0  0  0  0  0  0
    0.9466    0.9755   -2.1509 N   0  0  0  0  0  0  0  0  0  0  0  0
    0.9663    2.1102   -1.3618 C   0  0  0  0  0  0  0  0  0  0  0  0
    1.9626    2.7665   -1.0667 O   0  0  0  0  0  0  0  0  0  0  0  0
   -0.4220    2.5407   -0.9058 C   0  0  0  0  0  0  0  0  0  0  0  0
   -0.6366    2.3671    0.8840 S   0  0  0  0  0  0  0  0  0  0  0  0
   -1.1478    0.6971    0.9746 C   0  0  0  0  0  0  0  0  0  0  0  0
   -0.4875   -0.1617    0.2720 N   0  0  0  0  0  0  0  0  0  0  0  0
   -0.8300   -1.5126    0.3684 C   0  0  0  0  0  0  0  0  0  0  0  0
   -0.0569   -2.4574   -0.3089 C   0  0  0  0  0  0  0  0  0  0  0  0
   -0.3695   -3.8176   -0.2389 C   0  0  0  0  0  0  0  0  0  0  0  0
   -1.4594   -4.2461    0.5172 C   0  0  0  0  0  0  0  0  0  0  0  0
   -2.2300   -3.3136    1.2097 C   0  0  0  0  0  0  0  0  0  0  0  0
   -1.9024   -1.9540    1.1352 C   0  0  0  0  0  0  0  0  0  0  0  0
   -2.6565   -0.9444    1.8936 C   0  0  0  0  0  0  0  0  0  0  0  0
   -3.6075   -1.3005    2.5871 O   0  0  0  0  0  0  0  0  0  0  0  0
   -2.2260    0.3783    1.7847 N   0  0  0  0  0  0  0  0  0  0  0  0
   -2.9508    1.3451    2.6199 C   0  0  0  0  0  0  0  0  0  0  0  0
   -2.3950    1.3950    4.0475 C   0  0  0  0  0  0  0  0  0  0  0  0
   -3.2108    2.2148    4.9270 N   0  0  0  0  0  0  0  0  0  0  0  0
   -2.6718    2.7586    6.0734 C   0  0  0  0  0  0  0  0  0  0  0  0
   -3.6816    3.4411    6.9592 C   0  0  0  0  0  0  0  0  0  0  0  0
   -1.4838    2.6941    6.3661 O   0  0  0  0  0  0  0  0  0  0  0  0
    3.3111    0.8908   -2.8912 C   0  0  0  0  0  0  0  0  0  0  0  0
    6.7959   -0.8062   -3.7248 H   0  0  0  0  0  0  0  0  0  0  0  0
    7.5364    0.7736   -3.9971 H   0  0  0  0  0  0  0  0  0  0  0  0
    6.4842    0.1048   -5.2507 H   0  0  0  0  0  0  0  0  0  0  0  0
    4.7853   -1.4588   -4.8693 H   0  0  0  0  0  0  0  0  0  0  0  0
    2.5455   -2.3626   -4.8476 H   0  0  0  0  0  0  0  0  0  0  0  0
    0.2230   -2.4541   -5.1714 H   0  0  0  0  0  0  0  0  0  0  0  0
    0.7329   -3.2959   -3.6551 H   0  0  0  0  0  0  0  0  0  0  0  0
   -0.9282   -2.7341   -3.8556 H   0  0  0  0  0  0  0  0  0  0  0  0
    0.0865    0.4323   -2.1740 H   0  0  0  0  0  0  0  0  0  0  0  0
   -1.2120    2.0039   -1.4423 H   0  0  0  0  0  0  0  0  0  0  0  0
   -0.5344    3.5990   -1.1675 H   0  0  0  0  0  0  0  0  0  0  0  0
    0.8052   -2.1285   -0.8848 H   0  0  0  0  0  0  0  0  0  0  0  0
    0.2468   -4.5409   -0.7668 H   0  0  0  0  0  0  0  0  0  0  0  0
   -1.7000   -5.3054    0.5784 H   0  0  0  0  0  0  0  0  0  0  0  0
   -3.0683   -3.6459    1.8164 H   0  0  0  0  0  0  0  0  0  0  0  0
   -2.9401    2.3429    2.1744 H   0  0  0  0  0  0  0  0  0  0  0  0
   -4.0104    1.0578    2.6551 H   0  0  0  0  0  0  0  0  0  0  0  0
   -1.3658    1.7745    4.0425 H   0  0  0  0  0  0  0  0  0  0  0  0
   -2.3633    0.3935    4.4880 H   0  0  0  0  0  0  0  0  0  0  0  0
   -4.2084    2.0391    4.9318 H   0  0  0  0  0  0  0  0  0  0  0  0
   -3.2567    4.3808    7.3244 H   0  0  0  0  0  0  0  0  0  0  0  0
   -4.6015    3.6740    6.4162 H   0  0  0  0  0  0  0  0  0  0  0  0
   -3.9183    2.7870    7.8030 H   0  0  0  0  0  0  0  0  0  0  0  0
    3.5685    1.8064   -2.3686 H   0  0  0  0  0  0  0  0  0  0  0  0
  1  2  1  0
  2  3  1  0
  3  4  2  0
  4  5  1  0
  5  6  2  0
  6  7  1  0
  7  8  1  0
  6  9  1  0
  9 10  1  0
 10 11  1  0
 11 12  2  0
 11 13  1  0
 13 14  1  0
 14 15  1  0
 15 16  2  0
 16 17  1  0
 17 18  2  0
 18 19  1  0
 19 20  2  0
 20 21  1  0
 21 22  2  0
 22 23  1  0
 23 24  2  0
 23 25  1  0
 25 26  1  0
 26 27  1  0
 27 28  1  0
 28 29  1  0
 29 30  1  0
 29 31  2  0
  9 32  2  0
 32  3  1  0
 25 15  1  0
 22 17  1  0
  1 33  1  0
  1 34  1  0
  1 35  1  0
  4 36  1  0
  5 37  1  0
  8 38  1  0
  8 39  1  0
  8 40  1  0
 10 41  1  0
 13 42  1  0
 13 43  1  0
 18 44  1  0
 19 45  1  0
 20 46  1  0
 21 47  1  0
 26 48  1  0
 26 49  1  0
 27 50  1  0
 27 51  1  0
 28 52  1  0
 30 53  1  0
 30 54  1  0
 30 55  1  0
 32 56  1  0
M  END
$$$$
