
     RDKit          3D

 54 57  0  0  0  0  0  0  0  0999 V2000
   -6.7199   -3.2598   -0.2054 C   0  0  0  0  0  0  0  0  0  0  0  0
   -6.1295   -2.1929   -0.9373 O   0  0  0  0  0  0  0  0  0  0  0  0
   -5.0630   -1.5601   -0.3610 C   0  0  0  0  0  0  0  0  0  0  0  0
   -4.4712   -1.8962    0.8595 C   0  0  0  0  0  0  0  0  0  0  0  0
   -3.3766   -1.1658    1.3335 C   0  0  0  0  0  0  0  0  0  0  0  0
   -2.8663   -0.1100    0.5738 C   0  0  0  0  0  0  0  0  0  0  0  0
   -1.7243    0.6831    1.0798 C   0  0  0  0  0  0  0  0  0  0  0  0
   -1.9829    1.8809    1.4992 N   0  0  0  0  0  0  0  0  0  0  0  0
   -0.9351    2.6601    1.9969 C   0  0  0  0  0  0  0  0  0  0  0  0
   -1.2062    3.9640    2.4193 C   0  0  0  0  0  0  0  0  0  0  0  0
   -0.1883    4.7746    2.9302 C   0  0  0  0  0  0  0  0  0  0  0  0
    1.1136    4.2843    3.0235 C   0  0  0  0  0  0  0  0  0  0  0  0
    1.3954    2.9843    2.6058 C   0  0  0  0  0  0  0  0  0  0  0  0
    0.3668    2.1820    2.0957 C   0  0  0  0  0  0  0  0  0  0  0  0
    0.6291    0.8077    1.6392 C   0  0  0  0  0  0  0  0  0  0  0  0
    1.7566    0.3395    1.7806 O   0  0  0  0  0  0  0  0  0  0  0  0
   -0.4519    0.1143    1.0897 N   0  0  0  0  0  0  0  0  0  0  0  0
   -0.1372   -1.1777    0.4545 C   0  0  0  0  0  0  0  0  0  0  0  0
    0.0253   -1.0632   -1.0691 C   0  0  0  0  0  0  0  0  0  0  0  0
    1.0645   -0.1595   -1.4394 O   0  0  0  0  0  0  0  0  0  0  0  0
    2.3574   -0.6017   -1.5123 C   0  0  0  0  0  0  0  0  0  0  0  0
    2.7798   -1.9130   -1.2861 C   0  0  0  0  0  0  0  0  0  0  0  0
    4.1324   -2.2530   -1.3968 C   0  0  0  0  0  0  0  0  0  0  0  0
    5.0859   -1.2859   -1.7226 C   0  0  0  0  0  0  0  0  0  0  0  0
    6.5307   -1.6594   -1.8689 C   0  0  0  0  0  0  0  0  0  0  0  0
    4.6634    0.0262   -1.9588 C   0  0  0  0  0  0  0  0  0  0  0  0
    3.3081    0.3786   -1.8502 C   0  0  0  0  0  0  0  0  0  0  0  0
    2.8890    1.8043   -2.0847 C   0  0  0  0  0  0  0  0  0  0  0  0
   -3.4695    0.2536   -0.6299 C   0  0  0  0  0  0  0  0  0  0  0  0
   -4.5592   -0.4821   -1.0978 C   0  0  0  0  0  0  0  0  0  0  0  0
   -7.1130   -2.9101    0.7550 H   0  0  0  0  0  0  0  0  0  0  0  0
   -7.5619   -3.6413   -0.7910 H   0  0  0  0  0  0  0  0  0  0  0  0
   -6.0107   -4.0825   -0.0670 H   0  0  0  0  0  0  0  0  0  0  0  0
   -4.8424   -2.7135    1.4690 H   0  0  0  0  0  0  0  0  0  0  0  0
   -2.9332   -1.4158    2.2942 H   0  0  0  0  0  0  0  0  0  0  0  0
   -2.2210    4.3472    2.3486 H   0  0  0  0  0  0  0  0  0  0  0  0
   -0.4144    5.7873    3.2545 H   0  0  0  0  0  0  0  0  0  0  0  0
    1.9073    4.9129    3.4197 H   0  0  0  0  0  0  0  0  0  0  0  0
    2.4097    2.5976    2.6735 H   0  0  0  0  0  0  0  0  0  0  0  0
   -0.9273   -1.8991    0.6756 H   0  0  0  0  0  0  0  0  0  0  0  0
    0.7801   -1.5843    0.8923 H   0  0  0  0  0  0  0  0  0  0  0  0
    0.1482   -2.0460   -1.5369 H   0  0  0  0  0  0  0  0  0  0  0  0
   -0.8910   -0.6538   -1.5050 H   0  0  0  0  0  0  0  0  0  0  0  0
    2.0903   -2.7034   -1.0159 H   0  0  0  0  0  0  0  0  0  0  0  0
    4.4361   -3.2822   -1.2195 H   0  0  0  0  0  0  0  0  0  0  0  0
    6.7315   -1.9826   -2.8949 H   0  0  0  0  0  0  0  0  0  0  0  0
    7.1807   -0.8106   -1.6318 H   0  0  0  0  0  0  0  0  0  0  0  0
    6.7950   -2.4714   -1.1831 H   0  0  0  0  0  0  0  0  0  0  0  0
    5.3965    0.7855   -2.2236 H   0  0  0  0  0  0  0  0  0  0  0  0
    3.7436    2.4376   -2.3447 H   0  0  0  0  0  0  0  0  0  0  0  0
    2.1735    1.8587   -2.9115 H   0  0  0  0  0  0  0  0  0  0  0  0
    2.4325    2.2182   -1.1795 H   0  0  0  0  0  0  0  0  0  0  0  0
   -3.0982    1.1023   -1.1989 H   0  0  0  0  0  0  0  0  0  0  0  0
   -5.0290   -0.2080   -2.0399 H   0  0  0  0  0  0  0  0  0  0  0  0
  1  2  1  0
  2  3  1  0
  3  4  2  0
  4  5  1  0
  5  6  2  0
  6  7  1  0
  7  8  2  0
  8  9  1  0
  9 10  2  0
 10 11  1  0
 11 12  2  0
 12 13  1  0
 13 14  2  0
 14 15  1  0
 15 16  2  0
 15 17  1  0
 17 18  1  0
 18 19  1  0
 19 20  1  0
 20 21  1  0
 21 22  2  0
 22 23  1  0
 23 24  2  0
 24 25  1  0
 24 26  1  0
 26 27  2  0
 27 28  1  0
  6 29  1  0
 29 30  2  0
 30  3  1  0
 17  7  1  0
 27 21  1  0
 14  9  1  0
  1 31  1  0
  1 32  1  0
  1 33  1  0
  4 34  1  0
  5 35  1  0
 10 36  1  0
 11 37  1  0
 12 38  1  0
 13 39  1  0
 18 40  1  0
 18 41  1  0
 19 42  1  0
 19 43  1  0
 22 44  1  0
 23 45  1  0
 25 46  1  0
 25 47  1  0
 25 48  1  0
 26 49  1  0
 28 50  1  0
 28 51  1  0
 28 52  1  0
 29 53  1  0
 30 54  1  0
M  END
$$$$
