
     RDKit          3D

 50 53  0  0  0  0  0  0  0  0999 V2000
   -1.5923    1.0654    4.9549 C   0  0  0  0  0  0  0  0  0  0  0  0
   -1.9965    1.4790    3.5453 C   0  0  0  0  0  0  0  0  0  0  0  0
   -0.8191    2.0141    2.7396 C   0  0  0  0  0  0  0  0  0  0  0  0
    0.2750    2.2086    3.2737 O   0  0  0  0  0  0  0  0  0  0  0  0
   -1.0394    2.2941    1.3945 N   0  0  0  0  0  0  0  0  0  0  0  0
   -2.2772    1.9750    0.6704 C   0  0  0  0  0  0  0  0  0  0  0  0
   -2.2937    0.6312   -0.0312 C   0  0  0  0  0  0  0  0  0  0  0  0
   -1.5981   -0.4917    0.4455 C   0  0  0  0  0  0  0  0  0  0  0  0
   -1.6681   -1.7165   -0.2251 C   0  0  0  0  0  0  0  0  0  0  0  0
   -2.4538   -1.8550   -1.3747 C   0  0  0  0  0  0  0  0  0  0  0  0
   -2.5411   -3.1664   -2.0966 C   0  0  0  0  0  0  0  0  0  0  0  0
   -3.1683   -0.7485   -1.8397 C   0  0  0  0  0  0  0  0  0  0  0  0
   -3.0880    0.4789   -1.1770 C   0  0  0  0  0  0  0  0  0  0  0  0
    0.0433    2.9207    0.6243 C   0  0  0  0  0  0  0  0  0  0  0  0
    0.7821    1.9112   -0.2019 C   0  0  0  0  0  0  0  0  0  0  0  0
    1.7160    1.0883    0.3093 C   0  0  0  0  0  0  0  0  0  0  0  0
    2.4019    0.1119   -0.5350 C   0  0  0  0  0  0  0  0  0  0  0  0
    3.3536   -0.7638   -0.0011 C   0  0  0  0  0  0  0  0  0  0  0  0
    3.9514   -1.6584   -0.8643 C   0  0  0  0  0  0  0  0  0  0  0  0
    3.6350   -1.7034   -2.2038 C   0  0  0  0  0  0  0  0  0  0  0  0
    2.7020   -0.8568   -2.7634 C   0  0  0  0  0  0  0  0  0  0  0  0
    2.0832    0.0588   -1.9106 C   0  0  0  0  0  0  0  0  0  0  0  0
    1.1319    0.9485   -2.4228 N   0  0  0  0  0  0  0  0  0  0  0  0
    0.4686    1.8755   -1.6639 C   0  0  0  0  0  0  0  0  0  0  0  0
   -0.3408    2.6474   -2.1733 O   0  0  0  0  0  0  0  0  0  0  0  0
    4.3392   -2.6568   -2.8704 O   0  0  0  0  0  0  0  0  0  0  0  0
    5.1339   -3.2075   -1.8004 C   0  0  0  0  0  0  0  0  0  0  0  0
    4.8942   -2.5770   -0.5240 O   0  0  0  0  0  0  0  0  0  0  0  0
   -0.8476    0.2637    4.9270 H   0  0  0  0  0  0  0  0  0  0  0  0
   -1.1618    1.9075    5.5045 H   0  0  0  0  0  0  0  0  0  0  0  0
   -2.4613    0.7031    5.5114 H   0  0  0  0  0  0  0  0  0  0  0  0
   -2.7539    2.2700    3.6122 H   0  0  0  0  0  0  0  0  0  0  0  0
   -2.4304    0.6101    3.0429 H   0  0  0  0  0  0  0  0  0  0  0  0
   -3.1315    2.0102    1.3559 H   0  0  0  0  0  0  0  0  0  0  0  0
   -2.4392    2.7778   -0.0611 H   0  0  0  0  0  0  0  0  0  0  0  0
   -0.9802   -0.4308    1.3385 H   0  0  0  0  0  0  0  0  0  0  0  0
   -1.1036   -2.5609    0.1606 H   0  0  0  0  0  0  0  0  0  0  0  0
   -3.5864   -3.4863   -2.1715 H   0  0  0  0  0  0  0  0  0  0  0  0
   -1.9885   -3.9514   -1.5691 H   0  0  0  0  0  0  0  0  0  0  0  0
   -2.1196   -3.0735   -3.1039 H   0  0  0  0  0  0  0  0  0  0  0  0
   -3.7949   -0.8338   -2.7244 H   0  0  0  0  0  0  0  0  0  0  0  0
   -3.6440    1.3238   -1.5808 H   0  0  0  0  0  0  0  0  0  0  0  0
    0.7490    3.4135    1.3064 H   0  0  0  0  0  0  0  0  0  0  0  0
   -0.3824    3.7322    0.0227 H   0  0  0  0  0  0  0  0  0  0  0  0
    1.9600    1.1168    1.3689 H   0  0  0  0  0  0  0  0  0  0  0  0
    3.6197   -0.7505    1.0503 H   0  0  0  0  0  0  0  0  0  0  0  0
    2.4701   -0.9109   -3.8206 H   0  0  0  0  0  0  0  0  0  0  0  0
    0.8897    0.9302   -3.4046 H   0  0  0  0  0  0  0  0  0  0  0  0
    4.9086   -4.2763   -1.7123 H   0  0  0  0  0  0  0  0  0  0  0  0
    6.1932   -3.0912   -2.0559 H   0  0  0  0  0  0  0  0  0  0  0  0
  1  2  1  0
  2  3  1  0
  3  4  2  0
  3  5  1  0
  5  6  1  0
  6  7  1  0
  7  8  2  0
  8  9  1  0
  9 10  2  0
 10 11  1  0
 10 12  1  0
 12 13  2  0
  5 14  1  0
 14 15  1  0
 15 16  2  0
 16 17  1  0
 17 18  2  0
 18 19  1  0
 19 20  2  0
 20 21  1  0
 21 22  2  0
 22 23  1  0
 23 24  1  0
 24 25  2  0
 20 26  1  0
 26 27  1  0
 27 28  1  0
 13  7  1  0
 24 15  1  0
 22 17  1  0
 28 19  1  0
  1 29  1  0
  1 30  1  0
  1 31  1  0
  2 32  1  0
  2 33  1  0
  6 34  1  0
  6 35  1  0
  8 36  1  0
  9 37  1  0
 11 38  1  0
 11 39  1  0
 11 40  1  0
 12 41  1  0
 13 42  1  0
 14 43  1  0
 14 44  1  0
 16 45  1  0
 18 46  1  0
 21 47  1  0
 23 48  1  0
 27 49  1  0
 27 50  1  0
M  END
$$$$
