
     RDKit          3D

 54 59  0  0  0  0  0  0  0  0999 V2000
    6.7100    0.8377   -2.1367 C   0  0  0  0  0  0  0  0  0  0  0  0
    5.7053    0.2756   -1.1755 C   0  0  0  0  0  0  0  0  0  0  0  0
    4.5249   -0.3082   -1.6454 C   0  0  0  0  0  0  0  0  0  0  0  0
    3.6017   -0.8606   -0.7538 C   0  0  0  0  0  0  0  0  0  0  0  0
    3.8398   -0.8398    0.6273 C   0  0  0  0  0  0  0  0  0  0  0  0
    2.8524   -1.4493    1.6006 C   0  0  0  0  0  0  0  0  0  0  0  0
    1.5056   -0.8857    1.4964 N   0  0  0  0  0  0  0  0  0  0  0  0
    1.1508    0.3312    2.0906 C   0  0  0  0  0  0  0  0  0  0  0  0
    2.1994    1.0984    2.8639 C   0  0  0  0  0  0  0  0  0  0  0  0
   -0.0364    0.8666    2.0304 N   0  0  0  0  0  0  0  0  0  0  0  0
   -0.9363    0.1561    1.3209 C   0  0  0  0  0  0  0  0  0  0  0  0
   -0.7318   -1.0513    0.6950 C   0  0  0  0  0  0  0  0  0  0  0  0
    0.5719   -1.6538    0.7709 C   0  0  0  0  0  0  0  0  0  0  0  0
    0.8339   -2.7339    0.2498 O   0  0  0  0  0  0  0  0  0  0  0  0
   -1.9443   -1.4312    0.0902 C   0  0  0  0  0  0  0  0  0  0  0  0
   -2.2871   -2.5235   -0.6354 N   0  0  0  0  0  0  0  0  0  0  0  0
   -3.5633   -2.5426   -1.0502 C   0  0  0  0  0  0  0  0  0  0  0  0
   -3.9931   -3.6293   -1.8008 C   0  0  0  0  0  0  0  0  0  0  0  0
   -5.3046   -3.7228   -2.2683 C   0  0  0  0  0  0  0  0  0  0  0  0
   -6.2069   -2.7089   -1.9797 C   0  0  0  0  0  0  0  0  0  0  0  0
   -5.7893   -1.6105   -1.2265 C   0  0  0  0  0  0  0  0  0  0  0  0
   -4.4872   -1.5032   -0.7545 C   0  0  0  0  0  0  0  0  0  0  0  0
   -4.1581   -0.4148   -0.0364 N   0  0  0  0  0  0  0  0  0  0  0  0
   -2.8697   -0.4262    0.3634 C   0  0  0  0  0  0  0  0  0  0  0  0
   -2.2335    0.5448    1.0989 N   0  0  0  0  0  0  0  0  0  0  0  0
   -2.8586    1.7628    1.5858 C   0  0  0  0  0  0  0  0  0  0  0  0
   -2.7754    2.8468    0.5739 C   0  0  0  0  0  0  0  0  0  0  0  0
   -3.2856    3.0022   -0.7002 C   0  0  0  0  0  0  0  0  0  0  0  0
   -2.8605    4.2746   -1.1504 C   0  0  0  0  0  0  0  0  0  0  0  0
   -2.1274    4.8188   -0.1229 C   0  0  0  0  0  0  0  0  0  0  0  0
   -2.0761    3.9640    0.9302 O   0  0  0  0  0  0  0  0  0  0  0  0
    5.0408   -0.2830    1.0911 C   0  0  0  0  0  0  0  0  0  0  0  0
    5.9633    0.2695    0.1987 C   0  0  0  0  0  0  0  0  0  0  0  0
    7.2719    1.6585   -1.6788 H   0  0  0  0  0  0  0  0  0  0  0  0
    7.4119    0.0564   -2.4440 H   0  0  0  0  0  0  0  0  0  0  0  0
    6.2157    1.2403   -3.0272 H   0  0  0  0  0  0  0  0  0  0  0  0
    4.3153   -0.3421   -2.7125 H   0  0  0  0  0  0  0  0  0  0  0  0
    2.6994   -1.3185   -1.1552 H   0  0  0  0  0  0  0  0  0  0  0  0
    3.2056   -1.3178    2.6286 H   0  0  0  0  0  0  0  0  0  0  0  0
    2.8379   -2.5331    1.4345 H   0  0  0  0  0  0  0  0  0  0  0  0
    2.9864    1.4403    2.1890 H   0  0  0  0  0  0  0  0  0  0  0  0
    2.6255    0.4808    3.6575 H   0  0  0  0  0  0  0  0  0  0  0  0
    1.7503    1.9809    3.3309 H   0  0  0  0  0  0  0  0  0  0  0  0
   -3.2854   -4.4243   -2.0266 H   0  0  0  0  0  0  0  0  0  0  0  0
   -5.6137   -4.5852   -2.8536 H   0  0  0  0  0  0  0  0  0  0  0  0
   -7.2322   -2.7676   -2.3363 H   0  0  0  0  0  0  0  0  0  0  0  0
   -6.4984   -0.8174   -1.0010 H   0  0  0  0  0  0  0  0  0  0  0  0
   -3.9040    1.5368    1.8230 H   0  0  0  0  0  0  0  0  0  0  0  0
   -2.3685    2.0480    2.5229 H   0  0  0  0  0  0  0  0  0  0  0  0
   -3.8856    2.2783   -1.2358 H   0  0  0  0  0  0  0  0  0  0  0  0
   -3.0627    4.7383   -2.1054 H   0  0  0  0  0  0  0  0  0  0  0  0
   -1.6038    5.7551    0.0105 H   0  0  0  0  0  0  0  0  0  0  0  0
    5.2723   -0.2725    2.1541 H   0  0  0  0  0  0  0  0  0  0  0  0
    6.8877    0.6944    0.5840 H   0  0  0  0  0  0  0  0  0  0  0  0
  1  2  1  0
  2  3  2  0
  3  4  1  0
  4  5  2  0
  5  6  1  0
  6  7  1  0
  7  8  1  0
  8  9  1  0
  8 10  2  0
 10 11  1  0
 11 12  2  0
 12 13  1  0
 13 14  2  0
 12 15  1  0
 15 16  2  0
 16 17  1  0
 17 18  2  0
 18 19  1  0
 19 20  2  0
 20 21  1  0
 21 22  2  0
 22 23  1  0
 23 24  2  0
 24 25  1  0
 25 26  1  0
 26 27  1  0
 27 28  2  0
 28 29  1  0
 29 30  2  0
 30 31  1  0
  5 32  1  0
 32 33  2  0
 33  2  1  0
 13  7  1  0
 24 15  1  0
 31 27  1  0
 25 11  1  0
 22 17  1  0
  1 34  1  0
  1 35  1  0
  1 36  1  0
  3 37  1  0
  4 38  1  0
  6 39  1  0
  6 40  1  0
  9 41  1  0
  9 42  1  0
  9 43  1  0
 18 44  1  0
 19 45  1  0
 20 46  1  0
 21 47  1  0
 26 48  1  0
 26 49  1  0
 28 50  1  0
 29 51  1  0
 30 52  1  0
 32 53  1  0
 33 54  1  0
M  END
$$$$
