
     RDKit          3D

 43 46  0  0  0  0  0  0  0  0999 V2000
    2.4850   -2.4776    3.5546 O   0  0  0  0  0  0  0  0  0  0  0  0
    2.6528   -1.6634    2.6452 C   0  0  0  0  0  0  0  0  0  0  0  0
    3.2048   -2.0764    1.2921 C   0  0  0  0  0  0  0  0  0  0  0  0
    2.5361   -1.1435   -0.1187 S   0  0  0  0  0  0  0  0  0  0  0  0
    0.8572   -1.5509   -0.0473 C   0  0  0  0  0  0  0  0  0  0  0  0
    0.2882   -2.2898    0.8734 N   0  0  0  0  0  0  0  0  0  0  0  0
   -1.0467   -2.3650    0.5732 N   0  0  0  0  0  0  0  0  0  0  0  0
   -1.2817   -1.6543   -0.5165 C   0  0  0  0  0  0  0  0  0  0  0  0
   -2.5790   -1.5422   -1.1715 C   0  0  0  0  0  0  0  0  0  0  0  0
   -3.1462   -0.3220   -1.5479 C   0  0  0  0  0  0  0  0  0  0  0  0
   -4.3841   -0.3015   -2.1916 C   0  0  0  0  0  0  0  0  0  0  0  0
   -5.0269   -1.5058   -2.4254 C   0  0  0  0  0  0  0  0  0  0  0  0
   -4.5239   -2.7033   -2.0589 N   0  0  0  0  0  0  0  0  0  0  0  0
   -3.3237   -2.6919   -1.4270 C   0  0  0  0  0  0  0  0  0  0  0  0
   -0.0814   -1.1243   -0.9520 N   0  0  0  0  0  0  0  0  0  0  0  0
    0.1516   -0.3593   -2.1633 C   0  0  0  0  0  0  0  0  0  0  0  0
    0.0686    1.1061   -1.9171 C   0  0  0  0  0  0  0  0  0  0  0  0
    0.2876    1.9293   -0.8264 C   0  0  0  0  0  0  0  0  0  0  0  0
    0.0224    3.2525   -1.2588 C   0  0  0  0  0  0  0  0  0  0  0  0
   -0.3361    3.1566   -2.5848 C   0  0  0  0  0  0  0  0  0  0  0  0
   -0.3170    1.8599   -2.9909 O   0  0  0  0  0  0  0  0  0  0  0  0
    2.3816   -0.2352    2.9457 C   0  0  0  0  0  0  0  0  0  0  0  0
    3.3436    0.7489    2.6954 C   0  0  0  0  0  0  0  0  0  0  0  0
    3.0645    2.0830    3.0158 C   0  0  0  0  0  0  0  0  0  0  0  0
    1.8295    2.4321    3.5787 C   0  0  0  0  0  0  0  0  0  0  0  0
    1.5594    4.1002    3.9463 Cl  0  0  0  0  0  0  0  0  0  0  0  0
    0.8683    1.4412    3.8251 C   0  0  0  0  0  0  0  0  0  0  0  0
   -0.6834    1.8119    4.4869 Cl  0  0  0  0  0  0  0  0  0  0  0  0
    1.1483    0.1051    3.5180 C   0  0  0  0  0  0  0  0  0  0  0  0
    4.2941   -1.9590    1.3120 H   0  0  0  0  0  0  0  0  0  0  0  0
    2.9862   -3.1408    1.1366 H   0  0  0  0  0  0  0  0  0  0  0  0
   -2.6534    0.6229   -1.3327 H   0  0  0  0  0  0  0  0  0  0  0  0
   -4.8420    0.6354   -2.4941 H   0  0  0  0  0  0  0  0  0  0  0  0
   -5.9916   -1.5403   -2.9250 H   0  0  0  0  0  0  0  0  0  0  0  0
   -2.9580   -3.6742   -1.1302 H   0  0  0  0  0  0  0  0  0  0  0  0
   -0.5848   -0.6717   -2.9093 H   0  0  0  0  0  0  0  0  0  0  0  0
    1.1310   -0.6259   -2.5708 H   0  0  0  0  0  0  0  0  0  0  0  0
    0.5961    1.6236    0.1648 H   0  0  0  0  0  0  0  0  0  0  0  0
    0.0856    4.1640   -0.6772 H   0  0  0  0  0  0  0  0  0  0  0  0
   -0.6259    3.8802   -3.3357 H   0  0  0  0  0  0  0  0  0  0  0  0
    4.3151    0.4919    2.2699 H   0  0  0  0  0  0  0  0  0  0  0  0
    3.8170    2.8484    2.8306 H   0  0  0  0  0  0  0  0  0  0  0  0
    0.4109   -0.6751    3.7097 H   0  0  0  0  0  0  0  0  0  0  0  0
  1  2  2  0
  2  3  1  0
  3  4  1  0
  4  5  1  0
  5  6  2  0
  6  7  1  0
  7  8  2  0
  8  9  1  0
  9 10  2  0
 10 11  1  0
 11 12  2  0
 12 13  1  0
 13 14  2  0
  8 15  1  0
 15 16  1  0
 16 17  1  0
 17 18  2  0
 18 19  1  0
 19 20  2  0
 20 21  1  0
  2 22  1  0
 22 23  2  0
 23 24  1  0
 24 25  2  0
 25 26  1  0
 25 27  1  0
 27 28  1  0
 27 29  2  0
 15  5  1  0
 21 17  1  0
 29 22  1  0
 14  9  1  0
  3 30  1  0
  3 31  1  0
 10 32  1  0
 11 33  1  0
 12 34  1  0
 14 35  1  0
 16 36  1  0
 16 37  1  0
 18 38  1  0
 19 39  1  0
 20 40  1  0
 23 41  1  0
 24 42  1  0
 29 43  1  0
M  END
$$$$
