
     RDKit          3D

 38 41  0  0  0  0  0  0  0  0999 V2000
   -4.9546    0.5958   -2.6201 O   0  0  0  0  0  0  0  0  0  0  0  0
   -4.1425    1.3190   -2.0491 C   0  0  0  0  0  0  0  0  0  0  0  0
   -3.4101    0.9530   -0.8527 C   0  0  0  0  0  0  0  0  0  0  0  0
   -2.5065    1.7744   -0.1963 C   0  0  0  0  0  0  0  0  0  0  0  0
   -2.0103    1.0916    0.8857 N   0  0  0  0  0  0  0  0  0  0  0  0
   -1.0433    1.6318    1.8305 C   0  0  0  0  0  0  0  0  0  0  0  0
    0.2899    0.9066    1.7884 C   0  0  0  0  0  0  0  0  0  0  0  0
    0.7590    0.4207    2.8161 O   0  0  0  0  0  0  0  0  0  0  0  0
    0.8989    0.9276    0.5391 N   0  0  0  0  0  0  0  0  0  0  0  0
    2.1575    0.3930    0.1898 C   0  0  0  0  0  0  0  0  0  0  0  0
    2.9579   -0.3678    1.0652 C   0  0  0  0  0  0  0  0  0  0  0  0
    4.2120   -0.8490    0.6618 C   0  0  0  0  0  0  0  0  0  0  0  0
    4.6351   -0.5573   -0.6145 C   0  0  0  0  0  0  0  0  0  0  0  0
    3.8567    0.1714   -1.4824 C   0  0  0  0  0  0  0  0  0  0  0  0
    2.6171    0.6553   -1.1140 C   0  0  0  0  0  0  0  0  0  0  0  0
    4.4508    0.3477   -2.6976 O   0  0  0  0  0  0  0  0  0  0  0  0
    5.7043   -0.3371   -2.4791 C   0  0  0  0  0  0  0  0  0  0  0  0
    5.8197   -0.9280   -1.1652 O   0  0  0  0  0  0  0  0  0  0  0  0
   -2.5877   -0.1607    0.9655 C   0  0  0  0  0  0  0  0  0  0  0  0
   -2.4129   -1.1953    1.8991 C   0  0  0  0  0  0  0  0  0  0  0  0
   -3.1427   -2.3721    1.7170 C   0  0  0  0  0  0  0  0  0  0  0  0
   -4.0173   -2.5163    0.6425 C   0  0  0  0  0  0  0  0  0  0  0  0
   -4.1874   -1.4788   -0.2791 C   0  0  0  0  0  0  0  0  0  0  0  0
   -3.4657   -0.2751   -0.1218 C   0  0  0  0  0  0  0  0  0  0  0  0
   -3.9184    2.3248   -2.4456 H   0  0  0  0  0  0  0  0  0  0  0  0
   -2.1914    2.7875   -0.4072 H   0  0  0  0  0  0  0  0  0  0  0  0
   -1.4862    1.5426    2.8308 H   0  0  0  0  0  0  0  0  0  0  0  0
   -0.8850    2.6938    1.6160 H   0  0  0  0  0  0  0  0  0  0  0  0
    0.3956    1.3867   -0.2134 H   0  0  0  0  0  0  0  0  0  0  0  0
    2.6258   -0.6139    2.0680 H   0  0  0  0  0  0  0  0  0  0  0  0
    4.8290   -1.4321    1.3409 H   0  0  0  0  0  0  0  0  0  0  0  0
    2.0371    1.2301   -1.8309 H   0  0  0  0  0  0  0  0  0  0  0  0
    6.5219    0.3853   -2.6099 H   0  0  0  0  0  0  0  0  0  0  0  0
    5.8062   -1.1285   -3.2325 H   0  0  0  0  0  0  0  0  0  0  0  0
   -1.7331   -1.0960    2.7396 H   0  0  0  0  0  0  0  0  0  0  0  0
   -3.0244   -3.1845    2.4274 H   0  0  0  0  0  0  0  0  0  0  0  0
   -4.5765   -3.4422    0.5145 H   0  0  0  0  0  0  0  0  0  0  0  0
   -4.8789   -1.6041   -1.1107 H   0  0  0  0  0  0  0  0  0  0  0  0
  1  2  2  0
  2  3  1  0
  3  4  2  0
  4  5  1  0
  5  6  1  0
  6  7  1  0
  7  8  2  0
  7  9  1  0
  9 10  1  0
 10 11  2  0
 11 12  1  0
 12 13  2  0
 13 14  1  0
 14 15  2  0
 14 16  1  0
 16 17  1  0
 17 18  1  0
  5 19  1  0
 19 20  2  0
 20 21  1  0
 21 22  2  0
 22 23  1  0
 23 24  2  0
 24  3  1  0
 15 10  1  0
 24 19  1  0
 18 13  1  0
  2 25  1  0
  4 26  1  0
  6 27  1  0
  6 28  1  0
  9 29  1  0
 11 30  1  0
 12 31  1  0
 15 32  1  0
 17 33  1  0
 17 34  1  0
 20 35  1  0
 21 36  1  0
 22 37  1  0
 23 38  1  0
M  END
$$$$
