
     RDKit          3D

 42 44  0  0  0  0  0  0  0  0999 V2000
   -4.3102   -2.9067   -0.9967 C   0  0  0  0  0  0  0  0  0  0  0  0
   -4.0989   -1.5187   -1.2164 O   0  0  0  0  0  0  0  0  0  0  0  0
   -4.6721   -0.6451   -0.3252 C   0  0  0  0  0  0  0  0  0  0  0  0
   -5.5246   -1.0193    0.7190 C   0  0  0  0  0  0  0  0  0  0  0  0
   -6.0633   -0.0530    1.5751 C   0  0  0  0  0  0  0  0  0  0  0  0
   -5.7579    1.2932    1.3961 C   0  0  0  0  0  0  0  0  0  0  0  0
   -4.9116    1.6798    0.3588 C   0  0  0  0  0  0  0  0  0  0  0  0
   -4.3659    0.7191   -0.5046 C   0  0  0  0  0  0  0  0  0  0  0  0
   -3.4711    1.1776   -1.5744 C   0  0  0  0  0  0  0  0  0  0  0  0
   -2.1291    1.1734   -1.5563 C   0  0  0  0  0  0  0  0  0  0  0  0
   -1.2282    0.7345   -0.4836 C   0  0  0  0  0  0  0  0  0  0  0  0
    0.0618    0.6797   -0.5683 N   0  0  0  0  0  0  0  0  0  0  0  0
    0.4240    0.2227    0.6710 C   0  0  0  0  0  0  0  0  0  0  0  0
    1.6597   -0.0225    1.1239 C   0  0  0  0  0  0  0  0  0  0  0  0
    2.8643    0.1656    0.3429 C   0  0  0  0  0  0  0  0  0  0  0  0
    4.0911   -0.0865    0.8249 C   0  0  0  0  0  0  0  0  0  0  0  0
    5.3260    0.1016    0.0510 C   0  0  0  0  0  0  0  0  0  0  0  0
    6.4611    0.6088    0.6966 C   0  0  0  0  0  0  0  0  0  0  0  0
    7.6611    0.7742    0.0001 C   0  0  0  0  0  0  0  0  0  0  0  0
    7.7409    0.4230   -1.3460 C   0  0  0  0  0  0  0  0  0  0  0  0
    6.6233   -0.0976   -1.9949 C   0  0  0  0  0  0  0  0  0  0  0  0
    5.4226   -0.2619   -1.2989 C   0  0  0  0  0  0  0  0  0  0  0  0
   -0.7788    0.0141    1.5169 C   0  0  0  0  0  0  0  0  0  0  0  0
   -0.8552   -0.3765    2.6647 O   0  0  0  0  0  0  0  0  0  0  0  0
   -1.7930    0.3756    0.6892 O   0  0  0  0  0  0  0  0  0  0  0  0
   -3.7418   -3.4549   -1.7542 H   0  0  0  0  0  0  0  0  0  0  0  0
   -3.9380   -3.2154   -0.0137 H   0  0  0  0  0  0  0  0  0  0  0  0
   -5.3671   -3.1660   -1.1206 H   0  0  0  0  0  0  0  0  0  0  0  0
   -5.7930   -2.0558    0.8958 H   0  0  0  0  0  0  0  0  0  0  0  0
   -6.7215   -0.3548    2.3860 H   0  0  0  0  0  0  0  0  0  0  0  0
   -6.1740    2.0409    2.0668 H   0  0  0  0  0  0  0  0  0  0  0  0
   -4.6746    2.7343    0.2310 H   0  0  0  0  0  0  0  0  0  0  0  0
   -3.9877    1.5275   -2.4661 H   0  0  0  0  0  0  0  0  0  0  0  0
   -1.6009    1.5203   -2.4412 H   0  0  0  0  0  0  0  0  0  0  0  0
    1.7815   -0.3859    2.1430 H   0  0  0  0  0  0  0  0  0  0  0  0
    2.7358    0.5408   -0.6714 H   0  0  0  0  0  0  0  0  0  0  0  0
    4.2263   -0.4349    1.8459 H   0  0  0  0  0  0  0  0  0  0  0  0
    6.4184    0.8895    1.7468 H   0  0  0  0  0  0  0  0  0  0  0  0
    8.5326    1.1767    0.5097 H   0  0  0  0  0  0  0  0  0  0  0  0
    8.6745    0.5505   -1.8878 H   0  0  0  0  0  0  0  0  0  0  0  0
    6.6851   -0.3811   -3.0426 H   0  0  0  0  0  0  0  0  0  0  0  0
    4.5684   -0.6865   -1.8206 H   0  0  0  0  0  0  0  0  0  0  0  0
  1  2  1  0
  2  3  1  0
  3  4  2  0
  4  5  1  0
  5  6  2  0
  6  7  1  0
  7  8  2  0
  8  9  1  0
  9 10  2  3
 10 11  1  0
 11 12  2  0
 12 13  1  0
 13 14  2  3
 14 15  1  0
 15 16  2  3
 16 17  1  0
 17 18  2  0
 18 19  1  0
 19 20  2  0
 20 21  1  0
 21 22  2  0
 13 23  1  0
 23 24  2  0
 23 25  1  0
  8  3  1  0
 25 11  1  0
 22 17  1  0
  1 26  1  0
  1 27  1  0
  1 28  1  0
  4 29  1  0
  5 30  1  0
  6 31  1  0
  7 32  1  0
  9 33  1  0
 10 34  1  0
 14 35  1  0
 15 36  1  0
 16 37  1  0
 18 38  1  0
 19 39  1  0
 20 40  1  0
 21 41  1  0
 22 42  1  0
M  END
$$$$
