
     RDKit          3D

 43 45  0  0  0  0  0  0  0  0999 V2000
   -5.8815   -0.6266    1.3436 C   0  0  0  0  0  0  0  0  0  0  0  0
   -6.0464    0.7782    0.9965 N   0  0  0  0  0  0  0  0  0  0  0  0
   -7.3573    1.3450    1.2619 C   0  0  0  0  0  0  0  0  0  0  0  0
   -4.9885    1.6637    0.7913 C   0  0  0  0  0  0  0  0  0  0  0  0
   -5.0941    2.8820    0.9182 O   0  0  0  0  0  0  0  0  0  0  0  0
   -3.6674    1.1331    0.3792 C   0  0  0  0  0  0  0  0  0  0  0  0
   -3.5498    0.2379   -0.6877 C   0  0  0  0  0  0  0  0  0  0  0  0
   -2.2881   -0.2285   -1.0754 C   0  0  0  0  0  0  0  0  0  0  0  0
   -1.1367    0.2087   -0.4158 C   0  0  0  0  0  0  0  0  0  0  0  0
    0.1647   -0.2112   -0.7441 N   0  0  0  0  0  0  0  0  0  0  0  0
    0.5581   -1.1245   -1.7067 C   0  0  0  0  0  0  0  0  0  0  0  0
   -0.1944   -1.7518   -2.4441 O   0  0  0  0  0  0  0  0  0  0  0  0
    2.0005   -1.2872   -1.7623 C   0  0  0  0  0  0  0  0  0  0  0  0
    2.7939   -2.0833   -2.5625 C   0  0  0  0  0  0  0  0  0  0  0  0
    4.1347   -1.8321   -2.1845 C   0  0  0  0  0  0  0  0  0  0  0  0
    4.0968   -0.8966   -1.1680 C   0  0  0  0  0  0  0  0  0  0  0  0
    5.1127   -0.2230   -0.3606 C   0  0  0  0  0  0  0  0  0  0  0  0
    6.4762   -0.4950   -0.5574 C   0  0  0  0  0  0  0  0  0  0  0  0
    7.4566    0.1485    0.2062 C   0  0  0  0  0  0  0  0  0  0  0  0
    7.0823    1.0720    1.1775 C   0  0  0  0  0  0  0  0  0  0  0  0
    8.2857    1.8667    2.1132 Cl  0  0  0  0  0  0  0  0  0  0  0  0
    5.7373    1.3574    1.3910 C   0  0  0  0  0  0  0  0  0  0  0  0
    4.7597    0.7120    0.6263 C   0  0  0  0  0  0  0  0  0  0  0  0
    2.7946   -0.5653   -0.9082 O   0  0  0  0  0  0  0  0  0  0  0  0
   -1.2628    1.1314    0.6323 C   0  0  0  0  0  0  0  0  0  0  0  0
   -2.5207    1.5979    1.0255 C   0  0  0  0  0  0  0  0  0  0  0  0
   -6.4905   -1.2276    0.6629 H   0  0  0  0  0  0  0  0  0  0  0  0
   -4.8445   -0.9605    1.2984 H   0  0  0  0  0  0  0  0  0  0  0  0
   -6.2329   -0.7742    2.3697 H   0  0  0  0  0  0  0  0  0  0  0  0
   -7.4794    1.4571    2.3436 H   0  0  0  0  0  0  0  0  0  0  0  0
   -7.4685    2.3244    0.7874 H   0  0  0  0  0  0  0  0  0  0  0  0
   -8.1279    0.6737    0.8706 H   0  0  0  0  0  0  0  0  0  0  0  0
   -4.4328   -0.0935   -1.2289 H   0  0  0  0  0  0  0  0  0  0  0  0
   -2.2415   -0.9257   -1.9065 H   0  0  0  0  0  0  0  0  0  0  0  0
    0.9283    0.1946   -0.2141 H   0  0  0  0  0  0  0  0  0  0  0  0
    2.4352   -2.7585   -3.3279 H   0  0  0  0  0  0  0  0  0  0  0  0
    5.0210   -2.2827   -2.6089 H   0  0  0  0  0  0  0  0  0  0  0  0
    6.7976   -1.2113   -1.3097 H   0  0  0  0  0  0  0  0  0  0  0  0
    8.5063   -0.0761    0.0357 H   0  0  0  0  0  0  0  0  0  0  0  0
    5.4403    2.0789    2.1471 H   0  0  0  0  0  0  0  0  0  0  0  0
    3.7155    0.9533    0.8102 H   0  0  0  0  0  0  0  0  0  0  0  0
   -0.3859    1.5054    1.1550 H   0  0  0  0  0  0  0  0  0  0  0  0
   -2.6066    2.3253    1.8298 H   0  0  0  0  0  0  0  0  0  0  0  0
  1  2  1  0
  2  3  1  0
  2  4  1  0
  4  5  2  0
  4  6  1  0
  6  7  2  0
  7  8  1  0
  8  9  2  0
  9 10  1  0
 10 11  1  0
 11 12  2  0
 11 13  1  0
 13 14  2  0
 14 15  1  0
 15 16  2  0
 16 17  1  0
 17 18  2  0
 18 19  1  0
 19 20  2  0
 20 21  1  0
 20 22  1  0
 22 23  2  0
 16 24  1  0
  9 25  1  0
 25 26  2  0
 26  6  1  0
 24 13  1  0
 23 17  1  0
  1 27  1  0
  1 28  1  0
  1 29  1  0
  3 30  1  0
  3 31  1  0
  3 32  1  0
  7 33  1  0
  8 34  1  0
 10 35  1  0
 14 36  1  0
 15 37  1  0
 18 38  1  0
 19 39  1  0
 22 40  1  0
 23 41  1  0
 25 42  1  0
 26 43  1  0
M  END
$$$$
