
     RDKit          3D

 32 34  0  0  0  0  0  0  0  0999 V2000
   -2.2226    0.6900    1.1246 O   0  0  0  0  0  0  0  0  0  0  0  0
   -2.7341   -0.4104    1.0159 C   0  0  0  0  0  0  0  0  0  0  0  0
   -3.3332   -1.0480    2.0690 N   0  0  0  0  0  0  0  0  0  0  0  0
   -3.9960   -2.2098    1.8354 C   0  0  0  0  0  0  0  0  0  0  0  0
   -4.8140   -3.0535    3.0002 S   0  0  0  0  0  0  0  0  0  0  0  0
   -3.8453   -2.6405    0.1522 S   0  0  0  0  0  0  0  0  0  0  0  0
   -2.8677   -1.2410   -0.2204 C   0  0  0  0  0  0  0  0  0  0  0  0
   -2.3890   -1.0555   -1.4584 C   0  0  0  0  0  0  0  0  0  0  0  0
   -1.5384    0.0030   -1.8737 C   0  0  0  0  0  0  0  0  0  0  0  0
   -1.3523    0.4898   -3.1621 C   0  0  0  0  0  0  0  0  0  0  0  0
   -0.3810    1.5166   -3.1019 C   0  0  0  0  0  0  0  0  0  0  0  0
    0.0045    1.6138   -1.7842 C   0  0  0  0  0  0  0  0  0  0  0  0
    1.1699    2.7132   -1.1006 S   0  0  0  0  0  0  0  0  0  0  0  0
    1.2094    2.1931    0.6385 C   0  0  0  0  0  0  0  0  0  0  0  0
    2.1066    1.0035    0.8831 C   0  0  0  0  0  0  0  0  0  0  0  0
    3.5029    1.1402    0.8537 C   0  0  0  0  0  0  0  0  0  0  0  0
    4.3291    0.0382    1.0816 C   0  0  0  0  0  0  0  0  0  0  0  0
    3.7701   -1.2116    1.3410 C   0  0  0  0  0  0  0  0  0  0  0  0
    2.3851   -1.3612    1.3723 C   0  0  0  0  0  0  0  0  0  0  0  0
    1.5582   -0.2599    1.1452 C   0  0  0  0  0  0  0  0  0  0  0  0
   -0.6861    0.6967   -1.0534 O   0  0  0  0  0  0  0  0  0  0  0  0
   -3.3444   -0.6058    2.9757 H   0  0  0  0  0  0  0  0  0  0  0  0
   -2.6525   -1.7728   -2.2328 H   0  0  0  0  0  0  0  0  0  0  0  0
   -1.8664    0.1408   -4.0474 H   0  0  0  0  0  0  0  0  0  0  0  0
   -0.0029    2.1140   -3.9195 H   0  0  0  0  0  0  0  0  0  0  0  0
    0.1957    2.0115    1.0106 H   0  0  0  0  0  0  0  0  0  0  0  0
    1.5902    3.0362    1.2274 H   0  0  0  0  0  0  0  0  0  0  0  0
    3.9541    2.1086    0.6481 H   0  0  0  0  0  0  0  0  0  0  0  0
    5.4092    0.1555    1.0536 H   0  0  0  0  0  0  0  0  0  0  0  0
    4.4140   -2.0691    1.5161 H   0  0  0  0  0  0  0  0  0  0  0  0
    1.9483   -2.3359    1.5710 H   0  0  0  0  0  0  0  0  0  0  0  0
    0.4787   -0.3898    1.1682 H   0  0  0  0  0  0  0  0  0  0  0  0
  1  2  2  0
  2  3  1  0
  3  4  1  0
  4  5  2  0
  4  6  1  0
  6  7  1  0
  7  8  2  3
  8  9  1  0
  9 10  2  0
 10 11  1  0
 11 12  2  0
 12 13  1  0
 13 14  1  0
 14 15  1  0
 15 16  2  0
 16 17  1  0
 17 18  2  0
 18 19  1  0
 19 20  2  0
 12 21  1  0
  7  2  1  0
 21  9  1  0
 20 15  1  0
  3 22  1  0
  8 23  1  0
 10 24  1  0
 11 25  1  0
 14 26  1  0
 14 27  1  0
 16 28  1  0
 17 29  1  0
 18 30  1  0
 19 31  1  0
 20 32  1  0
M  END
$$$$
