
     RDKit          3D

 37 39  0  0  0  0  0  0  0  0999 V2000
   -0.4585   -1.4724    2.1050 C   0  0  0  0  0  0  0  0  0  0  0  0
   -0.8599   -0.5725    1.0438 N   0  0  0  0  0  0  0  0  0  0  0  0
   -0.0785    0.0073    0.0353 C   0  0  0  0  0  0  0  0  0  0  0  0
    1.2587    0.1117   -0.1075 C   0  0  0  0  0  0  0  0  0  0  0  0
    2.2884   -0.2801    0.8312 C   0  0  0  0  0  0  0  0  0  0  0  0
    3.6087   -0.3352    0.6012 C   0  0  0  0  0  0  0  0  0  0  0  0
    4.7479   -0.7938    1.8328 S   0  0  0  0  0  0  0  0  0  0  0  0
    6.1151   -0.6256    0.7595 C   0  0  0  0  0  0  0  0  0  0  0  0
    7.7044   -0.8889    1.1390 S   0  0  0  0  0  0  0  0  0  0  0  0
    5.6871   -0.2369   -0.4707 N   0  0  0  0  0  0  0  0  0  0  0  0
    4.3459   -0.0517   -0.6655 C   0  0  0  0  0  0  0  0  0  0  0  0
    3.8605    0.2944   -1.7297 O   0  0  0  0  0  0  0  0  0  0  0  0
   -1.0458    0.6300   -1.0311 C   0  0  0  0  0  0  0  0  0  0  0  0
   -0.8094    2.1362   -1.2220 C   0  0  0  0  0  0  0  0  0  0  0  0
   -0.9579   -0.1153   -2.3704 C   0  0  0  0  0  0  0  0  0  0  0  0
   -2.4003    0.3905   -0.3837 C   0  0  0  0  0  0  0  0  0  0  0  0
   -3.6623    0.7617   -0.8322 C   0  0  0  0  0  0  0  0  0  0  0  0
   -4.7665    0.4282   -0.0498 C   0  0  0  0  0  0  0  0  0  0  0  0
   -4.5965   -0.2620    1.1578 C   0  0  0  0  0  0  0  0  0  0  0  0
   -3.3199   -0.6330    1.5971 C   0  0  0  0  0  0  0  0  0  0  0  0
   -2.2182   -0.3120    0.8196 C   0  0  0  0  0  0  0  0  0  0  0  0
    0.3822   -2.1008    1.7933 H   0  0  0  0  0  0  0  0  0  0  0  0
   -1.2485   -2.1756    2.3891 H   0  0  0  0  0  0  0  0  0  0  0  0
   -0.1684   -0.9057    2.9955 H   0  0  0  0  0  0  0  0  0  0  0  0
    1.6184    0.5905   -1.0167 H   0  0  0  0  0  0  0  0  0  0  0  0
    1.9446   -0.5111    1.8345 H   0  0  0  0  0  0  0  0  0  0  0  0
    6.3302   -0.0865   -1.2330 H   0  0  0  0  0  0  0  0  0  0  0  0
   -0.8549    2.6745   -0.2675 H   0  0  0  0  0  0  0  0  0  0  0  0
   -1.5646    2.5789   -1.8819 H   0  0  0  0  0  0  0  0  0  0  0  0
    0.1690    2.3382   -1.6715 H   0  0  0  0  0  0  0  0  0  0  0  0
   -1.7084    0.2510   -3.0807 H   0  0  0  0  0  0  0  0  0  0  0  0
   -1.1262   -1.1918   -2.2454 H   0  0  0  0  0  0  0  0  0  0  0  0
    0.0249    0.0147   -2.8372 H   0  0  0  0  0  0  0  0  0  0  0  0
   -3.7915    1.2986   -1.7660 H   0  0  0  0  0  0  0  0  0  0  0  0
   -5.7654    0.7077   -0.3755 H   0  0  0  0  0  0  0  0  0  0  0  0
   -5.4660   -0.5096    1.7618 H   0  0  0  0  0  0  0  0  0  0  0  0
   -3.2178   -1.1537    2.5418 H   0  0  0  0  0  0  0  0  0  0  0  0
  1  2  1  0
  2  3  1  0
  3  4  2  3
  4  5  1  0
  5  6  2  3
  6  7  1  0
  7  8  1  0
  8  9  2  0
  8 10  1  0
 10 11  1  0
 11 12  2  0
  3 13  1  0
 13 14  1  0
 13 15  1  0
 13 16  1  0
 16 17  2  0
 17 18  1  0
 18 19  2  0
 19 20  1  0
 20 21  2  0
 21  2  1  0
 11  6  1  0
 21 16  1  0
  1 22  1  0
  1 23  1  0
  1 24  1  0
  4 25  1  0
  5 26  1  0
 10 27  1  0
 14 28  1  0
 14 29  1  0
 14 30  1  0
 15 31  1  0
 15 32  1  0
 15 33  1  0
 17 34  1  0
 18 35  1  0
 19 36  1  0
 20 37  1  0
M  END
$$$$
