
     RDKit          3D

 21 21  0  0  0  0  0  0  0  0999 V2000
    3.1043   -0.2397   -0.1985 C   0  0  0  0  0  0  0  0  0  0  0  0
    1.6230    0.0205   -0.1591 C   0  0  0  0  0  0  0  0  0  0  0  0
    1.1556    1.3056   -0.4510 C   0  0  0  0  0  0  0  0  0  0  0  0
   -0.2068    1.5522   -0.4404 C   0  0  0  0  0  0  0  0  0  0  0  0
   -0.6545    2.8125   -0.7361 O   0  0  0  0  0  0  0  0  0  0  0  0
   -1.1526    0.5528   -0.1644 C   0  0  0  0  0  0  0  0  0  0  0  0
   -2.5069    0.9689   -0.0677 N   0  0  0  0  0  0  0  0  0  0  0  0
   -0.7047   -0.7235    0.2166 C   0  0  0  0  0  0  0  0  0  0  0  0
   -1.6745   -1.8083    0.6104 C   0  0  0  0  0  0  0  0  0  0  0  0
    0.6891   -0.9872    0.1714 C   0  0  0  0  0  0  0  0  0  0  0  0
    1.2765   -2.5861    0.5304 Cl  0  0  0  0  0  0  0  0  0  0  0  0
    3.6626    0.6606   -0.4774 H   0  0  0  0  0  0  0  0  0  0  0  0
    3.3381   -1.0098   -0.9406 H   0  0  0  0  0  0  0  0  0  0  0  0
    3.4637   -0.5540    0.7866 H   0  0  0  0  0  0  0  0  0  0  0  0
    1.8396    2.1140   -0.6941 H   0  0  0  0  0  0  0  0  0  0  0  0
   -1.6285    2.7055   -0.7573 H   0  0  0  0  0  0  0  0  0  0  0  0
   -3.1474    0.2064   -0.2793 H   0  0  0  0  0  0  0  0  0  0  0  0
   -2.6899    1.2837    0.8871 H   0  0  0  0  0  0  0  0  0  0  0  0
   -1.3084   -2.3718    1.4747 H   0  0  0  0  0  0  0  0  0  0  0  0
   -2.6455   -1.4107    0.9184 H   0  0  0  0  0  0  0  0  0  0  0  0
   -1.8329   -2.4917   -0.2297 H   0  0  0  0  0  0  0  0  0  0  0  0
  1  2  1  0
  2  3  2  0
  3  4  1  0
  4  5  1  0
  4  6  2  0
  6  7  1  0
  6  8  1  0
  8  9  1  0
  8 10  2  0
 10 11  1  0
 10  2  1  0
  1 12  1  0
  1 13  1  0
  1 14  1  0
  3 15  1  0
  5 16  1  0
  7 17  1  0
  7 18  1  0
  9 19  1  0
  9 20  1  0
  9 21  1  0
M  END
$$$$
