
     RDKit          3D

 43 44  0  0  0  0  0  0  0  0999 V2000
   -2.9195   -1.0645    2.4850 C   0  0  0  0  0  0  0  0  0  0  0  0
   -2.8250    0.2860    1.8018 C   0  0  0  0  0  0  0  0  0  0  0  0
   -3.3057    0.1708    0.3993 N   0  0  0  0  0  4  0  0  0  0  0  0
   -4.6304    0.3534    0.1661 C   0  0  0  0  0  0  0  0  0  0  0  0
   -5.1598    0.3043   -1.1218 C   0  0  0  0  0  0  0  0  0  0  0  0
   -6.6330    0.4753   -1.3507 C   0  0  0  0  0  0  0  0  0  0  0  0
   -4.3041    0.0372   -2.1840 C   0  0  0  0  0  0  0  0  0  0  0  0
   -2.9498   -0.1496   -1.9400 C   0  0  0  0  0  0  0  0  0  0  0  0
   -2.4527   -0.0773   -0.6332 C   0  0  0  0  0  0  0  0  0  0  0  0
   -1.0257   -0.3016   -0.3895 C   0  0  0  0  0  0  0  0  0  0  0  0
   -0.0878    0.5583   -0.8183 C   0  0  0  0  0  0  0  0  0  0  0  0
    1.3564    0.3742   -0.6121 C   0  0  0  0  0  0  0  0  0  0  0  0
    2.2441    0.9100   -1.5448 C   0  0  0  0  0  0  0  0  0  0  0  0
    3.6322    0.7879   -1.3715 C   0  0  0  0  0  0  0  0  0  0  0  0
    4.1983    0.1306   -0.2673 C   0  0  0  0  0  0  0  0  0  0  0  0
    5.5799    0.0288   -0.0853 N   0  0  0  0  0  0  0  0  0  0  0  0
    6.1048   -0.9581    0.8585 C   0  0  0  0  0  0  0  0  0  0  0  0
    6.4800    0.3910   -1.1802 C   0  0  0  0  0  0  0  0  0  0  0  0
    3.2833   -0.3754    0.6710 C   0  0  0  0  0  0  0  0  0  0  0  0
    1.8926   -0.2588    0.5089 C   0  0  0  0  0  0  0  0  0  0  0  0
   -2.5731   -0.9906    3.5202 H   0  0  0  0  0  0  0  0  0  0  0  0
   -2.3104   -1.8157    1.9736 H   0  0  0  0  0  0  0  0  0  0  0  0
   -3.9519   -1.4284    2.4965 H   0  0  0  0  0  0  0  0  0  0  0  0
   -3.4536    1.0254    2.3113 H   0  0  0  0  0  0  0  0  0  0  0  0
   -1.8050    0.6793    1.8100 H   0  0  0  0  0  0  0  0  0  0  0  0
   -5.2632    0.5404    1.0305 H   0  0  0  0  0  0  0  0  0  0  0  0
   -7.0708    1.1378   -0.5966 H   0  0  0  0  0  0  0  0  0  0  0  0
   -6.8259    0.9255   -2.3302 H   0  0  0  0  0  0  0  0  0  0  0  0
   -7.1343   -0.4963   -1.3020 H   0  0  0  0  0  0  0  0  0  0  0  0
   -4.6830   -0.0294   -3.2038 H   0  0  0  0  0  0  0  0  0  0  0  0
   -2.2817   -0.3626   -2.7737 H   0  0  0  0  0  0  0  0  0  0  0  0
   -0.7670   -1.2134    0.1408 H   0  0  0  0  0  0  0  0  0  0  0  0
   -0.3616    1.4549   -1.3740 H   0  0  0  0  0  0  0  0  0  0  0  0
    1.8811    1.4314   -2.4280 H   0  0  0  0  0  0  0  0  0  0  0  0
    4.2608    1.2317   -2.1383 H   0  0  0  0  0  0  0  0  0  0  0  0
    5.7799   -1.9696    0.5906 H   0  0  0  0  0  0  0  0  0  0  0  0
    5.7923   -0.7305    1.8832 H   0  0  0  0  0  0  0  0  0  0  0  0
    7.2006   -0.9568    0.8712 H   0  0  0  0  0  0  0  0  0  0  0  0
    7.5296    0.2947   -0.8806 H   0  0  0  0  0  0  0  0  0  0  0  0
    6.3220   -0.2575   -2.0489 H   0  0  0  0  0  0  0  0  0  0  0  0
    6.3473    1.4382   -1.4726 H   0  0  0  0  0  0  0  0  0  0  0  0
    3.6327   -0.8685    1.5736 H   0  0  0  0  0  0  0  0  0  0  0  0
    1.2571   -0.6622    1.2911 H   0  0  0  0  0  0  0  0  0  0  0  0
  1  2  1  0
  2  3  1  0
  3  4  2  0
  4  5  1  0
  5  6  1  0
  5  7  2  0
  7  8  1  0
  8  9  2  0
  9 10  1  0
 10 11  2  3
 11 12  1  0
 12 13  2  0
 13 14  1  0
 14 15  2  0
 15 16  1  0
 16 17  1  0
 16 18  1  0
 15 19  1  0
 19 20  2  0
  9  3  1  0
 20 12  1  0
  1 21  1  0
  1 22  1  0
  1 23  1  0
  2 24  1  0
  2 25  1  0
  4 26  1  0
  6 27  1  0
  6 28  1  0
  6 29  1  0
  7 30  1  0
  8 31  1  0
 10 32  1  0
 11 33  1  0
 13 34  1  0
 14 35  1  0
 17 36  1  0
 17 37  1  0
 17 38  1  0
 18 39  1  0
 18 40  1  0
 18 41  1  0
 19 42  1  0
 20 43  1  0
M  CHG  1   3   1
M  END
$$$$
