
     RDKit          3D

 65 69  0  0  0  0  0  0  0  0999 V2000
    5.7027   -2.8052   -0.3520 O   0  0  0  0  0  0  0  0  0  0  0  0
    6.3136   -1.7299   -0.2290 C   0  0  0  0  0  0  0  0  0  0  0  0
    7.8253   -1.8009    0.0495 C   0  0  0  0  0  0  0  0  0  0  0  0
    8.5623   -0.9923    1.1395 C   0  0  0  0  0  0  0  0  0  0  0  0
    9.7912   -0.9675    0.2068 C   0  0  0  0  0  0  0  0  0  0  0  0
    8.8367   -1.2302   -0.9743 C   0  0  0  0  0  0  0  0  0  0  0  0
    5.6628   -0.5035   -0.3681 N   0  0  0  0  0  0  0  0  0  0  0  0
    6.1937    0.8346   -0.0581 C   0  0  0  0  0  0  0  0  0  0  0  0
    5.1801    1.8698   -0.5563 C   0  0  0  0  0  0  0  0  0  0  0  0
    3.9796    1.0168   -0.8017 C   0  0  0  0  0  0  0  0  0  0  0  0
    2.7059    1.4489   -1.1455 C   0  0  0  0  0  0  0  0  0  0  0  0
    1.7382    0.4761   -1.4099 C   0  0  0  0  0  0  0  0  0  0  0  0
    0.0995    0.9659   -1.8826 S   0  0  0  0  0  6  0  0  0  0  0  0
   -0.2673    0.1822   -3.0406 O   0  0  0  0  0  0  0  0  0  0  0  0
    0.0294    2.4114   -1.8871 O   0  0  0  0  0  0  0  0  0  0  0  0
   -0.8176    0.4026   -0.6050 N   0  0  0  0  0  0  0  0  0  0  0  0
   -0.9373    1.2232    0.6081 C   0  0  0  0  0  0  0  0  0  0  0  0
   -1.9775    0.5716    1.5445 C   0  0  0  0  0  0  0  0  0  0  0  0
   -3.2373    0.2071    0.8541 N   0  0  0  0  0  0  0  0  0  0  0  0
   -4.0068    1.4108    0.4465 C   0  0  0  0  0  0  0  0  0  0  0  0
   -5.3676    1.0629   -0.2053 C   0  0  0  0  0  0  0  0  0  0  0  0
   -6.1806    0.2323    0.7087 N   0  0  0  0  0  0  0  0  0  0  0  0
   -7.5246   -0.0081    0.3484 C   0  0  0  0  0  0  0  0  0  0  0  0
   -8.4056   -0.5073    1.3273 C   0  0  0  0  0  0  0  0  0  0  0  0
   -9.7555   -0.7592    1.0538 C   0  0  0  0  0  0  0  0  0  0  0  0
  -10.2698   -0.5094   -0.2133 C   0  0  0  0  0  0  0  0  0  0  0  0
   -9.4326   -0.0018   -1.2001 C   0  0  0  0  0  0  0  0  0  0  0  0
   -8.0865    0.2483   -0.9181 C   0  0  0  0  0  0  0  0  0  0  0  0
   -7.3393    0.7307   -1.9238 F   0  0  0  0  0  0  0  0  0  0  0  0
   -5.4527   -0.9890    1.1274 C   0  0  0  0  0  0  0  0  0  0  0  0
   -4.0862   -0.6144    1.7514 C   0  0  0  0  0  0  0  0  0  0  0  0
    2.0480   -0.8926   -1.3458 C   0  0  0  0  0  0  0  0  0  0  0  0
    3.3397   -1.3055   -0.9992 C   0  0  0  0  0  0  0  0  0  0  0  0
    4.3007   -0.3430   -0.7238 C   0  0  0  0  0  0  0  0  0  0  0  0
    8.0669   -2.8693    0.2108 H   0  0  0  0  0  0  0  0  0  0  0  0
    8.1827    0.0031    1.3725 H   0  0  0  0  0  0  0  0  0  0  0  0
    8.7165   -1.5207    2.0853 H   0  0  0  0  0  0  0  0  0  0  0  0
   10.3427   -0.0245    0.1734 H   0  0  0  0  0  0  0  0  0  0  0  0
   10.4975   -1.7868    0.3884 H   0  0  0  0  0  0  0  0  0  0  0  0
    9.2024   -1.9507   -1.7124 H   0  0  0  0  0  0  0  0  0  0  0  0
    8.5220   -0.3277   -1.5057 H   0  0  0  0  0  0  0  0  0  0  0  0
    6.2817    0.9025    1.0313 H   0  0  0  0  0  0  0  0  0  0  0  0
    7.1758    0.9956   -0.5022 H   0  0  0  0  0  0  0  0  0  0  0  0
    5.5161    2.3237   -1.4952 H   0  0  0  0  0  0  0  0  0  0  0  0
    5.0012    2.6497    0.1899 H   0  0  0  0  0  0  0  0  0  0  0  0
    2.4786    2.5084   -1.2257 H   0  0  0  0  0  0  0  0  0  0  0  0
   -1.6792   -0.0709   -0.8926 H   0  0  0  0  0  0  0  0  0  0  0  0
    0.0312    1.2869    1.1133 H   0  0  0  0  0  0  0  0  0  0  0  0
   -1.2632    2.2359    0.3526 H   0  0  0  0  0  0  0  0  0  0  0  0
   -2.1660    1.2292    2.4025 H   0  0  0  0  0  0  0  0  0  0  0  0
   -1.5242   -0.3480    1.9373 H   0  0  0  0  0  0  0  0  0  0  0  0
   -4.1835    2.0566    1.3159 H   0  0  0  0  0  0  0  0  0  0  0  0
   -3.4321    1.9920   -0.2824 H   0  0  0  0  0  0  0  0  0  0  0  0
   -5.1793    0.5295   -1.1452 H   0  0  0  0  0  0  0  0  0  0  0  0
   -5.8870    2.0038   -0.4236 H   0  0  0  0  0  0  0  0  0  0  0  0
   -8.0477   -0.6809    2.3396 H   0  0  0  0  0  0  0  0  0  0  0  0
  -10.4015   -1.1435    1.8393 H   0  0  0  0  0  0  0  0  0  0  0  0
  -11.3171   -0.7019   -0.4270 H   0  0  0  0  0  0  0  0  0  0  0  0
   -9.8118    0.2052   -2.1961 H   0  0  0  0  0  0  0  0  0  0  0  0
   -5.2960   -1.6443    0.2597 H   0  0  0  0  0  0  0  0  0  0  0  0
   -6.0127   -1.5570    1.8778 H   0  0  0  0  0  0  0  0  0  0  0  0
   -3.5611   -1.5456    1.9987 H   0  0  0  0  0  0  0  0  0  0  0  0
   -4.2637   -0.0788    2.6940 H   0  0  0  0  0  0  0  0  0  0  0  0
    1.2887   -1.6390   -1.5734 H   0  0  0  0  0  0  0  0  0  0  0  0
    3.5572   -2.3677   -0.9588 H   0  0  0  0  0  0  0  0  0  0  0  0
  1  2  2  0
  2  3  1  0
  3  4  1  0
  4  5  1  0
  5  6  1  0
  2  7  1  0
  7  8  1  0
  8  9  1  0
  9 10  1  0
 10 11  2  0
 11 12  1  0
 12 13  1  0
 13 14  2  0
 13 15  2  0
 13 16  1  0
 16 17  1  0
 17 18  1  0
 18 19  1  0
 19 20  1  0
 20 21  1  0
 21 22  1  0
 22 23  1  0
 23 24  2  0
 24 25  1  0
 25 26  2  0
 26 27  1  0
 27 28  2  0
 28 29  1  0
 22 30  1  0
 30 31  1  0
 12 32  2  0
 32 33  1  0
 33 34  2  0
  6  3  1  0
 34  7  1  0
 34 10  1  0
 31 19  1  0
 28 23  1  0
  3 35  1  0
  4 36  1  0
  4 37  1  0
  5 38  1  0
  5 39  1  0
  6 40  1  0
  6 41  1  0
  8 42  1  0
  8 43  1  0
  9 44  1  0
  9 45  1  0
 11 46  1  0
 16 47  1  0
 17 48  1  0
 17 49  1  0
 18 50  1  0
 18 51  1  0
 20 52  1  0
 20 53  1  0
 21 54  1  0
 21 55  1  0
 24 56  1  0
 25 57  1  0
 26 58  1  0
 27 59  1  0
 30 60  1  0
 30 61  1  0
 31 62  1  0
 31 63  1  0
 32 64  1  0
 33 65  1  0
M  END
$$$$
