
     RDKit          3D

 36 37  0  0  0  0  0  0  0  0999 V2000
   -0.2183    0.6545    0.9071 O   0  0  0  0  0  0  0  0  0  0  0  0
    0.2739    0.1778   -0.1139 C   0  0  0  0  0  0  0  0  0  0  0  0
   -0.4716   -0.7915   -1.0374 C   0  0  0  0  0  0  0  0  0  0  0  0
   -1.8713   -0.8369   -0.7688 O   0  0  0  0  0  0  0  0  0  0  0  0
   -2.5437    0.2538   -1.2033 C   0  0  0  0  0  0  0  0  0  0  0  0
   -2.1003    1.1932   -1.8407 O   0  0  0  0  0  0  0  0  0  0  0  0
   -3.9184    0.1984   -0.6902 C   0  0  0  0  0  0  0  0  0  0  0  0
   -4.3190    1.2333    0.1660 C   0  0  0  0  0  0  0  0  0  0  0  0
   -5.6113    1.2325    0.6830 C   0  0  0  0  0  0  0  0  0  0  0  0
   -6.1104    2.4920    1.7419 Cl  0  0  0  0  0  0  0  0  0  0  0  0
   -6.5061    0.2165    0.3479 C   0  0  0  0  0  0  0  0  0  0  0  0
   -6.1078   -0.8063   -0.5183 C   0  0  0  0  0  0  0  0  0  0  0  0
   -4.8122   -0.8173   -1.0447 C   0  0  0  0  0  0  0  0  0  0  0  0
   -4.4029   -2.0777   -2.1508 Cl  0  0  0  0  0  0  0  0  0  0  0  0
    1.5671    0.4545   -0.5206 N   0  0  0  0  0  0  0  0  0  0  0  0
    2.4621    1.1993    0.3471 C   0  0  0  0  0  0  0  0  0  0  0  0
    3.0587    0.3283    1.4666 C   0  0  0  0  0  0  0  0  0  0  0  0
    4.1806   -0.4868    1.0118 N   0  0  0  0  0  0  0  0  0  0  0  0
    5.5085   -0.1918    1.2221 C   0  0  0  0  0  0  0  0  0  0  0  0
    5.8919    0.8491    2.0117 O   0  0  0  0  0  0  0  0  0  0  0  0
    6.3700   -0.9997    0.5986 C   0  0  0  0  0  0  0  0  0  0  0  0
    5.5479   -2.2276   -0.3066 S   0  0  0  0  0  0  0  0  0  0  0  0
    3.9711   -1.5665    0.1570 C   0  0  0  0  0  0  0  0  0  0  0  0
    2.9113   -1.9943   -0.2731 O   0  0  0  0  0  0  0  0  0  0  0  0
   -0.0726   -1.7950   -0.8558 H   0  0  0  0  0  0  0  0  0  0  0  0
   -0.2846   -0.5431   -2.0889 H   0  0  0  0  0  0  0  0  0  0  0  0
   -3.6191    2.0246    0.4276 H   0  0  0  0  0  0  0  0  0  0  0  0
   -7.5160    0.2177    0.7517 H   0  0  0  0  0  0  0  0  0  0  0  0
   -6.8166   -1.5877   -0.7837 H   0  0  0  0  0  0  0  0  0  0  0  0
    1.9889   -0.2189   -1.1544 H   0  0  0  0  0  0  0  0  0  0  0  0
    3.2488    1.6287   -0.2817 H   0  0  0  0  0  0  0  0  0  0  0  0
    1.8940    2.0225    0.7945 H   0  0  0  0  0  0  0  0  0  0  0  0
    3.3781    0.9735    2.2897 H   0  0  0  0  0  0  0  0  0  0  0  0
    2.2982   -0.3517    1.8690 H   0  0  0  0  0  0  0  0  0  0  0  0
    5.3040    0.8613    2.7840 H   0  0  0  0  0  0  0  0  0  0  0  0
    7.4468   -0.9188    0.6463 H   0  0  0  0  0  0  0  0  0  0  0  0
  1  2  2  0
  2  3  1  0
  3  4  1  0
  4  5  1  0
  5  6  2  0
  5  7  1  0
  7  8  2  0
  8  9  1  0
  9 10  1  0
  9 11  2  0
 11 12  1  0
 12 13  2  0
 13 14  1  0
  2 15  1  0
 15 16  1  0
 16 17  1  0
 17 18  1  0
 18 19  1  0
 19 20  1  0
 19 21  2  0
 21 22  1  0
 22 23  1  0
 23 24  2  0
 13  7  1  0
 23 18  1  0
  3 25  1  0
  3 26  1  0
  8 27  1  0
 11 28  1  0
 12 29  1  0
 15 30  1  0
 16 31  1  0
 16 32  1  0
 17 33  1  0
 17 34  1  0
 20 35  1  0
 21 36  1  0
M  END
$$$$
