
     RDKit          3D

 48 52  0  0  0  0  0  0  0  0999 V2000
   -2.6082   -2.4265    2.1752 C   0  0  0  0  0  0  0  0  0  0  0  0
   -2.2280   -1.5817    1.0656 N   0  0  0  0  0  0  0  0  0  0  0  0
   -1.0176   -0.9576    0.9434 C   0  0  0  0  0  0  0  0  0  0  0  0
   -0.9997   -0.2479   -0.2478 C   0  0  0  0  0  0  0  0  0  0  0  0
    0.1287    0.5739   -0.8328 C   0  0  0  0  0  0  0  0  0  0  0  0
   -0.2484    2.0419   -0.6588 C   0  0  0  0  0  0  0  0  0  0  0  0
   -0.6391    2.5816    0.5735 C   0  0  0  0  0  0  0  0  0  0  0  0
   -0.9788    3.9297    0.6568 C   0  0  0  0  0  0  0  0  0  0  0  0
   -0.9236    4.7168   -0.4845 C   0  0  0  0  0  0  0  0  0  0  0  0
   -0.5291    4.1206   -1.6683 C   0  0  0  0  0  0  0  0  0  0  0  0
   -0.1941    2.8168   -1.7811 N   0  0  0  0  0  0  0  0  0  0  0  0
    1.5018    0.3159   -0.2420 C   0  0  0  0  0  0  0  0  0  0  0  0
    2.3421    1.1586    0.4708 C   0  0  0  0  0  0  0  0  0  0  0  0
    3.4936    0.4860    0.7777 N   0  0  0  0  0  0  0  0  0  0  0  0
    4.6046    1.0512    1.5100 C   0  0  0  0  0  0  0  0  0  0  0  0
    3.4494   -0.7944    0.2766 C   0  0  0  0  0  0  0  0  0  0  0  0
    4.3853   -1.8400    0.3341 C   0  0  0  0  0  0  0  0  0  0  0  0
    4.0609   -3.0490   -0.2872 C   0  0  0  0  0  0  0  0  0  0  0  0
    2.8459   -3.2104   -0.9443 C   0  0  0  0  0  0  0  0  0  0  0  0
    1.9216   -2.1619   -0.9954 C   0  0  0  0  0  0  0  0  0  0  0  0
    2.2205   -0.9286   -0.3745 C   0  0  0  0  0  0  0  0  0  0  0  0
   -2.2826   -0.4640   -0.8605 C   0  0  0  0  0  0  0  0  0  0  0  0
   -2.8739   -0.0161   -2.0615 C   0  0  0  0  0  0  0  0  0  0  0  0
   -4.1753   -0.4135   -2.3850 C   0  0  0  0  0  0  0  0  0  0  0  0
   -4.8922   -1.2468   -1.5326 C   0  0  0  0  0  0  0  0  0  0  0  0
   -4.3324   -1.7037   -0.3362 C   0  0  0  0  0  0  0  0  0  0  0  0
   -3.0256   -1.2977   -0.0203 C   0  0  0  0  0  0  0  0  0  0  0  0
   -2.8301   -3.4250    1.7898 H   0  0  0  0  0  0  0  0  0  0  0  0
   -1.7859   -2.4823    2.8931 H   0  0  0  0  0  0  0  0  0  0  0  0
   -3.4885   -1.9916    2.6553 H   0  0  0  0  0  0  0  0  0  0  0  0
   -0.2503   -1.0725    1.6993 H   0  0  0  0  0  0  0  0  0  0  0  0
    0.1898    0.3576   -1.9089 H   0  0  0  0  0  0  0  0  0  0  0  0
   -0.6796    1.9592    1.4621 H   0  0  0  0  0  0  0  0  0  0  0  0
   -1.2869    4.3572    1.6063 H   0  0  0  0  0  0  0  0  0  0  0  0
   -1.1838    5.7683   -0.4538 H   0  0  0  0  0  0  0  0  0  0  0  0
   -0.4702    4.6926   -2.5896 H   0  0  0  0  0  0  0  0  0  0  0  0
    2.2158    2.1911    0.7702 H   0  0  0  0  0  0  0  0  0  0  0  0
    4.7646    0.4537    2.4111 H   0  0  0  0  0  0  0  0  0  0  0  0
    5.4890    1.0297    0.8681 H   0  0  0  0  0  0  0  0  0  0  0  0
    4.3750    2.0831    1.7879 H   0  0  0  0  0  0  0  0  0  0  0  0
    5.3372   -1.7211    0.8410 H   0  0  0  0  0  0  0  0  0  0  0  0
    4.7697   -3.8730   -0.2579 H   0  0  0  0  0  0  0  0  0  0  0  0
    2.6092   -4.1568   -1.4234 H   0  0  0  0  0  0  0  0  0  0  0  0
    0.9743   -2.3024   -1.5091 H   0  0  0  0  0  0  0  0  0  0  0  0
   -2.3259    0.6418   -2.7314 H   0  0  0  0  0  0  0  0  0  0  0  0
   -4.6272   -0.0642   -3.3098 H   0  0  0  0  0  0  0  0  0  0  0  0
   -5.9030   -1.5463   -1.7991 H   0  0  0  0  0  0  0  0  0  0  0  0
   -4.8993   -2.3526    0.3231 H   0  0  0  0  0  0  0  0  0  0  0  0
  1  2  1  0
  2  3  1  0
  3  4  2  0
  4  5  1  0
  5  6  1  0
  6  7  2  0
  7  8  1  0
  8  9  2  0
  9 10  1  0
 10 11  2  0
  5 12  1  0
 12 13  2  0
 13 14  1  0
 14 15  1  0
 14 16  1  0
 16 17  2  0
 17 18  1  0
 18 19  2  0
 19 20  1  0
 20 21  2  0
  4 22  1  0
 22 23  2  0
 23 24  1  0
 24 25  2  0
 25 26  1  0
 26 27  2  0
 27  2  1  0
 11  6  1  0
 21 12  1  0
 27 22  1  0
 21 16  1  0
  1 28  1  0
  1 29  1  0
  1 30  1  0
  3 31  1  0
  5 32  1  0
  7 33  1  0
  8 34  1  0
  9 35  1  0
 10 36  1  0
 13 37  1  0
 15 38  1  0
 15 39  1  0
 15 40  1  0
 17 41  1  0
 18 42  1  0
 19 43  1  0
 20 44  1  0
 23 45  1  0
 24 46  1  0
 25 47  1  0
 26 48  1  0
M  END
$$$$
