
     RDKit          3D

 55 58  0  0  0  0  0  0  0  0999 V2000
    6.8969   -1.6619    1.8451 C   0  0  0  0  0  0  0  0  0  0  0  0
    6.6072   -0.2056    1.5098 C   0  0  0  0  0  0  0  0  0  0  0  0
    6.0468   -0.0766    0.1585 N   0  0  0  0  0  0  0  0  0  0  0  0
    7.0200    0.1497   -0.9179 C   0  0  0  0  0  0  0  0  0  0  0  0
    7.2276    1.6374   -1.1643 C   0  0  0  0  0  0  0  0  0  0  0  0
    4.6799   -0.1612   -0.0865 C   0  0  0  0  0  0  0  0  0  0  0  0
    4.1245    0.0916   -1.3524 C   0  0  0  0  0  0  0  0  0  0  0  0
    2.7451    0.0082   -1.6054 C   0  0  0  0  0  0  0  0  0  0  0  0
    1.8525   -0.3239   -0.5893 C   0  0  0  0  0  0  0  0  0  0  0  0
    0.4211   -0.4285   -0.8974 C   0  0  0  0  0  0  0  0  0  0  0  0
   -0.5576   -0.0411   -0.0622 C   0  0  0  0  0  0  0  0  0  0  0  0
   -1.9910   -0.1344   -0.3803 C   0  0  0  0  0  0  0  0  0  0  0  0
   -2.9334    0.3077    0.5336 C   0  0  0  0  0  0  0  0  0  0  0  0
   -4.2943    0.2127    0.2167 C   0  0  0  0  0  0  0  0  0  0  0  0
   -5.2776    0.6878    1.2006 C   0  0  0  0  0  0  0  0  0  0  0  0
   -5.7017    2.0254    1.2000 C   0  0  0  0  0  0  0  0  0  0  0  0
   -6.6343    2.4771    2.1361 C   0  0  0  0  0  0  0  0  0  0  0  0
   -7.1523    1.5973    3.0847 C   0  0  0  0  0  0  0  0  0  0  0  0
   -6.7388    0.2666    3.0994 C   0  0  0  0  0  0  0  0  0  0  0  0
   -5.8062   -0.1855    2.1635 C   0  0  0  0  0  0  0  0  0  0  0  0
   -4.6696   -0.3360   -1.0355 C   0  0  0  0  0  0  0  0  0  0  0  0
   -6.0120   -0.4814   -1.4655 C   0  0  0  0  0  0  0  0  0  0  0  0
   -6.3176   -1.0303   -2.7097 C   0  0  0  0  0  0  0  0  0  0  0  0
   -5.2897   -1.4423   -3.5445 C   0  0  0  0  0  0  0  0  0  0  0  0
   -3.9639   -1.3018   -3.1288 C   0  0  0  0  0  0  0  0  0  0  0  0
   -3.6326   -0.7581   -1.8948 C   0  0  0  0  0  0  0  0  0  0  0  0
   -2.3326   -0.6596   -1.5764 N   0  0  0  0  0  0  0  0  0  0  0  0
    2.3739   -0.5971    0.6731 C   0  0  0  0  0  0  0  0  0  0  0  0
    3.7558   -0.5105    0.9132 C   0  0  0  0  0  0  0  0  0  0  0  0
    7.6053   -2.0961    1.1318 H   0  0  0  0  0  0  0  0  0  0  0  0
    5.9892   -2.2723    1.8231 H   0  0  0  0  0  0  0  0  0  0  0  0
    7.3334   -1.7395    2.8458 H   0  0  0  0  0  0  0  0  0  0  0  0
    7.5476    0.3569    1.5739 H   0  0  0  0  0  0  0  0  0  0  0  0
    5.9584    0.2501    2.2661 H   0  0  0  0  0  0  0  0  0  0  0  0
    6.7343   -0.3652   -1.8420 H   0  0  0  0  0  0  0  0  0  0  0  0
    7.9858   -0.2920   -0.6404 H   0  0  0  0  0  0  0  0  0  0  0  0
    7.5862    2.1395   -0.2596 H   0  0  0  0  0  0  0  0  0  0  0  0
    7.9709    1.7892   -1.9532 H   0  0  0  0  0  0  0  0  0  0  0  0
    6.3010    2.1313   -1.4719 H   0  0  0  0  0  0  0  0  0  0  0  0
    4.7505    0.3750   -2.1921 H   0  0  0  0  0  0  0  0  0  0  0  0
    2.3828    0.2186   -2.6090 H   0  0  0  0  0  0  0  0  0  0  0  0
    0.1773   -0.8275   -1.8804 H   0  0  0  0  0  0  0  0  0  0  0  0
   -0.3141    0.3844    0.9063 H   0  0  0  0  0  0  0  0  0  0  0  0
   -2.6254    0.7253    1.4878 H   0  0  0  0  0  0  0  0  0  0  0  0
   -5.3063    2.7226    0.4638 H   0  0  0  0  0  0  0  0  0  0  0  0
   -6.9559    3.5154    2.1240 H   0  0  0  0  0  0  0  0  0  0  0  0
   -7.8783    1.9492    3.8133 H   0  0  0  0  0  0  0  0  0  0  0  0
   -7.1419   -0.4205    3.8391 H   0  0  0  0  0  0  0  0  0  0  0  0
   -5.4931   -1.2276    2.1853 H   0  0  0  0  0  0  0  0  0  0  0  0
   -6.8339   -0.1643   -0.8266 H   0  0  0  0  0  0  0  0  0  0  0  0
   -7.3536   -1.1338   -3.0216 H   0  0  0  0  0  0  0  0  0  0  0  0
   -5.5107   -1.8728   -4.5174 H   0  0  0  0  0  0  0  0  0  0  0  0
   -3.1624   -1.6270   -3.7885 H   0  0  0  0  0  0  0  0  0  0  0  0
    1.7226   -0.8973    1.4896 H   0  0  0  0  0  0  0  0  0  0  0  0
    4.0845   -0.7471    1.9202 H   0  0  0  0  0  0  0  0  0  0  0  0
  1  2  1  0
  2  3  1  0
  3  4  1  0
  4  5  1  0
  3  6  1  0
  6  7  2  0
  7  8  1  0
  8  9  2  0
  9 10  1  0
 10 11  2  3
 11 12  1  0
 12 13  2  0
 13 14  1  0
 14 15  1  0
 15 16  2  0
 16 17  1  0
 17 18  2  0
 18 19  1  0
 19 20  2  0
 14 21  2  0
 21 22  1  0
 22 23  2  0
 23 24  1  0
 24 25  2  0
 25 26  1  0
 26 27  2  0
  9 28  1  0
 28 29  2  0
 29  6  1  0
 27 12  1  0
 20 15  1  0
 26 21  1  0
  1 30  1  0
  1 31  1  0
  1 32  1  0
  2 33  1  0
  2 34  1  0
  4 35  1  0
  4 36  1  0
  5 37  1  0
  5 38  1  0
  5 39  1  0
  7 40  1  0
  8 41  1  0
 10 42  1  0
 11 43  1  0
 13 44  1  0
 16 45  1  0
 17 46  1  0
 18 47  1  0
 19 48  1  0
 20 49  1  0
 22 50  1  0
 23 51  1  0
 24 52  1  0
 25 53  1  0
 28 54  1  0
 29 55  1  0
M  END
$$$$
