
     RDKit          3D

 33 33  0  0  0  0  0  0  0  0999 V2000
   -3.9900    3.3096   -0.9279 C   0  0  0  0  0  0  0  0  0  0  0  0
   -3.7658    2.4055    0.2586 C   0  0  0  0  0  0  0  0  0  0  0  0
   -4.6267    2.2846    1.1234 O   0  0  0  0  0  0  0  0  0  0  0  0
   -2.5452    1.7672    0.2083 N   0  0  0  0  0  0  0  0  0  0  0  0
   -2.0087    0.8269    1.1166 C   0  0  0  0  0  0  0  0  0  0  0  0
   -2.6873    0.3760    2.2504 C   0  0  0  0  0  0  0  0  0  0  0  0
   -2.0993   -0.5695    3.0925 C   0  0  0  0  0  0  0  0  0  0  0  0
   -0.8338   -1.0724    2.8037 C   0  0  0  0  0  0  0  0  0  0  0  0
   -0.1420   -0.6263    1.6757 C   0  0  0  0  0  0  0  0  0  0  0  0
   -0.7159    0.3312    0.8339 C   0  0  0  0  0  0  0  0  0  0  0  0
   -0.1221    0.8503   -0.2939 O   0  0  0  0  0  0  0  0  0  0  0  0
    1.2546    0.5845   -0.5070 C   0  0  0  0  0  0  0  0  0  0  0  0
    1.5668   -0.7480   -1.2004 C   0  0  0  0  0  0  0  0  0  0  0  0
    0.7194   -1.4591   -1.7300 O   0  0  0  0  0  0  0  0  0  0  0  0
    2.9078   -1.0823   -1.1914 N   0  0  0  0  0  0  0  0  0  0  0  0
    3.3499   -2.3738   -1.7290 C   0  0  0  0  0  0  0  0  0  0  0  0
    4.8565   -2.4936   -1.9390 C   0  0  0  0  0  0  0  0  0  0  0  0
    5.2982   -1.6164   -2.8664 F   0  0  0  0  0  0  0  0  0  0  0  0
    5.2015   -3.7349   -2.3400 F   0  0  0  0  0  0  0  0  0  0  0  0
    5.5162   -2.2328   -0.7850 F   0  0  0  0  0  0  0  0  0  0  0  0
   -4.4628    2.7391   -1.7314 H   0  0  0  0  0  0  0  0  0  0  0  0
   -3.0481    3.7348   -1.2864 H   0  0  0  0  0  0  0  0  0  0  0  0
   -4.6428    4.1366   -0.6338 H   0  0  0  0  0  0  0  0  0  0  0  0
   -1.9378    1.9539   -0.5833 H   0  0  0  0  0  0  0  0  0  0  0  0
   -3.6799    0.7359    2.5016 H   0  0  0  0  0  0  0  0  0  0  0  0
   -2.6393   -0.9186    3.9693 H   0  0  0  0  0  0  0  0  0  0  0  0
   -0.3883   -1.8199    3.4556 H   0  0  0  0  0  0  0  0  0  0  0  0
    0.8309   -1.0612    1.4807 H   0  0  0  0  0  0  0  0  0  0  0  0
    1.6179    1.3683   -1.1828 H   0  0  0  0  0  0  0  0  0  0  0  0
    1.8341    0.6884    0.4185 H   0  0  0  0  0  0  0  0  0  0  0  0
    3.5347   -0.5902   -0.5632 H   0  0  0  0  0  0  0  0  0  0  0  0
    3.0166   -3.1407   -1.0211 H   0  0  0  0  0  0  0  0  0  0  0  0
    2.8306   -2.5527   -2.6768 H   0  0  0  0  0  0  0  0  0  0  0  0
  1  2  1  0
  2  3  2  0
  2  4  1  0
  4  5  1  0
  5  6  2  0
  6  7  1  0
  7  8  2  0
  8  9  1  0
  9 10  2  0
 10 11  1  0
 11 12  1  0
 12 13  1  0
 13 14  2  0
 13 15  1  0
 15 16  1  0
 16 17  1  0
 17 18  1  0
 17 19  1  0
 17 20  1  0
 10  5  1  0
  1 21  1  0
  1 22  1  0
  1 23  1  0
  4 24  1  0
  6 25  1  0
  7 26  1  0
  8 27  1  0
  9 28  1  0
 12 29  1  0
 12 30  1  0
 15 31  1  0
 16 32  1  0
 16 33  1  0
M  END
$$$$
