
     RDKit          3D

 35 36  0  0  0  0  0  0  0  0999 V2000
    5.1504   -0.0466    1.7999 C   0  0  0  0  0  0  0  0  0  0  0  0
    4.1640   -0.0321    0.6717 C   0  0  0  0  0  0  0  0  0  0  0  0
    4.5530    0.3838   -0.5950 C   0  0  0  0  0  0  0  0  0  0  0  0
    3.6111    0.3673   -1.6151 C   0  0  0  0  0  0  0  0  0  0  0  0
    2.3165   -0.0633   -1.3379 C   0  0  0  0  0  0  0  0  0  0  0  0
    2.0014   -0.4691   -0.0449 C   0  0  0  0  0  0  0  0  0  0  0  0
    0.6945   -0.9047    0.1883 N   0  0  0  0  0  0  0  0  0  0  0  0
    0.1731   -1.3103    1.4015 C   0  0  0  0  0  0  0  0  0  0  0  0
    0.7414   -1.3548    2.4877 O   0  0  0  0  0  0  0  0  0  0  0  0
   -1.2830   -1.7743    1.2771 C   0  0  0  0  0  0  0  0  0  0  0  0
   -1.9434   -1.3462    0.0911 O   0  0  0  0  0  0  0  0  0  0  0  0
   -2.5440   -0.1120    0.0979 C   0  0  0  0  0  0  0  0  0  0  0  0
   -2.3389    0.8721    1.0713 C   0  0  0  0  0  0  0  0  0  0  0  0
   -2.9801    2.1098    0.9719 C   0  0  0  0  0  0  0  0  0  0  0  0
   -3.8241    2.3756   -0.1011 C   0  0  0  0  0  0  0  0  0  0  0  0
   -4.0255    1.4064   -1.0820 C   0  0  0  0  0  0  0  0  0  0  0  0
   -3.3937    0.1566   -0.9909 C   0  0  0  0  0  0  0  0  0  0  0  0
   -3.6175   -0.8672   -2.0691 C   0  0  0  0  0  0  0  0  0  0  0  0
    2.9090   -0.4592    0.9446 N   0  0  0  0  0  0  0  0  0  0  0  0
    5.6664    0.9185    1.8695 H   0  0  0  0  0  0  0  0  0  0  0  0
    5.8909   -0.8390    1.6427 H   0  0  0  0  0  0  0  0  0  0  0  0
    4.6436   -0.2272    2.7546 H   0  0  0  0  0  0  0  0  0  0  0  0
    5.5694    0.7122   -0.7864 H   0  0  0  0  0  0  0  0  0  0  0  0
    3.8828    0.6831   -2.6175 H   0  0  0  0  0  0  0  0  0  0  0  0
    1.5759   -0.0776   -2.1294 H   0  0  0  0  0  0  0  0  0  0  0  0
    0.0493   -0.8921   -0.5921 H   0  0  0  0  0  0  0  0  0  0  0  0
   -1.8471   -1.5051    2.1778 H   0  0  0  0  0  0  0  0  0  0  0  0
   -1.2538   -2.8692    1.2450 H   0  0  0  0  0  0  0  0  0  0  0  0
   -1.6791    0.7211    1.9201 H   0  0  0  0  0  0  0  0  0  0  0  0
   -2.8182    2.8663    1.7370 H   0  0  0  0  0  0  0  0  0  0  0  0
   -4.3287    3.3360   -0.1705 H   0  0  0  0  0  0  0  0  0  0  0  0
   -4.6849    1.6304   -1.9175 H   0  0  0  0  0  0  0  0  0  0  0  0
   -4.4262   -0.5665   -2.7444 H   0  0  0  0  0  0  0  0  0  0  0  0
   -3.8992   -1.8321   -1.6333 H   0  0  0  0  0  0  0  0  0  0  0  0
   -2.7054   -0.9907   -2.6649 H   0  0  0  0  0  0  0  0  0  0  0  0
  1  2  1  0
  2  3  2  0
  3  4  1  0
  4  5  2  0
  5  6  1  0
  6  7  1  0
  7  8  1  0
  8  9  2  0
  8 10  1  0
 10 11  1  0
 11 12  1  0
 12 13  2  0
 13 14  1  0
 14 15  2  0
 15 16  1  0
 16 17  2  0
 17 18  1  0
  6 19  2  0
 19  2  1  0
 17 12  1  0
  1 20  1  0
  1 21  1  0
  1 22  1  0
  3 23  1  0
  4 24  1  0
  5 25  1  0
  7 26  1  0
 10 27  1  0
 10 28  1  0
 13 29  1  0
 14 30  1  0
 15 31  1  0
 16 32  1  0
 18 33  1  0
 18 34  1  0
 18 35  1  0
M  END
$$$$
