
     RDKit          3D

 55 59  0  0  0  0  0  0  0  0999 V2000
    6.9396   -0.2238    3.2003 C   0  0  0  0  0  0  0  0  0  0  0  0
    6.8267    1.0678    2.6123 O   0  0  0  0  0  0  0  0  0  0  0  0
    5.5816    1.4439    2.1838 C   0  0  0  0  0  0  0  0  0  0  0  0
    5.4834    2.7724    1.7609 C   0  0  0  0  0  0  0  0  0  0  0  0
    4.2654    3.2916    1.3141 C   0  0  0  0  0  0  0  0  0  0  0  0
    3.1371    2.4757    1.2749 C   0  0  0  0  0  0  0  0  0  0  0  0
    3.2262    1.1357    1.6696 C   0  0  0  0  0  0  0  0  0  0  0  0
    2.0461    0.2845    1.6098 C   0  0  0  0  0  0  0  0  0  0  0  0
    0.9225    0.4746    2.2785 N   0  0  0  0  0  0  0  0  0  0  0  0
    0.0751   -0.5701    2.0019 N   0  0  0  0  0  0  0  0  0  0  0  0
    0.6743   -1.3541    1.1399 C   0  0  0  0  0  0  0  0  0  0  0  0
    0.0460   -2.8174    0.4697 S   0  0  0  0  0  0  0  0  0  0  0  0
   -1.5082   -2.2464   -0.3276 C   0  0  0  0  0  0  0  0  0  0  0  0
   -1.2909   -1.0734   -1.3067 C   0  0  0  0  0  0  0  0  0  0  0  0
   -0.1656   -0.6361   -1.5630 O   0  0  0  0  0  0  0  0  0  0  0  0
   -2.4533   -0.5283   -2.0300 C   0  0  0  0  0  0  0  0  0  0  0  0
   -3.6833   -1.1414   -2.2068 C   0  0  0  0  0  0  0  0  0  0  0  0
   -4.4957   -0.2970   -2.9165 N   0  0  0  0  0  0  0  0  0  0  0  0
   -3.8193    0.8557   -3.2358 C   0  0  0  0  0  0  0  0  0  0  0  0
   -4.2509    1.9840   -3.9457 C   0  0  0  0  0  0  0  0  0  0  0  0
   -3.3383    3.0253   -4.1261 C   0  0  0  0  0  0  0  0  0  0  0  0
   -2.0465    2.9411   -3.6131 C   0  0  0  0  0  0  0  0  0  0  0  0
   -1.6334    1.8083   -2.9009 C   0  0  0  0  0  0  0  0  0  0  0  0
   -2.5330    0.7379   -2.7055 C   0  0  0  0  0  0  0  0  0  0  0  0
   -2.6382   -2.0951    0.6824 C   0  0  0  0  0  0  0  0  0  0  0  0
   -2.9329   -0.8720    1.3041 C   0  0  0  0  0  0  0  0  0  0  0  0
   -3.9857   -0.7709    2.2186 C   0  0  0  0  0  0  0  0  0  0  0  0
   -4.7532   -1.8894    2.5315 C   0  0  0  0  0  0  0  0  0  0  0  0
   -4.4655   -3.1142    1.9354 C   0  0  0  0  0  0  0  0  0  0  0  0
   -3.4150   -3.2184    1.0217 C   0  0  0  0  0  0  0  0  0  0  0  0
    1.9079   -0.8492    0.8376 N   0  0  0  0  0  0  0  0  0  0  0  0
    2.8520   -1.3558   -0.1240 C   0  0  0  0  0  0  0  0  0  0  0  0
    4.4506    0.6267    2.1355 C   0  0  0  0  0  0  0  0  0  0  0  0
    7.9697   -0.3369    3.5581 H   0  0  0  0  0  0  0  0  0  0  0  0
    6.2735   -0.3291    4.0669 H   0  0  0  0  0  0  0  0  0  0  0  0
    6.7542   -1.0097    2.4543 H   0  0  0  0  0  0  0  0  0  0  0  0
    6.3620    3.4128    1.7918 H   0  0  0  0  0  0  0  0  0  0  0  0
    4.1959    4.3314    1.0022 H   0  0  0  0  0  0  0  0  0  0  0  0
    2.1883    2.8851    0.9320 H   0  0  0  0  0  0  0  0  0  0  0  0
   -1.7793   -3.0835   -0.9861 H   0  0  0  0  0  0  0  0  0  0  0  0
   -4.0669   -2.1007   -1.8824 H   0  0  0  0  0  0  0  0  0  0  0  0
   -5.4579   -0.4860   -3.1694 H   0  0  0  0  0  0  0  0  0  0  0  0
   -5.2588    2.0536   -4.3440 H   0  0  0  0  0  0  0  0  0  0  0  0
   -3.6443    3.9150   -4.6728 H   0  0  0  0  0  0  0  0  0  0  0  0
   -1.3505    3.7619   -3.7621 H   0  0  0  0  0  0  0  0  0  0  0  0
   -0.6238    1.7581   -2.5000 H   0  0  0  0  0  0  0  0  0  0  0  0
   -2.3389    0.0188    1.1006 H   0  0  0  0  0  0  0  0  0  0  0  0
   -4.1918    0.1843    2.6959 H   0  0  0  0  0  0  0  0  0  0  0  0
   -5.5638   -1.8079    3.2509 H   0  0  0  0  0  0  0  0  0  0  0  0
   -5.0519   -3.9914    2.1904 H   0  0  0  0  0  0  0  0  0  0  0  0
   -3.2017   -4.1896    0.5791 H   0  0  0  0  0  0  0  0  0  0  0  0
    2.3212   -1.7471   -0.9966 H   0  0  0  0  0  0  0  0  0  0  0  0
    3.5164   -0.5550   -0.4605 H   0  0  0  0  0  0  0  0  0  0  0  0
    3.4324   -2.1499    0.3560 H   0  0  0  0  0  0  0  0  0  0  0  0
    4.4905   -0.4062    2.4677 H   0  0  0  0  0  0  0  0  0  0  0  0
  1  2  1  0
  2  3  1  0
  3  4  2  0
  4  5  1  0
  5  6  2  0
  6  7  1  0
  7  8  1  0
  8  9  2  0
  9 10  1  0
 10 11  2  0
 11 12  1  0
 12 13  1  0
 13 14  1  0
 14 15  2  0
 14 16  1  0
 16 17  2  0
 17 18  1  0
 18 19  1  0
 19 20  2  0
 20 21  1  0
 21 22  2  0
 22 23  1  0
 23 24  2  0
 13 25  1  0
 25 26  2  0
 26 27  1  0
 27 28  2  0
 28 29  1  0
 29 30  2  0
 11 31  1  0
 31 32  1  0
  7 33  2  0
 33  3  1  0
 31  8  1  0
 24 16  1  0
 30 25  1  0
 24 19  1  0
  1 34  1  0
  1 35  1  0
  1 36  1  0
  4 37  1  0
  5 38  1  0
  6 39  1  0
 13 40  1  0
 17 41  1  0
 18 42  1  0
 20 43  1  0
 21 44  1  0
 22 45  1  0
 23 46  1  0
 26 47  1  0
 27 48  1  0
 28 49  1  0
 29 50  1  0
 30 51  1  0
 32 52  1  0
 32 53  1  0
 32 54  1  0
 33 55  1  0
M  END
$$$$
