
     RDKit          3D

 26 27  0  0  0  0  0  0  0  0999 V2000
    0.6924    2.1943    1.1777 O   0  0  0  0  0  0  0  0  0  0  0  0
    1.2382    1.3292    0.4994 C   0  0  0  0  0  0  0  0  0  0  0  0
    2.6278    1.5250   -0.0666 C   0  0  0  0  0  0  0  0  0  0  0  0
    3.5110    0.3274    0.2591 C   0  0  0  0  0  0  0  0  0  0  0  0
    2.8996   -0.9745   -0.2424 C   0  0  0  0  0  0  0  0  0  0  0  0
    1.5110   -1.1613    0.3289 C   0  0  0  0  0  0  0  0  0  0  0  0
    1.1794   -2.2055    0.8813 O   0  0  0  0  0  0  0  0  0  0  0  0
    0.5950    0.0134    0.1962 C   0  0  0  0  0  0  0  0  0  0  0  0
   -0.6667   -0.0895   -0.2769 C   0  0  0  0  0  0  0  0  0  0  0  0
   -1.3545   -1.6267   -0.7779 S   0  0  0  0  0  0  0  0  0  0  0  0
   -3.1285   -1.3674   -0.4632 C   0  0  0  0  0  0  0  0  0  0  0  0
   -3.3841   -0.4938    0.7581 C   0  0  0  0  0  0  0  0  0  0  0  0
   -3.0251    0.9805    0.5661 C   0  0  0  0  0  0  0  0  0  0  0  0
   -1.6639    1.3155   -0.5912 S   0  0  0  0  0  0  0  0  0  0  0  0
    3.0623    2.4315    0.3688 H   0  0  0  0  0  0  0  0  0  0  0  0
    2.5445    1.6783   -1.1482 H   0  0  0  0  0  0  0  0  0  0  0  0
    4.5018    0.4667   -0.1871 H   0  0  0  0  0  0  0  0  0  0  0  0
    3.6492    0.2661    1.3463 H   0  0  0  0  0  0  0  0  0  0  0  0
    3.5259   -1.8183    0.0671 H   0  0  0  0  0  0  0  0  0  0  0  0
    2.8316   -0.9899   -1.3357 H   0  0  0  0  0  0  0  0  0  0  0  0
   -3.5750   -2.3547   -0.3047 H   0  0  0  0  0  0  0  0  0  0  0  0
   -3.5998   -0.9422   -1.3561 H   0  0  0  0  0  0  0  0  0  0  0  0
   -2.8405   -0.8946    1.6242 H   0  0  0  0  0  0  0  0  0  0  0  0
   -4.4460   -0.5545    1.0280 H   0  0  0  0  0  0  0  0  0  0  0  0
   -3.8998    1.5149    0.1795 H   0  0  0  0  0  0  0  0  0  0  0  0
   -2.7856    1.4301    1.5359 H   0  0  0  0  0  0  0  0  0  0  0  0
  1  2  2  0
  2  3  1  0
  3  4  1  0
  4  5  1  0
  5  6  1  0
  6  7  2  0
  6  8  1  0
  8  9  2  3
  9 10  1  0
 10 11  1  0
 11 12  1  0
 12 13  1  0
 13 14  1  0
  8  2  1  0
 14  9  1  0
  3 15  1  0
  3 16  1  0
  4 17  1  0
  4 18  1  0
  5 19  1  0
  5 20  1  0
 11 21  1  0
 11 22  1  0
 12 23  1  0
 12 24  1  0
 13 25  1  0
 13 26  1  0
M  END
$$$$
