
     RDKit          3D

 37 39  0  0  0  0  0  0  0  0999 V2000
   -4.0419   -0.6301   -1.7886 O   0  0  0  0  0  0  0  0  0  0  0  0
   -4.3351   -0.3478   -0.6307 C   0  0  0  0  0  0  0  0  0  0  0  0
   -3.4023   -0.1089    0.3709 N   0  0  0  0  0  0  0  0  0  0  0  0
   -1.9968   -0.0723    0.2564 C   0  0  0  0  0  0  0  0  0  0  0  0
   -1.3000   -0.1855   -0.9452 C   0  0  0  0  0  0  0  0  0  0  0  0
    0.1025   -0.1302   -0.9703 C   0  0  0  0  0  0  0  0  0  0  0  0
    0.8307    0.0402    0.2052 C   0  0  0  0  0  0  0  0  0  0  0  0
    2.2383    0.1027    0.2672 N   0  0  0  0  0  0  0  0  0  0  0  0
    3.1319    0.0600   -0.7844 C   0  0  0  0  0  0  0  0  0  0  0  0
    2.8503   -0.0560   -1.9722 O   0  0  0  0  0  0  0  0  0  0  0  0
    4.5818    0.1053   -0.4232 C   0  0  0  0  0  0  0  0  0  0  0  0
    5.4462   -0.6414   -1.2467 C   0  0  0  0  0  0  0  0  0  0  0  0
    6.8210   -0.6747   -1.0021 C   0  0  0  0  0  0  0  0  0  0  0  0
    7.3459    0.0453    0.0654 C   0  0  0  0  0  0  0  0  0  0  0  0
    9.0373    0.0077    0.3728 Cl  0  0  0  0  0  0  0  0  0  0  0  0
    6.5103    0.8011    0.8846 C   0  0  0  0  0  0  0  0  0  0  0  0
    5.1303    0.8372    0.6415 C   0  0  0  0  0  0  0  0  0  0  0  0
    4.1940    1.8416    1.6930 Cl  0  0  0  0  0  0  0  0  0  0  0  0
    0.1329    0.1561    1.4114 C   0  0  0  0  0  0  0  0  0  0  0  0
   -1.2660    0.1030    1.4364 C   0  0  0  0  0  0  0  0  0  0  0  0
   -5.7233   -0.2545   -0.1708 C   0  0  0  0  0  0  0  0  0  0  0  0
   -6.2643    0.3941    0.9282 C   0  0  0  0  0  0  0  0  0  0  0  0
   -7.6792    0.2343    1.0209 C   0  0  0  0  0  0  0  0  0  0  0  0
   -8.1804   -0.5224   -0.0124 C   0  0  0  0  0  0  0  0  0  0  0  0
   -6.9549   -1.0272   -1.0891 S   0  0  0  0  0  0  0  0  0  0  0  0
   -3.7648   -0.0063    1.3070 H   0  0  0  0  0  0  0  0  0  0  0  0
   -1.8093   -0.3139   -1.8955 H   0  0  0  0  0  0  0  0  0  0  0  0
    0.5893   -0.2259   -1.9361 H   0  0  0  0  0  0  0  0  0  0  0  0
    2.6276    0.2293    1.1937 H   0  0  0  0  0  0  0  0  0  0  0  0
    5.0451   -1.2057   -2.0890 H   0  0  0  0  0  0  0  0  0  0  0  0
    7.4699   -1.2599   -1.6495 H   0  0  0  0  0  0  0  0  0  0  0  0
    6.9363    1.3700    1.7082 H   0  0  0  0  0  0  0  0  0  0  0  0
    0.6637    0.2929    2.3500 H   0  0  0  0  0  0  0  0  0  0  0  0
   -1.7689    0.1989    2.3951 H   0  0  0  0  0  0  0  0  0  0  0  0
   -5.6891    0.9797    1.6343 H   0  0  0  0  0  0  0  0  0  0  0  0
   -8.2988    0.6609    1.8007 H   0  0  0  0  0  0  0  0  0  0  0  0
   -9.2102   -0.7976   -0.1954 H   0  0  0  0  0  0  0  0  0  0  0  0
  1  2  2  0
  2  3  1  0
  3  4  1  0
  4  5  2  0
  5  6  1  0
  6  7  2  0
  7  8  1  0
  8  9  1  0
  9 10  2  0
  9 11  1  0
 11 12  2  0
 12 13  1  0
 13 14  2  0
 14 15  1  0
 14 16  1  0
 16 17  2  0
 17 18  1  0
  7 19  1  0
 19 20  2  0
  2 21  1  0
 21 22  2  0
 22 23  1  0
 23 24  2  0
 24 25  1  0
 20  4  1  0
 25 21  1  0
 17 11  1  0
  3 26  1  0
  5 27  1  0
  6 28  1  0
  8 29  1  0
 12 30  1  0
 13 31  1  0
 16 32  1  0
 19 33  1  0
 20 34  1  0
 22 35  1  0
 23 36  1  0
 24 37  1  0
M  END
$$$$
