
     RDKit          3D

 70 75  0  0  0  0  0  0  0  0999 V2000
   -5.7008   -3.6616    1.8051 C   0  0  0  0  0  0  0  0  0  0  0  0
   -4.4983   -3.0209    1.1630 C   0  0  0  0  0  0  0  0  0  0  0  0
   -3.7994   -2.0242    1.8870 C   0  0  0  0  0  0  0  0  0  0  0  0
   -2.6831   -1.3798    1.3514 C   0  0  0  0  0  0  0  0  0  0  0  0
   -2.2738   -1.7356    0.0791 C   0  0  0  0  0  0  0  0  0  0  0  0
   -2.9501   -2.7350   -0.6332 C   0  0  0  0  0  0  0  0  0  0  0  0
   -4.0524   -3.4114   -0.1212 C   0  0  0  0  0  0  0  0  0  0  0  0
   -4.7692   -4.4570   -0.9242 C   0  0  0  0  0  0  0  0  0  0  0  0
   -2.3414   -2.9237   -1.8743 N   0  0  0  0  0  0  0  0  0  0  0  0
   -1.2468   -2.0745   -2.0476 C   0  0  0  0  0  0  0  0  0  0  0  0
   -0.5258   -2.0566   -3.0352 O   0  0  0  0  0  0  0  0  0  0  0  0
   -1.1360   -1.2302   -0.7544 C   0  0  1  0  0  0  0  0  0  0  0  0
   -1.2808    0.2297   -0.9874 C   0  0  0  0  0  0  0  0  0  0  0  0
   -0.0293    0.8641   -0.9019 C   0  0  0  0  0  0  0  0  0  0  0  0
   -0.1923    2.2007   -1.1512 C   0  0  0  0  0  0  0  0  0  0  0  0
    0.7032    3.1841   -1.1778 O   0  0  0  0  0  0  0  0  0  0  0  0
   -1.5749    2.4194   -1.3322 N   0  0  0  0  0  0  0  0  0  0  0  0
   -2.2260    3.6875   -1.4704 C   0  0  0  0  0  0  0  0  0  0  0  0
   -3.5290    3.8642   -0.9774 C   0  0  0  0  0  0  0  0  0  0  0  0
   -4.1740    5.0963   -1.1105 C   0  0  0  0  0  0  0  0  0  0  0  0
   -3.5243    6.1613   -1.7296 C   0  0  0  0  0  0  0  0  0  0  0  0
   -2.2261    5.9989   -2.2085 C   0  0  0  0  0  0  0  0  0  0  0  0
   -1.5749    4.7691   -2.0758 C   0  0  0  0  0  0  0  0  0  0  0  0
   -2.2168    1.1620   -1.3415 C   0  0  0  0  0  0  0  0  0  0  0  0
   -3.4858    0.9589   -1.6937 O   0  0  0  0  0  0  0  0  0  0  0  0
    1.0208   -0.1453   -0.6452 C   0  0  1  0  0  0  0  0  0  0  0  0
    2.1320    0.1695    0.3505 C   0  0  0  0  0  0  0  0  0  0  0  0
    2.9330   -1.0391    0.6329 N   0  0  0  0  0  0  0  0  0  0  0  0
    4.2235   -0.9552    1.1285 C   0  0  0  0  0  0  0  0  0  0  0  0
    4.8344   -1.9110    1.5884 O   0  0  0  0  0  0  0  0  0  0  0  0
    4.7232    0.3043    1.0384 O   0  0  0  0  0  0  0  0  0  0  0  0
    6.0654    0.6116    1.4954 C   0  0  0  0  0  0  0  0  0  0  0  0
    7.1190   -0.1532    0.6867 C   0  0  0  0  0  0  0  0  0  0  0  0
    6.2114    0.3726    3.0022 C   0  0  0  0  0  0  0  0  0  0  0  0
    6.2328    2.1141    1.2201 C   0  0  0  0  0  0  0  0  0  0  0  0
    2.1850   -2.2837    0.8831 C   0  0  0  0  0  0  0  0  0  0  0  0
    0.9623   -2.4912   -0.0467 C   0  0  0  0  0  0  0  0  0  0  0  0
    0.1917   -1.2602   -0.0941 N   0  0  0  0  0  0  0  0  0  0  0  0
   -6.0066   -3.1248    2.7095 H   0  0  0  0  0  0  0  0  0  0  0  0
   -6.5546   -3.6488    1.1200 H   0  0  0  0  0  0  0  0  0  0  0  0
   -5.4716   -4.6939    2.0871 H   0  0  0  0  0  0  0  0  0  0  0  0
   -4.1355   -1.7390    2.8826 H   0  0  0  0  0  0  0  0  0  0  0  0
   -2.1582   -0.6127    1.9120 H   0  0  0  0  0  0  0  0  0  0  0  0
   -4.0990   -4.9499   -1.6352 H   0  0  0  0  0  0  0  0  0  0  0  0
   -5.5949   -4.0009   -1.4788 H   0  0  0  0  0  0  0  0  0  0  0  0
   -5.1656   -5.2509   -0.2839 H   0  0  0  0  0  0  0  0  0  0  0  0
   -2.6357   -3.5756   -2.5838 H   0  0  0  0  0  0  0  0  0  0  0  0
    1.5842    2.7990   -1.0344 H   0  0  0  0  0  0  0  0  0  0  0  0
   -4.0443    3.0718   -0.4378 H   0  0  0  0  0  0  0  0  0  0  0  0
   -5.1786    5.2284   -0.7163 H   0  0  0  0  0  0  0  0  0  0  0  0
   -4.0248    7.1209   -1.8300 H   0  0  0  0  0  0  0  0  0  0  0  0
   -1.7160    6.8305   -2.6883 H   0  0  0  0  0  0  0  0  0  0  0  0
   -0.5726    4.6744   -2.4839 H   0  0  0  0  0  0  0  0  0  0  0  0
   -3.7855    1.7169   -2.2273 H   0  0  0  0  0  0  0  0  0  0  0  0
    1.4603   -0.4422   -1.6087 H   0  0  0  0  0  0  0  0  0  0  0  0
    1.7308    0.5270    1.3075 H   0  0  0  0  0  0  0  0  0  0  0  0
    2.7717    0.9637   -0.0483 H   0  0  0  0  0  0  0  0  0  0  0  0
    8.1301    0.2042    0.9107 H   0  0  0  0  0  0  0  0  0  0  0  0
    7.0981   -1.2265    0.8982 H   0  0  0  0  0  0  0  0  0  0  0  0
    6.9398   -0.0414   -0.3887 H   0  0  0  0  0  0  0  0  0  0  0  0
    5.3970    0.8564    3.5532 H   0  0  0  0  0  0  0  0  0  0  0  0
    6.1718   -0.6913    3.2542 H   0  0  0  0  0  0  0  0  0  0  0  0
    7.1646    0.7616    3.3764 H   0  0  0  0  0  0  0  0  0  0  0  0
    6.0957    2.3324    0.1544 H   0  0  0  0  0  0  0  0  0  0  0  0
    5.4720    2.6954    1.7545 H   0  0  0  0  0  0  0  0  0  0  0  0
    7.2209    2.4762    1.5232 H   0  0  0  0  0  0  0  0  0  0  0  0
    2.8596   -3.1428    0.7947 H   0  0  0  0  0  0  0  0  0  0  0  0
    1.8488   -2.2394    1.9270 H   0  0  0  0  0  0  0  0  0  0  0  0
    0.3604   -3.3173    0.3479 H   0  0  0  0  0  0  0  0  0  0  0  0
    1.3113   -2.7800   -1.0453 H   0  0  0  0  0  0  0  0  0  0  0  0
  1  2  1  0
  2  3  2  0
  3  4  1  0
  4  5  2  0
  5  6  1  0
  6  7  2  0
  7  8  1  0
  6  9  1  0
  9 10  1  0
 10 11  2  0
 10 12  1  0
 12 13  1  0
 13 14  1  0
 14 15  2  0
 15 16  1  0
 15 17  1  0
 17 18  1  0
 18 19  2  0
 19 20  1  0
 20 21  2  0
 21 22  1  0
 22 23  2  0
 17 24  1  0
 24 25  1  0
 14 26  1  0
 26 27  1  0
 27 28  1  0
 28 29  1  0
 29 30  2  0
 29 31  1  0
 31 32  1  0
 32 33  1  0
 32 34  1  0
 32 35  1  0
 28 36  1  0
 36 37  1  0
 37 38  1  0
  7  2  1  0
 12 38  1  1
 12  5  1  0
 24 13  2  0
 38 26  1  0
 23 18  1  0
  1 39  1  0
  1 40  1  0
  1 41  1  0
  3 42  1  0
  4 43  1  0
  8 44  1  0
  8 45  1  0
  8 46  1  0
  9 47  1  0
 16 48  1  0
 19 49  1  0
 20 50  1  0
 21 51  1  0
 22 52  1  0
 23 53  1  0
 25 54  1  0
 26 55  1  6
 27 56  1  0
 27 57  1  0
 33 58  1  0
 33 59  1  0
 33 60  1  0
 34 61  1  0
 34 62  1  0
 34 63  1  0
 35 64  1  0
 35 65  1  0
 35 66  1  0
 36 67  1  0
 36 68  1  0
 37 69  1  0
 37 70  1  0
M  END
$$$$
