
     RDKit          3D

 57 59  0  0  0  0  0  0  0  0999 V2000
   -8.6528    0.3545   -1.5308 C   0  0  0  0  0  0  0  0  0  0  0  0
   -7.6735   -0.6742   -1.5028 O   0  0  0  0  0  0  0  0  0  0  0  0
   -6.5110   -0.4331   -0.8134 C   0  0  0  0  0  0  0  0  0  0  0  0
   -6.2037    0.7787   -0.1818 C   0  0  0  0  0  0  0  0  0  0  0  0
   -4.9930    0.9356    0.4955 C   0  0  0  0  0  0  0  0  0  0  0  0
   -4.0865   -0.1226    0.5306 C   0  0  0  0  0  0  0  0  0  0  0  0
   -2.5418    0.0558    1.3838 S   0  0  0  0  0  6  0  0  0  0  0  0
   -2.3018   -1.1685    2.1174 O   0  0  0  0  0  0  0  0  0  0  0  0
   -2.5265    1.3405    2.0475 O   0  0  0  0  0  0  0  0  0  0  0  0
   -1.4353    0.1128    0.1157 N   0  0  0  0  0  0  0  0  0  0  0  0
   -1.5190    1.2398   -0.8263 C   0  0  0  0  0  0  0  0  0  0  0  0
   -0.1205    1.2754   -1.3968 C   0  0  0  0  0  0  0  0  0  0  0  0
    0.7097    0.9794   -0.2730 O   0  0  0  0  0  0  0  0  0  0  0  0
   -0.0209    0.0516    0.5538 C   0  0  0  0  0  0  0  0  0  0  0  0
    0.5247   -1.3847    0.3729 C   0  0  0  0  0  0  0  0  0  0  0  0
    1.9122   -1.5296    0.7731 N   0  0  0  0  0  0  0  0  0  0  0  0
    2.9514   -1.2786   -0.0940 C   0  0  0  0  0  0  0  0  0  0  0  0
    2.8636   -1.0771   -1.2969 O   0  0  0  0  0  0  0  0  0  0  0  0
    4.3360   -1.2630    0.5941 C   0  0  0  0  0  0  0  0  0  0  0  0
    4.4246   -1.4719    1.7964 O   0  0  0  0  0  0  0  0  0  0  0  0
    5.3711   -0.9823   -0.2657 N   0  0  0  0  0  0  0  0  0  0  0  0
    6.7121   -0.7433    0.2005 C   0  0  0  0  0  0  0  0  0  0  0  0
    6.9365    0.7200    0.4874 C   0  0  0  0  0  0  0  0  0  0  0  0
    7.3819    1.5879   -0.5222 C   0  0  0  0  0  0  0  0  0  0  0  0
    7.5720    2.9435   -0.2512 C   0  0  0  0  0  0  0  0  0  0  0  0
    7.3100    3.4326    1.0237 C   0  0  0  0  0  0  0  0  0  0  0  0
    7.4919    4.7342    1.2798 F   0  0  0  0  0  0  0  0  0  0  0  0
    6.8582    2.5927    2.0333 C   0  0  0  0  0  0  0  0  0  0  0  0
    6.6656    1.2384    1.7650 C   0  0  0  0  0  0  0  0  0  0  0  0
   -4.3796   -1.3440   -0.0842 C   0  0  0  0  0  0  0  0  0  0  0  0
   -5.5930   -1.5044   -0.7583 C   0  0  0  0  0  0  0  0  0  0  0  0
   -5.9703   -2.6555   -1.4033 O   0  0  0  0  0  0  0  0  0  0  0  0
   -5.1686   -3.8122   -1.2086 C   0  0  0  0  0  0  0  0  0  0  0  0
   -8.2770    1.2407   -2.0508 H   0  0  0  0  0  0  0  0  0  0  0  0
   -8.9972    0.6016   -0.5199 H   0  0  0  0  0  0  0  0  0  0  0  0
   -9.5149   -0.0191   -2.0918 H   0  0  0  0  0  0  0  0  0  0  0  0
   -6.8887    1.6197   -0.1958 H   0  0  0  0  0  0  0  0  0  0  0  0
   -4.7716    1.8788    0.9906 H   0  0  0  0  0  0  0  0  0  0  0  0
   -2.2700    1.0753   -1.6023 H   0  0  0  0  0  0  0  0  0  0  0  0
   -1.7294    2.1755   -0.2977 H   0  0  0  0  0  0  0  0  0  0  0  0
    0.0306    0.5013   -2.1576 H   0  0  0  0  0  0  0  0  0  0  0  0
    0.1446    2.2487   -1.8175 H   0  0  0  0  0  0  0  0  0  0  0  0
    0.1140    0.3831    1.5891 H   0  0  0  0  0  0  0  0  0  0  0  0
    0.4407   -1.6846   -0.6781 H   0  0  0  0  0  0  0  0  0  0  0  0
   -0.0531   -2.0954    0.9718 H   0  0  0  0  0  0  0  0  0  0  0  0
    2.1568   -1.5983    1.7588 H   0  0  0  0  0  0  0  0  0  0  0  0
    5.1056   -0.6997   -1.2039 H   0  0  0  0  0  0  0  0  0  0  0  0
    6.9110   -1.3419    1.0975 H   0  0  0  0  0  0  0  0  0  0  0  0
    7.4006   -1.0878   -0.5791 H   0  0  0  0  0  0  0  0  0  0  0  0
    7.5823    1.2130   -1.5230 H   0  0  0  0  0  0  0  0  0  0  0  0
    7.9191    3.6213   -1.0240 H   0  0  0  0  0  0  0  0  0  0  0  0
    6.6530    2.9967    3.0202 H   0  0  0  0  0  0  0  0  0  0  0  0
    6.2985    0.5845    2.5547 H   0  0  0  0  0  0  0  0  0  0  0  0
   -3.6490   -2.1441   -0.0259 H   0  0  0  0  0  0  0  0  0  0  0  0
   -5.6624   -4.6479   -1.7113 H   0  0  0  0  0  0  0  0  0  0  0  0
   -4.1810   -3.6861   -1.6636 H   0  0  0  0  0  0  0  0  0  0  0  0
   -5.0862   -4.0637   -0.1475 H   0  0  0  0  0  0  0  0  0  0  0  0
  1  2  1  0
  2  3  1  0
  3  4  2  0
  4  5  1  0
  5  6  2  0
  6  7  1  0
  7  8  2  0
  7  9  2  0
  7 10  1  0
 10 11  1  0
 11 12  1  0
 12 13  1  0
 13 14  1  0
 14 15  1  0
 15 16  1  0
 16 17  1  0
 17 18  2  0
 17 19  1  0
 19 20  2  0
 19 21  1  0
 21 22  1  0
 22 23  1  0
 23 24  2  0
 24 25  1  0
 25 26  2  0
 26 27  1  0
 26 28  1  0
 28 29  2  0
  6 30  1  0
 30 31  2  0
 31 32  1  0
 32 33  1  0
 31  3  1  0
 14 10  1  0
 29 23  1  0
  1 34  1  0
  1 35  1  0
  1 36  1  0
  4 37  1  0
  5 38  1  0
 11 39  1  0
 11 40  1  0
 12 41  1  0
 12 42  1  0
 14 43  1  0
 15 44  1  0
 15 45  1  0
 16 46  1  0
 21 47  1  0
 22 48  1  0
 22 49  1  0
 24 50  1  0
 25 51  1  0
 28 52  1  0
 29 53  1  0
 30 54  1  0
 33 55  1  0
 33 56  1  0
 33 57  1  0
M  END
$$$$
