
     RDKit          3D

 48 50  0  0  0  0  0  0  0  0999 V2000
   -3.0197    0.4982   -4.1908 C   0  0  0  0  0  0  0  0  0  0  0  0
   -2.9733    1.6208   -3.3026 O   0  0  0  0  0  0  0  0  0  0  0  0
   -2.8403    1.1866   -2.0083 C   0  0  0  0  0  0  0  0  0  0  0  0
   -1.5497    1.2319   -1.4658 C   0  0  0  0  0  0  0  0  0  0  0  0
   -1.3114    0.7432   -0.1751 C   0  0  0  0  0  0  0  0  0  0  0  0
    0.0676    0.7210    0.3350 C   0  0  0  0  0  0  0  0  0  0  0  0
    0.4868    1.1569    1.5435 C   0  0  0  0  0  0  0  0  0  0  0  0
   -0.3612    1.8531    2.4540 C   0  0  0  0  0  0  0  0  0  0  0  0
   -1.1210    2.4026    3.1383 N   0  0  0  0  0  0  0  0  0  0  0  0
    1.9448    1.0727    1.8752 C   0  0  0  0  0  0  0  0  0  0  0  0
    2.5018    2.0401    2.3790 O   0  0  0  0  0  0  0  0  0  0  0  0
    2.5238   -0.1448    1.5453 N   0  0  0  0  0  0  0  0  0  0  0  0
    3.8926   -0.5107    1.6507 C   0  0  0  0  0  0  0  0  0  0  0  0
    4.8031    0.2761    2.3610 C   0  0  0  0  0  0  0  0  0  0  0  0
    6.1351   -0.1087    2.4752 C   0  0  0  0  0  0  0  0  0  0  0  0
    6.5720   -1.2787    1.8642 C   0  0  0  0  0  0  0  0  0  0  0  0
    5.7166   -2.0779    1.1315 C   0  0  0  0  0  0  0  0  0  0  0  0
    6.2418   -3.1736    0.5557 N   0  0  0  0  0  0  0  0  0  0  0  0
    5.4317   -3.9632   -0.1775 C   0  0  0  0  0  0  0  0  0  0  0  0
    4.0897   -3.7154   -0.3661 C   0  0  0  0  0  0  0  0  0  0  0  0
    3.5518   -2.5798    0.2357 C   0  0  0  0  0  0  0  0  0  0  0  0
    4.3515   -1.7108    1.0175 C   0  0  0  0  0  0  0  0  0  0  0  0
   -2.3785    0.2018    0.5527 C   0  0  0  0  0  0  0  0  0  0  0  0
   -3.6790    0.2223    0.0316 C   0  0  0  0  0  0  0  0  0  0  0  0
   -4.6385   -0.3327    0.8380 O   0  0  0  0  0  0  0  0  0  0  0  0
   -5.6900    0.5850    1.1484 C   0  0  0  0  0  0  0  0  0  0  0  0
   -3.9271    0.7258   -1.2529 C   0  0  0  0  0  0  0  0  0  0  0  0
   -5.2090    0.6630   -1.7352 O   0  0  0  0  0  0  0  0  0  0  0  0
   -5.6770    1.9031   -2.2673 C   0  0  0  0  0  0  0  0  0  0  0  0
   -3.9671   -0.0422   -4.0966 H   0  0  0  0  0  0  0  0  0  0  0  0
   -2.1755   -0.1827   -4.0261 H   0  0  0  0  0  0  0  0  0  0  0  0
   -2.9449    0.8792   -5.2131 H   0  0  0  0  0  0  0  0  0  0  0  0
   -0.7381    1.6364   -2.0714 H   0  0  0  0  0  0  0  0  0  0  0  0
    0.7843    0.3227   -0.3795 H   0  0  0  0  0  0  0  0  0  0  0  0
    1.9087   -0.8630    1.2036 H   0  0  0  0  0  0  0  0  0  0  0  0
    4.5057    1.1889    2.8701 H   0  0  0  0  0  0  0  0  0  0  0  0
    6.8353    0.5018    3.0355 H   0  0  0  0  0  0  0  0  0  0  0  0
    7.6157   -1.5716    1.9529 H   0  0  0  0  0  0  0  0  0  0  0  0
    5.9145   -4.8228   -0.6305 H   0  0  0  0  0  0  0  0  0  0  0  0
    3.4807   -4.3784   -0.9740 H   0  0  0  0  0  0  0  0  0  0  0  0
    2.4988   -2.3892    0.0594 H   0  0  0  0  0  0  0  0  0  0  0  0
   -2.2288   -0.2307    1.5420 H   0  0  0  0  0  0  0  0  0  0  0  0
   -5.3869    1.6340    1.0679 H   0  0  0  0  0  0  0  0  0  0  0  0
   -6.5541    0.3847    0.5077 H   0  0  0  0  0  0  0  0  0  0  0  0
   -5.9877    0.4058    2.1844 H   0  0  0  0  0  0  0  0  0  0  0  0
   -6.7644    1.9296   -2.1347 H   0  0  0  0  0  0  0  0  0  0  0  0
   -5.2551    2.7732   -1.7456 H   0  0  0  0  0  0  0  0  0  0  0  0
   -5.4763    1.9581   -3.3428 H   0  0  0  0  0  0  0  0  0  0  0  0
  1  2  1  0
  2  3  1  0
  3  4  2  0
  4  5  1  0
  5  6  1  0
  6  7  2  3
  7  8  1  0
  8  9  3  0
  7 10  1  0
 10 11  2  0
 10 12  1  0
 12 13  1  0
 13 14  2  0
 14 15  1  0
 15 16  2  0
 16 17  1  0
 17 18  2  0
 18 19  1  0
 19 20  2  0
 20 21  1  0
 21 22  2  0
  5 23  2  0
 23 24  1  0
 24 25  1  0
 25 26  1  0
 24 27  2  0
 27 28  1  0
 28 29  1  0
 27  3  1  0
 22 13  1  0
 22 17  1  0
  1 30  1  0
  1 31  1  0
  1 32  1  0
  4 33  1  0
  6 34  1  0
 12 35  1  0
 14 36  1  0
 15 37  1  0
 16 38  1  0
 19 39  1  0
 20 40  1  0
 21 41  1  0
 23 42  1  0
 26 43  1  0
 26 44  1  0
 26 45  1  0
 29 46  1  0
 29 47  1  0
 29 48  1  0
M  END
$$$$
