
     RDKit          3D

 64 67  0  0  0  0  0  0  0  0999 V2000
    6.8602   -6.4228   -1.0498 C   0  0  0  0  0  0  0  0  0  0  0  0
    7.1756   -5.3053   -1.8709 O   0  0  0  0  0  0  0  0  0  0  0  0
    6.1511   -4.4504   -2.1684 C   0  0  0  0  0  0  0  0  0  0  0  0
    4.8390   -4.5471   -1.7088 C   0  0  0  0  0  0  0  0  0  0  0  0
    3.8807   -3.5959   -2.0905 C   0  0  0  0  0  0  0  0  0  0  0  0
    4.2223   -2.5371   -2.9337 C   0  0  0  0  0  0  0  0  0  0  0  0
    3.3221   -1.5394   -3.3614 N   0  0  0  0  0  0  0  0  0  0  0  0
    1.9782   -1.4122   -3.0362 C   0  0  0  0  0  0  0  0  0  0  0  0
    1.3276   -2.1838   -2.3352 O   0  0  0  0  0  0  0  0  0  0  0  0
    1.3247   -0.1989   -3.7284 C   0  0  0  0  0  0  0  0  0  0  0  0
    0.1968    0.3434   -2.9746 N   0  0  0  0  0  0  0  0  0  0  0  0
   -1.0780   -0.3559   -3.0824 C   0  0  0  0  0  0  0  0  0  0  0  0
    0.5150    1.2119   -1.9416 C   0  0  0  0  0  0  0  0  0  0  0  0
    1.6270    1.7094   -1.7857 O   0  0  0  0  0  0  0  0  0  0  0  0
   -0.5607    1.5214   -0.9800 C   0  0  0  0  0  0  0  0  0  0  0  0
   -0.7098    0.7073    0.0752 C   0  0  0  0  0  0  0  0  0  0  0  0
   -1.7113    0.8292    1.0825 C   0  0  0  0  0  0  0  0  0  0  0  0
   -2.2611   -0.2603    1.7187 C   0  0  0  0  0  0  0  0  0  0  0  0
   -3.2174    0.2162    2.5844 N   0  0  0  0  0  0  0  0  0  0  0  0
   -4.0612   -0.5314    3.4555 C   0  0  0  0  0  0  0  0  0  0  0  0
   -4.9569    0.1476    4.2974 C   0  0  0  0  0  0  0  0  0  0  0  0
   -5.7877   -0.5654    5.1643 C   0  0  0  0  0  0  0  0  0  0  0  0
   -5.7377   -1.9574    5.1913 C   0  0  0  0  0  0  0  0  0  0  0  0
   -4.8545   -2.6391    4.3564 C   0  0  0  0  0  0  0  0  0  0  0  0
   -4.0129   -1.9324    3.4921 C   0  0  0  0  0  0  0  0  0  0  0  0
   -3.3019    1.5667    2.5281 N   0  0  0  0  0  0  0  0  0  0  0  0
   -2.3652    1.9576    1.6498 C   0  0  0  0  0  0  0  0  0  0  0  0
   -2.1403    3.3827    1.4128 C   0  0  0  0  0  0  0  0  0  0  0  0
   -0.8481    3.9215    1.4507 C   0  0  0  0  0  0  0  0  0  0  0  0
   -0.6447    5.2884    1.2359 C   0  0  0  0  0  0  0  0  0  0  0  0
   -1.7292    6.1371    0.9819 C   0  0  0  0  0  0  0  0  0  0  0  0
   -1.5237    7.6070    0.7700 C   0  0  0  0  0  0  0  0  0  0  0  0
   -3.0221    5.6011    0.9566 C   0  0  0  0  0  0  0  0  0  0  0  0
   -3.2260    4.2356    1.1753 C   0  0  0  0  0  0  0  0  0  0  0  0
    5.5416   -2.4436   -3.3914 C   0  0  0  0  0  0  0  0  0  0  0  0
    6.4957   -3.3935   -3.0121 C   0  0  0  0  0  0  0  0  0  0  0  0
    6.5194   -6.1032   -0.0600 H   0  0  0  0  0  0  0  0  0  0  0  0
    7.7753   -7.0076   -0.9145 H   0  0  0  0  0  0  0  0  0  0  0  0
    6.1201   -7.0680   -1.5335 H   0  0  0  0  0  0  0  0  0  0  0  0
    4.5206   -5.3456   -1.0450 H   0  0  0  0  0  0  0  0  0  0  0  0
    2.8742   -3.7131   -1.7011 H   0  0  0  0  0  0  0  0  0  0  0  0
    3.7242   -0.8064   -3.9335 H   0  0  0  0  0  0  0  0  0  0  0  0
    2.0722    0.5897   -3.8709 H   0  0  0  0  0  0  0  0  0  0  0  0
    0.9789   -0.5091   -4.7204 H   0  0  0  0  0  0  0  0  0  0  0  0
   -1.2350   -0.6745   -4.1179 H   0  0  0  0  0  0  0  0  0  0  0  0
   -1.0727   -1.2271   -2.4214 H   0  0  0  0  0  0  0  0  0  0  0  0
   -1.9055    0.3000   -2.7969 H   0  0  0  0  0  0  0  0  0  0  0  0
   -1.1622    2.3980   -1.1790 H   0  0  0  0  0  0  0  0  0  0  0  0
   -0.0473   -0.1559    0.1516 H   0  0  0  0  0  0  0  0  0  0  0  0
   -2.0574   -1.3146    1.6103 H   0  0  0  0  0  0  0  0  0  0  0  0
   -5.0122    1.2352    4.2949 H   0  0  0  0  0  0  0  0  0  0  0  0
   -6.4697   -0.0314    5.8194 H   0  0  0  0  0  0  0  0  0  0  0  0
   -6.3860   -2.5123    5.8655 H   0  0  0  0  0  0  0  0  0  0  0  0
   -4.8198   -3.7254    4.3777 H   0  0  0  0  0  0  0  0  0  0  0  0
   -3.3404   -2.5053    2.8616 H   0  0  0  0  0  0  0  0  0  0  0  0
    0.0112    3.2878    1.6602 H   0  0  0  0  0  0  0  0  0  0  0  0
    0.3688    5.6833    1.2770 H   0  0  0  0  0  0  0  0  0  0  0  0
   -1.9722    7.9173   -0.1796 H   0  0  0  0  0  0  0  0  0  0  0  0
   -1.9802    8.1734    1.5880 H   0  0  0  0  0  0  0  0  0  0  0  0
   -0.4594    7.8631    0.7334 H   0  0  0  0  0  0  0  0  0  0  0  0
   -3.8812    6.2445    0.7799 H   0  0  0  0  0  0  0  0  0  0  0  0
   -4.2388    3.8366    1.1628 H   0  0  0  0  0  0  0  0  0  0  0  0
    5.8514   -1.6343   -4.0484 H   0  0  0  0  0  0  0  0  0  0  0  0
    7.5165   -3.3075   -3.3772 H   0  0  0  0  0  0  0  0  0  0  0  0
  1  2  1  0
  2  3  1  0
  3  4  2  0
  4  5  1  0
  5  6  2  0
  6  7  1  0
  7  8  1  0
  8  9  2  0
  8 10  1  0
 10 11  1  0
 11 12  1  0
 11 13  1  0
 13 14  2  0
 13 15  1  0
 15 16  2  3
 16 17  1  0
 17 18  2  0
 18 19  1  0
 19 20  1  0
 20 21  2  0
 21 22  1  0
 22 23  2  0
 23 24  1  0
 24 25  2  0
 19 26  1  0
 26 27  2  0
 27 28  1  0
 28 29  2  0
 29 30  1  0
 30 31  2  0
 31 32  1  0
 31 33  1  0
 33 34  2  0
  6 35  1  0
 35 36  2  0
 36  3  1  0
 27 17  1  0
 34 28  1  0
 25 20  1  0
  1 37  1  0
  1 38  1  0
  1 39  1  0
  4 40  1  0
  5 41  1  0
  7 42  1  0
 10 43  1  0
 10 44  1  0
 12 45  1  0
 12 46  1  0
 12 47  1  0
 15 48  1  0
 16 49  1  0
 18 50  1  0
 21 51  1  0
 22 52  1  0
 23 53  1  0
 24 54  1  0
 25 55  1  0
 29 56  1  0
 30 57  1  0
 32 58  1  0
 32 59  1  0
 32 60  1  0
 33 61  1  0
 34 62  1  0
 35 63  1  0
 36 64  1  0
M  END
$$$$
