
     RDKit          3D

 52 54  0  0  0  0  0  0  0  0999 V2000
    7.4601   -1.3599    1.3786 C   0  0  0  0  0  0  0  0  0  0  0  0
    6.5974   -1.3495    0.1523 C   0  0  0  0  0  0  0  0  0  0  0  0
    5.5133   -2.2282    0.0445 C   0  0  0  0  0  0  0  0  0  0  0  0
    4.6848   -2.1975   -1.0797 C   0  0  0  0  0  0  0  0  0  0  0  0
    4.9233   -1.2840   -2.1151 C   0  0  0  0  0  0  0  0  0  0  0  0
    4.0111   -1.2356   -3.3130 C   0  0  0  0  0  0  0  0  0  0  0  0
    2.8359   -0.4534   -3.0302 N   0  0  0  0  0  0  0  0  0  0  0  0
    1.6300   -1.0240   -2.7034 C   0  0  0  0  0  0  0  0  0  0  0  0
    1.3541   -2.2151   -2.7358 O   0  0  0  0  0  0  0  0  0  0  0  0
    0.5661    0.0020   -2.2511 C   0  0  0  0  0  0  0  0  0  0  0  0
    0.8562    1.1872   -2.1676 O   0  0  0  0  0  0  0  0  0  0  0  0
   -0.6608   -0.5648   -1.9868 N   0  0  0  0  0  0  0  0  0  0  0  0
   -1.7339    0.1780   -1.3483 C   0  0  0  0  0  0  0  0  0  0  0  0
   -1.7503    0.0172    0.1860 C   0  0  0  0  0  0  0  0  0  0  0  0
   -0.5604    0.5827    0.7618 O   0  0  0  0  0  0  0  0  0  0  0  0
   -0.9376    0.9951    2.0747 C   0  0  0  0  0  0  0  0  0  0  0  0
   -2.3196    1.5739    1.8763 C   0  0  0  0  0  0  0  0  0  0  0  0
   -2.8876    0.7600    0.7803 N   0  0  0  0  0  0  0  0  0  0  0  0
   -4.2088   -0.2238    1.1449 S   0  0  0  0  0  6  0  0  0  0  0  0
   -4.5843   -0.9287   -0.0613 O   0  0  0  0  0  0  0  0  0  0  0  0
   -3.8919   -0.9355    2.3653 O   0  0  0  0  0  0  0  0  0  0  0  0
   -5.4854    0.9596    1.4910 C   0  0  0  0  0  0  0  0  0  0  0  0
   -5.9623    1.7642    0.4509 C   0  0  0  0  0  0  0  0  0  0  0  0
   -6.9734    2.6912    0.7078 C   0  0  0  0  0  0  0  0  0  0  0  0
   -7.4993    2.8028    1.9961 C   0  0  0  0  0  0  0  0  0  0  0  0
   -8.8700    4.0587    2.3409 Br  0  0  0  0  0  0  0  0  0  0  0  0
   -7.0273    1.9944    3.0318 C   0  0  0  0  0  0  0  0  0  0  0  0
   -6.0163    1.0648    2.7802 C   0  0  0  0  0  0  0  0  0  0  0  0
    5.9959   -0.3901   -1.9955 C   0  0  0  0  0  0  0  0  0  0  0  0
    6.8244   -0.4224   -0.8705 C   0  0  0  0  0  0  0  0  0  0  0  0
    8.4599   -0.9723    1.1583 H   0  0  0  0  0  0  0  0  0  0  0  0
    7.5827   -2.3797    1.7584 H   0  0  0  0  0  0  0  0  0  0  0  0
    7.0073   -0.7413    2.1592 H   0  0  0  0  0  0  0  0  0  0  0  0
    5.3029   -2.9410    0.8382 H   0  0  0  0  0  0  0  0  0  0  0  0
    3.8438   -2.8867   -1.1418 H   0  0  0  0  0  0  0  0  0  0  0  0
    3.7353   -2.2508   -3.6206 H   0  0  0  0  0  0  0  0  0  0  0  0
    4.5194   -0.7659   -4.1630 H   0  0  0  0  0  0  0  0  0  0  0  0
    2.9331    0.5359   -2.8197 H   0  0  0  0  0  0  0  0  0  0  0  0
   -0.7071   -1.5793   -2.0476 H   0  0  0  0  0  0  0  0  0  0  0  0
   -2.6698   -0.1836   -1.7861 H   0  0  0  0  0  0  0  0  0  0  0  0
   -1.6266    1.2376   -1.6095 H   0  0  0  0  0  0  0  0  0  0  0  0
   -1.7655   -1.0453    0.4596 H   0  0  0  0  0  0  0  0  0  0  0  0
   -0.9516    0.1169    2.7307 H   0  0  0  0  0  0  0  0  0  0  0  0
   -0.2224    1.7244    2.4640 H   0  0  0  0  0  0  0  0  0  0  0  0
   -2.9024    1.5658    2.8005 H   0  0  0  0  0  0  0  0  0  0  0  0
   -2.2572    2.6101    1.5218 H   0  0  0  0  0  0  0  0  0  0  0  0
   -5.5550    1.6688   -0.5533 H   0  0  0  0  0  0  0  0  0  0  0  0
   -7.3476    3.3158   -0.1001 H   0  0  0  0  0  0  0  0  0  0  0  0
   -7.4443    2.0774    4.0331 H   0  0  0  0  0  0  0  0  0  0  0  0
   -5.6577    0.4295    3.5863 H   0  0  0  0  0  0  0  0  0  0  0  0
    6.1920    0.3419   -2.7759 H   0  0  0  0  0  0  0  0  0  0  0  0
    7.6477    0.2850   -0.7974 H   0  0  0  0  0  0  0  0  0  0  0  0
  1  2  1  0
  2  3  2  0
  3  4  1  0
  4  5  2  0
  5  6  1  0
  6  7  1  0
  7  8  1  0
  8  9  2  0
  8 10  1  0
 10 11  2  0
 10 12  1  0
 12 13  1  0
 13 14  1  0
 14 15  1  0
 15 16  1  0
 16 17  1  0
 17 18  1  0
 18 19  1  0
 19 20  2  0
 19 21  2  0
 19 22  1  0
 22 23  2  0
 23 24  1  0
 24 25  2  0
 25 26  1  0
 25 27  1  0
 27 28  2  0
  5 29  1  0
 29 30  2  0
 30  2  1  0
 18 14  1  0
 28 22  1  0
  1 31  1  0
  1 32  1  0
  1 33  1  0
  3 34  1  0
  4 35  1  0
  6 36  1  0
  6 37  1  0
  7 38  1  0
 12 39  1  0
 13 40  1  0
 13 41  1  0
 14 42  1  0
 16 43  1  0
 16 44  1  0
 17 45  1  0
 17 46  1  0
 23 47  1  0
 24 48  1  0
 27 49  1  0
 28 50  1  0
 29 51  1  0
 30 52  1  0
M  END
$$$$
