
     RDKit          3D

 51 54  0  0  0  0  0  0  0  0999 V2000
   -3.8201   -4.2149    2.5515 C   0  0  0  0  0  0  0  0  0  0  0  0
   -2.4013   -4.1659    2.4569 O   0  0  0  0  0  0  0  0  0  0  0  0
   -1.8619   -3.2436    1.6022 C   0  0  0  0  0  0  0  0  0  0  0  0
   -2.5765   -2.2604    0.9242 C   0  0  0  0  0  0  0  0  0  0  0  0
   -1.9126   -1.3658    0.0627 C   0  0  0  0  0  0  0  0  0  0  0  0
   -2.6947   -0.3283   -0.6293 C   0  0  0  0  0  0  0  0  0  0  0  0
   -3.9190   -0.3388   -0.5253 O   0  0  0  0  0  0  0  0  0  0  0  0
   -1.9832    0.5930   -1.3801 N   0  0  0  0  0  0  0  0  0  0  0  0
   -2.7230    1.7023   -1.9657 C   0  0  0  0  0  0  0  0  0  0  0  0
   -2.5893    2.9015   -1.0903 C   0  0  0  0  0  0  0  0  0  0  0  0
   -1.6451    3.9050   -0.9966 C   0  0  0  0  0  0  0  0  0  0  0  0
   -2.0730    4.7583    0.0473 C   0  0  0  0  0  0  0  0  0  0  0  0
   -3.2492    4.2243    0.5216 C   0  0  0  0  0  0  0  0  0  0  0  0
   -3.5731    3.1002   -0.1650 O   0  0  0  0  0  0  0  0  0  0  0  0
   -0.6252    0.5187   -1.6405 C   0  0  0  0  0  0  0  0  0  0  0  0
   -0.0539    1.3312   -2.3745 O   0  0  0  0  0  0  0  0  0  0  0  0
    0.0775   -0.5271   -1.0508 N   0  0  0  0  0  0  0  0  0  0  0  0
    1.5165   -0.5786   -1.3235 C   0  0  0  0  0  0  0  0  0  0  0  0
    2.2930    0.2608   -0.3092 C   0  0  0  0  0  0  0  0  0  0  0  0
    1.9807    0.3150    0.8808 O   0  0  0  0  0  0  0  0  0  0  0  0
    3.4906    1.0232   -0.7661 C   0  0  0  0  0  0  0  0  0  0  0  0
    4.1888    0.6926   -1.9348 C   0  0  0  0  0  0  0  0  0  0  0  0
    5.3040    1.4436   -2.3190 C   0  0  0  0  0  0  0  0  0  0  0  0
    5.7278    2.5211   -1.5393 C   0  0  0  0  0  0  0  0  0  0  0  0
    5.0391    2.8421   -0.3709 C   0  0  0  0  0  0  0  0  0  0  0  0
    5.6165    4.2984    0.6871 Br  0  0  0  0  0  0  0  0  0  0  0  0
    3.9284    2.0987    0.0226 C   0  0  0  0  0  0  0  0  0  0  0  0
   -0.5366   -1.4383   -0.1497 C   0  0  0  0  0  0  0  0  0  0  0  0
    0.1793   -2.4215    0.5437 C   0  0  0  0  0  0  0  0  0  0  0  0
   -0.4756   -3.2959    1.4188 C   0  0  0  0  0  0  0  0  0  0  0  0
    0.2809   -4.2588    2.0415 O   0  0  0  0  0  0  0  0  0  0  0  0
    0.6940   -3.7954    3.3285 C   0  0  0  0  0  0  0  0  0  0  0  0
   -4.2777   -4.4092    1.5752 H   0  0  0  0  0  0  0  0  0  0  0  0
   -4.0823   -5.0466    3.2123 H   0  0  0  0  0  0  0  0  0  0  0  0
   -4.2168   -3.2971    2.9989 H   0  0  0  0  0  0  0  0  0  0  0  0
   -3.6505   -2.1576    1.0482 H   0  0  0  0  0  0  0  0  0  0  0  0
   -2.3311    1.9274   -2.9647 H   0  0  0  0  0  0  0  0  0  0  0  0
   -3.7811    1.4454   -2.0897 H   0  0  0  0  0  0  0  0  0  0  0  0
   -0.7528    3.9976   -1.6026 H   0  0  0  0  0  0  0  0  0  0  0  0
   -1.5847    5.6502    0.4130 H   0  0  0  0  0  0  0  0  0  0  0  0
   -3.9421    4.5092    1.3022 H   0  0  0  0  0  0  0  0  0  0  0  0
    1.8894   -1.6064   -1.3226 H   0  0  0  0  0  0  0  0  0  0  0  0
    1.6841   -0.1948   -2.3344 H   0  0  0  0  0  0  0  0  0  0  0  0
    3.8973   -0.1466   -2.5634 H   0  0  0  0  0  0  0  0  0  0  0  0
    5.8434    1.1891   -3.2292 H   0  0  0  0  0  0  0  0  0  0  0  0
    6.5952    3.1002   -1.8480 H   0  0  0  0  0  0  0  0  0  0  0  0
    3.3967    2.3560    0.9369 H   0  0  0  0  0  0  0  0  0  0  0  0
    1.2542   -2.5283    0.4551 H   0  0  0  0  0  0  0  0  0  0  0  0
    1.1242   -4.6486    3.8642 H   0  0  0  0  0  0  0  0  0  0  0  0
   -0.1428   -3.4056    3.9226 H   0  0  0  0  0  0  0  0  0  0  0  0
    1.4739   -3.0307    3.2202 H   0  0  0  0  0  0  0  0  0  0  0  0
  1  2  1  0
  2  3  1  0
  3  4  2  0
  4  5  1  0
  5  6  1  0
  6  7  2  0
  6  8  1  0
  8  9  1  0
  9 10  1  0
 10 11  2  0
 11 12  1  0
 12 13  2  0
 13 14  1  0
  8 15  1  0
 15 16  2  0
 15 17  1  0
 17 18  1  0
 18 19  1  0
 19 20  2  0
 19 21  1  0
 21 22  2  0
 22 23  1  0
 23 24  2  0
 24 25  1  0
 25 26  1  0
 25 27  2  0
 17 28  1  0
 28 29  1  0
 29 30  2  0
 30 31  1  0
 31 32  1  0
 30  3  1  0
 28  5  2  0
 14 10  1  0
 27 21  1  0
  1 33  1  0
  1 34  1  0
  1 35  1  0
  4 36  1  0
  9 37  1  0
  9 38  1  0
 11 39  1  0
 12 40  1  0
 13 41  1  0
 18 42  1  0
 18 43  1  0
 22 44  1  0
 23 45  1  0
 24 46  1  0
 27 47  1  0
 29 48  1  0
 32 49  1  0
 32 50  1  0
 32 51  1  0
M  END
$$$$
