
     RDKit          3D

 41 44  0  0  0  0  0  0  0  0999 V2000
    0.3040   -2.5708   -0.2528 O   0  0  0  0  0  0  0  0  0  0  0  0
    0.2307   -1.5999    0.4965 C   0  0  0  0  0  0  0  0  0  0  0  0
   -1.0682   -1.2898    1.2517 C   0  0  0  0  0  0  0  0  0  0  0  0
   -1.7847   -0.1422    0.6826 N   0  0  0  0  0  0  0  0  0  0  0  0
   -1.3263    1.1299    1.0079 C   0  0  0  0  0  0  0  0  0  0  0  0
   -0.3808    1.3045    1.7841 O   0  0  0  0  0  0  0  0  0  0  0  0
   -1.9518    2.3071    0.2978 C   0  0  0  0  0  0  0  0  0  0  0  0
   -3.2124    2.7853    0.9827 C   0  0  0  0  0  0  0  0  0  0  0  0
   -4.4344    1.4990    1.3776 S   0  0  0  0  0  0  0  0  0  0  0  0
   -4.1494    0.3335    0.0477 C   0  0  0  0  0  0  0  0  0  0  0  0
   -5.2557    0.0386   -0.7647 C   0  0  0  0  0  0  0  0  0  0  0  0
   -5.1836   -0.9620   -1.7323 C   0  0  0  0  0  0  0  0  0  0  0  0
   -4.0121   -1.6942   -1.8811 C   0  0  0  0  0  0  0  0  0  0  0  0
   -2.9079   -1.4201   -1.0708 C   0  0  0  0  0  0  0  0  0  0  0  0
   -2.9490   -0.3957   -0.1097 C   0  0  0  0  0  0  0  0  0  0  0  0
    1.2358   -0.6833    0.7545 N   0  0  0  0  0  0  0  0  0  0  0  0
    2.5477   -0.6631    0.2434 C   0  0  0  0  0  0  0  0  0  0  0  0
    3.0770   -1.6629   -0.5948 C   0  0  0  0  0  0  0  0  0  0  0  0
    4.3935   -1.5841   -1.0691 C   0  0  0  0  0  0  0  0  0  0  0  0
    5.1511   -0.5003   -0.6884 C   0  0  0  0  0  0  0  0  0  0  0  0
    4.6433    0.4781    0.1303 C   0  0  0  0  0  0  0  0  0  0  0  0
    3.3514    0.4262    0.6119 C   0  0  0  0  0  0  0  0  0  0  0  0
    5.5487    1.4600    0.3883 O   0  0  0  0  0  0  0  0  0  0  0  0
    6.6859    0.9834   -0.3615 C   0  0  0  0  0  0  0  0  0  0  0  0
    6.4390   -0.2602   -1.0496 O   0  0  0  0  0  0  0  0  0  0  0  0
   -0.8204   -1.0793    2.2997 H   0  0  0  0  0  0  0  0  0  0  0  0
   -1.7041   -2.1828    1.2611 H   0  0  0  0  0  0  0  0  0  0  0  0
   -2.1263    2.0656   -0.7571 H   0  0  0  0  0  0  0  0  0  0  0  0
   -1.2158    3.1209    0.2831 H   0  0  0  0  0  0  0  0  0  0  0  0
   -2.9558    3.2760    1.9280 H   0  0  0  0  0  0  0  0  0  0  0  0
   -3.7017    3.5386    0.3560 H   0  0  0  0  0  0  0  0  0  0  0  0
   -6.1940    0.5746   -0.6344 H   0  0  0  0  0  0  0  0  0  0  0  0
   -6.0474   -1.1807   -2.3553 H   0  0  0  0  0  0  0  0  0  0  0  0
   -3.9522   -2.4820   -2.6287 H   0  0  0  0  0  0  0  0  0  0  0  0
   -2.0048   -2.0032   -1.2356 H   0  0  0  0  0  0  0  0  0  0  0  0
    0.9722    0.1080    1.3467 H   0  0  0  0  0  0  0  0  0  0  0  0
    2.4852   -2.5224   -0.8947 H   0  0  0  0  0  0  0  0  0  0  0  0
    4.8013   -2.3540   -1.7144 H   0  0  0  0  0  0  0  0  0  0  0  0
    2.9841    1.2177    1.2562 H   0  0  0  0  0  0  0  0  0  0  0  0
    7.5260    0.8419    0.3282 H   0  0  0  0  0  0  0  0  0  0  0  0
    6.9621    1.7442   -1.1006 H   0  0  0  0  0  0  0  0  0  0  0  0
  1  2  2  0
  2  3  1  0
  3  4  1  0
  4  5  1  0
  5  6  2  0
  5  7  1  0
  7  8  1  0
  8  9  1  0
  9 10  1  0
 10 11  2  0
 11 12  1  0
 12 13  2  0
 13 14  1  0
 14 15  2  0
  2 16  1  0
 16 17  1  0
 17 18  2  0
 18 19  1  0
 19 20  2  0
 20 21  1  0
 21 22  2  0
 21 23  1  0
 23 24  1  0
 24 25  1  0
 15  4  1  0
 22 17  1  0
 15 10  1  0
 25 20  1  0
  3 26  1  0
  3 27  1  0
  7 28  1  0
  7 29  1  0
  8 30  1  0
  8 31  1  0
 11 32  1  0
 12 33  1  0
 13 34  1  0
 14 35  1  0
 16 36  1  0
 18 37  1  0
 19 38  1  0
 22 39  1  0
 24 40  1  0
 24 41  1  0
M  END
$$$$
