
     RDKit          3D

 51 53  0  0  0  0  0  0  0  0999 V2000
   -9.0384   -0.7406   -1.2725 C   0  0  0  0  0  0  0  0  0  0  0  0
   -7.6090   -0.3667   -1.0168 C   0  0  0  0  0  0  0  0  0  0  0  0
   -7.1411    0.9104   -1.3410 C   0  0  0  0  0  0  0  0  0  0  0  0
   -5.8001    1.2549   -1.1340 C   0  0  0  0  0  0  0  0  0  0  0  0
   -4.9039    0.3240   -0.6098 C   0  0  0  0  0  0  0  0  0  0  0  0
   -3.5434    0.5896   -0.3714 N   0  0  0  0  0  0  0  0  0  0  0  0
   -2.8472    1.7630   -0.5936 C   0  0  0  0  0  0  0  0  0  0  0  0
   -3.2972    2.8097   -1.0523 O   0  0  0  0  0  0  0  0  0  0  0  0
   -1.3680    1.6624   -0.2062 C   0  0  0  0  0  0  0  0  0  0  0  0
   -1.0533    0.3808    0.3350 O   0  0  0  0  0  0  0  0  0  0  0  0
    0.2380    0.1765    0.7341 C   0  0  0  0  0  0  0  0  0  0  0  0
    0.4861   -1.0827    1.2845 C   0  0  0  0  0  0  0  0  0  0  0  0
    1.7647   -1.4250    1.7313 C   0  0  0  0  0  0  0  0  0  0  0  0
    2.8093   -0.5061    1.6419 C   0  0  0  0  0  0  0  0  0  0  0  0
    4.1264   -0.9105    2.0545 N   0  0  0  0  0  0  0  0  0  0  0  0
    4.9360    0.0709    2.8016 C   0  0  0  0  0  0  0  0  0  0  0  0
    4.9871   -1.9248    0.9723 S   0  0  0  0  0  6  0  0  0  0  0  0
    4.1197   -2.9893    0.5099 O   0  0  0  0  0  0  0  0  0  0  0  0
    6.2731   -2.2317    1.5666 O   0  0  0  0  0  0  0  0  0  0  0  0
    5.3021   -0.8597   -0.4268 C   0  0  0  0  0  0  0  0  0  0  0  0
    6.4923   -0.1239   -0.4847 C   0  0  0  0  0  0  0  0  0  0  0  0
    6.7422    0.6882   -1.5917 C   0  0  0  0  0  0  0  0  0  0  0  0
    5.8148    0.7431   -2.6286 C   0  0  0  0  0  0  0  0  0  0  0  0
    6.0582    1.5258   -3.6873 F   0  0  0  0  0  0  0  0  0  0  0  0
    4.6423   -0.0058   -2.5872 C   0  0  0  0  0  0  0  0  0  0  0  0
    4.3845   -0.8211   -1.4849 C   0  0  0  0  0  0  0  0  0  0  0  0
    2.5679    0.7493    1.0762 C   0  0  0  0  0  0  0  0  0  0  0  0
    1.2855    1.0920    0.6290 C   0  0  0  0  0  0  0  0  0  0  0  0
   -5.3684   -0.9595   -0.2994 C   0  0  0  0  0  0  0  0  0  0  0  0
   -6.7078   -1.3047   -0.5059 C   0  0  0  0  0  0  0  0  0  0  0  0
   -9.3730   -1.5114   -0.5702 H   0  0  0  0  0  0  0  0  0  0  0  0
   -9.1492   -1.1202   -2.2929 H   0  0  0  0  0  0  0  0  0  0  0  0
   -9.6970    0.1247   -1.1424 H   0  0  0  0  0  0  0  0  0  0  0  0
   -7.8165    1.6538   -1.7590 H   0  0  0  0  0  0  0  0  0  0  0  0
   -5.4893    2.2609   -1.3970 H   0  0  0  0  0  0  0  0  0  0  0  0
   -2.9873   -0.1668    0.0171 H   0  0  0  0  0  0  0  0  0  0  0  0
   -0.7871    1.8386   -1.1190 H   0  0  0  0  0  0  0  0  0  0  0  0
   -1.1796    2.4429    0.5402 H   0  0  0  0  0  0  0  0  0  0  0  0
   -0.3173   -1.8109    1.3642 H   0  0  0  0  0  0  0  0  0  0  0  0
    1.9396   -2.4150    2.1466 H   0  0  0  0  0  0  0  0  0  0  0  0
    5.7303   -0.4353    3.3584 H   0  0  0  0  0  0  0  0  0  0  0  0
    4.3165    0.5876    3.5429 H   0  0  0  0  0  0  0  0  0  0  0  0
    5.3798    0.8185    2.1391 H   0  0  0  0  0  0  0  0  0  0  0  0
    7.2254   -0.1835    0.3168 H   0  0  0  0  0  0  0  0  0  0  0  0
    7.6566    1.2703   -1.6590 H   0  0  0  0  0  0  0  0  0  0  0  0
    3.9428    0.0446   -3.4163 H   0  0  0  0  0  0  0  0  0  0  0  0
    3.4746   -1.4179   -1.4551 H   0  0  0  0  0  0  0  0  0  0  0  0
    3.3686    1.4746    0.9636 H   0  0  0  0  0  0  0  0  0  0  0  0
    1.1464    2.0788    0.1986 H   0  0  0  0  0  0  0  0  0  0  0  0
   -4.6958   -1.7118    0.1044 H   0  0  0  0  0  0  0  0  0  0  0  0
   -7.0410   -2.3114   -0.2639 H   0  0  0  0  0  0  0  0  0  0  0  0
  1  2  1  0
  2  3  2  0
  3  4  1  0
  4  5  2  0
  5  6  1  0
  6  7  1  0
  7  8  2  0
  7  9  1  0
  9 10  1  0
 10 11  1  0
 11 12  2  0
 12 13  1  0
 13 14  2  0
 14 15  1  0
 15 16  1  0
 15 17  1  0
 17 18  2  0
 17 19  2  0
 17 20  1  0
 20 21  2  0
 21 22  1  0
 22 23  2  0
 23 24  1  0
 23 25  1  0
 25 26  2  0
 14 27  1  0
 27 28  2  0
  5 29  1  0
 29 30  2  0
 30  2  1  0
 28 11  1  0
 26 20  1  0
  1 31  1  0
  1 32  1  0
  1 33  1  0
  3 34  1  0
  4 35  1  0
  6 36  1  0
  9 37  1  0
  9 38  1  0
 12 39  1  0
 13 40  1  0
 16 41  1  0
 16 42  1  0
 16 43  1  0
 21 44  1  0
 22 45  1  0
 25 46  1  0
 26 47  1  0
 27 48  1  0
 28 49  1  0
 29 50  1  0
 30 51  1  0
M  END
$$$$
