
     RDKit          3D

 58 61  0  0  0  0  0  0  0  0999 V2000
   -3.3715    5.8319   -0.6668 C   0  0  0  0  0  0  0  0  0  0  0  0
   -2.5545    4.6686   -0.6385 O   0  0  0  0  0  0  0  0  0  0  0  0
   -3.1064    3.5358   -0.1051 C   0  0  0  0  0  0  0  0  0  0  0  0
   -4.4023    3.4074    0.3756 C   0  0  0  0  0  0  0  0  0  0  0  0
   -4.8512    2.1897    0.8999 C   0  0  0  0  0  0  0  0  0  0  0  0
   -3.9740    1.0887    0.9339 C   0  0  0  0  0  0  0  0  0  0  0  0
   -4.3183   -0.4852    1.5301 S   0  0  0  0  0  0  0  0  0  0  0  0
   -2.7489   -1.0586    1.1696 C   0  0  0  0  0  0  0  0  0  0  0  0
   -2.4363   -2.4634    1.4643 C   0  0  0  0  0  0  0  0  0  0  0  0
   -2.5513   -3.4080    0.4311 C   0  0  0  0  0  0  0  0  0  0  0  0
   -2.2556   -4.7500    0.6617 C   0  0  0  0  0  0  0  0  0  0  0  0
   -1.8402   -5.1584    1.9255 C   0  0  0  0  0  0  0  0  0  0  0  0
   -1.7165   -4.2280    2.9618 C   0  0  0  0  0  0  0  0  0  0  0  0
   -2.0098   -2.8766    2.7436 C   0  0  0  0  0  0  0  0  0  0  0  0
   -1.9017   -1.8959    3.6979 O   0  0  0  0  0  0  0  0  0  0  0  0
   -1.4924   -2.2869    5.0006 C   0  0  0  0  0  0  0  0  0  0  0  0
   -1.9621   -0.0738    0.5952 C   0  0  0  0  0  0  0  0  0  0  0  0
   -0.5878   -0.3350    0.1828 C   0  0  0  0  0  0  0  0  0  0  0  0
   -0.2628   -0.3853   -1.1765 C   0  0  0  0  0  0  0  0  0  0  0  0
    1.0554   -0.6275   -1.5822 C   0  0  0  0  0  0  0  0  0  0  0  0
    2.0588   -0.8187   -0.6323 C   0  0  0  0  0  0  0  0  0  0  0  0
    3.3791   -1.0652   -0.8798 O   0  0  0  0  0  0  0  0  0  0  0  0
    3.8442   -1.0945   -2.2298 C   0  0  0  0  0  0  0  0  0  0  0  0
    4.1591    0.3119   -2.7815 C   0  0  0  0  0  0  0  0  0  0  0  0
    5.1888    1.0723   -2.0419 N   0  0  0  0  0  0  0  0  0  0  0  0
    6.5068    0.4440   -2.1147 C   0  0  0  0  0  0  0  0  0  0  0  0
    5.2585    2.4462   -2.5427 C   0  0  0  0  0  0  0  0  0  0  0  0
    1.7295   -0.7635    0.7253 C   0  0  0  0  0  0  0  0  0  0  0  0
    0.4164   -0.5206    1.1352 C   0  0  0  0  0  0  0  0  0  0  0  0
   -2.6665    1.1816    0.4555 C   0  0  0  0  0  0  0  0  0  0  0  0
   -2.2444    2.4333   -0.0653 C   0  0  0  0  0  0  0  0  0  0  0  0
   -4.2497    5.6814   -1.3034 H   0  0  0  0  0  0  0  0  0  0  0  0
   -3.6624    6.1357    0.3442 H   0  0  0  0  0  0  0  0  0  0  0  0
   -2.7812    6.6444   -1.1013 H   0  0  0  0  0  0  0  0  0  0  0  0
   -5.1017    4.2369    0.3623 H   0  0  0  0  0  0  0  0  0  0  0  0
   -5.8659    2.0967    1.2772 H   0  0  0  0  0  0  0  0  0  0  0  0
   -2.8718   -3.0948   -0.5600 H   0  0  0  0  0  0  0  0  0  0  0  0
   -2.3470   -5.4734   -0.1441 H   0  0  0  0  0  0  0  0  0  0  0  0
   -1.6069   -6.2047    2.1070 H   0  0  0  0  0  0  0  0  0  0  0  0
   -1.3837   -4.5921    3.9278 H   0  0  0  0  0  0  0  0  0  0  0  0
   -0.4802   -2.7040    4.9875 H   0  0  0  0  0  0  0  0  0  0  0  0
   -1.4735   -1.3903    5.6277 H   0  0  0  0  0  0  0  0  0  0  0  0
   -2.2057   -2.9884    5.4456 H   0  0  0  0  0  0  0  0  0  0  0  0
   -1.0338   -0.2377   -1.9293 H   0  0  0  0  0  0  0  0  0  0  0  0
    1.2561   -0.6556   -2.6466 H   0  0  0  0  0  0  0  0  0  0  0  0
    4.7505   -1.7095   -2.2370 H   0  0  0  0  0  0  0  0  0  0  0  0
    3.1449   -1.6270   -2.8850 H   0  0  0  0  0  0  0  0  0  0  0  0
    4.4486    0.2165   -3.8361 H   0  0  0  0  0  0  0  0  0  0  0  0
    3.2295    0.8928   -2.7573 H   0  0  0  0  0  0  0  0  0  0  0  0
    7.2525    1.0508   -1.5879 H   0  0  0  0  0  0  0  0  0  0  0  0
    6.8440    0.3111   -3.1488 H   0  0  0  0  0  0  0  0  0  0  0  0
    6.5103   -0.5307   -1.6176 H   0  0  0  0  0  0  0  0  0  0  0  0
    5.9801    3.0326   -1.9629 H   0  0  0  0  0  0  0  0  0  0  0  0
    4.2908    2.9481   -2.4316 H   0  0  0  0  0  0  0  0  0  0  0  0
    5.5498    2.4861   -3.5986 H   0  0  0  0  0  0  0  0  0  0  0  0
    2.5065   -0.9069    1.4722 H   0  0  0  0  0  0  0  0  0  0  0  0
    0.1858   -0.4772    2.1969 H   0  0  0  0  0  0  0  0  0  0  0  0
   -1.2278    2.5427   -0.4369 H   0  0  0  0  0  0  0  0  0  0  0  0
  1  2  1  0
  2  3  1  0
  3  4  2  0
  4  5  1  0
  5  6  2  0
  6  7  1  0
  7  8  1  0
  8  9  1  0
  9 10  2  0
 10 11  1  0
 11 12  2  0
 12 13  1  0
 13 14  2  0
 14 15  1  0
 15 16  1  0
  8 17  2  0
 17 18  1  0
 18 19  2  0
 19 20  1  0
 20 21  2  0
 21 22  1  0
 22 23  1  0
 23 24  1  0
 24 25  1  0
 25 26  1  0
 25 27  1  0
 21 28  1  0
 28 29  2  0
 17 30  1  0
 30 31  2  0
 31  3  1  0
 30  6  1  0
 14  9  1  0
 29 18  1  0
  1 32  1  0
  1 33  1  0
  1 34  1  0
  4 35  1  0
  5 36  1  0
 10 37  1  0
 11 38  1  0
 12 39  1  0
 13 40  1  0
 16 41  1  0
 16 42  1  0
 16 43  1  0
 19 44  1  0
 20 45  1  0
 23 46  1  0
 23 47  1  0
 24 48  1  0
 24 49  1  0
 26 50  1  0
 26 51  1  0
 26 52  1  0
 27 53  1  0
 27 54  1  0
 27 55  1  0
 28 56  1  0
 29 57  1  0
 31 58  1  0
M  END
$$$$
