
     RDKit          3D

 47 50  0  0  0  0  0  0  0  0999 V2000
   -5.2007   -2.3176   -2.8042 C   0  0  0  0  0  0  0  0  0  0  0  0
   -4.8045   -1.5894   -1.6400 O   0  0  0  0  0  0  0  0  0  0  0  0
   -5.7922   -1.4323   -0.7249 C   0  0  0  0  0  0  0  0  0  0  0  0
   -6.9315   -1.8603   -0.8180 O   0  0  0  0  0  0  0  0  0  0  0  0
   -5.2956   -0.6690    0.4532 C   0  0  0  0  0  0  0  0  0  0  0  0
   -6.0983   -0.6430    1.5999 C   0  0  0  0  0  0  0  0  0  0  0  0
   -5.6732    0.0414    2.7349 C   0  0  0  0  0  0  0  0  0  0  0  0
   -4.4497    0.7128    2.7267 C   0  0  0  0  0  0  0  0  0  0  0  0
   -3.6420    0.7255    1.5738 C   0  0  0  0  0  0  0  0  0  0  0  0
   -2.4088    1.4379    1.6130 N   0  0  0  0  0  0  0  0  0  0  0  0
   -1.8824    1.8205    2.8116 N   0  0  0  0  0  0  0  0  0  0  0  0
   -0.6903    2.3360    2.5591 N   0  0  0  0  0  0  0  0  0  0  0  0
   -0.4476    2.3818    1.2180 N   0  0  0  0  0  0  0  0  0  0  0  0
   -1.5147    1.8731    0.6358 C   0  0  0  0  0  0  0  0  0  0  0  0
   -1.7862    1.9179   -1.0751 S   0  0  0  0  0  0  0  0  0  0  0  0
   -0.2999    2.7766   -1.6686 C   0  0  0  0  0  0  0  0  0  0  0  0
    0.8711    1.8139   -1.7770 C   0  0  0  0  0  0  0  0  0  0  0  0
    1.0560    1.1777   -2.8120 O   0  0  0  0  0  0  0  0  0  0  0  0
    1.6272    1.7610   -0.6263 N   0  0  0  0  0  0  0  0  0  0  0  0
    2.7591    1.0025   -0.5251 C   0  0  0  0  0  0  0  0  0  0  0  0
    3.3942    0.3254   -1.4481 N   0  0  0  0  0  0  0  0  0  0  0  0
    4.4943   -0.2823   -0.8829 C   0  0  0  0  0  0  0  0  0  0  0  0
    4.6671   -0.0505    0.4670 C   0  0  0  0  0  0  0  0  0  0  0  0
    3.4330    0.9670    1.0489 S   0  0  0  0  0  0  0  0  0  0  0  0
    5.7880   -0.5798    1.2936 C   0  0  0  0  0  0  0  0  0  0  0  0
    6.4794   -1.7450    0.5556 C   0  0  0  0  0  0  0  0  0  0  0  0
    6.7197   -1.4242   -0.9323 C   0  0  0  0  0  0  0  0  0  0  0  0
    5.4027   -1.1519   -1.6837 C   0  0  0  0  0  0  0  0  0  0  0  0
   -4.0672    0.0149    0.4433 C   0  0  0  0  0  0  0  0  0  0  0  0
   -4.3093   -2.4999   -3.4087 H   0  0  0  0  0  0  0  0  0  0  0  0
   -5.9096   -1.7252   -3.3916 H   0  0  0  0  0  0  0  0  0  0  0  0
   -5.6384   -3.2851   -2.5322 H   0  0  0  0  0  0  0  0  0  0  0  0
   -7.0558   -1.1661    1.6155 H   0  0  0  0  0  0  0  0  0  0  0  0
   -6.2964    0.0570    3.6285 H   0  0  0  0  0  0  0  0  0  0  0  0
   -4.1548    1.2409    3.6330 H   0  0  0  0  0  0  0  0  0  0  0  0
   -0.0485    3.6365   -1.0394 H   0  0  0  0  0  0  0  0  0  0  0  0
   -0.5031    3.1719   -2.6702 H   0  0  0  0  0  0  0  0  0  0  0  0
    1.2953    2.1924    0.2298 H   0  0  0  0  0  0  0  0  0  0  0  0
    5.4327   -0.9229    2.2743 H   0  0  0  0  0  0  0  0  0  0  0  0
    6.5160    0.2248    1.4627 H   0  0  0  0  0  0  0  0  0  0  0  0
    7.4315   -1.9754    1.0462 H   0  0  0  0  0  0  0  0  0  0  0  0
    5.8548   -2.6457    0.6300 H   0  0  0  0  0  0  0  0  0  0  0  0
    7.3705   -0.5420   -1.0057 H   0  0  0  0  0  0  0  0  0  0  0  0
    7.2504   -2.2547   -1.4132 H   0  0  0  0  0  0  0  0  0  0  0  0
    5.6183   -0.6868   -2.6519 H   0  0  0  0  0  0  0  0  0  0  0  0
    4.8941   -2.1023   -1.8796 H   0  0  0  0  0  0  0  0  0  0  0  0
   -3.4546   -0.0581   -0.4481 H   0  0  0  0  0  0  0  0  0  0  0  0
  1  2  1  0
  2  3  1  0
  3  4  2  0
  3  5  1  0
  5  6  2  0
  6  7  1  0
  7  8  2  0
  8  9  1  0
  9 10  1  0
 10 11  1  0
 11 12  2  0
 12 13  1  0
 13 14  2  0
 14 15  1  0
 15 16  1  0
 16 17  1  0
 17 18  2  0
 17 19  1  0
 19 20  1  0
 20 21  2  0
 21 22  1  0
 22 23  2  0
 23 24  1  0
 23 25  1  0
 25 26  1  0
 26 27  1  0
 27 28  1  0
  9 29  2  0
 29  5  1  0
 14 10  1  0
 24 20  1  0
 28 22  1  0
  1 30  1  0
  1 31  1  0
  1 32  1  0
  6 33  1  0
  7 34  1  0
  8 35  1  0
 16 36  1  0
 16 37  1  0
 19 38  1  0
 25 39  1  0
 25 40  1  0
 26 41  1  0
 26 42  1  0
 27 43  1  0
 27 44  1  0
 28 45  1  0
 28 46  1  0
 29 47  1  0
M  END
$$$$
