
     RDKit          3D

 44 46  0  0  0  0  0  0  0  0999 V2000
    5.8416    1.3737   -0.4475 C   0  0  0  0  0  0  0  0  0  0  0  0
    4.4204    0.9922   -0.7621 C   0  0  0  0  0  0  0  0  0  0  0  0
    3.4093    1.2813    0.1665 C   0  0  0  0  0  0  0  0  0  0  0  0
    2.0770    0.9452   -0.0906 C   0  0  0  0  0  0  0  0  0  0  0  0
    1.7328    0.3100   -1.2868 C   0  0  0  0  0  0  0  0  0  0  0  0
    0.3249   -0.0746   -1.6185 C   0  0  0  0  0  0  0  0  0  0  0  0
    0.1002   -0.6514   -2.6824 O   0  0  0  0  0  0  0  0  0  0  0  0
   -0.7717    0.2678   -0.6110 C   0  0  0  0  0  0  0  0  0  0  0  0
   -2.0755   -0.0696   -1.0857 O   0  0  0  0  0  0  0  0  0  0  0  0
   -2.5509   -1.2093   -0.4858 C   0  0  0  0  0  0  0  0  0  0  0  0
   -2.4926   -2.3839   -1.2410 C   0  0  0  0  0  0  0  0  0  0  0  0
   -2.9727   -3.5774   -0.7097 C   0  0  0  0  0  0  0  0  0  0  0  0
   -3.5252   -3.5921    0.5683 C   0  0  0  0  0  0  0  0  0  0  0  0
   -3.6000   -2.4112    1.3144 C   0  0  0  0  0  0  0  0  0  0  0  0
   -3.1200   -1.1906    0.8034 C   0  0  0  0  0  0  0  0  0  0  0  0
   -3.2275    0.0391    1.6119 C   0  0  0  0  0  0  0  0  0  0  0  0
   -2.6906    0.0990    2.9097 C   0  0  0  0  0  0  0  0  0  0  0  0
   -2.7840    1.2640    3.6760 C   0  0  0  0  0  0  0  0  0  0  0  0
   -3.4180    2.3900    3.1573 C   0  0  0  0  0  0  0  0  0  0  0  0
   -3.9593    2.3516    1.8750 C   0  0  0  0  0  0  0  0  0  0  0  0
   -3.8653    1.1856    1.1107 C   0  0  0  0  0  0  0  0  0  0  0  0
    2.7400    0.0200   -2.2186 C   0  0  0  0  0  0  0  0  0  0  0  0
    4.0820    0.3566   -1.9718 C   0  0  0  0  0  0  0  0  0  0  0  0
    5.1243    0.0240   -3.0047 C   0  0  0  0  0  0  0  0  0  0  0  0
    5.9248    1.8305    0.5445 H   0  0  0  0  0  0  0  0  0  0  0  0
    6.4849    0.4879   -0.4562 H   0  0  0  0  0  0  0  0  0  0  0  0
    6.2099    2.1010   -1.1782 H   0  0  0  0  0  0  0  0  0  0  0  0
    3.6546    1.7754    1.1054 H   0  0  0  0  0  0  0  0  0  0  0  0
    1.3373    1.1939    0.6643 H   0  0  0  0  0  0  0  0  0  0  0  0
   -0.7715    1.3534   -0.4655 H   0  0  0  0  0  0  0  0  0  0  0  0
   -0.5345   -0.2169    0.3443 H   0  0  0  0  0  0  0  0  0  0  0  0
   -2.0634   -2.3628   -2.2407 H   0  0  0  0  0  0  0  0  0  0  0  0
   -2.9207   -4.4914   -1.2950 H   0  0  0  0  0  0  0  0  0  0  0  0
   -3.9088   -4.5205    0.9837 H   0  0  0  0  0  0  0  0  0  0  0  0
   -4.0592   -2.4455    2.3008 H   0  0  0  0  0  0  0  0  0  0  0  0
   -2.1860   -0.7676    3.3317 H   0  0  0  0  0  0  0  0  0  0  0  0
   -2.3631    1.2898    4.6778 H   0  0  0  0  0  0  0  0  0  0  0  0
   -3.4940    3.2961    3.7527 H   0  0  0  0  0  0  0  0  0  0  0  0
   -4.4585    3.2265    1.4664 H   0  0  0  0  0  0  0  0  0  0  0  0
   -4.2974    1.1733    0.1110 H   0  0  0  0  0  0  0  0  0  0  0  0
    2.4749   -0.4749   -3.1529 H   0  0  0  0  0  0  0  0  0  0  0  0
    5.6445    0.9314   -3.3271 H   0  0  0  0  0  0  0  0  0  0  0  0
    4.6776   -0.4311   -3.8955 H   0  0  0  0  0  0  0  0  0  0  0  0
    5.8491   -0.6885   -2.5976 H   0  0  0  0  0  0  0  0  0  0  0  0
  1  2  1  0
  2  3  2  0
  3  4  1  0
  4  5  2  0
  5  6  1  0
  6  7  2  0
  6  8  1  0
  8  9  1  0
  9 10  1  0
 10 11  2  0
 11 12  1  0
 12 13  2  0
 13 14  1  0
 14 15  2  0
 15 16  1  0
 16 17  2  0
 17 18  1  0
 18 19  2  0
 19 20  1  0
 20 21  2  0
  5 22  1  0
 22 23  2  0
 23 24  1  0
 23  2  1  0
 15 10  1  0
 21 16  1  0
  1 25  1  0
  1 26  1  0
  1 27  1  0
  3 28  1  0
  4 29  1  0
  8 30  1  0
  8 31  1  0
 11 32  1  0
 12 33  1  0
 13 34  1  0
 14 35  1  0
 17 36  1  0
 18 37  1  0
 19 38  1  0
 20 39  1  0
 21 40  1  0
 22 41  1  0
 24 42  1  0
 24 43  1  0
 24 44  1  0
M  END
$$$$
