
     RDKit          3D

 33 35  0  0  0  0  0  0  0  0999 V2000
    5.0184   -0.9823   -0.4379 C   0  0  0  0  0  0  0  0  0  0  0  0
    4.1603   -0.5290   -1.6051 C   0  0  0  0  0  0  0  0  0  0  0  0
    2.7570   -0.5049   -1.2568 N   0  0  0  0  0  0  0  0  0  0  0  0
    2.1664    0.5540   -0.6200 C   0  0  0  0  0  0  0  0  0  0  0  0
    2.7773    1.5887   -0.3468 O   0  0  0  0  0  0  0  0  0  0  0  0
    0.7193    0.4005   -0.2605 C   0  0  0  0  0  0  0  0  0  0  0  0
    0.0948    1.4486    0.3392 C   0  0  0  0  0  0  0  0  0  0  0  0
    0.6902    2.6589    0.6511 O   0  0  0  0  0  0  0  0  0  0  0  0
   -1.3230    1.3658    0.7145 C   0  0  0  0  0  0  0  0  0  0  0  0
   -2.0890    2.3551    1.3305 C   0  0  0  0  0  0  0  0  0  0  0  0
   -3.4502    2.1220    1.6294 C   0  0  0  0  0  0  0  0  0  0  0  0
   -4.0673    0.8994    1.3186 C   0  0  0  0  0  0  0  0  0  0  0  0
   -3.3049   -0.0765    0.7091 C   0  0  0  0  0  0  0  0  0  0  0  0
   -1.9736    0.1857    0.4300 C   0  0  0  0  0  0  0  0  0  0  0  0
   -1.3582   -0.8917   -0.1767 N   0  0  0  0  0  0  0  0  0  0  0  0
   -0.0408   -0.8772   -0.5464 C   0  0  0  0  0  0  0  0  0  0  0  0
    0.5039   -1.8439   -1.0795 O   0  0  0  0  0  0  0  0  0  0  0  0
   -2.3258   -1.9788   -0.3263 C   0  0  0  0  0  0  0  0  0  0  0  0
   -3.6637   -1.4596    0.2593 C   0  0  0  0  0  0  0  0  0  0  0  0
    4.9206   -0.3007    0.4134 H   0  0  0  0  0  0  0  0  0  0  0  0
    6.0724   -1.0166   -0.7299 H   0  0  0  0  0  0  0  0  0  0  0  0
    4.7221   -1.9810   -0.1003 H   0  0  0  0  0  0  0  0  0  0  0  0
    4.4684    0.4698   -1.9320 H   0  0  0  0  0  0  0  0  0  0  0  0
    4.2745   -1.2175   -2.4482 H   0  0  0  0  0  0  0  0  0  0  0  0
    2.2061   -1.3518   -1.4064 H   0  0  0  0  0  0  0  0  0  0  0  0
    1.6344    2.6188    0.3742 H   0  0  0  0  0  0  0  0  0  0  0  0
   -1.6418    3.3136    1.5847 H   0  0  0  0  0  0  0  0  0  0  0  0
   -4.0290    2.9084    2.1103 H   0  0  0  0  0  0  0  0  0  0  0  0
   -5.1139    0.7345    1.5540 H   0  0  0  0  0  0  0  0  0  0  0  0
   -2.4146   -2.2355   -1.3875 H   0  0  0  0  0  0  0  0  0  0  0  0
   -1.9582   -2.8602    0.2107 H   0  0  0  0  0  0  0  0  0  0  0  0
   -4.4432   -1.4373   -0.5082 H   0  0  0  0  0  0  0  0  0  0  0  0
   -3.9889   -2.0796    1.1002 H   0  0  0  0  0  0  0  0  0  0  0  0
  1  2  1  0
  2  3  1  0
  3  4  1  0
  4  5  2  0
  4  6  1  0
  6  7  2  0
  7  8  1  0
  7  9  1  0
  9 10  2  0
 10 11  1  0
 11 12  2  0
 12 13  1  0
 13 14  2  0
 14 15  1  0
 15 16  1  0
 16 17  2  0
 15 18  1  0
 18 19  1  0
 16  6  1  0
 14  9  1  0
 19 13  1  0
  1 20  1  0
  1 21  1  0
  1 22  1  0
  2 23  1  0
  2 24  1  0
  3 25  1  0
  8 26  1  0
 10 27  1  0
 11 28  1  0
 12 29  1  0
 18 30  1  0
 18 31  1  0
 19 32  1  0
 19 33  1  0
M  END
$$$$
