
     RDKit          3D

 61 66  0  0  0  0  0  0  0  0999 V2000
    8.8200    3.6021    0.5190 F   0  0  0  0  0  0  0  0  0  0  0  0
    7.6620    2.9366    0.4296 C   0  0  0  0  0  0  0  0  0  0  0  0
    6.8899    2.7503    1.5700 C   0  0  0  0  0  0  0  0  0  0  0  0
    5.6726    2.0728    1.4741 C   0  0  0  0  0  0  0  0  0  0  0  0
    5.2284    1.5881    0.2342 C   0  0  0  0  0  0  0  0  0  0  0  0
    3.9078    0.8610    0.1248 C   0  0  0  0  0  0  0  0  0  0  0  0
    4.0711   -0.6607    0.2943 C   0  0  0  0  0  0  0  0  0  0  0  0
    2.8659   -1.4899    0.1305 N   0  0  0  0  0  0  0  0  0  0  0  0
    2.3369   -1.4769   -1.2487 C   0  0  0  0  0  0  0  0  0  0  0  0
    1.0959   -2.3853   -1.4306 C   0  0  0  0  0  0  0  0  0  0  0  0
    0.0356   -2.0992   -0.4403 N   0  0  0  0  0  0  0  0  0  0  0  0
   -0.9326   -1.1713   -0.7288 C   0  0  0  0  0  0  0  0  0  0  0  0
   -0.8838   -0.0707   -1.5667 C   0  0  0  0  0  0  0  0  0  0  0  0
   -2.0640    0.6824   -1.3723 C   0  0  0  0  0  0  0  0  0  0  0  0
   -2.8408    0.0068   -0.4530 C   0  0  0  0  0  0  0  0  0  0  0  0
   -4.1238    0.3098    0.1412 C   0  0  0  0  0  0  0  0  0  0  0  0
   -4.7429    1.6460   -0.0417 C   0  0  0  0  0  0  0  0  0  0  0  0
   -6.0817    1.7177   -0.4435 C   0  0  0  0  0  0  0  0  0  0  0  0
   -6.6877    2.9623   -0.6185 C   0  0  0  0  0  0  0  0  0  0  0  0
   -5.9628    4.1310   -0.3794 C   0  0  0  0  0  0  0  0  0  0  0  0
   -4.6329    4.0603    0.0404 C   0  0  0  0  0  0  0  0  0  0  0  0
   -4.0200    2.8177    0.2130 C   0  0  0  0  0  0  0  0  0  0  0  0
   -4.7617   -0.5830    0.8377 N   0  0  0  0  0  0  0  0  0  0  0  0
   -4.1910   -1.8604    1.0069 C   0  0  0  0  0  0  0  0  0  0  0  0
   -4.9385   -2.8195    1.6979 C   0  0  0  0  0  0  0  0  0  0  0  0
   -4.4549   -4.1169    1.8705 C   0  0  0  0  0  0  0  0  0  0  0  0
   -3.2168   -4.4707    1.3392 C   0  0  0  0  0  0  0  0  0  0  0  0
   -2.4525   -3.5257    0.6500 C   0  0  0  0  0  0  0  0  0  0  0  0
   -2.9269   -2.2182    0.5072 C   0  0  0  0  0  0  0  0  0  0  0  0
   -2.2208   -1.2028   -0.1862 N   0  0  0  0  0  0  0  0  0  0  0  0
    0.5708   -2.0999    0.9475 C   0  0  0  0  0  0  0  0  0  0  0  0
    1.7875   -1.1530    1.0836 C   0  0  0  0  0  0  0  0  0  0  0  0
    6.0284    1.7766   -0.9039 C   0  0  0  0  0  0  0  0  0  0  0  0
    7.2455    2.4528   -0.8046 C   0  0  0  0  0  0  0  0  0  0  0  0
    7.2330    3.1393    2.5237 H   0  0  0  0  0  0  0  0  0  0  0  0
    5.0709    1.9318    2.3708 H   0  0  0  0  0  0  0  0  0  0  0  0
    3.2252    1.2641    0.8815 H   0  0  0  0  0  0  0  0  0  0  0  0
    3.4587    1.1017   -0.8452 H   0  0  0  0  0  0  0  0  0  0  0  0
    4.4894   -0.8631    1.2901 H   0  0  0  0  0  0  0  0  0  0  0  0
    4.8343   -1.0248   -0.4055 H   0  0  0  0  0  0  0  0  0  0  0  0
    3.1156   -1.8277   -1.9373 H   0  0  0  0  0  0  0  0  0  0  0  0
    2.0758   -0.4563   -1.5497 H   0  0  0  0  0  0  0  0  0  0  0  0
    1.4001   -3.4333   -1.3033 H   0  0  0  0  0  0  0  0  0  0  0  0
    0.7115   -2.3011   -2.4547 H   0  0  0  0  0  0  0  0  0  0  0  0
   -0.0538    0.2097   -2.2008 H   0  0  0  0  0  0  0  0  0  0  0  0
   -2.3072    1.6245   -1.8471 H   0  0  0  0  0  0  0  0  0  0  0  0
   -6.6468    0.8050   -0.6249 H   0  0  0  0  0  0  0  0  0  0  0  0
   -7.7252    3.0194   -0.9361 H   0  0  0  0  0  0  0  0  0  0  0  0
   -6.4393    5.0998   -0.5118 H   0  0  0  0  0  0  0  0  0  0  0  0
   -4.0766    4.9732    0.2394 H   0  0  0  0  0  0  0  0  0  0  0  0
   -2.9905    2.7706    0.5608 H   0  0  0  0  0  0  0  0  0  0  0  0
   -5.9122   -2.5482    2.0959 H   0  0  0  0  0  0  0  0  0  0  0  0
   -5.0506   -4.8538    2.4046 H   0  0  0  0  0  0  0  0  0  0  0  0
   -2.8494   -5.4875    1.4499 H   0  0  0  0  0  0  0  0  0  0  0  0
   -1.5131   -3.8447    0.2129 H   0  0  0  0  0  0  0  0  0  0  0  0
    0.8750   -3.1245    1.1996 H   0  0  0  0  0  0  0  0  0  0  0  0
   -0.1949   -1.8114    1.6767 H   0  0  0  0  0  0  0  0  0  0  0  0
    1.4487   -0.1193    0.9333 H   0  0  0  0  0  0  0  0  0  0  0  0
    2.1692   -1.2302    2.1086 H   0  0  0  0  0  0  0  0  0  0  0  0
    5.7045    1.4047   -1.8742 H   0  0  0  0  0  0  0  0  0  0  0  0
    7.8655    2.6118   -1.6810 H   0  0  0  0  0  0  0  0  0  0  0  0
  1  2  1  0
  2  3  2  0
  3  4  1  0
  4  5  2  0
  5  6  1  0
  6  7  1  0
  7  8  1  0
  8  9  1  0
  9 10  1  0
 10 11  1  0
 11 12  1  0
 12 13  2  0
 13 14  1  0
 14 15  2  0
 15 16  1  0
 16 17  1  0
 17 18  2  0
 18 19  1  0
 19 20  2  0
 20 21  1  0
 21 22  2  0
 16 23  2  0
 23 24  1  0
 24 25  2  0
 25 26  1  0
 26 27  2  0
 27 28  1  0
 28 29  2  0
 29 30  1  0
 11 31  1  0
 31 32  1  0
  5 33  1  0
 33 34  2  0
 34  2  1  0
 32  8  1  0
 30 12  1  0
 30 15  1  0
 22 17  1  0
 29 24  1  0
  3 35  1  0
  4 36  1  0
  6 37  1  0
  6 38  1  0
  7 39  1  0
  7 40  1  0
  9 41  1  0
  9 42  1  0
 10 43  1  0
 10 44  1  0
 13 45  1  0
 14 46  1  0
 18 47  1  0
 19 48  1  0
 20 49  1  0
 21 50  1  0
 22 51  1  0
 25 52  1  0
 26 53  1  0
 27 54  1  0
 28 55  1  0
 31 56  1  0
 31 57  1  0
 32 58  1  0
 32 59  1  0
 33 60  1  0
 34 61  1  0
M  END
$$$$
