
     RDKit          3D

 34 35  0  0  0  0  0  0  0  0999 V2000
   -3.8198   -0.2070   -1.0996 O   0  0  0  0  0  0  0  0  0  0  0  0
   -3.0369    0.1771   -0.2244 C   0  0  0  0  0  0  0  0  0  0  0  0
   -3.1175    1.5930    0.3650 C   0  0  0  0  0  0  0  0  0  0  0  0
   -4.8146    2.0994    0.5314 Cl  0  0  0  0  0  0  0  0  0  0  0  0
   -2.2369    2.7026   -0.7094 Cl  0  0  0  0  0  0  0  0  0  0  0  0
   -2.0262   -0.6661    0.2430 N   0  0  0  0  0  0  0  0  0  0  0  0
   -0.9940   -0.2711    1.2103 C   0  0  0  0  0  0  0  0  0  0  0  0
    0.0424   -1.3809    1.4836 C   0  0  0  0  0  0  0  0  0  0  0  0
    0.6044   -2.0064    0.2808 N   0  0  0  0  0  0  0  0  0  0  0  0
    1.9221   -1.5111   -0.1365 C   0  0  0  0  0  0  0  0  0  0  0  0
    2.0581   -0.0123   -0.3206 C   0  0  0  0  0  0  0  0  0  0  0  0
    1.6991    0.6097   -1.5248 C   0  0  0  0  0  0  0  0  0  0  0  0
    1.7978    1.9952   -1.6691 C   0  0  0  0  0  0  0  0  0  0  0  0
    2.2704    2.7761   -0.6171 C   0  0  0  0  0  0  0  0  0  0  0  0
    2.6523    2.1724    0.5780 C   0  0  0  0  0  0  0  0  0  0  0  0
    2.5497    0.7878    0.7246 C   0  0  0  0  0  0  0  0  0  0  0  0
   -0.3635   -2.1524   -0.8199 C   0  0  0  0  0  0  0  0  0  0  0  0
   -1.8315   -1.9772   -0.3866 C   0  0  0  0  0  0  0  0  0  0  0  0
   -2.6786    1.6557    1.3604 H   0  0  0  0  0  0  0  0  0  0  0  0
   -0.5055    0.6303    0.8297 H   0  0  0  0  0  0  0  0  0  0  0  0
   -1.4951   -0.0089    2.1484 H   0  0  0  0  0  0  0  0  0  0  0  0
   -0.4641   -2.1769    2.0463 H   0  0  0  0  0  0  0  0  0  0  0  0
    0.8218   -1.0187    2.1632 H   0  0  0  0  0  0  0  0  0  0  0  0
    2.2380   -2.0165   -1.0592 H   0  0  0  0  0  0  0  0  0  0  0  0
    2.6582   -1.8366    0.6109 H   0  0  0  0  0  0  0  0  0  0  0  0
    1.3401    0.0219   -2.3657 H   0  0  0  0  0  0  0  0  0  0  0  0
    1.5054    2.4651   -2.6050 H   0  0  0  0  0  0  0  0  0  0  0  0
    2.3469    3.8541   -0.7330 H   0  0  0  0  0  0  0  0  0  0  0  0
    3.0325    2.7797    1.3953 H   0  0  0  0  0  0  0  0  0  0  0  0
    2.8568    0.3337    1.6643 H   0  0  0  0  0  0  0  0  0  0  0  0
   -0.1768   -1.4213   -1.6118 H   0  0  0  0  0  0  0  0  0  0  0  0
   -0.2359   -3.1446   -1.2672 H   0  0  0  0  0  0  0  0  0  0  0  0
   -2.4853   -2.1042   -1.2549 H   0  0  0  0  0  0  0  0  0  0  0  0
   -2.1139   -2.7413    0.3474 H   0  0  0  0  0  0  0  0  0  0  0  0
  1  2  2  0
  2  3  1  0
  3  4  1  0
  3  5  1  0
  2  6  1  0
  6  7  1  0
  7  8  1  0
  8  9  1  0
  9 10  1  0
 10 11  1  0
 11 12  2  0
 12 13  1  0
 13 14  2  0
 14 15  1  0
 15 16  2  0
  9 17  1  0
 17 18  1  0
 18  6  1  0
 16 11  1  0
  3 19  1  0
  7 20  1  0
  7 21  1  0
  8 22  1  0
  8 23  1  0
 10 24  1  0
 10 25  1  0
 12 26  1  0
 13 27  1  0
 14 28  1  0
 15 29  1  0
 16 30  1  0
 17 31  1  0
 17 32  1  0
 18 33  1  0
 18 34  1  0
M  END
$$$$
