
     RDKit          3D

 61 66  0  0  0  0  0  0  0  0999 V2000
    9.4070    1.6643    1.8488 F   0  0  0  0  0  0  0  0  0  0  0  0
    8.9836    0.4257    1.4695 C   0  0  0  0  0  0  0  0  0  0  0  0
    8.9024   -0.3077    2.6140 F   0  0  0  0  0  0  0  0  0  0  0  0
   10.0112   -0.1127    0.7544 F   0  0  0  0  0  0  0  0  0  0  0  0
    7.6833    0.4440    0.7056 C   0  0  0  0  0  0  0  0  0  0  0  0
    6.7864    1.5131    0.8392 C   0  0  0  0  0  0  0  0  0  0  0  0
    5.5744    1.5126    0.1450 C   0  0  0  0  0  0  0  0  0  0  0  0
    5.2255    0.4382   -0.6859 C   0  0  0  0  0  0  0  0  0  0  0  0
    3.9195    0.4465   -1.4555 C   0  0  0  0  0  0  0  0  0  0  0  0
    2.7486    0.7362   -0.6134 N   0  0  0  0  0  0  0  0  0  0  0  0
    2.4256   -0.3698    0.3181 C   0  0  0  0  0  0  0  0  0  0  0  0
    1.2347   -1.2543   -0.1053 C   0  0  0  0  0  0  0  0  0  0  0  0
    0.0101   -0.4529   -0.2747 N   0  0  0  0  0  0  0  0  0  0  0  0
   -1.2064   -1.1023   -0.4593 C   0  0  0  0  0  0  0  0  0  0  0  0
   -1.1826   -2.3700   -0.7934 N   0  0  0  0  0  0  0  0  0  0  0  0
   -2.3762   -3.0758   -1.0357 C   0  0  0  0  0  0  0  0  0  0  0  0
   -2.2885   -4.4204   -1.4016 C   0  0  0  0  0  0  0  0  0  0  0  0
   -3.4411   -5.1647   -1.6670 C   0  0  0  0  0  0  0  0  0  0  0  0
   -4.6979   -4.5672   -1.5686 C   0  0  0  0  0  0  0  0  0  0  0  0
   -4.8091   -3.2251   -1.2037 C   0  0  0  0  0  0  0  0  0  0  0  0
   -3.6468   -2.4932   -0.9417 C   0  0  0  0  0  0  0  0  0  0  0  0
   -3.6673   -1.1438   -0.5533 N   0  0  0  0  0  0  0  0  0  0  0  0
   -4.7436   -0.3130   -0.3494 C   0  0  0  0  0  0  0  0  0  0  0  0
   -4.2783    0.9064    0.1049 C   0  0  0  0  0  0  0  0  0  0  0  0
   -5.1378    2.0227    0.4716 C   0  0  0  0  0  0  0  0  0  0  0  0
   -6.3204    2.2886   -0.2325 C   0  0  0  0  0  0  0  0  0  0  0  0
   -7.1338    3.3673    0.1254 C   0  0  0  0  0  0  0  0  0  0  0  0
   -6.7730    4.1910    1.1896 C   0  0  0  0  0  0  0  0  0  0  0  0
   -5.5986    3.9389    1.8955 C   0  0  0  0  0  0  0  0  0  0  0  0
   -4.7840    2.8612    1.5375 C   0  0  0  0  0  0  0  0  0  0  0  0
   -2.8624    0.7974    0.1663 C   0  0  0  0  0  0  0  0  0  0  0  0
   -2.5018   -0.4579   -0.2920 C   0  0  0  0  0  0  0  0  0  0  0  0
    0.2276    0.9261   -0.7366 C   0  0  0  0  0  0  0  0  0  0  0  0
    1.5835    1.0724   -1.4600 C   0  0  0  0  0  0  0  0  0  0  0  0
    6.1227   -0.6296   -0.8212 C   0  0  0  0  0  0  0  0  0  0  0  0
    7.3361   -0.6298   -0.1279 C   0  0  0  0  0  0  0  0  0  0  0  0
    7.0268    2.3555    1.4862 H   0  0  0  0  0  0  0  0  0  0  0  0
    4.8905    2.3521    0.2603 H   0  0  0  0  0  0  0  0  0  0  0  0
    3.7804   -0.5054   -1.9848 H   0  0  0  0  0  0  0  0  0  0  0  0
    4.0245    1.2216   -2.2267 H   0  0  0  0  0  0  0  0  0  0  0  0
    2.1765    0.0944    1.2819 H   0  0  0  0  0  0  0  0  0  0  0  0
    3.2935   -1.0094    0.5160 H   0  0  0  0  0  0  0  0  0  0  0  0
    1.0723   -2.0108    0.6718 H   0  0  0  0  0  0  0  0  0  0  0  0
    1.4750   -1.7765   -1.0398 H   0  0  0  0  0  0  0  0  0  0  0  0
   -1.3108   -4.8879   -1.4808 H   0  0  0  0  0  0  0  0  0  0  0  0
   -3.3553   -6.2105   -1.9502 H   0  0  0  0  0  0  0  0  0  0  0  0
   -5.5923   -5.1502   -1.7749 H   0  0  0  0  0  0  0  0  0  0  0  0
   -5.7974   -2.7843   -1.1297 H   0  0  0  0  0  0  0  0  0  0  0  0
   -5.7551   -0.6560   -0.5099 H   0  0  0  0  0  0  0  0  0  0  0  0
   -6.6148    1.6679   -1.0750 H   0  0  0  0  0  0  0  0  0  0  0  0
   -8.0475    3.5644   -0.4293 H   0  0  0  0  0  0  0  0  0  0  0  0
   -7.4065    5.0291    1.4685 H   0  0  0  0  0  0  0  0  0  0  0  0
   -5.3164    4.5781    2.7279 H   0  0  0  0  0  0  0  0  0  0  0  0
   -3.8784    2.6760    2.1102 H   0  0  0  0  0  0  0  0  0  0  0  0
   -2.1806    1.5648    0.5046 H   0  0  0  0  0  0  0  0  0  0  0  0
   -0.5561    1.2311   -1.4392 H   0  0  0  0  0  0  0  0  0  0  0  0
    0.1919    1.6034    0.1246 H   0  0  0  0  0  0  0  0  0  0  0  0
    1.6903    2.1066   -1.8084 H   0  0  0  0  0  0  0  0  0  0  0  0
    1.5605    0.4307   -2.3523 H   0  0  0  0  0  0  0  0  0  0  0  0
    5.8818   -1.4729   -1.4654 H   0  0  0  0  0  0  0  0  0  0  0  0
    8.0148   -1.4741   -0.2421 H   0  0  0  0  0  0  0  0  0  0  0  0
  1  2  1  0
  2  3  1  0
  2  4  1  0
  2  5  1  0
  5  6  2  0
  6  7  1  0
  7  8  2  0
  8  9  1  0
  9 10  1  0
 10 11  1  0
 11 12  1  0
 12 13  1  0
 13 14  1  0
 14 15  2  0
 15 16  1  0
 16 17  2  0
 17 18  1  0
 18 19  2  0
 19 20  1  0
 20 21  2  0
 21 22  1  0
 22 23  1  0
 23 24  2  0
 24 25  1  0
 25 26  2  0
 26 27  1  0
 27 28  2  0
 28 29  1  0
 29 30  2  0
 24 31  1  0
 31 32  2  0
 13 33  1  0
 33 34  1  0
  8 35  1  0
 35 36  2  0
 36  5  1  0
 34 10  1  0
 32 14  1  0
 21 16  1  0
 32 22  1  0
 30 25  1  0
  6 37  1  0
  7 38  1  0
  9 39  1  0
  9 40  1  0
 11 41  1  0
 11 42  1  0
 12 43  1  0
 12 44  1  0
 17 45  1  0
 18 46  1  0
 19 47  1  0
 20 48  1  0
 23 49  1  0
 26 50  1  0
 27 51  1  0
 28 52  1  0
 29 53  1  0
 30 54  1  0
 31 55  1  0
 33 56  1  0
 33 57  1  0
 34 58  1  0
 34 59  1  0
 35 60  1  0
 36 61  1  0
M  END
$$$$
