
     RDKit          3D

 46 48  0  0  0  0  0  0  0  0999 V2000
   -3.1827    2.3592   -0.6379 C   0  0  0  0  0  0  0  0  0  0  0  0
   -3.1258    1.4024   -1.5750 C   0  0  0  0  0  0  0  0  0  0  0  0
   -2.5951   -0.0009   -1.4444 C   0  0  0  0  0  0  0  0  0  0  0  0
   -2.2602   -0.4208   -0.0962 N   0  0  0  0  0  0  0  0  0  0  0  0
   -1.0138   -0.4726    0.4728 C   0  0  0  0  0  0  0  0  0  0  0  0
    0.4540   -0.0875   -0.3546 S   0  0  0  0  0  0  0  0  0  0  0  0
    1.6624   -0.3607    0.9772 C   0  0  0  0  0  0  0  0  0  0  0  0
    3.0716   -0.1201    0.4906 C   0  0  0  0  0  0  0  0  0  0  0  0
    3.8251   -1.1700   -0.0541 C   0  0  0  0  0  0  0  0  0  0  0  0
    5.1246   -0.9470   -0.5198 C   0  0  0  0  0  0  0  0  0  0  0  0
    5.6875    0.3334   -0.4525 C   0  0  0  0  0  0  0  0  0  0  0  0
    7.0641    0.6282   -0.9357 C   0  0  0  0  0  0  0  0  0  0  0  0
    7.5498    1.7486   -0.9467 O   0  0  0  0  0  0  0  0  0  0  0  0
    7.6833   -0.5080   -1.3442 O   0  0  0  0  0  0  0  0  0  0  0  0
    9.0162   -0.3047   -1.8148 C   0  0  0  0  0  0  0  0  0  0  0  0
    4.9344    1.3868    0.0824 C   0  0  0  0  0  0  0  0  0  0  0  0
    3.6363    1.1621    0.5488 C   0  0  0  0  0  0  0  0  0  0  0  0
   -1.1106   -0.8345    1.7292 N   0  0  0  0  0  0  0  0  0  0  0  0
   -2.4399   -1.0258    2.0057 N   0  0  0  0  0  0  0  0  0  0  0  0
   -3.1306   -0.8008    0.9046 C   0  0  0  0  0  0  0  0  0  0  0  0
   -4.5591   -0.8681    0.8568 C   0  0  0  0  0  0  0  0  0  0  0  0
   -5.4216   -1.7911   -0.3010 S   0  0  0  0  0  0  0  0  0  0  0  0
   -6.9012   -1.3214    0.4205 C   0  0  0  0  0  0  0  0  0  0  0  0
   -8.0828   -1.7289   -0.0694 N   0  0  0  0  0  0  0  0  0  0  0  0
   -6.7949   -0.5349    1.4598 N   0  0  0  0  0  0  0  0  0  0  0  0
   -5.4576   -0.2917    1.7430 C   0  0  0  0  0  0  0  0  0  0  0  0
   -5.1322    0.5471    2.9286 C   0  0  0  0  0  0  0  0  0  0  0  0
   -2.8244    2.2172    0.3774 H   0  0  0  0  0  0  0  0  0  0  0  0
   -3.5944    3.3367   -0.8743 H   0  0  0  0  0  0  0  0  0  0  0  0
   -3.5019    1.6506   -2.5672 H   0  0  0  0  0  0  0  0  0  0  0  0
   -1.7132   -0.1095   -2.0826 H   0  0  0  0  0  0  0  0  0  0  0  0
   -3.3256   -0.7094   -1.8415 H   0  0  0  0  0  0  0  0  0  0  0  0
    1.4450    0.3087    1.8177 H   0  0  0  0  0  0  0  0  0  0  0  0
    1.5754   -1.3872    1.3520 H   0  0  0  0  0  0  0  0  0  0  0  0
    3.4024   -2.1710   -0.1212 H   0  0  0  0  0  0  0  0  0  0  0  0
    5.6834   -1.7824   -0.9353 H   0  0  0  0  0  0  0  0  0  0  0  0
    9.4341   -1.2799   -2.0809 H   0  0  0  0  0  0  0  0  0  0  0  0
    9.0128    0.3266   -2.7091 H   0  0  0  0  0  0  0  0  0  0  0  0
    9.6393    0.1366   -1.0305 H   0  0  0  0  0  0  0  0  0  0  0  0
    5.3553    2.3892    0.1367 H   0  0  0  0  0  0  0  0  0  0  0  0
    3.0678    1.9960    0.9558 H   0  0  0  0  0  0  0  0  0  0  0  0
   -8.8836   -1.1908    0.2423 H   0  0  0  0  0  0  0  0  0  0  0  0
   -8.1228   -2.0047   -1.0417 H   0  0  0  0  0  0  0  0  0  0  0  0
   -6.0397    0.9806    3.3608 H   0  0  0  0  0  0  0  0  0  0  0  0
   -4.4666    1.3700    2.6506 H   0  0  0  0  0  0  0  0  0  0  0  0
   -4.6443   -0.0560    3.7006 H   0  0  0  0  0  0  0  0  0  0  0  0
  1  2  2  0
  2  3  1  0
  3  4  1  0
  4  5  1  0
  5  6  1  0
  6  7  1  0
  7  8  1  0
  8  9  2  0
  9 10  1  0
 10 11  2  0
 11 12  1  0
 12 13  2  0
 12 14  1  0
 14 15  1  0
 11 16  1  0
 16 17  2  0
  5 18  2  0
 18 19  1  0
 19 20  2  0
 20 21  1  0
 21 22  1  0
 22 23  1  0
 23 24  1  0
 23 25  2  0
 25 26  1  0
 26 27  1  0
 20  4  1  0
 26 21  2  0
 17  8  1  0
  1 28  1  0
  1 29  1  0
  2 30  1  0
  3 31  1  0
  3 32  1  0
  7 33  1  0
  7 34  1  0
  9 35  1  0
 10 36  1  0
 15 37  1  0
 15 38  1  0
 15 39  1  0
 16 40  1  0
 17 41  1  0
 24 42  1  0
 24 43  1  0
 27 44  1  0
 27 45  1  0
 27 46  1  0
M  END
$$$$
