
     RDKit          3D

 31 32  0  0  0  0  0  0  0  0999 V2000
   -3.5197    1.3022   -1.4296 C   0  0  0  0  0  0  0  0  0  0  0  0
   -3.2558    0.6397   -0.1033 C   0  0  0  0  0  0  0  0  0  0  0  0
   -4.1978    0.4806    0.6772 O   0  0  0  0  0  0  0  0  0  0  0  0
   -1.8905    0.1937    0.2352 C   0  0  0  0  0  0  0  0  0  0  0  0
   -1.6031   -0.6350    1.3164 C   0  0  0  0  0  0  0  0  0  0  0  0
   -2.4947   -1.2462    2.3409 C   0  0  0  0  0  0  0  0  0  0  0  0
   -0.2546   -0.8636    1.3366 N   0  0  0  0  0  0  0  0  0  0  0  0
    0.3600   -0.2131    0.2981 C   0  0  0  0  0  0  0  0  0  0  0  0
    1.8014   -0.3223    0.0872 C   0  0  0  0  0  0  0  0  0  0  0  0
    2.6975    0.0952    1.0787 C   0  0  0  0  0  0  0  0  0  0  0  0
    4.0751   -0.0195    0.8792 C   0  0  0  0  0  0  0  0  0  0  0  0
    4.5656   -0.5541   -0.3111 C   0  0  0  0  0  0  0  0  0  0  0  0
    3.6806   -0.9731   -1.3033 C   0  0  0  0  0  0  0  0  0  0  0  0
    2.3031   -0.8576   -1.1049 C   0  0  0  0  0  0  0  0  0  0  0  0
   -0.6234    0.4778   -0.4031 C   0  0  0  0  0  0  0  0  0  0  0  0
   -0.3734    1.3628   -1.5784 C   0  0  0  0  0  0  0  0  0  0  0  0
   -4.6005    1.3652   -1.5925 H   0  0  0  0  0  0  0  0  0  0  0  0
   -3.1162    2.3166   -1.4309 H   0  0  0  0  0  0  0  0  0  0  0  0
   -3.0984    0.7089   -2.2443 H   0  0  0  0  0  0  0  0  0  0  0  0
   -3.2805   -1.8388    1.8618 H   0  0  0  0  0  0  0  0  0  0  0  0
   -1.9400   -1.9103    3.0121 H   0  0  0  0  0  0  0  0  0  0  0  0
   -2.9634   -0.4686    2.9521 H   0  0  0  0  0  0  0  0  0  0  0  0
    0.2275   -1.4481    2.0067 H   0  0  0  0  0  0  0  0  0  0  0  0
    2.3290    0.5269    2.0062 H   0  0  0  0  0  0  0  0  0  0  0  0
    4.7647    0.3126    1.6510 H   0  0  0  0  0  0  0  0  0  0  0  0
    5.6378   -0.6425   -0.4665 H   0  0  0  0  0  0  0  0  0  0  0  0
    4.0616   -1.3910   -2.2314 H   0  0  0  0  0  0  0  0  0  0  0  0
    1.6217   -1.1942   -1.8827 H   0  0  0  0  0  0  0  0  0  0  0  0
   -0.7591    0.9036   -2.4933 H   0  0  0  0  0  0  0  0  0  0  0  0
   -0.8480    2.3377   -1.4357 H   0  0  0  0  0  0  0  0  0  0  0  0
    0.6935    1.5546   -1.7281 H   0  0  0  0  0  0  0  0  0  0  0  0
  1  2  1  0
  2  3  2  0
  2  4  1  0
  4  5  2  0
  5  6  1  0
  5  7  1  0
  7  8  1  0
  8  9  1  0
  9 10  2  0
 10 11  1  0
 11 12  2  0
 12 13  1  0
 13 14  2  0
  8 15  2  0
 15 16  1  0
 15  4  1  0
 14  9  1  0
  1 17  1  0
  1 18  1  0
  1 19  1  0
  6 20  1  0
  6 21  1  0
  6 22  1  0
  7 23  1  0
 10 24  1  0
 11 25  1  0
 12 26  1  0
 13 27  1  0
 14 28  1  0
 16 29  1  0
 16 30  1  0
 16 31  1  0
M  END
$$$$
