
     RDKit          3D

 53 55  0  0  0  0  0  0  0  0999 V2000
   -8.4883   -2.7315    1.5198 C   0  0  0  0  0  0  0  0  0  0  0  0
   -7.4242   -3.4383    2.1451 O   0  0  0  0  0  0  0  0  0  0  0  0
   -6.1525   -3.1018    1.7715 C   0  0  0  0  0  0  0  0  0  0  0  0
   -5.8015   -2.0906    0.8736 C   0  0  0  0  0  0  0  0  0  0  0  0
   -4.4559   -1.8477    0.5806 C   0  0  0  0  0  0  0  0  0  0  0  0
   -3.4634   -2.6167    1.1946 C   0  0  0  0  0  0  0  0  0  0  0  0
   -1.7600   -2.2965    0.8082 S   0  0  0  0  0  6  0  0  0  0  0  0
   -1.6832   -2.0304   -0.6108 O   0  0  0  0  0  0  0  0  0  0  0  0
   -0.9497   -3.3214    1.4296 O   0  0  0  0  0  0  0  0  0  0  0  0
   -1.4777   -0.8461    1.6271 N   0  0  0  0  0  0  0  0  0  0  0  0
   -1.5947   -0.8651    3.0917 C   0  0  0  0  0  0  0  0  0  0  0  0
   -0.8518    0.3935    3.4691 C   0  0  0  0  0  0  0  0  0  0  0  0
    0.2443    0.4558    2.5546 O   0  0  0  0  0  0  0  0  0  0  0  0
   -0.1485   -0.2507    1.3508 C   0  0  0  0  0  0  0  0  0  0  0  0
   -0.2258    0.7634    0.1887 C   0  0  0  0  0  0  0  0  0  0  0  0
    1.0062    1.5068   -0.0141 N   0  0  0  0  0  0  0  0  0  0  0  0
    2.1348    0.9058   -0.5192 C   0  0  0  0  0  0  0  0  0  0  0  0
    2.2021   -0.2298   -0.9672 O   0  0  0  0  0  0  0  0  0  0  0  0
    3.3971    1.7962   -0.4617 C   0  0  0  0  0  0  0  0  0  0  0  0
    3.3382    2.9151    0.0287 O   0  0  0  0  0  0  0  0  0  0  0  0
    4.5098    1.1990   -1.0034 N   0  0  0  0  0  0  0  0  0  0  0  0
    5.7503    1.9029   -1.1919 C   0  0  0  0  0  0  0  0  0  0  0  0
    5.8441    2.4624   -2.5884 C   0  0  0  0  0  0  0  0  0  0  0  0
    6.4455    1.7202   -3.6175 C   0  0  0  0  0  0  0  0  0  0  0  0
    6.5084    2.2352   -4.9135 C   0  0  0  0  0  0  0  0  0  0  0  0
    5.9648    3.4857   -5.1826 C   0  0  0  0  0  0  0  0  0  0  0  0
    6.0258    3.9771   -6.4272 F   0  0  0  0  0  0  0  0  0  0  0  0
    5.3557    4.2316   -4.1812 C   0  0  0  0  0  0  0  0  0  0  0  0
    5.2916    3.7194   -2.8848 C   0  0  0  0  0  0  0  0  0  0  0  0
   -3.8019   -3.6369    2.0838 C   0  0  0  0  0  0  0  0  0  0  0  0
   -5.1480   -3.8701    2.3713 C   0  0  0  0  0  0  0  0  0  0  0  0
   -9.4296   -3.1345    1.9058 H   0  0  0  0  0  0  0  0  0  0  0  0
   -8.4806   -2.8835    0.4353 H   0  0  0  0  0  0  0  0  0  0  0  0
   -8.4543   -1.6663    1.7708 H   0  0  0  0  0  0  0  0  0  0  0  0
   -6.5495   -1.4765    0.3825 H   0  0  0  0  0  0  0  0  0  0  0  0
   -4.1885   -1.0642   -0.1255 H   0  0  0  0  0  0  0  0  0  0  0  0
   -2.6329   -0.8364    3.4295 H   0  0  0  0  0  0  0  0  0  0  0  0
   -1.0884   -1.7395    3.5140 H   0  0  0  0  0  0  0  0  0  0  0  0
   -1.4698    1.2862    3.3215 H   0  0  0  0  0  0  0  0  0  0  0  0
   -0.4848    0.3813    4.4987 H   0  0  0  0  0  0  0  0  0  0  0  0
    0.6186   -1.0115    1.1719 H   0  0  0  0  0  0  0  0  0  0  0  0
   -1.0012    1.5112    0.3899 H   0  0  0  0  0  0  0  0  0  0  0  0
   -0.4760    0.2585   -0.7493 H   0  0  0  0  0  0  0  0  0  0  0  0
    1.1537    2.3788    0.4878 H   0  0  0  0  0  0  0  0  0  0  0  0
    4.3616    0.3043   -1.4617 H   0  0  0  0  0  0  0  0  0  0  0  0
    6.5643    1.1928   -1.0098 H   0  0  0  0  0  0  0  0  0  0  0  0
    5.8485    2.7067   -0.4532 H   0  0  0  0  0  0  0  0  0  0  0  0
    6.8666    0.7377   -3.4158 H   0  0  0  0  0  0  0  0  0  0  0  0
    6.9736    1.6692   -5.7141 H   0  0  0  0  0  0  0  0  0  0  0  0
    4.9316    5.2026   -4.4153 H   0  0  0  0  0  0  0  0  0  0  0  0
    4.8038    4.3007   -2.1034 H   0  0  0  0  0  0  0  0  0  0  0  0
   -3.0371   -4.2527    2.5511 H   0  0  0  0  0  0  0  0  0  0  0  0
   -5.4213   -4.6635    3.0639 H   0  0  0  0  0  0  0  0  0  0  0  0
  1  2  1  0
  2  3  1  0
  3  4  2  0
  4  5  1  0
  5  6  2  0
  6  7  1  0
  7  8  2  0
  7  9  2  0
  7 10  1  0
 10 11  1  0
 11 12  1  0
 12 13  1  0
 13 14  1  0
 14 15  1  0
 15 16  1  0
 16 17  1  0
 17 18  2  0
 17 19  1  0
 19 20  2  0
 19 21  1  0
 21 22  1  0
 22 23  1  0
 23 24  2  0
 24 25  1  0
 25 26  2  0
 26 27  1  0
 26 28  1  0
 28 29  2  0
  6 30  1  0
 30 31  2  0
 31  3  1  0
 14 10  1  0
 29 23  1  0
  1 32  1  0
  1 33  1  0
  1 34  1  0
  4 35  1  0
  5 36  1  0
 11 37  1  0
 11 38  1  0
 12 39  1  0
 12 40  1  0
 14 41  1  0
 15 42  1  0
 15 43  1  0
 16 44  1  0
 21 45  1  0
 22 46  1  0
 22 47  1  0
 24 48  1  0
 25 49  1  0
 28 50  1  0
 29 51  1  0
 30 52  1  0
 31 53  1  0
M  END
$$$$
