
     RDKit          3D

 33 35  0  0  0  0  0  0  0  0999 V2000
    5.9735    0.3762    0.7426 C   0  0  0  0  0  0  0  0  0  0  0  0
    4.5145    0.2427    0.5923 N   0  0  0  0  0  4  0  0  0  0  0  0
    3.9738   -0.9760    0.3708 C   0  0  0  0  0  0  0  0  0  0  0  0
    2.5983   -1.1267    0.2339 C   0  0  0  0  0  0  0  0  0  0  0  0
    1.7678   -0.0105    0.3225 C   0  0  0  0  0  0  0  0  0  0  0  0
    0.3079   -0.1077    0.2176 C   0  0  0  0  0  0  0  0  0  0  0  0
   -0.3351   -0.8935   -0.6624 C   0  0  0  0  0  0  0  0  0  0  0  0
   -1.7540   -1.0125   -0.7776 C   0  0  0  0  0  0  0  0  0  0  0  0
   -2.3684   -2.1931   -1.1360 C   0  0  0  0  0  0  0  0  0  0  0  0
   -3.7217   -1.9813   -1.1388 N   0  0  0  0  0  0  0  0  0  0  0  0
   -3.9994   -0.6729   -0.8161 C   0  0  0  0  0  0  0  0  0  0  0  0
   -5.2343   -0.0200   -0.7151 C   0  0  0  0  0  0  0  0  0  0  0  0
   -5.2273    1.3378   -0.3882 C   0  0  0  0  0  0  0  0  0  0  0  0
   -4.0308    2.0157   -0.1776 C   0  0  0  0  0  0  0  0  0  0  0  0
   -2.8045    1.3475   -0.2810 C   0  0  0  0  0  0  0  0  0  0  0  0
   -2.7782   -0.0298   -0.5944 C   0  0  0  0  0  0  0  0  0  0  0  0
    2.3475    1.2311    0.5774 C   0  0  0  0  0  0  0  0  0  0  0  0
    3.7280    1.3360    0.7053 C   0  0  0  0  0  0  0  0  0  0  0  0
    6.4673   -0.3904    0.1398 H   0  0  0  0  0  0  0  0  0  0  0  0
    6.2063    0.2485    1.8026 H   0  0  0  0  0  0  0  0  0  0  0  0
    6.2808    1.3649    0.3921 H   0  0  0  0  0  0  0  0  0  0  0  0
    4.6486   -1.8254    0.3111 H   0  0  0  0  0  0  0  0  0  0  0  0
    2.1847   -2.1203    0.0724 H   0  0  0  0  0  0  0  0  0  0  0  0
   -0.2607    0.5063    0.9131 H   0  0  0  0  0  0  0  0  0  0  0  0
    0.2398   -1.5195   -1.3417 H   0  0  0  0  0  0  0  0  0  0  0  0
   -1.9706   -3.1705   -1.3747 H   0  0  0  0  0  0  0  0  0  0  0  0
   -4.4227   -2.6764   -1.3572 H   0  0  0  0  0  0  0  0  0  0  0  0
   -6.1697   -0.5427   -0.8894 H   0  0  0  0  0  0  0  0  0  0  0  0
   -6.1712    1.8726   -0.3056 H   0  0  0  0  0  0  0  0  0  0  0  0
   -4.0486    3.0758    0.0639 H   0  0  0  0  0  0  0  0  0  0  0  0
   -1.8844    1.9013   -0.1308 H   0  0  0  0  0  0  0  0  0  0  0  0
    1.7312    2.1240    0.6698 H   0  0  0  0  0  0  0  0  0  0  0  0
    4.2115    2.2891    0.9009 H   0  0  0  0  0  0  0  0  0  0  0  0
  1  2  1  0
  2  3  2  0
  3  4  1  0
  4  5  2  0
  5  6  1  0
  6  7  2  3
  7  8  1  0
  8  9  2  0
  9 10  1  0
 10 11  1  0
 11 12  2  0
 12 13  1  0
 13 14  2  0
 14 15  1  0
 15 16  2  0
  5 17  1  0
 17 18  2  0
 18  2  1  0
 16  8  1  0
 16 11  1  0
  1 19  1  0
  1 20  1  0
  1 21  1  0
  3 22  1  0
  4 23  1  0
  6 24  1  0
  7 25  1  0
  9 26  1  0
 10 27  1  0
 12 28  1  0
 13 29  1  0
 14 30  1  0
 15 31  1  0
 17 32  1  0
 18 33  1  0
M  CHG  1   2   1
M  END
$$$$
