
     RDKit          3D

 34 36  0  0  0  0  0  0  0  0999 V2000
    4.7036    2.0168    0.6150 C   0  0  0  0  0  0  0  0  0  0  0  0
    4.5327    0.6099    0.3217 N   0  0  0  0  0  0  0  0  0  0  0  0
    5.6051   -0.2046    0.4223 N   0  0  0  0  0  0  0  0  0  0  0  0
    5.1216   -1.4011    0.0917 C   0  0  0  0  0  0  0  0  0  0  0  0
    3.7492   -1.3569   -0.2048 C   0  0  0  0  0  0  0  0  0  0  0  0
    2.8397   -2.6994   -0.7023 Cl  0  0  0  0  0  0  0  0  0  0  0  0
    3.3662   -0.0379   -0.0324 C   0  0  0  0  0  0  0  0  0  0  0  0
    2.0892    0.6339   -0.1930 C   0  0  0  0  0  0  0  0  0  0  0  0
    2.0432    1.8457   -0.3725 O   0  0  0  0  0  0  0  0  0  0  0  0
    0.9934   -0.2008   -0.0840 N   0  0  0  0  0  0  0  0  0  0  0  0
   -0.3507    0.1329   -0.2044 C   0  0  0  0  0  0  0  0  0  0  0  0
   -0.8384    1.7037   -0.6880 S   0  0  0  0  0  0  0  0  0  0  0  0
   -2.4428    1.2766   -0.5779 C   0  0  0  0  0  0  0  0  0  0  0  0
   -2.6528   -0.0206   -0.2012 C   0  0  0  0  0  0  0  0  0  0  0  0
   -1.4327   -0.7305    0.0126 C   0  0  0  0  0  0  0  0  0  0  0  0
   -1.2477   -2.1198    0.4232 C   0  0  0  0  0  0  0  0  0  0  0  0
   -2.3304   -2.9430    0.3132 N   0  0  0  0  0  0  0  0  0  0  0  0
   -0.1729   -2.5654    0.8155 O   0  0  0  0  0  0  0  0  0  0  0  0
   -4.1112   -0.2993   -0.1035 C   0  0  0  0  0  0  0  0  0  0  0  0
   -4.7350    1.1303   -0.1370 C   0  0  0  0  0  0  0  0  0  0  0  0
   -3.6784    2.0619   -0.7996 C   0  0  0  0  0  0  0  0  0  0  0  0
    4.5781    2.5799   -0.3126 H   0  0  0  0  0  0  0  0  0  0  0  0
    5.7085    2.1841    1.0128 H   0  0  0  0  0  0  0  0  0  0  0  0
    3.9659    2.3121    1.3649 H   0  0  0  0  0  0  0  0  0  0  0  0
    5.7898   -2.2523    0.0748 H   0  0  0  0  0  0  0  0  0  0  0  0
    1.1625   -1.1707    0.1814 H   0  0  0  0  0  0  0  0  0  0  0  0
   -2.1523   -3.9269    0.4648 H   0  0  0  0  0  0  0  0  0  0  0  0
   -3.1203   -2.6945   -0.2611 H   0  0  0  0  0  0  0  0  0  0  0  0
   -4.4486   -0.8795   -0.9689 H   0  0  0  0  0  0  0  0  0  0  0  0
   -4.3837   -0.8228    0.8170 H   0  0  0  0  0  0  0  0  0  0  0  0
   -4.9111    1.4660    0.8937 H   0  0  0  0  0  0  0  0  0  0  0  0
   -5.6969    1.1528   -0.6586 H   0  0  0  0  0  0  0  0  0  0  0  0
   -3.6614    3.0453   -0.3221 H   0  0  0  0  0  0  0  0  0  0  0  0
   -3.8813    2.1744   -1.8695 H   0  0  0  0  0  0  0  0  0  0  0  0
  1  2  1  0
  2  3  1  0
  3  4  2  0
  4  5  1  0
  5  6  1  0
  5  7  2  0
  7  8  1  0
  8  9  2  0
  8 10  1  0
 10 11  1  0
 11 12  1  0
 12 13  1  0
 13 14  2  0
 14 15  1  0
 15 16  1  0
 16 17  1  0
 16 18  2  0
 14 19  1  0
 19 20  1  0
 20 21  1  0
  7  2  1  0
 15 11  2  0
 21 13  1  0
  1 22  1  0
  1 23  1  0
  1 24  1  0
  4 25  1  0
 10 26  1  0
 17 27  1  0
 17 28  1  0
 19 29  1  0
 19 30  1  0
 20 31  1  0
 20 32  1  0
 21 33  1  0
 21 34  1  0
M  END
$$$$
