
     RDKit          3D

 61 66  0  0  0  0  0  0  0  0999 V2000
    3.3919    4.5514    1.3839 F   0  0  0  0  0  0  0  0  0  0  0  0
    4.3925    3.7135    1.7803 C   0  0  0  0  0  0  0  0  0  0  0  0
    5.5420    4.4362    1.6849 F   0  0  0  0  0  0  0  0  0  0  0  0
    4.1912    3.5018    3.1103 F   0  0  0  0  0  0  0  0  0  0  0  0
    4.4442    2.4388    0.9759 C   0  0  0  0  0  0  0  0  0  0  0  0
    4.2023    2.4610   -0.4049 C   0  0  0  0  0  0  0  0  0  0  0  0
    4.2564    1.2833   -1.1560 C   0  0  0  0  0  0  0  0  0  0  0  0
    4.5509    0.0560   -0.5446 C   0  0  0  0  0  0  0  0  0  0  0  0
    4.5980   -1.2260   -1.3531 C   0  0  0  0  0  0  0  0  0  0  0  0
    3.3422   -1.9656   -1.4950 N   0  0  0  0  0  0  0  0  0  0  0  0
    2.2758   -1.2765   -2.2356 C   0  0  0  0  0  0  0  0  0  0  0  0
    1.0971   -0.7728   -1.3724 C   0  0  0  0  0  0  0  0  0  0  0  0
    0.5045   -1.8463   -0.5588 N   0  0  0  0  0  0  0  0  0  0  0  0
   -0.8720   -1.9799   -0.4011 C   0  0  0  0  0  0  0  0  0  0  0  0
   -1.3663   -3.1932   -0.3395 N   0  0  0  0  0  0  0  0  0  0  0  0
   -2.7520   -3.4056   -0.2200 C   0  0  0  0  0  0  0  0  0  0  0  0
   -3.2183   -4.7206   -0.1691 C   0  0  0  0  0  0  0  0  0  0  0  0
   -4.5854   -4.9898   -0.0607 C   0  0  0  0  0  0  0  0  0  0  0  0
   -5.5025   -3.9401   -0.0042 C   0  0  0  0  0  0  0  0  0  0  0  0
   -5.0586   -2.6179   -0.0552 C   0  0  0  0  0  0  0  0  0  0  0  0
   -3.6877   -2.3648   -0.1630 C   0  0  0  0  0  0  0  0  0  0  0  0
   -3.1528   -1.0667   -0.2037 N   0  0  0  0  0  0  0  0  0  0  0  0
   -3.8035    0.1439   -0.1517 C   0  0  0  0  0  0  0  0  0  0  0  0
   -2.8574    1.1513   -0.1503 C   0  0  0  0  0  0  0  0  0  0  0  0
   -3.1736    2.5705   -0.0791 C   0  0  0  0  0  0  0  0  0  0  0  0
   -2.3416    3.4420    0.6385 C   0  0  0  0  0  0  0  0  0  0  0  0
   -2.6265    4.8082    0.6980 C   0  0  0  0  0  0  0  0  0  0  0  0
   -3.7432    5.3178    0.0372 C   0  0  0  0  0  0  0  0  0  0  0  0
   -4.5758    4.4628   -0.6827 C   0  0  0  0  0  0  0  0  0  0  0  0
   -4.2939    3.0951   -0.7399 C   0  0  0  0  0  0  0  0  0  0  0  0
   -1.5899    0.5106   -0.1996 C   0  0  0  0  0  0  0  0  0  0  0  0
   -1.7938   -0.8558   -0.2917 C   0  0  0  0  0  0  0  0  0  0  0  0
    1.3730   -3.0183   -0.3455 C   0  0  0  0  0  0  0  0  0  0  0  0
    2.8524   -2.5889   -0.2555 C   0  0  0  0  0  0  0  0  0  0  0  0
    4.8171    0.0412    0.8321 C   0  0  0  0  0  0  0  0  0  0  0  0
    4.7651    1.2177    1.5842 C   0  0  0  0  0  0  0  0  0  0  0  0
    3.9690    3.4008   -0.9038 H   0  0  0  0  0  0  0  0  0  0  0  0
    4.0717    1.3333   -2.2268 H   0  0  0  0  0  0  0  0  0  0  0  0
    4.9899   -0.9948   -2.3528 H   0  0  0  0  0  0  0  0  0  0  0  0
    5.3577   -1.8904   -0.9188 H   0  0  0  0  0  0  0  0  0  0  0  0
    2.6663   -0.4585   -2.8508 H   0  0  0  0  0  0  0  0  0  0  0  0
    1.8732   -2.0005   -2.9569 H   0  0  0  0  0  0  0  0  0  0  0  0
    0.3521   -0.3485   -2.0547 H   0  0  0  0  0  0  0  0  0  0  0  0
    1.4414    0.0254   -0.7065 H   0  0  0  0  0  0  0  0  0  0  0  0
   -2.5059   -5.5399   -0.2164 H   0  0  0  0  0  0  0  0  0  0  0  0
   -4.9313   -6.0193   -0.0200 H   0  0  0  0  0  0  0  0  0  0  0  0
   -6.5647   -4.1533    0.0821 H   0  0  0  0  0  0  0  0  0  0  0  0
   -5.7904   -1.8188   -0.0049 H   0  0  0  0  0  0  0  0  0  0  0  0
   -4.8812    0.2006   -0.0946 H   0  0  0  0  0  0  0  0  0  0  0  0
   -1.4701    3.0664    1.1699 H   0  0  0  0  0  0  0  0  0  0  0  0
   -1.9743    5.4720    1.2620 H   0  0  0  0  0  0  0  0  0  0  0  0
   -3.9633    6.3806    0.0816 H   0  0  0  0  0  0  0  0  0  0  0  0
   -5.4441    4.8597   -1.2037 H   0  0  0  0  0  0  0  0  0  0  0  0
   -4.9492    2.4473   -1.3191 H   0  0  0  0  0  0  0  0  0  0  0  0
   -0.6306    1.0071   -0.1872 H   0  0  0  0  0  0  0  0  0  0  0  0
    1.2377   -3.7377   -1.1616 H   0  0  0  0  0  0  0  0  0  0  0  0
    1.1008   -3.5172    0.5918 H   0  0  0  0  0  0  0  0  0  0  0  0
    3.4700   -3.4650   -0.0295 H   0  0  0  0  0  0  0  0  0  0  0  0
    2.9347   -1.9030    0.5942 H   0  0  0  0  0  0  0  0  0  0  0  0
    5.0657   -0.8944    1.3314 H   0  0  0  0  0  0  0  0  0  0  0  0
    4.9729    1.1739    2.6523 H   0  0  0  0  0  0  0  0  0  0  0  0
  1  2  1  0
  2  3  1  0
  2  4  1  0
  2  5  1  0
  5  6  2  0
  6  7  1  0
  7  8  2  0
  8  9  1  0
  9 10  1  0
 10 11  1  0
 11 12  1  0
 12 13  1  0
 13 14  1  0
 14 15  2  0
 15 16  1  0
 16 17  2  0
 17 18  1  0
 18 19  2  0
 19 20  1  0
 20 21  2  0
 21 22  1  0
 22 23  1  0
 23 24  2  0
 24 25  1  0
 25 26  2  0
 26 27  1  0
 27 28  2  0
 28 29  1  0
 29 30  2  0
 24 31  1  0
 31 32  2  0
 13 33  1  0
 33 34  1  0
  8 35  1  0
 35 36  2  0
 36  5  1  0
 34 10  1  0
 32 14  1  0
 21 16  1  0
 32 22  1  0
 30 25  1  0
  6 37  1  0
  7 38  1  0
  9 39  1  0
  9 40  1  0
 11 41  1  0
 11 42  1  0
 12 43  1  0
 12 44  1  0
 17 45  1  0
 18 46  1  0
 19 47  1  0
 20 48  1  0
 23 49  1  0
 26 50  1  0
 27 51  1  0
 28 52  1  0
 29 53  1  0
 30 54  1  0
 31 55  1  0
 33 56  1  0
 33 57  1  0
 34 58  1  0
 34 59  1  0
 35 60  1  0
 36 61  1  0
M  END
$$$$
