
     RDKit          3D

 38 38  0  0  0  0  0  0  0  0999 V2000
    4.8881   -0.9051   -3.7598 C   0  0  0  0  0  0  0  0  0  0  0  0
    4.7428   -0.9183   -2.2498 C   0  0  0  0  0  0  0  0  0  0  0  0
    3.3956   -0.5893   -1.8813 O   0  0  0  0  0  0  0  0  0  0  0  0
    3.1315    0.7373   -1.7244 C   0  0  0  0  0  0  0  0  0  0  0  0
    3.9157    1.6501   -1.9497 O   0  0  0  0  0  0  0  0  0  0  0  0
    1.7049    0.9472   -1.3138 C   0  0  0  0  0  0  0  0  0  0  0  0
    1.3728    0.3747    0.0395 C   0  0  0  0  0  0  0  0  0  0  0  0
    2.2375    0.0606    0.8547 O   0  0  0  0  0  0  0  0  0  0  0  0
   -0.0648    0.2022    0.4127 C   0  0  0  0  0  0  0  0  0  0  0  0
   -1.0980    0.8242   -0.3033 C   0  0  0  0  0  0  0  0  0  0  0  0
   -2.4285    0.6347    0.0788 C   0  0  0  0  0  0  0  0  0  0  0  0
   -3.5106    1.1940   -0.5501 O   0  0  0  0  0  0  0  0  0  0  0  0
   -3.2861    1.8838   -1.7713 C   0  0  0  0  0  0  0  0  0  0  0  0
   -2.7098   -0.1676    1.1990 C   0  0  0  0  0  0  0  0  0  0  0  0
   -4.0235   -0.3932    1.5483 O   0  0  0  0  0  0  0  0  0  0  0  0
   -4.4414    0.5706    2.5138 C   0  0  0  0  0  0  0  0  0  0  0  0
   -1.6857   -0.8048    1.9193 C   0  0  0  0  0  0  0  0  0  0  0  0
   -2.0783   -1.5798    2.9791 O   0  0  0  0  0  0  0  0  0  0  0  0
   -1.0706   -2.3046    3.6720 C   0  0  0  0  0  0  0  0  0  0  0  0
   -0.3632   -0.6045    1.5230 C   0  0  0  0  0  0  0  0  0  0  0  0
    4.1640   -1.5842   -4.2214 H   0  0  0  0  0  0  0  0  0  0  0  0
    4.6918    0.0926   -4.1650 H   0  0  0  0  0  0  0  0  0  0  0  0
    5.8959   -1.2102   -4.0553 H   0  0  0  0  0  0  0  0  0  0  0  0
    4.9417   -1.9257   -1.8696 H   0  0  0  0  0  0  0  0  0  0  0  0
    5.4636   -0.2453   -1.7715 H   0  0  0  0  0  0  0  0  0  0  0  0
    1.5168    2.0263   -1.2863 H   0  0  0  0  0  0  0  0  0  0  0  0
    1.0741    0.5009   -2.0899 H   0  0  0  0  0  0  0  0  0  0  0  0
   -0.8626    1.4649   -1.1441 H   0  0  0  0  0  0  0  0  0  0  0  0
   -4.2596    2.1859   -2.1691 H   0  0  0  0  0  0  0  0  0  0  0  0
   -2.6981    2.7922   -1.6052 H   0  0  0  0  0  0  0  0  0  0  0  0
   -2.8097    1.2343   -2.5132 H   0  0  0  0  0  0  0  0  0  0  0  0
   -5.4888    0.3678    2.7569 H   0  0  0  0  0  0  0  0  0  0  0  0
   -3.8590    0.4903    3.4382 H   0  0  0  0  0  0  0  0  0  0  0  0
   -4.3787    1.5889    2.1145 H   0  0  0  0  0  0  0  0  0  0  0  0
   -1.5612   -2.8998    4.4481 H   0  0  0  0  0  0  0  0  0  0  0  0
   -0.5486   -2.9966    3.0028 H   0  0  0  0  0  0  0  0  0  0  0  0
   -0.3688   -1.6259    4.1674 H   0  0  0  0  0  0  0  0  0  0  0  0
    0.4588   -1.0686    2.0611 H   0  0  0  0  0  0  0  0  0  0  0  0
  1  2  1  0
  2  3  1  0
  3  4  1  0
  4  5  2  0
  4  6  1  0
  6  7  1  0
  7  8  2  0
  7  9  1  0
  9 10  2  0
 10 11  1  0
 11 12  1  0
 12 13  1  0
 11 14  2  0
 14 15  1  0
 15 16  1  0
 14 17  1  0
 17 18  1  0
 18 19  1  0
 17 20  2  0
 20  9  1  0
  1 21  1  0
  1 22  1  0
  1 23  1  0
  2 24  1  0
  2 25  1  0
  6 26  1  0
  6 27  1  0
 10 28  1  0
 13 29  1  0
 13 30  1  0
 13 31  1  0
 16 32  1  0
 16 33  1  0
 16 34  1  0
 19 35  1  0
 19 36  1  0
 19 37  1  0
 20 38  1  0
M  END
$$$$
