
     RDKit          3D

 36 37  0  0  0  0  0  0  0  0999 V2000
   -0.2247   -1.1202    0.5620 O   0  0  0  0  0  0  0  0  0  0  0  0
   -0.3391    0.0421    0.1775 C   0  0  0  0  0  0  0  0  0  0  0  0
    0.7053    0.7442   -0.6949 C   0  0  0  0  0  0  0  0  0  0  0  0
    1.9969    0.1463   -0.5939 O   0  0  0  0  0  0  0  0  0  0  0  0
    2.6461    0.4319    0.5610 C   0  0  0  0  0  0  0  0  0  0  0  0
    2.2628    1.2078    1.4223 O   0  0  0  0  0  0  0  0  0  0  0  0
    3.9300   -0.3143    0.6405 C   0  0  0  0  0  0  0  0  0  0  0  0
    4.2912   -1.2894   -0.3011 C   0  0  0  0  0  0  0  0  0  0  0  0
    5.5081   -1.9649   -0.1821 C   0  0  0  0  0  0  0  0  0  0  0  0
    6.3674   -1.6712    0.8766 C   0  0  0  0  0  0  0  0  0  0  0  0
    6.0067   -0.7049    1.8148 C   0  0  0  0  0  0  0  0  0  0  0  0
    7.0699   -0.3479    3.1200 Cl  0  0  0  0  0  0  0  0  0  0  0  0
    4.7947   -0.0263    1.7046 C   0  0  0  0  0  0  0  0  0  0  0  0
   -1.4396    0.8230    0.4817 N   0  0  0  0  0  0  0  0  0  0  0  0
   -2.5950    0.2374    1.1357 C   0  0  0  0  0  0  0  0  0  0  0  0
   -3.4698   -0.5819    0.1718 C   0  0  0  0  0  0  0  0  0  0  0  0
   -4.2479    0.2595   -0.7294 N   0  0  0  0  0  0  0  0  0  0  0  0
   -5.5105    0.7391   -0.4662 C   0  0  0  0  0  0  0  0  0  0  0  0
   -6.2131    0.3314    0.6264 O   0  0  0  0  0  0  0  0  0  0  0  0
   -5.9727    1.6231   -1.3542 C   0  0  0  0  0  0  0  0  0  0  0  0
   -4.8235    1.9120   -2.6190 S   0  0  0  0  0  0  0  0  0  0  0  0
   -3.6559    0.8143   -1.8615 C   0  0  0  0  0  0  0  0  0  0  0  0
   -2.5212    0.6515   -2.2799 O   0  0  0  0  0  0  0  0  0  0  0  0
    0.3815    0.6459   -1.7364 H   0  0  0  0  0  0  0  0  0  0  0  0
    0.7532    1.8152   -0.4650 H   0  0  0  0  0  0  0  0  0  0  0  0
    3.6303   -1.5383   -1.1287 H   0  0  0  0  0  0  0  0  0  0  0  0
    5.7835   -2.7218   -0.9130 H   0  0  0  0  0  0  0  0  0  0  0  0
    7.3131   -2.1996    0.9666 H   0  0  0  0  0  0  0  0  0  0  0  0
    4.5213    0.7237    2.4438 H   0  0  0  0  0  0  0  0  0  0  0  0
   -1.5719    1.6732   -0.0535 H   0  0  0  0  0  0  0  0  0  0  0  0
   -2.2375   -0.4148    1.9402 H   0  0  0  0  0  0  0  0  0  0  0  0
   -3.1651    1.0558    1.5873 H   0  0  0  0  0  0  0  0  0  0  0  0
   -4.1429   -1.2276    0.7434 H   0  0  0  0  0  0  0  0  0  0  0  0
   -2.8436   -1.2421   -0.4403 H   0  0  0  0  0  0  0  0  0  0  0  0
   -6.0495   -0.6182    0.7419 H   0  0  0  0  0  0  0  0  0  0  0  0
   -6.9385    2.1062   -1.3084 H   0  0  0  0  0  0  0  0  0  0  0  0
  1  2  2  0
  2  3  1  0
  3  4  1  0
  4  5  1  0
  5  6  2  0
  5  7  1  0
  7  8  2  0
  8  9  1  0
  9 10  2  0
 10 11  1  0
 11 12  1  0
 11 13  2  0
  2 14  1  0
 14 15  1  0
 15 16  1  0
 16 17  1  0
 17 18  1  0
 18 19  1  0
 18 20  2  0
 20 21  1  0
 21 22  1  0
 22 23  2  0
 13  7  1  0
 22 17  1  0
  3 24  1  0
  3 25  1  0
  8 26  1  0
  9 27  1  0
 10 28  1  0
 13 29  1  0
 14 30  1  0
 15 31  1  0
 15 32  1  0
 16 33  1  0
 16 34  1  0
 19 35  1  0
 20 36  1  0
M  END
$$$$
