
     RDKit          3D

 47 51  0  0  0  0  0  0  0  0999 V2000
    0.6231    1.3045   -2.9826 C   0  0  0  0  0  0  0  0  0  0  0  0
   -0.5862    1.4539   -2.1135 C   0  0  0  0  0  0  0  0  0  0  0  0
   -1.7093    1.8593   -2.6518 N   0  0  0  0  0  0  0  0  0  0  0  0
   -2.7913    1.9907   -1.8275 C   0  0  0  0  0  0  0  0  0  0  0  0
   -4.3214    2.4953   -2.4003 S   0  0  0  0  0  0  0  0  0  0  0  0
   -5.0112    2.3842   -0.8406 C   0  0  0  0  0  0  0  0  0  0  0  0
   -4.1048    1.9836    0.1258 C   0  0  0  0  0  0  0  0  0  0  0  0
   -2.8470    1.7541   -0.4705 C   0  0  0  0  0  0  0  0  0  0  0  0
   -1.5133    1.2787    0.1110 C   0  0  0  0  0  0  0  0  0  0  0  0
   -1.1983    0.9539    1.3375 N   0  0  0  0  0  0  0  0  0  0  0  0
    0.1232    0.5827    1.3172 N   0  0  0  0  0  0  0  0  0  0  0  0
    0.5677    0.6937    0.0808 C   0  0  0  0  0  0  0  0  0  0  0  0
    2.1805    0.2942   -0.3939 S   0  0  0  0  0  0  0  0  0  0  0  0
    2.9257   -0.0903    1.2188 C   0  0  0  0  0  0  0  0  0  0  0  0
    4.3738   -0.4880    1.0052 C   0  0  0  0  0  0  0  0  0  0  0  0
    5.2897    0.3304    1.0009 O   0  0  0  0  0  0  0  0  0  0  0  0
    4.5717   -1.8314    0.7817 N   0  0  0  0  0  0  0  0  0  0  0  0
    5.9037   -2.3737    0.6441 C   0  0  0  0  0  0  0  0  0  0  0  0
    5.7997   -3.7126    0.0181 C   0  0  0  0  0  0  0  0  0  0  0  0
    6.2167   -4.2273   -1.1921 C   0  0  0  0  0  0  0  0  0  0  0  0
    5.8072   -5.5820   -1.2129 C   0  0  0  0  0  0  0  0  0  0  0  0
    5.1706   -5.8088   -0.0155 C   0  0  0  0  0  0  0  0  0  0  0  0
    5.1556   -4.6789    0.7375 O   0  0  0  0  0  0  0  0  0  0  0  0
   -0.4406    1.1449   -0.7448 N   0  0  0  0  0  0  0  0  0  0  0  0
   -4.4869    1.8108    1.5627 C   0  0  0  0  0  0  0  0  0  0  0  0
   -5.8235    2.5022    1.8786 C   0  0  0  0  0  0  0  0  0  0  0  0
   -6.8808    2.2169    0.8016 C   0  0  0  0  0  0  0  0  0  0  0  0
   -6.4457    2.7280   -0.5825 C   0  0  0  0  0  0  0  0  0  0  0  0
    0.3771    1.5995   -4.0076 H   0  0  0  0  0  0  0  0  0  0  0  0
    0.9477    0.2622   -3.0114 H   0  0  0  0  0  0  0  0  0  0  0  0
    1.4267    1.9594   -2.6379 H   0  0  0  0  0  0  0  0  0  0  0  0
    2.8987    0.7843    1.8765 H   0  0  0  0  0  0  0  0  0  0  0  0
    2.3841   -0.9079    1.7072 H   0  0  0  0  0  0  0  0  0  0  0  0
    3.8326   -2.4892    0.9936 H   0  0  0  0  0  0  0  0  0  0  0  0
    6.3478   -2.4435    1.6425 H   0  0  0  0  0  0  0  0  0  0  0  0
    6.5183   -1.6978    0.0411 H   0  0  0  0  0  0  0  0  0  0  0  0
    6.7499   -3.6887   -1.9626 H   0  0  0  0  0  0  0  0  0  0  0  0
    5.9603   -6.3060   -2.0010 H   0  0  0  0  0  0  0  0  0  0  0  0
    4.6963   -6.6731    0.4285 H   0  0  0  0  0  0  0  0  0  0  0  0
   -3.7075    2.2134    2.2192 H   0  0  0  0  0  0  0  0  0  0  0  0
   -4.5745    0.7377    1.7753 H   0  0  0  0  0  0  0  0  0  0  0  0
   -5.6690    3.5858    1.9499 H   0  0  0  0  0  0  0  0  0  0  0  0
   -6.1853    2.1653    2.8563 H   0  0  0  0  0  0  0  0  0  0  0  0
   -7.0564    1.1341    0.7530 H   0  0  0  0  0  0  0  0  0  0  0  0
   -7.8335    2.6814    1.0788 H   0  0  0  0  0  0  0  0  0  0  0  0
   -7.0993    2.2957   -1.3494 H   0  0  0  0  0  0  0  0  0  0  0  0
   -6.5625    3.8183   -0.6206 H   0  0  0  0  0  0  0  0  0  0  0  0
  1  2  1  0
  2  3  2  0
  3  4  1  0
  4  5  1  0
  5  6  1  0
  6  7  2  0
  7  8  1  0
  8  9  1  0
  9 10  2  0
 10 11  1  0
 11 12  2  0
 12 13  1  0
 13 14  1  0
 14 15  1  0
 15 16  2  0
 15 17  1  0
 17 18  1  0
 18 19  1  0
 19 20  2  0
 20 21  1  0
 21 22  2  0
 22 23  1  0
 12 24  1  0
  7 25  1  0
 25 26  1  0
 26 27  1  0
 27 28  1  0
 24  2  1  0
  8  4  2  0
 24  9  1  0
 28  6  1  0
 23 19  1  0
  1 29  1  0
  1 30  1  0
  1 31  1  0
 14 32  1  0
 14 33  1  0
 17 34  1  0
 18 35  1  0
 18 36  1  0
 20 37  1  0
 21 38  1  0
 22 39  1  0
 25 40  1  0
 25 41  1  0
 26 42  1  0
 26 43  1  0
 27 44  1  0
 27 45  1  0
 28 46  1  0
 28 47  1  0
M  END
$$$$
