
     RDKit          3D

 37 40  0  0  0  0  0  0  0  0999 V2000
   -1.7295    2.4536    1.2017 C   0  0  0  0  0  0  0  0  0  0  0  0
   -2.7934    1.5189    0.6542 C   0  0  0  0  0  0  0  0  0  0  0  0
   -2.4658    1.2348   -0.7081 O   0  0  0  0  0  0  0  0  0  0  0  0
   -3.0802    0.1260   -1.2383 C   0  0  0  0  0  0  0  0  0  0  0  0
   -4.3746   -0.2753   -0.8932 C   0  0  0  0  0  0  0  0  0  0  0  0
   -4.9478   -1.3969   -1.4968 C   0  0  0  0  0  0  0  0  0  0  0  0
   -4.2382   -2.1159   -2.4558 C   0  0  0  0  0  0  0  0  0  0  0  0
   -2.9525   -1.7136   -2.8179 C   0  0  0  0  0  0  0  0  0  0  0  0
   -2.3643   -0.5948   -2.2128 C   0  0  0  0  0  0  0  0  0  0  0  0
   -1.0168   -0.1984   -2.6422 C   0  0  0  0  0  0  0  0  0  0  0  0
    0.0846   -0.2239   -1.8775 C   0  0  0  0  0  0  0  0  0  0  0  0
    1.6348    0.3634   -2.4845 S   0  0  0  0  0  0  0  0  0  0  0  0
    2.3391    0.0693   -0.9518 C   0  0  0  0  0  0  0  0  0  0  0  0
    3.5224    0.2281   -0.4334 N   0  0  0  0  0  0  0  0  0  0  0  0
    3.3234   -0.2538    0.8535 C   0  0  0  0  0  0  0  0  0  0  0  0
    4.4724   -0.2810    1.9137 C   0  0  0  0  0  0  0  0  0  0  0  0
    5.7667    0.1540    1.7006 C   0  0  0  0  0  0  0  0  0  0  0  0
    6.4702   -0.0490    2.9127 C   0  0  0  0  0  0  0  0  0  0  0  0
    5.5644   -0.5946    3.7908 C   0  0  0  0  0  0  0  0  0  0  0  0
    4.3527   -0.7390    3.1967 O   0  0  0  0  0  0  0  0  0  0  0  0
    2.0762   -0.6930    1.1167 N   0  0  0  0  0  0  0  0  0  0  0  0
    1.4774   -0.4651   -0.0650 N   0  0  0  0  0  0  0  0  0  0  0  0
    0.1775   -0.7070   -0.4576 C   0  0  0  0  0  0  0  0  0  0  0  0
   -0.6485   -1.2300    0.2661 O   0  0  0  0  0  0  0  0  0  0  0  0
   -1.9379    2.7140    2.2432 H   0  0  0  0  0  0  0  0  0  0  0  0
   -1.6822    3.3734    0.6095 H   0  0  0  0  0  0  0  0  0  0  0  0
   -0.7403    1.9874    1.1452 H   0  0  0  0  0  0  0  0  0  0  0  0
   -2.8095    0.6030    1.2573 H   0  0  0  0  0  0  0  0  0  0  0  0
   -3.7683    2.0160    0.7039 H   0  0  0  0  0  0  0  0  0  0  0  0
   -4.9627    0.2764   -0.1673 H   0  0  0  0  0  0  0  0  0  0  0  0
   -5.9527   -1.7065   -1.2202 H   0  0  0  0  0  0  0  0  0  0  0  0
   -4.6873   -2.9883   -2.9237 H   0  0  0  0  0  0  0  0  0  0  0  0
   -2.4134   -2.2831   -3.5713 H   0  0  0  0  0  0  0  0  0  0  0  0
   -0.9704    0.1663   -3.6662 H   0  0  0  0  0  0  0  0  0  0  0  0
    6.1476    0.5669    0.7765 H   0  0  0  0  0  0  0  0  0  0  0  0
    7.5072    0.1739    3.1207 H   0  0  0  0  0  0  0  0  0  0  0  0
    5.6197   -0.9199    4.8204 H   0  0  0  0  0  0  0  0  0  0  0  0
  1  2  1  0
  2  3  1  0
  3  4  1  0
  4  5  2  0
  5  6  1  0
  6  7  2  0
  7  8  1  0
  8  9  2  0
  9 10  1  0
 10 11  2  3
 11 12  1  0
 12 13  1  0
 13 14  2  0
 14 15  1  0
 15 16  1  0
 16 17  2  0
 17 18  1  0
 18 19  2  0
 19 20  1  0
 15 21  2  0
 21 22  1  0
 22 23  1  0
 23 24  2  0
  9  4  1  0
 23 11  1  0
 22 13  1  0
 20 16  1  0
  1 25  1  0
  1 26  1  0
  1 27  1  0
  2 28  1  0
  2 29  1  0
  5 30  1  0
  6 31  1  0
  7 32  1  0
  8 33  1  0
 10 34  1  0
 17 35  1  0
 18 36  1  0
 19 37  1  0
M  END
$$$$
