
     RDKit          3D

 56 59  0  0  0  0  0  0  0  0999 V2000
    9.3487   -1.0905    0.6086 C   0  0  0  0  0  0  0  0  0  0  0  0
    8.6639   -0.2388    1.5187 O   0  0  0  0  0  0  0  0  0  0  0  0
    7.3158   -0.4272    1.6497 C   0  0  0  0  0  0  0  0  0  0  0  0
    6.6982    0.4198    2.5772 C   0  0  0  0  0  0  0  0  0  0  0  0
    5.3245    0.3412    2.8134 C   0  0  0  0  0  0  0  0  0  0  0  0
    4.5659   -0.5922    2.1074 C   0  0  0  0  0  0  0  0  0  0  0  0
    2.8181   -0.7130    2.3791 S   0  0  0  0  0  6  0  0  0  0  0  0
    2.5037   -2.1086    2.5930 O   0  0  0  0  0  0  0  0  0  0  0  0
    2.4216    0.3020    3.3317 O   0  0  0  0  0  0  0  0  0  0  0  0
    2.1838   -0.2652    0.8808 N   0  0  0  0  0  0  0  0  0  0  0  0
    2.3924    1.1311    0.4429 C   0  0  0  0  0  0  0  0  0  0  0  0
    0.9969    1.7100    0.4127 C   0  0  0  0  0  0  0  0  0  0  0  0
    0.1837    0.5970    0.0427 O   0  0  0  0  0  0  0  0  0  0  0  0
    0.7291   -0.5242    0.7594 C   0  0  0  0  0  0  0  0  0  0  0  0
    0.4690   -1.8342   -0.0126 C   0  0  0  0  0  0  0  0  0  0  0  0
   -0.9421   -2.1654   -0.1146 N   0  0  0  0  0  0  0  0  0  0  0  0
   -1.7156   -1.7530   -1.1757 C   0  0  0  0  0  0  0  0  0  0  0  0
   -1.3195   -1.2449   -2.2149 O   0  0  0  0  0  0  0  0  0  0  0  0
   -3.2278   -1.9922   -0.9624 C   0  0  0  0  0  0  0  0  0  0  0  0
   -3.6306   -2.4574    0.0950 O   0  0  0  0  0  0  0  0  0  0  0  0
   -3.9973   -1.6231   -2.0393 N   0  0  0  0  0  0  0  0  0  0  0  0
   -5.4348   -1.5951   -1.9866 C   0  0  0  0  0  0  0  0  0  0  0  0
   -5.9327   -0.2140   -1.6459 C   0  0  0  0  0  0  0  0  0  0  0  0
   -6.0430    0.1857   -0.2931 C   0  0  0  0  0  0  0  0  0  0  0  0
   -6.4780    1.4705    0.0462 C   0  0  0  0  0  0  0  0  0  0  0  0
   -6.7877    2.3331   -0.9815 C   0  0  0  0  0  0  0  0  0  0  0  0
   -6.6759    1.9582   -2.2993 C   0  0  0  0  0  0  0  0  0  0  0  0
   -6.2498    0.6986   -2.6653 C   0  0  0  0  0  0  0  0  0  0  0  0
   -7.0243    2.9566   -3.1543 O   0  0  0  0  0  0  0  0  0  0  0  0
   -7.3645    4.0040   -2.2223 C   0  0  0  0  0  0  0  0  0  0  0  0
   -7.2206    3.6143   -0.8411 O   0  0  0  0  0  0  0  0  0  0  0  0
    5.1696   -1.4497    1.1835 C   0  0  0  0  0  0  0  0  0  0  0  0
    6.5465   -1.3634    0.9546 C   0  0  0  0  0  0  0  0  0  0  0  0
    9.2674   -2.1395    0.9118 H   0  0  0  0  0  0  0  0  0  0  0  0
   10.4085   -0.8190    0.6299 H   0  0  0  0  0  0  0  0  0  0  0  0
    8.9882   -0.9448   -0.4149 H   0  0  0  0  0  0  0  0  0  0  0  0
    7.2981    1.1446    3.1235 H   0  0  0  0  0  0  0  0  0  0  0  0
    4.8657    1.0028    3.5439 H   0  0  0  0  0  0  0  0  0  0  0  0
    2.8222    1.0988   -0.5645 H   0  0  0  0  0  0  0  0  0  0  0  0
    3.0618    1.7144    1.0789 H   0  0  0  0  0  0  0  0  0  0  0  0
    0.8872    2.5192   -0.3138 H   0  0  0  0  0  0  0  0  0  0  0  0
    0.6802    2.0660    1.3994 H   0  0  0  0  0  0  0  0  0  0  0  0
    0.2327   -0.5502    1.7372 H   0  0  0  0  0  0  0  0  0  0  0  0
    0.9536   -2.6793    0.4854 H   0  0  0  0  0  0  0  0  0  0  0  0
    0.8814   -1.7562   -1.0252 H   0  0  0  0  0  0  0  0  0  0  0  0
   -1.4456   -2.5086    0.6998 H   0  0  0  0  0  0  0  0  0  0  0  0
   -3.5109   -1.1372   -2.7879 H   0  0  0  0  0  0  0  0  0  0  0  0
   -5.8071   -1.9031   -2.9697 H   0  0  0  0  0  0  0  0  0  0  0  0
   -5.8045   -2.3231   -1.2555 H   0  0  0  0  0  0  0  0  0  0  0  0
   -5.7806   -0.5130    0.5009 H   0  0  0  0  0  0  0  0  0  0  0  0
   -6.5638    1.7794    1.0817 H   0  0  0  0  0  0  0  0  0  0  0  0
   -6.1647    0.4341   -3.7138 H   0  0  0  0  0  0  0  0  0  0  0  0
   -6.7150    4.8660   -2.4124 H   0  0  0  0  0  0  0  0  0  0  0  0
   -8.4046    4.3029   -2.3955 H   0  0  0  0  0  0  0  0  0  0  0  0
    4.5759   -2.1833    0.6424 H   0  0  0  0  0  0  0  0  0  0  0  0
    6.9870   -2.0416    0.2308 H   0  0  0  0  0  0  0  0  0  0  0  0
  1  2  1  0
  2  3  1  0
  3  4  2  0
  4  5  1  0
  5  6  2  0
  6  7  1  0
  7  8  2  0
  7  9  2  0
  7 10  1  0
 10 11  1  0
 11 12  1  0
 12 13  1  0
 13 14  1  0
 14 15  1  0
 15 16  1  0
 16 17  1  0
 17 18  2  0
 17 19  1  0
 19 20  2  0
 19 21  1  0
 21 22  1  0
 22 23  1  0
 23 24  2  0
 24 25  1  0
 25 26  2  0
 26 27  1  0
 27 28  2  0
 27 29  1  0
 29 30  1  0
 30 31  1  0
  6 32  1  0
 32 33  2  0
 33  3  1  0
 14 10  1  0
 28 23  1  0
 31 26  1  0
  1 34  1  0
  1 35  1  0
  1 36  1  0
  4 37  1  0
  5 38  1  0
 11 39  1  0
 11 40  1  0
 12 41  1  0
 12 42  1  0
 14 43  1  0
 15 44  1  0
 15 45  1  0
 16 46  1  0
 21 47  1  0
 22 48  1  0
 22 49  1  0
 24 50  1  0
 25 51  1  0
 28 52  1  0
 30 53  1  0
 30 54  1  0
 32 55  1  0
 33 56  1  0
M  END
$$$$
