
     RDKit          3D

 43 45  0  0  0  0  0  0  0  0999 V2000
   -7.7830    0.3638    1.3789 C   0  0  0  0  0  0  0  0  0  0  0  0
   -6.3765    0.5691    1.0802 N   0  0  0  0  0  0  0  0  0  0  0  0
   -5.7251    1.6624    1.7891 C   0  0  0  0  0  0  0  0  0  0  0  0
   -5.8296   -0.1070   -0.0090 C   0  0  0  0  0  0  0  0  0  0  0  0
   -6.4985   -0.7662   -0.8026 O   0  0  0  0  0  0  0  0  0  0  0  0
   -4.3657   -0.0555   -0.2330 C   0  0  0  0  0  0  0  0  0  0  0  0
   -3.8880    0.2240   -1.5143 C   0  0  0  0  0  0  0  0  0  0  0  0
   -2.5107    0.2457   -1.7539 C   0  0  0  0  0  0  0  0  0  0  0  0
   -1.5981   -0.0222   -0.7225 C   0  0  0  0  0  0  0  0  0  0  0  0
   -0.2275    0.0227   -1.0555 N   0  0  0  0  0  0  0  0  0  0  0  0
    0.8621   -0.1480   -0.2101 C   0  0  0  0  0  0  0  0  0  0  0  0
    0.7719   -0.3345    0.9998 O   0  0  0  0  0  0  0  0  0  0  0  0
    2.1532   -0.0726   -0.8845 C   0  0  0  0  0  0  0  0  0  0  0  0
    2.5423    0.0529   -2.2072 C   0  0  0  0  0  0  0  0  0  0  0  0
    3.9611    0.0670   -2.2213 C   0  0  0  0  0  0  0  0  0  0  0  0
    4.3741   -0.0523   -0.9104 C   0  0  0  0  0  0  0  0  0  0  0  0
    5.6732   -0.1044   -0.2427 C   0  0  0  0  0  0  0  0  0  0  0  0
    6.8626   -0.0107   -0.9828 C   0  0  0  0  0  0  0  0  0  0  0  0
    8.1095   -0.0598   -0.3487 C   0  0  0  0  0  0  0  0  0  0  0  0
    8.1790   -0.2035    1.0342 C   0  0  0  0  0  0  0  0  0  0  0  0
    9.7115   -0.2635    1.8125 Cl  0  0  0  0  0  0  0  0  0  0  0  0
    7.0136   -0.2986    1.7880 C   0  0  0  0  0  0  0  0  0  0  0  0
    5.7687   -0.2492    1.1514 C   0  0  0  0  0  0  0  0  0  0  0  0
    3.2774   -0.1376   -0.1032 O   0  0  0  0  0  0  0  0  0  0  0  0
   -2.0889   -0.3290    0.5497 C   0  0  0  0  0  0  0  0  0  0  0  0
   -3.4673   -0.3558    0.7938 C   0  0  0  0  0  0  0  0  0  0  0  0
   -7.9175    0.3334    2.4642 H   0  0  0  0  0  0  0  0  0  0  0  0
   -8.3562    1.1960    0.9598 H   0  0  0  0  0  0  0  0  0  0  0  0
   -8.1519   -0.5733    0.9528 H   0  0  0  0  0  0  0  0  0  0  0  0
   -4.7725    1.9469    1.3398 H   0  0  0  0  0  0  0  0  0  0  0  0
   -5.5692    1.3589    2.8280 H   0  0  0  0  0  0  0  0  0  0  0  0
   -6.3804    2.5390    1.7637 H   0  0  0  0  0  0  0  0  0  0  0  0
   -4.5870    0.4191   -2.3248 H   0  0  0  0  0  0  0  0  0  0  0  0
   -2.1676    0.4712   -2.7605 H   0  0  0  0  0  0  0  0  0  0  0  0
   -0.0237    0.2269   -2.0223 H   0  0  0  0  0  0  0  0  0  0  0  0
    1.8985    0.1204   -3.0719 H   0  0  0  0  0  0  0  0  0  0  0  0
    4.6006    0.1508   -3.0886 H   0  0  0  0  0  0  0  0  0  0  0  0
    6.8374    0.1021   -2.0637 H   0  0  0  0  0  0  0  0  0  0  0  0
    9.0182    0.0146   -0.9402 H   0  0  0  0  0  0  0  0  0  0  0  0
    7.0603   -0.4114    2.8679 H   0  0  0  0  0  0  0  0  0  0  0  0
    4.8685   -0.3261    1.7598 H   0  0  0  0  0  0  0  0  0  0  0  0
   -1.4286   -0.5694    1.3773 H   0  0  0  0  0  0  0  0  0  0  0  0
   -3.8300   -0.6245    1.7828 H   0  0  0  0  0  0  0  0  0  0  0  0
  1  2  1  0
  2  3  1  0
  2  4  1  0
  4  5  2  0
  4  6  1  0
  6  7  2  0
  7  8  1  0
  8  9  2  0
  9 10  1  0
 10 11  1  0
 11 12  2  0
 11 13  1  0
 13 14  2  0
 14 15  1  0
 15 16  2  0
 16 17  1  0
 17 18  2  0
 18 19  1  0
 19 20  2  0
 20 21  1  0
 20 22  1  0
 22 23  2  0
 16 24  1  0
  9 25  1  0
 25 26  2  0
 26  6  1  0
 24 13  1  0
 23 17  1  0
  1 27  1  0
  1 28  1  0
  1 29  1  0
  3 30  1  0
  3 31  1  0
  3 32  1  0
  7 33  1  0
  8 34  1  0
 10 35  1  0
 14 36  1  0
 15 37  1  0
 18 38  1  0
 19 39  1  0
 22 40  1  0
 23 41  1  0
 25 42  1  0
 26 43  1  0
M  END
$$$$
