
     RDKit          3D

 59 62  0  0  0  0  0  0  0  0999 V2000
    8.1960    4.5438    0.0900 C   0  0  0  0  0  0  0  0  0  0  0  0
    6.8785    4.2603   -0.3655 O   0  0  0  0  0  0  0  0  0  0  0  0
    6.4119    2.9919   -0.1596 C   0  0  0  0  0  0  0  0  0  0  0  0
    7.1132    1.9454    0.4359 C   0  0  0  0  0  0  0  0  0  0  0  0
    6.5089    0.6910    0.5849 C   0  0  0  0  0  0  0  0  0  0  0  0
    5.1991    0.4656    0.1375 C   0  0  0  0  0  0  0  0  0  0  0  0
    4.6136   -0.8979    0.3297 C   0  0  0  0  0  0  0  0  0  0  0  0
    5.2113   -1.7110    1.0376 O   0  0  0  0  0  0  0  0  0  0  0  0
    3.3056   -1.2579   -0.3405 C   0  0  0  0  0  0  0  0  0  0  0  0
    1.9332   -0.9068    0.7948 S   0  0  0  0  0  0  0  0  0  0  0  0
    0.5978   -1.4015   -0.1835 C   0  0  0  0  0  0  0  0  0  0  0  0
    0.6468   -1.6502   -1.4702 N   0  0  0  0  0  0  0  0  0  0  0  0
   -0.6076   -2.0333   -1.8686 N   0  0  0  0  0  0  0  0  0  0  0  0
   -1.4027   -2.0073   -0.8141 C   0  0  0  0  0  0  0  0  0  0  0  0
   -2.8496   -2.3843   -0.8040 C   0  0  0  0  0  0  0  0  0  0  0  0
   -3.7633   -1.4476   -0.1514 N   0  0  0  0  0  0  0  0  0  0  0  0
   -4.2137   -0.2856   -0.7899 C   0  0  0  0  0  0  0  0  0  0  0  0
   -3.6036    0.2356   -1.9396 C   0  0  0  0  0  0  0  0  0  0  0  0
   -4.0360    1.4312   -2.5244 C   0  0  0  0  0  0  0  0  0  0  0  0
   -5.0876    2.1536   -1.9647 C   0  0  0  0  0  0  0  0  0  0  0  0
   -5.5324    3.4494   -2.5724 C   0  0  0  0  0  0  0  0  0  0  0  0
   -5.6711    1.6805   -0.7872 C   0  0  0  0  0  0  0  0  0  0  0  0
   -5.2386    0.4810   -0.1888 C   0  0  0  0  0  0  0  0  0  0  0  0
   -5.8995    0.0444    1.0935 C   0  0  0  0  0  0  0  0  0  0  0  0
   -0.6728   -1.6021    0.2840 N   0  0  0  0  0  0  0  0  0  0  0  0
   -1.1559   -1.4363    1.6405 C   0  0  0  0  0  0  0  0  0  0  0  0
   -1.2528   -2.7504    2.3253 C   0  0  0  0  0  0  0  0  0  0  0  0
   -0.3201   -3.6093    2.8715 C   0  0  0  0  0  0  0  0  0  0  0  0
   -1.0448   -4.7117    3.3848 C   0  0  0  0  0  0  0  0  0  0  0  0
   -2.3700   -4.4554    3.1241 C   0  0  0  0  0  0  0  0  0  0  0  0
   -2.5068   -3.2673    2.4819 O   0  0  0  0  0  0  0  0  0  0  0  0
    4.4964    1.5191   -0.4548 C   0  0  0  0  0  0  0  0  0  0  0  0
    5.1050    2.7711   -0.6015 C   0  0  0  0  0  0  0  0  0  0  0  0
    8.4109    5.5921   -0.1402 H   0  0  0  0  0  0  0  0  0  0  0  0
    8.9353    3.9294   -0.4339 H   0  0  0  0  0  0  0  0  0  0  0  0
    8.2741    4.4182    1.1751 H   0  0  0  0  0  0  0  0  0  0  0  0
    8.1294    2.0666    0.7971 H   0  0  0  0  0  0  0  0  0  0  0  0
    7.0726   -0.1136    1.0555 H   0  0  0  0  0  0  0  0  0  0  0  0
    3.3318   -2.3286   -0.5729 H   0  0  0  0  0  0  0  0  0  0  0  0
    3.1959   -0.7310   -1.2923 H   0  0  0  0  0  0  0  0  0  0  0  0
   -2.9289   -3.3445   -0.2791 H   0  0  0  0  0  0  0  0  0  0  0  0
   -3.1901   -2.5911   -1.8267 H   0  0  0  0  0  0  0  0  0  0  0  0
   -4.5242   -1.9343    0.3150 H   0  0  0  0  0  0  0  0  0  0  0  0
   -2.7746   -0.2751   -2.4216 H   0  0  0  0  0  0  0  0  0  0  0  0
   -3.5358    1.7902   -3.4211 H   0  0  0  0  0  0  0  0  0  0  0  0
   -6.5961    3.6262   -2.3809 H   0  0  0  0  0  0  0  0  0  0  0  0
   -4.9544    4.2785   -2.1524 H   0  0  0  0  0  0  0  0  0  0  0  0
   -5.3965    3.4379   -3.6591 H   0  0  0  0  0  0  0  0  0  0  0  0
   -6.4690    2.2566   -0.3218 H   0  0  0  0  0  0  0  0  0  0  0  0
   -6.4731   -0.8733    0.9293 H   0  0  0  0  0  0  0  0  0  0  0  0
   -6.5902    0.8057    1.4717 H   0  0  0  0  0  0  0  0  0  0  0  0
   -5.1485   -0.1258    1.8721 H   0  0  0  0  0  0  0  0  0  0  0  0
   -0.4782   -0.7753    2.1885 H   0  0  0  0  0  0  0  0  0  0  0  0
   -2.1161   -0.9172    1.6144 H   0  0  0  0  0  0  0  0  0  0  0  0
    0.7516   -3.4611    2.8945 H   0  0  0  0  0  0  0  0  0  0  0  0
   -0.6501   -5.5855    3.8845 H   0  0  0  0  0  0  0  0  0  0  0  0
   -3.2887   -4.9903    3.3217 H   0  0  0  0  0  0  0  0  0  0  0  0
    3.4734    1.4104   -0.8024 H   0  0  0  0  0  0  0  0  0  0  0  0
    4.5513    3.5870   -1.0622 H   0  0  0  0  0  0  0  0  0  0  0  0
  1  2  1  0
  2  3  1  0
  3  4  2  0
  4  5  1  0
  5  6  2  0
  6  7  1  0
  7  8  2  0
  7  9  1  0
  9 10  1  0
 10 11  1  0
 11 12  2  0
 12 13  1  0
 13 14  2  0
 14 15  1  0
 15 16  1  0
 16 17  1  0
 17 18  2  0
 18 19  1  0
 19 20  2  0
 20 21  1  0
 20 22  1  0
 22 23  2  0
 23 24  1  0
 14 25  1  0
 25 26  1  0
 26 27  1  0
 27 28  2  0
 28 29  1  0
 29 30  2  0
 30 31  1  0
  6 32  1  0
 32 33  2  0
 33  3  1  0
 25 11  1  0
 31 27  1  0
 23 17  1  0
  1 34  1  0
  1 35  1  0
  1 36  1  0
  4 37  1  0
  5 38  1  0
  9 39  1  0
  9 40  1  0
 15 41  1  0
 15 42  1  0
 16 43  1  0
 18 44  1  0
 19 45  1  0
 21 46  1  0
 21 47  1  0
 21 48  1  0
 22 49  1  0
 24 50  1  0
 24 51  1  0
 24 52  1  0
 26 53  1  0
 26 54  1  0
 28 55  1  0
 29 56  1  0
 30 57  1  0
 32 58  1  0
 33 59  1  0
M  END
$$$$
