
     RDKit          3D

 60 63  0  0  0  0  0  0  0  0999 V2000
   -7.2405   -1.2009   -2.9086 C   0  0  0  0  0  0  0  0  0  0  0  0
   -7.6135   -0.1516   -2.1654 C   0  0  0  0  0  0  0  0  0  0  0  0
   -6.9387    1.1904   -2.1895 C   0  0  0  0  0  0  0  0  0  0  0  0
   -6.2013    1.3755   -0.9479 N   0  0  0  0  0  0  0  0  0  0  0  0
   -6.8405    1.9384    0.1496 C   0  0  0  0  0  0  0  0  0  0  0  0
   -8.0085    2.3225    0.1255 O   0  0  0  0  0  0  0  0  0  0  0  0
   -6.0641    2.0744    1.4158 C   0  0  0  0  0  0  0  0  0  0  0  0
   -6.7043    2.6403    2.5298 C   0  0  0  0  0  0  0  0  0  0  0  0
   -6.0227    2.7804    3.7354 C   0  0  0  0  0  0  0  0  0  0  0  0
   -4.7015    2.3558    3.8321 C   0  0  0  0  0  0  0  0  0  0  0  0
   -4.0530    1.7901    2.7278 C   0  0  0  0  0  0  0  0  0  0  0  0
   -4.7292    1.6456    1.5123 C   0  0  0  0  0  0  0  0  0  0  0  0
   -4.1589    1.0818    0.3479 N   0  0  0  0  0  0  0  0  0  0  0  0
   -2.9249    0.5480    0.0242 C   0  0  0  0  0  0  0  0  0  0  0  0
   -1.5390    0.4049    1.0484 S   0  0  0  0  0  0  0  0  0  0  0  0
   -0.6788   -0.9744    0.2364 C   0  0  0  0  0  0  0  0  0  0  0  0
    0.5514   -1.3563    1.0492 C   0  0  0  0  0  0  0  0  0  0  0  0
    0.4312   -1.8230    2.1791 O   0  0  0  0  0  0  0  0  0  0  0  0
    1.7326   -1.1210    0.3625 N   0  0  0  0  0  0  0  0  0  0  0  0
    3.0318   -1.3769    0.7864 C   0  0  0  0  0  0  0  0  0  0  0  0
    3.3481   -1.9758    2.3336 S   0  0  0  0  0  0  0  0  0  0  0  0
    5.0294   -2.0047    2.0745 C   0  0  0  0  0  0  0  0  0  0  0  0
    5.9203   -2.4822    3.1764 C   0  0  0  0  0  0  0  0  0  0  0  0
    5.3744   -1.5759    0.7988 C   0  0  0  0  0  0  0  0  0  0  0  0
    6.8005   -1.5403    0.3052 C   0  0  0  0  0  0  0  0  0  0  0  0
    7.4487   -0.1762    0.4936 C   0  0  0  0  0  0  0  0  0  0  0  0
    4.1891   -1.1798    0.0385 C   0  0  0  0  0  0  0  0  0  0  0  0
    4.1107   -0.6449   -1.3301 C   0  0  0  0  0  0  0  0  0  0  0  0
    3.0407   -0.3777   -1.8729 O   0  0  0  0  0  0  0  0  0  0  0  0
    5.3210   -0.4681   -1.9288 O   0  0  0  0  0  0  0  0  0  0  0  0
    5.2622    0.0636   -3.2570 C   0  0  0  0  0  0  0  0  0  0  0  0
    6.6828    0.2629   -3.7466 C   0  0  0  0  0  0  0  0  0  0  0  0
   -2.9197    0.1473   -1.2291 N   0  0  0  0  0  0  0  0  0  0  0  0
   -4.1485    0.4072   -1.7613 N   0  0  0  0  0  0  0  0  0  0  0  0
   -4.8867    0.9595   -0.8241 C   0  0  0  0  0  0  0  0  0  0  0  0
   -7.7733   -2.1443   -2.8477 H   0  0  0  0  0  0  0  0  0  0  0  0
   -6.3881   -1.1468   -3.5792 H   0  0  0  0  0  0  0  0  0  0  0  0
   -8.4692   -0.2488   -1.5005 H   0  0  0  0  0  0  0  0  0  0  0  0
   -6.2553    1.2919   -3.0413 H   0  0  0  0  0  0  0  0  0  0  0  0
   -7.6985    1.9737   -2.2948 H   0  0  0  0  0  0  0  0  0  0  0  0
   -7.7393    2.9720    2.4619 H   0  0  0  0  0  0  0  0  0  0  0  0
   -6.5226    3.2160    4.5980 H   0  0  0  0  0  0  0  0  0  0  0  0
   -4.1679    2.4617    4.7750 H   0  0  0  0  0  0  0  0  0  0  0  0
   -3.0276    1.4810    2.8834 H   0  0  0  0  0  0  0  0  0  0  0  0
   -1.3298   -1.8536    0.1815 H   0  0  0  0  0  0  0  0  0  0  0  0
   -0.4046   -0.6913   -0.7850 H   0  0  0  0  0  0  0  0  0  0  0  0
    1.6699   -0.7421   -0.5826 H   0  0  0  0  0  0  0  0  0  0  0  0
    6.1901   -3.5309    3.0120 H   0  0  0  0  0  0  0  0  0  0  0  0
    6.8432   -1.8931    3.2147 H   0  0  0  0  0  0  0  0  0  0  0  0
    5.4427   -2.4013    4.1585 H   0  0  0  0  0  0  0  0  0  0  0  0
    7.3967   -2.2885    0.8423 H   0  0  0  0  0  0  0  0  0  0  0  0
    6.8516   -1.8459   -0.7447 H   0  0  0  0  0  0  0  0  0  0  0  0
    6.8928    0.6118   -0.0219 H   0  0  0  0  0  0  0  0  0  0  0  0
    7.4984    0.0903    1.5536 H   0  0  0  0  0  0  0  0  0  0  0  0
    8.4695   -0.1853    0.1000 H   0  0  0  0  0  0  0  0  0  0  0  0
    4.7350    1.0245   -3.2520 H   0  0  0  0  0  0  0  0  0  0  0  0
    4.7391   -0.6417   -3.9120 H   0  0  0  0  0  0  0  0  0  0  0  0
    6.6924    0.6706   -4.7605 H   0  0  0  0  0  0  0  0  0  0  0  0
    7.2289   -0.6851   -3.7408 H   0  0  0  0  0  0  0  0  0  0  0  0
    7.2253    0.9465   -3.0850 H   0  0  0  0  0  0  0  0  0  0  0  0
  1  2  2  0
  2  3  1  0
  3  4  1  0
  4  5  1  0
  5  6  2  0
  5  7  1  0
  7  8  2  0
  8  9  1  0
  9 10  2  0
 10 11  1  0
 11 12  2  0
 12 13  1  0
 13 14  1  0
 14 15  1  0
 15 16  1  0
 16 17  1  0
 17 18  2  0
 17 19  1  0
 19 20  1  0
 20 21  1  0
 21 22  1  0
 22 23  1  0
 22 24  2  0
 24 25  1  0
 25 26  1  0
 24 27  1  0
 27 28  1  0
 28 29  2  0
 28 30  1  0
 30 31  1  0
 31 32  1  0
 14 33  2  0
 33 34  1  0
 34 35  2  0
 35  4  1  0
 12  7  1  0
 35 13  1  0
 27 20  2  0
  1 36  1  0
  1 37  1  0
  2 38  1  0
  3 39  1  0
  3 40  1  0
  8 41  1  0
  9 42  1  0
 10 43  1  0
 11 44  1  0
 16 45  1  0
 16 46  1  0
 19 47  1  0
 23 48  1  0
 23 49  1  0
 23 50  1  0
 25 51  1  0
 25 52  1  0
 26 53  1  0
 26 54  1  0
 26 55  1  0
 31 56  1  0
 31 57  1  0
 32 58  1  0
 32 59  1  0
 32 60  1  0
M  END
$$$$
