
     RDKit          3D

 35 37  0  0  0  0  0  0  0  0999 V2000
    7.3469    0.1609   -0.1116 C   0  0  0  0  0  0  0  0  0  0  0  0
    6.1626    0.8836   -0.4237 O   0  0  0  0  0  0  0  0  0  0  0  0
    4.9729    0.2787   -0.1283 C   0  0  0  0  0  0  0  0  0  0  0  0
    3.8402    1.0280   -0.4519 C   0  0  0  0  0  0  0  0  0  0  0  0
    2.5570    0.5293   -0.2034 C   0  0  0  0  0  0  0  0  0  0  0  0
    2.3839   -0.7346    0.3759 C   0  0  0  0  0  0  0  0  0  0  0  0
    1.0615   -1.2820    0.6471 C   0  0  0  0  0  0  0  0  0  0  0  0
    0.7096   -2.4336    1.1863 N   0  0  0  0  0  0  0  0  0  0  0  0
   -0.6714   -2.4463    1.2102 N   0  0  0  0  0  0  0  0  0  0  0  0
   -1.0599   -1.3041    0.6871 C   0  0  0  0  0  0  0  0  0  0  0  0
   -2.3515   -0.9001    0.5096 N   0  0  0  0  0  0  0  0  0  0  0  0
   -2.6861    0.3326    0.0048 C   0  0  0  0  0  0  0  0  0  0  0  0
   -1.9116    1.2290   -0.3073 O   0  0  0  0  0  0  0  0  0  0  0  0
   -4.1506    0.5833   -0.1288 C   0  0  0  0  0  0  0  0  0  0  0  0
   -5.0558   -0.4425   -0.4426 C   0  0  0  0  0  0  0  0  0  0  0  0
   -6.4186   -0.1556   -0.5599 C   0  0  0  0  0  0  0  0  0  0  0  0
   -6.8680    1.1479   -0.3734 C   0  0  0  0  0  0  0  0  0  0  0  0
   -8.1748    1.4160   -0.4882 F   0  0  0  0  0  0  0  0  0  0  0  0
   -5.9808    2.1763   -0.0784 C   0  0  0  0  0  0  0  0  0  0  0  0
   -4.6181    1.8958    0.0392 C   0  0  0  0  0  0  0  0  0  0  0  0
   -0.0189   -0.5156    0.3025 O   0  0  0  0  0  0  0  0  0  0  0  0
    3.5271   -1.4806    0.6982 C   0  0  0  0  0  0  0  0  0  0  0  0
    4.8119   -0.9798    0.4488 C   0  0  0  0  0  0  0  0  0  0  0  0
    7.3994   -0.7745   -0.6784 H   0  0  0  0  0  0  0  0  0  0  0  0
    8.2019    0.7769   -0.4063 H   0  0  0  0  0  0  0  0  0  0  0  0
    7.4247   -0.0236    0.9650 H   0  0  0  0  0  0  0  0  0  0  0  0
    3.9554    2.0114   -0.9022 H   0  0  0  0  0  0  0  0  0  0  0  0
    1.6968    1.1426   -0.4685 H   0  0  0  0  0  0  0  0  0  0  0  0
   -3.0457   -1.5482    0.8475 H   0  0  0  0  0  0  0  0  0  0  0  0
   -4.7202   -1.4587   -0.6298 H   0  0  0  0  0  0  0  0  0  0  0  0
   -7.1325   -0.9359   -0.8068 H   0  0  0  0  0  0  0  0  0  0  0  0
   -6.3522    3.1879    0.0530 H   0  0  0  0  0  0  0  0  0  0  0  0
   -3.9206    2.7018    0.2623 H   0  0  0  0  0  0  0  0  0  0  0  0
    3.4253   -2.4666    1.1501 H   0  0  0  0  0  0  0  0  0  0  0  0
    5.6606   -1.5997    0.7181 H   0  0  0  0  0  0  0  0  0  0  0  0
  1  2  1  0
  2  3  1  0
  3  4  2  0
  4  5  1  0
  5  6  2  0
  6  7  1  0
  7  8  2  0
  8  9  1  0
  9 10  2  0
 10 11  1  0
 11 12  1  0
 12 13  2  0
 12 14  1  0
 14 15  2  0
 15 16  1  0
 16 17  2  0
 17 18  1  0
 17 19  1  0
 19 20  2  0
 10 21  1  0
  6 22  1  0
 22 23  2  0
 23  3  1  0
 21  7  1  0
 20 14  1  0
  1 24  1  0
  1 25  1  0
  1 26  1  0
  4 27  1  0
  5 28  1  0
 11 29  1  0
 15 30  1  0
 16 31  1  0
 19 32  1  0
 20 33  1  0
 22 34  1  0
 23 35  1  0
M  END
$$$$
