
     RDKit          3D

 38 40  0  0  0  0  0  0  0  0999 V2000
   -2.0668    2.2040   -0.6441 C   0  0  0  0  0  0  0  0  0  0  0  0
   -1.4061    0.8952   -0.2003 C   0  0  0  0  0  0  0  0  0  0  0  0
   -1.6818    0.6235    1.2990 C   0  0  0  0  0  0  0  0  0  0  0  0
   -1.6621   -0.9020    1.4366 C   0  0  0  0  0  0  0  0  0  0  0  0
   -1.3253   -1.4100    0.0272 C   0  0  0  0  0  0  0  0  0  0  0  0
    0.1951   -1.4644   -0.0708 C   0  0  0  0  0  0  0  0  0  0  0  0
    0.7399   -2.5658    0.0171 O   0  0  0  0  0  0  0  0  0  0  0  0
    0.8430   -0.2167   -0.1545 N   0  0  0  0  0  0  0  0  0  0  0  0
    2.2918   -0.1603   -0.1560 C   0  0  0  0  0  0  0  0  0  0  0  0
    3.0799   -1.2022   -0.6745 C   0  0  0  0  0  0  0  0  0  0  0  0
    4.4787   -1.1399   -0.6583 C   0  0  0  0  0  0  0  0  0  0  0  0
    5.1219   -0.0316   -0.1187 C   0  0  0  0  0  0  0  0  0  0  0  0
    4.3617    1.0093    0.4008 C   0  0  0  0  0  0  0  0  0  0  0  0
    5.1505    2.3788    1.0842 Cl  0  0  0  0  0  0  0  0  0  0  0  0
    2.9654    0.9502    0.3841 C   0  0  0  0  0  0  0  0  0  0  0  0
    0.1279    0.9820   -0.3759 C   0  0  0  0  0  0  0  0  0  0  0  0
    0.6424    2.0445   -0.7314 O   0  0  0  0  0  0  0  0  0  0  0  0
   -1.9285   -0.3679   -0.9245 C   0  0  0  0  0  0  0  0  0  0  0  0
   -3.4725   -0.4764   -0.9395 C   0  0  0  0  0  0  0  0  0  0  0  0
   -1.4680   -0.5213   -2.3862 C   0  0  0  0  0  0  0  0  0  0  0  0
   -3.1480    2.1967   -0.4727 H   0  0  0  0  0  0  0  0  0  0  0  0
   -1.6610    3.0581   -0.0893 H   0  0  0  0  0  0  0  0  0  0  0  0
   -1.8951    2.3944   -1.7090 H   0  0  0  0  0  0  0  0  0  0  0  0
   -2.6589    1.0087    1.6132 H   0  0  0  0  0  0  0  0  0  0  0  0
   -0.9285    1.0837    1.9491 H   0  0  0  0  0  0  0  0  0  0  0  0
   -2.6461   -1.2640    1.7552 H   0  0  0  0  0  0  0  0  0  0  0  0
   -0.9369   -1.2234    2.1925 H   0  0  0  0  0  0  0  0  0  0  0  0
   -1.7246   -2.4150   -0.1490 H   0  0  0  0  0  0  0  0  0  0  0  0
    2.6312   -2.0780   -1.1374 H   0  0  0  0  0  0  0  0  0  0  0  0
    5.0606   -1.9598   -1.0728 H   0  0  0  0  0  0  0  0  0  0  0  0
    6.2073    0.0141   -0.1059 H   0  0  0  0  0  0  0  0  0  0  0  0
    2.4148    1.7779    0.8244 H   0  0  0  0  0  0  0  0  0  0  0  0
   -3.9126    0.2480   -1.6341 H   0  0  0  0  0  0  0  0  0  0  0  0
   -3.9277   -0.3008    0.0394 H   0  0  0  0  0  0  0  0  0  0  0  0
   -3.7850   -1.4744   -1.2684 H   0  0  0  0  0  0  0  0  0  0  0  0
   -0.3836   -0.4748   -2.5161 H   0  0  0  0  0  0  0  0  0  0  0  0
   -1.7945   -1.4860   -2.7920 H   0  0  0  0  0  0  0  0  0  0  0  0
   -1.8985    0.2658   -3.0153 H   0  0  0  0  0  0  0  0  0  0  0  0
  1  2  1  0
  2  3  1  0
  3  4  1  0
  4  5  1  0
  5  6  1  0
  6  7  2  0
  6  8  1  0
  8  9  1  0
  9 10  2  0
 10 11  1  0
 11 12  2  0
 12 13  1  0
 13 14  1  0
 13 15  2  0
  8 16  1  0
 16 17  2  0
  5 18  1  0
 18 19  1  0
 18 20  1  0
 16  2  1  0
 18  2  1  0
 15  9  1  0
  1 21  1  0
  1 22  1  0
  1 23  1  0
  3 24  1  0
  3 25  1  0
  4 26  1  0
  4 27  1  0
  5 28  1  0
 10 29  1  0
 11 30  1  0
 12 31  1  0
 15 32  1  0
 19 33  1  0
 19 34  1  0
 19 35  1  0
 20 36  1  0
 20 37  1  0
 20 38  1  0
M  END
$$$$
