
     RDKit          3D

 65 66  0  0  0  0  0  0  0  0999 V2000
   -3.3078    6.3019    1.0530 C   0  0  0  0  0  0  0  0  0  0  0  0
   -2.8941    5.1786    1.8200 O   0  0  0  0  0  0  0  0  0  0  0  0
   -2.6993    4.0059    1.1449 C   0  0  0  0  0  0  0  0  0  0  0  0
   -2.9053    3.7979   -0.2172 C   0  0  0  0  0  0  0  0  0  0  0  0
   -2.6671    2.5384   -0.7814 C   0  0  0  0  0  0  0  0  0  0  0  0
   -2.2293    1.4593    0.0059 C   0  0  0  0  0  0  0  0  0  0  0  0
   -1.9834    0.1026   -0.6544 C   0  0  0  0  0  0  0  0  0  0  0  0
   -2.4165   -1.1690    0.1394 C   0  0  0  0  0  0  0  0  0  0  0  0
   -1.8300   -2.2453    0.0141 O   0  0  0  0  0  0  0  0  0  0  0  0
   -3.5884   -1.0399    0.8697 N   0  0  0  0  0  0  0  0  0  0  0  0
   -4.1554   -2.0848    1.7361 C   0  0  0  0  0  0  0  0  0  0  0  0
   -5.4508   -1.5305    2.3585 C   0  0  0  0  0  0  0  0  0  0  0  0
   -4.5145   -3.3452    0.9326 C   0  0  0  0  0  0  0  0  0  0  0  0
   -3.1812   -2.4373    2.8705 C   0  0  0  0  0  0  0  0  0  0  0  0
   -0.6269   -0.0066   -1.2296 N   0  0  0  0  0  0  0  0  0  0  0  0
   -0.5390   -0.2876   -2.6659 C   0  0  0  0  0  0  0  0  0  0  0  0
   -0.7655   -1.7631   -3.0073 C   0  0  0  0  0  0  0  0  0  0  0  0
   -0.6368   -1.9487   -4.4127 O   0  0  0  0  0  0  0  0  0  0  0  0
    0.4574   -0.1061   -0.3619 C   0  0  0  0  0  0  0  0  0  0  0  0
    0.3320   -0.0821    0.8628 O   0  0  0  0  0  0  0  0  0  0  0  0
    1.8343   -0.2373   -0.9884 C   0  0  0  0  0  0  0  0  0  0  0  0
    2.9239   -0.3257    0.0761 C   0  0  0  0  0  0  0  0  0  0  0  0
    4.3046   -0.4323   -0.5377 C   0  0  0  0  0  0  0  0  0  0  0  0
    4.4862   -0.4524   -1.7507 O   0  0  0  0  0  0  0  0  0  0  0  0
    5.2860   -0.5003    0.4250 N   0  0  0  0  0  0  0  0  0  0  0  0
    6.6372   -0.5980    0.1791 C   0  0  0  0  0  0  0  0  0  0  0  0
    7.3250   -0.6536   -1.0527 C   0  0  0  0  0  0  0  0  0  0  0  0
    8.6496   -0.7454   -0.7052 C   0  0  0  0  0  0  0  0  0  0  0  0
    9.9090   -0.8388   -1.4620 C   0  0  0  0  0  0  0  0  0  0  0  0
    8.7545   -0.7449    0.6493 O   0  0  0  0  0  0  0  0  0  0  0  0
    7.4924   -0.6527    1.2065 N   0  0  0  0  0  0  0  0  0  0  0  0
   -2.0099    1.6885    1.3712 C   0  0  0  0  0  0  0  0  0  0  0  0
   -2.2490    2.9461    1.9321 C   0  0  0  0  0  0  0  0  0  0  0  0
   -4.2900    6.1300    0.6009 H   0  0  0  0  0  0  0  0  0  0  0  0
   -2.5619    6.5590    0.2936 H   0  0  0  0  0  0  0  0  0  0  0  0
   -3.3988    7.1552    1.7320 H   0  0  0  0  0  0  0  0  0  0  0  0
   -3.2453    4.5934   -0.8717 H   0  0  0  0  0  0  0  0  0  0  0  0
   -2.8243    2.4088   -1.8508 H   0  0  0  0  0  0  0  0  0  0  0  0
   -2.6804    0.0734   -1.5068 H   0  0  0  0  0  0  0  0  0  0  0  0
   -3.9283   -0.0971    1.0215 H   0  0  0  0  0  0  0  0  0  0  0  0
   -5.2506   -0.6301    2.9510 H   0  0  0  0  0  0  0  0  0  0  0  0
   -6.1742   -1.2543    1.5824 H   0  0  0  0  0  0  0  0  0  0  0  0
   -5.9265   -2.2659    3.0169 H   0  0  0  0  0  0  0  0  0  0  0  0
   -5.1632   -3.0986    0.0842 H   0  0  0  0  0  0  0  0  0  0  0  0
   -5.0415   -4.0749    1.5582 H   0  0  0  0  0  0  0  0  0  0  0  0
   -3.6288   -3.8474    0.5320 H   0  0  0  0  0  0  0  0  0  0  0  0
   -2.2568   -2.8836    2.4898 H   0  0  0  0  0  0  0  0  0  0  0  0
   -2.9007   -1.5434    3.4394 H   0  0  0  0  0  0  0  0  0  0  0  0
   -3.6284   -3.1543    3.5681 H   0  0  0  0  0  0  0  0  0  0  0  0
    0.4335    0.0257   -3.0575 H   0  0  0  0  0  0  0  0  0  0  0  0
   -1.2681    0.3403   -3.1927 H   0  0  0  0  0  0  0  0  0  0  0  0
   -1.7696   -2.0830   -2.7130 H   0  0  0  0  0  0  0  0  0  0  0  0
   -0.0340   -2.3999   -2.5002 H   0  0  0  0  0  0  0  0  0  0  0  0
   -0.7230   -2.9047   -4.5767 H   0  0  0  0  0  0  0  0  0  0  0  0
    2.0147    0.6391   -1.6213 H   0  0  0  0  0  0  0  0  0  0  0  0
    1.8630   -1.1377   -1.6109 H   0  0  0  0  0  0  0  0  0  0  0  0
    2.7592   -1.2045    0.7113 H   0  0  0  0  0  0  0  0  0  0  0  0
    2.8993    0.5650    0.7158 H   0  0  0  0  0  0  0  0  0  0  0  0
    5.0465   -0.4779    1.4074 H   0  0  0  0  0  0  0  0  0  0  0  0
    6.9192   -0.6305   -2.0528 H   0  0  0  0  0  0  0  0  0  0  0  0
    9.7201   -0.8470   -2.5399 H   0  0  0  0  0  0  0  0  0  0  0  0
   10.5562    0.0142   -1.2364 H   0  0  0  0  0  0  0  0  0  0  0  0
   10.4450   -1.7571   -1.2036 H   0  0  0  0  0  0  0  0  0  0  0  0
   -1.6361    0.8944    2.0165 H   0  0  0  0  0  0  0  0  0  0  0  0
   -2.0685    3.1019    2.9934 H   0  0  0  0  0  0  0  0  0  0  0  0
  1  2  1  0
  2  3  1  0
  3  4  2  0
  4  5  1  0
  5  6  2  0
  6  7  1  0
  7  8  1  0
  8  9  2  0
  8 10  1  0
 10 11  1  0
 11 12  1  0
 11 13  1  0
 11 14  1  0
  7 15  1  0
 15 16  1  0
 16 17  1  0
 17 18  1  0
 15 19  1  0
 19 20  2  0
 19 21  1  0
 21 22  1  0
 22 23  1  0
 23 24  2  0
 23 25  1  0
 25 26  1  0
 26 27  1  0
 27 28  2  0
 28 29  1  0
 28 30  1  0
 30 31  1  0
  6 32  1  0
 32 33  2  0
 33  3  1  0
 31 26  2  0
  1 34  1  0
  1 35  1  0
  1 36  1  0
  4 37  1  0
  5 38  1  0
  7 39  1  0
 10 40  1  0
 12 41  1  0
 12 42  1  0
 12 43  1  0
 13 44  1  0
 13 45  1  0
 13 46  1  0
 14 47  1  0
 14 48  1  0
 14 49  1  0
 16 50  1  0
 16 51  1  0
 17 52  1  0
 17 53  1  0
 18 54  1  0
 21 55  1  0
 21 56  1  0
 22 57  1  0
 22 58  1  0
 25 59  1  0
 27 60  1  0
 29 61  1  0
 29 62  1  0
 29 63  1  0
 32 64  1  0
 33 65  1  0
M  END
$$$$
