
     RDKit          3D

 54 57  0  0  0  0  0  0  0  0999 V2000
   -5.5315    3.5925   -0.9976 C   0  0  0  0  0  0  0  0  0  0  0  0
   -4.2963    2.7790   -1.2445 C   0  0  0  0  0  0  0  0  0  0  0  0
   -4.3798    1.5062   -1.8091 C   0  0  0  0  0  0  0  0  0  0  0  0
   -3.2326    0.7156   -2.0321 C   0  0  0  0  0  0  0  0  0  0  0  0
   -3.4592   -0.5761   -2.7715 C   0  0  0  0  0  0  0  0  0  0  0  0
   -1.9741    1.1864   -1.5990 C   0  0  0  0  0  0  0  0  0  0  0  0
   -0.7683    0.4496   -1.7221 N   0  0  0  0  0  0  0  0  0  0  0  0
   -0.6055   -0.9215   -1.6066 C   0  0  0  0  0  0  0  0  0  0  0  0
   -1.4423   -1.7286   -1.2131 O   0  0  0  0  0  0  0  0  0  0  0  0
    0.8191   -1.3678   -1.9415 C   0  0  0  0  0  0  0  0  0  0  0  0
    1.6196   -1.5581   -0.7341 N   0  0  0  0  0  0  0  0  0  0  0  0
    2.2268   -0.4256   -0.2035 C   0  0  0  0  0  0  0  0  0  0  0  0
    1.9839    0.6914   -0.6739 O   0  0  0  0  0  0  0  0  0  0  0  0
    3.1069   -0.6170    0.8477 N   0  0  0  0  0  0  0  0  0  0  0  0
    3.7859    0.5469    1.3998 C   0  0  0  0  0  0  0  0  0  0  0  0
    3.0420    1.0388    2.5938 C   0  0  0  0  0  0  0  0  0  0  0  0
    1.8499    1.7134    2.7628 C   0  0  0  0  0  0  0  0  0  0  0  0
    1.6821    1.8900    4.1570 C   0  0  0  0  0  0  0  0  0  0  0  0
    2.7820    1.3177    4.7501 C   0  0  0  0  0  0  0  0  0  0  0  0
    3.6153    0.8049    3.8103 O   0  0  0  0  0  0  0  0  0  0  0  0
    3.4439   -1.8552    1.3758 C   0  0  0  0  0  0  0  0  0  0  0  0
    4.3550   -2.0404    2.1790 O   0  0  0  0  0  0  0  0  0  0  0  0
    2.6540   -3.0066    0.9143 C   0  0  0  0  0  0  0  0  0  0  0  0
    2.8332   -4.2559    1.5283 C   0  0  0  0  0  0  0  0  0  0  0  0
    2.0876   -5.3521    1.1071 C   0  0  0  0  0  0  0  0  0  0  0  0
    1.1644   -5.1965    0.0788 C   0  0  0  0  0  0  0  0  0  0  0  0
    0.9943   -3.9499   -0.5350 C   0  0  0  0  0  0  0  0  0  0  0  0
    1.7465   -2.8366   -0.1302 C   0  0  0  0  0  0  0  0  0  0  0  0
   -1.8806    2.4960   -1.0632 C   0  0  0  0  0  0  0  0  0  0  0  0
   -0.5681    3.1063   -0.6440 C   0  0  0  0  0  0  0  0  0  0  0  0
   -3.0430    3.2667   -0.8809 C   0  0  0  0  0  0  0  0  0  0  0  0
   -5.8660    3.4603    0.0360 H   0  0  0  0  0  0  0  0  0  0  0  0
   -6.3428    3.2932   -1.6699 H   0  0  0  0  0  0  0  0  0  0  0  0
   -5.3378    4.6556   -1.1769 H   0  0  0  0  0  0  0  0  0  0  0  0
   -5.3552    1.1233   -2.1069 H   0  0  0  0  0  0  0  0  0  0  0  0
   -3.7039   -1.3817   -2.0731 H   0  0  0  0  0  0  0  0  0  0  0  0
   -2.5972   -0.8481   -3.3874 H   0  0  0  0  0  0  0  0  0  0  0  0
   -4.2987   -0.4780   -3.4711 H   0  0  0  0  0  0  0  0  0  0  0  0
    0.0939    0.9661   -1.5579 H   0  0  0  0  0  0  0  0  0  0  0  0
    0.7859   -2.2703   -2.5592 H   0  0  0  0  0  0  0  0  0  0  0  0
    1.2981   -0.6125   -2.5785 H   0  0  0  0  0  0  0  0  0  0  0  0
    3.8497    1.3472    0.6542 H   0  0  0  0  0  0  0  0  0  0  0  0
    4.8145    0.2862    1.6740 H   0  0  0  0  0  0  0  0  0  0  0  0
    1.1836    2.0320    1.9749 H   0  0  0  0  0  0  0  0  0  0  0  0
    0.8608    2.3724    4.6679 H   0  0  0  0  0  0  0  0  0  0  0  0
    3.1055    1.1980    5.7748 H   0  0  0  0  0  0  0  0  0  0  0  0
    3.5496   -4.3719    2.3396 H   0  0  0  0  0  0  0  0  0  0  0  0
    2.2184   -6.3191    1.5862 H   0  0  0  0  0  0  0  0  0  0  0  0
    0.5631   -6.0440   -0.2435 H   0  0  0  0  0  0  0  0  0  0  0  0
    0.2333   -3.8825   -1.3075 H   0  0  0  0  0  0  0  0  0  0  0  0
   -0.1019    2.4966    0.1341 H   0  0  0  0  0  0  0  0  0  0  0  0
    0.1044    3.1899   -1.5037 H   0  0  0  0  0  0  0  0  0  0  0  0
   -0.6990    4.1131   -0.2335 H   0  0  0  0  0  0  0  0  0  0  0  0
   -2.9694    4.2606   -0.4421 H   0  0  0  0  0  0  0  0  0  0  0  0
  1  2  1  0
  2  3  2  0
  3  4  1  0
  4  5  1  0
  4  6  2  0
  6  7  1  0
  7  8  1  0
  8  9  2  0
  8 10  1  0
 10 11  1  0
 11 12  1  0
 12 13  2  0
 12 14  1  0
 14 15  1  0
 15 16  1  0
 16 17  2  0
 17 18  1  0
 18 19  2  0
 19 20  1  0
 14 21  1  0
 21 22  2  0
 21 23  1  0
 23 24  2  0
 24 25  1  0
 25 26  2  0
 26 27  1  0
 27 28  2  0
  6 29  1  0
 29 30  1  0
 29 31  2  0
 31  2  1  0
 28 11  1  0
 20 16  1  0
 28 23  1  0
  1 32  1  0
  1 33  1  0
  1 34  1  0
  3 35  1  0
  5 36  1  0
  5 37  1  0
  5 38  1  0
  7 39  1  0
 10 40  1  0
 10 41  1  0
 15 42  1  0
 15 43  1  0
 17 44  1  0
 18 45  1  0
 19 46  1  0
 24 47  1  0
 25 48  1  0
 26 49  1  0
 27 50  1  0
 30 51  1  0
 30 52  1  0
 30 53  1  0
 31 54  1  0
M  END
$$$$
