
     RDKit          3D

 44 46  0  0  0  0  0  0  0  0999 V2000
   -4.3675    2.1343   -2.5954 C   0  0  0  0  0  0  0  0  0  0  0  0
   -3.4383    2.1238   -1.3783 C   0  0  0  0  0  0  0  0  0  0  0  0
   -2.3247    3.1624   -1.5326 C   0  0  0  0  0  0  0  0  0  0  0  0
   -2.8663    0.7434   -1.1012 C   0  0  0  0  0  0  0  0  0  0  0  0
   -3.0526    0.1562    0.1627 C   0  0  0  0  0  0  0  0  0  0  0  0
   -2.5267   -1.1069    0.4513 C   0  0  0  0  0  0  0  0  0  0  0  0
   -1.8001   -1.7872   -0.5271 C   0  0  0  0  0  0  0  0  0  0  0  0
   -1.1178   -3.3882   -0.1681 S   0  0  0  0  0  6  0  0  0  0  0  0
   -1.6872   -3.8552    1.0781 O   0  0  0  0  0  0  0  0  0  0  0  0
   -1.2058   -4.1820   -1.3771 O   0  0  0  0  0  0  0  0  0  0  0  0
    0.5238   -3.0668    0.0623 N   0  0  0  0  0  0  0  0  0  0  0  0
    0.9231   -2.0199    0.9393 C   0  0  0  0  0  0  0  0  0  0  0  0
    0.5800   -2.0379    2.2918 C   0  0  0  0  0  0  0  0  0  0  0  0
    0.9549   -0.9789    3.1210 C   0  0  0  0  0  0  0  0  0  0  0  0
    1.6757    0.0963    2.5909 C   0  0  0  0  0  0  0  0  0  0  0  0
    2.0311    1.1377    3.4055 O   0  0  0  0  0  0  0  0  0  0  0  0
    2.0439    0.1128    1.2394 C   0  0  0  0  0  0  0  0  0  0  0  0
    2.9650    1.4663    0.5242 S   0  0  0  0  0  0  0  0  0  0  0  0
    4.6124    0.9442    0.7748 C   0  0  0  0  0  0  0  0  0  0  0  0
    4.9850   -0.3514    1.0346 N   0  0  0  0  0  0  0  0  0  0  0  0
    6.2884   -0.2704    1.1419 C   0  0  0  0  0  0  0  0  0  0  0  0
    6.6819    1.0110    0.9251 N   0  0  0  0  0  0  0  0  0  0  0  0
    5.6320    1.8055    0.6753 N   0  0  0  0  0  0  0  0  0  0  0  0
    1.6553   -0.9519    0.4154 C   0  0  0  0  0  0  0  0  0  0  0  0
   -1.6165   -1.2296   -1.7958 C   0  0  0  0  0  0  0  0  0  0  0  0
   -2.1401    0.0359   -2.0746 C   0  0  0  0  0  0  0  0  0  0  0  0
   -5.1716    1.3975   -2.4764 H   0  0  0  0  0  0  0  0  0  0  0  0
   -3.8334    1.9021   -3.5230 H   0  0  0  0  0  0  0  0  0  0  0  0
   -4.8296    3.1202   -2.7153 H   0  0  0  0  0  0  0  0  0  0  0  0
   -4.0482    2.4268   -0.5162 H   0  0  0  0  0  0  0  0  0  0  0  0
   -1.6786    3.1829   -0.6490 H   0  0  0  0  0  0  0  0  0  0  0  0
   -2.7514    4.1642   -1.6575 H   0  0  0  0  0  0  0  0  0  0  0  0
   -1.6919    2.9586   -2.4030 H   0  0  0  0  0  0  0  0  0  0  0  0
   -3.6093    0.6801    0.9370 H   0  0  0  0  0  0  0  0  0  0  0  0
   -2.6829   -1.5436    1.4362 H   0  0  0  0  0  0  0  0  0  0  0  0
    1.0628   -3.2060   -0.7911 H   0  0  0  0  0  0  0  0  0  0  0  0
    0.0320   -2.8774    2.7150 H   0  0  0  0  0  0  0  0  0  0  0  0
    0.6810   -1.0112    4.1703 H   0  0  0  0  0  0  0  0  0  0  0  0
    1.6432    1.0026    4.2862 H   0  0  0  0  0  0  0  0  0  0  0  0
    6.9750   -1.0728    1.3671 H   0  0  0  0  0  0  0  0  0  0  0  0
    7.6153    1.4056    0.9254 H   0  0  0  0  0  0  0  0  0  0  0  0
    1.9233   -0.9355   -0.6385 H   0  0  0  0  0  0  0  0  0  0  0  0
   -1.0661   -1.7648   -2.5663 H   0  0  0  0  0  0  0  0  0  0  0  0
   -1.9782    0.4667   -3.0624 H   0  0  0  0  0  0  0  0  0  0  0  0
  1  2  1  0
  2  3  1  0
  2  4  1  0
  4  5  2  0
  5  6  1  0
  6  7  2  0
  7  8  1  0
  8  9  2  0
  8 10  2  0
  8 11  1  0
 11 12  1  0
 12 13  2  0
 13 14  1  0
 14 15  2  0
 15 16  1  0
 15 17  1  0
 17 18  1  0
 18 19  1  0
 19 20  1  0
 20 21  2  0
 21 22  1  0
 22 23  1  0
 17 24  2  0
  7 25  1  0
 25 26  2  0
 26  4  1  0
 24 12  1  0
 23 19  2  0
  1 27  1  0
  1 28  1  0
  1 29  1  0
  2 30  1  0
  3 31  1  0
  3 32  1  0
  3 33  1  0
  5 34  1  0
  6 35  1  0
 11 36  1  0
 13 37  1  0
 14 38  1  0
 16 39  1  0
 21 40  1  0
 22 41  1  0
 24 42  1  0
 25 43  1  0
 26 44  1  0
M  END
$$$$
