
     RDKit          3D

 43 45  0  0  0  0  0  0  0  0999 V2000
    5.2638    4.5280    0.4229 C   0  0  0  0  0  0  0  0  0  0  0  0
    4.8564    3.3724    1.1499 O   0  0  0  0  0  0  0  0  0  0  0  0
    3.6902    2.7724    0.7596 C   0  0  0  0  0  0  0  0  0  0  0  0
    2.7165    3.3718   -0.0374 C   0  0  0  0  0  0  0  0  0  0  0  0
    1.5675    2.6596   -0.4112 C   0  0  0  0  0  0  0  0  0  0  0  0
    1.3679    1.3304   -0.0057 C   0  0  0  0  0  0  0  0  0  0  0  0
    0.1478    0.6342   -0.4591 C   0  0  0  0  0  0  0  0  0  0  0  0
   -0.1101   -0.6746   -0.3039 C   0  0  0  0  0  0  0  0  0  0  0  0
   -1.3437   -1.2889   -0.8082 C   0  0  0  0  0  0  0  0  0  0  0  0
   -1.4949   -1.4229   -2.1898 C   0  0  0  0  0  0  0  0  0  0  0  0
   -2.6226   -2.0301   -2.7094 C   0  0  0  0  0  0  0  0  0  0  0  0
   -3.5964   -2.5141   -1.8437 C   0  0  0  0  0  0  0  0  0  0  0  0
   -4.7395   -3.1414   -2.3593 C   0  0  0  0  0  0  0  0  0  0  0  0
   -5.7222   -3.6382   -1.5068 C   0  0  0  0  0  0  0  0  0  0  0  0
   -5.5725   -3.5163   -0.1326 C   0  0  0  0  0  0  0  0  0  0  0  0
   -4.4389   -2.8925    0.3963 C   0  0  0  0  0  0  0  0  0  0  0  0
   -3.4291   -2.3743   -0.4394 C   0  0  0  0  0  0  0  0  0  0  0  0
   -2.3037   -1.7502    0.0439 N   0  0  0  0  0  4  0  0  0  0  0  0
   -2.1537   -1.5634    1.5069 C   0  0  0  0  0  0  0  0  0  0  0  0
    2.3339    0.7450    0.8172 C   0  0  0  0  0  0  0  0  0  0  0  0
    3.4668    1.4668    1.2127 C   0  0  0  0  0  0  0  0  0  0  0  0
    4.3913    0.7898    1.9671 O   0  0  0  0  0  0  0  0  0  0  0  0
    4.4010    1.2525    3.3166 C   0  0  0  0  0  0  0  0  0  0  0  0
    4.6164    5.3826    0.6503 H   0  0  0  0  0  0  0  0  0  0  0  0
    5.2957    4.3314   -0.6555 H   0  0  0  0  0  0  0  0  0  0  0  0
    6.2774    4.7847    0.7439 H   0  0  0  0  0  0  0  0  0  0  0  0
    2.8212    4.3943   -0.3885 H   0  0  0  0  0  0  0  0  0  0  0  0
    0.8385    3.1658   -1.0427 H   0  0  0  0  0  0  0  0  0  0  0  0
   -0.5764    1.2704   -0.9690 H   0  0  0  0  0  0  0  0  0  0  0  0
    0.5841   -1.3541    0.1811 H   0  0  0  0  0  0  0  0  0  0  0  0
   -0.7238   -1.0614   -2.8697 H   0  0  0  0  0  0  0  0  0  0  0  0
   -2.7266   -2.1296   -3.7896 H   0  0  0  0  0  0  0  0  0  0  0  0
   -4.8795   -3.2533   -3.4339 H   0  0  0  0  0  0  0  0  0  0  0  0
   -6.6052   -4.1244   -1.9183 H   0  0  0  0  0  0  0  0  0  0  0  0
   -6.3425   -3.9100    0.5298 H   0  0  0  0  0  0  0  0  0  0  0  0
   -4.3827   -2.8363    1.4786 H   0  0  0  0  0  0  0  0  0  0  0  0
   -3.0397   -1.0403    1.8772 H   0  0  0  0  0  0  0  0  0  0  0  0
   -2.0507   -2.5551    1.9582 H   0  0  0  0  0  0  0  0  0  0  0  0
   -1.2828   -0.9621    1.7658 H   0  0  0  0  0  0  0  0  0  0  0  0
    2.2497   -0.2789    1.1635 H   0  0  0  0  0  0  0  0  0  0  0  0
    3.5708    0.7956    3.8645 H   0  0  0  0  0  0  0  0  0  0  0  0
    5.3341    0.9184    3.7743 H   0  0  0  0  0  0  0  0  0  0  0  0
    4.3462    2.3464    3.4071 H   0  0  0  0  0  0  0  0  0  0  0  0
  1  2  1  0
  2  3  1  0
  3  4  2  0
  4  5  1  0
  5  6  2  0
  6  7  1  0
  7  8  2  3
  8  9  1  0
  9 10  2  0
 10 11  1  0
 11 12  2  0
 12 13  1  0
 13 14  2  0
 14 15  1  0
 15 16  2  0
 16 17  1  0
 17 18  2  0
 18 19  1  0
  6 20  1  0
 20 21  2  0
 21 22  1  0
 22 23  1  0
 21  3  1  0
 18  9  1  0
 17 12  1  0
  1 24  1  0
  1 25  1  0
  1 26  1  0
  4 27  1  0
  5 28  1  0
  7 29  1  0
  8 30  1  0
 10 31  1  0
 11 32  1  0
 13 33  1  0
 14 34  1  0
 15 35  1  0
 16 36  1  0
 19 37  1  0
 19 38  1  0
 19 39  1  0
 20 40  1  0
 23 41  1  0
 23 42  1  0
 23 43  1  0
M  CHG  1  18   1
M  END
$$$$
