
     RDKit          3D

 64 67  0  0  0  0  0  0  0  0999 V2000
    5.7324   -2.4468   -6.6345 C   0  0  0  0  0  0  0  0  0  0  0  0
    4.5711   -1.7869   -6.0137 C   0  0  0  0  0  0  0  0  0  0  0  0
    4.1909   -1.5438   -4.7180 C   0  0  0  0  0  0  0  0  0  0  0  0
    2.9675   -0.8505   -4.8285 C   0  0  0  0  0  0  0  0  0  0  0  0
    2.1465   -0.3557   -3.8395 N   0  0  0  0  0  0  0  0  0  0  0  0
    2.3875   -0.4456   -2.4882 C   0  0  0  0  0  0  0  0  0  0  0  0
    3.3614   -0.9771   -1.9659 O   0  0  0  0  0  0  0  0  0  0  0  0
    1.2881    0.2085   -1.6760 C   0  0  0  0  0  0  0  0  0  0  0  0
    1.5446    0.0891   -0.1733 C   0  0  0  0  0  0  0  0  0  0  0  0
    0.4280    0.7417    0.6277 C   0  0  0  0  0  0  0  0  0  0  0  0
   -0.3689    1.4914    0.0517 O   0  0  0  0  0  0  0  0  0  0  0  0
    0.2783    0.4115    1.9764 N   0  0  0  0  0  0  0  0  0  0  0  0
    1.1877   -0.4093    2.7143 C   0  0  0  0  0  0  0  0  0  0  0  0
    0.7189   -1.4286    3.5495 C   0  0  0  0  0  0  0  0  0  0  0  0
    1.6179   -2.2029    4.2824 C   0  0  0  0  0  0  0  0  0  0  0  0
    2.9683   -1.9260    4.1720 C   0  0  0  0  0  0  0  0  0  0  0  0
    3.4635   -0.9382    3.4001 N   0  0  0  0  0  0  0  0  0  0  0  0
    2.5670   -0.2054    2.6960 C   0  0  0  0  0  0  0  0  0  0  0  0
   -0.9076    0.9274    2.7291 C   0  0  0  0  0  0  0  0  0  0  0  0
   -2.2078    0.1785    2.3307 C   0  0  0  0  0  0  0  0  0  0  0  0
   -2.9480   -0.3230    3.1778 O   0  0  0  0  0  0  0  0  0  0  0  0
   -2.5144    0.1588    0.9852 N   0  0  0  0  0  0  0  0  0  0  0  0
   -3.7656   -0.3658    0.4874 C   0  0  0  0  0  0  0  0  0  0  0  0
   -3.9220   -0.1541   -1.0142 C   0  0  0  0  0  0  0  0  0  0  0  0
   -5.0430   -1.1103   -1.3901 C   0  0  0  0  0  0  0  0  0  0  0  0
   -4.8949   -2.3013   -0.4464 C   0  0  0  0  0  0  0  0  0  0  0  0
   -3.8858   -1.8830    0.6217 C   0  0  0  0  0  0  0  0  0  0  0  0
   -1.0015    2.4574    2.7581 C   0  0  0  0  0  0  0  0  0  0  0  0
    0.1358    3.2095    3.1101 C   0  0  0  0  0  0  0  0  0  0  0  0
    0.0908    4.6034    3.1666 C   0  0  0  0  0  0  0  0  0  0  0  0
   -1.0946    5.2726    2.8855 C   0  0  0  0  0  0  0  0  0  0  0  0
   -2.2363    4.5475    2.5580 C   0  0  0  0  0  0  0  0  0  0  0  0
   -2.1946    3.1515    2.5015 C   0  0  0  0  0  0  0  0  0  0  0  0
    2.6247   -0.6900   -6.1116 N   0  0  0  0  0  0  0  0  0  0  0  0
    3.6338   -1.2758   -6.8539 O   0  0  0  0  0  0  0  0  0  0  0  0
    6.0575   -3.3043   -6.0369 H   0  0  0  0  0  0  0  0  0  0  0  0
    5.4925   -2.8076   -7.6383 H   0  0  0  0  0  0  0  0  0  0  0  0
    6.5693   -1.7460   -6.7138 H   0  0  0  0  0  0  0  0  0  0  0  0
    4.7273   -1.8257   -3.8255 H   0  0  0  0  0  0  0  0  0  0  0  0
    1.3213    0.1116   -4.1882 H   0  0  0  0  0  0  0  0  0  0  0  0
    1.2308    1.2651   -1.9678 H   0  0  0  0  0  0  0  0  0  0  0  0
    0.3329   -0.2677   -1.9329 H   0  0  0  0  0  0  0  0  0  0  0  0
    1.6241   -0.9700    0.0947 H   0  0  0  0  0  0  0  0  0  0  0  0
    2.4859    0.5962    0.0571 H   0  0  0  0  0  0  0  0  0  0  0  0
   -0.3406   -1.6615    3.6237 H   0  0  0  0  0  0  0  0  0  0  0  0
    1.2684   -3.0088    4.9190 H   0  0  0  0  0  0  0  0  0  0  0  0
    3.7089   -2.5037    4.7183 H   0  0  0  0  0  0  0  0  0  0  0  0
    3.0198    0.6090    2.1401 H   0  0  0  0  0  0  0  0  0  0  0  0
   -0.7661    0.6717    3.7900 H   0  0  0  0  0  0  0  0  0  0  0  0
   -2.0062    0.8310    0.4047 H   0  0  0  0  0  0  0  0  0  0  0  0
   -4.5861    0.1241    1.0268 H   0  0  0  0  0  0  0  0  0  0  0  0
   -3.0005   -0.4226   -1.5469 H   0  0  0  0  0  0  0  0  0  0  0  0
   -4.1606    0.8843   -1.2650 H   0  0  0  0  0  0  0  0  0  0  0  0
   -4.9946   -1.4083   -2.4417 H   0  0  0  0  0  0  0  0  0  0  0  0
   -6.0149   -0.6294   -1.2274 H   0  0  0  0  0  0  0  0  0  0  0  0
   -5.8617   -2.5530    0.0024 H   0  0  0  0  0  0  0  0  0  0  0  0
   -4.5419   -3.1898   -0.9805 H   0  0  0  0  0  0  0  0  0  0  0  0
   -4.2080   -2.1863    1.6220 H   0  0  0  0  0  0  0  0  0  0  0  0
   -2.9213   -2.3691    0.4297 H   0  0  0  0  0  0  0  0  0  0  0  0
    1.0731    2.7120    3.3459 H   0  0  0  0  0  0  0  0  0  0  0  0
    0.9809    5.1674    3.4308 H   0  0  0  0  0  0  0  0  0  0  0  0
   -1.1288    6.3574    2.9284 H   0  0  0  0  0  0  0  0  0  0  0  0
   -3.1659    5.0687    2.3472 H   0  0  0  0  0  0  0  0  0  0  0  0
   -3.1148    2.6259    2.2554 H   0  0  0  0  0  0  0  0  0  0  0  0
  1  2  1  0
  2  3  2  0
  3  4  1  0
  4  5  1  0
  5  6  1  0
  6  7  2  0
  6  8  1  0
  8  9  1  0
  9 10  1  0
 10 11  2  0
 10 12  1  0
 12 13  1  0
 13 14  2  0
 14 15  1  0
 15 16  2  0
 16 17  1  0
 17 18  2  0
 12 19  1  0
 19 20  1  0
 20 21  2  0
 20 22  1  0
 22 23  1  0
 23 24  1  0
 24 25  1  0
 25 26  1  0
 26 27  1  0
 19 28  1  0
 28 29  2  0
 29 30  1  0
 30 31  2  0
 31 32  1  0
 32 33  2  0
  4 34  2  0
 34 35  1  0
 35  2  1  0
 18 13  1  0
 27 23  1  0
 33 28  1  0
  1 36  1  0
  1 37  1  0
  1 38  1  0
  3 39  1  0
  5 40  1  0
  8 41  1  0
  8 42  1  0
  9 43  1  0
  9 44  1  0
 14 45  1  0
 15 46  1  0
 16 47  1  0
 18 48  1  0
 19 49  1  0
 22 50  1  0
 23 51  1  0
 24 52  1  0
 24 53  1  0
 25 54  1  0
 25 55  1  0
 26 56  1  0
 26 57  1  0
 27 58  1  0
 27 59  1  0
 29 60  1  0
 30 61  1  0
 31 62  1  0
 32 63  1  0
 33 64  1  0
M  END
$$$$
