
     RDKit          3D

 34 34  0  0  0  0  0  0  0  0999 V2000
    5.0470   -1.6332    0.3579 C   0  0  0  0  0  0  0  0  0  0  0  0
    4.0964   -0.5994   -0.2257 C   0  0  0  0  0  0  0  0  0  0  0  0
    4.1261    0.7025    0.5770 C   0  0  0  0  0  0  0  0  0  0  0  0
    3.2343    1.7847   -0.0265 C   0  0  0  0  0  0  0  0  0  0  0  0
    1.8553    1.3950    0.0679 O   0  0  0  0  0  0  0  0  0  0  0  0
    1.2285    1.0837   -1.0922 C   0  0  0  0  0  0  0  0  0  0  0  0
    1.7229    1.0988   -2.2081 O   0  0  0  0  0  0  0  0  0  0  0  0
   -0.1858    0.6985   -0.8331 C   0  0  0  0  0  0  0  0  0  0  0  0
   -0.7388    0.6725    0.4518 C   0  0  0  0  0  0  0  0  0  0  0  0
   -2.0769    0.3004    0.6413 C   0  0  0  0  0  0  0  0  0  0  0  0
   -2.8791   -0.0506   -0.4461 C   0  0  0  0  0  0  0  0  0  0  0  0
   -4.2313   -0.4347   -0.3385 N   0  0  0  0  0  0  0  0  0  0  0  0
   -4.9863   -0.5446    0.8155 C   0  0  0  0  0  0  0  0  0  0  0  0
   -6.4002   -0.9884    0.5323 C   0  0  0  0  0  0  0  0  0  0  0  0
   -4.6105   -0.3468    1.9651 O   0  0  0  0  0  0  0  0  0  0  0  0
   -2.3230   -0.0234   -1.7313 C   0  0  0  0  0  0  0  0  0  0  0  0
   -0.9877    0.3474   -1.9248 C   0  0  0  0  0  0  0  0  0  0  0  0
    4.7765   -1.8758    1.3905 H   0  0  0  0  0  0  0  0  0  0  0  0
    5.0096   -2.5562   -0.2291 H   0  0  0  0  0  0  0  0  0  0  0  0
    6.0785   -1.2670    0.3493 H   0  0  0  0  0  0  0  0  0  0  0  0
    3.0833   -1.0166   -0.2338 H   0  0  0  0  0  0  0  0  0  0  0  0
    4.3763   -0.4012   -1.2668 H   0  0  0  0  0  0  0  0  0  0  0  0
    3.7974    0.4933    1.6024 H   0  0  0  0  0  0  0  0  0  0  0  0
    5.1543    1.0790    0.6291 H   0  0  0  0  0  0  0  0  0  0  0  0
    3.5404    2.0204   -1.0519 H   0  0  0  0  0  0  0  0  0  0  0  0
    3.3409    2.7051    0.5577 H   0  0  0  0  0  0  0  0  0  0  0  0
   -0.1454    0.9383    1.3235 H   0  0  0  0  0  0  0  0  0  0  0  0
   -2.4596    0.2969    1.6576 H   0  0  0  0  0  0  0  0  0  0  0  0
   -4.6969   -0.6630   -1.2078 H   0  0  0  0  0  0  0  0  0  0  0  0
   -7.0508   -0.6743    1.3536 H   0  0  0  0  0  0  0  0  0  0  0  0
   -6.4268   -2.0776    0.4438 H   0  0  0  0  0  0  0  0  0  0  0  0
   -6.7757   -0.5346   -0.3894 H   0  0  0  0  0  0  0  0  0  0  0  0
   -2.9161   -0.2898   -2.6026 H   0  0  0  0  0  0  0  0  0  0  0  0
   -0.5768    0.3604   -2.9329 H   0  0  0  0  0  0  0  0  0  0  0  0
  1  2  1  0
  2  3  1  0
  3  4  1  0
  4  5  1  0
  5  6  1  0
  6  7  2  0
  6  8  1  0
  8  9  2  0
  9 10  1  0
 10 11  2  0
 11 12  1  0
 12 13  1  0
 13 14  1  0
 13 15  2  0
 11 16  1  0
 16 17  2  0
 17  8  1  0
  1 18  1  0
  1 19  1  0
  1 20  1  0
  2 21  1  0
  2 22  1  0
  3 23  1  0
  3 24  1  0
  4 25  1  0
  4 26  1  0
  9 27  1  0
 10 28  1  0
 12 29  1  0
 14 30  1  0
 14 31  1  0
 14 32  1  0
 16 33  1  0
 17 34  1  0
M  END
$$$$
