
     RDKit          3D

 44 44  0  0  0  0  0  0  0  0999 V2000
   -4.3089   -0.4920   -1.6397 C   0  0  0  0  0  0  0  0  0  0  0  0
   -4.1369    0.5497   -0.5425 C   0  0  0  0  0  0  0  0  0  0  0  0
   -2.7264    0.9237   -0.3826 N   0  0  0  0  0  0  0  0  0  0  0  0
   -2.2725    2.0654   -1.1905 C   0  0  0  0  0  0  0  0  0  0  0  0
   -2.4376    3.3730   -0.4292 C   0  0  0  0  0  0  0  0  0  0  0  0
   -1.8622    0.2238    0.4528 C   0  0  0  0  0  0  0  0  0  0  0  0
   -2.2323   -0.9706    1.0908 C   0  0  0  0  0  0  0  0  0  0  0  0
   -1.3517   -1.6889    1.9109 C   0  0  0  0  0  0  0  0  0  0  0  0
   -0.0549   -1.2341    2.1228 C   0  0  0  0  0  0  0  0  0  0  0  0
    0.3524   -0.0541    1.5196 C   0  0  0  0  0  0  0  0  0  0  0  0
    1.5921    0.5142    1.6082 O   0  0  0  0  0  0  0  0  0  0  0  0
    2.6166   -0.2003    2.2730 C   0  0  0  0  0  0  0  0  0  0  0  0
    3.1836   -1.4436    1.5642 C   0  0  0  0  0  0  0  0  0  0  0  0
    3.1633   -2.5341    2.1437 O   0  0  0  0  0  0  0  0  0  0  0  0
    3.7628   -1.2889    0.3024 N   0  0  0  0  0  0  0  0  0  0  0  0
    4.3126   -2.4730   -0.3426 C   0  0  0  0  0  0  0  0  0  0  0  0
    3.5911   -0.0990   -0.5423 C   0  0  0  0  0  0  0  0  0  0  0  0
    2.4238   -0.2341   -1.5221 C   0  0  0  0  0  0  0  0  0  0  0  0
    2.1238    1.0545   -2.1510 C   0  0  0  0  0  0  0  0  0  0  0  0
    1.8955    2.0775   -2.6494 N   0  0  0  0  0  0  0  0  0  0  0  0
   -0.5514    0.6598    0.7135 C   0  0  0  0  0  0  0  0  0  0  0  0
   -3.9233   -0.1230   -2.5947 H   0  0  0  0  0  0  0  0  0  0  0  0
   -5.3688   -0.7336   -1.7656 H   0  0  0  0  0  0  0  0  0  0  0  0
   -3.7767   -1.4185   -1.4053 H   0  0  0  0  0  0  0  0  0  0  0  0
   -4.5738    0.2018    0.4000 H   0  0  0  0  0  0  0  0  0  0  0  0
   -4.7243    1.4362   -0.8139 H   0  0  0  0  0  0  0  0  0  0  0  0
   -1.2408    1.9387   -1.5333 H   0  0  0  0  0  0  0  0  0  0  0  0
   -2.8622    2.1227   -2.1123 H   0  0  0  0  0  0  0  0  0  0  0  0
   -1.8429    3.3825    0.4903 H   0  0  0  0  0  0  0  0  0  0  0  0
   -2.1174    4.2156   -1.0511 H   0  0  0  0  0  0  0  0  0  0  0  0
   -3.4843    3.5336   -0.1509 H   0  0  0  0  0  0  0  0  0  0  0  0
   -3.2241   -1.3910    0.9611 H   0  0  0  0  0  0  0  0  0  0  0  0
   -1.6835   -2.6122    2.3796 H   0  0  0  0  0  0  0  0  0  0  0  0
    0.5964   -1.8244    2.7599 H   0  0  0  0  0  0  0  0  0  0  0  0
    3.4582    0.4891    2.4088 H   0  0  0  0  0  0  0  0  0  0  0  0
    2.3064   -0.4676    3.2908 H   0  0  0  0  0  0  0  0  0  0  0  0
    3.5607   -2.8893   -1.0189 H   0  0  0  0  0  0  0  0  0  0  0  0
    5.2033   -2.1933   -0.9097 H   0  0  0  0  0  0  0  0  0  0  0  0
    4.5919   -3.2391    0.3859 H   0  0  0  0  0  0  0  0  0  0  0  0
    4.5278    0.0543   -1.0932 H   0  0  0  0  0  0  0  0  0  0  0  0
    3.4730    0.7867    0.0876 H   0  0  0  0  0  0  0  0  0  0  0  0
    1.5350   -0.6189   -1.0161 H   0  0  0  0  0  0  0  0  0  0  0  0
    2.6746   -0.9688   -2.2954 H   0  0  0  0  0  0  0  0  0  0  0  0
   -0.1880    1.5896    0.2864 H   0  0  0  0  0  0  0  0  0  0  0  0
  1  2  1  0
  2  3  1  0
  3  4  1  0
  4  5  1  0
  3  6  1  0
  6  7  2  0
  7  8  1  0
  8  9  2  0
  9 10  1  0
 10 11  1  0
 11 12  1  0
 12 13  1  0
 13 14  2  0
 13 15  1  0
 15 16  1  0
 15 17  1  0
 17 18  1  0
 18 19  1  0
 19 20  3  0
 10 21  2  0
 21  6  1  0
  1 22  1  0
  1 23  1  0
  1 24  1  0
  2 25  1  0
  2 26  1  0
  4 27  1  0
  4 28  1  0
  5 29  1  0
  5 30  1  0
  5 31  1  0
  7 32  1  0
  8 33  1  0
  9 34  1  0
 12 35  1  0
 12 36  1  0
 16 37  1  0
 16 38  1  0
 16 39  1  0
 17 40  1  0
 17 41  1  0
 18 42  1  0
 18 43  1  0
 21 44  1  0
M  END
$$$$
