
     RDKit          3D

 37 38  0  0  0  0  0  0  0  0999 V2000
    0.7645   -0.4751    0.3166 O   0  0  0  0  0  0  0  0  0  0  0  0
    0.6706   -0.4509   -0.9039 C   0  0  0  0  0  0  0  0  0  0  0  0
   -0.6361   -0.7473   -1.6278 C   0  0  0  0  0  0  0  0  0  0  0  0
   -1.8220   -0.9621   -0.6885 C   0  0  0  0  0  0  0  0  0  0  0  0
   -2.3077    0.3455   -0.0544 C   0  0  0  0  0  0  0  0  0  0  0  0
   -3.4887    0.1127    0.8547 C   0  0  0  0  0  0  0  0  0  0  0  0
   -4.7984    0.2415    0.3744 C   0  0  0  0  0  0  0  0  0  0  0  0
   -5.8859    0.0082    1.2179 C   0  0  0  0  0  0  0  0  0  0  0  0
   -5.6742   -0.3596    2.5455 C   0  0  0  0  0  0  0  0  0  0  0  0
   -4.3750   -0.4961    3.0310 C   0  0  0  0  0  0  0  0  0  0  0  0
   -3.2866   -0.2633    2.1895 C   0  0  0  0  0  0  0  0  0  0  0  0
    1.6933   -0.1767   -1.7988 N   0  0  0  0  0  0  0  0  0  0  0  0
    3.0345    0.1450   -1.5014 C   0  0  0  0  0  0  0  0  0  0  0  0
    3.8897    0.3612   -2.5929 C   0  0  0  0  0  0  0  0  0  0  0  0
    5.2359    0.6841   -2.4018 C   0  0  0  0  0  0  0  0  0  0  0  0
    5.7467    0.7962   -1.1116 C   0  0  0  0  0  0  0  0  0  0  0  0
    4.8982    0.5835   -0.0174 C   0  0  0  0  0  0  0  0  0  0  0  0
    5.4372    0.7035    1.3439 N   0  0  0  0  0  4  0  0  0  0  0  0
    4.6473    0.6150    2.2932 O   0  0  0  0  0  0  0  0  0  0  0  0
    6.6573    0.8900    1.4629 O   0  0  0  0  0  1  0  0  0  0  0  0
    3.5452    0.2591   -0.2061 C   0  0  0  0  0  0  0  0  0  0  0  0
   -0.8516    0.0678   -2.3285 H   0  0  0  0  0  0  0  0  0  0  0  0
   -0.4816   -1.6626   -2.2123 H   0  0  0  0  0  0  0  0  0  0  0  0
   -1.5592   -1.6881    0.0911 H   0  0  0  0  0  0  0  0  0  0  0  0
   -2.6435   -1.4079   -1.2642 H   0  0  0  0  0  0  0  0  0  0  0  0
   -1.5067    0.8276    0.5183 H   0  0  0  0  0  0  0  0  0  0  0  0
   -2.5867    1.0611   -0.8384 H   0  0  0  0  0  0  0  0  0  0  0  0
   -4.9795    0.5245   -0.6596 H   0  0  0  0  0  0  0  0  0  0  0  0
   -6.8990    0.1127    0.8389 H   0  0  0  0  0  0  0  0  0  0  0  0
   -6.5210   -0.5411    3.2017 H   0  0  0  0  0  0  0  0  0  0  0  0
   -4.2075   -0.7852    4.0652 H   0  0  0  0  0  0  0  0  0  0  0  0
   -2.2763   -0.3772    2.5786 H   0  0  0  0  0  0  0  0  0  0  0  0
    1.4542   -0.2219   -2.7820 H   0  0  0  0  0  0  0  0  0  0  0  0
    3.5200    0.2802   -3.6130 H   0  0  0  0  0  0  0  0  0  0  0  0
    5.8842    0.8470   -3.2600 H   0  0  0  0  0  0  0  0  0  0  0  0
    6.7964    1.0484   -0.9747 H   0  0  0  0  0  0  0  0  0  0  0  0
    2.9119    0.1003    0.6617 H   0  0  0  0  0  0  0  0  0  0  0  0
  1  2  2  0
  2  3  1  0
  3  4  1  0
  4  5  1  0
  5  6  1  0
  6  7  2  0
  7  8  1  0
  8  9  2  0
  9 10  1  0
 10 11  2  0
  2 12  1  0
 12 13  1  0
 13 14  2  0
 14 15  1  0
 15 16  2  0
 16 17  1  0
 17 18  1  0
 18 19  2  0
 18 20  1  0
 17 21  2  0
 11  6  1  0
 21 13  1  0
  3 22  1  0
  3 23  1  0
  4 24  1  0
  4 25  1  0
  5 26  1  0
  5 27  1  0
  7 28  1  0
  8 29  1  0
  9 30  1  0
 10 31  1  0
 11 32  1  0
 12 33  1  0
 14 34  1  0
 15 35  1  0
 16 36  1  0
 21 37  1  0
M  CHG  2  18   1  20  -1
M  END
$$$$
