
     RDKit          3D

 40 41  0  0  0  0  0  0  0  0999 V2000
   -6.9019   -0.7025   -0.0223 C   0  0  0  0  0  0  0  0  0  0  0  0
   -5.4194   -0.4731    0.0195 C   0  0  0  0  0  0  0  0  0  0  0  0
   -4.7305   -0.5023    1.2269 C   0  0  0  0  0  0  0  0  0  0  0  0
   -3.3641   -0.2531    1.2409 C   0  0  0  0  0  0  0  0  0  0  0  0
   -2.6887    0.0312    0.0483 C   0  0  0  0  0  0  0  0  0  0  0  0
   -1.2535    0.3281    0.0661 C   0  0  0  0  0  0  0  0  0  0  0  0
   -0.3416   -0.5529    0.5075 C   0  0  0  0  0  0  0  0  0  0  0  0
    1.1011   -0.2794    0.5139 C   0  0  0  0  0  0  0  0  0  0  0  0
    1.9893   -1.3042    0.1919 C   0  0  0  0  0  0  0  0  0  0  0  0
    3.3759   -1.0845    0.2141 C   0  0  0  0  0  0  0  0  0  0  0  0
    3.9362    0.1572    0.5576 C   0  0  0  0  0  0  0  0  0  0  0  0
    5.3157    0.3687    0.6003 N   0  0  0  0  0  0  0  0  0  0  0  0
    6.2261   -0.6574    0.0947 C   0  0  0  0  0  0  0  0  0  0  0  0
    5.8304    1.7374    0.5793 C   0  0  0  0  0  0  0  0  0  0  0  0
    3.0183    1.1628    0.9055 C   0  0  0  0  0  0  0  0  0  0  0  0
    1.6297    0.9554    0.8882 C   0  0  0  0  0  0  0  0  0  0  0  0
   -3.3814    0.0688   -1.1230 N   0  0  0  0  0  4  0  0  0  0  0  0
   -2.6907    0.3479   -2.3987 C   0  0  0  0  0  0  0  0  0  0  0  0
   -4.7151   -0.1706   -1.1449 C   0  0  0  0  0  0  0  0  0  0  0  0
   -7.4308    0.2511    0.0723 H   0  0  0  0  0  0  0  0  0  0  0  0
   -7.2186   -1.3646    0.7902 H   0  0  0  0  0  0  0  0  0  0  0  0
   -7.1954   -1.1796   -0.9632 H   0  0  0  0  0  0  0  0  0  0  0  0
   -5.2501   -0.7134    2.1617 H   0  0  0  0  0  0  0  0  0  0  0  0
   -2.8287   -0.2701    2.1895 H   0  0  0  0  0  0  0  0  0  0  0  0
   -0.9568    1.3023   -0.3134 H   0  0  0  0  0  0  0  0  0  0  0  0
   -0.6272   -1.5416    0.8643 H   0  0  0  0  0  0  0  0  0  0  0  0
    1.6279   -2.2930   -0.0823 H   0  0  0  0  0  0  0  0  0  0  0  0
    4.0089   -1.9281   -0.0451 H   0  0  0  0  0  0  0  0  0  0  0  0
    7.2726   -0.3733    0.2530 H   0  0  0  0  0  0  0  0  0  0  0  0
    6.0896   -1.6054    0.6263 H   0  0  0  0  0  0  0  0  0  0  0  0
    6.0825   -0.8131   -0.9801 H   0  0  0  0  0  0  0  0  0  0  0  0
    5.4774    2.2756   -0.3073 H   0  0  0  0  0  0  0  0  0  0  0  0
    6.9259    1.7544    0.5585 H   0  0  0  0  0  0  0  0  0  0  0  0
    5.5370    2.2835    1.4817 H   0  0  0  0  0  0  0  0  0  0  0  0
    3.3648    2.1418    1.2242 H   0  0  0  0  0  0  0  0  0  0  0  0
    0.9858    1.7745    1.1982 H   0  0  0  0  0  0  0  0  0  0  0  0
   -3.3859    0.2332   -3.2343 H   0  0  0  0  0  0  0  0  0  0  0  0
   -1.8735   -0.3689   -2.5149 H   0  0  0  0  0  0  0  0  0  0  0  0
   -2.3259    1.3777   -2.3678 H   0  0  0  0  0  0  0  0  0  0  0  0
   -5.2155   -0.1206   -2.1089 H   0  0  0  0  0  0  0  0  0  0  0  0
  1  2  1  0
  2  3  2  0
  3  4  1  0
  4  5  2  0
  5  6  1  0
  6  7  2  3
  7  8  1  0
  8  9  2  0
  9 10  1  0
 10 11  2  0
 11 12  1  0
 12 13  1  0
 12 14  1  0
 11 15  1  0
 15 16  2  0
  5 17  1  0
 17 18  1  0
 17 19  2  0
 19  2  1  0
 16  8  1  0
  1 20  1  0
  1 21  1  0
  1 22  1  0
  3 23  1  0
  4 24  1  0
  6 25  1  0
  7 26  1  0
  9 27  1  0
 10 28  1  0
 13 29  1  0
 13 30  1  0
 13 31  1  0
 14 32  1  0
 14 33  1  0
 14 34  1  0
 15 35  1  0
 16 36  1  0
 18 37  1  0
 18 38  1  0
 18 39  1  0
 19 40  1  0
M  CHG  1  17   1
M  END
$$$$
