
     RDKit          3D

 56 60  0  0  0  0  0  0  0  0999 V2000
   -5.9804   -2.0113   -1.1287 C   0  0  0  0  0  0  0  0  0  0  0  0
   -4.7129   -1.4123   -1.4737 N   0  0  0  0  0  0  0  0  0  0  0  0
   -3.6026   -2.0497   -1.9568 C   0  0  0  0  0  0  0  0  0  0  0  0
   -3.5220   -3.7454   -2.2792 S   0  0  0  0  0  0  0  0  0  0  0  0
   -1.8046   -3.9141   -2.8467 C   0  0  0  0  0  0  0  0  0  0  0  0
   -0.8370   -3.9342   -1.6719 C   0  0  0  0  0  0  0  0  0  0  0  0
   -0.4687   -4.9992   -1.1831 O   0  0  0  0  0  0  0  0  0  0  0  0
   -0.4504   -2.6710   -1.2603 N   0  0  0  0  0  0  0  0  0  0  0  0
    0.4637   -2.3270   -0.2467 C   0  0  0  0  0  0  0  0  0  0  0  0
    1.2634   -3.2521    0.4196 C   0  0  0  0  0  0  0  0  0  0  0  0
    2.1644   -2.8415    1.4116 C   0  0  0  0  0  0  0  0  0  0  0  0
    2.2700   -1.4786    1.7462 C   0  0  0  0  0  0  0  0  0  0  0  0
    3.1122   -0.9369    2.7017 N   0  0  0  0  0  0  0  0  0  0  0  0
    2.9550    0.3642    2.7355 C   0  0  0  0  0  0  0  0  0  0  0  0
    3.8897    1.3570    3.8332 S   0  0  0  0  0  0  0  0  0  0  0  0
    5.5350    0.6355    3.5573 C   0  0  0  0  0  0  0  0  0  0  0  0
    6.0454    0.9487    2.1622 C   0  0  0  0  0  0  0  0  0  0  0  0
    6.4617    0.0752    1.4032 O   0  0  0  0  0  0  0  0  0  0  0  0
    6.0625    2.2999    1.8539 N   0  0  0  0  0  0  0  0  0  0  0  0
    6.4727    2.7834    0.5752 C   0  0  0  0  0  0  0  0  0  0  0  0
    7.8949    3.2104    0.3383 C   0  0  0  0  0  0  0  0  0  0  0  0
    6.8041    4.2376    0.3829 C   0  0  0  0  0  0  0  0  0  0  0  0
    1.7890    1.0189    1.6734 S   0  0  0  0  0  0  0  0  0  0  0  0
    1.4634   -0.5619    1.0708 C   0  0  0  0  0  0  0  0  0  0  0  0
    0.5585   -0.9629    0.0739 C   0  0  0  0  0  0  0  0  0  0  0  0
   -2.6282   -1.1880   -2.1160 N   0  0  0  0  0  0  0  0  0  0  0  0
   -3.0914    0.0398   -1.7229 N   0  0  0  0  0  0  0  0  0  0  0  0
   -4.3553   -0.0855   -1.3598 C   0  0  0  0  0  0  0  0  0  0  0  0
   -5.2254    0.9941   -0.9102 C   0  0  0  0  0  0  0  0  0  0  0  0
   -6.2928    1.4264   -1.7086 C   0  0  0  0  0  0  0  0  0  0  0  0
   -7.1230    2.4607   -1.2730 C   0  0  0  0  0  0  0  0  0  0  0  0
   -6.8921    3.0680   -0.0371 C   0  0  0  0  0  0  0  0  0  0  0  0
   -5.8252    2.6514    0.7577 C   0  0  0  0  0  0  0  0  0  0  0  0
   -4.9882    1.6220    0.3206 C   0  0  0  0  0  0  0  0  0  0  0  0
   -6.4770   -2.3190   -2.0543 H   0  0  0  0  0  0  0  0  0  0  0  0
   -6.6144   -1.3000   -0.5921 H   0  0  0  0  0  0  0  0  0  0  0  0
   -5.8001   -2.8723   -0.4798 H   0  0  0  0  0  0  0  0  0  0  0  0
   -1.5347   -3.1280   -3.5610 H   0  0  0  0  0  0  0  0  0  0  0  0
   -1.7085   -4.8665   -3.3793 H   0  0  0  0  0  0  0  0  0  0  0  0
   -0.9728   -1.8909   -1.6626 H   0  0  0  0  0  0  0  0  0  0  0  0
    1.2235   -4.3118    0.1868 H   0  0  0  0  0  0  0  0  0  0  0  0
    2.7849   -3.5701    1.9237 H   0  0  0  0  0  0  0  0  0  0  0  0
    5.5122   -0.4477    3.7093 H   0  0  0  0  0  0  0  0  0  0  0  0
    6.2346    1.0604    4.2834 H   0  0  0  0  0  0  0  0  0  0  0  0
    5.5733    2.9351    2.4764 H   0  0  0  0  0  0  0  0  0  0  0  0
    5.9709    2.2842   -0.2501 H   0  0  0  0  0  0  0  0  0  0  0  0
    8.3331    2.9682   -0.6209 H   0  0  0  0  0  0  0  0  0  0  0  0
    8.5884    3.1614    1.1679 H   0  0  0  0  0  0  0  0  0  0  0  0
    6.7735    4.8980    1.2392 H   0  0  0  0  0  0  0  0  0  0  0  0
    6.5117    4.7037   -0.5500 H   0  0  0  0  0  0  0  0  0  0  0  0
   -0.0560   -0.2212   -0.4308 H   0  0  0  0  0  0  0  0  0  0  0  0
   -6.4745    0.9721   -2.6841 H   0  0  0  0  0  0  0  0  0  0  0  0
   -7.9432    2.8004   -1.9030 H   0  0  0  0  0  0  0  0  0  0  0  0
   -7.5381    3.8740    0.2973 H   0  0  0  0  0  0  0  0  0  0  0  0
   -5.6416    3.1341    1.7136 H   0  0  0  0  0  0  0  0  0  0  0  0
   -4.1509    1.3140    0.9418 H   0  0  0  0  0  0  0  0  0  0  0  0
  1  2  1  0
  2  3  1  0
  3  4  1  0
  4  5  1  0
  5  6  1  0
  6  7  2  0
  6  8  1  0
  8  9  1  0
  9 10  2  0
 10 11  1  0
 11 12  2  0
 12 13  1  0
 13 14  2  0
 14 15  1  0
 15 16  1  0
 16 17  1  0
 17 18  2  0
 17 19  1  0
 19 20  1  0
 20 21  1  0
 21 22  1  0
 14 23  1  0
 23 24  1  0
 24 25  2  0
  3 26  2  0
 26 27  1  0
 27 28  2  0
 28 29  1  0
 29 30  2  0
 30 31  1  0
 31 32  2  0
 32 33  1  0
 33 34  2  0
 28  2  1  0
 34 29  1  0
 25  9  1  0
 24 12  1  0
 22 20  1  0
  1 35  1  0
  1 36  1  0
  1 37  1  0
  5 38  1  0
  5 39  1  0
  8 40  1  0
 10 41  1  0
 11 42  1  0
 16 43  1  0
 16 44  1  0
 19 45  1  0
 20 46  1  0
 21 47  1  0
 21 48  1  0
 22 49  1  0
 22 50  1  0
 25 51  1  0
 30 52  1  0
 31 53  1  0
 32 54  1  0
 33 55  1  0
 34 56  1  0
M  END
$$$$
