
     RDKit          3D

 40 42  0  0  0  0  0  0  0  0999 V2000
   -5.2281   -1.3622   -0.5559 C   0  0  0  0  0  0  0  0  0  0  0  0
   -3.9147   -0.7322   -0.1963 C   0  0  0  0  0  0  0  0  0  0  0  0
   -3.2092    0.0202   -1.1353 C   0  0  0  0  0  0  0  0  0  0  0  0
   -1.9612    0.5933   -0.8294 C   0  0  0  0  0  0  0  0  0  0  0  0
   -1.3093    1.4258   -1.9046 C   0  0  0  0  0  0  0  0  0  0  0  0
   -1.4088    0.3948    0.4643 C   0  0  0  0  0  0  0  0  0  0  0  0
    0.2029    1.1301    0.8384 S   0  0  0  0  0  6  0  0  0  0  0  0
    0.5908    0.8160    2.1982 O   0  0  0  0  0  0  0  0  0  0  0  0
    0.1432    2.5135    0.4113 O   0  0  0  0  0  0  0  0  0  0  0  0
    1.2357    0.2446   -0.1924 N   0  0  0  0  0  0  0  0  0  0  0  0
    1.2599   -1.2416    0.0202 C   0  0  0  0  0  0  0  0  0  0  0  0
    2.6425   -1.7181   -0.4522 C   0  0  0  0  0  0  0  0  0  0  0  0
    3.4386   -0.4556   -0.4137 C   0  0  0  0  0  0  0  0  0  0  0  0
    4.8095   -0.3161   -0.5691 C   0  0  0  0  0  0  0  0  0  0  0  0
    5.3455    0.9722   -0.5821 C   0  0  0  0  0  0  0  0  0  0  0  0
    4.5088    2.0919   -0.4653 C   0  0  0  0  0  0  0  0  0  0  0  0
    3.1264    1.9373   -0.3208 C   0  0  0  0  0  0  0  0  0  0  0  0
    2.6089    0.6553   -0.2610 C   0  0  0  0  0  0  0  0  0  0  0  0
   -2.1158   -0.3664    1.4269 C   0  0  0  0  0  0  0  0  0  0  0  0
   -1.6407   -0.6212    2.8319 C   0  0  0  0  0  0  0  0  0  0  0  0
   -3.3574   -0.9276    1.0687 C   0  0  0  0  0  0  0  0  0  0  0  0
   -5.7632   -0.7566   -1.2950 H   0  0  0  0  0  0  0  0  0  0  0  0
   -5.8754   -1.4462    0.3234 H   0  0  0  0  0  0  0  0  0  0  0  0
   -5.0623   -2.3614   -0.9703 H   0  0  0  0  0  0  0  0  0  0  0  0
   -3.6432    0.1701   -2.1235 H   0  0  0  0  0  0  0  0  0  0  0  0
   -1.3579    2.4876   -1.6469 H   0  0  0  0  0  0  0  0  0  0  0  0
   -0.2743    1.1254   -2.0789 H   0  0  0  0  0  0  0  0  0  0  0  0
   -1.8233    1.3058   -2.8653 H   0  0  0  0  0  0  0  0  0  0  0  0
    1.1386   -1.4855    1.0819 H   0  0  0  0  0  0  0  0  0  0  0  0
    0.4617   -1.7300   -0.5467 H   0  0  0  0  0  0  0  0  0  0  0  0
    3.0457   -2.4914    0.2077 H   0  0  0  0  0  0  0  0  0  0  0  0
    2.5931   -2.0971   -1.4785 H   0  0  0  0  0  0  0  0  0  0  0  0
    5.4525   -1.1821   -0.6898 H   0  0  0  0  0  0  0  0  0  0  0  0
    6.4175    1.1121   -0.7007 H   0  0  0  0  0  0  0  0  0  0  0  0
    4.9367    3.0912   -0.4975 H   0  0  0  0  0  0  0  0  0  0  0  0
    2.4930    2.8153   -0.2613 H   0  0  0  0  0  0  0  0  0  0  0  0
   -0.7092   -1.1943    2.8274 H   0  0  0  0  0  0  0  0  0  0  0  0
   -1.5224    0.3208    3.3755 H   0  0  0  0  0  0  0  0  0  0  0  0
   -2.3659   -1.2150    3.4005 H   0  0  0  0  0  0  0  0  0  0  0  0
   -3.9093   -1.5225    1.7964 H   0  0  0  0  0  0  0  0  0  0  0  0
  1  2  1  0
  2  3  2  0
  3  4  1  0
  4  5  1  0
  4  6  2  0
  6  7  1  0
  7  8  2  0
  7  9  2  0
  7 10  1  0
 10 11  1  0
 11 12  1  0
 12 13  1  0
 13 14  2  0
 14 15  1  0
 15 16  2  0
 16 17  1  0
 17 18  2  0
  6 19  1  0
 19 20  1  0
 19 21  2  0
 21  2  1  0
 18 10  1  0
 18 13  1  0
  1 22  1  0
  1 23  1  0
  1 24  1  0
  3 25  1  0
  5 26  1  0
  5 27  1  0
  5 28  1  0
 11 29  1  0
 11 30  1  0
 12 31  1  0
 12 32  1  0
 14 33  1  0
 15 34  1  0
 16 35  1  0
 17 36  1  0
 20 37  1  0
 20 38  1  0
 20 39  1  0
 21 40  1  0
M  END
$$$$
