
     RDKit          3D

 28 29  0  0  0  0  0  0  0  0999 V2000
    6.1808   -0.7107   -0.8221 O   0  0  0  0  0  0  0  0  0  0  0  0
    5.5450    0.3200   -0.5602 N   0  0  0  0  0  4  0  0  0  0  0  0
    6.0361    1.4561   -0.5101 O   0  0  0  0  0  1  0  0  0  0  0  0
    4.1205    0.1851   -0.2981 C   0  0  0  0  0  0  0  0  0  0  0  0
    3.4944   -1.0591   -0.3355 C   0  0  0  0  0  0  0  0  0  0  0  0
    2.1253   -1.1246   -0.0731 C   0  0  0  0  0  0  0  0  0  0  0  0
    1.4246    0.0459    0.2090 C   0  0  0  0  0  0  0  0  0  0  0  0
    0.0650    0.0435    0.5026 N   0  0  0  0  0  0  0  0  0  0  0  0
   -0.7789   -0.5077   -0.5497 C   0  0  0  0  0  0  0  0  0  0  0  0
   -2.2268   -0.2140   -0.2342 C   0  0  0  0  0  0  0  0  0  0  0  0
   -2.8616   -0.8541    0.8411 C   0  0  0  0  0  0  0  0  0  0  0  0
   -4.1978   -0.5837    1.1392 C   0  0  0  0  0  0  0  0  0  0  0  0
   -4.9124    0.3314    0.3687 C   0  0  0  0  0  0  0  0  0  0  0  0
   -4.2911    0.9797   -0.6972 C   0  0  0  0  0  0  0  0  0  0  0  0
   -2.9541    0.7111   -0.9970 C   0  0  0  0  0  0  0  0  0  0  0  0
    2.0290    1.2499    0.2526 N   0  0  0  0  0  0  0  0  0  0  0  0
    3.3617    1.3037   -0.0011 C   0  0  0  0  0  0  0  0  0  0  0  0
    4.0454   -1.9708   -0.5515 H   0  0  0  0  0  0  0  0  0  0  0  0
    1.6210   -2.0854   -0.0659 H   0  0  0  0  0  0  0  0  0  0  0  0
   -0.1691    1.0213    0.6759 H   0  0  0  0  0  0  0  0  0  0  0  0
   -0.5176   -0.0762   -1.5249 H   0  0  0  0  0  0  0  0  0  0  0  0
   -0.6548   -1.5948   -0.6290 H   0  0  0  0  0  0  0  0  0  0  0  0
   -2.3079   -1.5599    1.4573 H   0  0  0  0  0  0  0  0  0  0  0  0
   -4.6788   -1.0831    1.9762 H   0  0  0  0  0  0  0  0  0  0  0  0
   -5.9523    0.5436    0.6028 H   0  0  0  0  0  0  0  0  0  0  0  0
   -4.8478    1.6980   -1.2936 H   0  0  0  0  0  0  0  0  0  0  0  0
   -2.4845    1.2317   -1.8286 H   0  0  0  0  0  0  0  0  0  0  0  0
    3.7870    2.3030    0.0499 H   0  0  0  0  0  0  0  0  0  0  0  0
  1  2  2  0
  2  3  1  0
  2  4  1  0
  4  5  2  0
  5  6  1  0
  6  7  2  0
  7  8  1  0
  8  9  1  0
  9 10  1  0
 10 11  2  0
 11 12  1  0
 12 13  2  0
 13 14  1  0
 14 15  2  0
  7 16  1  0
 16 17  2  0
 17  4  1  0
 15 10  1  0
  5 18  1  0
  6 19  1  0
  8 20  1  0
  9 21  1  0
  9 22  1  0
 11 23  1  0
 12 24  1  0
 13 25  1  0
 14 26  1  0
 15 27  1  0
 17 28  1  0
M  CHG  2   2   1   3  -1
M  END
$$$$
