
     RDKit          3D

 60 63  0  0  0  0  0  0  0  0999 V2000
   -6.4991   -2.9344   -0.3487 C   0  0  0  0  0  0  0  0  0  0  0  0
   -5.6356   -2.1387   -1.2759 C   0  0  0  0  0  0  0  0  0  0  0  0
   -4.7056   -2.7737   -2.0771 C   0  0  0  0  0  0  0  0  0  0  0  0
   -3.9389   -1.9667   -2.8958 C   0  0  0  0  0  0  0  0  0  0  0  0
   -2.9170   -2.5687   -3.8125 C   0  0  0  0  0  0  0  0  0  0  0  0
   -4.0671   -0.6253   -2.9122 N   0  0  0  0  0  0  0  0  0  0  0  0
   -4.9875   -0.0989   -2.0879 C   0  0  0  0  0  0  0  0  0  0  0  0
   -5.1408    1.6646   -2.0821 S   0  0  0  0  0  0  0  0  0  0  0  0
   -4.9204    1.9465   -0.3078 C   0  0  0  0  0  0  0  0  0  0  0  0
   -3.5890    1.5154    0.2096 C   0  0  0  0  0  0  0  0  0  0  0  0
   -3.3769    0.4592    0.9765 N   0  0  0  0  0  0  0  0  0  0  0  0
   -2.0413    0.3990    1.2749 N   0  0  0  0  0  0  0  0  0  0  0  0
   -1.4574    1.4179    0.6926 C   0  0  0  0  0  0  0  0  0  0  0  0
    0.2316    1.7721    0.7509 S   0  0  0  0  0  0  0  0  0  0  0  0
    0.7133    0.7878    2.1997 C   0  0  0  0  0  0  0  0  0  0  0  0
    2.2293    0.7876    2.3317 C   0  0  0  0  0  0  0  0  0  0  0  0
    2.8375    1.8067    2.6473 O   0  0  0  0  0  0  0  0  0  0  0  0
    2.7925   -0.4519    2.0585 N   0  0  0  0  0  0  0  0  0  0  0  0
    4.1586   -0.8029    2.0733 C   0  0  0  0  0  0  0  0  0  0  0  0
    4.4746   -2.1350    1.7929 C   0  0  0  0  0  0  0  0  0  0  0  0
    5.8028   -2.5671    1.7900 C   0  0  0  0  0  0  0  0  0  0  0  0
    6.8480   -1.6765    2.0699 C   0  0  0  0  0  0  0  0  0  0  0  0
    8.2663   -2.1757    2.0297 C   0  0  0  0  0  0  0  0  0  0  0  0
    6.5420   -0.3269    2.3291 C   0  0  0  0  0  0  0  0  0  0  0  0
    7.6225    0.6839    2.6056 C   0  0  0  0  0  0  0  0  0  0  0  0
    5.1964    0.0911    2.3402 C   0  0  0  0  0  0  0  0  0  0  0  0
   -2.3840    2.1596    0.0083 N   0  0  0  0  0  0  0  0  0  0  0  0
   -2.1648    3.4044   -0.7042 C   0  0  0  0  0  0  0  0  0  0  0  0
   -1.9086    3.1886   -2.1499 C   0  0  0  0  0  0  0  0  0  0  0  0
   -1.2656    2.2163   -2.8919 C   0  0  0  0  0  0  0  0  0  0  0  0
   -1.3907    2.6001   -4.2495 C   0  0  0  0  0  0  0  0  0  0  0  0
   -2.0927    3.7816   -4.2518 C   0  0  0  0  0  0  0  0  0  0  0  0
   -2.4068    4.1514   -2.9833 O   0  0  0  0  0  0  0  0  0  0  0  0
   -5.7991   -0.7999   -1.2803 N   0  0  0  0  0  0  0  0  0  0  0  0
   -5.8796   -3.4639    0.3794 H   0  0  0  0  0  0  0  0  0  0  0  0
   -7.1893   -2.2843    0.1994 H   0  0  0  0  0  0  0  0  0  0  0  0
   -7.0921   -3.6604   -0.9097 H   0  0  0  0  0  0  0  0  0  0  0  0
   -4.5830   -3.8510   -2.0657 H   0  0  0  0  0  0  0  0  0  0  0  0
   -2.1611   -3.1106   -3.2372 H   0  0  0  0  0  0  0  0  0  0  0  0
   -3.3986   -3.2571   -4.5119 H   0  0  0  0  0  0  0  0  0  0  0  0
   -2.4095   -1.7925   -4.3963 H   0  0  0  0  0  0  0  0  0  0  0  0
   -5.0650    3.0153   -0.1152 H   0  0  0  0  0  0  0  0  0  0  0  0
   -5.7150    1.4314    0.2430 H   0  0  0  0  0  0  0  0  0  0  0  0
    0.3400   -0.2362    2.1050 H   0  0  0  0  0  0  0  0  0  0  0  0
    0.2878    1.2144    3.1135 H   0  0  0  0  0  0  0  0  0  0  0  0
    2.1576   -1.2002    1.8111 H   0  0  0  0  0  0  0  0  0  0  0  0
    3.6953   -2.8600    1.5726 H   0  0  0  0  0  0  0  0  0  0  0  0
    6.0160   -3.6098    1.5645 H   0  0  0  0  0  0  0  0  0  0  0  0
    8.3037   -3.2672    2.1125 H   0  0  0  0  0  0  0  0  0  0  0  0
    8.7383   -1.8863    1.0853 H   0  0  0  0  0  0  0  0  0  0  0  0
    8.8517   -1.7760    2.8636 H   0  0  0  0  0  0  0  0  0  0  0  0
    8.1202    0.4571    3.5524 H   0  0  0  0  0  0  0  0  0  0  0  0
    7.2174    1.6986    2.6754 H   0  0  0  0  0  0  0  0  0  0  0  0
    8.3587    0.6845    1.7965 H   0  0  0  0  0  0  0  0  0  0  0  0
    4.9879    1.1360    2.5532 H   0  0  0  0  0  0  0  0  0  0  0  0
   -1.3286    3.9370   -0.2415 H   0  0  0  0  0  0  0  0  0  0  0  0
   -3.0496    4.0334   -0.5545 H   0  0  0  0  0  0  0  0  0  0  0  0
   -0.7784    1.3294   -2.5088 H   0  0  0  0  0  0  0  0  0  0  0  0
   -1.0203    2.0780   -5.1201 H   0  0  0  0  0  0  0  0  0  0  0  0
   -2.4307    4.4487   -5.0320 H   0  0  0  0  0  0  0  0  0  0  0  0
  1  2  1  0
  2  3  2  0
  3  4  1  0
  4  5  1  0
  4  6  2  0
  6  7  1  0
  7  8  1  0
  8  9  1  0
  9 10  1  0
 10 11  2  0
 11 12  1  0
 12 13  2  0
 13 14  1  0
 14 15  1  0
 15 16  1  0
 16 17  2  0
 16 18  1  0
 18 19  1  0
 19 20  2  0
 20 21  1  0
 21 22  2  0
 22 23  1  0
 22 24  1  0
 24 25  1  0
 24 26  2  0
 13 27  1  0
 27 28  1  0
 28 29  1  0
 29 30  2  0
 30 31  1  0
 31 32  2  0
 32 33  1  0
  7 34  2  0
 34  2  1  0
 27 10  1  0
 33 29  1  0
 26 19  1  0
  1 35  1  0
  1 36  1  0
  1 37  1  0
  3 38  1  0
  5 39  1  0
  5 40  1  0
  5 41  1  0
  9 42  1  0
  9 43  1  0
 15 44  1  0
 15 45  1  0
 18 46  1  0
 20 47  1  0
 21 48  1  0
 23 49  1  0
 23 50  1  0
 23 51  1  0
 25 52  1  0
 25 53  1  0
 25 54  1  0
 26 55  1  0
 28 56  1  0
 28 57  1  0
 30 58  1  0
 31 59  1  0
 32 60  1  0
M  END
$$$$
