
     RDKit          3D

 57 60  0  0  0  0  0  0  0  0999 V2000
   -2.4646    3.0574    2.6169 C   0  0  0  0  0  0  0  0  0  0  0  0
   -2.1806    2.4167    1.2636 C   0  0  0  0  0  0  0  0  0  0  0  0
   -1.3801    1.1164    1.4005 C   0  0  0  0  0  0  0  0  0  0  0  0
   -1.2051    0.3052   -0.2386 S   0  0  0  0  0  0  0  0  0  0  0  0
   -2.3112   -1.0341    0.0230 C   0  0  0  0  0  0  0  0  0  0  0  0
   -3.5537   -0.6878    0.1783 N   0  0  0  0  0  0  0  0  0  0  0  0
   -4.4320   -1.7497    0.3754 C   0  0  0  0  0  0  0  0  0  0  0  0
   -5.8237   -1.5984    0.5586 C   0  0  0  0  0  0  0  0  0  0  0  0
   -6.4327   -2.8270    0.7283 C   0  0  0  0  0  0  0  0  0  0  0  0
   -5.3021   -4.1238    0.6615 S   0  0  0  0  0  0  0  0  0  0  0  0
   -4.0175   -3.0463    0.4072 C   0  0  0  0  0  0  0  0  0  0  0  0
   -2.6457   -3.4258    0.2427 C   0  0  0  0  0  0  0  0  0  0  0  0
   -2.2498   -4.5895    0.2718 O   0  0  0  0  0  0  0  0  0  0  0  0
   -1.7933   -2.3303    0.0425 N   0  0  0  0  0  0  0  0  0  0  0  0
   -0.3672   -2.6424   -0.1046 C   0  0  0  0  0  0  0  0  0  0  0  0
    0.0995   -2.6640   -1.5478 C   0  0  0  0  0  0  0  0  0  0  0  0
    1.1412   -1.8217   -1.9673 C   0  0  0  0  0  0  0  0  0  0  0  0
    1.5835   -1.8406   -3.2928 C   0  0  0  0  0  0  0  0  0  0  0  0
    0.9992   -2.7117   -4.2181 C   0  0  0  0  0  0  0  0  0  0  0  0
    1.5022   -2.6968   -5.6127 C   0  0  0  0  0  0  0  0  0  0  0  0
    2.3882   -1.9816   -6.0425 O   0  0  0  0  0  0  0  0  0  0  0  0
    0.8722   -3.5811   -6.4057 O   0  0  0  0  0  0  0  0  0  0  0  0
   -0.0268   -3.5682   -3.8057 C   0  0  0  0  0  0  0  0  0  0  0  0
   -0.4692   -3.5467   -2.4792 C   0  0  0  0  0  0  0  0  0  0  0  0
    0.0303    1.3287    1.9678 C   0  0  0  0  0  0  0  0  0  0  0  0
    0.3621    0.7690    3.0103 O   0  0  0  0  0  0  0  0  0  0  0  0
    0.8300    2.1616    1.2014 N   0  0  0  0  0  0  0  0  0  0  0  0
    2.1505    2.5764    1.4673 C   0  0  0  0  0  0  0  0  0  0  0  0
    2.8426    2.2747    2.6388 C   0  0  0  0  0  0  0  0  0  0  0  0
    4.1553    2.7247    2.8266 C   0  0  0  0  0  0  0  0  0  0  0  0
    4.8040    3.4860    1.8455 C   0  0  0  0  0  0  0  0  0  0  0  0
    6.2094    3.9592    2.0833 C   0  0  0  0  0  0  0  0  0  0  0  0
    4.0998    3.7971    0.6751 C   0  0  0  0  0  0  0  0  0  0  0  0
    4.8104    4.7490   -0.5805 Cl  0  0  0  0  0  0  0  0  0  0  0  0
    2.7882    3.3455    0.4877 C   0  0  0  0  0  0  0  0  0  0  0  0
   -1.5393    3.3556    3.1196 H   0  0  0  0  0  0  0  0  0  0  0  0
   -3.0787    3.9535    2.4866 H   0  0  0  0  0  0  0  0  0  0  0  0
   -3.0068    2.3672    3.2713 H   0  0  0  0  0  0  0  0  0  0  0  0
   -1.6577    3.1479    0.6355 H   0  0  0  0  0  0  0  0  0  0  0  0
   -3.1443    2.2129    0.7804 H   0  0  0  0  0  0  0  0  0  0  0  0
   -1.8996    0.4385    2.0879 H   0  0  0  0  0  0  0  0  0  0  0  0
   -6.3539   -0.6546    0.5654 H   0  0  0  0  0  0  0  0  0  0  0  0
   -7.4826   -3.0324    0.8876 H   0  0  0  0  0  0  0  0  0  0  0  0
    0.2163   -1.9208    0.4784 H   0  0  0  0  0  0  0  0  0  0  0  0
   -0.1348   -3.6187    0.3381 H   0  0  0  0  0  0  0  0  0  0  0  0
    1.6195   -1.1394   -1.2665 H   0  0  0  0  0  0  0  0  0  0  0  0
    2.3883   -1.1746   -3.5998 H   0  0  0  0  0  0  0  0  0  0  0  0
    1.3037   -3.4639   -7.2779 H   0  0  0  0  0  0  0  0  0  0  0  0
   -0.4871   -4.2613   -4.5060 H   0  0  0  0  0  0  0  0  0  0  0  0
   -1.2560   -4.2383   -2.1815 H   0  0  0  0  0  0  0  0  0  0  0  0
    0.4491    2.4339    0.3013 H   0  0  0  0  0  0  0  0  0  0  0  0
    2.3925    1.6904    3.4356 H   0  0  0  0  0  0  0  0  0  0  0  0
    4.6663    2.4687    3.7527 H   0  0  0  0  0  0  0  0  0  0  0  0
    6.2296    5.0480    2.1922 H   0  0  0  0  0  0  0  0  0  0  0  0
    6.6279    3.5241    2.9964 H   0  0  0  0  0  0  0  0  0  0  0  0
    6.8626    3.6609    1.2573 H   0  0  0  0  0  0  0  0  0  0  0  0
    2.2715    3.6025   -0.4332 H   0  0  0  0  0  0  0  0  0  0  0  0
  1  2  1  0
  2  3  1  0
  3  4  1  0
  4  5  1  0
  5  6  2  0
  6  7  1  0
  7  8  1  0
  8  9  2  0
  9 10  1  0
 10 11  1  0
 11 12  1  0
 12 13  2  0
 12 14  1  0
 14 15  1  0
 15 16  1  0
 16 17  2  0
 17 18  1  0
 18 19  2  0
 19 20  1  0
 20 21  2  0
 20 22  1  0
 19 23  1  0
 23 24  2  0
  3 25  1  0
 25 26  2  0
 25 27  1  0
 27 28  1  0
 28 29  2  0
 29 30  1  0
 30 31  2  0
 31 32  1  0
 31 33  1  0
 33 34  1  0
 33 35  2  0
 14  5  1  0
 24 16  1  0
 35 28  1  0
 11  7  2  0
  1 36  1  0
  1 37  1  0
  1 38  1  0
  2 39  1  0
  2 40  1  0
  3 41  1  0
  8 42  1  0
  9 43  1  0
 15 44  1  0
 15 45  1  0
 17 46  1  0
 18 47  1  0
 22 48  1  0
 23 49  1  0
 24 50  1  0
 27 51  1  0
 29 52  1  0
 30 53  1  0
 32 54  1  0
 32 55  1  0
 32 56  1  0
 35 57  1  0
M  END
$$$$
