
     RDKit          3D

 97 99  0  0  0  0  0  0  0  0999 V2000
   -2.2348    1.5776   -1.8606 C   0  0  0  0  0  0  0  0  0  0  0  0
   -1.7094    1.0923   -0.7151 C   0  0  0  0  0  0  0  0  0  0  0  0
   -2.0710   -0.2639   -0.1032 C   0  0  1  0  0  0  0  0  0  0  0  0
   -2.8035    0.0222    1.1061 O   0  0  0  0  0  0  0  0  0  0  0  0
   -2.5110   -0.7478    2.1884 C   0  0  0  0  0  0  0  0  0  0  0  0
   -1.6818   -1.6473    2.2074 O   0  0  0  0  0  0  0  0  0  0  0  0
   -3.3860   -0.3445    3.3571 C   0  0  0  0  0  0  0  0  0  0  0  0
   -4.6874   -1.1344    3.3045 C   0  0  0  0  0  0  0  0  0  0  0  0
   -2.6499   -0.5634    4.6755 C   0  0  0  0  0  0  0  0  0  0  0  0
   -2.8921   -1.2220   -1.0055 C   0  0  0  0  0  0  0  0  0  0  0  0
   -4.3015   -0.9627   -0.8457 O   0  0  0  0  0  0  0  0  0  0  0  0
   -5.0908   -1.5155   -1.8045 C   0  0  0  0  0  0  0  0  0  0  0  0
   -6.5353   -1.3224   -1.4606 C   0  0  0  0  0  0  0  0  0  0  0  0
   -4.6836   -2.0775   -2.8130 O   0  0  0  0  0  0  0  0  0  0  0  0
   -2.5629   -2.6877   -0.6715 C   0  0  0  0  0  0  0  0  0  0  0  0
   -3.3507   -3.3653    0.0028 O   0  0  0  0  0  0  0  0  0  0  0  0
   -1.2821   -3.3320   -1.2869 C   0  0  0  0  0  0  0  0  0  0  0  0
   -0.6195   -4.1879   -0.1911 C   0  0  0  0  0  0  0  0  0  0  0  0
   -1.7492   -4.2639   -2.4190 C   0  0  0  0  0  0  0  0  0  0  0  0
   -0.3362   -2.2978   -1.8957 C   0  0  0  0  0  0  0  0  0  0  0  0
    0.8824   -1.9353   -1.4562 C   0  0  0  0  0  0  0  0  0  0  0  0
    1.7040   -0.8236   -2.0822 C   0  0  2  0  0  0  0  0  0  0  0  0
    2.6363   -1.4478   -3.1298 C   0  0  0  0  0  0  0  0  0  0  0  0
    2.5163    0.0385   -1.0611 C   0  0  2  0  0  0  0  0  0  0  0  0
    3.4274   -0.8536   -0.3518 O   0  0  0  0  0  0  0  0  0  0  0  0
    4.7484   -0.7528   -0.6441 C   0  0  0  0  0  0  0  0  0  0  0  0
    5.2474    0.0456   -1.4203 O   0  0  0  0  0  0  0  0  0  0  0  0
    5.5339   -1.7534    0.1270 C   0  0  0  0  0  0  0  0  0  0  0  0
    6.9301   -1.7313    0.0024 C   0  0  0  0  0  0  0  0  0  0  0  0
    7.7153   -2.6477    0.7045 C   0  0  0  0  0  0  0  0  0  0  0  0
    7.1099   -3.5927    1.5317 C   0  0  0  0  0  0  0  0  0  0  0  0
    5.7211   -3.6238    1.6592 C   0  0  0  0  0  0  0  0  0  0  0  0
    4.9318   -2.7075    0.9588 C   0  0  0  0  0  0  0  0  0  0  0  0
    1.6998    0.8222    0.0270 C   0  0  1  0  0  0  0  0  0  0  0  0
    1.0073   -0.1078    0.8539 O   0  0  0  0  0  0  0  0  0  0  0  0
    2.6682    1.6038    0.9729 C   0  0  0  0  0  0  0  0  0  0  0  0
    2.3076    3.0876    0.8752 C   0  0  2  0  0  0  0  0  0  0  0  0
    1.5157    3.5727    2.0860 C   0  0  0  0  0  0  0  0  0  0  0  0
    1.5964    3.1776   -0.4738 C   0  0  2  0  0  0  0  0  0  0  0  0
    0.9379    4.4298   -0.6426 O   0  0  0  0  0  0  0  0  0  0  0  0
    0.5948    4.7389   -1.9235 C   0  0  0  0  0  0  0  0  0  0  0  0
   -0.1102    6.0591   -1.9658 C   0  0  0  0  0  0  0  0  0  0  0  0
    0.8014    4.0369   -2.9044 O   0  0  0  0  0  0  0  0  0  0  0  0
    0.7280    1.9012   -0.5633 C   0  0  2  0  0  0  0  0  0  0  0  0
   -0.6955    1.9270    0.0921 C   0  0  1  0  0  0  0  0  0  0  0  0
   -1.2312    3.2702    0.1238 O   0  0  0  0  0  0  0  0  0  0  0  0
   -1.9570    3.6204    1.2200 C   0  0  0  0  0  0  0  0  0  0  0  0
   -2.4867    5.0108    1.0514 C   0  0  0  0  0  0  0  0  0  0  0  0
   -2.1430    2.9350    2.2155 O   0  0  0  0  0  0  0  0  0  0  0  0
   -2.9799    1.0539   -2.4491 H   0  0  0  0  0  0  0  0  0  0  0  0
   -1.9360    2.5501   -2.2461 H   0  0  0  0  0  0  0  0  0  0  0  0
   -1.1251   -0.7455    0.1412 H   0  0  0  0  0  0  0  0  0  0  0  0
   -3.6039    0.7272    3.2720 H   0  0  0  0  0  0  0  0  0  0  0  0
   -5.2171   -0.9528    2.3626 H   0  0  0  0  0  0  0  0  0  0  0  0
   -5.3505   -0.8511    4.1282 H   0  0  0  0  0  0  0  0  0  0  0  0
   -4.5010   -2.2122    3.3712 H   0  0  0  0  0  0  0  0  0  0  0  0
   -1.6963   -0.0248    4.6811 H   0  0  0  0  0  0  0  0  0  0  0  0
   -3.2481   -0.2024    5.5183 H   0  0  0  0  0  0  0  0  0  0  0  0
   -2.4319   -1.6238    4.8420 H   0  0  0  0  0  0  0  0  0  0  0  0
   -2.6345   -1.0741   -2.0587 H   0  0  0  0  0  0  0  0  0  0  0  0
   -6.7565   -1.8117   -0.5094 H   0  0  0  0  0  0  0  0  0  0  0  0
   -6.7638   -0.2555   -1.4075 H   0  0  0  0  0  0  0  0  0  0  0  0
   -7.1568   -1.7756   -2.2384 H   0  0  0  0  0  0  0  0  0  0  0  0
   -1.2992   -4.9663    0.1760 H   0  0  0  0  0  0  0  0  0  0  0  0
    0.2794   -4.6927   -0.5627 H   0  0  0  0  0  0  0  0  0  0  0  0
   -0.3383   -3.5810    0.6770 H   0  0  0  0  0  0  0  0  0  0  0  0
   -0.9030   -4.7820   -2.8858 H   0  0  0  0  0  0  0  0  0  0  0  0
   -2.4439   -5.0264   -2.0471 H   0  0  0  0  0  0  0  0  0  0  0  0
   -2.2772   -3.7078   -3.2029 H   0  0  0  0  0  0  0  0  0  0  0  0
   -0.7058   -1.7975   -2.7930 H   0  0  0  0  0  0  0  0  0  0  0  0
    1.3224   -2.4303   -0.5936 H   0  0  0  0  0  0  0  0  0  0  0  0
    1.0283   -0.1512   -2.6232 H   0  0  0  0  0  0  0  0  0  0  0  0
    3.2568   -0.6798   -3.6037 H   0  0  0  0  0  0  0  0  0  0  0  0
    2.0582   -1.9359   -3.9228 H   0  0  0  0  0  0  0  0  0  0  0  0
    3.2983   -2.2038   -2.6939 H   0  0  0  0  0  0  0  0  0  0  0  0
    3.0788    0.7826   -1.6391 H   0  0  0  0  0  0  0  0  0  0  0  0
    7.4125   -1.0010   -0.6446 H   0  0  0  0  0  0  0  0  0  0  0  0
    8.7979   -2.6245    0.6044 H   0  0  0  0  0  0  0  0  0  0  0  0
    7.7214   -4.3077    2.0783 H   0  0  0  0  0  0  0  0  0  0  0  0
    5.2525   -4.3638    2.3041 H   0  0  0  0  0  0  0  0  0  0  0  0
    3.8521   -2.7566    1.0710 H   0  0  0  0  0  0  0  0  0  0  0  0
    1.6590   -0.7563    1.1801 H   0  0  0  0  0  0  0  0  0  0  0  0
    2.6276    1.2425    2.0078 H   0  0  0  0  0  0  0  0  0  0  0  0
    3.7078    1.4964    0.6427 H   0  0  0  0  0  0  0  0  0  0  0  0
    3.2203    3.6969    0.8387 H   0  0  0  0  0  0  0  0  0  0  0  0
    1.1439    4.5914    1.9402 H   0  0  0  0  0  0  0  0  0  0  0  0
    0.6708    2.9234    2.3203 H   0  0  0  0  0  0  0  0  0  0  0  0
    2.1602    3.5833    2.9721 H   0  0  0  0  0  0  0  0  0  0  0  0
    2.3866    3.1089   -1.2382 H   0  0  0  0  0  0  0  0  0  0  0  0
    0.4004    6.7808   -1.3218 H   0  0  0  0  0  0  0  0  0  0  0  0
   -1.1476    5.9322   -1.6479 H   0  0  0  0  0  0  0  0  0  0  0  0
   -0.0893    6.4470   -2.9886 H   0  0  0  0  0  0  0  0  0  0  0  0
    0.5802    1.7209   -1.6331 H   0  0  0  0  0  0  0  0  0  0  0  0
   -0.6340    1.5497    1.1164 H   0  0  0  0  0  0  0  0  0  0  0  0
   -3.1620    5.2438    1.8792 H   0  0  0  0  0  0  0  0  0  0  0  0
   -3.0531    5.0820    0.1192 H   0  0  0  0  0  0  0  0  0  0  0  0
   -1.6593    5.7252    1.0556 H   0  0  0  0  0  0  0  0  0  0  0  0
  1  2  2  0
  2  3  1  0
  3  4  1  0
  4  5  1  0
  5  6  2  0
  5  7  1  0
  7  8  1  0
  7  9  1  0
  3 10  1  0
 10 11  1  0
 11 12  1  0
 12 13  1  0
 12 14  2  0
 10 15  1  0
 15 16  2  0
 15 17  1  0
 17 18  1  0
 17 19  1  0
 17 20  1  0
 20 21  2  0
 21 22  1  0
 22 23  1  0
 22 24  1  0
 24 25  1  0
 25 26  1  0
 26 27  2  0
 26 28  1  0
 28 29  2  0
 29 30  1  0
 30 31  2  0
 31 32  1  0
 32 33  2  0
 24 34  1  0
 34 35  1  1
 34 36  1  0
 36 37  1  0
 37 38  1  0
 37 39  1  0
 39 40  1  0
 40 41  1  0
 41 42  1  0
 41 43  2  0
 39 44  1  0
 44 45  1  0
 45 46  1  0
 46 47  1  0
 47 48  1  0
 47 49  2  0
 45  2  1  0
 33 28  1  0
 44 34  1  0
  1 50  1  0
  1 51  1  0
  3 52  1  1
  7 53  1  0
  8 54  1  0
  8 55  1  0
  8 56  1  0
  9 57  1  0
  9 58  1  0
  9 59  1  0
 10 60  1  0
 13 61  1  0
 13 62  1  0
 13 63  1  0
 18 64  1  0
 18 65  1  0
 18 66  1  0
 19 67  1  0
 19 68  1  0
 19 69  1  0
 20 70  1  0
 21 71  1  0
 22 72  1  6
 23 73  1  0
 23 74  1  0
 23 75  1  0
 24 76  1  6
 29 77  1  0
 30 78  1  0
 31 79  1  0
 32 80  1  0
 33 81  1  0
 35 82  1  0
 36 83  1  0
 36 84  1  0
 37 85  1  6
 38 86  1  0
 38 87  1  0
 38 88  1  0
 39 89  1  6
 42 90  1  0
 42 91  1  0
 42 92  1  0
 44 93  1  6
 45 94  1  1
 48 95  1  0
 48 96  1  0
 48 97  1  0
M  END
$$$$
