
     RDKit          3D

 47 51  0  0  0  0  0  0  0  0999 V2000
   -0.9963   -0.3086   -4.5484 C   0  0  0  0  0  0  0  0  0  0  0  0
   -1.4913    0.1235   -3.2034 C   0  0  0  0  0  0  0  0  0  0  0  0
   -2.7800    0.1289   -2.9702 N   0  0  0  0  0  0  0  0  0  0  0  0
   -3.1945    0.5324   -1.7312 C   0  0  0  0  0  0  0  0  0  0  0  0
   -4.8460    0.5864   -1.2917 S   0  0  0  0  0  0  0  0  0  0  0  0
   -4.4757    1.1672    0.2721 C   0  0  0  0  0  0  0  0  0  0  0  0
   -3.1166    1.3125    0.4891 C   0  0  0  0  0  0  0  0  0  0  0  0
   -2.4094    0.9437   -0.6747 C   0  0  0  0  0  0  0  0  0  0  0  0
   -0.9130    0.9190   -0.9945 C   0  0  0  0  0  0  0  0  0  0  0  0
    0.1122    1.2341   -0.2458 N   0  0  0  0  0  0  0  0  0  0  0  0
    1.2314    1.0325   -1.0111 N   0  0  0  0  0  0  0  0  0  0  0  0
    0.8525    0.5864   -2.1941 C   0  0  0  0  0  0  0  0  0  0  0  0
    1.9644    0.1595   -3.4479 S   0  0  0  0  0  0  0  0  0  0  0  0
    3.4931   -0.0918   -2.4966 C   0  0  0  0  0  0  0  0  0  0  0  0
    3.4185   -1.3884   -1.7094 C   0  0  0  0  0  0  0  0  0  0  0  0
    3.7564   -2.4665   -2.1927 O   0  0  0  0  0  0  0  0  0  0  0  0
    2.9292   -1.2564   -0.4322 N   0  0  0  0  0  0  0  0  0  0  0  0
    2.8608   -2.3590    0.4953 C   0  0  0  0  0  0  0  0  0  0  0  0
    4.0167   -2.2662    1.4187 C   0  0  0  0  0  0  0  0  0  0  0  0
    5.2469   -2.8900    1.4609 C   0  0  0  0  0  0  0  0  0  0  0  0
    5.9178   -2.3732    2.5952 C   0  0  0  0  0  0  0  0  0  0  0  0
    5.0593   -1.4639    3.1675 C   0  0  0  0  0  0  0  0  0  0  0  0
    3.9017   -1.3922    2.4611 O   0  0  0  0  0  0  0  0  0  0  0  0
   -0.5225    0.5051   -2.2510 N   0  0  0  0  0  0  0  0  0  0  0  0
   -2.5605    1.8267    1.7797 C   0  0  0  0  0  0  0  0  0  0  0  0
   -3.6061    1.7831    2.9064 C   0  0  0  0  0  0  0  0  0  0  0  0
   -4.9759    2.2958    2.4365 C   0  0  0  0  0  0  0  0  0  0  0  0
   -5.5418    1.4485    1.2853 C   0  0  0  0  0  0  0  0  0  0  0  0
   -0.3775   -1.2043   -4.4593 H   0  0  0  0  0  0  0  0  0  0  0  0
   -1.8476   -0.5609   -5.1897 H   0  0  0  0  0  0  0  0  0  0  0  0
   -0.4500    0.5027   -5.0348 H   0  0  0  0  0  0  0  0  0  0  0  0
    4.3352   -0.1672   -3.1923 H   0  0  0  0  0  0  0  0  0  0  0  0
    3.6998    0.7580   -1.8377 H   0  0  0  0  0  0  0  0  0  0  0  0
    2.6381   -0.3425   -0.0934 H   0  0  0  0  0  0  0  0  0  0  0  0
    1.9171   -2.2747    1.0431 H   0  0  0  0  0  0  0  0  0  0  0  0
    2.8643   -3.3140   -0.0395 H   0  0  0  0  0  0  0  0  0  0  0  0
    5.6097   -3.6236    0.7533 H   0  0  0  0  0  0  0  0  0  0  0  0
    6.9072   -2.6267    2.9495 H   0  0  0  0  0  0  0  0  0  0  0  0
    5.1189   -0.8179    4.0329 H   0  0  0  0  0  0  0  0  0  0  0  0
   -1.6808    1.2463    2.0787 H   0  0  0  0  0  0  0  0  0  0  0  0
   -2.2357    2.8630    1.6275 H   0  0  0  0  0  0  0  0  0  0  0  0
   -3.2533    2.3826    3.7530 H   0  0  0  0  0  0  0  0  0  0  0  0
   -3.7141    0.7521    3.2675 H   0  0  0  0  0  0  0  0  0  0  0  0
   -4.8728    3.3374    2.1067 H   0  0  0  0  0  0  0  0  0  0  0  0
   -5.6844    2.2939    3.2727 H   0  0  0  0  0  0  0  0  0  0  0  0
   -6.3911    1.9708    0.8301 H   0  0  0  0  0  0  0  0  0  0  0  0
   -5.9141    0.4960    1.6833 H   0  0  0  0  0  0  0  0  0  0  0  0
  1  2  1  0
  2  3  2  0
  3  4  1  0
  4  5  1  0
  5  6  1  0
  6  7  2  0
  7  8  1  0
  8  9  1  0
  9 10  2  0
 10 11  1  0
 11 12  2  0
 12 13  1  0
 13 14  1  0
 14 15  1  0
 15 16  2  0
 15 17  1  0
 17 18  1  0
 18 19  1  0
 19 20  2  0
 20 21  1  0
 21 22  2  0
 22 23  1  0
 12 24  1  0
  7 25  1  0
 25 26  1  0
 26 27  1  0
 27 28  1  0
 24  2  1  0
  8  4  2  0
 24  9  1  0
 28  6  1  0
 23 19  1  0
  1 29  1  0
  1 30  1  0
  1 31  1  0
 14 32  1  0
 14 33  1  0
 17 34  1  0
 18 35  1  0
 18 36  1  0
 20 37  1  0
 21 38  1  0
 22 39  1  0
 25 40  1  0
 25 41  1  0
 26 42  1  0
 26 43  1  0
 27 44  1  0
 27 45  1  0
 28 46  1  0
 28 47  1  0
M  END
$$$$
