
     RDKit          3D

 54 57  0  0  0  0  0  0  0  0999 V2000
   -5.9059   -2.4053    1.4268 C   0  0  0  0  0  0  0  0  0  0  0  0
   -5.4120   -1.0618    0.9794 C   0  0  0  0  0  0  0  0  0  0  0  0
   -6.1335    0.0931    1.2809 C   0  0  0  0  0  0  0  0  0  0  0  0
   -5.6612    1.3429    0.8800 C   0  0  0  0  0  0  0  0  0  0  0  0
   -4.4450    1.4692    0.1871 C   0  0  0  0  0  0  0  0  0  0  0  0
   -3.9947    2.8454   -0.2296 C   0  0  0  0  0  0  0  0  0  0  0  0
   -3.6937    0.3115   -0.1217 C   0  0  0  0  0  0  0  0  0  0  0  0
   -2.4116    0.3697   -0.8456 C   0  0  0  0  0  0  0  0  0  0  0  0
   -1.2461   -0.1479   -0.3087 C   0  0  0  0  0  0  0  0  0  0  0  0
   -0.0795   -0.0480   -1.0641 C   0  0  0  0  0  0  0  0  0  0  0  0
    1.1637   -0.5898   -0.4838 C   0  0  0  0  0  0  0  0  0  0  0  0
    1.6142   -1.6342   -0.9357 O   0  0  0  0  0  0  0  0  0  0  0  0
    1.6396    0.1408    0.5824 N   0  0  0  0  0  0  0  0  0  0  0  0
    2.8378   -0.1248    1.2066 C   0  0  0  0  0  0  0  0  0  0  0  0
    2.8762    0.4562    2.8002 S   0  0  0  0  0  0  0  0  0  0  0  0
    4.4012   -0.2546    3.0953 C   0  0  0  0  0  0  0  0  0  0  0  0
    5.0131   -0.1433    4.4539 C   0  0  0  0  0  0  0  0  0  0  0  0
    4.9283   -0.8450    1.9550 C   0  0  0  0  0  0  0  0  0  0  0  0
    6.2865   -1.4719    1.8703 C   0  0  0  0  0  0  0  0  0  0  0  0
    4.0118   -0.7428    0.8287 C   0  0  0  0  0  0  0  0  0  0  0  0
    4.3160   -1.1520   -0.5360 C   0  0  0  0  0  0  0  0  0  0  0  0
    4.6080   -2.4803   -0.6815 N   0  0  0  0  0  0  0  0  0  0  0  0
    4.3260   -0.3819   -1.4899 O   0  0  0  0  0  0  0  0  0  0  0  0
   -0.0767    0.5452   -2.3418 C   0  0  0  0  0  0  0  0  0  0  0  0
    1.0675    0.6794   -3.1669 C   0  0  0  0  0  0  0  0  0  0  0  0
    0.9807    1.2900   -4.4159 C   0  0  0  0  0  0  0  0  0  0  0  0
   -0.2433    1.7731   -4.8559 C   0  0  0  0  0  0  0  0  0  0  0  0
   -1.3721    1.6427   -4.0429 C   0  0  0  0  0  0  0  0  0  0  0  0
   -1.3129    1.0391   -2.7937 C   0  0  0  0  0  0  0  0  0  0  0  0
   -2.4403    0.9584   -2.0651 N   0  0  0  0  0  0  0  0  0  0  0  0
   -4.1964   -0.9414    0.2922 C   0  0  0  0  0  0  0  0  0  0  0  0
   -5.5462   -3.1973    0.7618 H   0  0  0  0  0  0  0  0  0  0  0  0
   -7.0001   -2.4426    1.4133 H   0  0  0  0  0  0  0  0  0  0  0  0
   -5.5566   -2.6133    2.4425 H   0  0  0  0  0  0  0  0  0  0  0  0
   -7.0747    0.0291    1.8222 H   0  0  0  0  0  0  0  0  0  0  0  0
   -6.2524    2.2264    1.1133 H   0  0  0  0  0  0  0  0  0  0  0  0
   -4.5428    3.6231    0.3139 H   0  0  0  0  0  0  0  0  0  0  0  0
   -4.1721    2.9948   -1.2991 H   0  0  0  0  0  0  0  0  0  0  0  0
   -2.9336    2.9952   -0.0064 H   0  0  0  0  0  0  0  0  0  0  0  0
   -1.2437   -0.6205    0.6678 H   0  0  0  0  0  0  0  0  0  0  0  0
    1.0383    0.8158    1.0373 H   0  0  0  0  0  0  0  0  0  0  0  0
    5.8233    0.5930    4.4432 H   0  0  0  0  0  0  0  0  0  0  0  0
    4.2859    0.1603    5.2137 H   0  0  0  0  0  0  0  0  0  0  0  0
    5.4279   -1.1080    4.7655 H   0  0  0  0  0  0  0  0  0  0  0  0
    6.7902   -1.1880    0.9409 H   0  0  0  0  0  0  0  0  0  0  0  0
    6.9304   -1.1566    2.6970 H   0  0  0  0  0  0  0  0  0  0  0  0
    6.1995   -2.5626    1.9035 H   0  0  0  0  0  0  0  0  0  0  0  0
    4.5562   -2.7910   -1.6426 H   0  0  0  0  0  0  0  0  0  0  0  0
    4.2112   -3.1089    0.0031 H   0  0  0  0  0  0  0  0  0  0  0  0
    2.0379    0.3028   -2.8424 H   0  0  0  0  0  0  0  0  0  0  0  0
    1.8673    1.3833   -5.0383 H   0  0  0  0  0  0  0  0  0  0  0  0
   -0.3265    2.2502   -5.8288 H   0  0  0  0  0  0  0  0  0  0  0  0
   -2.3284    2.0233   -4.3955 H   0  0  0  0  0  0  0  0  0  0  0  0
   -3.6365   -1.8455    0.0540 H   0  0  0  0  0  0  0  0  0  0  0  0
  1  2  1  0
  2  3  2  0
  3  4  1  0
  4  5  2  0
  5  6  1  0
  5  7  1  0
  7  8  1  0
  8  9  2  0
  9 10  1  0
 10 11  1  0
 11 12  2  0
 11 13  1  0
 13 14  1  0
 14 15  1  0
 15 16  1  0
 16 17  1  0
 16 18  2  0
 18 19  1  0
 18 20  1  0
 20 21  1  0
 21 22  1  0
 21 23  2  0
 10 24  2  0
 24 25  1  0
 25 26  2  0
 26 27  1  0
 27 28  2  0
 28 29  1  0
 29 30  2  0
  7 31  2  0
 31  2  1  0
 30  8  1  0
 20 14  2  0
 29 24  1  0
  1 32  1  0
  1 33  1  0
  1 34  1  0
  3 35  1  0
  4 36  1  0
  6 37  1  0
  6 38  1  0
  6 39  1  0
  9 40  1  0
 13 41  1  0
 17 42  1  0
 17 43  1  0
 17 44  1  0
 19 45  1  0
 19 46  1  0
 19 47  1  0
 22 48  1  0
 22 49  1  0
 25 50  1  0
 26 51  1  0
 27 52  1  0
 28 53  1  0
 31 54  1  0
M  END
$$$$
