
     RDKit          3D

 46 49  0  0  0  0  0  0  0  0999 V2000
   -4.7560    2.4502    0.2034 N   0  0  0  0  0  0  0  0  0  0  0  0
   -4.2003    3.4616    0.8996 C   0  0  0  0  0  0  0  0  0  0  0  0
   -4.9438    4.4357    1.4224 N   0  0  0  0  0  0  0  0  0  0  0  0
   -4.0501    5.3461    1.9597 O   0  0  0  0  0  0  0  0  0  0  0  0
   -2.7449    4.9240    1.7780 N   0  0  0  0  0  0  0  0  0  0  0  0
   -2.8443    3.7369    1.1645 C   0  0  0  0  0  0  0  0  0  0  0  0
   -1.6266    3.0403    0.9135 N   0  0  0  0  0  0  0  0  0  0  0  0
   -0.4276    3.6978    1.0136 N   0  0  0  0  0  0  0  0  0  0  0  0
    0.5554    2.8904    0.6658 N   0  0  0  0  0  0  0  0  0  0  0  0
    0.0242    1.6599    0.4130 C   0  0  0  0  0  0  0  0  0  0  0  0
    0.8650    0.5124    0.0730 C   0  0  0  0  0  0  0  0  0  0  0  0
    0.4069   -0.6133   -0.0974 O   0  0  0  0  0  0  0  0  0  0  0  0
    2.2068    0.8539   -0.0101 N   0  0  0  0  0  0  0  0  0  0  0  0
    3.1549   -0.0917   -0.2660 N   0  0  0  0  0  0  0  0  0  0  0  0
    4.3740    0.3438   -0.3026 C   0  0  0  0  0  0  0  0  0  0  0  0
    5.5152   -0.5578   -0.5562 C   0  0  0  0  0  0  0  0  0  0  0  0
    6.8046   -0.0189   -0.5946 C   0  0  0  0  0  0  0  0  0  0  0  0
    7.8966   -0.8567   -0.8269 C   0  0  0  0  0  0  0  0  0  0  0  0
    7.6999   -2.2250   -1.0192 C   0  0  0  0  0  0  0  0  0  0  0  0
    6.4122   -2.7605   -0.9802 C   0  0  0  0  0  0  0  0  0  0  0  0
    5.3170   -1.9281   -0.7489 C   0  0  0  0  0  0  0  0  0  0  0  0
   -1.3552    1.7107    0.5817 C   0  0  0  0  0  0  0  0  0  0  0  0
   -2.3230    0.5885    0.5261 C   0  0  0  0  0  0  0  0  0  0  0  0
   -2.8638    0.3247   -1.1992 S   0  0  0  0  0  0  0  0  0  0  0  0
   -3.5595   -1.3052   -1.0171 C   0  0  0  0  0  0  0  0  0  0  0  0
   -2.7251   -2.4228   -0.9317 C   0  0  0  0  0  0  0  0  0  0  0  0
   -3.2709   -3.6989   -0.7848 C   0  0  0  0  0  0  0  0  0  0  0  0
   -4.6532   -3.8627   -0.7285 C   0  0  0  0  0  0  0  0  0  0  0  0
   -5.4905   -2.7519   -0.8218 C   0  0  0  0  0  0  0  0  0  0  0  0
   -4.9447   -1.4748   -0.9683 C   0  0  0  0  0  0  0  0  0  0  0  0
   -5.7402    2.5763   -0.0238 H   0  0  0  0  0  0  0  0  0  0  0  0
   -4.2589    2.0453   -0.5888 H   0  0  0  0  0  0  0  0  0  0  0  0
    2.4767    1.8169    0.1670 H   0  0  0  0  0  0  0  0  0  0  0  0
    4.6131    1.4113   -0.1427 H   0  0  0  0  0  0  0  0  0  0  0  0
    6.9722    1.0448   -0.4460 H   0  0  0  0  0  0  0  0  0  0  0  0
    8.9021   -0.4443   -0.8582 H   0  0  0  0  0  0  0  0  0  0  0  0
    8.5517   -2.8762   -1.2001 H   0  0  0  0  0  0  0  0  0  0  0  0
    6.2597   -3.8265   -1.1302 H   0  0  0  0  0  0  0  0  0  0  0  0
    4.3152   -2.3515   -0.7191 H   0  0  0  0  0  0  0  0  0  0  0  0
   -3.1819    0.7504    1.1808 H   0  0  0  0  0  0  0  0  0  0  0  0
   -1.8473   -0.3222    0.9035 H   0  0  0  0  0  0  0  0  0  0  0  0
   -1.6437   -2.3103   -0.9809 H   0  0  0  0  0  0  0  0  0  0  0  0
   -2.6148   -4.5638   -0.7176 H   0  0  0  0  0  0  0  0  0  0  0  0
   -5.0779   -4.8570   -0.6162 H   0  0  0  0  0  0  0  0  0  0  0  0
   -6.5687   -2.8813   -0.7807 H   0  0  0  0  0  0  0  0  0  0  0  0
   -5.6108   -0.6206   -1.0436 H   0  0  0  0  0  0  0  0  0  0  0  0
  1  2  1  0
  2  3  2  0
  3  4  1  0
  4  5  1  0
  5  6  2  0
  6  7  1  0
  7  8  1  0
  8  9  2  0
  9 10  1  0
 10 11  1  0
 11 12  2  0
 11 13  1  0
 13 14  1  0
 14 15  2  3
 15 16  1  0
 16 17  2  0
 17 18  1  0
 18 19  2  0
 19 20  1  0
 20 21  2  0
 10 22  2  0
 22 23  1  0
 23 24  1  0
 24 25  1  0
 25 26  2  0
 26 27  1  0
 27 28  2  0
 28 29  1  0
 29 30  2  0
  6  2  1  0
 22  7  1  0
 30 25  1  0
 21 16  1  0
  1 31  1  0
  1 32  1  0
 13 33  1  0
 15 34  1  0
 17 35  1  0
 18 36  1  0
 19 37  1  0
 20 38  1  0
 21 39  1  0
 23 40  1  0
 23 41  1  0
 26 42  1  0
 27 43  1  0
 28 44  1  0
 29 45  1  0
 30 46  1  0
M  END
$$$$
