
     RDKit          3D

 48 49  0  0  0  0  0  0  0  0999 V2000
   -4.8664    2.0065    0.5334 C   0  0  0  0  0  0  0  0  0  0  0  0
   -4.7593    0.5102    0.7839 C   0  0  0  0  0  0  0  0  0  0  0  0
   -4.6592   -0.2459   -0.4678 N   0  0  0  0  0  0  0  0  0  0  0  0
   -5.9123   -0.6300   -1.1163 C   0  0  0  0  0  0  0  0  0  0  0  0
   -6.3595   -2.0172   -0.6839 C   0  0  0  0  0  0  0  0  0  0  0  0
   -3.4674   -0.5493   -1.1263 C   0  0  0  0  0  0  0  0  0  0  0  0
   -3.4079   -1.0943   -2.2257 O   0  0  0  0  0  0  0  0  0  0  0  0
   -2.1881   -0.1941   -0.4852 C   0  0  0  0  0  0  0  0  0  0  0  0
   -1.7053   -0.9486    0.5851 C   0  0  0  0  0  0  0  0  0  0  0  0
   -0.4769   -0.6192    1.1677 C   0  0  0  0  0  0  0  0  0  0  0  0
    0.2782    0.4481    0.6725 C   0  0  0  0  0  0  0  0  0  0  0  0
    1.5233    0.8385    1.1988 N   0  0  0  0  0  0  0  0  0  0  0  0
    2.2255    0.2635    2.2445 C   0  0  0  0  0  0  0  0  0  0  0  0
    1.8732   -0.6866    2.9361 O   0  0  0  0  0  0  0  0  0  0  0  0
    3.5559    0.9752    2.5113 C   0  0  0  0  0  0  0  0  0  0  0  0
    4.1594    1.5257    1.3469 O   0  0  0  0  0  0  0  0  0  0  0  0
    4.8113    0.6896    0.4771 C   0  0  0  0  0  0  0  0  0  0  0  0
    4.9472   -0.6930    0.6465 C   0  0  0  0  0  0  0  0  0  0  0  0
    5.6318   -1.4604   -0.3043 C   0  0  0  0  0  0  0  0  0  0  0  0
    6.1836   -0.8431   -1.4333 C   0  0  0  0  0  0  0  0  0  0  0  0
    6.9043   -1.6493   -2.4263 N   0  0  0  0  0  4  0  0  0  0  0  0
    7.0274   -2.8613   -2.2030 O   0  0  0  0  0  0  0  0  0  0  0  0
    7.3482   -1.0675   -3.4256 O   0  0  0  0  0  1  0  0  0  0  0  0
    6.0530    0.5352   -1.6227 C   0  0  0  0  0  0  0  0  0  0  0  0
    5.3673    1.2908   -0.6685 C   0  0  0  0  0  0  0  0  0  0  0  0
    5.2103    2.9915   -0.9476 Cl  0  0  0  0  0  0  0  0  0  0  0  0
   -0.2091    1.1817   -0.4196 C   0  0  0  0  0  0  0  0  0  0  0  0
   -1.4365    0.8594   -1.0044 C   0  0  0  0  0  0  0  0  0  0  0  0
   -3.9912    2.3830   -0.0051 H   0  0  0  0  0  0  0  0  0  0  0  0
   -5.7519    2.2454   -0.0642 H   0  0  0  0  0  0  0  0  0  0  0  0
   -4.9410    2.5455    1.4829 H   0  0  0  0  0  0  0  0  0  0  0  0
   -3.8915    0.3164    1.4177 H   0  0  0  0  0  0  0  0  0  0  0  0
   -5.6368    0.1545    1.3356 H   0  0  0  0  0  0  0  0  0  0  0  0
   -6.6827    0.1108   -0.8762 H   0  0  0  0  0  0  0  0  0  0  0  0
   -5.7834   -0.6168   -2.2043 H   0  0  0  0  0  0  0  0  0  0  0  0
   -6.5201   -2.0598    0.3983 H   0  0  0  0  0  0  0  0  0  0  0  0
   -7.2968   -2.2869   -1.1800 H   0  0  0  0  0  0  0  0  0  0  0  0
   -5.6072   -2.7708   -0.9391 H   0  0  0  0  0  0  0  0  0  0  0  0
   -2.2767   -1.7924    0.9638 H   0  0  0  0  0  0  0  0  0  0  0  0
   -0.1346   -1.2238    2.0019 H   0  0  0  0  0  0  0  0  0  0  0  0
    1.9931    1.6092    0.7321 H   0  0  0  0  0  0  0  0  0  0  0  0
    4.2464    0.3173    3.0507 H   0  0  0  0  0  0  0  0  0  0  0  0
    3.3332    1.8121    3.1834 H   0  0  0  0  0  0  0  0  0  0  0  0
    4.5323   -1.2183    1.5028 H   0  0  0  0  0  0  0  0  0  0  0  0
    5.7221   -2.5348   -0.1480 H   0  0  0  0  0  0  0  0  0  0  0  0
    6.4738    1.0252   -2.4982 H   0  0  0  0  0  0  0  0  0  0  0  0
    0.3620    2.0080   -0.8361 H   0  0  0  0  0  0  0  0  0  0  0  0
   -1.8009    1.4201   -1.8615 H   0  0  0  0  0  0  0  0  0  0  0  0
  1  2  1  0
  2  3  1  0
  3  4  1  0
  4  5  1  0
  3  6  1  0
  6  7  2  0
  6  8  1  0
  8  9  2  0
  9 10  1  0
 10 11  2  0
 11 12  1  0
 12 13  1  0
 13 14  2  0
 13 15  1  0
 15 16  1  0
 16 17  1  0
 17 18  2  0
 18 19  1  0
 19 20  2  0
 20 21  1  0
 21 22  2  0
 21 23  1  0
 20 24  1  0
 24 25  2  0
 25 26  1  0
 11 27  1  0
 27 28  2  0
 28  8  1  0
 25 17  1  0
  1 29  1  0
  1 30  1  0
  1 31  1  0
  2 32  1  0
  2 33  1  0
  4 34  1  0
  4 35  1  0
  5 36  1  0
  5 37  1  0
  5 38  1  0
  9 39  1  0
 10 40  1  0
 12 41  1  0
 15 42  1  0
 15 43  1  0
 18 44  1  0
 19 45  1  0
 24 46  1  0
 27 47  1  0
 28 48  1  0
M  CHG  2  21   1  23  -1
M  END
$$$$
