
     RDKit          3D

100102  0  0  0  0  0  0  0  0999 V2000
    2.1447    2.2768   -0.1626 C   0  0  0  0  0  0  0  0  0  0  0  0
    1.3355    1.2052   -0.0353 C   0  0  0  0  0  0  0  0  0  0  0  0
    1.8448   -0.1361    0.4976 C   0  0  1  0  0  0  0  0  0  0  0  0
    2.6227   -0.6651   -0.6015 O   0  0  0  0  0  0  0  0  0  0  0  0
    2.5169   -1.9879   -0.8662 C   0  0  0  0  0  0  0  0  0  0  0  0
    1.9104   -2.7925   -0.1730 O   0  0  0  0  0  0  0  0  0  0  0  0
    3.3020   -2.3661   -2.1002 C   0  0  0  0  0  0  0  0  0  0  0  0
    3.0729   -1.4324   -3.2985 C   0  0  0  0  0  0  0  0  0  0  0  0
    3.9933   -1.8339   -4.4517 C   0  0  0  0  0  0  0  0  0  0  0  0
    1.6159   -1.4545   -3.7637 C   0  0  0  0  0  0  0  0  0  0  0  0
    2.6870   -0.0676    1.8007 C   0  0  0  0  0  0  0  0  0  0  0  0
    3.4035   -1.2816    2.0724 O   0  0  0  0  0  0  0  0  0  0  0  0
    4.6716   -1.3739    1.5955 C   0  0  0  0  0  0  0  0  0  0  0  0
    5.2604   -2.6986    1.9720 C   0  0  0  0  0  0  0  0  0  0  0  0
    5.2600   -0.5147    0.9570 O   0  0  0  0  0  0  0  0  0  0  0  0
    1.7864    0.2615    3.0001 C   0  0  0  0  0  0  0  0  0  0  0  0
    1.7059    1.4445    3.3688 O   0  0  0  0  0  0  0  0  0  0  0  0
    0.9088   -0.8168    3.7061 C   0  0  0  0  0  0  0  0  0  0  0  0
    1.1607   -0.6808    5.2251 C   0  0  0  0  0  0  0  0  0  0  0  0
    1.1834   -2.2837    3.3473 C   0  0  0  0  0  0  0  0  0  0  0  0
   -0.5371   -0.4103    3.4251 C   0  0  0  0  0  0  0  0  0  0  0  0
   -1.3877   -0.9750    2.5492 C   0  0  0  0  0  0  0  0  0  0  0  0
   -2.8045   -0.4867    2.3030 C   0  0  2  0  0  0  0  0  0  0  0  0
   -3.7531   -1.6460    2.6486 C   0  0  0  0  0  0  0  0  0  0  0  0
   -3.0765    0.0073    0.8474 C   0  0  2  0  0  0  0  0  0  0  0  0
   -2.5028   -0.9551   -0.0802 O   0  0  0  0  0  0  0  0  0  0  0  0
   -3.3631   -1.6656   -0.8535 C   0  0  0  0  0  0  0  0  0  0  0  0
   -4.5759   -1.5373   -0.8853 O   0  0  0  0  0  0  0  0  0  0  0  0
   -2.6248   -2.6438   -1.6920 C   0  0  0  0  0  0  0  0  0  0  0  0
   -1.3401   -3.0914   -1.3620 C   0  0  0  0  0  0  0  0  0  0  0  0
   -0.6998   -4.0376   -2.1658 C   0  0  0  0  0  0  0  0  0  0  0  0
   -1.3361   -4.5348   -3.3025 C   0  0  0  0  0  0  0  0  0  0  0  0
   -2.6160   -4.0938   -3.6355 C   0  0  0  0  0  0  0  0  0  0  0  0
   -3.2622   -3.1555   -2.8299 C   0  0  0  0  0  0  0  0  0  0  0  0
   -2.5851    1.4411    0.4601 C   0  0  1  0  0  0  0  0  0  0  0  0
   -3.0237    1.6967   -0.8856 O   0  0  0  0  0  0  0  0  0  0  0  0
   -3.2718    2.5388    1.3185 C   0  0  0  0  0  0  0  0  0  0  0  0
   -2.1398    3.3861    1.9133 C   0  0  2  0  0  0  0  0  0  0  0  0
   -2.5745    4.8127    2.2116 C   0  0  0  0  0  0  0  0  0  0  0  0
   -0.9999    3.2446    0.8943 C   0  0  2  0  0  0  0  0  0  0  0  0
   -1.2741    4.0283   -0.2755 O   0  0  0  0  0  0  0  0  0  0  0  0
   -0.5695    5.1811   -0.4242 C   0  0  0  0  0  0  0  0  0  0  0  0
   -0.9931    5.8844   -1.6763 C   0  0  0  0  0  0  0  0  0  0  0  0
    0.2645    5.6169    0.3553 O   0  0  0  0  0  0  0  0  0  0  0  0
   -1.0618    1.7300    0.5913 C   0  0  2  0  0  0  0  0  0  0  0  0
   -0.1213    1.2164   -0.5202 C   0  0  1  0  0  0  0  0  0  0  0  0
   -0.1707    2.0131   -1.7187 O   0  0  0  0  0  0  0  0  0  0  0  0
   -0.8397    1.4959   -2.7795 C   0  0  0  0  0  0  0  0  0  0  0  0
   -0.7703    2.4285   -3.9482 C   0  0  0  0  0  0  0  0  0  0  0  0
   -1.4584    0.4389   -2.7819 O   0  0  0  0  0  0  0  0  0  0  0  0
    3.1943    2.2553    0.1164 H   0  0  0  0  0  0  0  0  0  0  0  0
    1.7869    3.2174   -0.5727 H   0  0  0  0  0  0  0  0  0  0  0  0
    0.9809   -0.7847    0.6752 H   0  0  0  0  0  0  0  0  0  0  0  0
    3.0242   -3.3909   -2.3733 H   0  0  0  0  0  0  0  0  0  0  0  0
    4.3616   -2.3780   -1.8174 H   0  0  0  0  0  0  0  0  0  0  0  0
    3.3228   -0.4034   -3.0136 H   0  0  0  0  0  0  0  0  0  0  0  0
    3.8721   -1.1535   -5.3013 H   0  0  0  0  0  0  0  0  0  0  0  0
    5.0427   -1.7997   -4.1426 H   0  0  0  0  0  0  0  0  0  0  0  0
    3.7739   -2.8496   -4.7976 H   0  0  0  0  0  0  0  0  0  0  0  0
    1.4675   -0.7754   -4.6114 H   0  0  0  0  0  0  0  0  0  0  0  0
    0.9402   -1.1354   -2.9658 H   0  0  0  0  0  0  0  0  0  0  0  0
    1.3169   -2.4586   -4.0803 H   0  0  0  0  0  0  0  0  0  0  0  0
    3.4175    0.7476    1.7497 H   0  0  0  0  0  0  0  0  0  0  0  0
    5.3773   -2.7557    3.0569 H   0  0  0  0  0  0  0  0  0  0  0  0
    4.6202   -3.5069    1.6080 H   0  0  0  0  0  0  0  0  0  0  0  0
    6.2445   -2.8044    1.5056 H   0  0  0  0  0  0  0  0  0  0  0  0
    0.5385   -1.3786    5.7984 H   0  0  0  0  0  0  0  0  0  0  0  0
    0.9445    0.3306    5.5924 H   0  0  0  0  0  0  0  0  0  0  0  0
    2.2121   -0.8858    5.4656 H   0  0  0  0  0  0  0  0  0  0  0  0
    0.4519   -2.9502    3.8223 H   0  0  0  0  0  0  0  0  0  0  0  0
    2.1708   -2.6070    3.6965 H   0  0  0  0  0  0  0  0  0  0  0  0
    1.1317   -2.4695    2.2723 H   0  0  0  0  0  0  0  0  0  0  0  0
   -0.8799    0.4660    3.9812 H   0  0  0  0  0  0  0  0  0  0  0  0
   -1.0814   -1.8411    1.9656 H   0  0  0  0  0  0  0  0  0  0  0  0
   -3.0356    0.3230    3.0041 H   0  0  0  0  0  0  0  0  0  0  0  0
   -3.5890   -2.5151    2.0027 H   0  0  0  0  0  0  0  0  0  0  0  0
   -4.7981   -1.3355    2.5410 H   0  0  0  0  0  0  0  0  0  0  0  0
   -3.6127   -1.9712    3.6859 H   0  0  0  0  0  0  0  0  0  0  0  0
   -4.1673    0.0351    0.7162 H   0  0  0  0  0  0  0  0  0  0  0  0
   -0.8274   -2.7238   -0.4779 H   0  0  0  0  0  0  0  0  0  0  0  0
    0.2952   -4.3868   -1.9001 H   0  0  0  0  0  0  0  0  0  0  0  0
   -0.8361   -5.2710   -3.9272 H   0  0  0  0  0  0  0  0  0  0  0  0
   -3.1135   -4.4821   -4.5207 H   0  0  0  0  0  0  0  0  0  0  0  0
   -4.2627   -2.8185   -3.0957 H   0  0  0  0  0  0  0  0  0  0  0  0
   -2.8370    0.8995   -1.4232 H   0  0  0  0  0  0  0  0  0  0  0  0
   -3.8986    2.1363    2.1206 H   0  0  0  0  0  0  0  0  0  0  0  0
   -3.9271    3.1595    0.6945 H   0  0  0  0  0  0  0  0  0  0  0  0
   -1.8216    2.9205    2.8562 H   0  0  0  0  0  0  0  0  0  0  0  0
   -2.9576    5.3222    1.3216 H   0  0  0  0  0  0  0  0  0  0  0  0
   -3.3710    4.8166    2.9629 H   0  0  0  0  0  0  0  0  0  0  0  0
   -1.7354    5.3959    2.6053 H   0  0  0  0  0  0  0  0  0  0  0  0
   -0.0394    3.5082    1.3504 H   0  0  0  0  0  0  0  0  0  0  0  0
   -0.1844    6.5407   -2.0148 H   0  0  0  0  0  0  0  0  0  0  0  0
   -1.8905    6.4747   -1.4790 H   0  0  0  0  0  0  0  0  0  0  0  0
   -1.1899    5.1605   -2.4710 H   0  0  0  0  0  0  0  0  0  0  0  0
   -0.7294    1.2591    1.5146 H   0  0  0  0  0  0  0  0  0  0  0  0
   -0.3757    0.1799   -0.7627 H   0  0  0  0  0  0  0  0  0  0  0  0
   -1.5970    3.1421   -3.8972 H   0  0  0  0  0  0  0  0  0  0  0  0
    0.1848    2.9626   -3.9547 H   0  0  0  0  0  0  0  0  0  0  0  0
   -0.8333    1.8489   -4.8728 H   0  0  0  0  0  0  0  0  0  0  0  0
  1  2  2  0
  2  3  1  0
  3  4  1  0
  4  5  1  0
  5  6  2  0
  5  7  1  0
  7  8  1  0
  8  9  1  0
  8 10  1  0
  3 11  1  0
 11 12  1  0
 12 13  1  0
 13 14  1  0
 13 15  2  0
 11 16  1  0
 16 17  2  0
 16 18  1  0
 18 19  1  0
 18 20  1  0
 18 21  1  0
 21 22  2  0
 22 23  1  0
 23 24  1  0
 23 25  1  0
 25 26  1  0
 26 27  1  0
 27 28  2  0
 27 29  1  0
 29 30  2  0
 30 31  1  0
 31 32  2  0
 32 33  1  0
 33 34  2  0
 25 35  1  0
 35 36  1  6
 35 37  1  0
 37 38  1  0
 38 39  1  0
 38 40  1  0
 40 41  1  0
 41 42  1  0
 42 43  1  0
 42 44  2  0
 40 45  1  0
 45 46  1  0
 46 47  1  0
 47 48  1  0
 48 49  1  0
 48 50  2  0
 46  2  1  0
 34 29  1  0
 45 35  1  0
  1 51  1  0
  1 52  1  0
  3 53  1  1
  7 54  1  0
  7 55  1  0
  8 56  1  0
  9 57  1  0
  9 58  1  0
  9 59  1  0
 10 60  1  0
 10 61  1  0
 10 62  1  0
 11 63  1  0
 14 64  1  0
 14 65  1  0
 14 66  1  0
 19 67  1  0
 19 68  1  0
 19 69  1  0
 20 70  1  0
 20 71  1  0
 20 72  1  0
 21 73  1  0
 22 74  1  0
 23 75  1  1
 24 76  1  0
 24 77  1  0
 24 78  1  0
 25 79  1  6
 30 80  1  0
 31 81  1  0
 32 82  1  0
 33 83  1  0
 34 84  1  0
 36 85  1  0
 37 86  1  0
 37 87  1  0
 38 88  1  1
 39 89  1  0
 39 90  1  0
 39 91  1  0
 40 92  1  1
 43 93  1  0
 43 94  1  0
 43 95  1  0
 45 96  1  1
 46 97  1  6
 49 98  1  0
 49 99  1  0
 49100  1  0
M  END
$$$$
