
     RDKit          3D

 29 30  0  0  0  0  0  0  0  0999 V2000
    3.7155    1.0798   -0.9470 C   0  0  0  0  0  0  0  0  0  0  0  0
    3.3309    0.3281    0.3143 C   0  0  0  0  0  0  0  0  0  0  0  0
    2.6843   -0.9284   -0.0591 N   0  0  0  0  0  0  0  0  0  0  0  0
    1.7427   -1.7208    1.0821 S   0  0  0  0  0  6  0  0  0  0  0  0
    2.3141   -1.4664    2.3862 O   0  0  0  0  0  0  0  0  0  0  0  0
    1.5437   -3.0649    0.5872 O   0  0  0  0  0  0  0  0  0  0  0  0
    0.1969   -0.8659    0.9491 C   0  0  0  0  0  0  0  0  0  0  0  0
   -0.2650   -0.0825    2.0226 C   0  0  0  0  0  0  0  0  0  0  0  0
   -1.4915    0.5771    1.9260 C   0  0  0  0  0  0  0  0  0  0  0  0
   -2.2140    0.4432    0.7511 C   0  0  0  0  0  0  0  0  0  0  0  0
   -1.7463   -0.3249   -0.3140 C   0  0  0  0  0  0  0  0  0  0  0  0
   -0.5498   -1.0077   -0.2259 C   0  0  0  0  0  0  0  0  0  0  0  0
   -2.6393   -0.3818   -1.4138 N   0  0  0  0  0  0  0  0  0  0  0  0
   -3.6604    0.6328   -1.0727 C   0  0  0  0  0  0  0  0  0  0  0  0
   -3.5681    0.9655    0.4262 C   0  0  0  0  0  0  0  0  0  0  0  0
    4.2058    2.0248   -0.6939 H   0  0  0  0  0  0  0  0  0  0  0  0
    2.8322    1.3031   -1.5549 H   0  0  0  0  0  0  0  0  0  0  0  0
    4.4041    0.4907   -1.5621 H   0  0  0  0  0  0  0  0  0  0  0  0
    2.6574    0.9503    0.9117 H   0  0  0  0  0  0  0  0  0  0  0  0
    4.2292    0.1138    0.9019 H   0  0  0  0  0  0  0  0  0  0  0  0
    3.1751   -1.5713   -0.6787 H   0  0  0  0  0  0  0  0  0  0  0  0
    0.3204    0.0040    2.9357 H   0  0  0  0  0  0  0  0  0  0  0  0
   -1.8710    1.1655    2.7555 H   0  0  0  0  0  0  0  0  0  0  0  0
   -0.1974   -1.6212   -1.0485 H   0  0  0  0  0  0  0  0  0  0  0  0
   -3.0334   -1.3217   -1.4576 H   0  0  0  0  0  0  0  0  0  0  0  0
   -3.4591    1.5335   -1.6664 H   0  0  0  0  0  0  0  0  0  0  0  0
   -4.6626    0.2833   -1.3437 H   0  0  0  0  0  0  0  0  0  0  0  0
   -4.3304    0.4222    0.9941 H   0  0  0  0  0  0  0  0  0  0  0  0
   -3.6639    2.0399    0.6060 H   0  0  0  0  0  0  0  0  0  0  0  0
  1  2  1  0
  2  3  1  0
  3  4  1  0
  4  5  2  0
  4  6  2  0
  4  7  1  0
  7  8  2  0
  8  9  1  0
  9 10  2  0
 10 11  1  0
 11 12  2  0
 11 13  1  0
 13 14  1  0
 14 15  1  0
 12  7  1  0
 15 10  1  0
  1 16  1  0
  1 17  1  0
  1 18  1  0
  2 19  1  0
  2 20  1  0
  3 21  1  0
  8 22  1  0
  9 23  1  0
 12 24  1  0
 13 25  1  0
 14 26  1  0
 14 27  1  0
 15 28  1  0
 15 29  1  0
M  END
$$$$
