
     RDKit          3D

 51 55  0  0  0  0  0  0  0  0999 V2000
    6.3485    2.7018   -1.1320 C   0  0  0  0  0  0  0  0  0  0  0  0
    5.2089    2.4852   -1.9044 C   0  0  0  0  0  0  0  0  0  0  0  0
    4.4326    1.3434   -1.7007 C   0  0  0  0  0  0  0  0  0  0  0  0
    4.7930    0.4056   -0.7234 C   0  0  0  0  0  0  0  0  0  0  0  0
    3.9415   -0.8197   -0.4858 C   0  0  0  0  0  0  0  0  0  0  0  0
    2.7985   -0.5283    0.5023 C   0  0  0  0  0  0  0  0  0  0  0  0
    2.0197   -1.7311    0.8554 N   0  0  0  0  0  0  0  0  0  0  0  0
    1.1765   -2.2303   -0.2554 C   0  0  0  0  0  0  0  0  0  0  0  0
   -0.0486   -1.3555   -0.6030 C   0  0  0  0  0  0  0  0  0  0  0  0
   -0.8792   -1.1070    0.5921 N   0  0  0  0  0  0  0  0  0  0  0  0
   -2.1480   -0.5674    0.3861 C   0  0  0  0  0  0  0  0  0  0  0  0
   -2.4147    0.6308    0.8421 N   0  0  0  0  0  0  0  0  0  0  0  0
   -3.6775    1.2159    0.6215 C   0  0  0  0  0  0  0  0  0  0  0  0
   -3.9075    2.5016    1.1150 C   0  0  0  0  0  0  0  0  0  0  0  0
   -5.1385    3.1328    0.9162 C   0  0  0  0  0  0  0  0  0  0  0  0
   -6.1555    2.4806    0.2180 C   0  0  0  0  0  0  0  0  0  0  0  0
   -5.9485    1.1953   -0.2841 C   0  0  0  0  0  0  0  0  0  0  0  0
   -4.7118    0.5769   -0.0779 C   0  0  0  0  0  0  0  0  0  0  0  0
   -4.4228   -0.7178   -0.5380 N   0  0  0  0  0  0  0  0  0  0  0  0
   -5.2196   -1.6032   -1.2248 C   0  0  0  0  0  0  0  0  0  0  0  0
   -4.5132   -2.7745   -1.3960 C   0  0  0  0  0  0  0  0  0  0  0  0
   -3.2420   -2.5874   -0.8053 C   0  0  0  0  0  0  0  0  0  0  0  0
   -3.1944   -1.2960   -0.3114 C   0  0  0  0  0  0  0  0  0  0  0  0
   -0.0870   -0.5657    1.7163 C   0  0  0  0  0  0  0  0  0  0  0  0
    1.1322   -1.4653    2.0151 C   0  0  0  0  0  0  0  0  0  0  0  0
    5.9378    0.6353    0.0513 C   0  0  0  0  0  0  0  0  0  0  0  0
    6.7126    1.7777   -0.1543 C   0  0  0  0  0  0  0  0  0  0  0  0
    6.9526    3.5910   -1.2913 H   0  0  0  0  0  0  0  0  0  0  0  0
    4.9242    3.2066   -2.6657 H   0  0  0  0  0  0  0  0  0  0  0  0
    3.5450    1.1900   -2.3101 H   0  0  0  0  0  0  0  0  0  0  0  0
    3.5531   -1.1636   -1.4513 H   0  0  0  0  0  0  0  0  0  0  0  0
    4.5722   -1.6330   -0.1040 H   0  0  0  0  0  0  0  0  0  0  0  0
    3.2538   -0.1290    1.4189 H   0  0  0  0  0  0  0  0  0  0  0  0
    2.1584    0.2703    0.1087 H   0  0  0  0  0  0  0  0  0  0  0  0
    1.7754   -2.3959   -1.1568 H   0  0  0  0  0  0  0  0  0  0  0  0
    0.8138   -3.2270    0.0314 H   0  0  0  0  0  0  0  0  0  0  0  0
   -0.6223   -1.8696   -1.3803 H   0  0  0  0  0  0  0  0  0  0  0  0
    0.2733   -0.3978   -1.0298 H   0  0  0  0  0  0  0  0  0  0  0  0
   -3.1171    3.0128    1.6580 H   0  0  0  0  0  0  0  0  0  0  0  0
   -5.3013    4.1339    1.3073 H   0  0  0  0  0  0  0  0  0  0  0  0
   -7.1117    2.9756    0.0667 H   0  0  0  0  0  0  0  0  0  0  0  0
   -6.7547    0.7069   -0.8211 H   0  0  0  0  0  0  0  0  0  0  0  0
   -6.2259   -1.3500   -1.5247 H   0  0  0  0  0  0  0  0  0  0  0  0
   -4.8800   -3.6689   -1.8831 H   0  0  0  0  0  0  0  0  0  0  0  0
   -2.4452   -3.3167   -0.7422 H   0  0  0  0  0  0  0  0  0  0  0  0
    0.2405    0.4564    1.4903 H   0  0  0  0  0  0  0  0  0  0  0  0
   -0.7089   -0.5247    2.6190 H   0  0  0  0  0  0  0  0  0  0  0  0
    0.7678   -2.4342    2.3824 H   0  0  0  0  0  0  0  0  0  0  0  0
    1.7111   -1.0384    2.8432 H   0  0  0  0  0  0  0  0  0  0  0  0
    6.2325   -0.0754    0.8204 H   0  0  0  0  0  0  0  0  0  0  0  0
    7.6004    1.9469    0.4493 H   0  0  0  0  0  0  0  0  0  0  0  0
  1  2  2  0
  2  3  1  0
  3  4  2  0
  4  5  1  0
  5  6  1  0
  6  7  1  0
  7  8  1  0
  8  9  1  0
  9 10  1  0
 10 11  1  0
 11 12  2  0
 12 13  1  0
 13 14  2  0
 14 15  1  0
 15 16  2  0
 16 17  1  0
 17 18  2  0
 18 19  1  0
 19 20  1  0
 20 21  2  0
 21 22  1  0
 22 23  2  0
 10 24  1  0
 24 25  1  0
  4 26  1  0
 26 27  2  0
 27  1  1  0
 25  7  1  0
 23 11  1  0
 18 13  1  0
 23 19  1  0
  1 28  1  0
  2 29  1  0
  3 30  1  0
  5 31  1  0
  5 32  1  0
  6 33  1  0
  6 34  1  0
  8 35  1  0
  8 36  1  0
  9 37  1  0
  9 38  1  0
 14 39  1  0
 15 40  1  0
 16 41  1  0
 17 42  1  0
 20 43  1  0
 21 44  1  0
 22 45  1  0
 24 46  1  0
 24 47  1  0
 25 48  1  0
 25 49  1  0
 26 50  1  0
 27 51  1  0
M  END
$$$$
