
     RDKit          3D

 46 49  0  0  0  0  0  0  0  0999 V2000
    3.9832    0.5653    1.1041 O   0  0  0  0  0  0  0  0  0  0  0  0
    3.1622    1.4134    0.7598 C   0  0  0  0  0  0  0  0  0  0  0  0
    2.8848    2.6261    1.6382 C   0  0  0  0  0  0  0  0  0  0  0  0
    1.4574    2.3376    2.7248 S   0  0  0  0  0  0  0  0  0  0  0  0
    0.1735    2.3889    1.5704 C   0  0  0  0  0  0  0  0  0  0  0  0
    0.1979    3.0701    0.4489 N   0  0  0  0  0  0  0  0  0  0  0  0
   -0.9679    2.8153   -0.2184 N   0  0  0  0  0  0  0  0  0  0  0  0
   -1.6842    1.9702    0.5017 C   0  0  0  0  0  0  0  0  0  0  0  0
   -3.0392    1.4537    0.1287 C   0  0  0  0  0  0  0  0  0  0  0  0
   -3.0726    0.0060   -0.2768 C   0  0  0  0  0  0  0  0  0  0  0  0
   -3.9199   -0.9878    0.1785 C   0  0  0  0  0  0  0  0  0  0  0  0
   -3.6637   -2.2477   -0.4369 C   0  0  0  0  0  0  0  0  0  0  0  0
   -2.6391   -2.1732   -1.3511 C   0  0  0  0  0  0  0  0  0  0  0  0
   -2.0171   -0.5903   -1.4900 S   0  0  0  0  0  0  0  0  0  0  0  0
   -0.9838    1.6658    1.6516 N   0  0  0  0  0  0  0  0  0  0  0  0
   -1.3903    0.7746    2.7221 C   0  0  0  0  0  0  0  0  0  0  0  0
   -0.9580   -0.6272    2.4850 C   0  0  0  0  0  0  0  0  0  0  0  0
   -1.5513   -1.8488    2.7369 C   0  0  0  0  0  0  0  0  0  0  0  0
   -0.6438   -2.8363    2.2814 C   0  0  0  0  0  0  0  0  0  0  0  0
    0.4491   -2.1593    1.7949 C   0  0  0  0  0  0  0  0  0  0  0  0
    0.2709   -0.8204    1.9257 O   0  0  0  0  0  0  0  0  0  0  0  0
    2.4210    1.4049   -0.4110 N   0  0  0  0  0  0  0  0  0  0  0  0
    2.4748    0.4638   -1.4566 C   0  0  0  0  0  0  0  0  0  0  0  0
    1.4915    0.5625   -2.4487 C   0  0  0  0  0  0  0  0  0  0  0  0
    1.4668   -0.3367   -3.5197 C   0  0  0  0  0  0  0  0  0  0  0  0
    2.4358   -1.3335   -3.6047 C   0  0  0  0  0  0  0  0  0  0  0  0
    2.4029   -2.5591   -5.0439 Br  0  0  0  0  0  0  0  0  0  0  0  0
    3.4282   -1.4315   -2.6339 C   0  0  0  0  0  0  0  0  0  0  0  0
    3.4462   -0.5353   -1.5606 C   0  0  0  0  0  0  0  0  0  0  0  0
    2.7506    3.5235    1.0250 H   0  0  0  0  0  0  0  0  0  0  0  0
    3.7667    2.7988    2.2637 H   0  0  0  0  0  0  0  0  0  0  0  0
   -3.7280    1.6206    0.9652 H   0  0  0  0  0  0  0  0  0  0  0  0
   -3.4299    2.0544   -0.7031 H   0  0  0  0  0  0  0  0  0  0  0  0
   -4.6885   -0.8251    0.9233 H   0  0  0  0  0  0  0  0  0  0  0  0
   -4.2000   -3.1635   -0.2190 H   0  0  0  0  0  0  0  0  0  0  0  0
   -2.2271   -2.9690   -1.9569 H   0  0  0  0  0  0  0  0  0  0  0  0
   -2.4813    0.8335    2.8111 H   0  0  0  0  0  0  0  0  0  0  0  0
   -0.9793    1.1475    3.6661 H   0  0  0  0  0  0  0  0  0  0  0  0
   -2.5219   -2.0095    3.1828 H   0  0  0  0  0  0  0  0  0  0  0  0
   -0.7688   -3.9087    2.3026 H   0  0  0  0  0  0  0  0  0  0  0  0
    1.3874   -2.4632    1.3474 H   0  0  0  0  0  0  0  0  0  0  0  0
    1.6696    2.0918   -0.4761 H   0  0  0  0  0  0  0  0  0  0  0  0
    0.7203    1.3297   -2.3920 H   0  0  0  0  0  0  0  0  0  0  0  0
    0.6869   -0.2497   -4.2711 H   0  0  0  0  0  0  0  0  0  0  0  0
    4.1924   -2.2008   -2.6950 H   0  0  0  0  0  0  0  0  0  0  0  0
    4.2356   -0.6412   -0.8226 H   0  0  0  0  0  0  0  0  0  0  0  0
  1  2  2  0
  2  3  1  0
  3  4  1  0
  4  5  1  0
  5  6  2  0
  6  7  1  0
  7  8  2  0
  8  9  1  0
  9 10  1  0
 10 11  2  0
 11 12  1  0
 12 13  2  0
 13 14  1  0
  8 15  1  0
 15 16  1  0
 16 17  1  0
 17 18  2  0
 18 19  1  0
 19 20  2  0
 20 21  1  0
  2 22  1  0
 22 23  1  0
 23 24  2  0
 24 25  1  0
 25 26  2  0
 26 27  1  0
 26 28  1  0
 28 29  2  0
 15  5  1  0
 21 17  1  0
 29 23  1  0
 14 10  1  0
  3 30  1  0
  3 31  1  0
  9 32  1  0
  9 33  1  0
 11 34  1  0
 12 35  1  0
 13 36  1  0
 16 37  1  0
 16 38  1  0
 18 39  1  0
 19 40  1  0
 20 41  1  0
 22 42  1  0
 24 43  1  0
 25 44  1  0
 28 45  1  0
 29 46  1  0
M  END
$$$$
