
     RDKit          3D

 40 41  0  0  0  0  0  0  0  0999 V2000
   -3.2727   -4.3125   -0.8909 C   0  0  0  0  0  0  0  0  0  0  0  0
   -2.7173   -3.5496   -2.0804 C   0  0  0  0  0  0  0  0  0  0  0  0
   -2.5279   -2.1926   -1.6787 O   0  0  0  0  0  0  0  0  0  0  0  0
   -1.9753   -1.3910   -2.6566 C   0  0  0  0  0  0  0  0  0  0  0  0
   -1.7833   -1.9193   -3.8926 N   0  0  0  0  0  0  0  0  0  0  0  0
   -1.3050   -1.0947   -4.8509 C   0  0  0  0  0  0  0  0  0  0  0  0
   -1.0142    0.2430   -4.6424 C   0  0  0  0  0  0  0  0  0  0  0  0
   -1.2170    0.7676   -3.3701 C   0  0  0  0  0  0  0  0  0  0  0  0
   -1.6928   -0.0640   -2.3509 C   0  0  0  0  0  0  0  0  0  0  0  0
   -1.9009    0.5184   -1.0166 C   0  0  0  0  0  0  0  0  0  0  0  0
   -2.3693    1.6333   -0.8473 O   0  0  0  0  0  0  0  0  0  0  0  0
   -1.4086   -0.3082   -0.0663 O   0  0  0  0  0  0  0  0  0  0  0  0
   -1.4848    0.1778    1.2774 C   0  0  0  0  0  0  0  0  0  0  0  0
   -0.1646    0.7977    1.6593 C   0  0  0  0  0  0  0  0  0  0  0  0
    0.0114    2.1861    1.5982 C   0  0  0  0  0  0  0  0  0  0  0  0
    1.2418    2.7593    1.9299 C   0  0  0  0  0  0  0  0  0  0  0  0
    2.3173    1.9513    2.3205 C   0  0  0  0  0  0  0  0  0  0  0  0
    3.6064    2.6132    2.6610 C   0  0  0  0  0  0  0  0  0  0  0  0
    3.7797    3.8209    2.6102 O   0  0  0  0  0  0  0  0  0  0  0  0
    4.5353    1.6948    3.0282 O   0  0  0  0  0  0  0  0  0  0  0  0
    5.8019    2.2579    3.3723 C   0  0  0  0  0  0  0  0  0  0  0  0
    2.1485    0.5616    2.3708 C   0  0  0  0  0  0  0  0  0  0  0  0
    0.9165   -0.0099    2.0380 C   0  0  0  0  0  0  0  0  0  0  0  0
   -4.2208   -3.8749   -0.5609 H   0  0  0  0  0  0  0  0  0  0  0  0
   -2.5834   -4.2570   -0.0417 H   0  0  0  0  0  0  0  0  0  0  0  0
   -3.4377   -5.3635   -1.1441 H   0  0  0  0  0  0  0  0  0  0  0  0
   -3.4345   -3.6066   -2.9080 H   0  0  0  0  0  0  0  0  0  0  0  0
   -1.7625   -3.9994   -2.3784 H   0  0  0  0  0  0  0  0  0  0  0  0
   -1.1630   -1.5523   -5.8264 H   0  0  0  0  0  0  0  0  0  0  0  0
   -0.6407    0.8625   -5.4506 H   0  0  0  0  0  0  0  0  0  0  0  0
   -1.0041    1.8154   -3.1705 H   0  0  0  0  0  0  0  0  0  0  0  0
   -2.3185    0.8750    1.4272 H   0  0  0  0  0  0  0  0  0  0  0  0
   -1.6899   -0.6806    1.9276 H   0  0  0  0  0  0  0  0  0  0  0  0
   -0.8088    2.8300    1.2830 H   0  0  0  0  0  0  0  0  0  0  0  0
    1.3577    3.8405    1.8772 H   0  0  0  0  0  0  0  0  0  0  0  0
    5.7023    2.9309    4.2297 H   0  0  0  0  0  0  0  0  0  0  0  0
    6.2342    2.7825    2.5145 H   0  0  0  0  0  0  0  0  0  0  0  0
    6.4717    1.4396    3.6508 H   0  0  0  0  0  0  0  0  0  0  0  0
    2.9675   -0.0912    2.6622 H   0  0  0  0  0  0  0  0  0  0  0  0
    0.8053   -1.0922    2.0698 H   0  0  0  0  0  0  0  0  0  0  0  0
  1  2  1  0
  2  3  1  0
  3  4  1  0
  4  5  2  0
  5  6  1  0
  6  7  2  0
  7  8  1  0
  8  9  2  0
  9 10  1  0
 10 11  2  0
 10 12  1  0
 12 13  1  0
 13 14  1  0
 14 15  2  0
 15 16  1  0
 16 17  2  0
 17 18  1  0
 18 19  2  0
 18 20  1  0
 20 21  1  0
 17 22  1  0
 22 23  2  0
  9  4  1  0
 23 14  1  0
  1 24  1  0
  1 25  1  0
  1 26  1  0
  2 27  1  0
  2 28  1  0
  6 29  1  0
  7 30  1  0
  8 31  1  0
 13 32  1  0
 13 33  1  0
 15 34  1  0
 16 35  1  0
 21 36  1  0
 21 37  1  0
 21 38  1  0
 22 39  1  0
 23 40  1  0
M  END
$$$$
