
     RDKit          3D

 37 39  0  0  0  0  0  0  0  0999 V2000
    7.9081    0.6616   -0.0881 C   0  0  0  0  0  0  0  0  0  0  0  0
    6.4050    0.6015   -0.3092 C   0  0  0  0  0  0  0  0  0  0  0  0
    5.7701   -0.5481    0.4734 C   0  0  0  0  0  0  0  0  0  0  0  0
    4.2975   -0.6200    0.2353 C   0  0  0  0  0  0  0  0  0  0  0  0
    3.7302   -1.2531   -0.7706 N   0  0  0  0  0  0  0  0  0  0  0  0
    2.3541   -1.1468   -0.7349 N   0  0  0  0  0  0  0  0  0  0  0  0
    1.9361   -0.4413    0.2927 C   0  0  0  0  0  0  0  0  0  0  0  0
    0.6072   -0.2073    0.5251 N   0  0  0  0  0  0  0  0  0  0  0  0
    0.0473    0.5096    1.5561 C   0  0  0  0  0  0  0  0  0  0  0  0
    0.6401    1.0784    2.4684 O   0  0  0  0  0  0  0  0  0  0  0  0
   -1.4827    0.5547    1.4848 C   0  0  0  0  0  0  0  0  0  0  0  0
   -1.9673   -0.1652    0.3530 O   0  0  0  0  0  0  0  0  0  0  0  0
   -3.3247   -0.1996    0.1774 C   0  0  0  0  0  0  0  0  0  0  0  0
   -3.7453   -0.9247   -0.9565 C   0  0  0  0  0  0  0  0  0  0  0  0
   -5.1019   -1.0515   -1.2718 C   0  0  0  0  0  0  0  0  0  0  0  0
   -6.0084   -0.4427   -0.4346 C   0  0  0  0  0  0  0  0  0  0  0  0
   -5.6037    0.2653    0.6720 C   0  0  0  0  0  0  0  0  0  0  0  0
   -4.2713    0.4070    1.0075 C   0  0  0  0  0  0  0  0  0  0  0  0
   -6.6526    0.7869    1.3644 O   0  0  0  0  0  0  0  0  0  0  0  0
   -7.7627    0.3252    0.5657 C   0  0  0  0  0  0  0  0  0  0  0  0
   -7.3596   -0.4562   -0.5781 O   0  0  0  0  0  0  0  0  0  0  0  0
    3.1826    0.1457    1.2935 S   0  0  0  0  0  0  0  0  0  0  0  0
    8.1430    0.8162    0.9698 H   0  0  0  0  0  0  0  0  0  0  0  0
    8.3902   -0.2648   -0.4160 H   0  0  0  0  0  0  0  0  0  0  0  0
    8.3420    1.4900   -0.6569 H   0  0  0  0  0  0  0  0  0  0  0  0
    5.9592    1.5568   -0.0065 H   0  0  0  0  0  0  0  0  0  0  0  0
    6.2035    0.4839   -1.3811 H   0  0  0  0  0  0  0  0  0  0  0  0
    5.9821   -0.4372    1.5438 H   0  0  0  0  0  0  0  0  0  0  0  0
    6.2216   -1.4986    0.1631 H   0  0  0  0  0  0  0  0  0  0  0  0
   -0.0204   -0.6204   -0.1561 H   0  0  0  0  0  0  0  0  0  0  0  0
   -1.7691    1.6102    1.4121 H   0  0  0  0  0  0  0  0  0  0  0  0
   -1.8600    0.1032    2.4096 H   0  0  0  0  0  0  0  0  0  0  0  0
   -3.0047   -1.3952   -1.5999 H   0  0  0  0  0  0  0  0  0  0  0  0
   -5.4283   -1.6082   -2.1427 H   0  0  0  0  0  0  0  0  0  0  0  0
   -4.0125    0.9761    1.8909 H   0  0  0  0  0  0  0  0  0  0  0  0
   -8.4171   -0.2876    1.1962 H   0  0  0  0  0  0  0  0  0  0  0  0
   -8.3276    1.1962    0.2141 H   0  0  0  0  0  0  0  0  0  0  0  0
  1  2  1  0
  2  3  1  0
  3  4  1  0
  4  5  2  0
  5  6  1  0
  6  7  2  0
  7  8  1  0
  8  9  1  0
  9 10  2  0
  9 11  1  0
 11 12  1  0
 12 13  1  0
 13 14  2  0
 14 15  1  0
 15 16  2  0
 16 17  1  0
 17 18  2  0
 17 19  1  0
 19 20  1  0
 20 21  1  0
  7 22  1  0
 22  4  1  0
 18 13  1  0
 21 16  1  0
  1 23  1  0
  1 24  1  0
  1 25  1  0
  2 26  1  0
  2 27  1  0
  3 28  1  0
  3 29  1  0
  8 30  1  0
 11 31  1  0
 11 32  1  0
 14 33  1  0
 15 34  1  0
 18 35  1  0
 20 36  1  0
 20 37  1  0
M  END
$$$$
