
     RDKit          3D

 46 48  0  0  0  0  0  0  0  0999 V2000
   -3.1358   -2.6929    0.7254 C   0  0  0  0  0  0  0  0  0  0  0  0
   -2.5060   -1.4286    0.1656 C   0  0  0  0  0  0  0  0  0  0  0  0
   -2.7345   -0.2703    1.0385 N   0  0  0  0  0  4  0  0  0  0  0  0
   -1.8426    0.1426    1.9340 C   0  0  0  0  0  0  0  0  0  0  0  0
   -0.5743   -0.4325    2.1800 C   0  0  0  0  0  0  0  0  0  0  0  0
    0.4614   -0.0691    1.4051 C   0  0  0  0  0  0  0  0  0  0  0  0
    1.7489   -0.7186    1.4437 C   0  0  0  0  0  0  0  0  0  0  0  0
    2.6970   -0.7386    0.4907 C   0  0  0  0  0  0  0  0  0  0  0  0
    2.6906   -0.2525   -0.8267 N   0  0  0  0  0  0  0  0  0  0  0  0
    1.4943   -0.0714   -1.5519 C   0  0  0  0  0  0  0  0  0  0  0  0
    1.5047    1.0084   -2.6169 C   0  0  0  0  0  0  0  0  0  0  0  0
    0.4314   -0.6714   -1.3328 O   0  0  0  0  0  0  0  0  0  0  0  0
    3.9632   -0.1348   -1.5042 C   0  0  0  0  0  0  0  0  0  0  0  0
    5.0899    0.3438   -0.8142 C   0  0  0  0  0  0  0  0  0  0  0  0
    6.3259    0.4603   -1.4541 C   0  0  0  0  0  0  0  0  0  0  0  0
    6.4563    0.0945   -2.7880 C   0  0  0  0  0  0  0  0  0  0  0  0
    5.3556   -0.4011   -3.4808 C   0  0  0  0  0  0  0  0  0  0  0  0
    4.1186   -0.5191   -2.8430 C   0  0  0  0  0  0  0  0  0  0  0  0
   -2.3957    1.5329    2.7639 S   0  0  0  0  0  0  0  0  0  0  0  0
   -3.8524    1.5835    1.8526 C   0  0  0  0  0  0  0  0  0  0  0  0
   -4.8979    2.5178    1.9213 C   0  0  0  0  0  0  0  0  0  0  0  0
   -5.9787    2.3532    1.0531 C   0  0  0  0  0  0  0  0  0  0  0  0
   -6.0316    1.2802    0.1586 C   0  0  0  0  0  0  0  0  0  0  0  0
   -4.9913    0.3458    0.1030 C   0  0  0  0  0  0  0  0  0  0  0  0
   -3.8799    0.5115    0.9566 C   0  0  0  0  0  0  0  0  0  0  0  0
   -4.2231   -2.5984    0.8061 H   0  0  0  0  0  0  0  0  0  0  0  0
   -2.7375   -2.9235    1.7216 H   0  0  0  0  0  0  0  0  0  0  0  0
   -2.9148   -3.5352    0.0607 H   0  0  0  0  0  0  0  0  0  0  0  0
   -1.4382   -1.6034    0.0241 H   0  0  0  0  0  0  0  0  0  0  0  0
   -2.9077   -1.2139   -0.8295 H   0  0  0  0  0  0  0  0  0  0  0  0
   -0.4912   -1.2268    2.9196 H   0  0  0  0  0  0  0  0  0  0  0  0
    0.3389    0.7224    0.6658 H   0  0  0  0  0  0  0  0  0  0  0  0
    1.9931   -1.2192    2.3816 H   0  0  0  0  0  0  0  0  0  0  0  0
    3.6392   -1.2118    0.7744 H   0  0  0  0  0  0  0  0  0  0  0  0
    0.5969    1.6098   -2.5021 H   0  0  0  0  0  0  0  0  0  0  0  0
    1.4986    0.5495   -3.6071 H   0  0  0  0  0  0  0  0  0  0  0  0
    2.3494    1.6910   -2.5191 H   0  0  0  0  0  0  0  0  0  0  0  0
    5.0195    0.6723    0.2240 H   0  0  0  0  0  0  0  0  0  0  0  0
    7.1837    0.8434   -0.9077 H   0  0  0  0  0  0  0  0  0  0  0  0
    7.4168    0.1861   -3.2893 H   0  0  0  0  0  0  0  0  0  0  0  0
    5.4648   -0.7027   -4.5195 H   0  0  0  0  0  0  0  0  0  0  0  0
    3.2994   -0.9534   -3.4081 H   0  0  0  0  0  0  0  0  0  0  0  0
   -4.8592    3.3663    2.6051 H   0  0  0  0  0  0  0  0  0  0  0  0
   -6.7934    3.0765    1.0761 H   0  0  0  0  0  0  0  0  0  0  0  0
   -6.8831    1.1753   -0.5071 H   0  0  0  0  0  0  0  0  0  0  0  0
   -5.0692   -0.4780   -0.6014 H   0  0  0  0  0  0  0  0  0  0  0  0
  1  2  1  0
  2  3  1  0
  3  4  2  0
  4  5  1  0
  5  6  2  3
  6  7  1  0
  7  8  2  3
  8  9  1  0
  9 10  1  0
 10 11  1  0
 10 12  2  0
  9 13  1  0
 13 14  2  0
 14 15  1  0
 15 16  2  0
 16 17  1  0
 17 18  2  0
  4 19  1  0
 19 20  1  0
 20 21  2  0
 21 22  1  0
 22 23  2  0
 23 24  1  0
 24 25  2  0
 25  3  1  0
 18 13  1  0
 25 20  1  0
  1 26  1  0
  1 27  1  0
  1 28  1  0
  2 29  1  0
  2 30  1  0
  5 31  1  0
  6 32  1  0
  7 33  1  0
  8 34  1  0
 11 35  1  0
 11 36  1  0
 11 37  1  0
 14 38  1  0
 15 39  1  0
 16 40  1  0
 17 41  1  0
 18 42  1  0
 21 43  1  0
 22 44  1  0
 23 45  1  0
 24 46  1  0
M  CHG  1   3   1
M  END
$$$$
