
     RDKit          3D

 55 58  0  0  0  0  0  0  0  0999 V2000
    8.3899   -1.7932    1.2601 C   0  0  0  0  0  0  0  0  0  0  0  0
    7.9203   -0.6353    0.5841 O   0  0  0  0  0  0  0  0  0  0  0  0
    6.5622   -0.4603    0.4884 C   0  0  0  0  0  0  0  0  0  0  0  0
    5.6131   -1.3515    0.9985 C   0  0  0  0  0  0  0  0  0  0  0  0
    4.2494   -1.0872    0.8526 C   0  0  0  0  0  0  0  0  0  0  0  0
    3.8231    0.0621    0.1814 C   0  0  0  0  0  0  0  0  0  0  0  0
    2.3600    0.2994    0.0432 C   0  0  0  0  0  0  0  0  0  0  0  0
    1.8905    0.8601   -1.2644 C   0  0  0  0  0  0  0  0  0  0  0  0
    0.5638    1.0637   -1.3858 C   0  0  0  0  0  0  0  0  0  0  0  0
   -0.0809    1.5959   -2.6072 C   0  0  0  0  0  0  0  0  0  0  0  0
    0.8371    1.8409   -3.5851 F   0  0  0  0  0  0  0  0  0  0  0  0
   -0.9776    0.7363   -3.1502 F   0  0  0  0  0  0  0  0  0  0  0  0
   -0.7163    2.7755   -2.3955 F   0  0  0  0  0  0  0  0  0  0  0  0
   -0.2793    0.7534   -0.3252 N   0  0  0  0  0  0  0  0  0  0  0  0
   -1.6245    0.8832   -0.2572 N   0  0  0  0  0  0  0  0  0  0  0  0
   -1.9804    0.4529    0.9649 C   0  0  0  0  0  0  0  0  0  0  0  0
   -3.3674    0.3920    1.4929 C   0  0  0  0  0  0  0  0  0  0  0  0
   -3.5456   -0.0500    2.6319 O   0  0  0  0  0  0  0  0  0  0  0  0
   -4.4577    0.8162    0.7155 N   0  0  0  0  0  0  0  0  0  0  0  0
   -4.3579    1.2963   -0.6553 C   0  0  0  0  0  0  0  0  0  0  0  0
   -5.7997    0.5230    1.2100 C   0  0  0  0  0  0  0  0  0  0  0  0
   -6.3767   -0.7377    0.6066 C   0  0  0  0  0  0  0  0  0  0  0  0
   -7.3232   -0.6707   -0.4259 C   0  0  0  0  0  0  0  0  0  0  0  0
   -7.8440   -1.8388   -0.9861 C   0  0  0  0  0  0  0  0  0  0  0  0
   -7.4235   -3.0843   -0.5226 C   0  0  0  0  0  0  0  0  0  0  0  0
   -6.4807   -3.1641    0.4998 C   0  0  0  0  0  0  0  0  0  0  0  0
   -5.9594   -1.9975    1.0611 C   0  0  0  0  0  0  0  0  0  0  0  0
   -0.8328    0.0389    1.6911 C   0  0  0  0  0  0  0  0  0  0  0  0
    0.2401    0.2281    0.8578 C   0  0  0  0  0  0  0  0  0  0  0  0
    1.5723   -0.0082    1.0339 N   0  0  0  0  0  0  0  0  0  0  0  0
    4.7654    0.9694   -0.3181 C   0  0  0  0  0  0  0  0  0  0  0  0
    6.1341    0.7144   -0.1661 C   0  0  0  0  0  0  0  0  0  0  0  0
    7.1285    1.5404   -0.6297 O   0  0  0  0  0  0  0  0  0  0  0  0
    6.7574    2.8334   -1.0869 C   0  0  0  0  0  0  0  0  0  0  0  0
    9.4839   -1.7612    1.2571 H   0  0  0  0  0  0  0  0  0  0  0  0
    8.0615   -1.8031    2.3048 H   0  0  0  0  0  0  0  0  0  0  0  0
    8.0821   -2.7057    0.7388 H   0  0  0  0  0  0  0  0  0  0  0  0
    5.8998   -2.2596    1.5182 H   0  0  0  0  0  0  0  0  0  0  0  0
    3.5220   -1.7866    1.2612 H   0  0  0  0  0  0  0  0  0  0  0  0
    2.5918    1.0525   -2.0661 H   0  0  0  0  0  0  0  0  0  0  0  0
   -3.6589    2.1348   -0.7057 H   0  0  0  0  0  0  0  0  0  0  0  0
   -4.0333    0.4779   -1.3049 H   0  0  0  0  0  0  0  0  0  0  0  0
   -5.3286    1.6649   -1.0029 H   0  0  0  0  0  0  0  0  0  0  0  0
   -6.4403    1.3862    0.9903 H   0  0  0  0  0  0  0  0  0  0  0  0
   -5.8038    0.4254    2.3018 H   0  0  0  0  0  0  0  0  0  0  0  0
   -7.6609    0.2924   -0.8021 H   0  0  0  0  0  0  0  0  0  0  0  0
   -8.5781   -1.7767   -1.7847 H   0  0  0  0  0  0  0  0  0  0  0  0
   -7.8293   -3.9934   -0.9589 H   0  0  0  0  0  0  0  0  0  0  0  0
   -6.1494   -4.1342    0.8612 H   0  0  0  0  0  0  0  0  0  0  0  0
   -5.2233   -2.0743    1.8597 H   0  0  0  0  0  0  0  0  0  0  0  0
   -0.8034   -0.3556    2.6970 H   0  0  0  0  0  0  0  0  0  0  0  0
    4.4245    1.8759   -0.8032 H   0  0  0  0  0  0  0  0  0  0  0  0
    6.2110    3.3863   -0.3160 H   0  0  0  0  0  0  0  0  0  0  0  0
    7.6749    3.3875   -1.3060 H   0  0  0  0  0  0  0  0  0  0  0  0
    6.1786    2.7700   -2.0133 H   0  0  0  0  0  0  0  0  0  0  0  0
  1  2  1  0
  2  3  1  0
  3  4  2  0
  4  5  1  0
  5  6  2  0
  6  7  1  0
  7  8  1  0
  8  9  2  0
  9 10  1  0
 10 11  1  0
 10 12  1  0
 10 13  1  0
  9 14  1  0
 14 15  1  0
 15 16  2  0
 16 17  1  0
 17 18  2  0
 17 19  1  0
 19 20  1  0
 19 21  1  0
 21 22  1  0
 22 23  2  0
 23 24  1  0
 24 25  2  0
 25 26  1  0
 26 27  2  0
 16 28  1  0
 28 29  2  0
 29 30  1  0
  6 31  1  0
 31 32  2  0
 32 33  1  0
 33 34  1  0
 32  3  1  0
 30  7  2  0
 29 14  1  0
 27 22  1  0
  1 35  1  0
  1 36  1  0
  1 37  1  0
  4 38  1  0
  5 39  1  0
  8 40  1  0
 20 41  1  0
 20 42  1  0
 20 43  1  0
 21 44  1  0
 21 45  1  0
 23 46  1  0
 24 47  1  0
 25 48  1  0
 26 49  1  0
 27 50  1  0
 28 51  1  0
 31 52  1  0
 34 53  1  0
 34 54  1  0
 34 55  1  0
M  END
$$$$
