
     RDKit          3D

 42 44  0  0  0  0  0  0  0  0999 V2000
    5.4447   -1.7721    2.7916 C   0  0  0  0  0  0  0  0  0  0  0  0
    5.6180   -1.4567    1.4150 O   0  0  0  0  0  0  0  0  0  0  0  0
    4.5481   -0.9014    0.7687 C   0  0  0  0  0  0  0  0  0  0  0  0
    4.7875   -0.5428   -0.5605 C   0  0  0  0  0  0  0  0  0  0  0  0
    3.7911    0.0449   -1.3452 C   0  0  0  0  0  0  0  0  0  0  0  0
    4.1756    0.3534   -2.6213 O   0  0  0  0  0  0  0  0  0  0  0  0
    3.1822    0.8921   -3.4855 C   0  0  0  0  0  0  0  0  0  0  0  0
    2.5321    0.2734   -0.7926 C   0  0  0  0  0  0  0  0  0  0  0  0
    2.2725   -0.1061    0.5337 C   0  0  0  0  0  0  0  0  0  0  0  0
    0.9358    0.1086    1.1663 C   0  0  0  0  0  0  0  0  0  0  0  0
    0.9047    0.3217    2.3722 O   0  0  0  0  0  0  0  0  0  0  0  0
   -0.1328    0.0009    0.2993 N   0  0  0  0  0  0  0  0  0  0  0  0
   -1.4775    0.2049    0.5770 C   0  0  0  0  0  0  0  0  0  0  0  0
   -2.0037    0.7158    2.1235 S   0  0  0  0  0  0  0  0  0  0  0  0
   -3.5871    0.7405    1.6086 C   0  0  0  0  0  0  0  0  0  0  0  0
   -3.7592    0.3744    0.3020 C   0  0  0  0  0  0  0  0  0  0  0  0
   -2.5268    0.0403   -0.3356 C   0  0  0  0  0  0  0  0  0  0  0  0
   -2.2886   -0.3888   -1.7122 C   0  0  0  0  0  0  0  0  0  0  0  0
   -3.3798   -0.7722   -2.4356 N   0  0  0  0  0  0  0  0  0  0  0  0
   -1.1661   -0.4475   -2.2109 O   0  0  0  0  0  0  0  0  0  0  0  0
   -5.1971    0.4581   -0.0707 C   0  0  0  0  0  0  0  0  0  0  0  0
   -5.8111    1.2677    1.1133 C   0  0  0  0  0  0  0  0  0  0  0  0
   -4.8347    1.1097    2.3152 C   0  0  0  0  0  0  0  0  0  0  0  0
    3.2864   -0.6806    1.3151 C   0  0  0  0  0  0  0  0  0  0  0  0
    6.3928   -2.1716    3.1644 H   0  0  0  0  0  0  0  0  0  0  0  0
    4.6819   -2.5462    2.9248 H   0  0  0  0  0  0  0  0  0  0  0  0
    5.2077   -0.8769    3.3761 H   0  0  0  0  0  0  0  0  0  0  0  0
    5.7718   -0.7171   -0.9902 H   0  0  0  0  0  0  0  0  0  0  0  0
    2.8374    1.8676   -3.1274 H   0  0  0  0  0  0  0  0  0  0  0  0
    3.6396    1.0410   -4.4684 H   0  0  0  0  0  0  0  0  0  0  0  0
    2.3452    0.1968   -3.6091 H   0  0  0  0  0  0  0  0  0  0  0  0
    1.7578    0.7657   -1.3703 H   0  0  0  0  0  0  0  0  0  0  0  0
    0.0454   -0.2959   -0.6584 H   0  0  0  0  0  0  0  0  0  0  0  0
   -4.2536   -0.9979   -1.9868 H   0  0  0  0  0  0  0  0  0  0  0  0
   -3.1914   -1.1969   -3.3336 H   0  0  0  0  0  0  0  0  0  0  0  0
   -5.6395   -0.5427   -0.1148 H   0  0  0  0  0  0  0  0  0  0  0  0
   -5.3610    0.9729   -1.0214 H   0  0  0  0  0  0  0  0  0  0  0  0
   -5.8616    2.3278    0.8310 H   0  0  0  0  0  0  0  0  0  0  0  0
   -6.8278    0.9437    1.3561 H   0  0  0  0  0  0  0  0  0  0  0  0
   -4.7539    2.0389    2.8857 H   0  0  0  0  0  0  0  0  0  0  0  0
   -5.1631    0.2995    2.9742 H   0  0  0  0  0  0  0  0  0  0  0  0
    3.0581   -0.9466    2.3431 H   0  0  0  0  0  0  0  0  0  0  0  0
  1  2  1  0
  2  3  1  0
  3  4  2  0
  4  5  1  0
  5  6  1  0
  6  7  1  0
  5  8  2  0
  8  9  1  0
  9 10  1  0
 10 11  2  0
 10 12  1  0
 12 13  1  0
 13 14  1  0
 14 15  1  0
 15 16  2  0
 16 17  1  0
 17 18  1  0
 18 19  1  0
 18 20  2  0
 16 21  1  0
 21 22  1  0
 22 23  1  0
  9 24  2  0
 24  3  1  0
 17 13  2  0
 23 15  1  0
  1 25  1  0
  1 26  1  0
  1 27  1  0
  4 28  1  0
  7 29  1  0
  7 30  1  0
  7 31  1  0
  8 32  1  0
 12 33  1  0
 19 34  1  0
 19 35  1  0
 21 36  1  0
 21 37  1  0
 22 38  1  0
 22 39  1  0
 23 40  1  0
 23 41  1  0
 24 42  1  0
M  END
$$$$
