
     RDKit          3D

 44 46  0  0  0  0  0  0  0  0999 V2000
   -6.5239    2.0857    0.0552 C   0  0  0  0  0  0  0  0  0  0  0  0
   -5.2288    1.3420   -0.0968 C   0  0  0  0  0  0  0  0  0  0  0  0
   -4.0532    2.0362   -0.4078 C   0  0  0  0  0  0  0  0  0  0  0  0
   -2.8297    1.3644   -0.5247 C   0  0  0  0  0  0  0  0  0  0  0  0
   -1.5792    2.1356   -0.8426 C   0  0  0  0  0  0  0  0  0  0  0  0
   -2.8062   -0.0286   -0.3519 C   0  0  0  0  0  0  0  0  0  0  0  0
   -1.6109   -0.6919   -0.4771 O   0  0  0  0  0  0  0  0  0  0  0  0
   -1.4422   -1.1674   -1.8180 C   0  0  0  0  0  0  0  0  0  0  0  0
    0.0410   -1.3063   -2.1727 C   0  0  0  0  0  0  0  0  0  0  0  0
    0.3748   -1.7075   -3.2845 O   0  0  0  0  0  0  0  0  0  0  0  0
    0.8702   -0.9482   -1.1359 N   0  0  0  0  0  0  0  0  0  0  0  0
    2.2370   -0.9270   -1.1192 C   0  0  0  0  0  0  0  0  0  0  0  0
    2.8912   -0.5831   -0.0374 N   0  0  0  0  0  0  0  0  0  0  0  0
    4.2625   -0.6321   -0.2696 C   0  0  0  0  0  0  0  0  0  0  0  0
    5.2325   -0.2907    0.7721 C   0  0  0  0  0  0  0  0  0  0  0  0
    6.5027   -0.8632    0.8118 C   0  0  0  0  0  0  0  0  0  0  0  0
    7.3751   -0.4968    1.8354 C   0  0  0  0  0  0  0  0  0  0  0  0
    6.9593    0.4242    2.7885 C   0  0  0  0  0  0  0  0  0  0  0  0
    5.6812    0.9432    2.6795 C   0  0  0  0  0  0  0  0  0  0  0  0
    4.8156    0.6081    1.6991 N   0  0  0  0  0  0  0  0  0  0  0  0
    4.6067   -1.0118   -1.5549 C   0  0  0  0  0  0  0  0  0  0  0  0
    3.1913   -1.3248   -2.4706 S   0  0  0  0  0  0  0  0  0  0  0  0
   -3.9575   -0.7361    0.0220 C   0  0  0  0  0  0  0  0  0  0  0  0
   -3.9240   -2.2144    0.2857 C   0  0  0  0  0  0  0  0  0  0  0  0
   -5.1680   -0.0380    0.1330 C   0  0  0  0  0  0  0  0  0  0  0  0
   -7.3819    1.4154   -0.0597 H   0  0  0  0  0  0  0  0  0  0  0  0
   -6.6139    2.8632   -0.7110 H   0  0  0  0  0  0  0  0  0  0  0  0
   -6.5746    2.5509    1.0448 H   0  0  0  0  0  0  0  0  0  0  0  0
   -4.0926    3.1145   -0.5520 H   0  0  0  0  0  0  0  0  0  0  0  0
   -0.7708    1.8523   -0.1594 H   0  0  0  0  0  0  0  0  0  0  0  0
   -1.7348    3.2140   -0.7277 H   0  0  0  0  0  0  0  0  0  0  0  0
   -1.2661    1.9451   -1.8739 H   0  0  0  0  0  0  0  0  0  0  0  0
   -1.8919   -2.1623   -1.9003 H   0  0  0  0  0  0  0  0  0  0  0  0
   -1.8903   -0.4911   -2.5585 H   0  0  0  0  0  0  0  0  0  0  0  0
    0.4407   -0.6670   -0.2610 H   0  0  0  0  0  0  0  0  0  0  0  0
    6.8184   -1.5955    0.0774 H   0  0  0  0  0  0  0  0  0  0  0  0
    8.3683   -0.9328    1.8916 H   0  0  0  0  0  0  0  0  0  0  0  0
    7.6130    0.7289    3.5990 H   0  0  0  0  0  0  0  0  0  0  0  0
    5.3049    1.6654    3.3991 H   0  0  0  0  0  0  0  0  0  0  0  0
    5.5841   -1.1120   -2.0030 H   0  0  0  0  0  0  0  0  0  0  0  0
   -4.8194   -2.5412    0.8263 H   0  0  0  0  0  0  0  0  0  0  0  0
   -3.8746   -2.7688   -0.6566 H   0  0  0  0  0  0  0  0  0  0  0  0
   -3.0619   -2.4766    0.9073 H   0  0  0  0  0  0  0  0  0  0  0  0
   -6.0741   -0.5738    0.4104 H   0  0  0  0  0  0  0  0  0  0  0  0
  1  2  1  0
  2  3  2  0
  3  4  1  0
  4  5  1  0
  4  6  2  0
  6  7  1  0
  7  8  1  0
  8  9  1  0
  9 10  2  0
  9 11  1  0
 11 12  1  0
 12 13  2  0
 13 14  1  0
 14 15  1  0
 15 16  2  0
 16 17  1  0
 17 18  2  0
 18 19  1  0
 19 20  2  0
 14 21  2  0
 21 22  1  0
  6 23  1  0
 23 24  1  0
 23 25  2  0
 25  2  1  0
 22 12  1  0
 20 15  1  0
  1 26  1  0
  1 27  1  0
  1 28  1  0
  3 29  1  0
  5 30  1  0
  5 31  1  0
  5 32  1  0
  8 33  1  0
  8 34  1  0
 11 35  1  0
 16 36  1  0
 17 37  1  0
 18 38  1  0
 19 39  1  0
 21 40  1  0
 24 41  1  0
 24 42  1  0
 24 43  1  0
 25 44  1  0
M  END
$$$$
