
     RDKit          3D

 46 49  0  0  0  0  0  0  0  0999 V2000
   -4.1301    4.6456   -0.9437 N   0  0  0  0  0  0  0  0  0  0  0  0
   -4.4786    4.1166    0.2454 C   0  0  0  0  0  0  0  0  0  0  0  0
   -5.5664    4.4649    0.9311 N   0  0  0  0  0  0  0  0  0  0  0  0
   -5.5500    3.6796    2.0788 O   0  0  0  0  0  0  0  0  0  0  0  0
   -4.4282    2.8533    2.1100 N   0  0  0  0  0  0  0  0  0  0  0  0
   -3.7894    3.1271    0.9726 C   0  0  0  0  0  0  0  0  0  0  0  0
   -2.5632    2.4944    0.6444 N   0  0  0  0  0  0  0  0  0  0  0  0
   -1.8357    2.8911   -0.4435 N   0  0  0  0  0  0  0  0  0  0  0  0
   -0.6925    2.2319   -0.4666 N   0  0  0  0  0  0  0  0  0  0  0  0
   -0.6740    1.3669    0.5950 C   0  0  0  0  0  0  0  0  0  0  0  0
    0.4690    0.4962    0.8628 C   0  0  0  0  0  0  0  0  0  0  0  0
    0.5917   -0.1250    1.9144 O   0  0  0  0  0  0  0  0  0  0  0  0
    1.3724    0.4772   -0.1893 N   0  0  0  0  0  0  0  0  0  0  0  0
    2.4940   -0.2953   -0.1331 N   0  0  0  0  0  0  0  0  0  0  0  0
    3.2497   -0.2514   -1.1835 C   0  0  0  0  0  0  0  0  0  0  0  0
    4.4974   -1.0347   -1.2768 C   0  0  0  0  0  0  0  0  0  0  0  0
    5.2648   -0.9459   -2.4420 C   0  0  0  0  0  0  0  0  0  0  0  0
    6.4474   -1.6804   -2.5486 C   0  0  0  0  0  0  0  0  0  0  0  0
    6.8596   -2.4987   -1.4958 C   0  0  0  0  0  0  0  0  0  0  0  0
    6.0923   -2.5857   -0.3337 C   0  0  0  0  0  0  0  0  0  0  0  0
    4.9094   -1.8540   -0.2216 C   0  0  0  0  0  0  0  0  0  0  0  0
   -1.8736    1.4674    1.2870 C   0  0  0  0  0  0  0  0  0  0  0  0
   -2.3879    0.6688    2.4328 C   0  0  0  0  0  0  0  0  0  0  0  0
   -3.7096   -0.4944    1.9223 S   0  0  0  0  0  0  0  0  0  0  0  0
   -2.8591   -1.4769    0.7010 C   0  0  0  0  0  0  0  0  0  0  0  0
   -3.3572   -1.5141   -0.6056 C   0  0  0  0  0  0  0  0  0  0  0  0
   -2.7016   -2.2561   -1.5906 C   0  0  0  0  0  0  0  0  0  0  0  0
   -1.5480   -2.9702   -1.2730 C   0  0  0  0  0  0  0  0  0  0  0  0
   -1.0566   -2.9515    0.0307 C   0  0  0  0  0  0  0  0  0  0  0  0
   -1.7163   -2.2155    1.0174 C   0  0  0  0  0  0  0  0  0  0  0  0
   -4.5888    5.4973   -1.2505 H   0  0  0  0  0  0  0  0  0  0  0  0
   -3.1914    4.5159   -1.3176 H   0  0  0  0  0  0  0  0  0  0  0  0
    1.1698    1.0300   -1.0170 H   0  0  0  0  0  0  0  0  0  0  0  0
    2.9921    0.3742   -2.0573 H   0  0  0  0  0  0  0  0  0  0  0  0
    4.9561   -0.3128   -3.2692 H   0  0  0  0  0  0  0  0  0  0  0  0
    7.0494   -1.6160   -3.4517 H   0  0  0  0  0  0  0  0  0  0  0  0
    7.7811   -3.0699   -1.5801 H   0  0  0  0  0  0  0  0  0  0  0  0
    6.4145   -3.2230    0.4862 H   0  0  0  0  0  0  0  0  0  0  0  0
    4.3157   -1.9255    0.6875 H   0  0  0  0  0  0  0  0  0  0  0  0
   -2.7773    1.3188    3.2216 H   0  0  0  0  0  0  0  0  0  0  0  0
   -1.5954    0.0896    2.9124 H   0  0  0  0  0  0  0  0  0  0  0  0
   -4.2569   -0.9628   -0.8685 H   0  0  0  0  0  0  0  0  0  0  0  0
   -3.0932   -2.2772   -2.6043 H   0  0  0  0  0  0  0  0  0  0  0  0
   -1.0344   -3.5464   -2.0382 H   0  0  0  0  0  0  0  0  0  0  0  0
   -0.1560   -3.5060    0.2839 H   0  0  0  0  0  0  0  0  0  0  0  0
   -1.3150   -2.2177    2.0285 H   0  0  0  0  0  0  0  0  0  0  0  0
  1  2  1  0
  2  3  2  0
  3  4  1  0
  4  5  1  0
  5  6  2  0
  6  7  1  0
  7  8  1  0
  8  9  2  0
  9 10  1  0
 10 11  1  0
 11 12  2  0
 11 13  1  0
 13 14  1  0
 14 15  2  3
 15 16  1  0
 16 17  2  0
 17 18  1  0
 18 19  2  0
 19 20  1  0
 20 21  2  0
 10 22  2  0
 22 23  1  0
 23 24  1  0
 24 25  1  0
 25 26  2  0
 26 27  1  0
 27 28  2  0
 28 29  1  0
 29 30  2  0
  6  2  1  0
 22  7  1  0
 30 25  1  0
 21 16  1  0
  1 31  1  0
  1 32  1  0
 13 33  1  0
 15 34  1  0
 17 35  1  0
 18 36  1  0
 19 37  1  0
 20 38  1  0
 21 39  1  0
 23 40  1  0
 23 41  1  0
 26 42  1  0
 27 43  1  0
 28 44  1  0
 29 45  1  0
 30 46  1  0
M  END
$$$$
