
     RDKit          3D

 60 63  0  0  0  0  0  0  0  0999 V2000
   -4.8386    0.6331    4.7540 C   0  0  0  0  0  0  0  0  0  0  0  0
   -4.0777    1.5282    3.9534 O   0  0  0  0  0  0  0  0  0  0  0  0
   -3.4934    1.0152    2.8290 C   0  0  0  0  0  0  0  0  0  0  0  0
   -3.5356   -0.3171    2.4182 C   0  0  0  0  0  0  0  0  0  0  0  0
   -2.9116   -0.7069    1.2293 C   0  0  0  0  0  0  0  0  0  0  0  0
   -2.2286    0.2386    0.4545 C   0  0  0  0  0  0  0  0  0  0  0  0
   -1.6140   -0.1580   -0.7601 N   0  0  0  0  0  0  0  0  0  0  0  0
   -2.1818   -0.9059   -1.7897 C   0  0  0  0  0  0  0  0  0  0  0  0
   -3.6289   -1.2738   -1.9103 C   0  0  0  0  0  0  0  0  0  0  0  0
   -4.5455   -0.0800   -1.9182 C   0  0  0  0  0  0  0  0  0  0  0  0
   -4.3781    1.1535   -2.5299 C   0  0  0  0  0  0  0  0  0  0  0  0
   -5.4886    1.9607   -2.1976 C   0  0  0  0  0  0  0  0  0  0  0  0
   -6.3297    1.1973   -1.4225 C   0  0  0  0  0  0  0  0  0  0  0  0
   -5.7677   -0.0447   -1.2776 N   0  0  0  0  0  0  0  0  0  0  0  0
   -6.4099   -1.1437   -0.5931 C   0  0  0  0  0  0  0  0  0  0  0  0
   -1.2777   -1.1190   -2.7292 N   0  0  0  0  0  0  0  0  0  0  0  0
   -0.1274   -0.4748   -2.3705 N   0  0  0  0  0  0  0  0  0  0  0  0
   -0.3359    0.1159   -1.2157 C   0  0  0  0  0  0  0  0  0  0  0  0
    0.8889    0.9521   -0.3170 S   0  0  0  0  0  0  0  0  0  0  0  0
    2.2098    1.0316   -1.5626 C   0  0  0  0  0  0  0  0  0  0  0  0
    3.4033    1.7634   -0.9751 C   0  0  0  0  0  0  0  0  0  0  0  0
    3.5579    2.9785   -1.0802 O   0  0  0  0  0  0  0  0  0  0  0  0
    4.2947    0.9470   -0.2975 N   0  0  0  0  0  0  0  0  0  0  0  0
    5.5281    1.4830    0.2525 C   0  0  0  0  0  0  0  0  0  0  0  0
    6.2448    0.4993    1.1849 C   0  0  0  0  0  0  0  0  0  0  0  0
    6.7254   -0.7552    0.4875 C   0  0  0  0  0  0  0  0  0  0  0  0
    7.7155   -0.6934   -0.5043 C   0  0  0  0  0  0  0  0  0  0  0  0
    8.1522   -1.8545   -1.1431 C   0  0  0  0  0  0  0  0  0  0  0  0
    7.6125   -3.0891   -0.7898 C   0  0  0  0  0  0  0  0  0  0  0  0
    6.6324   -3.1648    0.1985 C   0  0  0  0  0  0  0  0  0  0  0  0
    6.1924   -2.0049    0.8354 C   0  0  0  0  0  0  0  0  0  0  0  0
   -2.1661    1.5706    0.8720 C   0  0  0  0  0  0  0  0  0  0  0  0
   -2.8030    1.9520    2.0535 C   0  0  0  0  0  0  0  0  0  0  0  0
   -5.2592    1.2030    5.5926 H   0  0  0  0  0  0  0  0  0  0  0  0
   -4.2017   -0.1541    5.1764 H   0  0  0  0  0  0  0  0  0  0  0  0
   -5.6763    0.2093    4.1881 H   0  0  0  0  0  0  0  0  0  0  0  0
   -4.0367   -1.0808    3.0043 H   0  0  0  0  0  0  0  0  0  0  0  0
   -2.9337   -1.7576    0.9523 H   0  0  0  0  0  0  0  0  0  0  0  0
   -3.7752   -1.8105   -2.8593 H   0  0  0  0  0  0  0  0  0  0  0  0
   -3.8930   -1.9853   -1.1201 H   0  0  0  0  0  0  0  0  0  0  0  0
   -3.5312    1.4426   -3.1429 H   0  0  0  0  0  0  0  0  0  0  0  0
   -5.6581    2.9834   -2.5072 H   0  0  0  0  0  0  0  0  0  0  0  0
   -7.2905    1.4293   -0.9857 H   0  0  0  0  0  0  0  0  0  0  0  0
   -5.8535   -1.3460    0.3290 H   0  0  0  0  0  0  0  0  0  0  0  0
   -6.4122   -2.0171   -1.2503 H   0  0  0  0  0  0  0  0  0  0  0  0
   -7.4436   -0.8695   -0.3496 H   0  0  0  0  0  0  0  0  0  0  0  0
    2.5101    0.0238   -1.8732 H   0  0  0  0  0  0  0  0  0  0  0  0
    1.8710    1.5783   -2.4517 H   0  0  0  0  0  0  0  0  0  0  0  0
    4.1996   -0.0608   -0.3763 H   0  0  0  0  0  0  0  0  0  0  0  0
    6.1655    1.7781   -0.5889 H   0  0  0  0  0  0  0  0  0  0  0  0
    5.2830    2.3923    0.8130 H   0  0  0  0  0  0  0  0  0  0  0  0
    5.5720    0.2289    2.0111 H   0  0  0  0  0  0  0  0  0  0  0  0
    7.1117    0.9922    1.6434 H   0  0  0  0  0  0  0  0  0  0  0  0
    8.1546    0.2600   -0.7880 H   0  0  0  0  0  0  0  0  0  0  0  0
    8.9178   -1.7973   -1.9146 H   0  0  0  0  0  0  0  0  0  0  0  0
    7.9573   -3.9930   -1.2858 H   0  0  0  0  0  0  0  0  0  0  0  0
    6.2152   -4.1279    0.4795 H   0  0  0  0  0  0  0  0  0  0  0  0
    5.4322   -2.0846    1.6113 H   0  0  0  0  0  0  0  0  0  0  0  0
   -1.6737    2.3373    0.2763 H   0  0  0  0  0  0  0  0  0  0  0  0
   -2.7697    2.9916    2.3669 H   0  0  0  0  0  0  0  0  0  0  0  0
  1  2  1  0
  2  3  1  0
  3  4  2  0
  4  5  1  0
  5  6  2  0
  6  7  1  0
  7  8  1  0
  8  9  1  0
  9 10  1  0
 10 11  2  0
 11 12  1  0
 12 13  2  0
 13 14  1  0
 14 15  1  0
  8 16  2  0
 16 17  1  0
 17 18  2  0
 18 19  1  0
 19 20  1  0
 20 21  1  0
 21 22  2  0
 21 23  1  0
 23 24  1  0
 24 25  1  0
 25 26  1  0
 26 27  2  0
 27 28  1  0
 28 29  2  0
 29 30  1  0
 30 31  2  0
  6 32  1  0
 32 33  2  0
 33  3  1  0
 18  7  1  0
 31 26  1  0
 14 10  1  0
  1 34  1  0
  1 35  1  0
  1 36  1  0
  4 37  1  0
  5 38  1  0
  9 39  1  0
  9 40  1  0
 11 41  1  0
 12 42  1  0
 13 43  1  0
 15 44  1  0
 15 45  1  0
 15 46  1  0
 20 47  1  0
 20 48  1  0
 23 49  1  0
 24 50  1  0
 24 51  1  0
 25 52  1  0
 25 53  1  0
 27 54  1  0
 28 55  1  0
 29 56  1  0
 30 57  1  0
 31 58  1  0
 32 59  1  0
 33 60  1  0
M  END
$$$$
