
     RDKit          3D

 57 60  0  0  0  0  0  0  0  0999 V2000
    5.4659    2.3572   -1.6275 C   0  0  0  0  0  0  0  0  0  0  0  0
    4.4052    1.4170   -1.1586 C   0  0  0  0  0  0  0  0  0  0  0  0
    3.0597    1.4614   -1.4666 C   0  0  0  0  0  0  0  0  0  0  0  0
    2.4054    0.4482   -0.7342 C   0  0  0  0  0  0  0  0  0  0  0  0
    1.0108    0.1320   -0.7341 C   0  0  0  0  0  0  0  0  0  0  0  0
    0.0578    0.8298   -1.3749 C   0  0  0  0  0  0  0  0  0  0  0  0
   -1.3492    0.4317   -1.3174 C   0  0  0  0  0  0  0  0  0  0  0  0
   -1.8062   -0.4856   -2.2630 C   0  0  0  0  0  0  0  0  0  0  0  0
   -3.1165   -0.9254   -2.2184 C   0  0  0  0  0  0  0  0  0  0  0  0
   -3.9616   -0.4682   -1.2113 C   0  0  0  0  0  0  0  0  0  0  0  0
   -5.2902   -0.9343   -1.1389 C   0  0  0  0  0  0  0  0  0  0  0  0
   -6.1849   -0.5379   -0.1321 C   0  0  0  0  0  0  0  0  0  0  0  0
   -7.5005   -0.9902   -0.0813 N   0  0  0  0  0  0  0  0  0  0  0  0
   -8.2521   -0.8875    1.1743 C   0  0  0  0  0  0  0  0  0  0  0  0
   -7.9726   -2.0179   -1.0164 C   0  0  0  0  0  0  0  0  0  0  0  0
   -5.6795    0.3752    0.8037 C   0  0  0  0  0  0  0  0  0  0  0  0
   -4.3625    0.8609    0.7514 C   0  0  0  0  0  0  0  0  0  0  0  0
   -3.4773    0.4589   -0.2583 C   0  0  0  0  0  0  0  0  0  0  0  0
   -2.1841    0.9128   -0.3522 N   0  0  0  0  0  4  0  0  0  0  0  0
   -1.6922    1.9240    0.6161 C   0  0  0  0  0  0  0  0  0  0  0  0
    3.3729   -0.2332   -0.0103 C   0  0  0  0  0  0  0  0  0  0  0  0
    3.2293   -1.4676    0.8260 C   0  0  0  0  0  0  0  0  0  0  0  0
    4.6065    0.3865   -0.2429 N   0  0  0  0  0  0  0  0  0  0  0  0
    5.8476    0.0406    0.3659 C   0  0  0  0  0  0  0  0  0  0  0  0
    7.0043   -0.0859   -0.4134 C   0  0  0  0  0  0  0  0  0  0  0  0
    8.2167   -0.4255    0.1910 C   0  0  0  0  0  0  0  0  0  0  0  0
    8.2790   -0.6327    1.5686 C   0  0  0  0  0  0  0  0  0  0  0  0
    7.1291   -0.5044    2.3489 C   0  0  0  0  0  0  0  0  0  0  0  0
    5.9126   -0.1698    1.7514 C   0  0  0  0  0  0  0  0  0  0  0  0
    5.0148    3.2785   -2.0145 H   0  0  0  0  0  0  0  0  0  0  0  0
    6.1378    2.6491   -0.8138 H   0  0  0  0  0  0  0  0  0  0  0  0
    6.0486    1.9111   -2.4397 H   0  0  0  0  0  0  0  0  0  0  0  0
    2.6204    2.1791   -2.1469 H   0  0  0  0  0  0  0  0  0  0  0  0
    0.7146   -0.7448   -0.1596 H   0  0  0  0  0  0  0  0  0  0  0  0
    0.2829    1.7091   -1.9707 H   0  0  0  0  0  0  0  0  0  0  0  0
   -1.1394   -0.8649   -3.0368 H   0  0  0  0  0  0  0  0  0  0  0  0
   -3.4648   -1.6389   -2.9641 H   0  0  0  0  0  0  0  0  0  0  0  0
   -5.6206   -1.6402   -1.8993 H   0  0  0  0  0  0  0  0  0  0  0  0
   -7.7124   -1.3717    1.9957 H   0  0  0  0  0  0  0  0  0  0  0  0
   -8.4456    0.1608    1.4292 H   0  0  0  0  0  0  0  0  0  0  0  0
   -9.2313   -1.3718    1.1003 H   0  0  0  0  0  0  0  0  0  0  0  0
   -7.8213   -1.7076   -2.0572 H   0  0  0  0  0  0  0  0  0  0  0  0
   -7.4622   -2.9725   -0.8366 H   0  0  0  0  0  0  0  0  0  0  0  0
   -9.0496   -2.1892   -0.9094 H   0  0  0  0  0  0  0  0  0  0  0  0
   -6.3129    0.7477    1.6074 H   0  0  0  0  0  0  0  0  0  0  0  0
   -4.0767    1.5565    1.5365 H   0  0  0  0  0  0  0  0  0  0  0  0
   -0.7541    2.3773    0.2940 H   0  0  0  0  0  0  0  0  0  0  0  0
   -1.5565    1.4219    1.5799 H   0  0  0  0  0  0  0  0  0  0  0  0
   -2.4284    2.7320    0.6826 H   0  0  0  0  0  0  0  0  0  0  0  0
    4.1360   -2.0813    0.8213 H   0  0  0  0  0  0  0  0  0  0  0  0
    2.4296   -2.1105    0.4421 H   0  0  0  0  0  0  0  0  0  0  0  0
    2.9801   -1.2003    1.8588 H   0  0  0  0  0  0  0  0  0  0  0  0
    6.9771    0.0306   -1.4939 H   0  0  0  0  0  0  0  0  0  0  0  0
    9.1132   -0.5377   -0.4153 H   0  0  0  0  0  0  0  0  0  0  0  0
    9.2252   -0.8947    2.0351 H   0  0  0  0  0  0  0  0  0  0  0  0
    7.1835   -0.6588    3.4258 H   0  0  0  0  0  0  0  0  0  0  0  0
    5.0392   -0.0387    2.3862 H   0  0  0  0  0  0  0  0  0  0  0  0
  1  2  1  0
  2  3  2  0
  3  4  1  0
  4  5  1  0
  5  6  2  3
  6  7  1  0
  7  8  2  0
  8  9  1  0
  9 10  2  0
 10 11  1  0
 11 12  2  0
 12 13  1  0
 13 14  1  0
 13 15  1  0
 12 16  1  0
 16 17  2  0
 17 18  1  0
 18 19  2  0
 19 20  1  0
  4 21  2  0
 21 22  1  0
 21 23  1  0
 23 24  1  0
 24 25  2  0
 25 26  1  0
 26 27  2  0
 27 28  1  0
 28 29  2  0
 23  2  1  0
 29 24  1  0
 19  7  1  0
 18 10  1  0
  1 30  1  0
  1 31  1  0
  1 32  1  0
  3 33  1  0
  5 34  1  0
  6 35  1  0
  8 36  1  0
  9 37  1  0
 11 38  1  0
 14 39  1  0
 14 40  1  0
 14 41  1  0
 15 42  1  0
 15 43  1  0
 15 44  1  0
 16 45  1  0
 17 46  1  0
 20 47  1  0
 20 48  1  0
 20 49  1  0
 22 50  1  0
 22 51  1  0
 22 52  1  0
 25 53  1  0
 26 54  1  0
 27 55  1  0
 28 56  1  0
 29 57  1  0
M  CHG  1  19   1
M  END
$$$$
