
     RDKit          3D

 60 63  0  0  0  0  0  0  0  0999 V2000
   -8.7197    1.4276   -0.3211 C   0  0  0  0  0  0  0  0  0  0  0  0
   -7.5031    1.4109   -0.8826 C   0  0  0  0  0  0  0  0  0  0  0  0
   -6.6313    0.1922   -0.9724 C   0  0  0  0  0  0  0  0  0  0  0  0
   -5.4899    0.3516   -0.0822 N   0  0  0  0  0  0  0  0  0  0  0  0
   -5.5553   -0.1539    1.2095 C   0  0  0  0  0  0  0  0  0  0  0  0
   -6.5251   -0.7662    1.6519 O   0  0  0  0  0  0  0  0  0  0  0  0
   -4.3751    0.0530    2.0972 C   0  0  0  0  0  0  0  0  0  0  0  0
   -4.4376   -0.4452    3.4067 C   0  0  0  0  0  0  0  0  0  0  0  0
   -3.3581   -0.2856    4.2692 C   0  0  0  0  0  0  0  0  0  0  0  0
   -2.2107    0.3643    3.8243 C   0  0  0  0  0  0  0  0  0  0  0  0
   -2.1380    0.8681    2.5208 C   0  0  0  0  0  0  0  0  0  0  0  0
   -3.2227    0.7240    1.6514 C   0  0  0  0  0  0  0  0  0  0  0  0
   -3.2483    1.2169    0.3265 N   0  0  0  0  0  0  0  0  0  0  0  0
   -2.3689    1.9345   -0.4708 C   0  0  0  0  0  0  0  0  0  0  0  0
   -0.8181    2.5600   -0.0210 S   0  0  0  0  0  0  0  0  0  0  0  0
   -0.0663    2.8844   -1.6428 C   0  0  0  0  0  0  0  0  0  0  0  0
    0.5095    1.6161   -2.2562 C   0  0  0  0  0  0  0  0  0  0  0  0
    0.1259    1.2210   -3.3533 O   0  0  0  0  0  0  0  0  0  0  0  0
    1.5093    1.0603   -1.4674 N   0  0  0  0  0  0  0  0  0  0  0  0
    2.3553    0.0027   -1.7769 C   0  0  0  0  0  0  0  0  0  0  0  0
    2.3351   -0.7105   -3.3118 S   0  0  0  0  0  0  0  0  0  0  0  0
    3.5977   -1.7818   -2.9239 C   0  0  0  0  0  0  0  0  0  0  0  0
    4.0824   -2.7369   -3.9642 C   0  0  0  0  0  0  0  0  0  0  0  0
    4.0446   -1.6251   -1.6155 C   0  0  0  0  0  0  0  0  0  0  0  0
    5.1539   -2.4656   -1.0287 C   0  0  0  0  0  0  0  0  0  0  0  0
    6.5144   -1.7956   -1.1396 C   0  0  0  0  0  0  0  0  0  0  0  0
    3.3117   -0.5578   -0.9327 C   0  0  0  0  0  0  0  0  0  0  0  0
    3.4887   -0.0560    0.4402 C   0  0  0  0  0  0  0  0  0  0  0  0
    2.7620    0.8070    0.9289 O   0  0  0  0  0  0  0  0  0  0  0  0
    4.5397   -0.6168    1.1025 O   0  0  0  0  0  0  0  0  0  0  0  0
    4.7838   -0.1022    2.4172 C   0  0  0  0  0  0  0  0  0  0  0  0
    6.1214   -0.6444    2.8860 C   0  0  0  0  0  0  0  0  0  0  0  0
   -2.9044    2.1424   -1.6526 N   0  0  0  0  0  0  0  0  0  0  0  0
   -4.1422    1.5654   -1.6656 N   0  0  0  0  0  0  0  0  0  0  0  0
   -4.3501    1.0236   -0.4881 C   0  0  0  0  0  0  0  0  0  0  0  0
   -9.3108    2.3380   -0.2892 H   0  0  0  0  0  0  0  0  0  0  0  0
   -9.1444    0.5370    0.1328 H   0  0  0  0  0  0  0  0  0  0  0  0
   -7.1095    2.3226   -1.3248 H   0  0  0  0  0  0  0  0  0  0  0  0
   -7.1868   -0.7114   -0.6982 H   0  0  0  0  0  0  0  0  0  0  0  0
   -6.2819    0.0500   -1.9988 H   0  0  0  0  0  0  0  0  0  0  0  0
   -5.3309   -0.9612    3.7601 H   0  0  0  0  0  0  0  0  0  0  0  0
   -3.4157   -0.6692    5.2827 H   0  0  0  0  0  0  0  0  0  0  0  0
   -1.3623    0.4816    4.4958 H   0  0  0  0  0  0  0  0  0  0  0  0
   -1.2107    1.3552    2.2476 H   0  0  0  0  0  0  0  0  0  0  0  0
    0.7557    3.5932   -1.5060 H   0  0  0  0  0  0  0  0  0  0  0  0
   -0.7765    3.3468   -2.3324 H   0  0  0  0  0  0  0  0  0  0  0  0
    1.6175    1.4363   -0.5246 H   0  0  0  0  0  0  0  0  0  0  0  0
    3.8989   -3.7694   -3.6460 H   0  0  0  0  0  0  0  0  0  0  0  0
    3.5916   -2.5882   -4.9257 H   0  0  0  0  0  0  0  0  0  0  0  0
    5.1540   -2.6149   -4.1246 H   0  0  0  0  0  0  0  0  0  0  0  0
    4.9370   -2.7179    0.0138 H   0  0  0  0  0  0  0  0  0  0  0  0
    5.1989   -3.4311   -1.5464 H   0  0  0  0  0  0  0  0  0  0  0  0
    6.7681   -1.5852   -2.1785 H   0  0  0  0  0  0  0  0  0  0  0  0
    6.5386   -0.8511   -0.5953 H   0  0  0  0  0  0  0  0  0  0  0  0
    7.2939   -2.4436   -0.7264 H   0  0  0  0  0  0  0  0  0  0  0  0
    3.9891   -0.4348    3.0902 H   0  0  0  0  0  0  0  0  0  0  0  0
    4.8214    0.9942    2.3981 H   0  0  0  0  0  0  0  0  0  0  0  0
    6.1071   -1.7383    2.9124 H   0  0  0  0  0  0  0  0  0  0  0  0
    6.3658   -0.2705    3.8825 H   0  0  0  0  0  0  0  0  0  0  0  0
    6.9214   -0.3504    2.1931 H   0  0  0  0  0  0  0  0  0  0  0  0
  1  2  2  0
  2  3  1  0
  3  4  1  0
  4  5  1  0
  5  6  2  0
  5  7  1  0
  7  8  2  0
  8  9  1  0
  9 10  2  0
 10 11  1  0
 11 12  2  0
 12 13  1  0
 13 14  1  0
 14 15  1  0
 15 16  1  0
 16 17  1  0
 17 18  2  0
 17 19  1  0
 19 20  1  0
 20 21  1  0
 21 22  1  0
 22 23  1  0
 22 24  2  0
 24 25  1  0
 25 26  1  0
 24 27  1  0
 27 28  1  0
 28 29  2  0
 28 30  1  0
 30 31  1  0
 31 32  1  0
 14 33  2  0
 33 34  1  0
 34 35  2  0
 35  4  1  0
 12  7  1  0
 35 13  1  0
 27 20  2  0
  1 36  1  0
  1 37  1  0
  2 38  1  0
  3 39  1  0
  3 40  1  0
  8 41  1  0
  9 42  1  0
 10 43  1  0
 11 44  1  0
 16 45  1  0
 16 46  1  0
 19 47  1  0
 23 48  1  0
 23 49  1  0
 23 50  1  0
 25 51  1  0
 25 52  1  0
 26 53  1  0
 26 54  1  0
 26 55  1  0
 31 56  1  0
 31 57  1  0
 32 58  1  0
 32 59  1  0
 32 60  1  0
M  END
$$$$
