
     RDKit          3D

 61 66  0  0  0  0  0  0  0  0999 V2000
    9.5326    0.2200    0.0455 F   0  0  0  0  0  0  0  0  0  0  0  0
    8.3343   -0.0659   -0.5403 C   0  0  0  0  0  0  0  0  0  0  0  0
    8.3955   -1.3815   -0.8893 F   0  0  0  0  0  0  0  0  0  0  0  0
    8.3215    0.6332   -1.7113 F   0  0  0  0  0  0  0  0  0  0  0  0
    7.1543    0.2410    0.3480 C   0  0  0  0  0  0  0  0  0  0  0  0
    7.2775    0.1954    1.7443 C   0  0  0  0  0  0  0  0  0  0  0  0
    6.1773    0.4580    2.5616 C   0  0  0  0  0  0  0  0  0  0  0  0
    4.9392    0.7615    1.9941 C   0  0  0  0  0  0  0  0  0  0  0  0
    4.7857    0.7994    0.6016 C   0  0  0  0  0  0  0  0  0  0  0  0
    3.4442    1.1356   -0.0186 C   0  0  0  0  0  0  0  0  0  0  0  0
    2.9773    0.1181   -0.9746 N   0  0  0  0  0  0  0  0  0  0  0  0
    2.6271   -1.1677   -0.3245 C   0  0  0  0  0  0  0  0  0  0  0  0
    1.3608   -1.1343    0.5560 C   0  0  0  0  0  0  0  0  0  0  0  0
    0.2120   -0.5685   -0.1678 N   0  0  0  0  0  0  0  0  0  0  0  0
   -1.0421   -1.1611   -0.0747 C   0  0  0  0  0  0  0  0  0  0  0  0
   -1.0827   -2.4641    0.0699 N   0  0  0  0  0  0  0  0  0  0  0  0
   -2.3079   -3.1544    0.1177 C   0  0  0  0  0  0  0  0  0  0  0  0
   -2.2818   -4.5436    0.2607 C   0  0  0  0  0  0  0  0  0  0  0  0
   -3.4693   -5.2804    0.3010 C   0  0  0  0  0  0  0  0  0  0  0  0
   -4.6994   -4.6304    0.1960 C   0  0  0  0  0  0  0  0  0  0  0  0
   -4.7484   -3.2428    0.0518 C   0  0  0  0  0  0  0  0  0  0  0  0
   -3.5513   -2.5193    0.0134 C   0  0  0  0  0  0  0  0  0  0  0  0
   -3.5075   -1.1206   -0.1084 N   0  0  0  0  0  0  0  0  0  0  0  0
   -4.5478   -0.2260   -0.1977 C   0  0  0  0  0  0  0  0  0  0  0  0
   -4.0276    1.0537   -0.1998 C   0  0  0  0  0  0  0  0  0  0  0  0
   -4.8376    2.2621   -0.2327 C   0  0  0  0  0  0  0  0  0  0  0  0
   -4.4484    3.3891    0.5039 C   0  0  0  0  0  0  0  0  0  0  0  0
   -5.2159    4.5565    0.4751 C   0  0  0  0  0  0  0  0  0  0  0  0
   -6.3772    4.6094   -0.2935 C   0  0  0  0  0  0  0  0  0  0  0  0
   -6.7723    3.4966   -1.0332 C   0  0  0  0  0  0  0  0  0  0  0  0
   -6.0065    2.3282   -1.0034 C   0  0  0  0  0  0  0  0  0  0  0  0
   -2.6153    0.9127   -0.1193 C   0  0  0  0  0  0  0  0  0  0  0  0
   -2.3083   -0.4379   -0.1236 C   0  0  0  0  0  0  0  0  0  0  0  0
    0.4767    0.6720   -0.8969 C   0  0  0  0  0  0  0  0  0  0  0  0
    1.7866    0.5866   -1.7163 C   0  0  0  0  0  0  0  0  0  0  0  0
    5.9017    0.5398   -0.2118 C   0  0  0  0  0  0  0  0  0  0  0  0
    8.2363   -0.0450    2.2018 H   0  0  0  0  0  0  0  0  0  0  0  0
    6.2851    0.4234    3.6435 H   0  0  0  0  0  0  0  0  0  0  0  0
    4.0935    0.9640    2.6486 H   0  0  0  0  0  0  0  0  0  0  0  0
    2.7039    1.3268    0.7681 H   0  0  0  0  0  0  0  0  0  0  0  0
    3.5821    2.0924   -0.5417 H   0  0  0  0  0  0  0  0  0  0  0  0
    3.4706   -1.5482    0.2629 H   0  0  0  0  0  0  0  0  0  0  0  0
    2.4747   -1.9102   -1.1206 H   0  0  0  0  0  0  0  0  0  0  0  0
    1.5380   -0.5304    1.4543 H   0  0  0  0  0  0  0  0  0  0  0  0
    1.1654   -2.1538    0.9081 H   0  0  0  0  0  0  0  0  0  0  0  0
   -1.3243   -5.0522    0.3388 H   0  0  0  0  0  0  0  0  0  0  0  0
   -3.4319   -6.3612    0.4131 H   0  0  0  0  0  0  0  0  0  0  0  0
   -5.6213   -5.2071    0.2285 H   0  0  0  0  0  0  0  0  0  0  0  0
   -5.7175   -2.7611   -0.0237 H   0  0  0  0  0  0  0  0  0  0  0  0
   -5.5754   -0.5601   -0.2181 H   0  0  0  0  0  0  0  0  0  0  0  0
   -3.5528    3.3650    1.1198 H   0  0  0  0  0  0  0  0  0  0  0  0
   -4.9079    5.4225    1.0552 H   0  0  0  0  0  0  0  0  0  0  0  0
   -6.9737    5.5178   -0.3157 H   0  0  0  0  0  0  0  0  0  0  0  0
   -7.6754    3.5370   -1.6370 H   0  0  0  0  0  0  0  0  0  0  0  0
   -6.3263    1.4766   -1.5989 H   0  0  0  0  0  0  0  0  0  0  0  0
   -1.9043    1.7253   -0.0734 H   0  0  0  0  0  0  0  0  0  0  0  0
    0.5278    1.5060   -0.1873 H   0  0  0  0  0  0  0  0  0  0  0  0
   -0.3255    0.8854   -1.6114 H   0  0  0  0  0  0  0  0  0  0  0  0
    1.6241   -0.1056   -2.5546 H   0  0  0  0  0  0  0  0  0  0  0  0
    1.9916    1.5601   -2.1796 H   0  0  0  0  0  0  0  0  0  0  0  0
    5.7859    0.5619   -1.2964 H   0  0  0  0  0  0  0  0  0  0  0  0
  1  2  1  0
  2  3  1  0
  2  4  1  0
  2  5  1  0
  5  6  2  0
  6  7  1  0
  7  8  2  0
  8  9  1  0
  9 10  1  0
 10 11  1  0
 11 12  1  0
 12 13  1  0
 13 14  1  0
 14 15  1  0
 15 16  2  0
 16 17  1  0
 17 18  2  0
 18 19  1  0
 19 20  2  0
 20 21  1  0
 21 22  2  0
 22 23  1  0
 23 24  1  0
 24 25  2  0
 25 26  1  0
 26 27  2  0
 27 28  1  0
 28 29  2  0
 29 30  1  0
 30 31  2  0
 25 32  1  0
 32 33  2  0
 14 34  1  0
 34 35  1  0
  9 36  2  0
 36  5  1  0
 35 11  1  0
 33 15  1  0
 22 17  1  0
 33 23  1  0
 31 26  1  0
  6 37  1  0
  7 38  1  0
  8 39  1  0
 10 40  1  0
 10 41  1  0
 12 42  1  0
 12 43  1  0
 13 44  1  0
 13 45  1  0
 18 46  1  0
 19 47  1  0
 20 48  1  0
 21 49  1  0
 24 50  1  0
 27 51  1  0
 28 52  1  0
 29 53  1  0
 30 54  1  0
 31 55  1  0
 32 56  1  0
 34 57  1  0
 34 58  1  0
 35 59  1  0
 35 60  1  0
 36 61  1  0
M  END
$$$$
