
     RDKit          3D

 42 45  0  0  0  0  0  0  0  0999 V2000
    3.8626   -2.3261    0.4520 O   0  0  0  0  0  0  0  0  0  0  0  0
    3.3333   -1.2666    0.1254 C   0  0  0  0  0  0  0  0  0  0  0  0
    4.0638   -0.0146    0.4204 C   0  0  0  0  0  0  0  0  0  0  0  0
    4.5359    0.1992    1.7219 C   0  0  0  0  0  0  0  0  0  0  0  0
    5.2488    1.3616    2.0223 C   0  0  0  0  0  0  0  0  0  0  0  0
    5.4997    2.2981    1.0194 C   0  0  0  0  0  0  0  0  0  0  0  0
    5.0470    2.0605   -0.2756 C   0  0  0  0  0  0  0  0  0  0  0  0
    5.3030    2.9576   -1.2365 F   0  0  0  0  0  0  0  0  0  0  0  0
    4.3370    0.9090   -0.5910 C   0  0  0  0  0  0  0  0  0  0  0  0
    2.0947   -1.1964   -0.5032 N   0  0  0  0  0  0  0  0  0  0  0  0
    1.2831    0.0205   -0.6347 C   0  0  0  0  0  0  0  0  0  0  0  0
   -0.2283   -0.2463   -0.5271 C   0  0  0  0  0  0  0  0  0  0  0  0
   -0.6940   -1.3143   -1.4190 N   0  0  0  0  0  0  0  0  0  0  0  0
   -2.0021   -1.4540   -1.8958 C   0  0  0  0  0  0  0  0  0  0  0  0
   -2.2503   -2.2422   -2.8112 O   0  0  0  0  0  0  0  0  0  0  0  0
   -3.1028   -0.6610   -1.2996 C   0  0  0  0  0  0  0  0  0  0  0  0
   -4.3967   -0.5265   -1.8696 C   0  0  0  0  0  0  0  0  0  0  0  0
   -5.1221    0.2447   -0.9968 C   0  0  0  0  0  0  0  0  0  0  0  0
   -6.4124    0.6966   -1.0325 N   0  0  0  0  0  0  0  0  0  0  0  0
   -6.7878    1.4081   -0.0092 C   0  0  0  0  0  0  0  0  0  0  0  0
   -5.9440    1.7653    1.1723 C   0  0  0  0  0  0  0  0  0  0  0  0
   -6.6595    2.7909    2.5326 Br  0  0  0  0  0  0  0  0  0  0  0  0
   -4.6916    1.2927    1.1402 C   0  0  0  0  0  0  0  0  0  0  0  0
   -4.2609    0.5294    0.0622 N   0  0  0  0  0  0  0  0  0  0  0  0
   -3.0354   -0.0155   -0.1195 N   0  0  0  0  0  0  0  0  0  0  0  0
    0.3194   -2.2582   -1.8965 C   0  0  0  0  0  0  0  0  0  0  0  0
    1.4526   -2.4558   -0.8856 C   0  0  0  0  0  0  0  0  0  0  0  0
    4.3523   -0.5433    2.4962 H   0  0  0  0  0  0  0  0  0  0  0  0
    5.6146    1.5309    3.0322 H   0  0  0  0  0  0  0  0  0  0  0  0
    6.0564    3.2051    1.2350 H   0  0  0  0  0  0  0  0  0  0  0  0
    4.0215    0.7369   -1.6143 H   0  0  0  0  0  0  0  0  0  0  0  0
    1.5068    0.4369   -1.6240 H   0  0  0  0  0  0  0  0  0  0  0  0
    1.5736    0.7577    0.1197 H   0  0  0  0  0  0  0  0  0  0  0  0
   -0.7574    0.6838   -0.7536 H   0  0  0  0  0  0  0  0  0  0  0  0
   -0.4694   -0.5578    0.4958 H   0  0  0  0  0  0  0  0  0  0  0  0
   -4.7481   -0.9482   -2.8011 H   0  0  0  0  0  0  0  0  0  0  0  0
   -7.8215    1.7934    0.0062 H   0  0  0  0  0  0  0  0  0  0  0  0
   -3.9621    1.4647    1.9194 H   0  0  0  0  0  0  0  0  0  0  0  0
   -0.1438   -3.2242   -2.1248 H   0  0  0  0  0  0  0  0  0  0  0  0
    0.7163   -1.8491   -2.8336 H   0  0  0  0  0  0  0  0  0  0  0  0
    1.0599   -2.9051    0.0350 H   0  0  0  0  0  0  0  0  0  0  0  0
    2.2075   -3.1382   -1.2920 H   0  0  0  0  0  0  0  0  0  0  0  0
  1  2  2  0
  2  3  1  0
  3  4  2  0
  4  5  1  0
  5  6  2  0
  6  7  1  0
  7  8  1  0
  7  9  2  0
  2 10  1  0
 10 11  1  0
 11 12  1  0
 12 13  1  0
 13 14  1  0
 14 15  2  0
 14 16  1  0
 16 17  1  0
 17 18  2  0
 18 19  1  0
 19 20  2  0
 20 21  1  0
 21 22  1  0
 21 23  2  0
 23 24  1  0
 24 25  1  0
 13 26  1  0
 26 27  1  0
  9  3  1  0
 27 10  1  0
 25 16  2  0
 24 18  1  0
  4 28  1  0
  5 29  1  0
  6 30  1  0
  9 31  1  0
 11 32  1  0
 11 33  1  0
 12 34  1  0
 12 35  1  0
 17 36  1  0
 20 37  1  0
 23 38  1  0
 26 39  1  0
 26 40  1  0
 27 41  1  0
 27 42  1  0
M  END
$$$$
