
     RDKit          3D

 40 42  0  0  0  0  0  0  0  0999 V2000
   -2.2381    4.0159    3.3984 C   0  0  0  0  0  0  0  0  0  0  0  0
   -1.4987    3.2016    2.4957 O   0  0  0  0  0  0  0  0  0  0  0  0
   -1.7998    1.8653    2.4806 C   0  0  0  0  0  0  0  0  0  0  0  0
   -2.7753    1.2381    3.2491 C   0  0  0  0  0  0  0  0  0  0  0  0
   -2.9891   -0.1431    3.1569 C   0  0  0  0  0  0  0  0  0  0  0  0
   -2.1998   -0.8827    2.2624 C   0  0  0  0  0  0  0  0  0  0  0  0
   -1.2236   -0.2816    1.4606 C   0  0  0  0  0  0  0  0  0  0  0  0
   -1.0226    1.1108    1.5920 C   0  0  0  0  0  0  0  0  0  0  0  0
   -0.6312   -1.3186    0.6741 C   0  0  0  0  0  0  0  0  0  0  0  0
    0.4029   -1.2439   -0.3086 C   0  0  0  0  0  0  0  0  0  0  0  0
    0.5830   -0.2220   -1.1621 C   0  0  0  0  0  0  0  0  0  0  0  0
    1.6544   -0.1550   -2.1611 C   0  0  0  0  0  0  0  0  0  0  0  0
    2.2703    1.0709   -2.4080 C   0  0  0  0  0  0  0  0  0  0  0  0
    3.2713    1.1601   -3.3684 C   0  0  0  0  0  0  0  0  0  0  0  0
    3.6417    0.0719   -4.0791 N   0  0  0  0  0  4  0  0  0  0  0  0
    4.7119    0.1883   -5.0839 C   0  0  0  0  0  0  0  0  0  0  0  0
    3.0528   -1.1256   -3.8641 C   0  0  0  0  0  0  0  0  0  0  0  0
    2.0488   -1.2612   -2.9117 C   0  0  0  0  0  0  0  0  0  0  0  0
   -1.2239   -2.5081    1.0387 C   0  0  0  0  0  0  0  0  0  0  0  0
   -2.1781   -2.2330    1.9828 N   0  0  0  0  0  0  0  0  0  0  0  0
   -3.0316   -3.2215    2.6050 C   0  0  0  0  0  0  0  0  0  0  0  0
   -1.8732    5.0425    3.2972 H   0  0  0  0  0  0  0  0  0  0  0  0
   -2.0742    3.7052    4.4356 H   0  0  0  0  0  0  0  0  0  0  0  0
   -3.3039    4.0152    3.1474 H   0  0  0  0  0  0  0  0  0  0  0  0
   -3.3948    1.7939    3.9462 H   0  0  0  0  0  0  0  0  0  0  0  0
   -3.7468   -0.6202    3.7713 H   0  0  0  0  0  0  0  0  0  0  0  0
   -0.2540    1.6118    1.0135 H   0  0  0  0  0  0  0  0  0  0  0  0
    1.0673   -2.1042   -0.3516 H   0  0  0  0  0  0  0  0  0  0  0  0
   -0.0916    0.6318   -1.1339 H   0  0  0  0  0  0  0  0  0  0  0  0
    1.9839    1.9596   -1.8476 H   0  0  0  0  0  0  0  0  0  0  0  0
    3.7809    2.0972   -3.5747 H   0  0  0  0  0  0  0  0  0  0  0  0
    4.6966    1.1953   -5.5087 H   0  0  0  0  0  0  0  0  0  0  0  0
    4.5387   -0.5416   -5.8789 H   0  0  0  0  0  0  0  0  0  0  0  0
    5.6597   -0.0063   -4.5761 H   0  0  0  0  0  0  0  0  0  0  0  0
    3.3889   -1.9688   -4.4610 H   0  0  0  0  0  0  0  0  0  0  0  0
    1.5747   -2.2306   -2.7710 H   0  0  0  0  0  0  0  0  0  0  0  0
   -1.0585   -3.5214    0.6959 H   0  0  0  0  0  0  0  0  0  0  0  0
   -2.8431   -3.2124    3.6816 H   0  0  0  0  0  0  0  0  0  0  0  0
   -4.0719   -2.9638    2.3905 H   0  0  0  0  0  0  0  0  0  0  0  0
   -2.8044   -4.2101    2.1980 H   0  0  0  0  0  0  0  0  0  0  0  0
  1  2  1  0
  2  3  1  0
  3  4  2  0
  4  5  1  0
  5  6  2  0
  6  7  1  0
  7  8  2  0
  7  9  1  0
  9 10  1  0
 10 11  2  3
 11 12  1  0
 12 13  2  0
 13 14  1  0
 14 15  2  0
 15 16  1  0
 15 17  1  0
 17 18  2  0
  9 19  2  0
 19 20  1  0
 20 21  1  0
  8  3  1  0
 18 12  1  0
 20  6  1  0
  1 22  1  0
  1 23  1  0
  1 24  1  0
  4 25  1  0
  5 26  1  0
  8 27  1  0
 10 28  1  0
 11 29  1  0
 13 30  1  0
 14 31  1  0
 16 32  1  0
 16 33  1  0
 16 34  1  0
 17 35  1  0
 18 36  1  0
 19 37  1  0
 21 38  1  0
 21 39  1  0
 21 40  1  0
M  CHG  1  15   1
M  END
$$$$
