
     RDKit          3D

 40 42  0  0  0  0  0  0  0  0999 V2000
   -5.2004   -0.5980    2.2880 C   0  0  0  0  0  0  0  0  0  0  0  0
   -5.2148    0.1565    0.9459 C   0  0  0  0  0  0  0  0  0  0  0  0
   -6.4609   -0.2997    0.1565 C   0  0  0  0  0  0  0  0  0  0  0  0
   -5.3426    1.6694    1.2020 C   0  0  0  0  0  0  0  0  0  0  0  0
   -3.9566   -0.1479    0.1459 C   0  0  0  0  0  0  0  0  0  0  0  0
   -3.9440   -0.7179   -1.0445 N   0  0  0  0  0  0  0  0  0  0  0  0
   -2.6667   -0.8784   -1.5463 N   0  0  0  0  0  0  0  0  0  0  0  0
   -1.7605   -0.4250   -0.7193 C   0  0  0  0  0  0  0  0  0  0  0  0
   -0.4012   -0.3907   -0.8254 N   0  0  0  0  0  0  0  0  0  0  0  0
    0.2734   -0.8747   -1.9216 C   0  0  0  0  0  0  0  0  0  0  0  0
   -0.2212   -1.3860   -2.9214 O   0  0  0  0  0  0  0  0  0  0  0  0
    1.7913   -0.7204   -1.7994 C   0  0  0  0  0  0  0  0  0  0  0  0
    2.1477   -0.1054   -0.5610 O   0  0  0  0  0  0  0  0  0  0  0  0
    3.4838    0.0887   -0.3318 C   0  0  0  0  0  0  0  0  0  0  0  0
    3.7789    0.6988    0.9048 C   0  0  0  0  0  0  0  0  0  0  0  0
    5.0987    0.9637    1.2841 C   0  0  0  0  0  0  0  0  0  0  0  0
    6.0960    0.6068    0.4060 C   0  0  0  0  0  0  0  0  0  0  0  0
    5.8140    0.0118   -0.8006 C   0  0  0  0  0  0  0  0  0  0  0  0
    4.5207   -0.2616   -1.2011 C   0  0  0  0  0  0  0  0  0  0  0  0
    6.9377   -0.2604   -1.5182 O   0  0  0  0  0  0  0  0  0  0  0  0
    7.9580    0.2320   -0.6240 C   0  0  0  0  0  0  0  0  0  0  0  0
    7.4293    0.7839    0.5998 O   0  0  0  0  0  0  0  0  0  0  0  0
   -2.3728    0.2318    0.7301 S   0  0  0  0  0  0  0  0  0  0  0  0
   -4.3818   -0.2649    2.9359 H   0  0  0  0  0  0  0  0  0  0  0  0
   -6.1342   -0.4397    2.8398 H   0  0  0  0  0  0  0  0  0  0  0  0
   -5.0812   -1.6773    2.1358 H   0  0  0  0  0  0  0  0  0  0  0  0
   -6.5341    0.2161   -0.8084 H   0  0  0  0  0  0  0  0  0  0  0  0
   -7.3821   -0.0914    0.7130 H   0  0  0  0  0  0  0  0  0  0  0  0
   -6.4340   -1.3771   -0.0460 H   0  0  0  0  0  0  0  0  0  0  0  0
   -6.2813    1.9046    1.7170 H   0  0  0  0  0  0  0  0  0  0  0  0
   -5.3265    2.2340    0.2623 H   0  0  0  0  0  0  0  0  0  0  0  0
   -4.5270    2.0488    1.8278 H   0  0  0  0  0  0  0  0  0  0  0  0
    0.1306    0.0082   -0.0632 H   0  0  0  0  0  0  0  0  0  0  0  0
    2.1192   -0.0964   -2.6388 H   0  0  0  0  0  0  0  0  0  0  0  0
    2.2222   -1.7266   -1.8589 H   0  0  0  0  0  0  0  0  0  0  0  0
    2.9691    0.9698    1.5785 H   0  0  0  0  0  0  0  0  0  0  0  0
    5.3294    1.4325    2.2338 H   0  0  0  0  0  0  0  0  0  0  0  0
    4.3598   -0.7317   -2.1628 H   0  0  0  0  0  0  0  0  0  0  0  0
    8.5312    1.0103   -1.1409 H   0  0  0  0  0  0  0  0  0  0  0  0
    8.6330   -0.5944   -0.3733 H   0  0  0  0  0  0  0  0  0  0  0  0
  1  2  1  0
  2  3  1  0
  2  4  1  0
  2  5  1  0
  5  6  2  0
  6  7  1  0
  7  8  2  0
  8  9  1  0
  9 10  1  0
 10 11  2  0
 10 12  1  0
 12 13  1  0
 13 14  1  0
 14 15  2  0
 15 16  1  0
 16 17  2  0
 17 18  1  0
 18 19  2  0
 18 20  1  0
 20 21  1  0
 21 22  1  0
  8 23  1  0
 23  5  1  0
 19 14  1  0
 22 17  1  0
  1 24  1  0
  1 25  1  0
  1 26  1  0
  3 27  1  0
  3 28  1  0
  3 29  1  0
  4 30  1  0
  4 31  1  0
  4 32  1  0
  9 33  1  0
 12 34  1  0
 12 35  1  0
 15 36  1  0
 16 37  1  0
 19 38  1  0
 21 39  1  0
 21 40  1  0
M  END
$$$$
