
     RDKit          3D

 29 30  0  0  0  0  0  0  0  0999 V2000
    4.3114    2.6148    1.7563 O   0  0  0  0  0  0  0  0  0  0  0  0
    4.5085    1.8807    0.7962 C   0  0  0  0  0  0  0  0  0  0  0  0
    3.5113    0.8857    0.3562 C   0  0  0  0  0  0  0  0  0  0  0  0
    3.7661    0.1169   -0.7841 C   0  0  0  0  0  0  0  0  0  0  0  0
    2.8294   -0.8306   -1.2022 C   0  0  0  0  0  0  0  0  0  0  0  0
    1.6417   -1.0017   -0.4888 C   0  0  0  0  0  0  0  0  0  0  0  0
    1.3874   -0.2134    0.6368 C   0  0  0  0  0  0  0  0  0  0  0  0
    0.2469   -0.3762    1.3892 O   0  0  0  0  0  0  0  0  0  0  0  0
   -0.9488   -0.1843    0.7358 C   0  0  0  0  0  0  0  0  0  0  0  0
   -1.2052    0.9987    0.0310 C   0  0  0  0  0  0  0  0  0  0  0  0
   -2.4563    1.2102   -0.5609 C   0  0  0  0  0  0  0  0  0  0  0  0
   -3.4643    0.2413   -0.4323 C   0  0  0  0  0  0  0  0  0  0  0  0
   -4.7751    0.4692   -1.0556 N   0  0  0  0  0  4  0  0  0  0  0  0
   -4.9584    1.5507   -1.6299 O   0  0  0  0  0  0  0  0  0  0  0  0
   -5.6130   -0.4385   -0.9719 O   0  0  0  0  0  1  0  0  0  0  0  0
   -3.2335   -0.9385    0.2845 C   0  0  0  0  0  0  0  0  0  0  0  0
   -1.9713   -1.1302    0.8609 C   0  0  0  0  0  0  0  0  0  0  0  0
   -1.7326   -2.3605    1.5877 N   0  0  0  0  0  4  0  0  0  0  0  0
   -0.8215   -3.0919    1.1795 O   0  0  0  0  0  0  0  0  0  0  0  0
   -2.4943   -2.6074    2.5313 O   0  0  0  0  0  1  0  0  0  0  0  0
    2.3262    0.7176    1.0766 C   0  0  0  0  0  0  0  0  0  0  0  0
    5.4421    1.9372    0.2118 H   0  0  0  0  0  0  0  0  0  0  0  0
    4.6883    0.2385   -1.3470 H   0  0  0  0  0  0  0  0  0  0  0  0
    3.0288   -1.4454   -2.0772 H   0  0  0  0  0  0  0  0  0  0  0  0
    0.9325   -1.7634   -0.8032 H   0  0  0  0  0  0  0  0  0  0  0  0
   -0.4425    1.7712   -0.0503 H   0  0  0  0  0  0  0  0  0  0  0  0
   -2.6305    2.1368   -1.1070 H   0  0  0  0  0  0  0  0  0  0  0  0
   -4.0092   -1.6944    0.3978 H   0  0  0  0  0  0  0  0  0  0  0  0
    2.1358    1.3069    1.9705 H   0  0  0  0  0  0  0  0  0  0  0  0
  1  2  2  0
  2  3  1  0
  3  4  2  0
  4  5  1  0
  5  6  2  0
  6  7  1  0
  7  8  1  0
  8  9  1  0
  9 10  2  0
 10 11  1  0
 11 12  2  0
 12 13  1  0
 13 14  2  0
 13 15  1  0
 12 16  1  0
 16 17  2  0
 17 18  1  0
 18 19  2  0
 18 20  1  0
  7 21  2  0
 21  3  1  0
 17  9  1  0
  2 22  1  0
  4 23  1  0
  5 24  1  0
  6 25  1  0
 10 26  1  0
 11 27  1  0
 16 28  1  0
 21 29  1  0
M  CHG  4  13   1  15  -1  18   1  20  -1
M  END
$$$$
