
     RDKit          3D

 58 60  0  0  0  0  0  0  0  0999 V2000
    8.7428   -0.4134   -4.0921 C   0  0  0  0  0  0  0  0  0  0  0  0
    7.6478   -0.6615   -3.0977 C   0  0  0  0  0  0  0  0  0  0  0  0
    7.9199   -1.3211   -1.8941 C   0  0  0  0  0  0  0  0  0  0  0  0
    6.8961   -1.5801   -0.9796 C   0  0  0  0  0  0  0  0  0  0  0  0
    5.5799   -1.1957   -1.2609 C   0  0  0  0  0  0  0  0  0  0  0  0
    4.4747   -1.4500   -0.2675 C   0  0  0  0  0  0  0  0  0  0  0  0
    4.2210   -0.2280    0.6183 C   0  0  0  0  0  0  0  0  0  0  0  0
    3.1879   -0.4732    1.6087 N   0  0  0  0  0  0  0  0  0  0  0  0
    1.8494   -0.4276    1.2841 C   0  0  0  0  0  0  0  0  0  0  0  0
    1.4328   -0.1426    0.1670 O   0  0  0  0  0  0  0  0  0  0  0  0
    0.9446   -0.7482    2.4518 C   0  0  0  0  0  0  0  0  0  0  0  0
   -0.5132   -0.7646    2.0161 C   0  0  0  0  0  0  0  0  0  0  0  0
   -1.3627   -1.0439    3.1799 N   0  0  0  0  0  0  0  0  0  0  0  0
   -2.7578   -1.9548    2.9939 S   0  0  0  0  0  6  0  0  0  0  0  0
   -2.3888   -3.2146    2.3889 O   0  0  0  0  0  0  0  0  0  0  0  0
   -3.4700   -1.8862    4.2491 O   0  0  0  0  0  0  0  0  0  0  0  0
   -3.6774   -1.0137    1.8028 C   0  0  0  0  0  0  0  0  0  0  0  0
   -3.8445   -1.4913    0.5045 C   0  0  0  0  0  0  0  0  0  0  0  0
   -4.5756   -0.7377   -0.4211 C   0  0  0  0  0  0  0  0  0  0  0  0
   -5.1495    0.4939   -0.0608 C   0  0  0  0  0  0  0  0  0  0  0  0
   -4.9742    0.9457    1.2471 C   0  0  0  0  0  0  0  0  0  0  0  0
   -4.2476    0.1987    2.1862 C   0  0  0  0  0  0  0  0  0  0  0  0
   -5.5553    2.2357    1.6470 C   0  0  0  0  0  0  0  0  0  0  0  0
   -5.3110    2.6747    2.7688 O   0  0  0  0  0  0  0  0  0  0  0  0
   -6.3375    2.8853    0.7070 N   0  0  0  0  0  0  0  0  0  0  0  0
   -6.9425    4.1485    1.0882 C   0  0  0  0  0  0  0  0  0  0  0  0
   -6.4790    2.4923   -0.6188 C   0  0  0  0  0  0  0  0  0  0  0  0
   -7.0940    3.1870   -1.4316 O   0  0  0  0  0  0  0  0  0  0  0  0
   -5.8866    1.2851   -0.9814 N   0  0  0  0  0  0  0  0  0  0  0  0
   -6.0338    0.8359   -2.3609 C   0  0  0  0  0  0  0  0  0  0  0  0
    5.3060   -0.5462   -2.4708 C   0  0  0  0  0  0  0  0  0  0  0  0
    6.3303   -0.2877   -3.3843 C   0  0  0  0  0  0  0  0  0  0  0  0
    8.5254    0.4703   -4.7017 H   0  0  0  0  0  0  0  0  0  0  0  0
    9.6959   -0.2305   -3.5840 H   0  0  0  0  0  0  0  0  0  0  0  0
    8.8527   -1.2799   -4.7520 H   0  0  0  0  0  0  0  0  0  0  0  0
    8.9341   -1.6372   -1.6600 H   0  0  0  0  0  0  0  0  0  0  0  0
    7.1356   -2.0882   -0.0484 H   0  0  0  0  0  0  0  0  0  0  0  0
    3.5610   -1.7342   -0.8051 H   0  0  0  0  0  0  0  0  0  0  0  0
    4.7283   -2.3172    0.3562 H   0  0  0  0  0  0  0  0  0  0  0  0
    5.1284    0.0496    1.1664 H   0  0  0  0  0  0  0  0  0  0  0  0
    3.9220    0.6341    0.0101 H   0  0  0  0  0  0  0  0  0  0  0  0
    3.4678   -0.8112    2.5211 H   0  0  0  0  0  0  0  0  0  0  0  0
    1.2262   -1.7253    2.8617 H   0  0  0  0  0  0  0  0  0  0  0  0
    1.1017    0.0055    3.2323 H   0  0  0  0  0  0  0  0  0  0  0  0
   -0.6530   -1.5231    1.2380 H   0  0  0  0  0  0  0  0  0  0  0  0
   -0.8008    0.2060    1.5966 H   0  0  0  0  0  0  0  0  0  0  0  0
   -1.4112   -0.3601    3.9343 H   0  0  0  0  0  0  0  0  0  0  0  0
   -3.4128   -2.4438    0.2010 H   0  0  0  0  0  0  0  0  0  0  0  0
   -4.6809   -1.1452   -1.4229 H   0  0  0  0  0  0  0  0  0  0  0  0
   -4.1333    0.5625    3.2059 H   0  0  0  0  0  0  0  0  0  0  0  0
   -7.9405    4.2389    0.6475 H   0  0  0  0  0  0  0  0  0  0  0  0
   -7.0305    4.2452    2.1740 H   0  0  0  0  0  0  0  0  0  0  0  0
   -6.3154    4.9608    0.7070 H   0  0  0  0  0  0  0  0  0  0  0  0
   -5.0438    0.7292   -2.8159 H   0  0  0  0  0  0  0  0  0  0  0  0
   -6.6047    1.5424   -2.9697 H   0  0  0  0  0  0  0  0  0  0  0  0
   -6.5660   -0.1208   -2.3756 H   0  0  0  0  0  0  0  0  0  0  0  0
    4.2897   -0.2390   -2.7109 H   0  0  0  0  0  0  0  0  0  0  0  0
    6.0917    0.2102   -4.3213 H   0  0  0  0  0  0  0  0  0  0  0  0
  1  2  1  0
  2  3  2  0
  3  4  1  0
  4  5  2  0
  5  6  1  0
  6  7  1  0
  7  8  1  0
  8  9  1  0
  9 10  2  0
  9 11  1  0
 11 12  1  0
 12 13  1  0
 13 14  1  0
 14 15  2  0
 14 16  2  0
 14 17  1  0
 17 18  2  0
 18 19  1  0
 19 20  2  0
 20 21  1  0
 21 22  2  0
 21 23  1  0
 23 24  2  0
 23 25  1  0
 25 26  1  0
 25 27  1  0
 27 28  2  0
 27 29  1  0
 29 30  1  0
  5 31  1  0
 31 32  2  0
 32  2  1  0
 22 17  1  0
 29 20  1  0
  1 33  1  0
  1 34  1  0
  1 35  1  0
  3 36  1  0
  4 37  1  0
  6 38  1  0
  6 39  1  0
  7 40  1  0
  7 41  1  0
  8 42  1  0
 11 43  1  0
 11 44  1  0
 12 45  1  0
 12 46  1  0
 13 47  1  0
 18 48  1  0
 19 49  1  0
 22 50  1  0
 26 51  1  0
 26 52  1  0
 26 53  1  0
 30 54  1  0
 30 55  1  0
 30 56  1  0
 31 57  1  0
 32 58  1  0
M  END
$$$$
