
     RDKit          3D

 26 27  0  0  0  0  0  0  0  0999 V2000
    0.8359    1.9817    1.6243 O   0  0  0  0  0  0  0  0  0  0  0  0
    1.3127    1.2555    0.7578 C   0  0  0  0  0  0  0  0  0  0  0  0
    2.6969    1.4973    0.1963 C   0  0  0  0  0  0  0  0  0  0  0  0
    3.5202    0.2164    0.2394 C   0  0  0  0  0  0  0  0  0  0  0  0
    2.8284   -0.9213   -0.5007 C   0  0  0  0  0  0  0  0  0  0  0  0
    1.4418   -1.1529    0.0590 C   0  0  0  0  0  0  0  0  0  0  0  0
    1.0588   -2.2724    0.3851 O   0  0  0  0  0  0  0  0  0  0  0  0
    0.5905    0.0679    0.2059 C   0  0  0  0  0  0  0  0  0  0  0  0
   -0.6843    0.1257   -0.2387 C   0  0  0  0  0  0  0  0  0  0  0  0
   -1.4554   -1.2260   -1.0422 S   0  0  0  0  0  0  0  0  0  0  0  0
   -2.8194   -1.5264    0.1213 C   0  0  0  0  0  0  0  0  0  0  0  0
   -3.4014   -0.2830    0.7955 C   0  0  0  0  0  0  0  0  0  0  0  0
   -3.3214    0.9842   -0.0458 C   0  0  0  0  0  0  0  0  0  0  0  0
   -1.6202    1.6123   -0.2031 S   0  0  0  0  0  0  0  0  0  0  0  0
    3.1903    2.2721    0.7930 H   0  0  0  0  0  0  0  0  0  0  0  0
    2.5966    1.8746   -0.8274 H   0  0  0  0  0  0  0  0  0  0  0  0
    4.5076    0.3965   -0.1996 H   0  0  0  0  0  0  0  0  0  0  0  0
    3.6773   -0.0766    1.2855 H   0  0  0  0  0  0  0  0  0  0  0  0
    3.4128   -1.8412   -0.3894 H   0  0  0  0  0  0  0  0  0  0  0  0
    2.7401   -0.7067   -1.5714 H   0  0  0  0  0  0  0  0  0  0  0  0
   -3.6092   -2.0275   -0.4492 H   0  0  0  0  0  0  0  0  0  0  0  0
   -2.4849   -2.2366    0.8852 H   0  0  0  0  0  0  0  0  0  0  0  0
   -2.9039   -0.1219    1.7614 H   0  0  0  0  0  0  0  0  0  0  0  0
   -4.4515   -0.4869    1.0400 H   0  0  0  0  0  0  0  0  0  0  0  0
   -3.9137    1.7740    0.4280 H   0  0  0  0  0  0  0  0  0  0  0  0
   -3.7445    0.8210   -1.0432 H   0  0  0  0  0  0  0  0  0  0  0  0
  1  2  2  0
  2  3  1  0
  3  4  1  0
  4  5  1  0
  5  6  1  0
  6  7  2  0
  6  8  1  0
  8  9  2  3
  9 10  1  0
 10 11  1  0
 11 12  1  0
 12 13  1  0
 13 14  1  0
  8  2  1  0
 14  9  1  0
  3 15  1  0
  3 16  1  0
  4 17  1  0
  4 18  1  0
  5 19  1  0
  5 20  1  0
 11 21  1  0
 11 22  1  0
 12 23  1  0
 12 24  1  0
 13 25  1  0
 13 26  1  0
M  END
$$$$
