
     RDKit          3D

 36 37  0  0  0  0  0  0  0  0999 V2000
    4.1928    1.8782    0.3828 C   0  0  0  0  0  0  0  0  0  0  0  0
    4.6037    0.4736    0.2215 N   0  0  0  0  0  0  0  0  0  0  0  0
    4.6250   -0.2775    1.4875 C   0  0  0  0  0  0  0  0  0  0  0  0
    4.0362   -0.3463   -1.1560 S   0  0  0  0  0  6  0  0  0  0  0  0
    4.6130   -1.6741   -1.1660 O   0  0  0  0  0  0  0  0  0  0  0  0
    4.1663    0.5342   -2.2975 O   0  0  0  0  0  0  0  0  0  0  0  0
    2.2921   -0.5304   -0.8265 C   0  0  0  0  0  0  0  0  0  0  0  0
    1.3971    0.4493   -1.2679 C   0  0  0  0  0  0  0  0  0  0  0  0
    0.0276    0.2902   -1.0365 C   0  0  0  0  0  0  0  0  0  0  0  0
   -0.4490   -0.8535   -0.3774 C   0  0  0  0  0  0  0  0  0  0  0  0
   -1.8966   -1.0733   -0.1108 C   0  0  0  0  0  0  0  0  0  0  0  0
   -2.3518   -2.1029    0.3601 O   0  0  0  0  0  0  0  0  0  0  0  0
   -2.6146    0.0250   -0.4413 O   0  0  0  0  0  0  0  0  0  0  0  0
   -4.0199   -0.1063   -0.2692 C   0  0  0  0  0  0  0  0  0  0  0  0
   -4.4477    0.0653    1.1704 C   0  0  0  0  0  0  0  0  0  0  0  0
   -5.8717    0.5303    1.0163 C   0  0  0  0  0  0  0  0  0  0  0  0
   -5.8793    1.3396   -0.1607 O   0  0  0  0  0  0  0  0  0  0  0  0
   -4.7853    1.0264   -0.9239 C   0  0  0  0  0  0  0  0  0  0  0  0
   -4.5027    1.5847   -1.9720 O   0  0  0  0  0  0  0  0  0  0  0  0
    0.4569   -1.8420    0.0366 C   0  0  0  0  0  0  0  0  0  0  0  0
    1.8264   -1.6860   -0.1921 C   0  0  0  0  0  0  0  0  0  0  0  0
    4.2831    2.4290   -0.5573 H   0  0  0  0  0  0  0  0  0  0  0  0
    4.8517    2.3731    1.1039 H   0  0  0  0  0  0  0  0  0  0  0  0
    3.1650    1.9476    0.7496 H   0  0  0  0  0  0  0  0  0  0  0  0
    3.6236   -0.3448    1.9217 H   0  0  0  0  0  0  0  0  0  0  0  0
    5.0299   -1.2832    1.3459 H   0  0  0  0  0  0  0  0  0  0  0  0
    5.2796    0.2290    2.2044 H   0  0  0  0  0  0  0  0  0  0  0  0
    1.7542    1.3298   -1.7992 H   0  0  0  0  0  0  0  0  0  0  0  0
   -0.6567    1.0593   -1.3905 H   0  0  0  0  0  0  0  0  0  0  0  0
   -4.3920   -1.0411   -0.7086 H   0  0  0  0  0  0  0  0  0  0  0  0
   -4.3627   -0.8481    1.7654 H   0  0  0  0  0  0  0  0  0  0  0  0
   -3.8380    0.8352    1.6599 H   0  0  0  0  0  0  0  0  0  0  0  0
   -6.2016    1.1244    1.8733 H   0  0  0  0  0  0  0  0  0  0  0  0
   -6.5685   -0.3023    0.8719 H   0  0  0  0  0  0  0  0  0  0  0  0
    0.0973   -2.7439    0.5304 H   0  0  0  0  0  0  0  0  0  0  0  0
    2.5168   -2.4687    0.1165 H   0  0  0  0  0  0  0  0  0  0  0  0
  1  2  1  0
  2  3  1  0
  2  4  1  0
  4  5  2  0
  4  6  2  0
  4  7  1  0
  7  8  2  0
  8  9  1  0
  9 10  2  0
 10 11  1  0
 11 12  2  0
 11 13  1  0
 13 14  1  0
 14 15  1  0
 15 16  1  0
 16 17  1  0
 17 18  1  0
 18 19  2  0
 10 20  1  0
 20 21  2  0
 21  7  1  0
 18 14  1  0
  1 22  1  0
  1 23  1  0
  1 24  1  0
  3 25  1  0
  3 26  1  0
  3 27  1  0
  8 28  1  0
  9 29  1  0
 14 30  1  0
 15 31  1  0
 15 32  1  0
 16 33  1  0
 16 34  1  0
 20 35  1  0
 21 36  1  0
M  END
$$$$
