
     RDKit          3D

 42 44  0  0  0  0  0  0  0  0999 V2000
    3.4721    1.8416   -0.3873 O   0  0  0  0  0  0  0  0  0  0  0  0
    2.3848    1.3547   -0.0908 C   0  0  0  0  0  0  0  0  0  0  0  0
    2.1694    0.0589    0.3343 N   0  0  0  0  0  0  0  0  0  0  0  0
    3.1171   -0.9870    0.4668 C   0  0  0  0  0  0  0  0  0  0  0  0
    4.4897   -0.8025    0.2720 C   0  0  0  0  0  0  0  0  0  0  0  0
    5.3861   -1.8672    0.4239 C   0  0  0  0  0  0  0  0  0  0  0  0
    4.9238   -3.1336    0.7702 C   0  0  0  0  0  0  0  0  0  0  0  0
    3.5604   -3.3398    0.9617 C   0  0  0  0  0  0  0  0  0  0  0  0
    2.6642   -2.2763    0.8091 C   0  0  0  0  0  0  0  0  0  0  0  0
    0.9786   -2.6182    1.0160 Cl  0  0  0  0  0  0  0  0  0  0  0  0
    1.1800    2.2405   -0.1900 C   0  0  0  0  0  0  0  0  0  0  0  0
    1.3992    3.6190   -0.0197 C   0  0  0  0  0  0  0  0  0  0  0  0
    0.3507    4.5312   -0.1393 C   0  0  0  0  0  0  0  0  0  0  0  0
   -0.9271    4.0798   -0.4521 C   0  0  0  0  0  0  0  0  0  0  0  0
   -1.1615    2.7161   -0.6367 C   0  0  0  0  0  0  0  0  0  0  0  0
   -0.1189    1.7863   -0.4871 C   0  0  0  0  0  0  0  0  0  0  0  0
   -0.3059    0.4314   -0.6797 O   0  0  0  0  0  0  0  0  0  0  0  0
   -1.5522   -0.1054   -0.4664 C   0  0  0  0  0  0  0  0  0  0  0  0
   -2.1646   -0.6806   -1.5837 C   0  0  0  0  0  0  0  0  0  0  0  0
   -3.4264   -1.2733   -1.4735 C   0  0  0  0  0  0  0  0  0  0  0  0
   -4.0919   -1.3224   -0.2380 C   0  0  0  0  0  0  0  0  0  0  0  0
   -5.4667   -1.9429   -0.1292 C   0  0  0  0  0  0  0  0  0  0  0  0
   -6.4553   -1.0330   -0.3390 F   0  0  0  0  0  0  0  0  0  0  0  0
   -5.7057   -2.4867    1.0952 F   0  0  0  0  0  0  0  0  0  0  0  0
   -5.6730   -2.9415   -1.0302 F   0  0  0  0  0  0  0  0  0  0  0  0
   -3.4700   -0.7604    0.8893 C   0  0  0  0  0  0  0  0  0  0  0  0
   -2.1997   -0.1708    0.7730 C   0  0  0  0  0  0  0  0  0  0  0  0
   -1.5789    0.3578    1.9806 N   0  0  0  0  0  4  0  0  0  0  0  0
   -0.3626    0.1830    2.1299 O   0  0  0  0  0  0  0  0  0  0  0  0
   -2.3204    0.9369    2.7861 O   0  0  0  0  0  1  0  0  0  0  0  0
    1.2195   -0.1917    0.5989 H   0  0  0  0  0  0  0  0  0  0  0  0
    4.9034    0.1661    0.0094 H   0  0  0  0  0  0  0  0  0  0  0  0
    6.4497   -1.6980    0.2719 H   0  0  0  0  0  0  0  0  0  0  0  0
    5.6240   -3.9566    0.8876 H   0  0  0  0  0  0  0  0  0  0  0  0
    3.1999   -4.3307    1.2246 H   0  0  0  0  0  0  0  0  0  0  0  0
    2.3993    3.9878    0.2053 H   0  0  0  0  0  0  0  0  0  0  0  0
    0.5381    5.5937   -0.0021 H   0  0  0  0  0  0  0  0  0  0  0  0
   -1.7410    4.7927   -0.5636 H   0  0  0  0  0  0  0  0  0  0  0  0
   -2.1651    2.4061   -0.9147 H   0  0  0  0  0  0  0  0  0  0  0  0
   -1.6601   -0.6624   -2.5486 H   0  0  0  0  0  0  0  0  0  0  0  0
   -3.8889   -1.7053   -2.3619 H   0  0  0  0  0  0  0  0  0  0  0  0
   -3.9738   -0.7972    1.8563 H   0  0  0  0  0  0  0  0  0  0  0  0
  1  2  2  0
  2  3  1  0
  3  4  1  0
  4  5  2  0
  5  6  1  0
  6  7  2  0
  7  8  1  0
  8  9  2  0
  9 10  1  0
  2 11  1  0
 11 12  2  0
 12 13  1  0
 13 14  2  0
 14 15  1  0
 15 16  2  0
 16 17  1  0
 17 18  1  0
 18 19  2  0
 19 20  1  0
 20 21  2  0
 21 22  1  0
 22 23  1  0
 22 24  1  0
 22 25  1  0
 21 26  1  0
 26 27  2  0
 27 28  1  0
 28 29  2  0
 28 30  1  0
  9  4  1  0
 16 11  1  0
 27 18  1  0
  3 31  1  0
  5 32  1  0
  6 33  1  0
  7 34  1  0
  8 35  1  0
 12 36  1  0
 13 37  1  0
 14 38  1  0
 15 39  1  0
 19 40  1  0
 20 41  1  0
 26 42  1  0
M  CHG  2  28   1  30  -1
M  END
$$$$
