
     RDKit          3D

 59 62  0  0  0  0  0  0  0  0999 V2000
   -6.0192    4.3303   -2.4489 C   0  0  0  0  0  0  0  0  0  0  0  0
   -6.0684    2.9111   -2.4602 O   0  0  0  0  0  0  0  0  0  0  0  0
   -5.3859    2.2630   -1.4679 C   0  0  0  0  0  0  0  0  0  0  0  0
   -4.6245    2.8664   -0.4665 C   0  0  0  0  0  0  0  0  0  0  0  0
   -3.9710    2.0804    0.4904 C   0  0  0  0  0  0  0  0  0  0  0  0
   -4.0691    0.6858    0.4515 C   0  0  0  0  0  0  0  0  0  0  0  0
   -3.3833   -0.1207    1.4476 C   0  0  0  0  0  0  0  0  0  0  0  0
   -3.7078   -0.3514    2.7715 C   0  0  0  0  0  0  0  0  0  0  0  0
   -2.7736   -1.1382    3.3875 N   0  0  0  0  0  0  0  0  0  0  0  0
   -1.8838   -1.3978    2.4599 C   0  0  0  0  0  0  0  0  0  0  0  0
   -0.4551   -2.3327    2.7566 S   0  0  0  0  0  0  0  0  0  0  0  0
    0.4524   -1.1398    3.7860 C   0  0  0  0  0  0  0  0  0  0  0  0
    1.0932   -0.1002    2.8784 C   0  0  0  0  0  0  0  0  0  0  0  0
    0.5464    0.9782    2.6704 O   0  0  0  0  0  0  0  0  0  0  0  0
    2.2760   -0.5458    2.3268 N   0  0  0  0  0  0  0  0  0  0  0  0
    3.0624    0.1025    1.4119 C   0  0  0  0  0  0  0  0  0  0  0  0
    4.1343   -0.4768    0.9261 N   0  0  0  0  0  0  0  0  0  0  0  0
    4.7605    0.3557    0.0055 C   0  0  0  0  0  0  0  0  0  0  0  0
    6.0200   -0.1205   -0.7057 C   0  0  0  0  0  0  0  0  0  0  0  0
    6.4325   -1.5323   -0.2380 C   0  0  0  0  0  0  0  0  0  0  0  0
    7.1914    0.8389   -0.4150 C   0  0  0  0  0  0  0  0  0  0  0  0
    5.7775   -0.1747   -2.2273 C   0  0  0  0  0  0  0  0  0  0  0  0
    4.1218    1.5732   -0.1688 C   0  0  0  0  0  0  0  0  0  0  0  0
    2.7321    1.6619    0.8254 S   0  0  0  0  0  0  0  0  0  0  0  0
   -2.1994   -0.8163    1.2557 N   0  0  0  0  0  0  0  0  0  0  0  0
   -1.3960   -0.8158    0.0415 C   0  0  0  0  0  0  0  0  0  0  0  0
   -1.7140   -1.9819   -0.8212 C   0  0  0  0  0  0  0  0  0  0  0  0
   -1.3588   -3.3163   -0.7984 C   0  0  0  0  0  0  0  0  0  0  0  0
   -1.9767   -3.9158   -1.9248 C   0  0  0  0  0  0  0  0  0  0  0  0
   -2.6651   -2.9138   -2.5644 C   0  0  0  0  0  0  0  0  0  0  0  0
   -2.5048   -1.7370   -1.9074 O   0  0  0  0  0  0  0  0  0  0  0  0
   -4.8383    0.0833   -0.5458 C   0  0  0  0  0  0  0  0  0  0  0  0
   -5.4887    0.8695   -1.5006 C   0  0  0  0  0  0  0  0  0  0  0  0
   -4.9957    4.6938   -2.5899 H   0  0  0  0  0  0  0  0  0  0  0  0
   -6.4574    4.7332   -1.5290 H   0  0  0  0  0  0  0  0  0  0  0  0
   -6.6197    4.6941   -3.2891 H   0  0  0  0  0  0  0  0  0  0  0  0
   -4.5154    3.9434   -0.3990 H   0  0  0  0  0  0  0  0  0  0  0  0
   -3.3789    2.5657    1.2642 H   0  0  0  0  0  0  0  0  0  0  0  0
   -4.5694    0.0225    3.3106 H   0  0  0  0  0  0  0  0  0  0  0  0
    1.2285   -1.6690    4.3498 H   0  0  0  0  0  0  0  0  0  0  0  0
   -0.2005   -0.6456    4.5129 H   0  0  0  0  0  0  0  0  0  0  0  0
    2.6131   -1.4748    2.5397 H   0  0  0  0  0  0  0  0  0  0  0  0
    7.3361   -1.8739   -0.7570 H   0  0  0  0  0  0  0  0  0  0  0  0
    5.6421   -2.2664   -0.4346 H   0  0  0  0  0  0  0  0  0  0  0  0
    6.6423   -1.5521    0.8382 H   0  0  0  0  0  0  0  0  0  0  0  0
    7.3840    0.9137    0.6622 H   0  0  0  0  0  0  0  0  0  0  0  0
    6.9852    1.8510   -0.7821 H   0  0  0  0  0  0  0  0  0  0  0  0
    8.1145    0.4961   -0.8970 H   0  0  0  0  0  0  0  0  0  0  0  0
    5.5333    0.8132   -2.6338 H   0  0  0  0  0  0  0  0  0  0  0  0
    4.9437   -0.8433   -2.4700 H   0  0  0  0  0  0  0  0  0  0  0  0
    6.6644   -0.5383   -2.7588 H   0  0  0  0  0  0  0  0  0  0  0  0
    4.3966    2.3920   -0.8182 H   0  0  0  0  0  0  0  0  0  0  0  0
   -1.5679    0.1277   -0.4871 H   0  0  0  0  0  0  0  0  0  0  0  0
   -0.3374   -0.8208    0.3206 H   0  0  0  0  0  0  0  0  0  0  0  0
   -0.7322   -3.8013   -0.0606 H   0  0  0  0  0  0  0  0  0  0  0  0
   -1.9278   -4.9503   -2.2326 H   0  0  0  0  0  0  0  0  0  0  0  0
   -3.2836   -2.8747   -3.4516 H   0  0  0  0  0  0  0  0  0  0  0  0
   -4.9344   -0.9992   -0.5921 H   0  0  0  0  0  0  0  0  0  0  0  0
   -6.0805    0.3911   -2.2771 H   0  0  0  0  0  0  0  0  0  0  0  0
  1  2  1  0
  2  3  1  0
  3  4  2  0
  4  5  1  0
  5  6  2  0
  6  7  1  0
  7  8  2  0
  8  9  1  0
  9 10  2  0
 10 11  1  0
 11 12  1  0
 12 13  1  0
 13 14  2  0
 13 15  1  0
 15 16  1  0
 16 17  2  0
 17 18  1  0
 18 19  1  0
 19 20  1  0
 19 21  1  0
 19 22  1  0
 18 23  2  0
 23 24  1  0
 10 25  1  0
 25 26  1  0
 26 27  1  0
 27 28  2  0
 28 29  1  0
 29 30  2  0
 30 31  1  0
  6 32  1  0
 32 33  2  0
 33  3  1  0
 25  7  1  0
 31 27  1  0
 24 16  1  0
  1 34  1  0
  1 35  1  0
  1 36  1  0
  4 37  1  0
  5 38  1  0
  8 39  1  0
 12 40  1  0
 12 41  1  0
 15 42  1  0
 20 43  1  0
 20 44  1  0
 20 45  1  0
 21 46  1  0
 21 47  1  0
 21 48  1  0
 22 49  1  0
 22 50  1  0
 22 51  1  0
 23 52  1  0
 26 53  1  0
 26 54  1  0
 28 55  1  0
 29 56  1  0
 30 57  1  0
 32 58  1  0
 33 59  1  0
M  END
$$$$
