
     RDKit          3D

 37 40  0  0  0  0  0  0  0  0999 V2000
   -1.3741   -2.9349    0.8133 C   0  0  0  0  0  0  0  0  0  0  0  0
   -0.5658   -1.7362    0.4020 C   0  0  0  0  0  0  0  0  0  0  0  0
    0.8385   -1.8067    0.4080 C   0  0  0  0  0  0  0  0  0  0  0  0
    1.6091   -0.6892    0.0209 C   0  0  0  0  0  0  0  0  0  0  0  0
    0.9492    0.4785   -0.3671 C   0  0  0  0  0  0  0  0  0  0  0  0
    1.9283    1.3923   -0.6892 N   0  0  0  0  0  0  0  0  0  0  0  0
    3.1848    0.8608   -0.5243 C   0  0  0  0  0  0  0  0  0  0  0  0
    4.4438    1.4359   -0.7346 C   0  0  0  0  0  0  0  0  0  0  0  0
    5.5672    0.6438   -0.4800 C   0  0  0  0  0  0  0  0  0  0  0  0
    5.4336   -0.6688   -0.0336 C   0  0  0  0  0  0  0  0  0  0  0  0
    4.1663   -1.2265    0.1711 C   0  0  0  0  0  0  0  0  0  0  0  0
    3.0170   -0.4479   -0.0785 C   0  0  0  0  0  0  0  0  0  0  0  0
   -0.4525    0.5727   -0.3811 C   0  0  0  0  0  0  0  0  0  0  0  0
   -1.1969   -0.5473    0.0120 C   0  0  0  0  0  0  0  0  0  0  0  0
   -2.5674   -0.5507    0.0188 O   0  0  0  0  0  0  0  0  0  0  0  0
   -3.2767    0.6801   -0.2264 C   0  0  0  0  0  0  0  0  0  0  0  0
   -3.9561    1.0695    1.0918 C   0  0  0  0  0  0  0  0  0  0  0  0
   -4.3431    0.3480   -1.2772 C   0  0  0  0  0  0  0  0  0  0  0  0
   -2.4384    1.8374   -0.7210 C   0  0  0  0  0  0  0  0  0  0  0  0
   -1.1055    1.7975   -0.8015 C   0  0  0  0  0  0  0  0  0  0  0  0
   -0.7315   -3.7756    1.0954 H   0  0  0  0  0  0  0  0  0  0  0  0
   -2.0094   -3.2659   -0.0147 H   0  0  0  0  0  0  0  0  0  0  0  0
   -2.0001   -2.6916    1.6778 H   0  0  0  0  0  0  0  0  0  0  0  0
    1.3418   -2.7213    0.7093 H   0  0  0  0  0  0  0  0  0  0  0  0
    1.7498    2.3332   -1.0045 H   0  0  0  0  0  0  0  0  0  0  0  0
    4.5519    2.4580   -1.0825 H   0  0  0  0  0  0  0  0  0  0  0  0
    6.5605    1.0597   -0.6333 H   0  0  0  0  0  0  0  0  0  0  0  0
    6.3204   -1.2677    0.1584 H   0  0  0  0  0  0  0  0  0  0  0  0
    4.0711   -2.2505    0.5193 H   0  0  0  0  0  0  0  0  0  0  0  0
   -4.5814    0.2501    1.4656 H   0  0  0  0  0  0  0  0  0  0  0  0
   -3.2112    1.2681    1.8718 H   0  0  0  0  0  0  0  0  0  0  0  0
   -4.5845    1.9602    0.9823 H   0  0  0  0  0  0  0  0  0  0  0  0
   -4.9729   -0.4857   -0.9447 H   0  0  0  0  0  0  0  0  0  0  0  0
   -4.9919    1.2047   -1.4903 H   0  0  0  0  0  0  0  0  0  0  0  0
   -3.8778    0.0263   -2.2169 H   0  0  0  0  0  0  0  0  0  0  0  0
   -2.9601    2.7450   -1.0131 H   0  0  0  0  0  0  0  0  0  0  0  0
   -0.5361    2.6451   -1.1576 H   0  0  0  0  0  0  0  0  0  0  0  0
  1  2  1  0
  2  3  2  0
  3  4  1  0
  4  5  2  0
  5  6  1  0
  6  7  1  0
  7  8  2  0
  8  9  1  0
  9 10  2  0
 10 11  1  0
 11 12  2  0
  5 13  1  0
 13 14  2  0
 14 15  1  0
 15 16  1  0
 16 17  1  0
 16 18  1  0
 16 19  1  0
 19 20  2  0
 14  2  1  0
 12  4  1  0
 20 13  1  0
 12  7  1  0
  1 21  1  0
  1 22  1  0
  1 23  1  0
  3 24  1  0
  6 25  1  0
  8 26  1  0
  9 27  1  0
 10 28  1  0
 11 29  1  0
 17 30  1  0
 17 31  1  0
 17 32  1  0
 18 33  1  0
 18 34  1  0
 18 35  1  0
 19 36  1  0
 20 37  1  0
M  END
$$$$
