
     RDKit          3D

 42 46  0  0  0  0  0  0  0  0999 V2000
    1.1972   -0.1202   -2.0397 O   0  0  0  0  0  0  0  0  0  0  0  0
    1.8234   -0.2037   -0.9875 C   0  0  0  0  0  0  0  0  0  0  0  0
    1.2772   -0.4045    0.2594 O   0  0  0  0  0  0  0  0  0  0  0  0
   -0.1281   -0.3754    0.2693 C   0  0  0  0  0  0  0  0  0  0  0  0
   -0.8500    0.7746    0.2731 C   0  0  0  0  0  0  0  0  0  0  0  0
   -0.1683    2.0853    0.2506 C   0  0  0  0  0  0  0  0  0  0  0  0
    0.6352    2.4947    1.3248 C   0  0  0  0  0  0  0  0  0  0  0  0
    1.3012    3.7212    1.2830 C   0  0  0  0  0  0  0  0  0  0  0  0
    1.1683    4.5495    0.1700 C   0  0  0  0  0  0  0  0  0  0  0  0
    0.3688    4.1541   -0.9010 C   0  0  0  0  0  0  0  0  0  0  0  0
   -0.2970    2.9274   -0.8615 C   0  0  0  0  0  0  0  0  0  0  0  0
   -2.3696    0.7244    0.2772 C   0  0  0  0  0  0  0  0  0  0  0  0
   -3.0529    1.7451    0.2521 O   0  0  0  0  0  0  0  0  0  0  0  0
   -2.9192   -0.5300    0.3193 N   0  0  0  0  0  0  0  0  0  0  0  0
   -2.1600   -1.6839    0.3566 C   0  0  0  0  0  0  0  0  0  0  0  0
   -2.9563   -2.8158    0.4138 C   0  0  0  0  0  0  0  0  0  0  0  0
   -2.3556   -4.0574    0.4644 C   0  0  0  0  0  0  0  0  0  0  0  0
   -0.9523   -4.1139    0.4570 C   0  0  0  0  0  0  0  0  0  0  0  0
   -0.1687   -2.9396    0.3973 C   0  0  0  0  0  0  0  0  0  0  0  0
   -0.7820   -1.6879    0.3431 C   0  0  0  0  0  0  0  0  0  0  0  0
   -4.4038   -2.4287    0.4097 C   0  0  0  0  0  0  0  0  0  0  0  0
   -4.3375   -0.8818    0.3458 C   0  0  0  0  0  0  0  0  0  0  0  0
    3.2625   -0.1250   -0.8817 C   0  0  0  0  0  0  0  0  0  0  0  0
    4.2253    0.0947   -1.8510 C   0  0  0  0  0  0  0  0  0  0  0  0
    5.4800    0.0741   -1.1963 C   0  0  0  0  0  0  0  0  0  0  0  0
    5.2131   -0.1582    0.1315 C   0  0  0  0  0  0  0  0  0  0  0  0
    3.8769   -0.2829    0.3344 O   0  0  0  0  0  0  0  0  0  0  0  0
    0.7480    1.8608    2.2016 H   0  0  0  0  0  0  0  0  0  0  0  0
    1.9209    4.0309    2.1204 H   0  0  0  0  0  0  0  0  0  0  0  0
    1.6834    5.5060    0.1389 H   0  0  0  0  0  0  0  0  0  0  0  0
    0.2590    4.8008   -1.7675 H   0  0  0  0  0  0  0  0  0  0  0  0
   -0.9175    2.6319   -1.7053 H   0  0  0  0  0  0  0  0  0  0  0  0
   -2.9447   -4.9679    0.5097 H   0  0  0  0  0  0  0  0  0  0  0  0
   -0.4563   -5.0821    0.4975 H   0  0  0  0  0  0  0  0  0  0  0  0
    0.9146   -3.0281    0.3954 H   0  0  0  0  0  0  0  0  0  0  0  0
   -4.9206   -2.8342   -0.4654 H   0  0  0  0  0  0  0  0  0  0  0  0
   -4.9060   -2.7607    1.3235 H   0  0  0  0  0  0  0  0  0  0  0  0
   -4.8064   -0.4151    1.2190 H   0  0  0  0  0  0  0  0  0  0  0  0
   -4.8208   -0.4879   -0.5550 H   0  0  0  0  0  0  0  0  0  0  0  0
    4.0303    0.2537   -2.9034 H   0  0  0  0  0  0  0  0  0  0  0  0
    6.4575    0.2131   -1.6367 H   0  0  0  0  0  0  0  0  0  0  0  0
    5.8309   -0.2573    1.0136 H   0  0  0  0  0  0  0  0  0  0  0  0
  1  2  2  0
  2  3  1  0
  3  4  1  0
  4  5  2  0
  5  6  1  0
  6  7  2  0
  7  8  1  0
  8  9  2  0
  9 10  1  0
 10 11  2  0
  5 12  1  0
 12 13  2  0
 12 14  1  0
 14 15  1  0
 15 16  2  0
 16 17  1  0
 17 18  2  0
 18 19  1  0
 19 20  2  0
 16 21  1  0
 21 22  1  0
  2 23  1  0
 23 24  2  0
 24 25  1  0
 25 26  2  0
 26 27  1  0
 20  4  1  0
 27 23  1  0
 11  6  1  0
 22 14  1  0
 20 15  1  0
  7 28  1  0
  8 29  1  0
  9 30  1  0
 10 31  1  0
 11 32  1  0
 17 33  1  0
 18 34  1  0
 19 35  1  0
 21 36  1  0
 21 37  1  0
 22 38  1  0
 22 39  1  0
 24 40  1  0
 25 41  1  0
 26 42  1  0
M  END
$$$$
