
     RDKit          3D

 40 42  0  0  0  0  0  0  0  0999 V2000
   -2.1765   -0.4474   -2.6831 O   0  0  0  0  0  0  0  0  0  0  0  0
   -1.8937   -0.2381   -1.5095 C   0  0  0  0  0  0  0  0  0  0  0  0
   -2.7785   -0.1386   -0.4534 N   0  0  0  0  0  0  0  0  0  0  0  0
   -4.1968   -0.1928   -0.4817 C   0  0  0  0  0  0  0  0  0  0  0  0
   -4.9139   -0.3069   -1.6793 C   0  0  0  0  0  0  0  0  0  0  0  0
   -6.3116   -0.3599   -1.6816 C   0  0  0  0  0  0  0  0  0  0  0  0
   -7.0186   -0.2972   -0.4866 C   0  0  0  0  0  0  0  0  0  0  0  0
   -6.3282   -0.1781    0.7176 C   0  0  0  0  0  0  0  0  0  0  0  0
   -4.9226   -0.1235    0.7321 C   0  0  0  0  0  0  0  0  0  0  0  0
   -4.2076    0.0155    2.0315 C   0  0  0  0  0  0  0  0  0  0  0  0
   -3.0004    0.1298    2.1684 O   0  0  0  0  0  0  0  0  0  0  0  0
   -5.0256    0.0027    3.0989 O   0  0  0  0  0  0  0  0  0  0  0  0
   -0.4520   -0.1033   -1.1433 C   0  0  0  0  0  0  0  0  0  0  0  0
    0.4975   -0.7937   -1.9034 C   0  0  0  0  0  0  0  0  0  0  0  0
    1.8618   -0.6974   -1.5999 C   0  0  0  0  0  0  0  0  0  0  0  0
    2.2977    0.0984   -0.5396 C   0  0  0  0  0  0  0  0  0  0  0  0
    3.6490    0.2556   -0.1637 N   0  0  0  0  0  0  0  0  0  0  0  0
    4.7665   -0.3527   -0.7230 C   0  0  0  0  0  0  0  0  0  0  0  0
    4.7222   -1.1576   -1.6479 O   0  0  0  0  0  0  0  0  0  0  0  0
    6.0285    0.0428   -0.1062 C   0  0  0  0  0  0  0  0  0  0  0  0
    6.3716    0.9407    0.8934 C   0  0  0  0  0  0  0  0  0  0  0  0
    7.7805    0.8744    1.0451 C   0  0  0  0  0  0  0  0  0  0  0  0
    8.2200   -0.0550    0.1339 C   0  0  0  0  0  0  0  0  0  0  0  0
   10.0322   -0.5696   -0.1250 Br  0  0  0  0  0  0  0  0  0  0  0  0
    7.1729   -0.5607   -0.5644 O   0  0  0  0  0  0  0  0  0  0  0  0
    1.3445    0.8046    0.2080 C   0  0  0  0  0  0  0  0  0  0  0  0
   -0.0205    0.7099   -0.0903 C   0  0  0  0  0  0  0  0  0  0  0  0
   -2.3765   -0.0753    0.4818 H   0  0  0  0  0  0  0  0  0  0  0  0
   -4.4130   -0.3568   -2.6415 H   0  0  0  0  0  0  0  0  0  0  0  0
   -6.8433   -0.4511   -2.6263 H   0  0  0  0  0  0  0  0  0  0  0  0
   -8.1050   -0.3394   -0.4927 H   0  0  0  0  0  0  0  0  0  0  0  0
   -6.8984   -0.1268    1.6423 H   0  0  0  0  0  0  0  0  0  0  0  0
   -4.4298    0.0901    3.8720 H   0  0  0  0  0  0  0  0  0  0  0  0
    0.1813   -1.4161   -2.7392 H   0  0  0  0  0  0  0  0  0  0  0  0
    2.5525   -1.2578   -2.2227 H   0  0  0  0  0  0  0  0  0  0  0  0
    3.8114    0.8754    0.6152 H   0  0  0  0  0  0  0  0  0  0  0  0
    5.7027    1.5780    1.4534 H   0  0  0  0  0  0  0  0  0  0  0  0
    8.3970    1.4367    1.7326 H   0  0  0  0  0  0  0  0  0  0  0  0
    1.6465    1.4454    1.0329 H   0  0  0  0  0  0  0  0  0  0  0  0
   -0.7239    1.2957    0.4959 H   0  0  0  0  0  0  0  0  0  0  0  0
  1  2  2  0
  2  3  1  0
  3  4  1  0
  4  5  2  0
  5  6  1  0
  6  7  2  0
  7  8  1  0
  8  9  2  0
  9 10  1  0
 10 11  2  0
 10 12  1  0
  2 13  1  0
 13 14  2  0
 14 15  1  0
 15 16  2  0
 16 17  1  0
 17 18  1  0
 18 19  2  0
 18 20  1  0
 20 21  2  0
 21 22  1  0
 22 23  2  0
 23 24  1  0
 23 25  1  0
 16 26  1  0
 26 27  2  0
  9  4  1  0
 27 13  1  0
 25 20  1  0
  3 28  1  0
  5 29  1  0
  6 30  1  0
  7 31  1  0
  8 32  1  0
 12 33  1  0
 14 34  1  0
 15 35  1  0
 17 36  1  0
 21 37  1  0
 22 38  1  0
 26 39  1  0
 27 40  1  0
M  END
$$$$
