
     RDKit          3D

 27 27  0  0  0  0  0  0  0  0999 V2000
   -5.6397   -1.4739    0.9841 C   0  0  0  0  0  0  0  0  0  0  0  0
   -4.9441   -0.3313    0.9100 C   0  0  0  0  0  0  0  0  0  0  0  0
   -4.1925    0.1266   -0.2964 C   0  0  0  0  0  0  0  0  0  0  0  0
   -2.7927    0.0794    0.0194 N   0  0  0  0  0  0  0  0  0  0  0  0
   -1.8636    0.7158   -0.7712 C   0  0  0  0  0  0  0  0  0  0  0  0
   -2.1046    1.4918   -1.6852 O   0  0  0  0  0  0  0  0  0  0  0  0
   -0.4030    0.3593   -0.4280 C   0  0  0  0  0  0  0  0  0  0  0  0
   -0.1790   -0.5022    0.4124 O   0  0  0  0  0  0  0  0  0  0  0  0
    0.4982    1.0967   -1.1760 N   0  0  0  0  0  0  0  0  0  0  0  0
    1.8576    0.9225   -1.2395 N   0  0  0  0  0  0  0  0  0  0  0  0
    2.4811    0.3910   -0.2357 C   0  0  0  0  0  0  0  0  0  0  0  0
    3.9008    0.1559   -0.2763 C   0  0  0  0  0  0  0  0  0  0  0  0
    4.7567   -0.3867    0.6638 C   0  0  0  0  0  0  0  0  0  0  0  0
    6.0511   -0.3775    0.0888 C   0  0  0  0  0  0  0  0  0  0  0  0
    5.9078    0.1686   -1.1642 C   0  0  0  0  0  0  0  0  0  0  0  0
    4.6110    0.4948   -1.3950 O   0  0  0  0  0  0  0  0  0  0  0  0
   -5.6955   -2.1657    0.1489 H   0  0  0  0  0  0  0  0  0  0  0  0
   -6.1724   -1.7415    1.8919 H   0  0  0  0  0  0  0  0  0  0  0  0
   -4.9274    0.3318    1.7726 H   0  0  0  0  0  0  0  0  0  0  0  0
   -4.3662   -0.5179   -1.1648 H   0  0  0  0  0  0  0  0  0  0  0  0
   -4.4798    1.1479   -0.5669 H   0  0  0  0  0  0  0  0  0  0  0  0
   -2.4368   -0.6631    0.6160 H   0  0  0  0  0  0  0  0  0  0  0  0
    0.1022    1.6520   -1.9361 H   0  0  0  0  0  0  0  0  0  0  0  0
    1.9857    0.1154    0.7083 H   0  0  0  0  0  0  0  0  0  0  0  0
    4.4783   -0.7466    1.6446 H   0  0  0  0  0  0  0  0  0  0  0  0
    6.9741   -0.7258    0.5306 H   0  0  0  0  0  0  0  0  0  0  0  0
    6.5927    0.3827   -1.9729 H   0  0  0  0  0  0  0  0  0  0  0  0
  1  2  2  0
  2  3  1  0
  3  4  1  0
  4  5  1  0
  5  6  2  0
  5  7  1  0
  7  8  2  0
  7  9  1  0
  9 10  1  0
 10 11  2  3
 11 12  1  0
 12 13  2  0
 13 14  1  0
 14 15  2  0
 15 16  1  0
 16 12  1  0
  1 17  1  0
  1 18  1  0
  2 19  1  0
  3 20  1  0
  3 21  1  0
  4 22  1  0
  9 23  1  0
 11 24  1  0
 13 25  1  0
 14 26  1  0
 15 27  1  0
M  END
$$$$
