
     RDKit          3D

 61 66  0  0  0  0  0  0  0  0999 V2000
    8.6091   -2.0415    2.2890 F   0  0  0  0  0  0  0  0  0  0  0  0
    8.2734   -1.3073    1.1905 C   0  0  0  0  0  0  0  0  0  0  0  0
    8.1121   -2.2077    0.1782 F   0  0  0  0  0  0  0  0  0  0  0  0
    9.3821   -0.5826    0.8707 F   0  0  0  0  0  0  0  0  0  0  0  0
    7.0617   -0.4350    1.4074 C   0  0  0  0  0  0  0  0  0  0  0  0
    6.8147    0.1372    2.6640 C   0  0  0  0  0  0  0  0  0  0  0  0
    5.7086    0.9634    2.8590 C   0  0  0  0  0  0  0  0  0  0  0  0
    4.8407    1.2303    1.8002 C   0  0  0  0  0  0  0  0  0  0  0  0
    5.0629    0.6707    0.5338 C   0  0  0  0  0  0  0  0  0  0  0  0
    4.1344    0.9821   -0.6241 C   0  0  0  0  0  0  0  0  0  0  0  0
    2.7159    0.7754   -0.3072 N   0  0  0  0  0  0  0  0  0  0  0  0
    1.8511    1.3807   -1.3360 C   0  0  0  0  0  0  0  0  0  0  0  0
    0.3558    1.0406   -1.1463 C   0  0  0  0  0  0  0  0  0  0  0  0
    0.0989   -0.4153   -1.0694 N   0  0  0  0  0  0  0  0  0  0  0  0
   -0.9861   -0.8417   -0.2982 C   0  0  0  0  0  0  0  0  0  0  0  0
   -0.7865   -1.7411    0.6331 N   0  0  0  0  0  0  0  0  0  0  0  0
   -1.8384   -2.1620    1.4686 C   0  0  0  0  0  0  0  0  0  0  0  0
   -1.5620   -3.1100    2.4559 C   0  0  0  0  0  0  0  0  0  0  0  0
   -2.5653   -3.5513    3.3227 C   0  0  0  0  0  0  0  0  0  0  0  0
   -3.8605   -3.0451    3.2092 C   0  0  0  0  0  0  0  0  0  0  0  0
   -4.1595   -2.0973    2.2295 C   0  0  0  0  0  0  0  0  0  0  0  0
   -3.1446   -1.6647    1.3704 C   0  0  0  0  0  0  0  0  0  0  0  0
   -3.3593   -0.7247    0.3496 N   0  0  0  0  0  0  0  0  0  0  0  0
   -4.5190   -0.0816   -0.0133 C   0  0  0  0  0  0  0  0  0  0  0  0
   -4.2605    0.6943   -1.1275 C   0  0  0  0  0  0  0  0  0  0  0  0
   -5.2668    1.4831   -1.8222 C   0  0  0  0  0  0  0  0  0  0  0  0
   -6.2704    2.1597   -1.1156 C   0  0  0  0  0  0  0  0  0  0  0  0
   -7.2267    2.9205   -1.7937 C   0  0  0  0  0  0  0  0  0  0  0  0
   -7.1890    3.0124   -3.1837 C   0  0  0  0  0  0  0  0  0  0  0  0
   -6.1950    2.3457   -3.8970 C   0  0  0  0  0  0  0  0  0  0  0  0
   -5.2369    1.5863   -3.2195 C   0  0  0  0  0  0  0  0  0  0  0  0
   -2.8852    0.5108   -1.4352 C   0  0  0  0  0  0  0  0  0  0  0  0
   -2.3367   -0.3302   -0.4836 C   0  0  0  0  0  0  0  0  0  0  0  0
    1.3296   -1.2287   -1.0601 C   0  0  0  0  0  0  0  0  0  0  0  0
    2.3734   -0.6509   -0.0819 C   0  0  0  0  0  0  0  0  0  0  0  0
    6.1845   -0.1524    0.3460 C   0  0  0  0  0  0  0  0  0  0  0  0
    7.4855   -0.0614    3.4988 H   0  0  0  0  0  0  0  0  0  0  0  0
    5.5192    1.4012    3.8359 H   0  0  0  0  0  0  0  0  0  0  0  0
    3.9776    1.8735    1.9649 H   0  0  0  0  0  0  0  0  0  0  0  0
    4.3093    2.0356   -0.8817 H   0  0  0  0  0  0  0  0  0  0  0  0
    4.4139    0.3943   -1.5087 H   0  0  0  0  0  0  0  0  0  0  0  0
    2.1640    1.0570   -2.3379 H   0  0  0  0  0  0  0  0  0  0  0  0
    1.9615    2.4714   -1.3051 H   0  0  0  0  0  0  0  0  0  0  0  0
    0.0011    1.5299   -0.2300 H   0  0  0  0  0  0  0  0  0  0  0  0
   -0.1981    1.4626   -1.9900 H   0  0  0  0  0  0  0  0  0  0  0  0
   -0.5531   -3.5031    2.5488 H   0  0  0  0  0  0  0  0  0  0  0  0
   -2.3330   -4.2891    4.0868 H   0  0  0  0  0  0  0  0  0  0  0  0
   -4.6383   -3.3918    3.8854 H   0  0  0  0  0  0  0  0  0  0  0  0
   -5.1743   -1.7212    2.1592 H   0  0  0  0  0  0  0  0  0  0  0  0
   -5.4429   -0.2451    0.5219 H   0  0  0  0  0  0  0  0  0  0  0  0
   -6.3103    2.1129   -0.0301 H   0  0  0  0  0  0  0  0  0  0  0  0
   -7.9985    3.4431   -1.2348 H   0  0  0  0  0  0  0  0  0  0  0  0
   -7.9335    3.6035   -3.7108 H   0  0  0  0  0  0  0  0  0  0  0  0
   -6.1655    2.4132   -4.9814 H   0  0  0  0  0  0  0  0  0  0  0  0
   -4.4768    1.0645   -3.7957 H   0  0  0  0  0  0  0  0  0  0  0  0
   -2.3544    0.9533   -2.2661 H   0  0  0  0  0  0  0  0  0  0  0  0
    1.1237   -2.2778   -0.8171 H   0  0  0  0  0  0  0  0  0  0  0  0
    1.7444   -1.2435   -2.0763 H   0  0  0  0  0  0  0  0  0  0  0  0
    3.2600   -1.2950   -0.1158 H   0  0  0  0  0  0  0  0  0  0  0  0
    1.9790   -0.7262    0.9390 H   0  0  0  0  0  0  0  0  0  0  0  0
    6.3788   -0.5843   -0.6356 H   0  0  0  0  0  0  0  0  0  0  0  0
  1  2  1  0
  2  3  1  0
  2  4  1  0
  2  5  1  0
  5  6  2  0
  6  7  1  0
  7  8  2  0
  8  9  1  0
  9 10  1  0
 10 11  1  0
 11 12  1  0
 12 13  1  0
 13 14  1  0
 14 15  1  0
 15 16  2  0
 16 17  1  0
 17 18  2  0
 18 19  1  0
 19 20  2  0
 20 21  1  0
 21 22  2  0
 22 23  1  0
 23 24  1  0
 24 25  2  0
 25 26  1  0
 26 27  2  0
 27 28  1  0
 28 29  2  0
 29 30  1  0
 30 31  2  0
 25 32  1  0
 32 33  2  0
 14 34  1  0
 34 35  1  0
  9 36  2  0
 36  5  1  0
 35 11  1  0
 33 15  1  0
 22 17  1  0
 33 23  1  0
 31 26  1  0
  6 37  1  0
  7 38  1  0
  8 39  1  0
 10 40  1  0
 10 41  1  0
 12 42  1  0
 12 43  1  0
 13 44  1  0
 13 45  1  0
 18 46  1  0
 19 47  1  0
 20 48  1  0
 21 49  1  0
 24 50  1  0
 27 51  1  0
 28 52  1  0
 29 53  1  0
 30 54  1  0
 31 55  1  0
 32 56  1  0
 34 57  1  0
 34 58  1  0
 35 59  1  0
 35 60  1  0
 36 61  1  0
M  END
$$$$
