
     RDKit          3D

 71 72  0  0  0  0  0  0  0  0999 V2000
   -4.8969   -4.7761    3.2645 C   0  0  0  0  0  0  0  0  0  0  0  0
   -4.3433   -4.0802    2.1548 O   0  0  0  0  0  0  0  0  0  0  0  0
   -3.4484   -3.0719    2.3996 C   0  0  0  0  0  0  0  0  0  0  0  0
   -2.8675   -2.8805    3.6602 C   0  0  0  0  0  0  0  0  0  0  0  0
   -1.9726   -1.8389    3.8841 C   0  0  0  0  0  0  0  0  0  0  0  0
   -1.6237   -0.9860    2.8432 C   0  0  0  0  0  0  0  0  0  0  0  0
   -2.1513   -1.1624    1.5521 C   0  0  0  0  0  0  0  0  0  0  0  0
   -1.7397   -0.2385    0.3950 C   0  0  0  0  0  0  0  0  0  0  0  0
   -1.4207    1.2431    0.7763 C   0  0  0  0  0  0  0  0  0  0  0  0
   -1.9327    1.8036    1.7443 O   0  0  0  0  0  0  0  0  0  0  0  0
   -0.6306    1.9177   -0.1394 N   0  0  0  0  0  0  0  0  0  0  0  0
   -0.2523    3.3370   -0.0418 C   0  0  0  0  0  0  0  0  0  0  0  0
   -1.4964    4.2425    0.0193 C   0  0  0  0  0  0  0  0  0  0  0  0
    0.5320    3.7121   -1.3132 C   0  0  0  0  0  0  0  0  0  0  0  0
    0.6354    3.5862    1.1868 C   0  0  0  0  0  0  0  0  0  0  0  0
   -0.7798   -0.8678   -0.5734 N   0  0  0  0  0  0  0  0  0  0  0  0
    0.5242   -1.2578   -0.2782 C   0  0  0  0  0  0  0  0  0  0  0  0
    1.2315   -1.8532   -1.0965 O   0  0  0  0  0  0  0  0  0  0  0  0
    1.1050   -0.9412    1.0884 C   0  0  0  0  0  0  0  0  0  0  0  0
    2.6338   -0.9671    1.0588 C   0  0  0  0  0  0  0  0  0  0  0  0
    3.1932    0.1240    0.1608 C   0  0  0  0  0  0  0  0  0  0  0  0
    2.4784    0.9906   -0.3360 O   0  0  0  0  0  0  0  0  0  0  0  0
    4.5579    0.0275    0.0205 N   0  0  0  0  0  0  0  0  0  0  0  0
    5.3402    0.8698   -0.7376 C   0  0  0  0  0  0  0  0  0  0  0  0
    4.9641    1.9747   -1.5327 C   0  0  0  0  0  0  0  0  0  0  0  0
    6.1431    2.4387   -2.0593 C   0  0  0  0  0  0  0  0  0  0  0  0
    6.5027    3.5442   -2.9626 C   0  0  0  0  0  0  0  0  0  0  0  0
    7.1661    1.6665   -1.6078 O   0  0  0  0  0  0  0  0  0  0  0  0
    6.6634    0.6768   -0.7829 N   0  0  0  0  0  0  0  0  0  0  0  0
   -1.3162   -1.1718   -1.9255 C   0  0  0  0  0  0  0  0  0  0  0  0
   -0.6334   -0.3459   -3.0200 C   0  0  0  0  0  0  0  0  0  0  0  0
   -1.2940   -2.6665   -2.2696 C   0  0  0  0  0  0  0  0  0  0  0  0
   -3.0918   -2.2087    1.3375 C   0  0  0  0  0  0  0  0  0  0  0  0
   -3.5968   -2.2334    0.0591 O   0  0  0  0  0  0  0  0  0  0  0  0
   -4.5184   -3.2385   -0.3311 C   0  0  0  0  0  0  0  0  0  0  0  0
   -4.1420   -5.4047    3.7479 H   0  0  0  0  0  0  0  0  0  0  0  0
   -5.6827   -5.4359    2.8844 H   0  0  0  0  0  0  0  0  0  0  0  0
   -5.3612   -4.0869    3.9779 H   0  0  0  0  0  0  0  0  0  0  0  0
   -3.0972   -3.5268    4.5011 H   0  0  0  0  0  0  0  0  0  0  0  0
   -1.5498   -1.6882    4.8746 H   0  0  0  0  0  0  0  0  0  0  0  0
   -0.9381   -0.1702    3.0620 H   0  0  0  0  0  0  0  0  0  0  0  0
   -2.6706   -0.0623   -0.1637 H   0  0  0  0  0  0  0  0  0  0  0  0
   -0.0326    1.3306   -0.7155 H   0  0  0  0  0  0  0  0  0  0  0  0
   -2.0546    4.1176    0.9517 H   0  0  0  0  0  0  0  0  0  0  0  0
   -2.1832    4.0245   -0.8061 H   0  0  0  0  0  0  0  0  0  0  0  0
   -1.2187    5.3003   -0.0460 H   0  0  0  0  0  0  0  0  0  0  0  0
   -0.0714    3.5389   -2.2118 H   0  0  0  0  0  0  0  0  0  0  0  0
    0.8295    4.7669   -1.3045 H   0  0  0  0  0  0  0  0  0  0  0  0
    1.4418    3.1126   -1.4152 H   0  0  0  0  0  0  0  0  0  0  0  0
    0.1061    3.3720    2.1215 H   0  0  0  0  0  0  0  0  0  0  0  0
    0.9667    4.6301    1.2296 H   0  0  0  0  0  0  0  0  0  0  0  0
    1.5273    2.9518    1.1680 H   0  0  0  0  0  0  0  0  0  0  0  0
    0.7777    0.0378    1.4385 H   0  0  0  0  0  0  0  0  0  0  0  0
    0.7646   -1.7144    1.7825 H   0  0  0  0  0  0  0  0  0  0  0  0
    3.0161   -0.7998    2.0725 H   0  0  0  0  0  0  0  0  0  0  0  0
    3.0023   -1.9401    0.7131 H   0  0  0  0  0  0  0  0  0  0  0  0
    5.0747   -0.7130    0.4766 H   0  0  0  0  0  0  0  0  0  0  0  0
    3.9766    2.3747   -1.7061 H   0  0  0  0  0  0  0  0  0  0  0  0
    7.1273    4.2762   -2.4415 H   0  0  0  0  0  0  0  0  0  0  0  0
    5.6087    4.0594   -3.3285 H   0  0  0  0  0  0  0  0  0  0  0  0
    7.0562    3.1710   -3.8289 H   0  0  0  0  0  0  0  0  0  0  0  0
   -2.3716   -0.8772   -1.9431 H   0  0  0  0  0  0  0  0  0  0  0  0
   -0.7355    0.7253   -2.8203 H   0  0  0  0  0  0  0  0  0  0  0  0
    0.4346   -0.5668   -3.1045 H   0  0  0  0  0  0  0  0  0  0  0  0
   -1.0916   -0.5467   -3.9940 H   0  0  0  0  0  0  0  0  0  0  0  0
   -1.9395   -2.8641   -3.1326 H   0  0  0  0  0  0  0  0  0  0  0  0
   -0.2939   -3.0215   -2.5347 H   0  0  0  0  0  0  0  0  0  0  0  0
   -1.6510   -3.2749   -1.4339 H   0  0  0  0  0  0  0  0  0  0  0  0
   -4.7562   -3.0704   -1.3862 H   0  0  0  0  0  0  0  0  0  0  0  0
   -4.0744   -4.2363   -0.2586 H   0  0  0  0  0  0  0  0  0  0  0  0
   -5.4585   -3.1582    0.2242 H   0  0  0  0  0  0  0  0  0  0  0  0
  1  2  1  0
  2  3  1  0
  3  4  2  0
  4  5  1  0
  5  6  2  0
  6  7  1  0
  7  8  1  0
  8  9  1  0
  9 10  2  0
  9 11  1  0
 11 12  1  0
 12 13  1  0
 12 14  1  0
 12 15  1  0
  8 16  1  0
 16 17  1  0
 17 18  2  0
 17 19  1  0
 19 20  1  0
 20 21  1  0
 21 22  2  0
 21 23  1  0
 23 24  1  0
 24 25  1  0
 25 26  2  0
 26 27  1  0
 26 28  1  0
 28 29  1  0
 16 30  1  0
 30 31  1  0
 30 32  1  0
  7 33  2  0
 33 34  1  0
 34 35  1  0
 33  3  1  0
 29 24  2  0
  1 36  1  0
  1 37  1  0
  1 38  1  0
  4 39  1  0
  5 40  1  0
  6 41  1  0
  8 42  1  0
 11 43  1  0
 13 44  1  0
 13 45  1  0
 13 46  1  0
 14 47  1  0
 14 48  1  0
 14 49  1  0
 15 50  1  0
 15 51  1  0
 15 52  1  0
 19 53  1  0
 19 54  1  0
 20 55  1  0
 20 56  1  0
 23 57  1  0
 25 58  1  0
 27 59  1  0
 27 60  1  0
 27 61  1  0
 30 62  1  0
 31 63  1  0
 31 64  1  0
 31 65  1  0
 32 66  1  0
 32 67  1  0
 32 68  1  0
 35 69  1  0
 35 70  1  0
 35 71  1  0
M  END
$$$$
