
     RDKit          3D

 68 70  0  0  0  0  0  0  0  0999 V2000
    0.6055    2.8682    6.0166 C   0  0  0  0  0  0  0  0  0  0  0  0
    0.4799    1.5288    5.5560 O   0  0  0  0  0  0  0  0  0  0  0  0
   -0.1290    1.3474    4.3462 C   0  0  0  0  0  0  0  0  0  0  0  0
   -0.1747    0.0285    3.9038 C   0  0  0  0  0  0  0  0  0  0  0  0
   -0.7726   -0.2951    2.6814 C   0  0  0  0  0  0  0  0  0  0  0  0
   -1.3350    0.6964    1.8526 C   0  0  0  0  0  0  0  0  0  0  0  0
   -2.0009    0.2823    0.5348 C   0  0  0  0  0  0  0  0  0  0  0  0
   -2.4633    1.3909   -0.4717 C   0  0  0  0  0  0  0  0  0  0  0  0
   -2.8858    2.4921   -0.1281 O   0  0  0  0  0  0  0  0  0  0  0  0
   -2.4761    0.9920   -1.8015 N   0  0  0  0  0  0  0  0  0  0  0  0
   -2.9629    1.7942   -2.9336 C   0  0  0  0  0  0  0  0  0  0  0  0
   -4.4656    2.0790   -2.7958 C   0  0  0  0  0  0  0  0  0  0  0  0
   -2.7339    0.9788   -4.2197 C   0  0  0  0  0  0  0  0  0  0  0  0
   -2.1809    3.1115   -3.0556 C   0  0  0  0  0  0  0  0  0  0  0  0
   -1.2574   -0.8027   -0.1985 N   0  0  0  0  0  0  0  0  0  0  0  0
    0.0466   -0.6162   -0.7077 C   0  0  0  0  0  0  0  0  0  0  0  0
    0.6692   -1.4949   -1.3116 O   0  0  0  0  0  0  0  0  0  0  0  0
    0.7179    0.7433   -0.5116 C   0  0  0  0  0  0  0  0  0  0  0  0
    2.0818    0.7984   -1.2031 C   0  0  0  0  0  0  0  0  0  0  0  0
    3.1398    0.0120   -0.4439 C   0  0  0  0  0  0  0  0  0  0  0  0
    3.0179   -0.2718    0.7433 O   0  0  0  0  0  0  0  0  0  0  0  0
    4.2367   -0.2657   -1.2271 N   0  0  0  0  0  0  0  0  0  0  0  0
    5.3576   -0.9485   -0.8119 C   0  0  0  0  0  0  0  0  0  0  0  0
    5.6581   -1.4993    0.4526 C   0  0  0  0  0  0  0  0  0  0  0  0
    6.8997   -2.0633    0.2980 C   0  0  0  0  0  0  0  0  0  0  0  0
    7.8136   -2.7997    1.1872 C   0  0  0  0  0  0  0  0  0  0  0  0
    7.3236   -1.8615   -0.9766 O   0  0  0  0  0  0  0  0  0  0  0  0
    6.3571   -1.1618   -1.6760 N   0  0  0  0  0  0  0  0  0  0  0  0
   -1.9548   -2.0606   -0.4080 C   0  0  0  0  0  0  0  0  0  0  0  0
   -1.7484   -2.8272   -1.5694 C   0  0  0  0  0  0  0  0  0  0  0  0
   -2.4375   -4.0268   -1.7936 C   0  0  0  0  0  0  0  0  0  0  0  0
   -3.3520   -4.4880   -0.8559 C   0  0  0  0  0  0  0  0  0  0  0  0
   -3.5638   -3.7460    0.2948 C   0  0  0  0  0  0  0  0  0  0  0  0
   -4.4355   -4.1882    1.2110 F   0  0  0  0  0  0  0  0  0  0  0  0
   -2.8837   -2.5495    0.5236 C   0  0  0  0  0  0  0  0  0  0  0  0
   -1.2919    2.0176    2.3236 C   0  0  0  0  0  0  0  0  0  0  0  0
   -0.6937    2.3403    3.5519 C   0  0  0  0  0  0  0  0  0  0  0  0
    1.2003    3.4714    5.3228 H   0  0  0  0  0  0  0  0  0  0  0  0
   -0.3770    3.3193    6.1905 H   0  0  0  0  0  0  0  0  0  0  0  0
    1.1341    2.8437    6.9743 H   0  0  0  0  0  0  0  0  0  0  0  0
    0.2649   -0.7589    4.5120 H   0  0  0  0  0  0  0  0  0  0  0  0
   -0.7730   -1.3418    2.3829 H   0  0  0  0  0  0  0  0  0  0  0  0
   -2.9768   -0.1057    0.8506 H   0  0  0  0  0  0  0  0  0  0  0  0
   -2.3185    0.0045   -1.9719 H   0  0  0  0  0  0  0  0  0  0  0  0
   -4.6855    2.7046   -1.9243 H   0  0  0  0  0  0  0  0  0  0  0  0
   -5.0335    1.1485   -2.6796 H   0  0  0  0  0  0  0  0  0  0  0  0
   -4.8510    2.6015   -3.6785 H   0  0  0  0  0  0  0  0  0  0  0  0
   -1.6712    0.7425   -4.3524 H   0  0  0  0  0  0  0  0  0  0  0  0
   -3.0718    1.5257   -5.1069 H   0  0  0  0  0  0  0  0  0  0  0  0
   -3.2760    0.0264   -4.1860 H   0  0  0  0  0  0  0  0  0  0  0  0
   -1.1018    2.9246   -3.1048 H   0  0  0  0  0  0  0  0  0  0  0  0
   -2.4694    3.6589   -3.9599 H   0  0  0  0  0  0  0  0  0  0  0  0
   -2.3582    3.7772   -2.2051 H   0  0  0  0  0  0  0  0  0  0  0  0
    0.8477    0.9492    0.5509 H   0  0  0  0  0  0  0  0  0  0  0  0
    0.0924    1.5206   -0.9552 H   0  0  0  0  0  0  0  0  0  0  0  0
    2.0116    0.4360   -2.2353 H   0  0  0  0  0  0  0  0  0  0  0  0
    2.4237    1.8398   -1.2376 H   0  0  0  0  0  0  0  0  0  0  0  0
    4.2576   -0.0005   -2.2015 H   0  0  0  0  0  0  0  0  0  0  0  0
    5.0575   -1.4926    1.3498 H   0  0  0  0  0  0  0  0  0  0  0  0
    8.1580   -3.7226    0.7102 H   0  0  0  0  0  0  0  0  0  0  0  0
    8.6884   -2.1876    1.4274 H   0  0  0  0  0  0  0  0  0  0  0  0
    7.3169   -3.0683    2.1247 H   0  0  0  0  0  0  0  0  0  0  0  0
   -1.0624   -2.5039   -2.3491 H   0  0  0  0  0  0  0  0  0  0  0  0
   -2.2517   -4.5954   -2.7018 H   0  0  0  0  0  0  0  0  0  0  0  0
   -3.8906   -5.4176   -1.0088 H   0  0  0  0  0  0  0  0  0  0  0  0
   -3.0781   -2.0591    1.4715 H   0  0  0  0  0  0  0  0  0  0  0  0
   -1.7185    2.8425    1.7590 H   0  0  0  0  0  0  0  0  0  0  0  0
   -0.6936    3.3823    3.8554 H   0  0  0  0  0  0  0  0  0  0  0  0
  1  2  1  0
  2  3  1  0
  3  4  2  0
  4  5  1  0
  5  6  2  0
  6  7  1  0
  7  8  1  0
  8  9  2  0
  8 10  1  0
 10 11  1  0
 11 12  1  0
 11 13  1  0
 11 14  1  0
  7 15  1  0
 15 16  1  0
 16 17  2  0
 16 18  1  0
 18 19  1  0
 19 20  1  0
 20 21  2  0
 20 22  1  0
 22 23  1  0
 23 24  1  0
 24 25  2  0
 25 26  1  0
 25 27  1  0
 27 28  1  0
 15 29  1  0
 29 30  2  0
 30 31  1  0
 31 32  2  0
 32 33  1  0
 33 34  1  0
 33 35  2  0
  6 36  1  0
 36 37  2  0
 37  3  1  0
 28 23  2  0
 35 29  1  0
  1 38  1  0
  1 39  1  0
  1 40  1  0
  4 41  1  0
  5 42  1  0
  7 43  1  0
 10 44  1  0
 12 45  1  0
 12 46  1  0
 12 47  1  0
 13 48  1  0
 13 49  1  0
 13 50  1  0
 14 51  1  0
 14 52  1  0
 14 53  1  0
 18 54  1  0
 18 55  1  0
 19 56  1  0
 19 57  1  0
 22 58  1  0
 24 59  1  0
 26 60  1  0
 26 61  1  0
 26 62  1  0
 30 63  1  0
 31 64  1  0
 32 65  1  0
 35 66  1  0
 36 67  1  0
 37 68  1  0
M  END
$$$$
