
     RDKit          3D

 52 56  0  0  0  0  0  0  0  0999 V2000
    2.7130   -1.9119    2.4112 O   0  0  0  0  0  0  0  0  0  0  0  0
    2.2985   -2.0020    1.2603 C   0  0  0  0  0  0  0  0  0  0  0  0
    1.5158   -3.2249    0.8199 C   0  0  0  0  0  0  0  0  0  0  0  0
   -0.2658   -2.9628    1.0140 S   0  0  0  0  0  0  0  0  0  0  0  0
   -0.6448   -2.0741   -0.4241 C   0  0  0  0  0  0  0  0  0  0  0  0
    0.2495   -1.7377   -1.3306 N   0  0  0  0  0  0  0  0  0  0  0  0
   -0.4147   -1.1703   -2.3788 N   0  0  0  0  0  0  0  0  0  0  0  0
   -1.7081   -1.1413   -2.0933 C   0  0  0  0  0  0  0  0  0  0  0  0
   -2.7342   -0.4510   -2.9325 C   0  0  0  0  0  0  0  0  0  0  0  0
   -3.3463    0.7517   -2.2698 C   0  0  0  0  0  0  0  0  0  0  0  0
   -4.6423    0.9178   -1.8195 C   0  0  0  0  0  0  0  0  0  0  0  0
   -4.8644    2.2094   -1.2605 C   0  0  0  0  0  0  0  0  0  0  0  0
   -3.7318    2.9874   -1.2965 C   0  0  0  0  0  0  0  0  0  0  0  0
   -2.4175    2.1727   -2.0224 S   0  0  0  0  0  0  0  0  0  0  0  0
   -1.9250   -1.7560   -0.8619 N   0  0  0  0  0  0  0  0  0  0  0  0
   -3.1653   -2.0241   -0.2300 C   0  0  0  0  0  0  0  0  0  0  0  0
   -3.3467   -1.7305    1.1256 C   0  0  0  0  0  0  0  0  0  0  0  0
   -4.5800   -1.9944    1.7318 C   0  0  0  0  0  0  0  0  0  0  0  0
   -5.6204   -2.5547    0.9989 C   0  0  0  0  0  0  0  0  0  0  0  0
   -5.4383   -2.8540   -0.3479 C   0  0  0  0  0  0  0  0  0  0  0  0
   -4.2147   -2.5903   -0.9664 C   0  0  0  0  0  0  0  0  0  0  0  0
    2.4693   -1.0665    0.2555 N   0  0  0  0  0  0  0  0  0  0  0  0
    3.2138    0.1269    0.3060 C   0  0  0  0  0  0  0  0  0  0  0  0
    3.0910    0.9995   -0.7847 C   0  0  0  0  0  0  0  0  0  0  0  0
    3.8071    2.1993   -0.8223 C   0  0  0  0  0  0  0  0  0  0  0  0
    4.6473    2.5358    0.2340 C   0  0  0  0  0  0  0  0  0  0  0  0
    4.7968    1.6596    1.3120 C   0  0  0  0  0  0  0  0  0  0  0  0
    4.0717    0.4667    1.3557 C   0  0  0  0  0  0  0  0  0  0  0  0
    5.6374    1.9044    2.3699 O   0  0  0  0  0  0  0  0  0  0  0  0
    6.5476    2.9701    2.0838 C   0  0  0  0  0  0  0  0  0  0  0  0
    5.8246    4.1322    1.4232 C   0  0  0  0  0  0  0  0  0  0  0  0
    5.3057    3.7355    0.1449 O   0  0  0  0  0  0  0  0  0  0  0  0
    1.8188   -4.0622    1.4566 H   0  0  0  0  0  0  0  0  0  0  0  0
    1.7733   -3.5077   -0.2065 H   0  0  0  0  0  0  0  0  0  0  0  0
   -2.2590   -0.1285   -3.8686 H   0  0  0  0  0  0  0  0  0  0  0  0
   -3.5138   -1.1499   -3.2420 H   0  0  0  0  0  0  0  0  0  0  0  0
   -5.4043    0.1545   -1.8907 H   0  0  0  0  0  0  0  0  0  0  0  0
   -5.8056    2.5515   -0.8498 H   0  0  0  0  0  0  0  0  0  0  0  0
   -3.6211    4.0022   -0.9476 H   0  0  0  0  0  0  0  0  0  0  0  0
   -2.5667   -1.2562    1.7219 H   0  0  0  0  0  0  0  0  0  0  0  0
   -4.7263   -1.7574    2.7818 H   0  0  0  0  0  0  0  0  0  0  0  0
   -6.5760   -2.7598    1.4785 H   0  0  0  0  0  0  0  0  0  0  0  0
   -6.2522   -3.3039   -0.9150 H   0  0  0  0  0  0  0  0  0  0  0  0
   -4.0890   -2.8815   -2.0042 H   0  0  0  0  0  0  0  0  0  0  0  0
    1.9056   -1.2003   -0.5828 H   0  0  0  0  0  0  0  0  0  0  0  0
    2.4304    0.7611   -1.6169 H   0  0  0  0  0  0  0  0  0  0  0  0
    3.7037    2.8680   -1.6735 H   0  0  0  0  0  0  0  0  0  0  0  0
    4.2124   -0.1846    2.2128 H   0  0  0  0  0  0  0  0  0  0  0  0
    6.9888    3.2920    3.0334 H   0  0  0  0  0  0  0  0  0  0  0  0
    7.3507    2.5816    1.4470 H   0  0  0  0  0  0  0  0  0  0  0  0
    4.9875    4.4898    2.0413 H   0  0  0  0  0  0  0  0  0  0  0  0
    6.5137    4.9686    1.2624 H   0  0  0  0  0  0  0  0  0  0  0  0
  1  2  2  0
  2  3  1  0
  3  4  1  0
  4  5  1  0
  5  6  2  0
  6  7  1  0
  7  8  2  0
  8  9  1  0
  9 10  1  0
 10 11  2  0
 11 12  1  0
 12 13  2  0
 13 14  1  0
  8 15  1  0
 15 16  1  0
 16 17  2  0
 17 18  1  0
 18 19  2  0
 19 20  1  0
 20 21  2  0
  2 22  1  0
 22 23  1  0
 23 24  2  0
 24 25  1  0
 25 26  2  0
 26 27  1  0
 27 28  2  0
 27 29  1  0
 29 30  1  0
 30 31  1  0
 31 32  1  0
 15  5  1  0
 21 16  1  0
 28 23  1  0
 14 10  1  0
 32 26  1  0
  3 33  1  0
  3 34  1  0
  9 35  1  0
  9 36  1  0
 11 37  1  0
 12 38  1  0
 13 39  1  0
 17 40  1  0
 18 41  1  0
 19 42  1  0
 20 43  1  0
 21 44  1  0
 22 45  1  0
 24 46  1  0
 25 47  1  0
 28 48  1  0
 30 49  1  0
 30 50  1  0
 31 51  1  0
 31 52  1  0
M  END
$$$$
