
     RDKit          3D

 44 46  0  0  0  0  0  0  0  0999 V2000
   -3.2093   -3.2154   -0.0141 C   0  0  0  0  0  0  0  0  0  0  0  0
   -2.4996   -2.1016    0.7077 C   0  0  0  0  0  0  0  0  0  0  0  0
   -1.3136   -2.3834    1.4079 C   0  0  0  0  0  0  0  0  0  0  0  0
   -0.5973   -1.3896    2.1008 C   0  0  0  0  0  0  0  0  0  0  0  0
    0.6473   -1.8028    2.8326 C   0  0  0  0  0  0  0  0  0  0  0  0
   -1.0982   -0.0790    2.0716 C   0  0  0  0  0  0  0  0  0  0  0  0
   -0.2987    1.3136    2.8662 S   0  0  0  0  0  6  0  0  0  0  0  0
   -1.3493    2.1745    3.3720 O   0  0  0  0  0  0  0  0  0  0  0  0
    0.7597    0.8561    3.7388 O   0  0  0  0  0  0  0  0  0  0  0  0
    0.3877    2.1446    1.5580 N   0  0  0  0  0  0  0  0  0  0  0  0
    1.3038    1.4539    0.7173 C   0  0  0  0  0  0  0  0  0  0  0  0
    2.5891    1.1676    1.1735 C   0  0  0  0  0  0  0  0  0  0  0  0
    3.4740    0.4540    0.3646 C   0  0  0  0  0  0  0  0  0  0  0  0
    3.0622    0.0230   -0.8974 C   0  0  0  0  0  0  0  0  0  0  0  0
    3.9315   -0.6847   -1.6828 O   0  0  0  0  0  0  0  0  0  0  0  0
    1.7696    0.3024   -1.3640 C   0  0  0  0  0  0  0  0  0  0  0  0
    1.1973   -0.2572   -2.9604 S   0  0  0  0  0  0  0  0  0  0  0  0
    1.5499    1.1240   -3.9673 C   0  0  0  0  0  0  0  0  0  0  0  0
    1.8121    2.3838   -3.4887 N   0  0  0  0  0  0  0  0  0  0  0  0
    1.9987    3.0855   -4.5808 C   0  0  0  0  0  0  0  0  0  0  0  0
    1.8376    2.2848   -5.6652 N   0  0  0  0  0  0  0  0  0  0  0  0
    1.5316    1.0312   -5.3027 N   0  0  0  0  0  0  0  0  0  0  0  0
    0.8901    1.0199   -0.5423 C   0  0  0  0  0  0  0  0  0  0  0  0
   -2.2991    0.2070    1.3947 C   0  0  0  0  0  0  0  0  0  0  0  0
   -3.0045   -0.7912    0.7088 C   0  0  0  0  0  0  0  0  0  0  0  0
   -4.2776   -0.4376   -0.0098 C   0  0  0  0  0  0  0  0  0  0  0  0
   -2.6521   -4.1561    0.0491 H   0  0  0  0  0  0  0  0  0  0  0  0
   -3.3198   -2.9724   -1.0756 H   0  0  0  0  0  0  0  0  0  0  0  0
   -4.1965   -3.3844    0.4275 H   0  0  0  0  0  0  0  0  0  0  0  0
   -0.9386   -3.4072    1.4122 H   0  0  0  0  0  0  0  0  0  0  0  0
    1.5157   -1.2454    2.4745 H   0  0  0  0  0  0  0  0  0  0  0  0
    0.5204   -1.6654    3.9105 H   0  0  0  0  0  0  0  0  0  0  0  0
    0.8725   -2.8635    2.6732 H   0  0  0  0  0  0  0  0  0  0  0  0
   -0.2905    2.7559    1.1062 H   0  0  0  0  0  0  0  0  0  0  0  0
    2.9071    1.4983    2.1598 H   0  0  0  0  0  0  0  0  0  0  0  0
    4.4713    0.2405    0.7368 H   0  0  0  0  0  0  0  0  0  0  0  0
    4.7856   -0.7609   -1.2283 H   0  0  0  0  0  0  0  0  0  0  0  0
    2.2422    4.1362   -4.6448 H   0  0  0  0  0  0  0  0  0  0  0  0
    1.9125    2.5136   -6.6500 H   0  0  0  0  0  0  0  0  0  0  0  0
   -0.1162    1.2336   -0.8915 H   0  0  0  0  0  0  0  0  0  0  0  0
   -2.6916    1.2233    1.4027 H   0  0  0  0  0  0  0  0  0  0  0  0
   -4.1692   -0.6163   -1.0842 H   0  0  0  0  0  0  0  0  0  0  0  0
   -4.5359    0.6182    0.1251 H   0  0  0  0  0  0  0  0  0  0  0  0
   -5.1118   -1.0309    0.3779 H   0  0  0  0  0  0  0  0  0  0  0  0
  1  2  1  0
  2  3  2  0
  3  4  1  0
  4  5  1  0
  4  6  2  0
  6  7  1  0
  7  8  2  0
  7  9  2  0
  7 10  1  0
 10 11  1  0
 11 12  2  0
 12 13  1  0
 13 14  2  0
 14 15  1  0
 14 16  1  0
 16 17  1  0
 17 18  1  0
 18 19  1  0
 19 20  2  0
 20 21  1  0
 21 22  1  0
 16 23  2  0
  6 24  1  0
 24 25  2  0
 25 26  1  0
 25  2  1  0
 23 11  1  0
 22 18  2  0
  1 27  1  0
  1 28  1  0
  1 29  1  0
  3 30  1  0
  5 31  1  0
  5 32  1  0
  5 33  1  0
 10 34  1  0
 12 35  1  0
 13 36  1  0
 15 37  1  0
 20 38  1  0
 21 39  1  0
 23 40  1  0
 24 41  1  0
 26 42  1  0
 26 43  1  0
 26 44  1  0
M  END
$$$$
