
     RDKit          3D

 35 37  0  0  0  0  0  0  0  0999 V2000
   -0.0005    2.0919    1.1278 O   0  0  0  0  0  0  0  0  0  0  0  0
   -0.2539    1.4775    0.0991 C   0  0  0  0  0  0  0  0  0  0  0  0
   -1.5288    0.7604   -0.1745 C   0  0  0  0  0  0  0  0  0  0  0  0
   -2.4918    0.6674    0.7526 C   0  0  0  0  0  0  0  0  0  0  0  0
   -3.7763   -0.0209    0.5939 C   0  0  0  0  0  0  0  0  0  0  0  0
   -4.7473    0.4500   -0.3009 C   0  0  0  0  0  0  0  0  0  0  0  0
   -5.9694   -0.2142   -0.4240 C   0  0  0  0  0  0  0  0  0  0  0  0
   -6.2189   -1.3405    0.3511 C   0  0  0  0  0  0  0  0  0  0  0  0
   -7.3919   -1.9759    0.2332 F   0  0  0  0  0  0  0  0  0  0  0  0
   -5.2708   -1.8149    1.2498 C   0  0  0  0  0  0  0  0  0  0  0  0
   -4.0479   -1.1526    1.3746 C   0  0  0  0  0  0  0  0  0  0  0  0
   -1.5245    0.1086   -1.7735 S   0  0  0  0  0  0  0  0  0  0  0  0
    0.0917    0.7222   -2.1349 C   0  0  0  0  0  0  0  0  0  0  0  0
    0.8263    0.5341   -3.6211 S   0  0  0  0  0  0  0  0  0  0  0  0
    0.5643    1.3688   -1.0113 N   0  0  0  0  0  0  0  0  0  0  0  0
    1.8556    1.9486   -0.9565 N   0  0  0  0  0  0  0  0  0  0  0  0
    2.8246    1.0498   -0.4154 C   0  0  0  0  0  0  0  0  0  0  0  0
    2.5121   -0.2655   -0.2769 N   0  0  0  0  0  0  0  0  0  0  0  0
    3.4660   -1.1069    0.1887 C   0  0  0  0  0  0  0  0  0  0  0  0
    4.7459   -0.7102    0.5423 C   0  0  0  0  0  0  0  0  0  0  0  0
    5.7402   -1.7188    1.0277 C   0  0  0  0  0  0  0  0  0  0  0  0
    5.1713   -2.7112    1.7653 F   0  0  0  0  0  0  0  0  0  0  0  0
    6.7066   -1.1753    1.8173 F   0  0  0  0  0  0  0  0  0  0  0  0
    6.3917   -2.3353    0.0060 F   0  0  0  0  0  0  0  0  0  0  0  0
    5.0662    0.6414    0.3888 C   0  0  0  0  0  0  0  0  0  0  0  0
    4.1038    1.5285   -0.0934 C   0  0  0  0  0  0  0  0  0  0  0  0
    4.5216    3.1951   -0.2586 Cl  0  0  0  0  0  0  0  0  0  0  0  0
   -2.3373    1.1119    1.7352 H   0  0  0  0  0  0  0  0  0  0  0  0
   -4.5625    1.3344   -0.9062 H   0  0  0  0  0  0  0  0  0  0  0  0
   -6.7260    0.1397   -1.1170 H   0  0  0  0  0  0  0  0  0  0  0  0
   -5.4890   -2.6951    1.8460 H   0  0  0  0  0  0  0  0  0  0  0  0
   -3.3099   -1.5294    2.0794 H   0  0  0  0  0  0  0  0  0  0  0  0
    1.8449    2.7827   -0.3626 H   0  0  0  0  0  0  0  0  0  0  0  0
    3.1520   -2.1468    0.2680 H   0  0  0  0  0  0  0  0  0  0  0  0
    6.0620    1.0005    0.6423 H   0  0  0  0  0  0  0  0  0  0  0  0
  1  2  2  0
  2  3  1  0
  3  4  2  3
  4  5  1  0
  5  6  2  0
  6  7  1  0
  7  8  2  0
  8  9  1  0
  8 10  1  0
 10 11  2  0
  3 12  1  0
 12 13  1  0
 13 14  2  0
 13 15  1  0
 15 16  1  0
 16 17  1  0
 17 18  2  0
 18 19  1  0
 19 20  2  0
 20 21  1  0
 21 22  1  0
 21 23  1  0
 21 24  1  0
 20 25  1  0
 25 26  2  0
 26 27  1  0
 15  2  1  0
 26 17  1  0
 11  5  1  0
  4 28  1  0
  6 29  1  0
  7 30  1  0
 10 31  1  0
 11 32  1  0
 16 33  1  0
 19 34  1  0
 25 35  1  0
M  END
$$$$
