
     RDKit          3D

 49 51  0  0  0  0  0  0  0  0999 V2000
    5.4324   -0.2416   -3.7784 C   0  0  0  0  0  0  0  0  0  0  0  0
    5.1563    0.8805   -2.9529 O   0  0  0  0  0  0  0  0  0  0  0  0
    3.8427    1.1437   -2.6513 C   0  0  0  0  0  0  0  0  0  0  0  0
    2.7673    0.3332   -3.0371 C   0  0  0  0  0  0  0  0  0  0  0  0
    1.4624    0.6752   -2.6792 C   0  0  0  0  0  0  0  0  0  0  0  0
    1.2373    1.8269   -1.9254 C   0  0  0  0  0  0  0  0  0  0  0  0
   -0.4172    2.2723   -1.4612 S   0  0  0  0  0  6  0  0  0  0  0  0
   -1.3420    1.3703   -2.1124 O   0  0  0  0  0  0  0  0  0  0  0  0
   -0.5275    3.7066   -1.6276 O   0  0  0  0  0  0  0  0  0  0  0  0
   -0.4210    1.9882    0.2075 N   0  0  0  0  0  0  0  0  0  0  0  0
   -0.6482    0.6540    0.6518 C   0  0  0  0  0  0  0  0  0  0  0  0
    0.4045   -0.2489    0.7027 C   0  0  0  0  0  0  0  0  0  0  0  0
    0.1541   -1.5667    1.0698 C   0  0  0  0  0  0  0  0  0  0  0  0
   -1.1504   -1.9860    1.3877 C   0  0  0  0  0  0  0  0  0  0  0  0
   -2.2219   -1.0658    1.3852 C   0  0  0  0  0  0  0  0  0  0  0  0
   -1.9464    0.2478    0.9741 C   0  0  0  0  0  0  0  0  0  0  0  0
   -3.5524   -1.4915    1.7618 N   0  0  0  0  0  0  0  0  0  0  0  0
   -4.5512   -0.5694    2.1371 C   0  0  0  0  0  0  0  0  0  0  0  0
   -5.9176   -1.1455    2.4418 C   0  0  0  0  0  0  0  0  0  0  0  0
   -4.4006    0.6479    2.2517 O   0  0  0  0  0  0  0  0  0  0  0  0
   -3.7668   -2.9250    2.0035 C   0  0  0  0  0  0  0  0  0  0  0  0
   -2.7554   -3.8459    1.3464 C   0  0  0  0  0  0  0  0  0  0  0  0
   -1.3618   -3.4271    1.7599 C   0  0  0  0  0  0  0  0  0  0  0  0
    2.2966    2.6551   -1.5414 C   0  0  0  0  0  0  0  0  0  0  0  0
    3.6040    2.3163   -1.9004 C   0  0  0  0  0  0  0  0  0  0  0  0
    4.7131    3.0523   -1.5634 O   0  0  0  0  0  0  0  0  0  0  0  0
    4.5047    4.3038   -0.9236 C   0  0  0  0  0  0  0  0  0  0  0  0
    4.9476   -0.1441   -4.7554 H   0  0  0  0  0  0  0  0  0  0  0  0
    6.5132   -0.2756   -3.9461 H   0  0  0  0  0  0  0  0  0  0  0  0
    5.1439   -1.1748   -3.2837 H   0  0  0  0  0  0  0  0  0  0  0  0
    2.9126   -0.5723   -3.6170 H   0  0  0  0  0  0  0  0  0  0  0  0
    0.6346    0.0386   -2.9852 H   0  0  0  0  0  0  0  0  0  0  0  0
   -0.9485    2.7206    0.6848 H   0  0  0  0  0  0  0  0  0  0  0  0
    1.4183    0.0596    0.4663 H   0  0  0  0  0  0  0  0  0  0  0  0
    0.9818   -2.2724    1.1015 H   0  0  0  0  0  0  0  0  0  0  0  0
   -2.7406    0.9779    0.8614 H   0  0  0  0  0  0  0  0  0  0  0  0
   -6.3224   -1.6481    1.5596 H   0  0  0  0  0  0  0  0  0  0  0  0
   -6.6014   -0.3311    2.7028 H   0  0  0  0  0  0  0  0  0  0  0  0
   -5.8693   -1.8271    3.2944 H   0  0  0  0  0  0  0  0  0  0  0  0
   -3.7664   -3.0730    3.0911 H   0  0  0  0  0  0  0  0  0  0  0  0
   -4.7588   -3.2094    1.6391 H   0  0  0  0  0  0  0  0  0  0  0  0
   -2.9433   -4.8839    1.6423 H   0  0  0  0  0  0  0  0  0  0  0  0
   -2.8597   -3.7940    0.2548 H   0  0  0  0  0  0  0  0  0  0  0  0
   -0.6323   -4.0688    1.2520 H   0  0  0  0  0  0  0  0  0  0  0  0
   -1.2196   -3.5454    2.8406 H   0  0  0  0  0  0  0  0  0  0  0  0
    2.0765    3.5469   -0.9635 H   0  0  0  0  0  0  0  0  0  0  0  0
    5.4820    4.7772   -0.7890 H   0  0  0  0  0  0  0  0  0  0  0  0
    4.0619    4.1686    0.0685 H   0  0  0  0  0  0  0  0  0  0  0  0
    3.8950    4.9700   -1.5429 H   0  0  0  0  0  0  0  0  0  0  0  0
  1  2  1  0
  2  3  1  0
  3  4  2  0
  4  5  1  0
  5  6  2  0
  6  7  1  0
  7  8  2  0
  7  9  2  0
  7 10  1  0
 10 11  1  0
 11 12  2  0
 12 13  1  0
 13 14  2  0
 14 15  1  0
 15 16  2  0
 15 17  1  0
 17 18  1  0
 18 19  1  0
 18 20  2  0
 17 21  1  0
 21 22  1  0
 22 23  1  0
  6 24  1  0
 24 25  2  0
 25 26  1  0
 26 27  1  0
 25  3  1  0
 16 11  1  0
 23 14  1  0
  1 28  1  0
  1 29  1  0
  1 30  1  0
  4 31  1  0
  5 32  1  0
 10 33  1  0
 12 34  1  0
 13 35  1  0
 16 36  1  0
 19 37  1  0
 19 38  1  0
 19 39  1  0
 21 40  1  0
 21 41  1  0
 22 42  1  0
 22 43  1  0
 23 44  1  0
 23 45  1  0
 24 46  1  0
 27 47  1  0
 27 48  1  0
 27 49  1  0
M  END
$$$$
