
     RDKit          3D

 59 62  0  0  0  0  0  0  0  0999 V2000
    7.8997    2.5612   -2.5202 C   0  0  0  0  0  0  0  0  0  0  0  0
    7.2261    3.2369   -1.4639 O   0  0  0  0  0  0  0  0  0  0  0  0
    6.5414    2.4560   -0.5723 C   0  0  0  0  0  0  0  0  0  0  0  0
    5.6814    3.1525    0.2788 C   0  0  0  0  0  0  0  0  0  0  0  0
    4.9102    2.4726    1.2262 C   0  0  0  0  0  0  0  0  0  0  0  0
    4.9973    1.0778    1.3428 C   0  0  0  0  0  0  0  0  0  0  0  0
    4.1495    0.4015    2.3742 C   0  0  0  0  0  0  0  0  0  0  0  0
    3.6717    1.0870    3.2836 O   0  0  0  0  0  0  0  0  0  0  0  0
    3.9478   -1.1050    2.2984 C   0  0  0  0  0  0  0  0  0  0  0  0
    2.2316   -1.5676    2.6782 S   0  0  0  0  0  0  0  0  0  0  0  0
    1.4350   -1.0028    1.2513 C   0  0  0  0  0  0  0  0  0  0  0  0
    2.0209   -0.4182    0.2318 N   0  0  0  0  0  0  0  0  0  0  0  0
    1.0533   -0.0986   -0.6842 N   0  0  0  0  0  0  0  0  0  0  0  0
   -0.1046   -0.5336   -0.2228 C   0  0  0  0  0  0  0  0  0  0  0  0
   -1.4194   -0.4368   -0.9277 C   0  0  0  0  0  0  0  0  0  0  0  0
   -2.4498    0.2646   -0.1597 N   0  0  0  0  0  0  0  0  0  0  0  0
   -3.7515    0.4010   -0.6695 C   0  0  0  0  0  0  0  0  0  0  0  0
   -4.2312   -0.3628   -1.7436 C   0  0  0  0  0  0  0  0  0  0  0  0
   -5.5502   -0.2456   -2.1965 C   0  0  0  0  0  0  0  0  0  0  0  0
   -6.4422    0.6147   -1.5621 C   0  0  0  0  0  0  0  0  0  0  0  0
   -7.8444    0.7703   -2.0637 C   0  0  0  0  0  0  0  0  0  0  0  0
   -5.9916    1.3651   -0.4717 C   0  0  0  0  0  0  0  0  0  0  0  0
   -4.6673    1.2505   -0.0057 C   0  0  0  0  0  0  0  0  0  0  0  0
   -4.2561    2.0697    1.1908 C   0  0  0  0  0  0  0  0  0  0  0  0
    0.0905   -1.1038    1.0205 N   0  0  0  0  0  0  0  0  0  0  0  0
   -0.9313   -1.6245    1.9088 C   0  0  0  0  0  0  0  0  0  0  0  0
   -1.4732   -2.9183    1.4207 C   0  0  0  0  0  0  0  0  0  0  0  0
   -2.7310   -3.3300    1.0257 C   0  0  0  0  0  0  0  0  0  0  0  0
   -2.6088   -4.6951    0.6678 C   0  0  0  0  0  0  0  0  0  0  0  0
   -1.2907   -5.0312    0.8729 C   0  0  0  0  0  0  0  0  0  0  0  0
   -0.5942   -3.9601    1.3291 O   0  0  0  0  0  0  0  0  0  0  0  0
    5.8836    0.3824    0.5096 C   0  0  0  0  0  0  0  0  0  0  0  0
    6.6469    1.0692   -0.4475 C   0  0  0  0  0  0  0  0  0  0  0  0
    8.2564    3.3214   -3.2209 H   0  0  0  0  0  0  0  0  0  0  0  0
    7.2242    1.8947   -3.0693 H   0  0  0  0  0  0  0  0  0  0  0  0
    8.7695    2.0141   -2.1432 H   0  0  0  0  0  0  0  0  0  0  0  0
    5.6000    4.2337    0.1968 H   0  0  0  0  0  0  0  0  0  0  0  0
    4.2361    3.0396    1.8677 H   0  0  0  0  0  0  0  0  0  0  0  0
    4.6105   -1.5678    3.0373 H   0  0  0  0  0  0  0  0  0  0  0  0
    4.1950   -1.5169    1.3196 H   0  0  0  0  0  0  0  0  0  0  0  0
   -1.7371   -1.4592   -1.1658 H   0  0  0  0  0  0  0  0  0  0  0  0
   -1.2624    0.0882   -1.8800 H   0  0  0  0  0  0  0  0  0  0  0  0
   -2.1043    1.1695    0.1572 H   0  0  0  0  0  0  0  0  0  0  0  0
   -3.5886   -1.0587   -2.2736 H   0  0  0  0  0  0  0  0  0  0  0  0
   -5.8709   -0.8382   -3.0506 H   0  0  0  0  0  0  0  0  0  0  0  0
   -7.9255    1.6735   -2.6762 H   0  0  0  0  0  0  0  0  0  0  0  0
   -8.1437   -0.0871   -2.6731 H   0  0  0  0  0  0  0  0  0  0  0  0
   -8.5463    0.8391   -1.2266 H   0  0  0  0  0  0  0  0  0  0  0  0
   -6.6816    2.0438    0.0281 H   0  0  0  0  0  0  0  0  0  0  0  0
   -3.7720    1.4376    1.9432 H   0  0  0  0  0  0  0  0  0  0  0  0
   -3.5683    2.8647    0.8829 H   0  0  0  0  0  0  0  0  0  0  0  0
   -5.1219    2.5382    1.6742 H   0  0  0  0  0  0  0  0  0  0  0  0
   -0.5162   -1.7524    2.9121 H   0  0  0  0  0  0  0  0  0  0  0  0
   -1.7168   -0.8681    2.0047 H   0  0  0  0  0  0  0  0  0  0  0  0
   -3.6220   -2.7142    0.9909 H   0  0  0  0  0  0  0  0  0  0  0  0
   -3.3844   -5.3554    0.3023 H   0  0  0  0  0  0  0  0  0  0  0  0
   -0.7176   -5.9408    0.7456 H   0  0  0  0  0  0  0  0  0  0  0  0
    6.0173   -0.6948    0.5811 H   0  0  0  0  0  0  0  0  0  0  0  0
    7.3213    0.4965   -1.0766 H   0  0  0  0  0  0  0  0  0  0  0  0
  1  2  1  0
  2  3  1  0
  3  4  2  0
  4  5  1  0
  5  6  2  0
  6  7  1  0
  7  8  2  0
  7  9  1  0
  9 10  1  0
 10 11  1  0
 11 12  2  0
 12 13  1  0
 13 14  2  0
 14 15  1  0
 15 16  1  0
 16 17  1  0
 17 18  2  0
 18 19  1  0
 19 20  2  0
 20 21  1  0
 20 22  1  0
 22 23  2  0
 23 24  1  0
 14 25  1  0
 25 26  1  0
 26 27  1  0
 27 28  2  0
 28 29  1  0
 29 30  2  0
 30 31  1  0
  6 32  1  0
 32 33  2  0
 33  3  1  0
 25 11  1  0
 31 27  1  0
 23 17  1  0
  1 34  1  0
  1 35  1  0
  1 36  1  0
  4 37  1  0
  5 38  1  0
  9 39  1  0
  9 40  1  0
 15 41  1  0
 15 42  1  0
 16 43  1  0
 18 44  1  0
 19 45  1  0
 21 46  1  0
 21 47  1  0
 21 48  1  0
 22 49  1  0
 24 50  1  0
 24 51  1  0
 24 52  1  0
 26 53  1  0
 26 54  1  0
 28 55  1  0
 29 56  1  0
 30 57  1  0
 32 58  1  0
 33 59  1  0
M  END
$$$$
