
     RDKit          3D

 63 67  0  0  0  0  0  0  0  0999 V2000
    8.2963    0.9964   -2.9968 C   0  0  0  0  0  0  0  0  0  0  0  0
    7.6459    1.9751   -2.0372 C   0  0  0  0  0  0  0  0  0  0  0  0
    6.6767    1.3012   -1.2233 O   0  0  0  0  0  0  0  0  0  0  0  0
    5.4238    1.1958   -1.7554 C   0  0  0  0  0  0  0  0  0  0  0  0
    5.0953    1.6279   -2.8536 O   0  0  0  0  0  0  0  0  0  0  0  0
    4.4966    0.5030   -0.8692 C   0  0  0  0  0  0  0  0  0  0  0  0
    3.1268    0.2052   -1.1254 C   0  0  0  0  0  0  0  0  0  0  0  0
    2.6014   -0.4409   -0.0202 C   0  0  0  0  0  0  0  0  0  0  0  0
    1.2719   -0.9644    0.2694 C   0  0  0  0  0  0  0  0  0  0  0  0
    0.1686   -0.7943   -0.5613 N   0  0  0  0  0  0  0  0  0  0  0  0
   -1.0235   -1.6354   -0.3534 C   0  0  0  0  0  0  0  0  0  0  0  0
   -2.0163   -1.5058   -1.5271 C   0  0  0  0  0  0  0  0  0  0  0  0
   -2.4624   -0.1310   -1.8125 N   0  0  0  0  0  0  0  0  0  0  0  0
   -3.8764    0.1297   -1.5202 C   0  0  0  0  0  0  0  0  0  0  0  0
   -4.3350   -0.0832   -0.0633 C   0  0  0  0  0  0  0  0  0  0  0  0
   -5.7945    0.2869    0.1238 C   0  0  0  0  0  0  0  0  0  0  0  0
   -6.7711   -0.6687   -0.2116 C   0  0  0  0  0  0  0  0  0  0  0  0
   -8.1290   -0.3839   -0.0769 C   0  0  0  0  0  0  0  0  0  0  0  0
   -8.5342    0.8596    0.3933 C   0  0  0  0  0  0  0  0  0  0  0  0
   -7.5805    1.8208    0.7277 C   0  0  0  0  0  0  0  0  0  0  0  0
   -6.2031    1.5566    0.5950 C   0  0  0  0  0  0  0  0  0  0  0  0
   -5.2104    2.6323    0.9834 C   0  0  0  0  0  0  0  0  0  0  0  0
   -5.7883    3.8387    1.2496 F   0  0  0  0  0  0  0  0  0  0  0  0
   -4.2861    2.8794    0.0128 F   0  0  0  0  0  0  0  0  0  0  0  0
   -4.5022    2.3103    2.1015 F   0  0  0  0  0  0  0  0  0  0  0  0
   -1.5539    0.8812   -1.2463 C   0  0  0  0  0  0  0  0  0  0  0  0
   -0.0688    0.4580   -1.2970 C   0  0  0  0  0  0  0  0  0  0  0  0
    1.1052   -1.6496    1.3752 N   0  0  0  0  0  0  0  0  0  0  0  0
    2.1646   -1.8310    2.2832 C   0  0  0  0  0  0  0  0  0  0  0  0
    1.9198   -2.5551    3.4517 C   0  0  0  0  0  0  0  0  0  0  0  0
    2.9329   -2.7551    4.3930 C   0  0  0  0  0  0  0  0  0  0  0  0
    4.2062   -2.2294    4.1726 C   0  0  0  0  0  0  0  0  0  0  0  0
    4.4732   -1.5029    3.0116 C   0  0  0  0  0  0  0  0  0  0  0  0
    3.4487   -1.3107    2.0793 C   0  0  0  0  0  0  0  0  0  0  0  0
    3.6324   -0.6053    0.8792 N   0  0  0  0  0  0  0  0  0  0  0  0
    4.7685   -0.0082    0.3890 C   0  0  0  0  0  0  0  0  0  0  0  0
    7.5600    0.5768   -3.6896 H   0  0  0  0  0  0  0  0  0  0  0  0
    9.0820    1.4873   -3.5780 H   0  0  0  0  0  0  0  0  0  0  0  0
    8.7345    0.1550   -2.4499 H   0  0  0  0  0  0  0  0  0  0  0  0
    7.2009    2.8240   -2.5689 H   0  0  0  0  0  0  0  0  0  0  0  0
    8.4031    2.3831   -1.3599 H   0  0  0  0  0  0  0  0  0  0  0  0
    2.5979    0.4472   -2.0378 H   0  0  0  0  0  0  0  0  0  0  0  0
   -0.7233   -2.6871   -0.2733 H   0  0  0  0  0  0  0  0  0  0  0  0
   -1.5175   -1.3541    0.5848 H   0  0  0  0  0  0  0  0  0  0  0  0
   -2.8633   -2.1846   -1.3717 H   0  0  0  0  0  0  0  0  0  0  0  0
   -1.5147   -1.8686   -2.4341 H   0  0  0  0  0  0  0  0  0  0  0  0
   -4.1142    1.1537   -1.8368 H   0  0  0  0  0  0  0  0  0  0  0  0
   -4.4788   -0.5098   -2.1794 H   0  0  0  0  0  0  0  0  0  0  0  0
   -4.2048   -1.1330    0.2283 H   0  0  0  0  0  0  0  0  0  0  0  0
   -3.7162    0.4849    0.6369 H   0  0  0  0  0  0  0  0  0  0  0  0
   -6.4753   -1.6488   -0.5827 H   0  0  0  0  0  0  0  0  0  0  0  0
   -8.8704   -1.1347   -0.3393 H   0  0  0  0  0  0  0  0  0  0  0  0
   -9.5931    1.0825    0.5006 H   0  0  0  0  0  0  0  0  0  0  0  0
   -7.9203    2.7885    1.0961 H   0  0  0  0  0  0  0  0  0  0  0  0
   -1.8029    1.0950   -0.2002 H   0  0  0  0  0  0  0  0  0  0  0  0
   -1.6734    1.8176   -1.8037 H   0  0  0  0  0  0  0  0  0  0  0  0
    0.2399    0.3234   -2.3401 H   0  0  0  0  0  0  0  0  0  0  0  0
    0.5211    1.2773   -0.8708 H   0  0  0  0  0  0  0  0  0  0  0  0
    0.9280   -2.9634    3.6270 H   0  0  0  0  0  0  0  0  0  0  0  0
    2.7256   -3.3209    5.2977 H   0  0  0  0  0  0  0  0  0  0  0  0
    4.9918   -2.3878    4.9076 H   0  0  0  0  0  0  0  0  0  0  0  0
    5.4720   -1.1069    2.8625 H   0  0  0  0  0  0  0  0  0  0  0  0
    5.6923    0.0000    0.9501 H   0  0  0  0  0  0  0  0  0  0  0  0
  1  2  1  0
  2  3  1  0
  3  4  1  0
  4  5  2  0
  4  6  1  0
  6  7  1  0
  7  8  2  0
  8  9  1  0
  9 10  1  0
 10 11  1  0
 11 12  1  0
 12 13  1  0
 13 14  1  0
 14 15  1  0
 15 16  1  0
 16 17  2  0
 17 18  1  0
 18 19  2  0
 19 20  1  0
 20 21  2  0
 21 22  1  0
 22 23  1  0
 22 24  1  0
 22 25  1  0
 13 26  1  0
 26 27  1  0
  9 28  2  0
 28 29  1  0
 29 30  2  0
 30 31  1  0
 31 32  2  0
 32 33  1  0
 33 34  2  0
 34 35  1  0
 35 36  1  0
 36  6  2  0
 35  8  1  0
 27 10  1  0
 34 29  1  0
 21 16  1  0
  1 37  1  0
  1 38  1  0
  1 39  1  0
  2 40  1  0
  2 41  1  0
  7 42  1  0
 11 43  1  0
 11 44  1  0
 12 45  1  0
 12 46  1  0
 14 47  1  0
 14 48  1  0
 15 49  1  0
 15 50  1  0
 17 51  1  0
 18 52  1  0
 19 53  1  0
 20 54  1  0
 26 55  1  0
 26 56  1  0
 27 57  1  0
 27 58  1  0
 30 59  1  0
 31 60  1  0
 32 61  1  0
 33 62  1  0
 36 63  1  0
M  END
$$$$
