
     RDKit          3D

 47 50  0  0  0  0  0  0  0  0999 V2000
   -4.7159    2.0727    1.6510 C   0  0  0  0  0  0  0  0  0  0  0  0
   -3.8208    1.9803    0.4164 C   0  0  0  0  0  0  0  0  0  0  0  0
   -2.4963    1.3206    0.7619 C   0  0  0  0  0  0  0  0  0  0  0  0
   -1.6424    1.0801   -0.4617 C   0  0  0  0  0  0  0  0  0  0  0  0
   -0.7486    1.8788   -0.7618 O   0  0  0  0  0  0  0  0  0  0  0  0
   -1.8356   -0.1045   -1.1638 N   0  0  0  0  0  0  0  0  0  0  0  0
   -0.8967   -0.4145   -2.2483 C   0  0  0  0  0  0  0  0  0  0  0  0
    0.4303   -0.9800   -1.7263 C   0  0  0  0  0  0  0  0  0  0  0  0
    0.6923   -2.1746   -1.8442 O   0  0  0  0  0  0  0  0  0  0  0  0
    1.2302   -0.0177   -1.1338 N   0  0  0  0  0  0  0  0  0  0  0  0
    2.5045   -0.1808   -0.5579 C   0  0  0  0  0  0  0  0  0  0  0  0
    3.2115   -1.3859   -0.5536 C   0  0  0  0  0  0  0  0  0  0  0  0
    4.4796   -1.4630    0.0338 C   0  0  0  0  0  0  0  0  0  0  0  0
    5.0484   -0.3348    0.6161 C   0  0  0  0  0  0  0  0  0  0  0  0
    4.3379    0.8669    0.6390 C   0  0  0  0  0  0  0  0  0  0  0  0
    3.0796    0.9476    0.0414 C   0  0  0  0  0  0  0  0  0  0  0  0
    4.8173    2.0122    1.2233 O   0  0  0  0  0  0  0  0  0  0  0  0
    5.9298    1.7330    2.0813 C   0  0  0  0  0  0  0  0  0  0  0  0
    6.9108    0.7930    1.4003 C   0  0  0  0  0  0  0  0  0  0  0  0
    6.3018   -0.4792    1.1519 O   0  0  0  0  0  0  0  0  0  0  0  0
   -2.9311   -0.9965   -0.9397 C   0  0  0  0  0  0  0  0  0  0  0  0
   -2.6936   -2.3814   -0.9427 C   0  0  0  0  0  0  0  0  0  0  0  0
   -3.7274   -3.2910   -0.7087 C   0  0  0  0  0  0  0  0  0  0  0  0
   -5.0205   -2.8332   -0.4864 C   0  0  0  0  0  0  0  0  0  0  0  0
   -5.2832   -1.4647   -0.5094 C   0  0  0  0  0  0  0  0  0  0  0  0
   -4.2515   -0.5389   -0.7307 C   0  0  0  0  0  0  0  0  0  0  0  0
   -4.7523    1.1691   -0.9331 S   0  0  0  0  0  0  0  0  0  0  0  0
   -4.9782    1.0821    2.0394 H   0  0  0  0  0  0  0  0  0  0  0  0
   -4.2043    2.6165    2.4531 H   0  0  0  0  0  0  0  0  0  0  0  0
   -5.6436    2.6139    1.4337 H   0  0  0  0  0  0  0  0  0  0  0  0
   -3.6224    2.9994    0.0636 H   0  0  0  0  0  0  0  0  0  0  0  0
   -1.9269    1.9746    1.4359 H   0  0  0  0  0  0  0  0  0  0  0  0
   -2.6247    0.3868    1.3224 H   0  0  0  0  0  0  0  0  0  0  0  0
   -1.3389   -1.1235   -2.9580 H   0  0  0  0  0  0  0  0  0  0  0  0
   -0.6861    0.4990   -2.8185 H   0  0  0  0  0  0  0  0  0  0  0  0
    0.8197    0.9161   -1.0590 H   0  0  0  0  0  0  0  0  0  0  0  0
    2.8086   -2.2864   -1.0060 H   0  0  0  0  0  0  0  0  0  0  0  0
    5.0238   -2.4033    0.0234 H   0  0  0  0  0  0  0  0  0  0  0  0
    2.5514    1.8975    0.0607 H   0  0  0  0  0  0  0  0  0  0  0  0
    5.5492    1.3068    3.0178 H   0  0  0  0  0  0  0  0  0  0  0  0
    6.4168    2.6854    2.3130 H   0  0  0  0  0  0  0  0  0  0  0  0
    7.2639    1.2031    0.4460 H   0  0  0  0  0  0  0  0  0  0  0  0
    7.7811    0.6243    2.0421 H   0  0  0  0  0  0  0  0  0  0  0  0
   -1.6933   -2.7819   -1.0906 H   0  0  0  0  0  0  0  0  0  0  0  0
   -3.5173   -4.3582   -0.7005 H   0  0  0  0  0  0  0  0  0  0  0  0
   -5.8281   -3.5403   -0.3137 H   0  0  0  0  0  0  0  0  0  0  0  0
   -6.3085   -1.1255   -0.3736 H   0  0  0  0  0  0  0  0  0  0  0  0
  1  2  1  0
  2  3  1  0
  3  4  1  0
  4  5  2  0
  4  6  1  0
  6  7  1  0
  7  8  1  0
  8  9  2  0
  8 10  1  0
 10 11  1  0
 11 12  2  0
 12 13  1  0
 13 14  2  0
 14 15  1  0
 15 16  2  0
 15 17  1  0
 17 18  1  0
 18 19  1  0
 19 20  1  0
  6 21  1  0
 21 22  2  0
 22 23  1  0
 23 24  2  0
 24 25  1  0
 25 26  2  0
 26 27  1  0
 27  2  1  0
 16 11  1  0
 26 21  1  0
 20 14  1  0
  1 28  1  0
  1 29  1  0
  1 30  1  0
  2 31  1  0
  3 32  1  0
  3 33  1  0
  7 34  1  0
  7 35  1  0
 10 36  1  0
 12 37  1  0
 13 38  1  0
 16 39  1  0
 18 40  1  0
 18 41  1  0
 19 42  1  0
 19 43  1  0
 22 44  1  0
 23 45  1  0
 24 46  1  0
 25 47  1  0
M  END
$$$$
