
     RDKit          3D

 35 37  0  0  0  0  0  0  0  0999 V2000
    6.5455    0.0069    0.2974 C   0  0  0  0  0  0  0  0  0  0  0  0
    5.1362    0.1002    0.8065 C   0  0  0  0  0  0  0  0  0  0  0  0
    4.8902    0.4434    2.1447 C   0  0  0  0  0  0  0  0  0  0  0  0
    3.5883    0.5695    2.6468 C   0  0  0  0  0  0  0  0  0  0  0  0
    2.5469    0.3477    1.7456 C   0  0  0  0  0  0  0  0  0  0  0  0
    1.1826    0.3851    1.8822 N   0  0  0  0  0  0  0  0  0  0  0  0
    0.6066    0.0890    0.6618 C   0  0  0  0  0  0  0  0  0  0  0  0
   -0.8175    0.0609    0.5288 C   0  0  0  0  0  0  0  0  0  0  0  0
   -1.6631    0.3214    1.6513 C   0  0  0  0  0  0  0  0  0  0  0  0
   -2.2786    0.5355    2.6119 N   0  0  0  0  0  0  0  0  0  0  0  0
   -1.3244   -0.2071   -0.6926 C   0  0  0  0  0  0  0  0  0  0  0  0
   -2.7510   -0.2714   -1.0311 C   0  0  0  0  0  0  0  0  0  0  0  0
   -3.5671   -1.3013   -0.5364 C   0  0  0  0  0  0  0  0  0  0  0  0
   -4.9246   -1.3476   -0.8652 C   0  0  0  0  0  0  0  0  0  0  0  0
   -5.4564   -0.3677   -1.6899 C   0  0  0  0  0  0  0  0  0  0  0  0
   -6.7949   -0.3810   -1.9542 O   0  0  0  0  0  0  0  0  0  0  0  0
   -4.6428    0.6301   -2.2179 C   0  0  0  0  0  0  0  0  0  0  0  0
   -5.1493    1.5437   -3.0968 O   0  0  0  0  0  0  0  0  0  0  0  0
   -3.2961    0.6954   -1.8846 C   0  0  0  0  0  0  0  0  0  0  0  0
    1.5499   -0.1328   -0.2381 N   0  0  0  0  0  0  0  0  0  0  0  0
    2.7486    0.0209    0.4130 C   0  0  0  0  0  0  0  0  0  0  0  0
    4.0582   -0.1012   -0.0739 C   0  0  0  0  0  0  0  0  0  0  0  0
    6.8818    0.9874   -0.0533 H   0  0  0  0  0  0  0  0  0  0  0  0
    7.2226   -0.3399    1.0851 H   0  0  0  0  0  0  0  0  0  0  0  0
    6.6161   -0.7083   -0.5289 H   0  0  0  0  0  0  0  0  0  0  0  0
    5.7276    0.6174    2.8193 H   0  0  0  0  0  0  0  0  0  0  0  0
    3.4092    0.8305    3.6842 H   0  0  0  0  0  0  0  0  0  0  0  0
    0.6939    0.5984    2.7409 H   0  0  0  0  0  0  0  0  0  0  0  0
   -0.6581   -0.3775   -1.5388 H   0  0  0  0  0  0  0  0  0  0  0  0
   -3.1562   -2.0737    0.1103 H   0  0  0  0  0  0  0  0  0  0  0  0
   -5.5603   -2.1327   -0.4664 H   0  0  0  0  0  0  0  0  0  0  0  0
   -7.0836    0.5499   -1.9204 H   0  0  0  0  0  0  0  0  0  0  0  0
   -5.8190    1.0690   -3.6233 H   0  0  0  0  0  0  0  0  0  0  0  0
   -2.6790    1.4874   -2.3004 H   0  0  0  0  0  0  0  0  0  0  0  0
    4.2179   -0.3496   -1.1177 H   0  0  0  0  0  0  0  0  0  0  0  0
  1  2  1  0
  2  3  2  0
  3  4  1  0
  4  5  2  0
  5  6  1  0
  6  7  1  0
  7  8  1  0
  8  9  1  0
  9 10  3  0
  8 11  2  3
 11 12  1  0
 12 13  2  0
 13 14  1  0
 14 15  2  0
 15 16  1  0
 15 17  1  0
 17 18  1  0
 17 19  2  0
  7 20  2  0
 20 21  1  0
 21 22  2  0
 22  2  1  0
 21  5  1  0
 19 12  1  0
  1 23  1  0
  1 24  1  0
  1 25  1  0
  3 26  1  0
  4 27  1  0
  6 28  1  0
 11 29  1  0
 13 30  1  0
 14 31  1  0
 16 32  1  0
 18 33  1  0
 19 34  1  0
 22 35  1  0
M  END
$$$$
