
     RDKit          3D

 38 40  0  0  0  0  0  0  0  0999 V2000
   -0.5920    1.9500   -2.2152 C   0  0  0  0  0  0  0  0  0  0  0  0
   -0.7586    1.0056   -1.0581 C   0  0  0  0  0  0  0  0  0  0  0  0
   -1.4611    1.4417    0.0734 C   0  0  0  0  0  0  0  0  0  0  0  0
   -1.6595    0.5909    1.1593 C   0  0  0  0  0  0  0  0  0  0  0  0
   -2.3686    1.1124    2.2044 O   0  0  0  0  0  0  0  0  0  0  0  0
   -1.1601   -0.7150    1.1539 C   0  0  0  0  0  0  0  0  0  0  0  0
   -1.2595   -1.8221    2.5518 S   0  0  0  0  0  0  0  0  0  0  0  0
   -2.9686   -2.1275    2.6974 C   0  0  0  0  0  0  0  0  0  0  0  0
   -3.4961   -3.3877    2.7475 N   0  0  0  0  0  0  0  0  0  0  0  0
   -4.7841   -3.1602    2.9004 C   0  0  0  0  0  0  0  0  0  0  0  0
   -5.0066   -1.8229    2.9638 N   0  0  0  0  0  0  0  0  0  0  0  0
   -3.8556   -1.1349    2.8494 N   0  0  0  0  0  0  0  0  0  0  0  0
   -0.4674   -1.1556    0.0186 C   0  0  0  0  0  0  0  0  0  0  0  0
   -0.2660   -0.3095   -1.0793 C   0  0  0  0  0  0  0  0  0  0  0  0
    0.4408   -0.7840   -2.2238 N   0  0  0  0  0  0  0  0  0  0  0  0
    2.0310   -1.3280   -2.0963 S   0  0  0  0  0  6  0  0  0  0  0  0
    2.0848   -2.4804   -1.2222 O   0  0  0  0  0  0  0  0  0  0  0  0
    2.5362   -1.3930   -3.4525 O   0  0  0  0  0  0  0  0  0  0  0  0
    2.8650    0.0193   -1.2816 C   0  0  0  0  0  0  0  0  0  0  0  0
    3.3814    1.0719   -2.0449 C   0  0  0  0  0  0  0  0  0  0  0  0
    4.0587    2.1132   -1.4088 C   0  0  0  0  0  0  0  0  0  0  0  0
    4.2252    2.0902   -0.0217 C   0  0  0  0  0  0  0  0  0  0  0  0
    5.0631    3.3731    0.7561 Cl  0  0  0  0  0  0  0  0  0  0  0  0
    3.7259    1.0313    0.7370 C   0  0  0  0  0  0  0  0  0  0  0  0
    3.0480   -0.0144    0.1051 C   0  0  0  0  0  0  0  0  0  0  0  0
   -1.2559    1.6591   -3.0366 H   0  0  0  0  0  0  0  0  0  0  0  0
    0.4435    1.9547   -2.5694 H   0  0  0  0  0  0  0  0  0  0  0  0
   -0.8352    2.9795   -1.9285 H   0  0  0  0  0  0  0  0  0  0  0  0
   -1.8673    2.4493    0.1188 H   0  0  0  0  0  0  0  0  0  0  0  0
   -2.8178    0.3611    2.6504 H   0  0  0  0  0  0  0  0  0  0  0  0
   -5.5692   -3.8983    2.9732 H   0  0  0  0  0  0  0  0  0  0  0  0
   -5.8816   -1.3248    3.0763 H   0  0  0  0  0  0  0  0  0  0  0  0
   -0.0883   -2.1750   -0.0097 H   0  0  0  0  0  0  0  0  0  0  0  0
    0.2506   -0.3536   -3.1269 H   0  0  0  0  0  0  0  0  0  0  0  0
    3.2679    1.0844   -3.1284 H   0  0  0  0  0  0  0  0  0  0  0  0
    4.4610    2.9333   -1.9988 H   0  0  0  0  0  0  0  0  0  0  0  0
    3.8654    1.0105    1.8171 H   0  0  0  0  0  0  0  0  0  0  0  0
    2.6704   -0.8444    0.6989 H   0  0  0  0  0  0  0  0  0  0  0  0
  1  2  1  0
  2  3  2  0
  3  4  1  0
  4  5  1  0
  4  6  2  0
  6  7  1  0
  7  8  1  0
  8  9  1  0
  9 10  2  0
 10 11  1  0
 11 12  1  0
  6 13  1  0
 13 14  2  0
 14 15  1  0
 15 16  1  0
 16 17  2  0
 16 18  2  0
 16 19  1  0
 19 20  2  0
 20 21  1  0
 21 22  2  0
 22 23  1  0
 22 24  1  0
 24 25  2  0
 14  2  1  0
 25 19  1  0
 12  8  2  0
  1 26  1  0
  1 27  1  0
  1 28  1  0
  3 29  1  0
  5 30  1  0
 10 31  1  0
 11 32  1  0
 13 33  1  0
 15 34  1  0
 20 35  1  0
 21 36  1  0
 24 37  1  0
 25 38  1  0
M  END
$$$$
