
     RDKit          3D

 41 42  0  0  0  0  0  0  0  0999 V2000
    6.6094    2.1926   -0.2128 C   0  0  0  0  0  0  0  0  0  0  0  0
    5.2515    1.8510    0.0641 O   0  0  0  0  0  0  0  0  0  0  0  0
    5.0343    0.5126    0.2114 C   0  0  0  0  0  0  0  0  0  0  0  0
    5.9041   -0.3430    0.1151 O   0  0  0  0  0  0  0  0  0  0  0  0
    3.6292    0.2682    0.4868 C   0  0  0  0  0  0  0  0  0  0  0  0
    2.5897    1.1848    0.5380 C   0  0  0  0  0  0  0  0  0  0  0  0
    1.3932    0.4850    0.7901 C   0  0  0  0  0  0  0  0  0  0  0  0
    1.6909   -0.8661    0.8825 C   0  0  0  0  0  0  0  0  0  0  0  0
    0.6261   -2.2735    1.1374 S   0  0  0  0  0  6  0  0  0  0  0  0
    0.9801   -3.2007    0.0887 O   0  0  0  0  0  0  0  0  0  0  0  0
    0.7829   -2.5700    2.5411 O   0  0  0  0  0  0  0  0  0  0  0  0
   -0.9461   -1.7520    0.8982 N   0  0  0  0  0  0  0  0  0  0  0  0
   -1.3422   -1.4850   -0.4873 C   0  0  0  0  0  0  0  0  0  0  0  0
   -2.6692   -0.7673   -0.5380 C   0  0  0  0  0  0  0  0  0  0  0  0
   -2.7563    0.5565   -0.9888 C   0  0  0  0  0  0  0  0  0  0  0  0
   -3.9885    1.2208   -1.0208 C   0  0  0  0  0  0  0  0  0  0  0  0
   -5.1483    0.5710   -0.5993 C   0  0  0  0  0  0  0  0  0  0  0  0
   -6.4077    1.1031   -0.5786 O   0  0  0  0  0  0  0  0  0  0  0  0
   -6.5513    2.4371   -1.0492 C   0  0  0  0  0  0  0  0  0  0  0  0
   -5.0641   -0.7467   -0.1455 C   0  0  0  0  0  0  0  0  0  0  0  0
   -3.8371   -1.4130   -0.1133 C   0  0  0  0  0  0  0  0  0  0  0  0
    3.0679   -0.9738    0.7593 N   0  0  0  0  0  0  0  0  0  0  0  0
    3.8336   -2.2007    0.8955 C   0  0  0  0  0  0  0  0  0  0  0  0
    7.2596    1.8798    0.6103 H   0  0  0  0  0  0  0  0  0  0  0  0
    6.9335    1.7433   -1.1568 H   0  0  0  0  0  0  0  0  0  0  0  0
    6.6723    3.2801   -0.3084 H   0  0  0  0  0  0  0  0  0  0  0  0
    2.6912    2.2539    0.3917 H   0  0  0  0  0  0  0  0  0  0  0  0
    0.4046    0.9164    0.8782 H   0  0  0  0  0  0  0  0  0  0  0  0
   -1.2253   -1.0458    1.5770 H   0  0  0  0  0  0  0  0  0  0  0  0
   -1.4275   -2.4283   -1.0389 H   0  0  0  0  0  0  0  0  0  0  0  0
   -0.5842   -0.8767   -0.9922 H   0  0  0  0  0  0  0  0  0  0  0  0
   -1.8665    1.0854   -1.3242 H   0  0  0  0  0  0  0  0  0  0  0  0
   -4.0069    2.2442   -1.3807 H   0  0  0  0  0  0  0  0  0  0  0  0
   -5.9859    3.1381   -0.4264 H   0  0  0  0  0  0  0  0  0  0  0  0
   -7.6096    2.7055   -0.9756 H   0  0  0  0  0  0  0  0  0  0  0  0
   -6.2596    2.5183   -2.1016 H   0  0  0  0  0  0  0  0  0  0  0  0
   -5.9634   -1.2600    0.1870 H   0  0  0  0  0  0  0  0  0  0  0  0
   -3.7963   -2.4387    0.2490 H   0  0  0  0  0  0  0  0  0  0  0  0
    3.2464   -2.9729    1.3918 H   0  0  0  0  0  0  0  0  0  0  0  0
    4.1278   -2.5306   -0.1036 H   0  0  0  0  0  0  0  0  0  0  0  0
    4.7078   -2.0026    1.5206 H   0  0  0  0  0  0  0  0  0  0  0  0
  1  2  1  0
  2  3  1  0
  3  4  2  0
  3  5  1  0
  5  6  2  0
  6  7  1  0
  7  8  2  0
  8  9  1  0
  9 10  2  0
  9 11  2  0
  9 12  1  0
 12 13  1  0
 13 14  1  0
 14 15  2  0
 15 16  1  0
 16 17  2  0
 17 18  1  0
 18 19  1  0
 17 20  1  0
 20 21  2  0
  8 22  1  0
 22 23  1  0
 22  5  1  0
 21 14  1  0
  1 24  1  0
  1 25  1  0
  1 26  1  0
  6 27  1  0
  7 28  1  0
 12 29  1  0
 13 30  1  0
 13 31  1  0
 15 32  1  0
 16 33  1  0
 19 34  1  0
 19 35  1  0
 19 36  1  0
 20 37  1  0
 21 38  1  0
 23 39  1  0
 23 40  1  0
 23 41  1  0
M  END
$$$$
