
     RDKit          3D

 24 24  0  0  0  0  0  0  0  0999 V2000
   -4.0469    0.4296    0.7096 C   0  0  0  0  0  0  0  0  0  0  0  0
   -2.7135   -0.0252    0.3690 N   0  0  0  0  0  0  0  0  0  0  0  0
   -2.4095   -0.9621   -0.5768 C   0  0  0  0  0  0  0  0  0  0  0  0
   -3.5179   -1.7588   -1.5442 S   0  0  0  0  0  0  0  0  0  0  0  0
   -1.0950   -1.3130   -0.7035 N   0  0  0  0  0  0  0  0  0  0  0  0
    0.0945   -0.6626   -0.3166 C   0  0  0  0  0  0  0  0  0  0  0  0
    0.1731    0.6879    0.0269 C   0  0  0  0  0  0  0  0  0  0  0  0
    1.3999    1.2614    0.3811 C   0  0  0  0  0  0  0  0  0  0  0  0
    2.5720    0.4991    0.3725 C   0  0  0  0  0  0  0  0  0  0  0  0
    3.8798    1.1072    0.7838 C   0  0  0  0  0  0  0  0  0  0  0  0
    2.4966   -0.8497    0.0148 C   0  0  0  0  0  0  0  0  0  0  0  0
    1.2706   -1.4201   -0.3412 C   0  0  0  0  0  0  0  0  0  0  0  0
   -4.5828    0.7392   -0.1912 H   0  0  0  0  0  0  0  0  0  0  0  0
   -4.5864   -0.3814    1.2061 H   0  0  0  0  0  0  0  0  0  0  0  0
   -3.9543    1.2796    1.3900 H   0  0  0  0  0  0  0  0  0  0  0  0
   -2.0351    0.0281    1.1180 H   0  0  0  0  0  0  0  0  0  0  0  0
   -0.9718   -2.1675   -1.2369 H   0  0  0  0  0  0  0  0  0  0  0  0
   -0.6947    1.3382   -0.0196 H   0  0  0  0  0  0  0  0  0  0  0  0
    1.4337    2.3160    0.6467 H   0  0  0  0  0  0  0  0  0  0  0  0
    4.0202    0.9973    1.8635 H   0  0  0  0  0  0  0  0  0  0  0  0
    3.9131    2.1717    0.5288 H   0  0  0  0  0  0  0  0  0  0  0  0
    4.7155    0.6237    0.2670 H   0  0  0  0  0  0  0  0  0  0  0  0
    3.3921   -1.4673    0.0070 H   0  0  0  0  0  0  0  0  0  0  0  0
    1.2470   -2.4712   -0.6181 H   0  0  0  0  0  0  0  0  0  0  0  0
  1  2  1  0
  2  3  1  0
  3  4  2  0
  3  5  1  0
  5  6  1  0
  6  7  2  0
  7  8  1  0
  8  9  2  0
  9 10  1  0
  9 11  1  0
 11 12  2  0
 12  6  1  0
  1 13  1  0
  1 14  1  0
  1 15  1  0
  2 16  1  0
  5 17  1  0
  7 18  1  0
  8 19  1  0
 10 20  1  0
 10 21  1  0
 10 22  1  0
 11 23  1  0
 12 24  1  0
M  END
$$$$
