
     RDKit          3D

 54 56  0  0  0  0  0  0  0  0999 V2000
    9.9049    1.0607   -1.0597 C   0  0  0  0  0  0  0  0  0  0  0  0
    9.4821    0.7378    0.2588 O   0  0  0  0  0  0  0  0  0  0  0  0
    8.1952    0.2954    0.4029 C   0  0  0  0  0  0  0  0  0  0  0  0
    7.8327   -0.0314    1.7113 C   0  0  0  0  0  0  0  0  0  0  0  0
    6.5457   -0.4899    2.0025 C   0  0  0  0  0  0  0  0  0  0  0  0
    5.5975   -0.6288    0.9829 C   0  0  0  0  0  0  0  0  0  0  0  0
    4.1984   -1.0983    1.2941 C   0  0  0  0  0  0  0  0  0  0  0  0
    3.3341   -0.0287    1.9773 C   0  0  0  0  0  0  0  0  0  0  0  0
    3.0495    1.2102    1.1222 C   0  0  0  0  0  0  0  0  0  0  0  0
    2.2056    0.9007   -0.0552 C   0  0  0  0  0  0  0  0  0  0  0  0
    2.5587    0.5815   -1.2805 N   0  0  0  0  0  0  0  0  0  0  0  0
    1.3855    0.3784   -1.9777 N   0  0  0  0  0  0  0  0  0  0  0  0
    0.3978    0.5947   -1.1339 C   0  0  0  0  0  0  0  0  0  0  0  0
   -1.2805    0.4572   -1.5552 S   0  0  0  0  0  0  0  0  0  0  0  0
   -2.0453    1.0097   -0.0058 C   0  0  0  0  0  0  0  0  0  0  0  0
   -3.5622    1.0349   -0.1126 C   0  0  0  0  0  0  0  0  0  0  0  0
   -4.1897    2.0249    0.2539 O   0  0  0  0  0  0  0  0  0  0  0  0
   -4.1060   -0.1538   -0.5635 N   0  0  0  0  0  0  0  0  0  0  0  0
   -5.4681   -0.4962   -0.7289 C   0  0  0  0  0  0  0  0  0  0  0  0
   -6.5199    0.3627   -0.3990 C   0  0  0  0  0  0  0  0  0  0  0  0
   -7.8649   -0.0165   -0.5826 C   0  0  0  0  0  0  0  0  0  0  0  0
   -8.9536    0.9543   -0.2064 C   0  0  0  0  0  0  0  0  0  0  0  0
   -8.1650   -1.2960   -1.0866 C   0  0  0  0  0  0  0  0  0  0  0  0
   -9.5846   -1.7465   -1.2996 C   0  0  0  0  0  0  0  0  0  0  0  0
   -7.1127   -2.1575   -1.4255 C   0  0  0  0  0  0  0  0  0  0  0  0
   -5.7835   -1.7622   -1.2478 C   0  0  0  0  0  0  0  0  0  0  0  0
   -4.4209   -3.0026   -1.7299 Br  0  0  0  0  0  0  0  0  0  0  0  0
    0.8486    0.9267    0.1185 O   0  0  0  0  0  0  0  0  0  0  0  0
    5.9652   -0.3056   -0.3290 C   0  0  0  0  0  0  0  0  0  0  0  0
    7.2553    0.1551   -0.6175 C   0  0  0  0  0  0  0  0  0  0  0  0
    9.3219    1.8928   -1.4684 H   0  0  0  0  0  0  0  0  0  0  0  0
    9.8594    0.1848   -1.7157 H   0  0  0  0  0  0  0  0  0  0  0  0
   10.9498    1.3816   -1.0060 H   0  0  0  0  0  0  0  0  0  0  0  0
    8.5612    0.0725    2.5116 H   0  0  0  0  0  0  0  0  0  0  0  0
    6.2924   -0.7379    3.0304 H   0  0  0  0  0  0  0  0  0  0  0  0
    4.2698   -1.9721    1.9558 H   0  0  0  0  0  0  0  0  0  0  0  0
    3.7095   -1.4644    0.3833 H   0  0  0  0  0  0  0  0  0  0  0  0
    2.3834   -0.4908    2.2735 H   0  0  0  0  0  0  0  0  0  0  0  0
    3.8222    0.2963    2.9047 H   0  0  0  0  0  0  0  0  0  0  0  0
    2.5318    1.9525    1.7421 H   0  0  0  0  0  0  0  0  0  0  0  0
    3.9815    1.6831    0.7950 H   0  0  0  0  0  0  0  0  0  0  0  0
   -1.7697    0.3436    0.8188 H   0  0  0  0  0  0  0  0  0  0  0  0
   -1.7002    2.0228    0.2262 H   0  0  0  0  0  0  0  0  0  0  0  0
   -3.4492   -0.8623   -0.8790 H   0  0  0  0  0  0  0  0  0  0  0  0
   -6.3217    1.3511    0.0057 H   0  0  0  0  0  0  0  0  0  0  0  0
   -9.6697    1.0664   -1.0268 H   0  0  0  0  0  0  0  0  0  0  0  0
   -9.4768    0.6050    0.6899 H   0  0  0  0  0  0  0  0  0  0  0  0
   -8.5497    1.9499    0.0036 H   0  0  0  0  0  0  0  0  0  0  0  0
   -9.6351   -2.8148   -1.5363 H   0  0  0  0  0  0  0  0  0  0  0  0
  -10.1792   -1.5883   -0.3943 H   0  0  0  0  0  0  0  0  0  0  0  0
  -10.0331   -1.1934   -2.1316 H   0  0  0  0  0  0  0  0  0  0  0  0
   -7.3327   -3.1436   -1.8295 H   0  0  0  0  0  0  0  0  0  0  0  0
    5.2465   -0.4028   -1.1418 H   0  0  0  0  0  0  0  0  0  0  0  0
    7.4881    0.3970   -1.6489 H   0  0  0  0  0  0  0  0  0  0  0  0
  1  2  1  0
  2  3  1  0
  3  4  2  0
  4  5  1  0
  5  6  2  0
  6  7  1  0
  7  8  1  0
  8  9  1  0
  9 10  1  0
 10 11  2  0
 11 12  1  0
 12 13  2  0
 13 14  1  0
 14 15  1  0
 15 16  1  0
 16 17  2  0
 16 18  1  0
 18 19  1  0
 19 20  2  0
 20 21  1  0
 21 22  1  0
 21 23  2  0
 23 24  1  0
 23 25  1  0
 25 26  2  0
 26 27  1  0
 13 28  1  0
  6 29  1  0
 29 30  2  0
 30  3  1  0
 28 10  1  0
 26 19  1  0
  1 31  1  0
  1 32  1  0
  1 33  1  0
  4 34  1  0
  5 35  1  0
  7 36  1  0
  7 37  1  0
  8 38  1  0
  8 39  1  0
  9 40  1  0
  9 41  1  0
 15 42  1  0
 15 43  1  0
 18 44  1  0
 20 45  1  0
 22 46  1  0
 22 47  1  0
 22 48  1  0
 24 49  1  0
 24 50  1  0
 24 51  1  0
 25 52  1  0
 29 53  1  0
 30 54  1  0
M  END
$$$$
