
     RDKit          3D

 61 64  0  0  0  0  0  0  0  0999 V2000
   -5.7207   -3.8062   -1.5166 C   0  0  0  0  0  0  0  0  0  0  0  0
   -6.8153   -2.9479   -1.8120 O   0  0  0  0  0  0  0  0  0  0  0  0
   -6.7937   -1.6935   -1.2654 C   0  0  0  0  0  0  0  0  0  0  0  0
   -7.9112   -0.9061   -1.5654 C   0  0  0  0  0  0  0  0  0  0  0  0
   -8.0453    0.3919   -1.0612 C   0  0  0  0  0  0  0  0  0  0  0  0
   -9.1941    1.0362   -1.4308 O   0  0  0  0  0  0  0  0  0  0  0  0
   -9.4110    2.3322   -0.8819 C   0  0  0  0  0  0  0  0  0  0  0  0
   -7.0371    0.9152   -0.2566 C   0  0  0  0  0  0  0  0  0  0  0  0
   -5.9010    0.1435    0.0278 C   0  0  0  0  0  0  0  0  0  0  0  0
   -4.8415    0.7481    0.8783 C   0  0  0  0  0  0  0  0  0  0  0  0
   -5.1671    1.4949    1.7951 O   0  0  0  0  0  0  0  0  0  0  0  0
   -3.5437    0.4252    0.5118 N   0  0  0  0  0  0  0  0  0  0  0  0
   -2.4953    0.9529    1.2047 N   0  0  0  0  0  0  0  0  0  0  0  0
   -1.3201    0.6680    0.7446 C   0  0  0  0  0  0  0  0  0  0  0  0
   -0.0914    1.1790    1.3823 C   0  0  0  0  0  0  0  0  0  0  0  0
   -0.1504    1.9865    2.5169 C   0  0  0  0  0  0  0  0  0  0  0  0
    1.0295    2.4697    3.0912 C   0  0  0  0  0  0  0  0  0  0  0  0
    2.2765    2.1489    2.5390 C   0  0  0  0  0  0  0  0  0  0  0  0
    3.4753    2.6016    3.0234 O   0  0  0  0  0  0  0  0  0  0  0  0
    3.4577    3.3089    4.2586 C   0  0  0  0  0  0  0  0  0  0  0  0
    2.3398    1.3229    1.3997 C   0  0  0  0  0  0  0  0  0  0  0  0
    3.6550    0.9635    0.7388 C   0  0  0  0  0  0  0  0  0  0  0  0
    3.6815   -0.4538    0.5270 O   0  0  0  0  0  0  0  0  0  0  0  0
    4.7723   -0.9720   -0.1121 C   0  0  0  0  0  0  0  0  0  0  0  0
    4.8424   -2.3656   -0.0965 C   0  0  0  0  0  0  0  0  0  0  0  0
    5.8955   -3.0321   -0.7244 C   0  0  0  0  0  0  0  0  0  0  0  0
    6.8959   -2.3120   -1.3920 C   0  0  0  0  0  0  0  0  0  0  0  0
    7.9576   -2.9652   -2.0399 C   0  0  0  0  0  0  0  0  0  0  0  0
    8.9417   -2.2337   -2.7079 C   0  0  0  0  0  0  0  0  0  0  0  0
    8.8780   -0.8414   -2.7341 C   0  0  0  0  0  0  0  0  0  0  0  0
    7.8302   -0.1796   -2.0925 C   0  0  0  0  0  0  0  0  0  0  0  0
    6.8300   -0.8994   -1.4161 C   0  0  0  0  0  0  0  0  0  0  0  0
    5.7663   -0.2428   -0.7684 C   0  0  0  0  0  0  0  0  0  0  0  0
    1.1437    0.8496    0.8237 C   0  0  0  0  0  0  0  0  0  0  0  0
   -5.7838   -1.1672   -0.4621 C   0  0  0  0  0  0  0  0  0  0  0  0
   -4.7829   -3.3977   -1.9081 H   0  0  0  0  0  0  0  0  0  0  0  0
   -5.9019   -4.7625   -2.0158 H   0  0  0  0  0  0  0  0  0  0  0  0
   -5.6483   -4.0007   -0.4416 H   0  0  0  0  0  0  0  0  0  0  0  0
   -8.6998   -1.3159   -2.1939 H   0  0  0  0  0  0  0  0  0  0  0  0
   -9.4689    2.2935    0.2106 H   0  0  0  0  0  0  0  0  0  0  0  0
   -8.6400    3.0354   -1.2132 H   0  0  0  0  0  0  0  0  0  0  0  0
  -10.3730    2.6947   -1.2549 H   0  0  0  0  0  0  0  0  0  0  0  0
   -7.0986    1.9175    0.1593 H   0  0  0  0  0  0  0  0  0  0  0  0
   -3.3601   -0.0849   -0.3441 H   0  0  0  0  0  0  0  0  0  0  0  0
   -1.1860    0.0329   -0.1497 H   0  0  0  0  0  0  0  0  0  0  0  0
   -1.1109    2.2500    2.9572 H   0  0  0  0  0  0  0  0  0  0  0  0
    0.9347    3.1038    3.9676 H   0  0  0  0  0  0  0  0  0  0  0  0
    3.0233    2.7002    5.0594 H   0  0  0  0  0  0  0  0  0  0  0  0
    4.4946    3.5268    4.5330 H   0  0  0  0  0  0  0  0  0  0  0  0
    2.9332    4.2652    4.1563 H   0  0  0  0  0  0  0  0  0  0  0  0
    4.5143    1.2474    1.3580 H   0  0  0  0  0  0  0  0  0  0  0  0
    3.6956    1.5021   -0.2173 H   0  0  0  0  0  0  0  0  0  0  0  0
    4.0726   -2.9395    0.4154 H   0  0  0  0  0  0  0  0  0  0  0  0
    5.9254   -4.1182   -0.6882 H   0  0  0  0  0  0  0  0  0  0  0  0
    8.0236   -4.0532   -2.0315 H   0  0  0  0  0  0  0  0  0  0  0  0
    9.7561   -2.7516   -3.2084 H   0  0  0  0  0  0  0  0  0  0  0  0
    9.6432   -0.2694   -3.2552 H   0  0  0  0  0  0  0  0  0  0  0  0
    7.7987    0.9077   -2.1274 H   0  0  0  0  0  0  0  0  0  0  0  0
    5.7363    0.8426   -0.8003 H   0  0  0  0  0  0  0  0  0  0  0  0
    1.1957    0.2195   -0.0628 H   0  0  0  0  0  0  0  0  0  0  0  0
   -4.9228   -1.7661   -0.1838 H   0  0  0  0  0  0  0  0  0  0  0  0
  1  2  1  0
  2  3  1  0
  3  4  2  0
  4  5  1  0
  5  6  1  0
  6  7  1  0
  5  8  2  0
  8  9  1  0
  9 10  1  0
 10 11  2  0
 10 12  1  0
 12 13  1  0
 13 14  2  3
 14 15  1  0
 15 16  2  0
 16 17  1  0
 17 18  2  0
 18 19  1  0
 19 20  1  0
 18 21  1  0
 21 22  1  0
 22 23  1  0
 23 24  1  0
 24 25  2  0
 25 26  1  0
 26 27  2  0
 27 28  1  0
 28 29  2  0
 29 30  1  0
 30 31  2  0
 31 32  1  0
 32 33  2  0
 21 34  2  0
  9 35  2  0
 35  3  1  0
 34 15  1  0
 33 24  1  0
 32 27  1  0
  1 36  1  0
  1 37  1  0
  1 38  1  0
  4 39  1  0
  7 40  1  0
  7 41  1  0
  7 42  1  0
  8 43  1  0
 12 44  1  0
 14 45  1  0
 16 46  1  0
 17 47  1  0
 20 48  1  0
 20 49  1  0
 20 50  1  0
 22 51  1  0
 22 52  1  0
 25 53  1  0
 26 54  1  0
 28 55  1  0
 29 56  1  0
 30 57  1  0
 31 58  1  0
 33 59  1  0
 34 60  1  0
 35 61  1  0
M  END
$$$$
