
     RDKit          3D

 58 62  0  0  0  0  0  0  0  0999 V2000
    8.5428    1.1215    1.7087 C   0  0  0  0  0  0  0  0  0  0  0  0
    7.4598    2.0320    1.8201 O   0  0  0  0  0  0  0  0  0  0  0  0
    6.2400    1.6357    1.3317 C   0  0  0  0  0  0  0  0  0  0  0  0
    5.9732    0.3681    0.8072 C   0  0  0  0  0  0  0  0  0  0  0  0
    4.6954    0.0559    0.3337 C   0  0  0  0  0  0  0  0  0  0  0  0
    3.6610    0.9994    0.3744 C   0  0  0  0  0  0  0  0  0  0  0  0
    2.3417    0.6398   -0.1392 C   0  0  0  0  0  0  0  0  0  0  0  0
    1.9433   -0.4887   -0.6968 N   0  0  0  0  0  0  0  0  0  0  0  0
    0.6087   -0.2807   -0.9835 C   0  0  0  0  0  0  0  0  0  0  0  0
   -0.1990   -1.3459   -1.6311 C   0  0  0  0  0  0  0  0  0  0  0  0
   -1.0804   -1.9940   -0.6736 N   0  0  0  0  0  0  0  0  0  0  0  0
   -2.4494   -1.9208   -0.6045 C   0  0  0  0  0  0  0  0  0  0  0  0
   -3.4120   -0.9536   -1.6716 S   0  0  0  0  0  0  0  0  0  0  0  0
   -5.0772   -1.3279   -1.0447 C   0  0  0  0  0  0  0  0  0  0  0  0
   -6.1319   -0.5865   -1.8290 C   0  0  0  0  0  0  0  0  0  0  0  0
   -6.6616   -1.1335   -3.0101 C   0  0  0  0  0  0  0  0  0  0  0  0
   -7.6269   -0.4406   -3.7463 C   0  0  0  0  0  0  0  0  0  0  0  0
   -8.0690    0.8084   -3.3125 C   0  0  0  0  0  0  0  0  0  0  0  0
   -7.5420    1.3542   -2.1473 C   0  0  0  0  0  0  0  0  0  0  0  0
   -7.9596    2.5577   -1.7355 F   0  0  0  0  0  0  0  0  0  0  0  0
   -6.5820    0.6729   -1.4053 C   0  0  0  0  0  0  0  0  0  0  0  0
   -2.9354   -2.6695    0.3576 N   0  0  0  0  0  0  0  0  0  0  0  0
   -1.8461   -3.2692    0.9367 C   0  0  0  0  0  0  0  0  0  0  0  0
   -1.7921   -4.1702    1.9994 C   0  0  0  0  0  0  0  0  0  0  0  0
   -0.5265   -4.6081    2.3516 C   0  0  0  0  0  0  0  0  0  0  0  0
    0.6215   -4.2227    1.7477 N   0  0  0  0  0  0  0  0  0  0  0  0
    0.5694   -3.3414    0.7207 C   0  0  0  0  0  0  0  0  0  0  0  0
   -0.6706   -2.8696    0.3127 C   0  0  0  0  0  0  0  0  0  0  0  0
    0.2530    0.9935   -0.5905 C   0  0  0  0  0  0  0  0  0  0  0  0
   -0.9858    1.7903   -0.6259 C   0  0  0  0  0  0  0  0  0  0  0  0
    1.3571    1.5883   -0.0475 O   0  0  0  0  0  0  0  0  0  0  0  0
    3.9314    2.2698    0.9073 C   0  0  0  0  0  0  0  0  0  0  0  0
    5.2078    2.5937    1.3876 C   0  0  0  0  0  0  0  0  0  0  0  0
    5.5502    3.8164    1.9128 O   0  0  0  0  0  0  0  0  0  0  0  0
    4.5091    4.7582    2.1273 C   0  0  0  0  0  0  0  0  0  0  0  0
    8.3633    0.2203    2.3037 H   0  0  0  0  0  0  0  0  0  0  0  0
    8.7443    0.8722    0.6619 H   0  0  0  0  0  0  0  0  0  0  0  0
    9.4344    1.6123    2.1107 H   0  0  0  0  0  0  0  0  0  0  0  0
    6.7348   -0.4029    0.7536 H   0  0  0  0  0  0  0  0  0  0  0  0
    4.5098   -0.9387   -0.0703 H   0  0  0  0  0  0  0  0  0  0  0  0
   -0.7777   -0.9403   -2.4642 H   0  0  0  0  0  0  0  0  0  0  0  0
    0.4498   -2.1258   -2.0475 H   0  0  0  0  0  0  0  0  0  0  0  0
   -5.2657   -2.4054   -1.1086 H   0  0  0  0  0  0  0  0  0  0  0  0
   -5.1435   -1.0507    0.0137 H   0  0  0  0  0  0  0  0  0  0  0  0
   -6.3203   -2.1049   -3.3646 H   0  0  0  0  0  0  0  0  0  0  0  0
   -8.0285   -0.8737   -4.6596 H   0  0  0  0  0  0  0  0  0  0  0  0
   -8.8161    1.3599   -3.8743 H   0  0  0  0  0  0  0  0  0  0  0  0
   -6.1929    1.1336   -0.5022 H   0  0  0  0  0  0  0  0  0  0  0  0
   -2.6831   -4.5054    2.5109 H   0  0  0  0  0  0  0  0  0  0  0  0
   -0.3960   -5.3138    3.1681 H   0  0  0  0  0  0  0  0  0  0  0  0
    1.5111   -3.0494    0.2724 H   0  0  0  0  0  0  0  0  0  0  0  0
   -1.4325    1.7645   -1.6239 H   0  0  0  0  0  0  0  0  0  0  0  0
   -0.7925    2.8371   -0.3720 H   0  0  0  0  0  0  0  0  0  0  0  0
   -1.7109    1.3967    0.0910 H   0  0  0  0  0  0  0  0  0  0  0  0
    3.1300    3.0013    0.9343 H   0  0  0  0  0  0  0  0  0  0  0  0
    3.7478    4.3608    2.8070 H   0  0  0  0  0  0  0  0  0  0  0  0
    4.0665    5.0776    1.1783 H   0  0  0  0  0  0  0  0  0  0  0  0
    4.9502    5.6419    2.6006 H   0  0  0  0  0  0  0  0  0  0  0  0
  1  2  1  0
  2  3  1  0
  3  4  2  0
  4  5  1  0
  5  6  2  0
  6  7  1  0
  7  8  2  0
  8  9  1  0
  9 10  1  0
 10 11  1  0
 11 12  1  0
 12 13  1  0
 13 14  1  0
 14 15  1  0
 15 16  2  0
 16 17  1  0
 17 18  2  0
 18 19  1  0
 19 20  1  0
 19 21  2  0
 12 22  2  0
 22 23  1  0
 23 24  2  0
 24 25  1  0
 25 26  2  0
 26 27  1  0
 27 28  2  0
  9 29  2  0
 29 30  1  0
 29 31  1  0
  6 32  1  0
 32 33  2  0
 33 34  1  0
 34 35  1  0
 33  3  1  0
 31  7  1  0
 28 11  1  0
 21 15  1  0
 28 23  1  0
  1 36  1  0
  1 37  1  0
  1 38  1  0
  4 39  1  0
  5 40  1  0
 10 41  1  0
 10 42  1  0
 14 43  1  0
 14 44  1  0
 16 45  1  0
 17 46  1  0
 18 47  1  0
 21 48  1  0
 24 49  1  0
 25 50  1  0
 27 51  1  0
 30 52  1  0
 30 53  1  0
 30 54  1  0
 32 55  1  0
 35 56  1  0
 35 57  1  0
 35 58  1  0
M  END
$$$$
