
     RDKit          3D

 44 45  0  0  0  0  0  0  0  0999 V2000
    7.5880    1.6040    2.0849 C   0  0  0  0  0  0  0  0  0  0  0  0
    7.6609    0.8623    0.7648 C   0  0  0  0  0  0  0  0  0  0  0  0
    6.3467    0.6853    0.2164 O   0  0  0  0  0  0  0  0  0  0  0  0
    5.6640   -0.3998    0.6644 C   0  0  0  0  0  0  0  0  0  0  0  0
    6.0587   -1.2090    1.4893 O   0  0  0  0  0  0  0  0  0  0  0  0
    4.3356   -0.4916    0.0004 C   0  0  0  0  0  0  0  0  0  0  0  0
    3.5857   -1.6637    0.1815 C   0  0  0  0  0  0  0  0  0  0  0  0
    2.3325   -1.8009   -0.4194 C   0  0  0  0  0  0  0  0  0  0  0  0
    1.8215   -0.7524   -1.1905 C   0  0  0  0  0  0  0  0  0  0  0  0
    0.2307   -0.9358   -1.9566 S   0  0  0  0  0  6  0  0  0  0  0  0
   -0.0541    0.2624   -2.7293 O   0  0  0  0  0  0  0  0  0  0  0  0
    0.1639   -2.2553   -2.5280 O   0  0  0  0  0  0  0  0  0  0  0  0
   -0.8004   -0.8906   -0.5729 N   0  0  0  0  0  0  0  0  0  0  0  0
   -1.9143    0.0043   -0.7692 N   0  0  0  0  0  0  0  0  0  0  0  0
   -3.2636   -0.8119   -1.4928 S   0  0  0  0  0  6  0  0  0  0  0  0
   -3.4709   -0.2337   -2.8049 O   0  0  0  0  0  0  0  0  0  0  0  0
   -3.0437   -2.2305   -1.2792 O   0  0  0  0  0  0  0  0  0  0  0  0
   -4.5842   -0.2756   -0.4391 C   0  0  0  0  0  0  0  0  0  0  0  0
   -5.3173   -1.2163    0.2933 C   0  0  0  0  0  0  0  0  0  0  0  0
   -6.3534   -0.7795    1.1208 C   0  0  0  0  0  0  0  0  0  0  0  0
   -6.6531    0.5881    1.2275 C   0  0  0  0  0  0  0  0  0  0  0  0
   -7.7840    1.0606    2.0946 C   0  0  0  0  0  0  0  0  0  0  0  0
   -5.9225    1.5176    0.4689 C   0  0  0  0  0  0  0  0  0  0  0  0
   -4.8880    1.0888   -0.3633 C   0  0  0  0  0  0  0  0  0  0  0  0
    2.5604    0.4169   -1.3845 C   0  0  0  0  0  0  0  0  0  0  0  0
    3.8181    0.5452   -0.7870 C   0  0  0  0  0  0  0  0  0  0  0  0
    8.5949    1.7869    2.4865 H   0  0  0  0  0  0  0  0  0  0  0  0
    7.0127    1.0354    2.8261 H   0  0  0  0  0  0  0  0  0  0  0  0
    7.0787    2.5638    1.9539 H   0  0  0  0  0  0  0  0  0  0  0  0
    8.1756   -0.0981    0.8718 H   0  0  0  0  0  0  0  0  0  0  0  0
    8.2329    1.4538    0.0437 H   0  0  0  0  0  0  0  0  0  0  0  0
    3.9807   -2.4772    0.7864 H   0  0  0  0  0  0  0  0  0  0  0  0
    1.7707   -2.7224   -0.2877 H   0  0  0  0  0  0  0  0  0  0  0  0
   -1.1171   -1.8613   -0.3907 H   0  0  0  0  0  0  0  0  0  0  0  0
   -1.6731    0.7836   -1.4121 H   0  0  0  0  0  0  0  0  0  0  0  0
   -5.0977   -2.2811    0.2239 H   0  0  0  0  0  0  0  0  0  0  0  0
   -6.9252   -1.5164    1.6817 H   0  0  0  0  0  0  0  0  0  0  0  0
   -8.0133    0.3342    2.8802 H   0  0  0  0  0  0  0  0  0  0  0  0
   -7.5174    2.0032    2.5859 H   0  0  0  0  0  0  0  0  0  0  0  0
   -8.6801    1.2132    1.4889 H   0  0  0  0  0  0  0  0  0  0  0  0
   -6.1592    2.5811    0.5197 H   0  0  0  0  0  0  0  0  0  0  0  0
   -4.3356    1.8210   -0.9474 H   0  0  0  0  0  0  0  0  0  0  0  0
    2.1730    1.2281   -2.0005 H   0  0  0  0  0  0  0  0  0  0  0  0
    4.3824    1.4631   -0.9409 H   0  0  0  0  0  0  0  0  0  0  0  0
  1  2  1  0
  2  3  1  0
  3  4  1  0
  4  5  2  0
  4  6  1  0
  6  7  2  0
  7  8  1  0
  8  9  2  0
  9 10  1  0
 10 11  2  0
 10 12  2  0
 10 13  1  0
 13 14  1  0
 14 15  1  0
 15 16  2  0
 15 17  2  0
 15 18  1  0
 18 19  2  0
 19 20  1  0
 20 21  2  0
 21 22  1  0
 21 23  1  0
 23 24  2  0
  9 25  1  0
 25 26  2  0
 26  6  1  0
 24 18  1  0
  1 27  1  0
  1 28  1  0
  1 29  1  0
  2 30  1  0
  2 31  1  0
  7 32  1  0
  8 33  1  0
 13 34  1  0
 14 35  1  0
 19 36  1  0
 20 37  1  0
 22 38  1  0
 22 39  1  0
 22 40  1  0
 23 41  1  0
 24 42  1  0
 25 43  1  0
 26 44  1  0
M  END
$$$$
