
     RDKit          3D

 41 43  0  0  0  0  0  0  0  0999 V2000
    7.9965    0.6917    1.7350 C   0  0  0  0  0  0  0  0  0  0  0  0
    6.6858    0.5029    1.5153 C   0  0  0  0  0  0  0  0  0  0  0  0
    6.0052    1.2406    0.4589 C   0  0  0  0  0  0  0  0  0  0  0  0
    4.6884    1.0642    0.2444 C   0  0  0  0  0  0  0  0  0  0  0  0
    3.8946    0.1256    1.0683 C   0  0  0  0  0  0  0  0  0  0  0  0
    2.5628   -0.0357    0.8644 C   0  0  0  0  0  0  0  0  0  0  0  0
    1.8306    0.6267   -0.0836 N   0  0  0  0  0  0  0  0  0  0  0  0
    0.4873    0.3693   -0.1745 C   0  0  0  0  0  0  0  0  0  0  0  0
   -0.2515    0.9143   -0.9766 O   0  0  0  0  0  0  0  0  0  0  0  0
    0.1219   -0.6490    0.8471 C   0  0  0  0  0  0  0  0  0  0  0  0
   -1.0884   -1.1710    1.0942 C   0  0  0  0  0  0  0  0  0  0  0  0
   -2.3342   -0.8629    0.3877 C   0  0  0  0  0  0  0  0  0  0  0  0
   -3.3976   -0.2860    1.0916 C   0  0  0  0  0  0  0  0  0  0  0  0
   -4.6147   -0.0127    0.4528 C   0  0  0  0  0  0  0  0  0  0  0  0
   -4.7855   -0.3137   -0.9007 C   0  0  0  0  0  0  0  0  0  0  0  0
   -5.9307   -0.0934   -1.6190 O   0  0  0  0  0  0  0  0  0  0  0  0
   -7.0595    0.3989   -0.9101 C   0  0  0  0  0  0  0  0  0  0  0  0
   -3.7099   -0.8816   -1.6005 C   0  0  0  0  0  0  0  0  0  0  0  0
   -3.8292   -1.2249   -2.9259 O   0  0  0  0  0  0  0  0  0  0  0  0
   -3.5059   -0.0975   -3.7409 C   0  0  0  0  0  0  0  0  0  0  0  0
   -2.5038   -1.1799   -0.9613 C   0  0  0  0  0  0  0  0  0  0  0  0
    1.5231   -1.1095    1.7707 S   0  0  0  0  0  0  0  0  0  0  0  0
    4.6177   -0.6278    2.1168 C   0  0  0  0  0  0  0  0  0  0  0  0
    5.9342   -0.4471    2.3263 C   0  0  0  0  0  0  0  0  0  0  0  0
    8.5287    0.1545    2.5134 H   0  0  0  0  0  0  0  0  0  0  0  0
    8.5824    1.3906    1.1452 H   0  0  0  0  0  0  0  0  0  0  0  0
    6.5737    1.9327   -0.1534 H   0  0  0  0  0  0  0  0  0  0  0  0
    4.2209    1.6287   -0.5517 H   0  0  0  0  0  0  0  0  0  0  0  0
    2.2183    1.3056   -0.7191 H   0  0  0  0  0  0  0  0  0  0  0  0
   -1.2093   -1.8909    1.9012 H   0  0  0  0  0  0  0  0  0  0  0  0
   -3.2897   -0.0401    2.1464 H   0  0  0  0  0  0  0  0  0  0  0  0
   -5.4064    0.4364    1.0434 H   0  0  0  0  0  0  0  0  0  0  0  0
   -6.8689    1.4015   -0.5129 H   0  0  0  0  0  0  0  0  0  0  0  0
   -7.3613   -0.2919   -0.1154 H   0  0  0  0  0  0  0  0  0  0  0  0
   -7.8911    0.4750   -1.6172 H   0  0  0  0  0  0  0  0  0  0  0  0
   -2.4533    0.1855   -3.6173 H   0  0  0  0  0  0  0  0  0  0  0  0
   -4.1579    0.7579   -3.5304 H   0  0  0  0  0  0  0  0  0  0  0  0
   -3.6567   -0.3879   -4.7850 H   0  0  0  0  0  0  0  0  0  0  0  0
   -1.7034   -1.6442   -1.5305 H   0  0  0  0  0  0  0  0  0  0  0  0
    4.0891   -1.3456    2.7351 H   0  0  0  0  0  0  0  0  0  0  0  0
    6.4479   -1.0095    3.0999 H   0  0  0  0  0  0  0  0  0  0  0  0
  1  2  2  0
  2  3  1  0
  3  4  2  0
  4  5  1  0
  5  6  2  3
  6  7  1  0
  7  8  1  0
  8  9  2  0
  8 10  1  0
 10 11  2  3
 11 12  1  0
 12 13  2  0
 13 14  1  0
 14 15  2  0
 15 16  1  0
 16 17  1  0
 15 18  1  0
 18 19  1  0
 19 20  1  0
 18 21  2  0
 10 22  1  0
  5 23  1  0
 23 24  2  0
 24  2  1  0
 22  6  1  0
 21 12  1  0
  1 25  1  0
  1 26  1  0
  3 27  1  0
  4 28  1  0
  7 29  1  0
 11 30  1  0
 13 31  1  0
 14 32  1  0
 17 33  1  0
 17 34  1  0
 17 35  1  0
 20 36  1  0
 20 37  1  0
 20 38  1  0
 21 39  1  0
 23 40  1  0
 24 41  1  0
M  END
$$$$
