
     RDKit          3D

 49 53  0  0  0  0  0  0  0  0999 V2000
    5.1980    1.9928    2.6523 C   0  0  0  0  0  0  0  0  0  0  0  0
    3.9603    1.1873    2.8835 C   0  0  0  0  0  0  0  0  0  0  0  0
    3.0113    1.4984    4.2672 S   0  0  0  0  0  0  0  0  0  0  0  0
    1.8702    0.3208    3.8372 C   0  0  0  0  0  0  0  0  0  0  0  0
    0.7980    0.1211    4.6251 N   0  0  0  0  0  0  0  0  0  0  0  0
   -0.0069   -0.8325    4.1669 C   0  0  0  0  0  0  0  0  0  0  0  0
    0.1407   -1.5424    3.0447 N   0  0  0  0  0  0  0  0  0  0  0  0
    1.2328   -1.3120    2.2833 C   0  0  0  0  0  0  0  0  0  0  0  0
    1.4026   -2.2965    0.8251 S   0  0  0  0  0  0  0  0  0  0  0  0
   -0.1716   -1.8581   -0.0179 C   0  0  0  0  0  0  0  0  0  0  0  0
   -0.4155   -2.8977   -1.1096 C   0  0  0  0  0  0  0  0  0  0  0  0
   -0.0984   -0.4411   -0.6273 C   0  0  0  0  0  0  0  0  0  0  0  0
    0.9357    0.2253   -0.6967 O   0  0  0  0  0  0  0  0  0  0  0  0
   -1.3230   -0.0044   -1.1591 N   0  0  0  0  0  0  0  0  0  0  0  0
   -2.3518    0.4635   -0.2652 C   0  0  0  0  0  0  0  0  0  0  0  0
   -2.0377    0.6863    1.0934 C   0  0  0  0  0  0  0  0  0  0  0  0
   -2.9892    1.1359    2.0118 C   0  0  0  0  0  0  0  0  0  0  0  0
   -4.2855    1.3849    1.5932 C   0  0  0  0  0  0  0  0  0  0  0  0
   -4.6179    1.1939    0.2574 C   0  0  0  0  0  0  0  0  0  0  0  0
   -3.6622    0.7460   -0.6735 C   0  0  0  0  0  0  0  0  0  0  0  0
   -4.2317    0.5493   -2.3330 S   0  0  0  0  0  0  0  0  0  0  0  0
   -2.6950    0.4222   -3.2063 C   0  0  0  0  0  0  0  0  0  0  0  0
   -2.7752    0.5349   -4.6079 C   0  0  0  0  0  0  0  0  0  0  0  0
   -1.6489    0.3761   -5.4104 C   0  0  0  0  0  0  0  0  0  0  0  0
   -0.4300    0.0947   -4.8172 C   0  0  0  0  0  0  0  0  0  0  0  0
   -0.3437   -0.0197   -3.4266 C   0  0  0  0  0  0  0  0  0  0  0  0
   -1.4665    0.1522   -2.5846 C   0  0  0  0  0  0  0  0  0  0  0  0
    2.1822   -0.3440    2.6586 C   0  0  0  0  0  0  0  0  0  0  0  0
    3.4391    0.1587    2.1084 C   0  0  0  0  0  0  0  0  0  0  0  0
    4.0935   -0.3423    0.8575 C   0  0  0  0  0  0  0  0  0  0  0  0
    5.3209    2.7908    3.3890 H   0  0  0  0  0  0  0  0  0  0  0  0
    5.1651    2.4589    1.6635 H   0  0  0  0  0  0  0  0  0  0  0  0
    6.0854    1.3486    2.7074 H   0  0  0  0  0  0  0  0  0  0  0  0
   -0.8844   -1.0524    4.7648 H   0  0  0  0  0  0  0  0  0  0  0  0
   -0.9926   -1.9159    0.7010 H   0  0  0  0  0  0  0  0  0  0  0  0
    0.3555   -2.8591   -1.8854 H   0  0  0  0  0  0  0  0  0  0  0  0
   -1.3771   -2.7280   -1.6029 H   0  0  0  0  0  0  0  0  0  0  0  0
   -0.4431   -3.9125   -0.6991 H   0  0  0  0  0  0  0  0  0  0  0  0
   -1.0265    0.5538    1.4689 H   0  0  0  0  0  0  0  0  0  0  0  0
   -2.7062    1.3022    3.0476 H   0  0  0  0  0  0  0  0  0  0  0  0
   -5.0328    1.7392    2.2958 H   0  0  0  0  0  0  0  0  0  0  0  0
   -5.6379    1.4050   -0.0595 H   0  0  0  0  0  0  0  0  0  0  0  0
   -3.7307    0.7386   -5.0883 H   0  0  0  0  0  0  0  0  0  0  0  0
   -1.7269    0.4629   -6.4901 H   0  0  0  0  0  0  0  0  0  0  0  0
    0.4604   -0.0352   -5.4285 H   0  0  0  0  0  0  0  0  0  0  0  0
    0.6441   -0.2324   -3.0239 H   0  0  0  0  0  0  0  0  0  0  0  0
    3.4718   -0.1327   -0.0161 H   0  0  0  0  0  0  0  0  0  0  0  0
    4.2764   -1.4178    0.9250 H   0  0  0  0  0  0  0  0  0  0  0  0
    5.0652    0.1322    0.6853 H   0  0  0  0  0  0  0  0  0  0  0  0
  1  2  1  0
  2  3  1  0
  3  4  1  0
  4  5  2  0
  5  6  1  0
  6  7  2  0
  7  8  1  0
  8  9  1  0
  9 10  1  0
 10 11  1  0
 10 12  1  0
 12 13  2  0
 12 14  1  0
 14 15  1  0
 15 16  2  0
 16 17  1  0
 17 18  2  0
 18 19  1  0
 19 20  2  0
 20 21  1  0
 21 22  1  0
 22 23  2  0
 23 24  1  0
 24 25  2  0
 25 26  1  0
 26 27  2  0
  8 28  2  0
 28 29  1  0
 29 30  1  0
 29  2  2  0
 28  4  1  0
 27 14  1  0
 20 15  1  0
 27 22  1  0
  1 31  1  0
  1 32  1  0
  1 33  1  0
  6 34  1  0
 10 35  1  0
 11 36  1  0
 11 37  1  0
 11 38  1  0
 16 39  1  0
 17 40  1  0
 18 41  1  0
 19 42  1  0
 23 43  1  0
 24 44  1  0
 25 45  1  0
 26 46  1  0
 30 47  1  0
 30 48  1  0
 30 49  1  0
M  END
$$$$
