
     RDKit          3D

 51 54  0  0  0  0  0  0  0  0999 V2000
    2.1417    0.8328    0.4301 O   0  0  0  0  0  0  0  0  0  0  0  0
    2.8615    0.0242   -0.1513 C   0  0  0  0  0  0  0  0  0  0  0  0
    2.3023   -0.9377   -1.2105 C   0  0  0  0  0  0  0  0  0  0  0  0
    0.8635   -1.0264   -1.1053 N   0  0  0  0  0  0  0  0  0  0  0  0
    0.2841   -1.9069   -0.2213 C   0  0  0  0  0  0  0  0  0  0  0  0
    0.8618   -2.8064    0.3675 O   0  0  0  0  0  0  0  0  0  0  0  0
   -1.1978   -1.6493    0.0091 C   0  0  0  0  0  0  0  0  0  0  0  0
   -1.9422   -1.6264   -1.0562 N   0  0  0  0  0  0  0  0  0  0  0  0
   -3.2904   -1.3769   -0.9182 N   0  0  0  0  0  0  0  0  0  0  0  0
   -4.0621   -1.2981   -2.1559 C   0  0  0  0  0  0  0  0  0  0  0  0
   -3.9294    0.0545   -2.8179 C   0  0  0  0  0  0  0  0  0  0  0  0
   -4.7708    1.1132   -2.4471 C   0  0  0  0  0  0  0  0  0  0  0  0
   -4.6356    2.3671   -3.0447 C   0  0  0  0  0  0  0  0  0  0  0  0
   -3.6552    2.5769   -4.0130 C   0  0  0  0  0  0  0  0  0  0  0  0
   -2.8056    1.5351   -4.3817 C   0  0  0  0  0  0  0  0  0  0  0  0
   -2.9388    0.2807   -3.7845 C   0  0  0  0  0  0  0  0  0  0  0  0
   -3.9203   -1.1333    0.2990 C   0  0  0  0  0  0  0  0  0  0  0  0
   -5.1206   -0.8997    0.4226 O   0  0  0  0  0  0  0  0  0  0  0  0
   -3.0626   -1.1585    1.4995 C   0  0  0  0  0  0  0  0  0  0  0  0
   -3.6158   -0.9139    2.7639 C   0  0  0  0  0  0  0  0  0  0  0  0
   -2.7991   -0.9165    3.8944 C   0  0  0  0  0  0  0  0  0  0  0  0
   -1.4326   -1.1583    3.7629 C   0  0  0  0  0  0  0  0  0  0  0  0
   -0.8797   -1.4019    2.5028 C   0  0  0  0  0  0  0  0  0  0  0  0
   -1.7008   -1.4089    1.3684 C   0  0  0  0  0  0  0  0  0  0  0  0
    4.2293   -0.1098    0.0137 N   0  0  0  0  0  0  0  0  0  0  0  0
    5.0696    0.6231    0.8815 C   0  0  0  0  0  0  0  0  0  0  0  0
    4.6334    1.6512    1.7227 C   0  0  0  0  0  0  0  0  0  0  0  0
    5.5452    2.3213    2.5485 C   0  0  0  0  0  0  0  0  0  0  0  0
    6.8902    1.9645    2.5324 C   0  0  0  0  0  0  0  0  0  0  0  0
    7.7512    2.6145    3.3266 F   0  0  0  0  0  0  0  0  0  0  0  0
    7.3364    0.9479    1.7024 C   0  0  0  0  0  0  0  0  0  0  0  0
    8.6328    0.6076    1.6865 F   0  0  0  0  0  0  0  0  0  0  0  0
    6.4310    0.2843    0.8845 C   0  0  0  0  0  0  0  0  0  0  0  0
    6.8617   -0.6995    0.0769 F   0  0  0  0  0  0  0  0  0  0  0  0
    2.5426   -0.5442   -2.2023 H   0  0  0  0  0  0  0  0  0  0  0  0
    2.7469   -1.9302   -1.0871 H   0  0  0  0  0  0  0  0  0  0  0  0
    0.3022   -0.2311   -1.3941 H   0  0  0  0  0  0  0  0  0  0  0  0
   -3.7139   -2.0899   -2.8307 H   0  0  0  0  0  0  0  0  0  0  0  0
   -5.1195   -1.5084   -1.9562 H   0  0  0  0  0  0  0  0  0  0  0  0
   -5.5342    0.9639   -1.6848 H   0  0  0  0  0  0  0  0  0  0  0  0
   -5.2941    3.1804   -2.7513 H   0  0  0  0  0  0  0  0  0  0  0  0
   -3.5514    3.5540   -4.4772 H   0  0  0  0  0  0  0  0  0  0  0  0
   -2.0382    1.7002   -5.1330 H   0  0  0  0  0  0  0  0  0  0  0  0
   -2.2636   -0.5228   -4.0709 H   0  0  0  0  0  0  0  0  0  0  0  0
   -4.6812   -0.7175    2.8688 H   0  0  0  0  0  0  0  0  0  0  0  0
   -3.2281   -0.7264    4.8756 H   0  0  0  0  0  0  0  0  0  0  0  0
   -0.7940   -1.1571    4.6440 H   0  0  0  0  0  0  0  0  0  0  0  0
    0.1903   -1.5836    2.4355 H   0  0  0  0  0  0  0  0  0  0  0  0
    4.6987   -0.8369   -0.5206 H   0  0  0  0  0  0  0  0  0  0  0  0
    3.5921    1.9584    1.7625 H   0  0  0  0  0  0  0  0  0  0  0  0
    5.2092    3.1206    3.2034 H   0  0  0  0  0  0  0  0  0  0  0  0
  1  2  2  0
  2  3  1  0
  3  4  1  0
  4  5  1  0
  5  6  2  0
  5  7  1  0
  7  8  2  0
  8  9  1  0
  9 10  1  0
 10 11  1  0
 11 12  2  0
 12 13  1  0
 13 14  2  0
 14 15  1  0
 15 16  2  0
  9 17  1  0
 17 18  2  0
 17 19  1  0
 19 20  2  0
 20 21  1  0
 21 22  2  0
 22 23  1  0
 23 24  2  0
  2 25  1  0
 25 26  1  0
 26 27  2  0
 27 28  1  0
 28 29  2  0
 29 30  1  0
 29 31  1  0
 31 32  1  0
 31 33  2  0
 33 34  1  0
 24  7  1  0
 33 26  1  0
 16 11  1  0
 24 19  1  0
  3 35  1  0
  3 36  1  0
  4 37  1  0
 10 38  1  0
 10 39  1  0
 12 40  1  0
 13 41  1  0
 14 42  1  0
 15 43  1  0
 16 44  1  0
 20 45  1  0
 21 46  1  0
 22 47  1  0
 23 48  1  0
 25 49  1  0
 27 50  1  0
 28 51  1  0
M  END
$$$$
