
     RDKit          3D

 61 67  0  0  0  0  0  0  0  0999 V2000
    3.6125   -2.8863    1.1275 O   0  0  0  0  0  0  0  0  0  0  0  0
    3.2811   -1.7644    0.7538 C   0  0  0  0  0  0  0  0  0  0  0  0
    4.3523   -0.8440    0.3252 C   0  0  0  0  0  0  0  0  0  0  0  0
    4.3992   -0.3953   -1.0126 C   0  0  0  0  0  0  0  0  0  0  0  0
    5.4253    0.4565   -1.4298 C   0  0  0  0  0  0  0  0  0  0  0  0
    6.3760    0.8164   -0.4966 C   0  0  0  0  0  0  0  0  0  0  0  0
    6.3359    0.3584    0.8020 C   0  0  0  0  0  0  0  0  0  0  0  0
    5.3398   -0.4824    1.2476 C   0  0  0  0  0  0  0  0  0  0  0  0
    7.3710    0.8285    1.5484 O   0  0  0  0  0  0  0  0  0  0  0  0
    8.0805    1.6149    0.5684 C   0  0  0  0  0  0  0  0  0  0  0  0
    7.4411    1.6305   -0.7255 O   0  0  0  0  0  0  0  0  0  0  0  0
    1.9574   -1.3318    0.6974 N   0  0  0  0  0  0  0  0  0  0  0  0
    0.9273   -2.3116    1.0196 C   0  0  0  0  0  0  0  0  0  0  0  0
   -0.4869   -1.7335    0.9626 C   0  0  0  0  0  0  0  0  0  0  0  0
   -0.7103   -0.8832   -0.3160 C   0  0  0  0  0  0  0  0  0  0  0  0
    0.4201    0.1781   -0.4792 C   0  0  0  0  0  0  0  0  0  0  0  0
    1.5256    0.0525    0.5666 C   0  0  0  0  0  0  0  0  0  0  0  0
   -0.5696   -1.8592   -1.3878 O   0  0  0  0  0  0  0  0  0  0  0  0
   -1.1066   -1.5585   -2.6035 C   0  0  0  0  0  0  0  0  0  0  0  0
   -0.7323   -2.3901   -3.6607 C   0  0  0  0  0  0  0  0  0  0  0  0
   -1.2112   -2.1418   -4.9482 C   0  0  0  0  0  0  0  0  0  0  0  0
   -2.0632   -1.0642   -5.1685 C   0  0  0  0  0  0  0  0  0  0  0  0
   -2.5155   -0.8254   -6.4059 F   0  0  0  0  0  0  0  0  0  0  0  0
   -2.4533   -0.2351   -4.1252 C   0  0  0  0  0  0  0  0  0  0  0  0
   -1.9768   -0.4987   -2.8385 C   0  0  0  0  0  0  0  0  0  0  0  0
   -2.3833    0.3411   -1.7051 C   0  0  0  0  0  0  0  0  0  0  0  0
   -2.8799    1.4449   -1.9138 O   0  0  0  0  0  0  0  0  0  0  0  0
   -2.1276   -0.2401   -0.3194 C   0  0  0  0  0  0  0  0  0  0  0  0
   -2.3673    0.7999    0.7680 C   0  0  0  0  0  0  0  0  0  0  0  0
   -3.7429    0.4022    1.1803 C   0  0  0  0  0  0  0  0  0  0  0  0
   -4.5676    1.2419    2.0821 C   0  0  0  0  0  0  0  0  0  0  0  0
   -5.8620    0.8165    2.4079 C   0  0  0  0  0  0  0  0  0  0  0  0
   -6.6618    1.5811    3.2594 C   0  0  0  0  0  0  0  0  0  0  0  0
   -6.1732    2.7736    3.7898 C   0  0  0  0  0  0  0  0  0  0  0  0
   -4.8856    3.2028    3.4701 C   0  0  0  0  0  0  0  0  0  0  0  0
   -4.0813    2.4399    2.6186 C   0  0  0  0  0  0  0  0  0  0  0  0
   -4.1408   -0.7404    0.7197 N   0  0  0  0  0  0  0  0  0  0  0  0
   -3.1167   -1.2589   -0.0991 O   0  0  0  0  0  0  0  0  0  0  0  0
    3.6428   -0.7218   -1.7227 H   0  0  0  0  0  0  0  0  0  0  0  0
    5.4823    0.8141   -2.4519 H   0  0  0  0  0  0  0  0  0  0  0  0
    5.3264   -0.8524    2.2666 H   0  0  0  0  0  0  0  0  0  0  0  0
    9.0918    1.2069    0.4554 H   0  0  0  0  0  0  0  0  0  0  0  0
    8.1557    2.6454    0.9342 H   0  0  0  0  0  0  0  0  0  0  0  0
    1.0335   -3.1494    0.3195 H   0  0  0  0  0  0  0  0  0  0  0  0
    1.1245   -2.7067    2.0235 H   0  0  0  0  0  0  0  0  0  0  0  0
   -1.1932   -2.5719    1.0016 H   0  0  0  0  0  0  0  0  0  0  0  0
   -0.6543   -1.1366    1.8652 H   0  0  0  0  0  0  0  0  0  0  0  0
    0.0236    1.1982   -0.4196 H   0  0  0  0  0  0  0  0  0  0  0  0
    0.8792    0.0858   -1.4720 H   0  0  0  0  0  0  0  0  0  0  0  0
    2.3508    0.7225    0.3171 H   0  0  0  0  0  0  0  0  0  0  0  0
    1.1630    0.3759    1.5504 H   0  0  0  0  0  0  0  0  0  0  0  0
   -0.0625   -3.2286   -3.4831 H   0  0  0  0  0  0  0  0  0  0  0  0
   -0.9250   -2.7797   -5.7791 H   0  0  0  0  0  0  0  0  0  0  0  0
   -3.1275    0.5941   -4.3185 H   0  0  0  0  0  0  0  0  0  0  0  0
   -2.3217    1.8333    0.4167 H   0  0  0  0  0  0  0  0  0  0  0  0
   -1.7056    0.6951    1.6312 H   0  0  0  0  0  0  0  0  0  0  0  0
   -6.2576   -0.1121    2.0001 H   0  0  0  0  0  0  0  0  0  0  0  0
   -7.6660    1.2450    3.5064 H   0  0  0  0  0  0  0  0  0  0  0  0
   -6.7974    3.3693    4.4516 H   0  0  0  0  0  0  0  0  0  0  0  0
   -4.5083    4.1350    3.8843 H   0  0  0  0  0  0  0  0  0  0  0  0
   -3.0843    2.8036    2.3911 H   0  0  0  0  0  0  0  0  0  0  0  0
  1  2  2  0
  2  3  1  0
  3  4  2  0
  4  5  1  0
  5  6  2  0
  6  7  1  0
  7  8  2  0
  7  9  1  0
  9 10  1  0
 10 11  1  0
  2 12  1  0
 12 13  1  0
 13 14  1  0
 14 15  1  0
 15 16  1  0
 16 17  1  0
 15 18  1  0
 18 19  1  0
 19 20  2  0
 20 21  1  0
 21 22  2  0
 22 23  1  0
 22 24  1  0
 24 25  2  0
 25 26  1  0
 26 27  2  0
 26 28  1  0
 28 29  1  0
 29 30  1  0
 30 31  1  0
 31 32  2  0
 32 33  1  0
 33 34  2  0
 34 35  1  0
 35 36  2  0
 30 37  2  0
 37 38  1  0
  8  3  1  0
 17 12  1  0
 25 19  1  0
 38 28  1  0
 11  6  1  0
 28 15  1  0
 36 31  1  0
  4 39  1  0
  5 40  1  0
  8 41  1  0
 10 42  1  0
 10 43  1  0
 13 44  1  0
 13 45  1  0
 14 46  1  0
 14 47  1  0
 16 48  1  0
 16 49  1  0
 17 50  1  0
 17 51  1  0
 20 52  1  0
 21 53  1  0
 24 54  1  0
 29 55  1  0
 29 56  1  0
 32 57  1  0
 33 58  1  0
 34 59  1  0
 35 60  1  0
 36 61  1  0
M  END
$$$$
