
     RDKit          3D

 45 47  0  0  0  0  0  0  0  0999 V2000
   -3.3538    0.4250   -1.1734 O   0  0  0  0  0  0  0  0  0  0  0  0
   -3.1491    0.3242    0.0355 C   0  0  0  0  0  0  0  0  0  0  0  0
   -4.2761    0.1863    1.0524 C   0  0  0  0  0  0  0  0  0  0  0  0
   -5.6642    0.1905    0.4536 C   0  0  0  0  0  0  0  0  0  0  0  0
   -6.2683   -1.0100    0.0513 C   0  0  0  0  0  0  0  0  0  0  0  0
   -7.5462   -1.0042   -0.5125 C   0  0  0  0  0  0  0  0  0  0  0  0
   -8.2231    0.2013   -0.6821 C   0  0  0  0  0  0  0  0  0  0  0  0
   -9.7978    0.2073   -1.3759 Cl  0  0  0  0  0  0  0  0  0  0  0  0
   -7.6323    1.4020   -0.2957 C   0  0  0  0  0  0  0  0  0  0  0  0
   -6.3545    1.3975    0.2682 C   0  0  0  0  0  0  0  0  0  0  0  0
   -1.7718    0.3336    0.5430 C   0  0  0  0  0  0  0  0  0  0  0  0
   -1.3552    0.2218    1.8560 C   0  0  0  0  0  0  0  0  0  0  0  0
    0.0140    0.2770    1.8808 N   0  0  0  0  0  0  0  0  0  0  0  0
    0.5145    0.4258    0.6049 C   0  0  0  0  0  0  0  0  0  0  0  0
    1.9386    0.5096    0.3657 C   0  0  0  0  0  0  0  0  0  0  0  0
    2.7554    0.4037    1.2749 O   0  0  0  0  0  0  0  0  0  0  0  0
    2.3086    0.7032   -0.9430 N   0  0  0  0  0  0  0  0  0  0  0  0
    3.6869    0.8689   -1.3613 C   0  0  0  0  0  0  0  0  0  0  0  0
    4.2965   -0.4371   -1.8696 C   0  0  0  0  0  0  0  0  0  0  0  0
    4.7577   -1.3861   -0.7616 C   0  0  0  0  0  0  0  0  0  0  0  0
    5.9776   -0.9549   -0.1089 N   0  0  0  0  0  0  0  0  0  0  0  0
    7.2442   -1.0873   -0.6081 C   0  0  0  0  0  0  0  0  0  0  0  0
    8.0642   -0.5628    0.3631 C   0  0  0  0  0  0  0  0  0  0  0  0
    7.3302   -0.1277    1.4353 N   0  0  0  0  0  0  0  0  0  0  0  0
    6.0780   -0.3851    1.1273 C   0  0  0  0  0  0  0  0  0  0  0  0
   -0.5828    0.4618   -0.2390 C   0  0  0  0  0  0  0  0  0  0  0  0
   -4.1323   -0.7478    1.6093 H   0  0  0  0  0  0  0  0  0  0  0  0
   -4.1988    1.0088    1.7743 H   0  0  0  0  0  0  0  0  0  0  0  0
   -5.7462   -1.9574    0.1670 H   0  0  0  0  0  0  0  0  0  0  0  0
   -8.0036   -1.9401   -0.8216 H   0  0  0  0  0  0  0  0  0  0  0  0
   -8.1567    2.3433   -0.4358 H   0  0  0  0  0  0  0  0  0  0  0  0
   -5.9001    2.3437    0.5544 H   0  0  0  0  0  0  0  0  0  0  0  0
   -1.9049    0.1074    2.7813 H   0  0  0  0  0  0  0  0  0  0  0  0
    0.6006    0.2220    2.7063 H   0  0  0  0  0  0  0  0  0  0  0  0
    1.5860    0.8086   -1.6410 H   0  0  0  0  0  0  0  0  0  0  0  0
    3.6635    1.5941   -2.1822 H   0  0  0  0  0  0  0  0  0  0  0  0
    4.2765    1.3081   -0.5510 H   0  0  0  0  0  0  0  0  0  0  0  0
    5.1496   -0.1946   -2.5155 H   0  0  0  0  0  0  0  0  0  0  0  0
    3.5630   -0.9586   -2.4972 H   0  0  0  0  0  0  0  0  0  0  0  0
    4.9744   -2.3707   -1.1942 H   0  0  0  0  0  0  0  0  0  0  0  0
    3.9888   -1.5377    0.0014 H   0  0  0  0  0  0  0  0  0  0  0  0
    7.4527   -1.5256   -1.5736 H   0  0  0  0  0  0  0  0  0  0  0  0
    9.1429   -0.4783    0.3495 H   0  0  0  0  0  0  0  0  0  0  0  0
    5.2199   -0.1767    1.7542 H   0  0  0  0  0  0  0  0  0  0  0  0
   -0.5664    0.5673   -1.3169 H   0  0  0  0  0  0  0  0  0  0  0  0
  1  2  2  0
  2  3  1  0
  3  4  1  0
  4  5  2  0
  5  6  1  0
  6  7  2  0
  7  8  1  0
  7  9  1  0
  9 10  2  0
  2 11  1  0
 11 12  2  0
 12 13  1  0
 13 14  1  0
 14 15  1  0
 15 16  2  0
 15 17  1  0
 17 18  1  0
 18 19  1  0
 19 20  1  0
 20 21  1  0
 21 22  1  0
 22 23  2  0
 23 24  1  0
 24 25  2  0
 14 26  2  0
 10  4  1  0
 26 11  1  0
 25 21  1  0
  3 27  1  0
  3 28  1  0
  5 29  1  0
  6 30  1  0
  9 31  1  0
 10 32  1  0
 12 33  1  0
 13 34  1  0
 17 35  1  0
 18 36  1  0
 18 37  1  0
 19 38  1  0
 19 39  1  0
 20 40  1  0
 20 41  1  0
 22 42  1  0
 23 43  1  0
 25 44  1  0
 26 45  1  0
M  END
$$$$
