
     RDKit          3D

 55 58  0  0  0  0  0  0  0  0999 V2000
    4.0276   -2.7942   -0.0599 C   0  0  0  0  0  0  0  0  0  0  0  0
    3.2811   -1.5635    0.0367 N   0  0  0  0  0  0  0  0  0  0  0  0
    3.3767   -0.4617   -0.7818 C   0  0  0  0  0  0  0  0  0  0  0  0
    4.3751   -0.2782   -1.8791 C   0  0  0  0  0  0  0  0  0  0  0  0
    5.8094   -0.2479   -1.3937 C   0  0  0  0  0  0  0  0  0  0  0  0
    6.2099    0.6518   -0.3940 C   0  0  0  0  0  0  0  0  0  0  0  0
    7.5302    0.6696    0.0607 C   0  0  0  0  0  0  0  0  0  0  0  0
    8.4667   -0.2044   -0.4855 C   0  0  0  0  0  0  0  0  0  0  0  0
    8.0879   -1.0881   -1.4933 C   0  0  0  0  0  0  0  0  0  0  0  0
    6.7684   -1.1072   -1.9509 C   0  0  0  0  0  0  0  0  0  0  0  0
    2.4510    0.4103   -0.4272 N   0  0  0  0  0  0  0  0  0  0  0  0
    1.7937   -0.0870    0.6669 N   0  0  0  0  0  0  0  0  0  0  0  0
    2.3070   -1.2612    0.9441 C   0  0  0  0  0  0  0  0  0  0  0  0
    1.8415   -2.2831    2.2554 S   0  0  0  0  0  0  0  0  0  0  0  0
    0.8943   -1.1260    3.2879 C   0  0  0  0  0  0  0  0  0  0  0  0
   -0.5683   -1.0798    2.8700 C   0  0  0  0  0  0  0  0  0  0  0  0
   -1.4220   -1.6646    3.5362 O   0  0  0  0  0  0  0  0  0  0  0  0
   -0.7942   -0.3263    1.7326 N   0  0  0  0  0  0  0  0  0  0  0  0
   -2.0253   -0.0697    1.0984 C   0  0  0  0  0  0  0  0  0  0  0  0
   -1.9871    0.5934   -0.1278 C   0  0  0  0  0  0  0  0  0  0  0  0
   -3.1724    0.8781   -0.8207 C   0  0  0  0  0  0  0  0  0  0  0  0
   -4.4376    0.5405   -0.3125 C   0  0  0  0  0  0  0  0  0  0  0  0
   -5.5925    0.8352   -1.0424 N   0  0  0  0  0  0  0  0  0  0  0  0
   -5.7318    2.2213   -1.5523 C   0  0  0  0  0  0  0  0  0  0  0  0
   -6.4619    3.0967   -0.5218 C   0  0  0  0  0  0  0  0  0  0  0  0
   -7.7553    2.5536   -0.1979 O   0  0  0  0  0  0  0  0  0  0  0  0
   -7.6158    1.2293    0.3477 C   0  0  0  0  0  0  0  0  0  0  0  0
   -6.9058    0.2858   -0.6377 C   0  0  0  0  0  0  0  0  0  0  0  0
   -4.4461   -0.1390    0.9130 C   0  0  0  0  0  0  0  0  0  0  0  0
   -3.2643   -0.4330    1.6136 C   0  0  0  0  0  0  0  0  0  0  0  0
    4.8409   -2.7615    0.6662 H   0  0  0  0  0  0  0  0  0  0  0  0
    3.3642   -3.6355    0.1389 H   0  0  0  0  0  0  0  0  0  0  0  0
    4.4239   -2.9157   -1.0698 H   0  0  0  0  0  0  0  0  0  0  0  0
    4.1744    0.6646   -2.4026 H   0  0  0  0  0  0  0  0  0  0  0  0
    4.2382   -1.0740   -2.6211 H   0  0  0  0  0  0  0  0  0  0  0  0
    5.4908    1.3433    0.0424 H   0  0  0  0  0  0  0  0  0  0  0  0
    7.8271    1.3669    0.8408 H   0  0  0  0  0  0  0  0  0  0  0  0
    9.4938   -0.1921   -0.1287 H   0  0  0  0  0  0  0  0  0  0  0  0
    8.8245   -1.7594   -1.9266 H   0  0  0  0  0  0  0  0  0  0  0  0
    6.5008   -1.8011   -2.7461 H   0  0  0  0  0  0  0  0  0  0  0  0
    0.9368   -1.4929    4.3165 H   0  0  0  0  0  0  0  0  0  0  0  0
    1.3270   -0.1213    3.2903 H   0  0  0  0  0  0  0  0  0  0  0  0
    0.0338    0.0106    1.2394 H   0  0  0  0  0  0  0  0  0  0  0  0
   -1.0393    0.8785   -0.5756 H   0  0  0  0  0  0  0  0  0  0  0  0
   -3.0857    1.3470   -1.7963 H   0  0  0  0  0  0  0  0  0  0  0  0
   -6.3347    2.1750   -2.4676 H   0  0  0  0  0  0  0  0  0  0  0  0
   -4.7780    2.6850   -1.8262 H   0  0  0  0  0  0  0  0  0  0  0  0
   -5.8741    3.2011    0.3989 H   0  0  0  0  0  0  0  0  0  0  0  0
   -6.6211    4.0975   -0.9334 H   0  0  0  0  0  0  0  0  0  0  0  0
   -7.0815    1.2984    1.3016 H   0  0  0  0  0  0  0  0  0  0  0  0
   -8.6229    0.8532    0.5579 H   0  0  0  0  0  0  0  0  0  0  0  0
   -7.5199    0.2105   -1.5462 H   0  0  0  0  0  0  0  0  0  0  0  0
   -6.8279   -0.7314   -0.2417 H   0  0  0  0  0  0  0  0  0  0  0  0
   -5.3740   -0.4504    1.3791 H   0  0  0  0  0  0  0  0  0  0  0  0
   -3.3576   -0.9472    2.5672 H   0  0  0  0  0  0  0  0  0  0  0  0
  1  2  1  0
  2  3  1  0
  3  4  1  0
  4  5  1  0
  5  6  2  0
  6  7  1  0
  7  8  2  0
  8  9  1  0
  9 10  2  0
  3 11  2  0
 11 12  1  0
 12 13  2  0
 13 14  1  0
 14 15  1  0
 15 16  1  0
 16 17  2  0
 16 18  1  0
 18 19  1  0
 19 20  2  0
 20 21  1  0
 21 22  2  0
 22 23  1  0
 23 24  1  0
 24 25  1  0
 25 26  1  0
 26 27  1  0
 27 28  1  0
 22 29  1  0
 29 30  2  0
 13  2  1  0
 30 19  1  0
 10  5  1  0
 28 23  1  0
  1 31  1  0
  1 32  1  0
  1 33  1  0
  4 34  1  0
  4 35  1  0
  6 36  1  0
  7 37  1  0
  8 38  1  0
  9 39  1  0
 10 40  1  0
 15 41  1  0
 15 42  1  0
 18 43  1  0
 20 44  1  0
 21 45  1  0
 24 46  1  0
 24 47  1  0
 25 48  1  0
 25 49  1  0
 27 50  1  0
 27 51  1  0
 28 52  1  0
 28 53  1  0
 29 54  1  0
 30 55  1  0
M  END
$$$$
