
     RDKit          3D

 36 37  0  0  0  0  0  0  0  0999 V2000
   -0.3882    1.4809   -1.3602 O   0  0  0  0  0  0  0  0  0  0  0  0
    0.3217    1.4615   -0.3571 C   0  0  0  0  0  0  0  0  0  0  0  0
   -0.1942    1.8190    1.0403 C   0  0  0  0  0  0  0  0  0  0  0  0
   -1.6024    1.6334    1.1730 O   0  0  0  0  0  0  0  0  0  0  0  0
   -1.9776    0.3314    1.2311 C   0  0  0  0  0  0  0  0  0  0  0  0
   -1.2214   -0.6268    1.2710 O   0  0  0  0  0  0  0  0  0  0  0  0
   -3.4603    0.2118    1.2686 C   0  0  0  0  0  0  0  0  0  0  0  0
   -4.0171   -1.0596    1.4699 C   0  0  0  0  0  0  0  0  0  0  0  0
   -5.4043   -1.2249    1.5126 C   0  0  0  0  0  0  0  0  0  0  0  0
   -6.2366   -0.1186    1.3511 C   0  0  0  0  0  0  0  0  0  0  0  0
   -8.1128   -0.3403    1.4080 Br  0  0  0  0  0  0  0  0  0  0  0  0
   -5.6961    1.1502    1.1459 C   0  0  0  0  0  0  0  0  0  0  0  0
   -4.3082    1.3164    1.1035 C   0  0  0  0  0  0  0  0  0  0  0  0
    1.6636    1.1425   -0.3970 N   0  0  0  0  0  0  0  0  0  0  0  0
    2.2617    0.6335   -1.6183 C   0  0  0  0  0  0  0  0  0  0  0  0
    3.7767    0.4192   -1.5017 C   0  0  0  0  0  0  0  0  0  0  0  0
    4.1272   -0.7502   -0.7065 N   0  0  0  0  0  0  0  0  0  0  0  0
    4.3994   -2.0035   -1.2053 C   0  0  0  0  0  0  0  0  0  0  0  0
    4.5123   -2.2336   -2.5426 O   0  0  0  0  0  0  0  0  0  0  0  0
    4.5416   -2.9565   -0.2798 C   0  0  0  0  0  0  0  0  0  0  0  0
    4.3488   -2.3223    1.3224 S   0  0  0  0  0  0  0  0  0  0  0  0
    4.0036   -0.7117    0.6800 C   0  0  0  0  0  0  0  0  0  0  0  0
    3.6693    0.2426    1.3669 O   0  0  0  0  0  0  0  0  0  0  0  0
    0.0124    2.8824    1.2017 H   0  0  0  0  0  0  0  0  0  0  0  0
    0.3417    1.2593    1.8161 H   0  0  0  0  0  0  0  0  0  0  0  0
   -3.3713   -1.9275    1.5932 H   0  0  0  0  0  0  0  0  0  0  0  0
   -5.8212   -2.2165    1.6694 H   0  0  0  0  0  0  0  0  0  0  0  0
   -6.3429    2.0141    1.0146 H   0  0  0  0  0  0  0  0  0  0  0  0
   -3.9030    2.3113    0.9339 H   0  0  0  0  0  0  0  0  0  0  0  0
    2.1313    0.9439    0.4880 H   0  0  0  0  0  0  0  0  0  0  0  0
    2.0561    1.3637   -2.4094 H   0  0  0  0  0  0  0  0  0  0  0  0
    1.7514   -0.2994   -1.8839 H   0  0  0  0  0  0  0  0  0  0  0  0
    4.2343    1.2963   -1.0269 H   0  0  0  0  0  0  0  0  0  0  0  0
    4.2137    0.3345   -2.5005 H   0  0  0  0  0  0  0  0  0  0  0  0
    4.9377   -1.4598   -2.9427 H   0  0  0  0  0  0  0  0  0  0  0  0
    4.7532   -3.9967   -0.4836 H   0  0  0  0  0  0  0  0  0  0  0  0
  1  2  2  0
  2  3  1  0
  3  4  1  0
  4  5  1  0
  5  6  2  0
  5  7  1  0
  7  8  2  0
  8  9  1  0
  9 10  2  0
 10 11  1  0
 10 12  1  0
 12 13  2  0
  2 14  1  0
 14 15  1  0
 15 16  1  0
 16 17  1  0
 17 18  1  0
 18 19  1  0
 18 20  2  0
 20 21  1  0
 21 22  1  0
 22 23  2  0
 13  7  1  0
 22 17  1  0
  3 24  1  0
  3 25  1  0
  8 26  1  0
  9 27  1  0
 12 28  1  0
 13 29  1  0
 14 30  1  0
 15 31  1  0
 15 32  1  0
 16 33  1  0
 16 34  1  0
 19 35  1  0
 20 36  1  0
M  END
$$$$
