
     RDKit          3D

 68 70  0  0  0  0  0  0  0  0999 V2000
   -7.1123    2.7196   -1.4567 C   0  0  0  0  0  0  0  0  0  0  0  0
   -6.3879    2.4560   -0.2617 O   0  0  0  0  0  0  0  0  0  0  0  0
   -5.1377    1.9207   -0.4012 C   0  0  0  0  0  0  0  0  0  0  0  0
   -4.4437    1.7383    0.7963 C   0  0  0  0  0  0  0  0  0  0  0  0
   -3.1554    1.1986    0.8021 C   0  0  0  0  0  0  0  0  0  0  0  0
   -2.5378    0.8221   -0.3998 C   0  0  0  0  0  0  0  0  0  0  0  0
   -1.1257    0.2350   -0.4370 C   0  0  0  0  0  0  0  0  0  0  0  0
   -0.8500   -0.7381    0.7536 C   0  0  0  0  0  0  0  0  0  0  0  0
    0.0033   -0.5359    1.6143 O   0  0  0  0  0  0  0  0  0  0  0  0
   -1.6760   -1.8568    0.7619 N   0  0  0  0  0  0  0  0  0  0  0  0
   -1.6954   -2.8778    1.8203 C   0  0  0  0  0  0  0  0  0  0  0  0
   -2.1543   -2.2662    3.1522 C   0  0  0  0  0  0  0  0  0  0  0  0
   -2.7037   -3.9658    1.4087 C   0  0  0  0  0  0  0  0  0  0  0  0
   -0.3196   -3.5419    1.9872 C   0  0  0  0  0  0  0  0  0  0  0  0
   -0.0508    1.2360   -0.6373 N   0  0  0  0  0  0  0  0  0  0  0  0
    1.0866    0.7954   -1.3194 C   0  0  0  0  0  0  0  0  0  0  0  0
    1.1573   -0.3324   -1.8155 O   0  0  0  0  0  0  0  0  0  0  0  0
    2.2090    1.8082   -1.5302 C   0  0  0  0  0  0  0  0  0  0  0  0
    3.3105    1.2313   -2.4165 C   0  0  0  0  0  0  0  0  0  0  0  0
    4.1774    0.2486   -1.6473 C   0  0  0  0  0  0  0  0  0  0  0  0
    4.4838    0.4467   -0.4751 O   0  0  0  0  0  0  0  0  0  0  0  0
    4.6075   -0.8009   -2.4237 N   0  0  0  0  0  0  0  0  0  0  0  0
    5.4156   -1.8290   -1.9936 C   0  0  0  0  0  0  0  0  0  0  0  0
    5.9934   -2.0471   -0.7244 C   0  0  0  0  0  0  0  0  0  0  0  0
    6.6956   -3.2182   -0.8605 C   0  0  0  0  0  0  0  0  0  0  0  0
    7.5217   -4.0338    0.0446 C   0  0  0  0  0  0  0  0  0  0  0  0
    6.5546   -3.6755   -2.1316 O   0  0  0  0  0  0  0  0  0  0  0  0
    5.7507   -2.8057   -2.8451 N   0  0  0  0  0  0  0  0  0  0  0  0
   -0.0250    2.3852    0.1992 C   0  0  0  0  0  0  0  0  0  0  0  0
    0.8003    2.4342    1.3306 C   0  0  0  0  0  0  0  0  0  0  0  0
    0.8262    3.5732    2.1392 C   0  0  0  0  0  0  0  0  0  0  0  0
    0.0333    4.6719    1.8144 C   0  0  0  0  0  0  0  0  0  0  0  0
   -0.7762    4.6216    0.6852 C   0  0  0  0  0  0  0  0  0  0  0  0
   -1.5286    5.6839    0.3672 F   0  0  0  0  0  0  0  0  0  0  0  0
   -0.8124    3.4926   -0.1258 C   0  0  0  0  0  0  0  0  0  0  0  0
   -3.2386    1.0166   -1.6016 C   0  0  0  0  0  0  0  0  0  0  0  0
   -4.5290    1.5583   -1.6017 C   0  0  0  0  0  0  0  0  0  0  0  0
   -7.3209    1.7943   -2.0036 H   0  0  0  0  0  0  0  0  0  0  0  0
   -6.5841    3.4426   -2.0874 H   0  0  0  0  0  0  0  0  0  0  0  0
   -8.0725    3.1624   -1.1749 H   0  0  0  0  0  0  0  0  0  0  0  0
   -4.9079    2.0286    1.7363 H   0  0  0  0  0  0  0  0  0  0  0  0
   -2.6388    1.0908    1.7549 H   0  0  0  0  0  0  0  0  0  0  0  0
   -1.1083   -0.4258   -1.3168 H   0  0  0  0  0  0  0  0  0  0  0  0
   -2.4657   -1.8433    0.1268 H   0  0  0  0  0  0  0  0  0  0  0  0
   -3.1313   -1.7819    3.0455 H   0  0  0  0  0  0  0  0  0  0  0  0
   -1.4550   -1.5068    3.5156 H   0  0  0  0  0  0  0  0  0  0  0  0
   -2.2411   -3.0325    3.9307 H   0  0  0  0  0  0  0  0  0  0  0  0
   -2.7670   -4.7603    2.1608 H   0  0  0  0  0  0  0  0  0  0  0  0
   -2.4188   -4.4253    0.4554 H   0  0  0  0  0  0  0  0  0  0  0  0
   -3.7076   -3.5458    1.2789 H   0  0  0  0  0  0  0  0  0  0  0  0
    0.0501   -3.9266    1.0302 H   0  0  0  0  0  0  0  0  0  0  0  0
    0.4315   -2.8458    2.3716 H   0  0  0  0  0  0  0  0  0  0  0  0
   -0.3691   -4.3808    2.6908 H   0  0  0  0  0  0  0  0  0  0  0  0
    2.6247    2.1213   -0.5703 H   0  0  0  0  0  0  0  0  0  0  0  0
    1.7810    2.6845   -2.0301 H   0  0  0  0  0  0  0  0  0  0  0  0
    3.9715    2.0394   -2.7501 H   0  0  0  0  0  0  0  0  0  0  0  0
    2.8881    0.7644   -3.3128 H   0  0  0  0  0  0  0  0  0  0  0  0
    4.2857   -0.9064   -3.3753 H   0  0  0  0  0  0  0  0  0  0  0  0
    5.9079   -1.4443    0.1669 H   0  0  0  0  0  0  0  0  0  0  0  0
    8.5185   -4.1895   -0.3791 H   0  0  0  0  0  0  0  0  0  0  0  0
    7.6382   -3.5456    1.0168 H   0  0  0  0  0  0  0  0  0  0  0  0
    7.0598   -5.0121    0.2078 H   0  0  0  0  0  0  0  0  0  0  0  0
    1.4191    1.5794    1.6017 H   0  0  0  0  0  0  0  0  0  0  0  0
    1.4629    3.5980    3.0202 H   0  0  0  0  0  0  0  0  0  0  0  0
    0.0418    5.5647    2.4314 H   0  0  0  0  0  0  0  0  0  0  0  0
   -1.4499    3.4972   -1.0034 H   0  0  0  0  0  0  0  0  0  0  0  0
   -2.7809    0.7505   -2.5532 H   0  0  0  0  0  0  0  0  0  0  0  0
   -5.0285    1.6860   -2.5565 H   0  0  0  0  0  0  0  0  0  0  0  0
  1  2  1  0
  2  3  1  0
  3  4  2  0
  4  5  1  0
  5  6  2  0
  6  7  1  0
  7  8  1  0
  8  9  2  0
  8 10  1  0
 10 11  1  0
 11 12  1  0
 11 13  1  0
 11 14  1  0
  7 15  1  0
 15 16  1  0
 16 17  2  0
 16 18  1  0
 18 19  1  0
 19 20  1  0
 20 21  2  0
 20 22  1  0
 22 23  1  0
 23 24  1  0
 24 25  2  0
 25 26  1  0
 25 27  1  0
 27 28  1  0
 15 29  1  0
 29 30  2  0
 30 31  1  0
 31 32  2  0
 32 33  1  0
 33 34  1  0
 33 35  2  0
  6 36  1  0
 36 37  2  0
 37  3  1  0
 28 23  2  0
 35 29  1  0
  1 38  1  0
  1 39  1  0
  1 40  1  0
  4 41  1  0
  5 42  1  0
  7 43  1  0
 10 44  1  0
 12 45  1  0
 12 46  1  0
 12 47  1  0
 13 48  1  0
 13 49  1  0
 13 50  1  0
 14 51  1  0
 14 52  1  0
 14 53  1  0
 18 54  1  0
 18 55  1  0
 19 56  1  0
 19 57  1  0
 22 58  1  0
 24 59  1  0
 26 60  1  0
 26 61  1  0
 26 62  1  0
 30 63  1  0
 31 64  1  0
 32 65  1  0
 35 66  1  0
 36 67  1  0
 37 68  1  0
M  END
$$$$
