
     RDKit          3D

 57 62  0  0  0  0  0  0  0  0999 V2000
    6.3267   -0.4775   -2.4617 C   0  0  0  0  0  0  0  0  0  0  0  0
    5.2212   -0.5085   -1.5680 O   0  0  0  0  0  0  0  0  0  0  0  0
    4.0421   -1.0055   -2.0551 C   0  0  0  0  0  0  0  0  0  0  0  0
    3.8412   -1.5209   -3.3497 C   0  0  0  0  0  0  0  0  0  0  0  0
    2.5893   -2.0100   -3.7428 C   0  0  0  0  0  0  0  0  0  0  0  0
    1.5673   -1.9673   -2.8190 C   0  0  0  0  0  0  0  0  0  0  0  0
    1.7415   -1.4560   -1.5326 C   0  0  0  0  0  0  0  0  0  0  0  0
    2.9829   -0.9754   -1.1389 C   0  0  0  0  0  0  0  0  0  0  0  0
    0.4376   -1.5684   -0.7854 C   0  0  0  0  0  0  0  0  0  0  0  0
    0.5273   -2.3840    0.4728 N   0  0  0  0  0  0  0  0  0  0  0  0
    0.4507   -1.4676    1.6653 C   0  0  2  0  0  0  0  0  0  0  0  0
   -0.4734   -1.9970    2.7773 C   0  0  0  0  0  0  0  0  0  0  0  0
   -1.9635   -1.9599    2.5108 C   0  0  0  0  0  0  0  0  0  0  0  0
   -2.7789   -1.0382    3.1848 C   0  0  0  0  0  0  0  0  0  0  0  0
   -4.1529   -0.9919    2.9416 C   0  0  0  0  0  0  0  0  0  0  0  0
   -4.7269   -1.8639    2.0196 C   0  0  0  0  0  0  0  0  0  0  0  0
   -3.9272   -2.7819    1.3426 C   0  0  0  0  0  0  0  0  0  0  0  0
   -2.5544   -2.8333    1.5905 C   0  0  0  0  0  0  0  0  0  0  0  0
    0.0571   -0.1742    1.0713 C   0  0  0  0  0  0  0  0  0  0  0  0
    0.0531   -0.2309   -0.3198 C   0  0  0  0  0  0  0  0  0  0  0  0
   -0.3638    0.9767   -0.8107 C   0  0  0  0  0  0  0  0  0  0  0  0
   -0.6133    1.3093   -2.0763 O   0  0  0  0  0  0  0  0  0  0  0  0
   -0.5755    1.8163    0.2988 N   0  0  0  0  0  0  0  0  0  0  0  0
   -1.0257    3.1674    0.2497 C   0  0  0  0  0  0  0  0  0  0  0  0
   -0.5586    4.0295   -0.7509 C   0  0  0  0  0  0  0  0  0  0  0  0
   -1.0036    5.3519   -0.7920 C   0  0  0  0  0  0  0  0  0  0  0  0
   -1.9152    5.8138    0.1569 C   0  0  0  0  0  0  0  0  0  0  0  0
   -2.3852    4.9563    1.1510 C   0  0  0  0  0  0  0  0  0  0  0  0
   -1.9424    3.6337    1.2017 C   0  0  0  0  0  0  0  0  0  0  0  0
   -0.2604    1.0957    1.4667 C   0  0  0  0  0  0  0  0  0  0  0  0
   -0.2324    1.6072    2.6973 O   0  0  0  0  0  0  0  0  0  0  0  0
   -0.5047   -2.2100   -1.8426 C   0  0  0  0  0  0  0  0  0  0  0  0
   -1.6822   -2.5244   -1.7483 O   0  0  0  0  0  0  0  0  0  0  0  0
    0.2646   -2.4089   -2.9950 N   0  0  0  0  0  0  0  0  0  0  0  0
    6.6121   -1.4884   -2.7706 H   0  0  0  0  0  0  0  0  0  0  0  0
    7.1760   -0.0409   -1.9275 H   0  0  0  0  0  0  0  0  0  0  0  0
    6.1166    0.1577   -3.3286 H   0  0  0  0  0  0  0  0  0  0  0  0
    4.6470   -1.5548   -4.0761 H   0  0  0  0  0  0  0  0  0  0  0  0
    2.4379   -2.4081   -4.7396 H   0  0  0  0  0  0  0  0  0  0  0  0
    3.1337   -0.5722   -0.1420 H   0  0  0  0  0  0  0  0  0  0  0  0
    1.4181   -2.8716    0.4804 H   0  0  0  0  0  0  0  0  0  0  0  0
    1.4669   -1.3758    2.0706 H   0  0  0  0  0  0  0  0  0  0  0  0
   -0.2711   -1.4180    3.6892 H   0  0  0  0  0  0  0  0  0  0  0  0
   -0.1930   -3.0287    3.0294 H   0  0  0  0  0  0  0  0  0  0  0  0
   -2.3428   -0.3400    3.8956 H   0  0  0  0  0  0  0  0  0  0  0  0
   -4.7724   -0.2707    3.4666 H   0  0  0  0  0  0  0  0  0  0  0  0
   -5.7939   -1.8240    1.8208 H   0  0  0  0  0  0  0  0  0  0  0  0
   -4.3650   -3.4527    0.6082 H   0  0  0  0  0  0  0  0  0  0  0  0
   -1.9464   -3.5477    1.0397 H   0  0  0  0  0  0  0  0  0  0  0  0
   -1.2941    2.0062   -2.0839 H   0  0  0  0  0  0  0  0  0  0  0  0
    0.1836    3.7049   -1.4782 H   0  0  0  0  0  0  0  0  0  0  0  0
   -0.6326    6.0261   -1.5605 H   0  0  0  0  0  0  0  0  0  0  0  0
   -2.2621    6.8438    0.1200 H   0  0  0  0  0  0  0  0  0  0  0  0
   -3.1078    5.3156    1.8801 H   0  0  0  0  0  0  0  0  0  0  0  0
   -2.3602    2.9701    1.9574 H   0  0  0  0  0  0  0  0  0  0  0  0
   -0.1926    2.5779    2.6336 H   0  0  0  0  0  0  0  0  0  0  0  0
   -0.1206   -2.8108   -3.8350 H   0  0  0  0  0  0  0  0  0  0  0  0
  1  2  1  0
  2  3  1  0
  3  4  2  0
  4  5  1  0
  5  6  2  0
  6  7  1  0
  7  8  2  0
  7  9  1  0
  9 10  1  0
 10 11  1  0
 11 12  1  0
 12 13  1  0
 13 14  2  0
 14 15  1  0
 15 16  2  0
 16 17  1  0
 17 18  2  0
 11 19  1  0
 19 20  1  0
 20 21  2  0
 21 22  1  0
 21 23  1  0
 23 24  1  0
 24 25  2  0
 25 26  1  0
 26 27  2  0
 27 28  1  0
 28 29  2  0
 23 30  1  0
 30 31  1  0
  9 32  1  0
 32 33  2  0
 32 34  1  0
  8  3  1  0
 20  9  1  0
 29 24  1  0
 34  6  1  0
 18 13  1  0
 30 19  2  0
  1 35  1  0
  1 36  1  0
  1 37  1  0
  4 38  1  0
  5 39  1  0
  8 40  1  0
 10 41  1  0
 11 42  1  1
 12 43  1  0
 12 44  1  0
 14 45  1  0
 15 46  1  0
 16 47  1  0
 17 48  1  0
 18 49  1  0
 22 50  1  0
 25 51  1  0
 26 52  1  0
 27 53  1  0
 28 54  1  0
 29 55  1  0
 31 56  1  0
 34 57  1  0
M  END
$$$$
