
     RDKit          3D

 63 67  0  0  0  0  0  0  0  0999 V2000
    5.9885    0.5591   -4.8321 C   0  0  0  0  0  0  0  0  0  0  0  0
    6.6113    0.5806   -3.4499 C   0  0  0  0  0  0  0  0  0  0  0  0
    5.5896    0.2729   -2.4954 O   0  0  0  0  0  0  0  0  0  0  0  0
    6.0220    0.2518   -1.2011 C   0  0  0  0  0  0  0  0  0  0  0  0
    7.1752    0.4693   -0.8524 O   0  0  0  0  0  0  0  0  0  0  0  0
    4.9446   -0.0456   -0.2664 C   0  0  0  0  0  0  0  0  0  0  0  0
    3.5646   -0.2794   -0.5338 C   0  0  0  0  0  0  0  0  0  0  0  0
    2.9107   -0.4770    0.6707 C   0  0  0  0  0  0  0  0  0  0  0  0
    1.5126   -0.7310    0.9993 C   0  0  0  0  0  0  0  0  0  0  0  0
    0.4748   -0.7173    0.0707 N   0  0  0  0  0  0  0  0  0  0  0  0
   -0.8339   -1.2819    0.4499 C   0  0  0  0  0  0  0  0  0  0  0  0
   -1.7551   -1.4594   -0.7757 C   0  0  0  0  0  0  0  0  0  0  0  0
   -1.9547   -0.2469   -1.5907 N   0  0  0  0  0  0  0  0  0  0  0  0
   -3.3433    0.2201   -1.6502 C   0  0  0  0  0  0  0  0  0  0  0  0
   -3.9485    0.7579   -0.3383 C   0  0  0  0  0  0  0  0  0  0  0  0
   -5.4215    1.0905   -0.4947 C   0  0  0  0  0  0  0  0  0  0  0  0
   -5.7661    2.3263   -1.0742 C   0  0  0  0  0  0  0  0  0  0  0  0
   -7.1005    2.6866   -1.2543 C   0  0  0  0  0  0  0  0  0  0  0  0
   -8.1126    1.8188   -0.8625 C   0  0  0  0  0  0  0  0  0  0  0  0
   -7.7916    0.5879   -0.2909 C   0  0  0  0  0  0  0  0  0  0  0  0
   -6.4500    0.2026   -0.1002 C   0  0  0  0  0  0  0  0  0  0  0  0
   -6.1587   -1.1348    0.5473 C   0  0  0  0  0  0  0  0  0  0  0  0
   -7.2633   -1.9182    0.7077 F   0  0  0  0  0  0  0  0  0  0  0  0
   -5.6184   -1.0032    1.7913 F   0  0  0  0  0  0  0  0  0  0  0  0
   -5.2773   -1.8910   -0.1665 F   0  0  0  0  0  0  0  0  0  0  0  0
   -0.9757    0.8039   -1.2808 C   0  0  0  0  0  0  0  0  0  0  0  0
    0.4422    0.2376   -1.0481 C   0  0  0  0  0  0  0  0  0  0  0  0
    1.2112   -0.9971    2.2478 N   0  0  0  0  0  0  0  0  0  0  0  0
    2.1964   -0.9915    3.2514 C   0  0  0  0  0  0  0  0  0  0  0  0
    1.8073   -1.2649    4.5639 C   0  0  0  0  0  0  0  0  0  0  0  0
    2.7429   -1.2575    5.6014 C   0  0  0  0  0  0  0  0  0  0  0  0
    4.0832   -0.9750    5.3336 C   0  0  0  0  0  0  0  0  0  0  0  0
    4.4934   -0.6985    4.0290 C   0  0  0  0  0  0  0  0  0  0  0  0
    3.5450   -0.7089    3.0017 C   0  0  0  0  0  0  0  0  0  0  0  0
    3.8707   -0.4516    1.6606 N   0  0  0  0  0  0  0  0  0  0  0  0
    5.0916   -0.1590    1.1066 C   0  0  0  0  0  0  0  0  0  0  0  0
    5.1671    1.2802   -4.8950 H   0  0  0  0  0  0  0  0  0  0  0  0
    5.5649   -0.4275   -5.0464 H   0  0  0  0  0  0  0  0  0  0  0  0
    6.7309    0.8003   -5.5992 H   0  0  0  0  0  0  0  0  0  0  0  0
    7.0197    1.5764   -3.2452 H   0  0  0  0  0  0  0  0  0  0  0  0
    7.4108   -0.1667   -3.3929 H   0  0  0  0  0  0  0  0  0  0  0  0
    3.1084   -0.2889   -1.5152 H   0  0  0  0  0  0  0  0  0  0  0  0
   -1.3189   -0.6263    1.1849 H   0  0  0  0  0  0  0  0  0  0  0  0
   -0.6929   -2.2649    0.9164 H   0  0  0  0  0  0  0  0  0  0  0  0
   -2.7074   -1.8928   -0.4478 H   0  0  0  0  0  0  0  0  0  0  0  0
   -1.2989   -2.2091   -1.4349 H   0  0  0  0  0  0  0  0  0  0  0  0
   -3.4109    0.9998   -2.4224 H   0  0  0  0  0  0  0  0  0  0  0  0
   -3.9642   -0.6020   -2.0308 H   0  0  0  0  0  0  0  0  0  0  0  0
   -3.4270    1.6704   -0.0229 H   0  0  0  0  0  0  0  0  0  0  0  0
   -3.8046    0.0464    0.4812 H   0  0  0  0  0  0  0  0  0  0  0  0
   -4.9901    3.0223   -1.3887 H   0  0  0  0  0  0  0  0  0  0  0  0
   -7.3502    3.6474   -1.6979 H   0  0  0  0  0  0  0  0  0  0  0  0
   -9.1534    2.1009   -1.0000 H   0  0  0  0  0  0  0  0  0  0  0  0
   -8.6017   -0.0754    0.0117 H   0  0  0  0  0  0  0  0  0  0  0  0
   -0.9373    1.5171   -2.1120 H   0  0  0  0  0  0  0  0  0  0  0  0
   -1.2661    1.3624   -0.3834 H   0  0  0  0  0  0  0  0  0  0  0  0
    1.1073    1.0869   -0.8528 H   0  0  0  0  0  0  0  0  0  0  0  0
    0.7900   -0.2669   -1.9578 H   0  0  0  0  0  0  0  0  0  0  0  0
    0.7630   -1.4812    4.7767 H   0  0  0  0  0  0  0  0  0  0  0  0
    2.4218   -1.4711    6.6178 H   0  0  0  0  0  0  0  0  0  0  0  0
    4.8075   -0.9694    6.1441 H   0  0  0  0  0  0  0  0  0  0  0  0
    5.5411   -0.4832    3.8456 H   0  0  0  0  0  0  0  0  0  0  0  0
    5.9847   -0.0616    1.7090 H   0  0  0  0  0  0  0  0  0  0  0  0
  1  2  1  0
  2  3  1  0
  3  4  1  0
  4  5  2  0
  4  6  1  0
  6  7  1  0
  7  8  2  0
  8  9  1  0
  9 10  1  0
 10 11  1  0
 11 12  1  0
 12 13  1  0
 13 14  1  0
 14 15  1  0
 15 16  1  0
 16 17  2  0
 17 18  1  0
 18 19  2  0
 19 20  1  0
 20 21  2  0
 21 22  1  0
 22 23  1  0
 22 24  1  0
 22 25  1  0
 13 26  1  0
 26 27  1  0
  9 28  2  0
 28 29  1  0
 29 30  2  0
 30 31  1  0
 31 32  2  0
 32 33  1  0
 33 34  2  0
 34 35  1  0
 35 36  1  0
 36  6  2  0
 35  8  1  0
 27 10  1  0
 34 29  1  0
 21 16  1  0
  1 37  1  0
  1 38  1  0
  1 39  1  0
  2 40  1  0
  2 41  1  0
  7 42  1  0
 11 43  1  0
 11 44  1  0
 12 45  1  0
 12 46  1  0
 14 47  1  0
 14 48  1  0
 15 49  1  0
 15 50  1  0
 17 51  1  0
 18 52  1  0
 19 53  1  0
 20 54  1  0
 26 55  1  0
 26 56  1  0
 27 57  1  0
 27 58  1  0
 30 59  1  0
 31 60  1  0
 32 61  1  0
 33 62  1  0
 36 63  1  0
M  END
$$$$
