
     RDKit          3D

 35 36  0  0  0  0  0  0  0  0999 V2000
    3.2067    2.0667    0.0451 C   0  0  0  0  0  0  0  0  0  0  0  0
    2.4374    0.8193    0.1076 N   0  0  0  0  0  0  0  0  0  0  0  0
    1.2394    0.8913   -0.7494 C   0  0  0  0  0  0  0  0  0  0  0  0
    0.1101    1.7353   -0.1387 C   0  0  0  0  0  0  0  0  0  0  0  0
   -0.4269    1.1567    1.1718 C   0  0  0  0  0  0  0  0  0  0  0  0
   -0.9650   -0.1533    0.9863 O   0  0  0  0  0  0  0  0  0  0  0  0
   -2.2688   -0.3138    0.6045 C   0  0  0  0  0  0  0  0  0  0  0  0
   -3.1535    0.7293    0.3144 C   0  0  0  0  0  0  0  0  0  0  0  0
   -4.4707    0.4552   -0.0717 C   0  0  0  0  0  0  0  0  0  0  0  0
   -4.9095   -0.8626   -0.1717 C   0  0  0  0  0  0  0  0  0  0  0  0
   -6.5296   -1.1887   -0.6483 Cl  0  0  0  0  0  0  0  0  0  0  0  0
   -4.0452   -1.9143    0.1084 C   0  0  0  0  0  0  0  0  0  0  0  0
   -2.7307   -1.6384    0.4934 C   0  0  0  0  0  0  0  0  0  0  0  0
   -1.6919   -2.9828    0.8240 Cl  0  0  0  0  0  0  0  0  0  0  0  0
    3.3057   -0.3085   -0.2782 C   0  0  0  0  0  0  0  0  0  0  0  0
    2.7288   -1.6075    0.1956 C   0  0  0  0  0  0  0  0  0  0  0  0
    2.0804   -2.5923   -0.7433 C   0  0  0  0  0  0  0  0  0  0  0  0
    3.4297   -2.7641   -0.2931 O   0  0  0  0  0  0  0  0  0  0  0  0
    3.5636    2.2809   -0.9688 H   0  0  0  0  0  0  0  0  0  0  0  0
    2.6146    2.9192    0.3914 H   0  0  0  0  0  0  0  0  0  0  0  0
    4.0760    2.0158    0.7109 H   0  0  0  0  0  0  0  0  0  0  0  0
    0.8311   -0.1096   -0.9277 H   0  0  0  0  0  0  0  0  0  0  0  0
    1.4988    1.2899   -1.7390 H   0  0  0  0  0  0  0  0  0  0  0  0
   -0.6984    1.7829   -0.8774 H   0  0  0  0  0  0  0  0  0  0  0  0
    0.4397    2.7661    0.0272 H   0  0  0  0  0  0  0  0  0  0  0  0
   -1.1487    1.8303    1.6469 H   0  0  0  0  0  0  0  0  0  0  0  0
    0.3911    1.0592    1.8945 H   0  0  0  0  0  0  0  0  0  0  0  0
   -2.8553    1.7707    0.3719 H   0  0  0  0  0  0  0  0  0  0  0  0
   -5.1476    1.2771   -0.2935 H   0  0  0  0  0  0  0  0  0  0  0  0
   -4.3883   -2.9419    0.0283 H   0  0  0  0  0  0  0  0  0  0  0  0
    3.4937   -0.3149   -1.3597 H   0  0  0  0  0  0  0  0  0  0  0  0
    4.2814   -0.2087    0.2144 H   0  0  0  0  0  0  0  0  0  0  0  0
    2.4465   -1.6032    1.2401 H   0  0  0  0  0  0  0  0  0  0  0  0
    1.9268   -2.3102   -1.7766 H   0  0  0  0  0  0  0  0  0  0  0  0
    1.3284   -3.2585   -0.3395 H   0  0  0  0  0  0  0  0  0  0  0  0
  1  2  1  0
  2  3  1  0
  3  4  1  0
  4  5  1  0
  5  6  1  0
  6  7  1  0
  7  8  2  0
  8  9  1  0
  9 10  2  0
 10 11  1  0
 10 12  1  0
 12 13  2  0
 13 14  1  0
  2 15  1  0
 15 16  1  0
 16 17  1  0
 17 18  1  0
 13  7  1  0
 18 16  1  0
  1 19  1  0
  1 20  1  0
  1 21  1  0
  3 22  1  0
  3 23  1  0
  4 24  1  0
  4 25  1  0
  5 26  1  0
  5 27  1  0
  8 28  1  0
  9 29  1  0
 12 30  1  0
 15 31  1  0
 15 32  1  0
 16 33  1  0
 17 34  1  0
 17 35  1  0
M  END
$$$$
