
     RDKit          3D

 59 64  0  0  0  0  0  0  0  0999 V2000
   -5.5950    3.0507    1.2610 C   0  0  0  0  0  0  0  0  0  0  0  0
   -5.9770    1.6181    1.3460 C   0  0  0  0  0  0  0  0  0  0  0  0
   -7.0311    1.1490    1.9827 N   0  0  0  0  0  0  0  0  0  0  0  0
   -7.0009   -0.2112    1.8099 C   0  0  0  0  0  0  0  0  0  0  0  0
   -7.8871   -1.1905    2.2821 C   0  0  0  0  0  0  0  0  0  0  0  0
   -7.6370   -2.5328    1.9726 C   0  0  0  0  0  0  0  0  0  0  0  0
   -6.5261   -2.8928    1.2082 C   0  0  0  0  0  0  0  0  0  0  0  0
   -5.6311   -1.9294    0.7280 C   0  0  0  0  0  0  0  0  0  0  0  0
   -5.9014   -0.5927    1.0481 C   0  0  0  0  0  0  0  0  0  0  0  0
   -5.2632    0.5931    0.7643 N   0  0  0  0  0  0  0  0  0  0  0  0
   -4.0450    0.7235   -0.0132 C   0  0  0  0  0  0  0  0  0  0  0  0
   -2.8004    0.5463    0.8458 C   0  0  0  0  0  0  0  0  0  0  0  0
   -1.5696    0.6870    0.0321 C   0  0  0  0  0  0  0  0  0  0  0  0
   -0.9748    1.9059   -0.1824 N   0  0  0  0  0  0  0  0  0  0  0  0
    0.0613    1.5937   -0.9313 C   0  0  0  0  0  0  0  0  0  0  0  0
    1.1065    2.4007   -1.5223 C   0  0  0  0  0  0  0  0  0  0  0  0
    1.1872    3.7819   -1.3381 C   0  0  0  0  0  0  0  0  0  0  0  0
    2.2208    4.4959   -1.9441 C   0  0  0  0  0  0  0  0  0  0  0  0
    3.1654    3.8313   -2.7290 C   0  0  0  0  0  0  0  0  0  0  0  0
    3.0829    2.4480   -2.9117 C   0  0  0  0  0  0  0  0  0  0  0  0
    2.0567    1.7173   -2.3130 C   0  0  0  0  0  0  0  0  0  0  0  0
    2.0082    0.3130   -2.5188 N   0  0  0  0  0  0  0  0  0  0  0  0
    1.0579   -0.3805   -1.9470 C   0  0  0  0  0  0  0  0  0  0  0  0
    1.0295   -2.1218   -2.1963 S   0  0  0  0  0  0  0  0  0  0  0  0
    2.7829   -2.4707   -1.8912 C   0  0  0  0  0  0  0  0  0  0  0  0
    3.2803   -1.9372   -0.5523 C   0  0  0  0  0  0  0  0  0  0  0  0
    2.5835   -1.3488    0.2701 O   0  0  0  0  0  0  0  0  0  0  0  0
    4.6242   -2.1662   -0.3478 N   0  0  0  0  0  0  0  0  0  0  0  0
    5.2475   -1.8266    0.9106 C   0  0  0  0  0  0  0  0  0  0  0  0
    6.7175   -1.9225    0.7484 C   0  0  0  0  0  0  0  0  0  0  0  0
    7.7503   -1.0222    0.9077 C   0  0  0  0  0  0  0  0  0  0  0  0
    8.9413   -1.7194    0.5921 C   0  0  0  0  0  0  0  0  0  0  0  0
    8.5613   -2.9986    0.2620 C   0  0  0  0  0  0  0  0  0  0  0  0
    7.2129   -3.1324    0.3497 O   0  0  0  0  0  0  0  0  0  0  0  0
    0.0783    0.2437   -1.1627 N   0  0  0  0  0  0  0  0  0  0  0  0
   -0.9899   -0.3536   -0.5796 N   0  0  0  0  0  0  0  0  0  0  0  0
   -6.2625    3.6606    1.8782 H   0  0  0  0  0  0  0  0  0  0  0  0
   -5.6685    3.4092    0.2299 H   0  0  0  0  0  0  0  0  0  0  0  0
   -4.5725    3.2055    1.6184 H   0  0  0  0  0  0  0  0  0  0  0  0
   -8.7461   -0.9012    2.8765 H   0  0  0  0  0  0  0  0  0  0  0  0
   -8.3168   -3.3003    2.3341 H   0  0  0  0  0  0  0  0  0  0  0  0
   -6.3506   -3.9425    0.9814 H   0  0  0  0  0  0  0  0  0  0  0  0
   -4.7685   -2.2177    0.1366 H   0  0  0  0  0  0  0  0  0  0  0  0
   -4.0544    1.7046   -0.5017 H   0  0  0  0  0  0  0  0  0  0  0  0
   -4.0833   -0.0207   -0.8181 H   0  0  0  0  0  0  0  0  0  0  0  0
   -2.7876    1.2903    1.6516 H   0  0  0  0  0  0  0  0  0  0  0  0
   -2.8102   -0.4349    1.3366 H   0  0  0  0  0  0  0  0  0  0  0  0
    0.4519    4.2993   -0.7262 H   0  0  0  0  0  0  0  0  0  0  0  0
    2.2907    5.5722   -1.8048 H   0  0  0  0  0  0  0  0  0  0  0  0
    3.9696    4.3916   -3.2003 H   0  0  0  0  0  0  0  0  0  0  0  0
    3.8217    1.9371   -3.5235 H   0  0  0  0  0  0  0  0  0  0  0  0
    3.3879   -2.0430   -2.6972 H   0  0  0  0  0  0  0  0  0  0  0  0
    2.9177   -3.5570   -1.9005 H   0  0  0  0  0  0  0  0  0  0  0  0
    5.1108   -2.8409   -0.9257 H   0  0  0  0  0  0  0  0  0  0  0  0
    4.8939   -2.5316    1.6703 H   0  0  0  0  0  0  0  0  0  0  0  0
    4.9431   -0.8173    1.2068 H   0  0  0  0  0  0  0  0  0  0  0  0
    7.6532    0.0104    1.2132 H   0  0  0  0  0  0  0  0  0  0  0  0
    9.9530   -1.3381    0.6041 H   0  0  0  0  0  0  0  0  0  0  0  0
    9.1009   -3.8847   -0.0427 H   0  0  0  0  0  0  0  0  0  0  0  0
  1  2  1  0
  2  3  2  0
  3  4  1  0
  4  5  2  0
  5  6  1  0
  6  7  2  0
  7  8  1  0
  8  9  2  0
  9 10  1  0
 10 11  1  0
 11 12  1  0
 12 13  1  0
 13 14  1  0
 14 15  2  0
 15 16  1  0
 16 17  2  0
 17 18  1  0
 18 19  2  0
 19 20  1  0
 20 21  2  0
 21 22  1  0
 22 23  2  0
 23 24  1  0
 24 25  1  0
 25 26  1  0
 26 27  2  0
 26 28  1  0
 28 29  1  0
 29 30  1  0
 30 31  2  0
 31 32  1  0
 32 33  2  0
 33 34  1  0
 23 35  1  0
 35 36  1  0
 10  2  1  0
 36 13  2  0
  9  4  1  0
 35 15  1  0
 21 16  1  0
 34 30  1  0
  1 37  1  0
  1 38  1  0
  1 39  1  0
  5 40  1  0
  6 41  1  0
  7 42  1  0
  8 43  1  0
 11 44  1  0
 11 45  1  0
 12 46  1  0
 12 47  1  0
 17 48  1  0
 18 49  1  0
 19 50  1  0
 20 51  1  0
 25 52  1  0
 25 53  1  0
 28 54  1  0
 29 55  1  0
 29 56  1  0
 31 57  1  0
 32 58  1  0
 33 59  1  0
M  END
$$$$
