
     RDKit          3D

 56 58  0  0  0  0  0  0  0  0999 V2000
    6.6473    0.6210   -3.3202 C   0  0  0  0  0  0  0  0  0  0  0  0
    6.2429    1.9854   -2.7895 C   0  0  0  0  0  0  0  0  0  0  0  0
    6.4707    2.0678   -1.3834 O   0  0  0  0  0  0  0  0  0  0  0  0
    5.4644    1.7146   -0.5315 C   0  0  0  0  0  0  0  0  0  0  0  0
    4.2546    1.1172   -0.8778 C   0  0  0  0  0  0  0  0  0  0  0  0
    3.3062    0.8077    0.1086 C   0  0  0  0  0  0  0  0  0  0  0  0
    3.5575    1.0864    1.4527 C   0  0  0  0  0  0  0  0  0  0  0  0
    2.6522    0.8198    2.5004 N   0  0  0  0  0  0  0  0  0  0  0  0
    1.4018    0.2337    2.4041 C   0  0  0  0  0  0  0  0  0  0  0  0
    0.8694   -0.1981    1.3866 O   0  0  0  0  0  0  0  0  0  0  0  0
    0.7135    0.1477    3.7553 C   0  0  0  0  0  0  0  0  0  0  0  0
   -0.7247   -0.3434    3.6252 C   0  0  0  0  0  0  0  0  0  0  0  0
   -0.7386   -1.7744    3.2693 N   0  0  0  0  0  0  0  0  0  0  0  0
   -2.2289   -2.5639    3.2505 S   0  0  0  0  0  6  0  0  0  0  0  0
   -2.9193   -2.2438    4.4804 O   0  0  0  0  0  0  0  0  0  0  0  0
   -1.9902   -3.9267    2.8366 O   0  0  0  0  0  0  0  0  0  0  0  0
   -3.0762   -1.7493    1.9176 C   0  0  0  0  0  0  0  0  0  0  0  0
   -4.1461   -0.8953    2.1805 C   0  0  0  0  0  0  0  0  0  0  0  0
   -4.8078   -0.2696    1.1176 C   0  0  0  0  0  0  0  0  0  0  0  0
   -4.4140   -0.4920   -0.2140 C   0  0  0  0  0  0  0  0  0  0  0  0
   -3.3465   -1.3588   -0.4510 C   0  0  0  0  0  0  0  0  0  0  0  0
   -2.6762   -1.9952    0.6050 C   0  0  0  0  0  0  0  0  0  0  0  0
   -2.9184   -1.6139   -1.8352 C   0  0  0  0  0  0  0  0  0  0  0  0
   -2.0017   -2.4066   -2.0378 O   0  0  0  0  0  0  0  0  0  0  0  0
   -3.5960   -0.9321   -2.8334 N   0  0  0  0  0  0  0  0  0  0  0  0
   -3.1986   -1.1654   -4.2100 C   0  0  0  0  0  0  0  0  0  0  0  0
   -4.6843   -0.0919   -2.6307 C   0  0  0  0  0  0  0  0  0  0  0  0
   -5.2760    0.4300   -3.5793 O   0  0  0  0  0  0  0  0  0  0  0  0
   -5.0719    0.1261   -1.3109 N   0  0  0  0  0  0  0  0  0  0  0  0
   -6.2029    1.0129   -1.0672 C   0  0  0  0  0  0  0  0  0  0  0  0
    4.7776    1.6770    1.7981 C   0  0  0  0  0  0  0  0  0  0  0  0
    5.7212    1.9853    0.8131 C   0  0  0  0  0  0  0  0  0  0  0  0
    6.5391    0.5817   -4.4077 H   0  0  0  0  0  0  0  0  0  0  0  0
    6.0392   -0.1765   -2.8807 H   0  0  0  0  0  0  0  0  0  0  0  0
    7.6890    0.4031   -3.0615 H   0  0  0  0  0  0  0  0  0  0  0  0
    6.8870    2.7422   -3.2516 H   0  0  0  0  0  0  0  0  0  0  0  0
    5.2178    2.2555   -3.0677 H   0  0  0  0  0  0  0  0  0  0  0  0
    4.0092    0.8672   -1.9053 H   0  0  0  0  0  0  0  0  0  0  0  0
    2.3770    0.3495   -0.2172 H   0  0  0  0  0  0  0  0  0  0  0  0
    2.9678    1.0774    3.4283 H   0  0  0  0  0  0  0  0  0  0  0  0
    1.2949   -0.5192    4.4026 H   0  0  0  0  0  0  0  0  0  0  0  0
    0.7088    1.1499    4.1998 H   0  0  0  0  0  0  0  0  0  0  0  0
   -1.2540    0.2384    2.8636 H   0  0  0  0  0  0  0  0  0  0  0  0
   -1.2286   -0.2043    4.5873 H   0  0  0  0  0  0  0  0  0  0  0  0
   -0.1940   -2.0024    2.4303 H   0  0  0  0  0  0  0  0  0  0  0  0
   -4.4764   -0.7129    3.2017 H   0  0  0  0  0  0  0  0  0  0  0  0
   -5.6378    0.3871    1.3647 H   0  0  0  0  0  0  0  0  0  0  0  0
   -1.8525   -2.6772    0.3981 H   0  0  0  0  0  0  0  0  0  0  0  0
   -3.1133   -0.2089   -4.7367 H   0  0  0  0  0  0  0  0  0  0  0  0
   -3.9754   -1.7627   -4.6990 H   0  0  0  0  0  0  0  0  0  0  0  0
   -2.2445   -1.6931   -4.2845 H   0  0  0  0  0  0  0  0  0  0  0  0
   -6.9980    0.4569   -0.5602 H   0  0  0  0  0  0  0  0  0  0  0  0
   -6.6203    1.4184   -1.9929 H   0  0  0  0  0  0  0  0  0  0  0  0
   -5.8756    1.8579   -0.4528 H   0  0  0  0  0  0  0  0  0  0  0  0
    5.0166    1.9115    2.8317 H   0  0  0  0  0  0  0  0  0  0  0  0
    6.6625    2.4487    1.0965 H   0  0  0  0  0  0  0  0  0  0  0  0
  1  2  1  0
  2  3  1  0
  3  4  1  0
  4  5  2  0
  5  6  1  0
  6  7  2  0
  7  8  1  0
  8  9  1  0
  9 10  2  0
  9 11  1  0
 11 12  1  0
 12 13  1  0
 13 14  1  0
 14 15  2  0
 14 16  2  0
 14 17  1  0
 17 18  2  0
 18 19  1  0
 19 20  2  0
 20 21  1  0
 21 22  2  0
 21 23  1  0
 23 24  2  0
 23 25  1  0
 25 26  1  0
 25 27  1  0
 27 28  2  0
 27 29  1  0
 29 30  1  0
  7 31  1  0
 31 32  2  0
 32  4  1  0
 22 17  1  0
 29 20  1  0
  1 33  1  0
  1 34  1  0
  1 35  1  0
  2 36  1  0
  2 37  1  0
  5 38  1  0
  6 39  1  0
  8 40  1  0
 11 41  1  0
 11 42  1  0
 12 43  1  0
 12 44  1  0
 13 45  1  0
 18 46  1  0
 19 47  1  0
 22 48  1  0
 26 49  1  0
 26 50  1  0
 26 51  1  0
 30 52  1  0
 30 53  1  0
 30 54  1  0
 31 55  1  0
 32 56  1  0
M  END
$$$$
