
     RDKit          3D

 56 59  0  0  0  0  0  0  0  0999 V2000
    9.7872    0.0492    2.5004 C   0  0  0  0  0  0  0  0  0  0  0  0
    8.4797    0.4230    2.9162 O   0  0  0  0  0  0  0  0  0  0  0  0
    7.4323   -0.2470    2.3464 C   0  0  0  0  0  0  0  0  0  0  0  0
    6.1765    0.0910    2.8615 C   0  0  0  0  0  0  0  0  0  0  0  0
    5.0188   -0.5172    2.3743 C   0  0  0  0  0  0  0  0  0  0  0  0
    5.1236   -1.4666    1.3565 C   0  0  0  0  0  0  0  0  0  0  0  0
    3.6491   -2.2280    0.7332 S   0  0  0  0  0  6  0  0  0  0  0  0
    3.9927   -3.0265   -0.4247 O   0  0  0  0  0  0  0  0  0  0  0  0
    2.9415   -2.7989    1.8582 O   0  0  0  0  0  0  0  0  0  0  0  0
    2.7582   -0.9074    0.1755 N   0  0  0  0  0  0  0  0  0  0  0  0
    3.2974   -0.1617   -0.9806 C   0  0  0  0  0  0  0  0  0  0  0  0
    2.2842   -0.4173   -2.0732 C   0  0  0  0  0  0  0  0  0  0  0  0
    1.0488   -0.5113   -1.3646 O   0  0  0  0  0  0  0  0  0  0  0  0
    1.3562   -1.2471   -0.1673 C   0  0  0  0  0  0  0  0  0  0  0  0
    0.4022   -0.8425    0.9754 C   0  0  0  0  0  0  0  0  0  0  0  0
   -0.9758   -1.2365    0.7350 N   0  0  0  0  0  0  0  0  0  0  0  0
   -1.8909   -0.3922    0.1495 C   0  0  0  0  0  0  0  0  0  0  0  0
   -1.7389    0.7958   -0.0929 O   0  0  0  0  0  0  0  0  0  0  0  0
   -3.2275   -1.0851   -0.1979 C   0  0  0  0  0  0  0  0  0  0  0  0
   -3.3360   -2.2992   -0.0910 O   0  0  0  0  0  0  0  0  0  0  0  0
   -4.2063   -0.2168   -0.6137 N   0  0  0  0  0  0  0  0  0  0  0  0
   -5.4532   -0.6900   -1.1515 C   0  0  0  0  0  0  0  0  0  0  0  0
   -6.4842    0.4068   -1.1608 C   0  0  0  0  0  0  0  0  0  0  0  0
   -7.2945    0.6270   -0.0218 C   0  0  0  0  0  0  0  0  0  0  0  0
   -8.2430    1.6551    0.0004 C   0  0  0  0  0  0  0  0  0  0  0  0
   -8.3524    2.4495   -1.1201 C   0  0  0  0  0  0  0  0  0  0  0  0
   -7.5621    2.2516   -2.2278 C   0  0  0  0  0  0  0  0  0  0  0  0
   -6.6197    1.2454   -2.2801 C   0  0  0  0  0  0  0  0  0  0  0  0
   -7.8238    3.1465   -3.2188 O   0  0  0  0  0  0  0  0  0  0  0  0
   -8.8667    3.9332   -2.6047 C   0  0  0  0  0  0  0  0  0  0  0  0
   -9.2125    3.4918   -1.2751 O   0  0  0  0  0  0  0  0  0  0  0  0
    6.3700   -1.8141    0.8315 C   0  0  0  0  0  0  0  0  0  0  0  0
    7.5247   -1.2005    1.3286 C   0  0  0  0  0  0  0  0  0  0  0  0
    9.9831   -1.0081    2.7100 H   0  0  0  0  0  0  0  0  0  0  0  0
   10.5041    0.6422    3.0761 H   0  0  0  0  0  0  0  0  0  0  0  0
    9.9429    0.2758    1.4405 H   0  0  0  0  0  0  0  0  0  0  0  0
    6.1039    0.8300    3.6565 H   0  0  0  0  0  0  0  0  0  0  0  0
    4.0495   -0.2522    2.7906 H   0  0  0  0  0  0  0  0  0  0  0  0
    3.3158    0.8994   -0.7081 H   0  0  0  0  0  0  0  0  0  0  0  0
    4.3061   -0.4532   -1.2812 H   0  0  0  0  0  0  0  0  0  0  0  0
    2.2420    0.3871   -2.8113 H   0  0  0  0  0  0  0  0  0  0  0  0
    2.4712   -1.3664   -2.5890 H   0  0  0  0  0  0  0  0  0  0  0  0
    1.2385   -2.3113   -0.4064 H   0  0  0  0  0  0  0  0  0  0  0  0
    0.4345    0.2437    1.1193 H   0  0  0  0  0  0  0  0  0  0  0  0
    0.7014   -1.3170    1.9150 H   0  0  0  0  0  0  0  0  0  0  0  0
   -1.2438   -2.2151    0.7988 H   0  0  0  0  0  0  0  0  0  0  0  0
   -3.9177    0.7456   -0.7677 H   0  0  0  0  0  0  0  0  0  0  0  0
   -5.2665   -1.0536   -2.1697 H   0  0  0  0  0  0  0  0  0  0  0  0
   -5.8058   -1.5494   -0.5682 H   0  0  0  0  0  0  0  0  0  0  0  0
   -7.1813   -0.0082    0.8556 H   0  0  0  0  0  0  0  0  0  0  0  0
   -8.8679    1.8253    0.8702 H   0  0  0  0  0  0  0  0  0  0  0  0
   -6.0057    1.1168   -3.1662 H   0  0  0  0  0  0  0  0  0  0  0  0
   -8.5344    4.9767   -2.5519 H   0  0  0  0  0  0  0  0  0  0  0  0
   -9.7611    3.8813   -3.2356 H   0  0  0  0  0  0  0  0  0  0  0  0
    6.4556   -2.5619    0.0461 H   0  0  0  0  0  0  0  0  0  0  0  0
    8.4802   -1.4879    0.9006 H   0  0  0  0  0  0  0  0  0  0  0  0
  1  2  1  0
  2  3  1  0
  3  4  2  0
  4  5  1  0
  5  6  2  0
  6  7  1  0
  7  8  2  0
  7  9  2  0
  7 10  1  0
 10 11  1  0
 11 12  1  0
 12 13  1  0
 13 14  1  0
 14 15  1  0
 15 16  1  0
 16 17  1  0
 17 18  2  0
 17 19  1  0
 19 20  2  0
 19 21  1  0
 21 22  1  0
 22 23  1  0
 23 24  2  0
 24 25  1  0
 25 26  2  0
 26 27  1  0
 27 28  2  0
 27 29  1  0
 29 30  1  0
 30 31  1  0
  6 32  1  0
 32 33  2  0
 33  3  1  0
 14 10  1  0
 28 23  1  0
 31 26  1  0
  1 34  1  0
  1 35  1  0
  1 36  1  0
  4 37  1  0
  5 38  1  0
 11 39  1  0
 11 40  1  0
 12 41  1  0
 12 42  1  0
 14 43  1  0
 15 44  1  0
 15 45  1  0
 16 46  1  0
 21 47  1  0
 22 48  1  0
 22 49  1  0
 24 50  1  0
 25 51  1  0
 28 52  1  0
 30 53  1  0
 30 54  1  0
 32 55  1  0
 33 56  1  0
M  END
$$$$
