
     RDKit          3D

 54 57  0  0  0  0  0  0  0  0999 V2000
   -6.2825   -0.1389    1.0532 C   0  0  0  0  0  0  0  0  0  0  0  0
   -5.9441    1.0281    0.3162 O   0  0  0  0  0  0  0  0  0  0  0  0
   -4.6461    1.1475   -0.1089 C   0  0  0  0  0  0  0  0  0  0  0  0
   -3.5938    0.3229    0.2986 C   0  0  0  0  0  0  0  0  0  0  0  0
   -2.2789    0.5065   -0.1785 C   0  0  0  0  0  0  0  0  0  0  0  0
   -1.1901   -0.3849    0.2795 C   0  0  0  0  0  0  0  0  0  0  0  0
    0.1248    0.0254    0.4055 C   0  0  0  0  0  0  0  0  0  0  0  0
    1.0750   -0.9027    0.8347 C   0  0  0  0  0  0  0  0  0  0  0  0
    2.4752   -0.4230    0.8879 C   0  0  0  0  0  0  0  0  0  0  0  0
    2.7183    0.5616    1.5719 O   0  0  0  0  0  0  0  0  0  0  0  0
    3.3435   -1.1350    0.0834 N   0  0  0  0  0  0  0  0  0  0  0  0
    4.7286   -0.9264   -0.0747 C   0  0  0  0  0  0  0  0  0  0  0  0
    5.4542    0.0478    0.6155 C   0  0  0  0  0  0  0  0  0  0  0  0
    6.8309    0.1903    0.4074 C   0  0  0  0  0  0  0  0  0  0  0  0
    7.4799   -0.6462   -0.4924 C   0  0  0  0  0  0  0  0  0  0  0  0
    8.8184   -0.5413   -0.7244 O   0  0  0  0  0  0  0  0  0  0  0  0
    6.7761   -1.6211   -1.1854 C   0  0  0  0  0  0  0  0  0  0  0  0
    5.4020   -1.7615   -0.9766 C   0  0  0  0  0  0  0  0  0  0  0  0
    0.7087   -2.2188    1.1872 C   0  0  0  0  0  0  0  0  0  0  0  0
    1.5904   -3.2041    1.7034 C   0  0  0  0  0  0  0  0  0  0  0  0
    1.1352   -4.4839    2.0134 C   0  0  0  0  0  0  0  0  0  0  0  0
   -0.2026   -4.7963    1.8225 C   0  0  0  0  0  0  0  0  0  0  0  0
   -1.0772   -3.8227    1.3349 C   0  0  0  0  0  0  0  0  0  0  0  0
   -0.6500   -2.5390    1.0223 C   0  0  0  0  0  0  0  0  0  0  0  0
   -1.5601   -1.6557    0.5773 N   0  0  0  0  0  0  0  0  0  0  0  0
   -2.0520    1.5482   -1.1013 C   0  0  0  0  0  0  0  0  0  0  0  0
   -3.0870    2.3908   -1.5216 C   0  0  0  0  0  0  0  0  0  0  0  0
   -2.9441    3.4255   -2.4102 O   0  0  0  0  0  0  0  0  0  0  0  0
   -1.6860    3.5764   -3.0519 C   0  0  0  0  0  0  0  0  0  0  0  0
   -4.3756    2.1939   -1.0022 C   0  0  0  0  0  0  0  0  0  0  0  0
   -5.4084    2.9933   -1.4419 O   0  0  0  0  0  0  0  0  0  0  0  0
   -5.5512    4.1165   -0.5743 C   0  0  0  0  0  0  0  0  0  0  0  0
   -5.7967   -0.1368    2.0343 H   0  0  0  0  0  0  0  0  0  0  0  0
   -7.3641   -0.1272    1.2190 H   0  0  0  0  0  0  0  0  0  0  0  0
   -6.0420   -1.0488    0.4932 H   0  0  0  0  0  0  0  0  0  0  0  0
   -3.7678   -0.4832    1.0065 H   0  0  0  0  0  0  0  0  0  0  0  0
    0.4262    1.0455    0.1888 H   0  0  0  0  0  0  0  0  0  0  0  0
    2.9435   -1.8796   -0.4757 H   0  0  0  0  0  0  0  0  0  0  0  0
    4.9780    0.7147    1.3276 H   0  0  0  0  0  0  0  0  0  0  0  0
    7.3696    0.9559    0.9571 H   0  0  0  0  0  0  0  0  0  0  0  0
    9.1707    0.1823   -0.1801 H   0  0  0  0  0  0  0  0  0  0  0  0
    7.2940   -2.2697   -1.8862 H   0  0  0  0  0  0  0  0  0  0  0  0
    4.8713   -2.5312   -1.5304 H   0  0  0  0  0  0  0  0  0  0  0  0
    2.6386   -2.9761    1.8894 H   0  0  0  0  0  0  0  0  0  0  0  0
    1.8210   -5.2286    2.4104 H   0  0  0  0  0  0  0  0  0  0  0  0
   -0.5746   -5.7894    2.0617 H   0  0  0  0  0  0  0  0  0  0  0  0
   -2.1278   -4.0725    1.2005 H   0  0  0  0  0  0  0  0  0  0  0  0
   -1.0520    1.6822   -1.4998 H   0  0  0  0  0  0  0  0  0  0  0  0
   -0.9059    3.8391   -2.3300 H   0  0  0  0  0  0  0  0  0  0  0  0
   -1.4173    2.6772   -3.6163 H   0  0  0  0  0  0  0  0  0  0  0  0
   -1.7707    4.4028   -3.7642 H   0  0  0  0  0  0  0  0  0  0  0  0
   -5.8087    3.8058    0.4442 H   0  0  0  0  0  0  0  0  0  0  0  0
   -6.3716    4.7316   -0.9560 H   0  0  0  0  0  0  0  0  0  0  0  0
   -4.6449    4.7319   -0.5646 H   0  0  0  0  0  0  0  0  0  0  0  0
  1  2  1  0
  2  3  1  0
  3  4  2  0
  4  5  1  0
  5  6  1  0
  6  7  2  0
  7  8  1  0
  8  9  1  0
  9 10  2  0
  9 11  1  0
 11 12  1  0
 12 13  2  0
 13 14  1  0
 14 15  2  0
 15 16  1  0
 15 17  1  0
 17 18  2  0
  8 19  2  0
 19 20  1  0
 20 21  2  0
 21 22  1  0
 22 23  2  0
 23 24  1  0
 24 25  2  0
  5 26  2  0
 26 27  1  0
 27 28  1  0
 28 29  1  0
 27 30  2  0
 30 31  1  0
 31 32  1  0
 30  3  1  0
 25  6  1  0
 18 12  1  0
 24 19  1  0
  1 33  1  0
  1 34  1  0
  1 35  1  0
  4 36  1  0
  7 37  1  0
 11 38  1  0
 13 39  1  0
 14 40  1  0
 16 41  1  0
 17 42  1  0
 18 43  1  0
 20 44  1  0
 21 45  1  0
 22 46  1  0
 23 47  1  0
 26 48  1  0
 29 49  1  0
 29 50  1  0
 29 51  1  0
 32 52  1  0
 32 53  1  0
 32 54  1  0
M  END
$$$$
