
     RDKit          3D

 56 58  0  0  0  0  0  0  0  0999 V2000
   -7.1543    0.8920   -2.1850 C   0  0  0  0  0  0  0  0  0  0  0  0
   -6.8905   -0.0595   -1.0266 C   0  0  0  0  0  0  0  0  0  0  0  0
   -5.8841    0.4930   -0.1072 N   0  0  0  0  0  0  0  0  0  0  0  0
   -6.4184    1.2850    1.0104 C   0  0  0  0  0  0  0  0  0  0  0  0
   -6.6486    0.4128    2.2364 C   0  0  0  0  0  0  0  0  0  0  0  0
   -4.5221    0.2898   -0.2903 C   0  0  0  0  0  0  0  0  0  0  0  0
   -4.0020   -0.3503   -1.4269 C   0  0  0  0  0  0  0  0  0  0  0  0
   -2.6258   -0.5574   -1.6183 C   0  0  0  0  0  0  0  0  0  0  0  0
   -1.6994   -0.1190   -0.6741 C   0  0  0  0  0  0  0  0  0  0  0  0
   -0.2715   -0.3830   -0.9016 C   0  0  0  0  0  0  0  0  0  0  0  0
    0.7161    0.4220   -0.4775 C   0  0  0  0  0  0  0  0  0  0  0  0
    2.1294    0.1289   -0.7451 C   0  0  0  0  0  0  0  0  0  0  0  0
    2.5841    0.2288   -2.0606 C   0  0  0  0  0  0  0  0  0  0  0  0
    3.9134   -0.0067   -2.3557 C   0  0  0  0  0  0  0  0  0  0  0  0
    4.7926   -0.3287   -1.3295 C   0  0  0  0  0  0  0  0  0  0  0  0
    6.1451   -0.5558   -1.6212 C   0  0  0  0  0  0  0  0  0  0  0  0
    7.0524   -0.8705   -0.6095 C   0  0  0  0  0  0  0  0  0  0  0  0
    6.6158   -0.9569    0.7052 C   0  0  0  0  0  0  0  0  0  0  0  0
    7.3889   -1.2473    1.7936 O   0  0  0  0  0  0  0  0  0  0  0  0
    8.7748   -1.4872    1.5633 C   0  0  0  0  0  0  0  0  0  0  0  0
    5.2654   -0.7331    1.0040 C   0  0  0  0  0  0  0  0  0  0  0  0
    4.3215   -0.4228    0.0079 C   0  0  0  0  0  0  0  0  0  0  0  0
    2.9862   -0.2032    0.2674 N   0  0  0  0  0  4  0  0  0  0  0  0
    2.4468   -0.3718    1.6519 C   0  0  0  0  0  0  0  0  0  0  0  0
    2.5976    0.9232    2.4282 C   0  0  0  0  0  0  0  0  0  0  0  0
   -2.1860    0.5045    0.4733 C   0  0  0  0  0  0  0  0  0  0  0  0
   -3.5657    0.7053    0.6509 C   0  0  0  0  0  0  0  0  0  0  0  0
   -7.9192    0.4764   -2.8483 H   0  0  0  0  0  0  0  0  0  0  0  0
   -7.5101    1.8625   -1.8235 H   0  0  0  0  0  0  0  0  0  0  0  0
   -6.2522    1.0703   -2.7778 H   0  0  0  0  0  0  0  0  0  0  0  0
   -6.6069   -1.0531   -1.3913 H   0  0  0  0  0  0  0  0  0  0  0  0
   -7.8337   -0.2190   -0.4884 H   0  0  0  0  0  0  0  0  0  0  0  0
   -7.3771    1.7338    0.7203 H   0  0  0  0  0  0  0  0  0  0  0  0
   -5.7730    2.1372    1.2507 H   0  0  0  0  0  0  0  0  0  0  0  0
   -7.0648    1.0113    3.0528 H   0  0  0  0  0  0  0  0  0  0  0  0
   -5.7194   -0.0437    2.5902 H   0  0  0  0  0  0  0  0  0  0  0  0
   -7.3525   -0.3967    2.0165 H   0  0  0  0  0  0  0  0  0  0  0  0
   -4.6584   -0.7044   -2.2163 H   0  0  0  0  0  0  0  0  0  0  0  0
   -2.3040   -1.0599   -2.5279 H   0  0  0  0  0  0  0  0  0  0  0  0
   -0.0559   -1.2872   -1.4703 H   0  0  0  0  0  0  0  0  0  0  0  0
    0.5119    1.3422    0.0629 H   0  0  0  0  0  0  0  0  0  0  0  0
    1.8999    0.4998   -2.8643 H   0  0  0  0  0  0  0  0  0  0  0  0
    4.2536    0.0744   -3.3879 H   0  0  0  0  0  0  0  0  0  0  0  0
    6.5149   -0.4885   -2.6449 H   0  0  0  0  0  0  0  0  0  0  0  0
    8.0908   -1.0371   -0.8837 H   0  0  0  0  0  0  0  0  0  0  0  0
    9.2411   -1.7031    2.5293 H   0  0  0  0  0  0  0  0  0  0  0  0
    8.9206   -2.3599    0.9184 H   0  0  0  0  0  0  0  0  0  0  0  0
    9.2630   -0.6002    1.1463 H   0  0  0  0  0  0  0  0  0  0  0  0
    4.9988   -0.8039    2.0542 H   0  0  0  0  0  0  0  0  0  0  0  0
    1.3988   -0.6801    1.6038 H   0  0  0  0  0  0  0  0  0  0  0  0
    2.9607   -1.2073    2.1351 H   0  0  0  0  0  0  0  0  0  0  0  0
    3.6453    1.2279    2.5064 H   0  0  0  0  0  0  0  0  0  0  0  0
    2.2027    0.8038    3.4417 H   0  0  0  0  0  0  0  0  0  0  0  0
    2.0543    1.7417    1.9465 H   0  0  0  0  0  0  0  0  0  0  0  0
   -1.5203    0.8395    1.2628 H   0  0  0  0  0  0  0  0  0  0  0  0
   -3.8705    1.1913    1.5731 H   0  0  0  0  0  0  0  0  0  0  0  0
  1  2  1  0
  2  3  1  0
  3  4  1  0
  4  5  1  0
  3  6  1  0
  6  7  2  0
  7  8  1  0
  8  9  2  0
  9 10  1  0
 10 11  2  3
 11 12  1  0
 12 13  2  0
 13 14  1  0
 14 15  2  0
 15 16  1  0
 16 17  2  0
 17 18  1  0
 18 19  1  0
 19 20  1  0
 18 21  2  0
 21 22  1  0
 22 23  2  0
 23 24  1  0
 24 25  1  0
  9 26  1  0
 26 27  2  0
 27  6  1  0
 23 12  1  0
 22 15  1  0
  1 28  1  0
  1 29  1  0
  1 30  1  0
  2 31  1  0
  2 32  1  0
  4 33  1  0
  4 34  1  0
  5 35  1  0
  5 36  1  0
  5 37  1  0
  7 38  1  0
  8 39  1  0
 10 40  1  0
 11 41  1  0
 13 42  1  0
 14 43  1  0
 16 44  1  0
 17 45  1  0
 20 46  1  0
 20 47  1  0
 20 48  1  0
 21 49  1  0
 24 50  1  0
 24 51  1  0
 25 52  1  0
 25 53  1  0
 25 54  1  0
 26 55  1  0
 27 56  1  0
M  CHG  1  23   1
M  END
$$$$
