
     RDKit          3D

 43 44  0  0  0  0  0  0  0  0999 V2000
   -3.0692   -2.9451   -0.0112 C   0  0  0  0  0  0  0  0  0  0  0  0
   -1.8594   -2.0736   -0.2920 C   0  0  0  0  0  0  0  0  0  0  0  0
   -2.2235   -0.6481   -0.0881 N   0  0  0  0  0  4  0  0  0  0  0  0
   -2.7287    0.0290   -1.1508 C   0  0  0  0  0  0  0  0  0  0  0  0
   -3.1584    1.3498   -1.0417 C   0  0  0  0  0  0  0  0  0  0  0  0
   -3.6854    2.0836   -2.2398 C   0  0  0  0  0  0  0  0  0  0  0  0
   -3.0383    1.9902    0.1855 C   0  0  0  0  0  0  0  0  0  0  0  0
   -2.5069    1.2988    1.2657 C   0  0  0  0  0  0  0  0  0  0  0  0
   -2.0862   -0.0286    1.1166 C   0  0  0  0  0  0  0  0  0  0  0  0
   -1.4809   -0.6977    2.2745 C   0  0  0  0  0  0  0  0  0  0  0  0
   -0.1612   -0.8709    2.4675 C   0  0  0  0  0  0  0  0  0  0  0  0
    0.8929   -0.4746    1.5278 C   0  0  0  0  0  0  0  0  0  0  0  0
    1.1005    0.8542    1.1679 C   0  0  0  0  0  0  0  0  0  0  0  0
    2.0826    1.1895    0.2238 C   0  0  0  0  0  0  0  0  0  0  0  0
    2.9098    0.2255   -0.3790 C   0  0  0  0  0  0  0  0  0  0  0  0
    3.8601    0.5623   -1.3494 N   0  0  0  0  0  0  0  0  0  0  0  0
    4.2726    1.9622   -1.4802 C   0  0  0  0  0  0  0  0  0  0  0  0
    4.8926   -0.4164   -1.7000 C   0  0  0  0  0  0  0  0  0  0  0  0
    2.6898   -1.1036    0.0230 C   0  0  0  0  0  0  0  0  0  0  0  0
    1.7112   -1.4516    0.9659 C   0  0  0  0  0  0  0  0  0  0  0  0
   -3.9036   -2.6874   -0.6714 H   0  0  0  0  0  0  0  0  0  0  0  0
   -3.4129   -2.8252    1.0210 H   0  0  0  0  0  0  0  0  0  0  0  0
   -2.8223   -3.9993   -0.1693 H   0  0  0  0  0  0  0  0  0  0  0  0
   -1.0209   -2.3496    0.3457 H   0  0  0  0  0  0  0  0  0  0  0  0
   -1.5231   -2.1921   -1.3282 H   0  0  0  0  0  0  0  0  0  0  0  0
   -2.7954   -0.5094   -2.0932 H   0  0  0  0  0  0  0  0  0  0  0  0
   -4.1841    1.3956   -2.9306 H   0  0  0  0  0  0  0  0  0  0  0  0
   -2.8638    2.5794   -2.7658 H   0  0  0  0  0  0  0  0  0  0  0  0
   -4.4225    2.8371   -1.9430 H   0  0  0  0  0  0  0  0  0  0  0  0
   -3.3476    3.0280    0.3069 H   0  0  0  0  0  0  0  0  0  0  0  0
   -2.4015    1.8059    2.2238 H   0  0  0  0  0  0  0  0  0  0  0  0
   -2.1798   -1.0241    3.0422 H   0  0  0  0  0  0  0  0  0  0  0  0
    0.1907   -1.3689    3.3709 H   0  0  0  0  0  0  0  0  0  0  0  0
    0.5175    1.6551    1.6156 H   0  0  0  0  0  0  0  0  0  0  0  0
    2.1851    2.2428   -0.0220 H   0  0  0  0  0  0  0  0  0  0  0  0
    3.4305    2.5971   -1.7755 H   0  0  0  0  0  0  0  0  0  0  0  0
    4.7060    2.3338   -0.5451 H   0  0  0  0  0  0  0  0  0  0  0  0
    5.0268    2.0822   -2.2662 H   0  0  0  0  0  0  0  0  0  0  0  0
    4.4507   -1.3207   -2.1318 H   0  0  0  0  0  0  0  0  0  0  0  0
    5.5706   -0.0212   -2.4650 H   0  0  0  0  0  0  0  0  0  0  0  0
    5.4972   -0.6811   -0.8255 H   0  0  0  0  0  0  0  0  0  0  0  0
    3.2845   -1.9151   -0.3872 H   0  0  0  0  0  0  0  0  0  0  0  0
    1.6038   -2.4980    1.2433 H   0  0  0  0  0  0  0  0  0  0  0  0
  1  2  1  0
  2  3  1  0
  3  4  2  0
  4  5  1  0
  5  6  1  0
  5  7  2  0
  7  8  1  0
  8  9  2  0
  9 10  1  0
 10 11  2  3
 11 12  1  0
 12 13  2  0
 13 14  1  0
 14 15  2  0
 15 16  1  0
 16 17  1  0
 16 18  1  0
 15 19  1  0
 19 20  2  0
  9  3  1  0
 20 12  1  0
  1 21  1  0
  1 22  1  0
  1 23  1  0
  2 24  1  0
  2 25  1  0
  4 26  1  0
  6 27  1  0
  6 28  1  0
  6 29  1  0
  7 30  1  0
  8 31  1  0
 10 32  1  0
 11 33  1  0
 13 34  1  0
 14 35  1  0
 17 36  1  0
 17 37  1  0
 17 38  1  0
 18 39  1  0
 18 40  1  0
 18 41  1  0
 19 42  1  0
 20 43  1  0
M  CHG  1   3   1
M  END
$$$$
