
     RDKit          3D

 41 42  0  0  0  0  0  0  0  0999 V2000
   -4.5141    0.6977    1.9135 C   0  0  0  0  0  0  0  0  0  0  0  0
   -4.3596    1.4109    0.5768 C   0  0  0  0  0  0  0  0  0  0  0  0
   -3.6601    0.5748   -0.4093 N   0  0  0  0  0  0  0  0  0  0  0  0
   -4.4732    0.0464   -1.5131 C   0  0  0  0  0  0  0  0  0  0  0  0
   -5.1396   -1.2668   -1.1326 C   0  0  0  0  0  0  0  0  0  0  0  0
   -2.2938    0.3236   -0.3297 C   0  0  0  0  0  0  0  0  0  0  0  0
   -1.6710   -0.6861   -1.0825 C   0  0  0  0  0  0  0  0  0  0  0  0
   -0.2919   -0.9436   -1.0105 C   0  0  0  0  0  0  0  0  0  0  0  0
    0.5304   -0.1851   -0.1798 C   0  0  0  0  0  0  0  0  0  0  0  0
    1.9723   -0.4314   -0.0473 C   0  0  0  0  0  0  0  0  0  0  0  0
    2.7629   -0.7729   -1.0765 C   0  0  0  0  0  0  0  0  0  0  0  0
    4.2176   -1.0529   -0.9578 C   0  0  0  0  0  0  0  0  0  0  0  0
    4.7361   -1.8690   -1.7145 O   0  0  0  0  0  0  0  0  0  0  0  0
    5.0442   -0.3624    0.0515 C   0  0  0  0  0  0  0  0  0  0  0  0
    6.1021   -1.0426    0.6573 C   0  0  0  0  0  0  0  0  0  0  0  0
    6.8918   -0.3822    1.5954 C   0  0  0  0  0  0  0  0  0  0  0  0
    6.5998    0.9416    1.8855 C   0  0  0  0  0  0  0  0  0  0  0  0
    5.5959    1.6348    1.3029 N   0  0  0  0  0  0  0  0  0  0  0  0
    4.8486    0.9708    0.3870 C   0  0  0  0  0  0  0  0  0  0  0  0
   -0.0624    0.8104    0.5945 C   0  0  0  0  0  0  0  0  0  0  0  0
   -1.4426    1.0575    0.5128 C   0  0  0  0  0  0  0  0  0  0  0  0
   -5.0783    1.3253    2.6107 H   0  0  0  0  0  0  0  0  0  0  0  0
   -3.5474    0.4735    2.3735 H   0  0  0  0  0  0  0  0  0  0  0  0
   -5.0532   -0.2477    1.7982 H   0  0  0  0  0  0  0  0  0  0  0  0
   -3.8597    2.3775    0.7037 H   0  0  0  0  0  0  0  0  0  0  0  0
   -5.3652    1.6591    0.2146 H   0  0  0  0  0  0  0  0  0  0  0  0
   -3.8852   -0.0727   -2.4306 H   0  0  0  0  0  0  0  0  0  0  0  0
   -5.2524    0.7716   -1.7797 H   0  0  0  0  0  0  0  0  0  0  0  0
   -5.8418   -1.1265   -0.3049 H   0  0  0  0  0  0  0  0  0  0  0  0
   -4.4076   -2.0199   -0.8254 H   0  0  0  0  0  0  0  0  0  0  0  0
   -5.7017   -1.6646   -1.9833 H   0  0  0  0  0  0  0  0  0  0  0  0
   -2.2501   -1.3289   -1.7385 H   0  0  0  0  0  0  0  0  0  0  0  0
    0.1131   -1.7584   -1.6056 H   0  0  0  0  0  0  0  0  0  0  0  0
    2.3666   -0.3164    0.9596 H   0  0  0  0  0  0  0  0  0  0  0  0
    2.3687   -0.9350   -2.0753 H   0  0  0  0  0  0  0  0  0  0  0  0
    6.3104   -2.0784    0.3990 H   0  0  0  0  0  0  0  0  0  0  0  0
    7.7177   -0.8872    2.0845 H   0  0  0  0  0  0  0  0  0  0  0  0
    7.1872    1.4982    2.6108 H   0  0  0  0  0  0  0  0  0  0  0  0
    4.0781    1.5754   -0.0829 H   0  0  0  0  0  0  0  0  0  0  0  0
    0.5360    1.4202    1.2677 H   0  0  0  0  0  0  0  0  0  0  0  0
   -1.8284    1.8613    1.1319 H   0  0  0  0  0  0  0  0  0  0  0  0
  1  2  1  0
  2  3  1  0
  3  4  1  0
  4  5  1  0
  3  6  1  0
  6  7  2  0
  7  8  1  0
  8  9  2  0
  9 10  1  0
 10 11  2  3
 11 12  1  0
 12 13  2  0
 12 14  1  0
 14 15  2  0
 15 16  1  0
 16 17  2  0
 17 18  1  0
 18 19  2  0
  9 20  1  0
 20 21  2  0
 21  6  1  0
 19 14  1  0
  1 22  1  0
  1 23  1  0
  1 24  1  0
  2 25  1  0
  2 26  1  0
  4 27  1  0
  4 28  1  0
  5 29  1  0
  5 30  1  0
  5 31  1  0
  7 32  1  0
  8 33  1  0
 10 34  1  0
 11 35  1  0
 15 36  1  0
 16 37  1  0
 17 38  1  0
 19 39  1  0
 20 40  1  0
 21 41  1  0
M  END
$$$$
