
     RDKit          3D

 42 45  0  0  0  0  0  0  0  0999 V2000
    4.2984    0.3812   -1.8836 O   0  0  0  0  0  0  0  0  0  0  0  0
    3.4017    0.2025   -1.0640 C   0  0  0  0  0  0  0  0  0  0  0  0
    3.7762    0.2401    0.3626 C   0  0  0  0  0  0  0  0  0  0  0  0
    4.6688   -0.7201    0.8536 C   0  0  0  0  0  0  0  0  0  0  0  0
    5.0523   -0.6866    2.1954 C   0  0  0  0  0  0  0  0  0  0  0  0
    4.5534    0.3116    3.0334 C   0  0  0  0  0  0  0  0  0  0  0  0
    3.6850    1.2735    2.5228 C   0  0  0  0  0  0  0  0  0  0  0  0
    3.2186    2.2334    3.3319 F   0  0  0  0  0  0  0  0  0  0  0  0
    3.2940    1.2558    1.1906 C   0  0  0  0  0  0  0  0  0  0  0  0
    2.0755   -0.0455   -1.4072 N   0  0  0  0  0  0  0  0  0  0  0  0
    1.6670    0.2244   -2.7972 C   0  0  0  0  0  0  0  0  0  0  0  0
    0.5866   -0.7534   -3.2807 C   0  0  0  0  0  0  0  0  0  0  0  0
   -0.5232   -0.8125   -2.3274 N   0  0  0  0  0  0  0  0  0  0  0  0
   -1.5660    0.1114   -2.5098 C   0  0  0  0  0  0  0  0  0  0  0  0
   -1.5668    0.9125   -3.4433 O   0  0  0  0  0  0  0  0  0  0  0  0
   -2.6791    0.0566   -1.5490 C   0  0  0  0  0  0  0  0  0  0  0  0
   -3.4449   -1.0808   -1.1929 C   0  0  0  0  0  0  0  0  0  0  0  0
   -4.3744   -0.6340   -0.2861 C   0  0  0  0  0  0  0  0  0  0  0  0
   -5.3688   -1.2827    0.3923 N   0  0  0  0  0  0  0  0  0  0  0  0
   -6.1021   -0.5340    1.1651 C   0  0  0  0  0  0  0  0  0  0  0  0
   -5.9458    0.9386    1.3740 C   0  0  0  0  0  0  0  0  0  0  0  0
   -7.0902    1.8267    2.5210 Br  0  0  0  0  0  0  0  0  0  0  0  0
   -4.9459    1.5071    0.6887 C   0  0  0  0  0  0  0  0  0  0  0  0
   -4.1473    0.7376   -0.1473 N   0  0  0  0  0  0  0  0  0  0  0  0
   -3.0971    1.1516   -0.8911 N   0  0  0  0  0  0  0  0  0  0  0  0
   -0.0914   -1.2257   -0.9882 C   0  0  0  0  0  0  0  0  0  0  0  0
    0.9806   -0.2622   -0.4433 C   0  0  0  0  0  0  0  0  0  0  0  0
    5.0679   -1.4837    0.1893 H   0  0  0  0  0  0  0  0  0  0  0  0
    5.7449   -1.4296    2.5834 H   0  0  0  0  0  0  0  0  0  0  0  0
    4.8454    0.3543    4.0785 H   0  0  0  0  0  0  0  0  0  0  0  0
    2.6349    2.0290    0.8103 H   0  0  0  0  0  0  0  0  0  0  0  0
    1.2849    1.2522   -2.8141 H   0  0  0  0  0  0  0  0  0  0  0  0
    2.5288    0.1824   -3.4709 H   0  0  0  0  0  0  0  0  0  0  0  0
    0.2290   -0.4674   -4.2754 H   0  0  0  0  0  0  0  0  0  0  0  0
    1.0031   -1.7649   -3.3573 H   0  0  0  0  0  0  0  0  0  0  0  0
   -3.3403   -2.0916   -1.5596 H   0  0  0  0  0  0  0  0  0  0  0  0
   -6.9197   -1.0132    1.7300 H   0  0  0  0  0  0  0  0  0  0  0  0
   -4.7031    2.5601    0.7352 H   0  0  0  0  0  0  0  0  0  0  0  0
   -0.9226   -1.2772   -0.2828 H   0  0  0  0  0  0  0  0  0  0  0  0
    0.3267   -2.2352   -1.0811 H   0  0  0  0  0  0  0  0  0  0  0  0
    1.3678   -0.6627    0.4974 H   0  0  0  0  0  0  0  0  0  0  0  0
    0.5371    0.7201   -0.2422 H   0  0  0  0  0  0  0  0  0  0  0  0
  1  2  2  0
  2  3  1  0
  3  4  2  0
  4  5  1  0
  5  6  2  0
  6  7  1  0
  7  8  1  0
  7  9  2  0
  2 10  1  0
 10 11  1  0
 11 12  1  0
 12 13  1  0
 13 14  1  0
 14 15  2  0
 14 16  1  0
 16 17  1  0
 17 18  2  0
 18 19  1  0
 19 20  2  0
 20 21  1  0
 21 22  1  0
 21 23  2  0
 23 24  1  0
 24 25  1  0
 13 26  1  0
 26 27  1  0
  9  3  1  0
 27 10  1  0
 25 16  2  0
 24 18  1  0
  4 28  1  0
  5 29  1  0
  6 30  1  0
  9 31  1  0
 11 32  1  0
 11 33  1  0
 12 34  1  0
 12 35  1  0
 17 36  1  0
 20 37  1  0
 23 38  1  0
 26 39  1  0
 26 40  1  0
 27 41  1  0
 27 42  1  0
M  END
$$$$
