
     RDKit          3D

 50 54  0  0  0  0  0  0  0  0999 V2000
   -4.3093    0.1507   -2.3602 C   0  0  0  0  0  0  0  0  0  0  0  0
   -4.0637   -0.9792   -1.4093 C   0  0  0  0  0  0  0  0  0  0  0  0
   -4.9252   -1.9924   -1.2238 C   0  0  0  0  0  0  0  0  0  0  0  0
   -4.6314   -3.0590   -0.3061 C   0  0  0  0  0  0  0  0  0  0  0  0
   -3.4796   -3.0538    0.3727 C   0  0  0  0  0  0  0  0  0  0  0  0
   -2.5479   -2.0329    0.2278 N   0  0  0  0  0  0  0  0  0  0  0  0
   -1.3649   -2.0924    0.9437 C   0  0  0  0  0  0  0  0  0  0  0  0
   -1.0511   -3.0208    1.6926 O   0  0  0  0  0  0  0  0  0  0  0  0
   -0.4311   -0.9454    0.7656 C   0  0  0  0  0  0  0  0  0  0  0  0
    0.8217   -0.9182    1.5043 C   0  0  0  0  0  0  0  0  0  0  0  0
    1.6943    0.0978    1.3973 C   0  0  0  0  0  0  0  0  0  0  0  0
    3.2116    0.0025    2.2100 S   0  0  0  0  0  6  0  0  0  0  0  0
    3.8478    1.3091    2.2521 O   0  0  0  0  0  0  0  0  0  0  0  0
    3.0859   -0.7792    3.4287 O   0  0  0  0  0  0  0  0  0  0  0  0
    4.1694   -0.9791    1.0622 C   0  0  0  0  0  0  0  0  0  0  0  0
    4.7959   -0.3494   -0.0224 C   0  0  0  0  0  0  0  0  0  0  0  0
    5.5479   -1.1128   -0.9163 C   0  0  0  0  0  0  0  0  0  0  0  0
    5.6700   -2.4853   -0.7148 C   0  0  0  0  0  0  0  0  0  0  0  0
    6.3898   -3.2186   -1.5744 F   0  0  0  0  0  0  0  0  0  0  0  0
    5.0603   -3.1111    0.3706 C   0  0  0  0  0  0  0  0  0  0  0  0
    4.3087   -2.3571    1.2724 C   0  0  0  0  0  0  0  0  0  0  0  0
    1.3210    1.2270    0.4877 C   0  0  0  0  0  0  0  0  0  0  0  0
    2.0669    2.2869    0.3719 N   0  0  0  0  0  0  0  0  0  0  0  0
    0.1359    1.1276   -0.2576 N   0  0  0  0  0  0  0  0  0  0  0  0
   -0.2492    2.2634   -1.1245 C   0  0  0  0  0  0  0  0  0  0  0  0
   -1.0815    3.3234   -0.4748 C   0  0  0  0  0  0  0  0  0  0  0  0
   -2.1712    3.2961    0.3745 C   0  0  0  0  0  0  0  0  0  0  0  0
   -2.5135    4.6455    0.6345 C   0  0  0  0  0  0  0  0  0  0  0  0
   -1.6182    5.4122   -0.0750 C   0  0  0  0  0  0  0  0  0  0  0  0
   -0.7536    4.6210   -0.7604 O   0  0  0  0  0  0  0  0  0  0  0  0
   -0.7592    0.0404   -0.0993 C   0  0  0  0  0  0  0  0  0  0  0  0
   -1.9366    0.0015   -0.8064 N   0  0  0  0  0  0  0  0  0  0  0  0
   -2.7723   -0.9728   -0.6352 C   0  0  0  0  0  0  0  0  0  0  0  0
   -3.5476    0.1594   -3.1449 H   0  0  0  0  0  0  0  0  0  0  0  0
   -5.2860    0.0666   -2.8488 H   0  0  0  0  0  0  0  0  0  0  0  0
   -4.2843    1.1103   -1.8349 H   0  0  0  0  0  0  0  0  0  0  0  0
   -5.8660   -2.0392   -1.7656 H   0  0  0  0  0  0  0  0  0  0  0  0
   -5.3542   -3.8604   -0.1832 H   0  0  0  0  0  0  0  0  0  0  0  0
   -3.2368   -3.8535    1.0671 H   0  0  0  0  0  0  0  0  0  0  0  0
    1.0360   -1.7768    2.1392 H   0  0  0  0  0  0  0  0  0  0  0  0
    4.7086    0.7245   -0.1769 H   0  0  0  0  0  0  0  0  0  0  0  0
    6.0403   -0.6474   -1.7646 H   0  0  0  0  0  0  0  0  0  0  0  0
    5.1793   -4.1826    0.5036 H   0  0  0  0  0  0  0  0  0  0  0  0
    3.8442   -2.8484    2.1250 H   0  0  0  0  0  0  0  0  0  0  0  0
    2.8821    2.2865    1.0071 H   0  0  0  0  0  0  0  0  0  0  0  0
    0.6474    2.7234   -1.5609 H   0  0  0  0  0  0  0  0  0  0  0  0
   -0.7980    1.8917   -2.0001 H   0  0  0  0  0  0  0  0  0  0  0  0
   -2.6533    2.4076    0.7586 H   0  0  0  0  0  0  0  0  0  0  0  0
   -3.3104    5.0147    1.2641 H   0  0  0  0  0  0  0  0  0  0  0  0
   -1.4692    6.4778   -0.1931 H   0  0  0  0  0  0  0  0  0  0  0  0
  1  2  1  0
  2  3  2  0
  3  4  1  0
  4  5  2  0
  5  6  1  0
  6  7  1  0
  7  8  2  0
  7  9  1  0
  9 10  1  0
 10 11  2  0
 11 12  1  0
 12 13  2  0
 12 14  2  0
 12 15  1  0
 15 16  2  0
 16 17  1  0
 17 18  2  0
 18 19  1  0
 18 20  1  0
 20 21  2  0
 11 22  1  0
 22 23  2  3
 22 24  1  0
 24 25  1  0
 25 26  1  0
 26 27  2  0
 27 28  1  0
 28 29  2  0
 29 30  1  0
 24 31  1  0
 31 32  1  0
 32 33  2  0
 33  2  1  0
 33  6  1  0
 31  9  2  0
 21 15  1  0
 30 26  1  0
  1 34  1  0
  1 35  1  0
  1 36  1  0
  3 37  1  0
  4 38  1  0
  5 39  1  0
 10 40  1  0
 16 41  1  0
 17 42  1  0
 20 43  1  0
 21 44  1  0
 23 45  1  0
 25 46  1  0
 25 47  1  0
 27 48  1  0
 28 49  1  0
 29 50  1  0
M  END
$$$$
