
     RDKit          3D

 52 55  0  0  0  0  0  0  0  0999 V2000
    6.2277    1.7624    1.1757 C   0  0  0  0  0  0  0  0  0  0  0  0
    4.9928    1.0915    0.7929 N   0  0  0  0  0  0  0  0  0  0  0  0
    3.8595    2.0172    0.7131 C   0  0  0  0  0  0  0  0  0  0  0  0
    2.5215    1.2920    0.3998 C   0  0  0  0  0  0  0  0  0  0  0  0
    2.6418    0.0506   -0.3950 N   0  0  0  0  0  0  0  0  0  0  0  0
    1.4288   -0.2728   -1.1509 C   0  0  0  0  0  0  0  0  0  0  0  0
    0.2186   -0.5392   -0.2471 C   0  0  0  0  0  0  0  0  0  0  0  0
   -0.9853   -0.9915   -1.0864 C   0  0  0  0  0  0  0  0  0  0  0  0
   -2.2083   -1.1444   -0.2644 N   0  0  0  0  0  0  0  0  0  0  0  0
   -2.4801   -2.4428    0.2592 C   0  0  0  0  0  0  0  0  0  0  0  0
   -1.4872   -3.4461    0.3412 C   0  0  0  0  0  0  0  0  0  0  0  0
   -1.7412   -4.7196    0.8659 C   0  0  0  0  0  0  0  0  0  0  0  0
   -3.0047   -5.0362    1.3334 C   0  0  0  0  0  0  0  0  0  0  0  0
   -4.0063   -4.0747    1.2766 C   0  0  0  0  0  0  0  0  0  0  0  0
   -3.7543   -2.7908    0.7523 C   0  0  0  0  0  0  0  0  0  0  0  0
   -5.1502   -1.6916    0.7278 S   0  0  0  0  0  0  0  0  0  0  0  0
   -4.4010   -0.1407    0.2942 C   0  0  0  0  0  0  0  0  0  0  0  0
   -5.2406    0.9853    0.4007 C   0  0  0  0  0  0  0  0  0  0  0  0
   -4.7852    2.2576    0.0708 C   0  0  0  0  0  0  0  0  0  0  0  0
   -3.4746    2.4263   -0.3673 C   0  0  0  0  0  0  0  0  0  0  0  0
   -2.9527    3.7902   -0.7449 C   0  0  0  0  0  0  0  0  0  0  0  0
   -3.0585    4.0314   -2.0806 F   0  0  0  0  0  0  0  0  0  0  0  0
   -1.6343    3.9564   -0.4408 F   0  0  0  0  0  0  0  0  0  0  0  0
   -3.6079    4.8108   -0.1256 F   0  0  0  0  0  0  0  0  0  0  0  0
   -2.6454    1.2923   -0.4839 C   0  0  0  0  0  0  0  0  0  0  0  0
   -3.0740   -0.0170   -0.1620 C   0  0  0  0  0  0  0  0  0  0  0  0
    3.8280    0.1113   -1.2598 C   0  0  0  0  0  0  0  0  0  0  0  0
    5.1452    0.3462   -0.4702 C   0  0  0  0  0  0  0  0  0  0  0  0
    6.1190    2.2378    2.1566 H   0  0  0  0  0  0  0  0  0  0  0  0
    6.5224    2.5314    0.4526 H   0  0  0  0  0  0  0  0  0  0  0  0
    7.0465    1.0397    1.2643 H   0  0  0  0  0  0  0  0  0  0  0  0
    3.7412    2.5577    1.6602 H   0  0  0  0  0  0  0  0  0  0  0  0
    4.0475    2.7686   -0.0660 H   0  0  0  0  0  0  0  0  0  0  0  0
    2.0450    1.0292    1.3520 H   0  0  0  0  0  0  0  0  0  0  0  0
    1.8685    2.0175   -0.1027 H   0  0  0  0  0  0  0  0  0  0  0  0
    1.6123   -1.1805   -1.7402 H   0  0  0  0  0  0  0  0  0  0  0  0
    1.1932    0.5281   -1.8638 H   0  0  0  0  0  0  0  0  0  0  0  0
    0.4754   -1.3019    0.4965 H   0  0  0  0  0  0  0  0  0  0  0  0
   -0.0357    0.3612    0.3219 H   0  0  0  0  0  0  0  0  0  0  0  0
   -0.7479   -1.9211   -1.6203 H   0  0  0  0  0  0  0  0  0  0  0  0
   -1.1594   -0.2891   -1.9123 H   0  0  0  0  0  0  0  0  0  0  0  0
   -0.4678   -3.2665    0.0162 H   0  0  0  0  0  0  0  0  0  0  0  0
   -0.9422   -5.4554    0.9114 H   0  0  0  0  0  0  0  0  0  0  0  0
   -3.2115   -6.0207    1.7431 H   0  0  0  0  0  0  0  0  0  0  0  0
   -4.9973   -4.3309    1.6465 H   0  0  0  0  0  0  0  0  0  0  0  0
   -6.2675    0.8709    0.7448 H   0  0  0  0  0  0  0  0  0  0  0  0
   -5.4569    3.1093    0.1624 H   0  0  0  0  0  0  0  0  0  0  0  0
   -1.6290    1.4771   -0.8210 H   0  0  0  0  0  0  0  0  0  0  0  0
    3.9353   -0.8228   -1.8248 H   0  0  0  0  0  0  0  0  0  0  0  0
    3.7061    0.9195   -1.9940 H   0  0  0  0  0  0  0  0  0  0  0  0
    5.5862   -0.6278   -0.2252 H   0  0  0  0  0  0  0  0  0  0  0  0
    5.8444    0.8548   -1.1470 H   0  0  0  0  0  0  0  0  0  0  0  0
  1  2  1  0
  2  3  1  0
  3  4  1  0
  4  5  1  0
  5  6  1  0
  6  7  1  0
  7  8  1  0
  8  9  1  0
  9 10  1  0
 10 11  2  0
 11 12  1  0
 12 13  2  0
 13 14  1  0
 14 15  2  0
 15 16  1  0
 16 17  1  0
 17 18  2  0
 18 19  1  0
 19 20  2  0
 20 21  1  0
 21 22  1  0
 21 23  1  0
 21 24  1  0
 20 25  1  0
 25 26  2  0
  5 27  1  0
 27 28  1  0
 28  2  1  0
 26  9  1  0
 15 10  1  0
 26 17  1  0
  1 29  1  0
  1 30  1  0
  1 31  1  0
  3 32  1  0
  3 33  1  0
  4 34  1  0
  4 35  1  0
  6 36  1  0
  6 37  1  0
  7 38  1  0
  7 39  1  0
  8 40  1  0
  8 41  1  0
 11 42  1  0
 12 43  1  0
 13 44  1  0
 14 45  1  0
 18 46  1  0
 19 47  1  0
 25 48  1  0
 27 49  1  0
 27 50  1  0
 28 51  1  0
 28 52  1  0
M  END
$$$$
