
     RDKit          3D

 31 33  0  0  0  0  0  0  0  0999 V2000
   -2.6307   -1.4943   -1.6525 C   0  0  0  0  0  0  0  0  0  0  0  0
   -3.0879   -0.5952   -0.5493 C   0  0  0  0  0  0  0  0  0  0  0  0
   -4.4659   -0.2816   -0.3072 C   0  0  0  0  0  0  0  0  0  0  0  0
   -4.6397    0.5705    0.7569 C   0  0  0  0  0  0  0  0  0  0  0  0
   -3.1582    1.0031    1.4751 S   0  0  0  0  0  0  0  0  0  0  0  0
   -2.2539    0.0431    0.3648 C   0  0  0  0  0  0  0  0  0  0  0  0
   -0.7354   -0.0333    0.4511 C   0  0  0  0  0  0  0  0  0  0  0  0
   -0.2374   -0.3553    1.8443 C   0  0  0  0  0  0  0  0  0  0  0  0
    0.9614   -1.2443    1.7878 C   0  0  0  0  0  0  0  0  0  0  0  0
    0.9930   -2.2795    2.4628 O   0  0  0  0  0  0  0  0  0  0  0  0
    2.0612   -0.9578    1.0551 N   0  0  0  0  0  0  0  0  0  0  0  0
    2.4577    0.0792    0.1882 C   0  0  0  0  0  0  0  0  0  0  0  0
    3.8114   -0.0285   -0.2091 C   0  0  0  0  0  0  0  0  0  0  0  0
    4.4207    0.9072   -1.0447 C   0  0  0  0  0  0  0  0  0  0  0  0
    3.6855    1.9816   -1.5089 C   0  0  0  0  0  0  0  0  0  0  0  0
    2.3462    2.1011   -1.1416 C   0  0  0  0  0  0  0  0  0  0  0  0
    1.7041    1.1575   -0.3046 C   0  0  0  0  0  0  0  0  0  0  0  0
   -0.0164    1.5564   -0.0623 S   0  0  0  0  0  0  0  0  0  0  0  0
   -3.4739   -1.8410   -2.2587 H   0  0  0  0  0  0  0  0  0  0  0  0
   -2.1256   -2.3747   -1.2422 H   0  0  0  0  0  0  0  0  0  0  0  0
   -1.9358   -0.9665   -2.3137 H   0  0  0  0  0  0  0  0  0  0  0  0
   -5.2935   -0.6643   -0.8928 H   0  0  0  0  0  0  0  0  0  0  0  0
   -5.5694    0.9622    1.1457 H   0  0  0  0  0  0  0  0  0  0  0  0
   -0.4021   -0.7931   -0.2660 H   0  0  0  0  0  0  0  0  0  0  0  0
   -0.9990   -0.9231    2.3968 H   0  0  0  0  0  0  0  0  0  0  0  0
   -0.0036    0.5219    2.4597 H   0  0  0  0  0  0  0  0  0  0  0  0
    2.7604   -1.6726    1.2312 H   0  0  0  0  0  0  0  0  0  0  0  0
    4.4277   -0.8539    0.1454 H   0  0  0  0  0  0  0  0  0  0  0  0
    5.4655    0.7954   -1.3225 H   0  0  0  0  0  0  0  0  0  0  0  0
    4.1425    2.7248   -2.1568 H   0  0  0  0  0  0  0  0  0  0  0  0
    1.7911    2.9549   -1.5320 H   0  0  0  0  0  0  0  0  0  0  0  0
  1  2  1  0
  2  3  1  0
  3  4  2  0
  4  5  1  0
  5  6  1  0
  6  7  1  0
  7  8  1  0
  8  9  1  0
  9 10  2  0
  9 11  1  0
 11 12  1  0
 12 13  2  0
 13 14  1  0
 14 15  2  0
 15 16  1  0
 16 17  2  0
 17 18  1  0
  6  2  2  0
 18  7  1  0
 17 12  1  0
  1 19  1  0
  1 20  1  0
  1 21  1  0
  3 22  1  0
  4 23  1  0
  7 24  1  0
  8 25  1  0
  8 26  1  0
 11 27  1  0
 13 28  1  0
 14 29  1  0
 15 30  1  0
 16 31  1  0
M  END
$$$$
