
     RDKit          3D

 98102  0  0  0  0  0  0  0  0999 V2000
    9.6322   -1.0855   -2.4126 C   0  0  0  0  0  0  0  0  0  0  0  0
    8.7781   -1.2534   -1.1836 C   0  0  0  0  0  0  0  0  0  0  0  0
    9.2885   -0.5222    0.0265 C   0  0  0  0  0  0  0  0  0  0  0  0
    7.6776   -2.0337   -1.2219 C   0  0  0  0  0  0  0  0  0  0  0  0
    6.7190   -2.2917   -0.1287 C   0  0  0  0  0  0  0  0  0  0  0  0
    6.2065   -3.3857    0.0445 O   0  0  0  0  0  0  0  0  0  0  0  0
    6.4645   -1.1555    0.5507 O   0  0  0  0  0  0  0  0  0  0  0  0
    5.5494   -1.2505    1.6505 C   0  0  0  0  0  0  0  0  0  0  0  0
    4.3774   -0.3368    1.3870 C   0  0  0  0  0  0  0  0  0  0  0  0
    3.1674   -0.8382    1.0839 C   0  0  0  0  0  0  0  0  0  0  0  0
    1.9713    0.0350    0.8315 C   0  0  0  0  0  0  0  0  0  0  0  0
    0.6692   -0.6468    1.2308 C   0  0  0  0  0  0  0  0  0  0  0  0
    0.3079   -0.8221    2.3887 O   0  0  0  0  0  0  0  0  0  0  0  0
   -0.0464   -0.9801    0.1224 O   0  0  0  0  0  0  0  0  0  0  0  0
   -1.3973   -1.4508    0.3215 C   0  0  1  0  0  0  0  0  0  0  0  0
   -2.3190   -0.2504    0.5163 C   0  0  0  0  0  0  0  0  0  0  0  0
   -3.7877   -0.6738    0.4572 C   0  0  1  0  0  0  0  0  0  0  0  0
   -4.7682    0.5215    0.5409 C   0  0  0  0  0  0  0  0  0  0  0  0
   -4.4790    1.5994   -0.4795 C   0  0  0  0  0  0  0  0  0  0  0  0
   -4.3446    2.9248   -0.2661 C   0  0  0  0  0  0  0  0  0  0  0  0
   -4.6320    3.5932    1.0508 C   0  0  0  0  0  0  0  0  0  0  0  0
   -3.8774    3.8296   -1.3994 C   0  0  0  0  0  0  0  0  0  0  0  0
   -2.4999    4.5295   -1.2225 C   0  0  1  0  0  0  0  0  0  0  0  0
   -2.6607    5.9024   -0.5569 C   0  0  0  0  0  0  0  0  0  0  0  0
   -1.4602    3.6200   -0.5852 C   0  0  0  0  0  0  0  0  0  0  0  0
   -0.8909    3.7914    0.6209 C   0  0  0  0  0  0  0  0  0  0  0  0
   -0.0354    2.8197    1.2510 C   0  0  0  0  0  0  0  0  0  0  0  0
    1.1604    2.3962    0.8159 C   0  0  0  0  0  0  0  0  0  0  0  0
    1.9460    2.8955   -0.3690 C   0  0  0  0  0  0  0  0  0  0  0  0
    3.3059    2.4143   -0.1715 O   0  0  0  0  0  0  0  0  0  0  0  0
    3.4164    2.0929    1.2465 C   0  0  2  0  0  0  0  0  0  0  0  0
    3.6607    3.4177    2.0122 C   0  0  0  0  0  0  0  0  0  0  0  0
    4.6112    1.1486    1.5744 C   0  0  2  0  0  0  0  0  0  0  0  0
    5.7576    1.5572    0.8264 O   0  0  0  0  0  0  0  0  0  0  0  0
    2.0606    1.4239    1.5360 C   0  0  2  0  0  0  0  0  0  0  0  0
    1.8195    1.3932    2.9427 O   0  0  0  0  0  0  0  0  0  0  0  0
   -4.0635   -1.3969   -0.7536 O   0  0  0  0  0  0  0  0  0  0  0  0
   -3.2802   -2.5806   -0.9206 C   0  0  2  0  0  0  0  0  0  0  0  0
   -3.6503   -3.2214   -2.2679 C   0  0  0  0  0  0  0  0  0  0  0  0
   -5.0642   -3.7953   -2.2504 C   0  0  0  0  0  0  0  0  0  0  0  0
   -5.2485   -4.7310   -1.0481 C   0  0  2  0  0  0  0  0  0  0  0  0
   -6.6816   -5.2598   -1.0140 C   0  0  0  0  0  0  0  0  0  0  0  0
   -4.8451   -3.9893    0.2378 C   0  0  1  0  0  0  0  0  0  0  0  0
   -4.8963   -4.8759    1.4770 C   0  0  0  0  0  0  0  0  0  0  0  0
   -3.4932   -3.5182    0.1379 O   0  0  0  0  0  0  0  0  0  0  0  0
   -1.7952   -2.2110   -0.9425 C   0  0  0  0  0  0  0  0  0  0  0  0
    9.2224   -1.6167   -3.2771 H   0  0  0  0  0  0  0  0  0  0  0  0
    9.7165   -0.0304   -2.6829 H   0  0  0  0  0  0  0  0  0  0  0  0
   10.6372   -1.4827   -2.2344 H   0  0  0  0  0  0  0  0  0  0  0  0
    8.8286   -0.8509    0.9627 H   0  0  0  0  0  0  0  0  0  0  0  0
   10.3657   -0.6926    0.1449 H   0  0  0  0  0  0  0  0  0  0  0  0
    9.1264    0.5568   -0.0836 H   0  0  0  0  0  0  0  0  0  0  0  0
    7.4285   -2.5804   -2.1268 H   0  0  0  0  0  0  0  0  0  0  0  0
    6.0764   -0.9333    2.5580 H   0  0  0  0  0  0  0  0  0  0  0  0
    5.2157   -2.2752    1.8374 H   0  0  0  0  0  0  0  0  0  0  0  0
    3.0389   -1.9165    0.9693 H   0  0  0  0  0  0  0  0  0  0  0  0
    1.9367    0.1645   -0.2616 H   0  0  0  0  0  0  0  0  0  0  0  0
   -1.4359   -2.1258    1.1849 H   0  0  0  0  0  0  0  0  0  0  0  0
   -2.0925    0.4714   -0.2785 H   0  0  0  0  0  0  0  0  0  0  0  0
   -2.0985    0.2557    1.4651 H   0  0  0  0  0  0  0  0  0  0  0  0
   -4.0081   -1.3268    1.3101 H   0  0  0  0  0  0  0  0  0  0  0  0
   -4.7357    0.9205    1.5589 H   0  0  0  0  0  0  0  0  0  0  0  0
   -5.7879    0.1568    0.3590 H   0  0  0  0  0  0  0  0  0  0  0  0
   -4.3071    1.2146   -1.4851 H   0  0  0  0  0  0  0  0  0  0  0  0
   -5.3020    3.0051    1.6820 H   0  0  0  0  0  0  0  0  0  0  0  0
   -3.7088    3.7626    1.6130 H   0  0  0  0  0  0  0  0  0  0  0  0
   -5.1297    4.5549    0.8916 H   0  0  0  0  0  0  0  0  0  0  0  0
   -4.6562    4.5804   -1.5910 H   0  0  0  0  0  0  0  0  0  0  0  0
   -3.8265    3.2449   -2.3283 H   0  0  0  0  0  0  0  0  0  0  0  0
   -2.1248    4.7422   -2.2336 H   0  0  0  0  0  0  0  0  0  0  0  0
   -3.0592    5.8333    0.4610 H   0  0  0  0  0  0  0  0  0  0  0  0
   -3.3440    6.5334   -1.1379 H   0  0  0  0  0  0  0  0  0  0  0  0
   -1.6984    6.4257   -0.5072 H   0  0  0  0  0  0  0  0  0  0  0  0
   -1.2284    2.7238   -1.1583 H   0  0  0  0  0  0  0  0  0  0  0  0
   -1.1551    4.6409    1.2473 H   0  0  0  0  0  0  0  0  0  0  0  0
   -0.4144    2.4458    2.2006 H   0  0  0  0  0  0  0  0  0  0  0  0
    1.9740    3.9882   -0.4295 H   0  0  0  0  0  0  0  0  0  0  0  0
    1.5776    2.4796   -1.3105 H   0  0  0  0  0  0  0  0  0  0  0  0
    3.7347    3.2504    3.0913 H   0  0  0  0  0  0  0  0  0  0  0  0
    2.8737    4.1629    1.8417 H   0  0  0  0  0  0  0  0  0  0  0  0
    4.5943    3.8828    1.6716 H   0  0  0  0  0  0  0  0  0  0  0  0
    4.8734    1.2754    2.6328 H   0  0  0  0  0  0  0  0  0  0  0  0
    5.5865    1.2783   -0.0917 H   0  0  0  0  0  0  0  0  0  0  0  0
    1.1836    0.6734    3.1369 H   0  0  0  0  0  0  0  0  0  0  0  0
   -2.9580   -4.0448   -2.4867 H   0  0  0  0  0  0  0  0  0  0  0  0
   -3.5698   -2.4904   -3.0835 H   0  0  0  0  0  0  0  0  0  0  0  0
   -5.7931   -2.9770   -2.2106 H   0  0  0  0  0  0  0  0  0  0  0  0
   -5.2493   -4.3364   -3.1856 H   0  0  0  0  0  0  0  0  0  0  0  0
   -4.5662   -5.5810   -1.1897 H   0  0  0  0  0  0  0  0  0  0  0  0
   -6.9404   -5.7241   -1.9708 H   0  0  0  0  0  0  0  0  0  0  0  0
   -7.3943   -4.4522   -0.8232 H   0  0  0  0  0  0  0  0  0  0  0  0
   -6.8085   -6.0210   -0.2391 H   0  0  0  0  0  0  0  0  0  0  0  0
   -5.5087   -3.1327    0.4070 H   0  0  0  0  0  0  0  0  0  0  0  0
   -4.5084   -4.3351    2.3479 H   0  0  0  0  0  0  0  0  0  0  0  0
   -4.2636   -5.7598    1.3511 H   0  0  0  0  0  0  0  0  0  0  0  0
   -5.9139   -5.2001    1.7070 H   0  0  0  0  0  0  0  0  0  0  0  0
   -1.1650   -3.1032   -1.0314 H   0  0  0  0  0  0  0  0  0  0  0  0
   -1.5692   -1.5843   -1.8171 H   0  0  0  0  0  0  0  0  0  0  0  0
  1  2  1  0
  2  3  1  0
  2  4  2  3
  4  5  1  0
  5  6  2  0
  5  7  1  0
  7  8  1  0
  8  9  1  0
  9 10  2  0
 10 11  1  0
 11 12  1  0
 12 13  2  0
 12 14  1  0
 14 15  1  0
 15 16  1  0
 16 17  1  0
 17 18  1  0
 18 19  1  0
 19 20  2  0
 20 21  1  0
 20 22  1  0
 22 23  1  0
 23 24  1  0
 23 25  1  0
 25 26  2  0
 26 27  1  0
 27 28  2  0
 28 29  1  0
 29 30  1  0
 30 31  1  0
 31 32  1  1
 31 33  1  0
 33 34  1  0
 31 35  1  0
 35 36  1  1
 17 37  1  0
 38 37  1  1
 38 39  1  0
 39 40  1  0
 40 41  1  0
 41 42  1  0
 41 43  1  0
 43 44  1  0
 43 45  1  0
 38 46  1  0
 33  9  1  0
 45 38  1  0
 35 11  1  0
 46 15  1  0
 35 28  1  0
  1 47  1  0
  1 48  1  0
  1 49  1  0
  3 50  1  0
  3 51  1  0
  3 52  1  0
  4 53  1  0
  8 54  1  0
  8 55  1  0
 10 56  1  0
 11 57  1  0
 15 58  1  1
 16 59  1  0
 16 60  1  0
 17 61  1  1
 18 62  1  0
 18 63  1  0
 19 64  1  0
 21 65  1  0
 21 66  1  0
 21 67  1  0
 22 68  1  0
 22 69  1  0
 23 70  1  6
 24 71  1  0
 24 72  1  0
 24 73  1  0
 25 74  1  0
 26 75  1  0
 27 76  1  0
 29 77  1  0
 29 78  1  0
 32 79  1  0
 32 80  1  0
 32 81  1  0
 33 82  1  1
 34 83  1  0
 36 84  1  0
 39 85  1  0
 39 86  1  0
 40 87  1  0
 40 88  1  0
 41 89  1  6
 42 90  1  0
 42 91  1  0
 42 92  1  0
 43 93  1  1
 44 94  1  0
 44 95  1  0
 44 96  1  0
 46 97  1  0
 46 98  1  0
M  END
$$$$
