
     RDKit          3D

 59 64  0  0  0  0  0  0  0  0999 V2000
   -6.0490   -2.4196   -0.0887 C   0  0  0  0  0  0  0  0  0  0  0  0
   -5.5289   -1.3211   -0.8410 O   0  0  0  0  0  0  0  0  0  0  0  0
   -5.7264   -0.1222   -0.1910 C   0  0  0  0  0  0  0  0  0  0  0  0
   -7.0446    0.3165    0.0132 C   0  0  0  0  0  0  0  0  0  0  0  0
   -7.2885    1.5105    0.6824 C   0  0  0  0  0  0  0  0  0  0  0  0
   -6.2170    2.2694    1.1360 C   0  0  0  0  0  0  0  0  0  0  0  0
   -4.9027    1.8394    0.9089 C   0  0  0  0  0  0  0  0  0  0  0  0
   -4.6087    0.6443    0.2236 C   0  0  0  0  0  0  0  0  0  0  0  0
   -3.2900    0.2498    0.0062 N   0  0  0  0  0  0  0  0  0  0  0  0
   -2.1670    0.8385    0.7539 C   0  0  0  0  0  0  0  0  0  0  0  0
   -0.9048   -0.0468    0.6481 C   0  0  0  0  0  0  0  0  0  0  0  0
   -0.4703   -0.2698   -0.7622 N   0  0  0  0  0  0  0  0  0  0  0  0
    0.8160    0.0941   -1.0799 C   0  0  0  0  0  0  0  0  0  0  0  0
    1.2627    1.0375   -1.9888 C   0  0  0  0  0  0  0  0  0  0  0  0
    2.6491    1.2217   -1.7851 C   0  0  0  0  0  0  0  0  0  0  0  0
    3.0371    0.3656   -0.7733 C   0  0  0  0  0  0  0  0  0  0  0  0
    4.3020    0.1564   -0.0993 C   0  0  0  0  0  0  0  0  0  0  0  0
    5.4216    1.1271   -0.2475 C   0  0  0  0  0  0  0  0  0  0  0  0
    6.7288    0.6395   -0.3532 C   0  0  0  0  0  0  0  0  0  0  0  0
    7.7996    1.5267   -0.4706 C   0  0  0  0  0  0  0  0  0  0  0  0
    7.5692    2.9017   -0.4714 C   0  0  0  0  0  0  0  0  0  0  0  0
    6.2712    3.3932   -0.3435 C   0  0  0  0  0  0  0  0  0  0  0  0
    5.1980    2.5084   -0.2226 C   0  0  0  0  0  0  0  0  0  0  0  0
    4.4822   -0.8855    0.6597 N   0  0  0  0  0  0  0  0  0  0  0  0
    3.4319   -1.8119    0.8198 C   0  0  0  0  0  0  0  0  0  0  0  0
    3.6897   -2.9658    1.5652 C   0  0  0  0  0  0  0  0  0  0  0  0
    2.7050   -3.9414    1.7353 C   0  0  0  0  0  0  0  0  0  0  0  0
    1.4530   -3.7756    1.1449 C   0  0  0  0  0  0  0  0  0  0  0  0
    1.1757   -2.6287    0.3988 C   0  0  0  0  0  0  0  0  0  0  0  0
    2.1526   -1.6380    0.2629 C   0  0  0  0  0  0  0  0  0  0  0  0
    1.9576   -0.4553   -0.4901 N   0  0  0  0  0  0  0  0  0  0  0  0
   -1.5368   -0.0276   -1.7640 C   0  0  0  0  0  0  0  0  0  0  0  0
   -2.9319   -0.4487   -1.2486 C   0  0  0  0  0  0  0  0  0  0  0  0
   -5.8682   -2.3147    0.9888 H   0  0  0  0  0  0  0  0  0  0  0  0
   -7.1203   -2.5422   -0.2845 H   0  0  0  0  0  0  0  0  0  0  0  0
   -5.5385   -3.3267   -0.4285 H   0  0  0  0  0  0  0  0  0  0  0  0
   -7.8811   -0.2718   -0.3530 H   0  0  0  0  0  0  0  0  0  0  0  0
   -8.3081    1.8488    0.8453 H   0  0  0  0  0  0  0  0  0  0  0  0
   -6.3958    3.2062    1.6580 H   0  0  0  0  0  0  0  0  0  0  0  0
   -4.1039    2.4870    1.2606 H   0  0  0  0  0  0  0  0  0  0  0  0
   -1.9472    1.8403    0.3661 H   0  0  0  0  0  0  0  0  0  0  0  0
   -2.4218    0.9278    1.8164 H   0  0  0  0  0  0  0  0  0  0  0  0
   -1.1283   -1.0222    1.0940 H   0  0  0  0  0  0  0  0  0  0  0  0
   -0.1061    0.4104    1.2451 H   0  0  0  0  0  0  0  0  0  0  0  0
    0.6433    1.6083   -2.6666 H   0  0  0  0  0  0  0  0  0  0  0  0
    3.2807    1.9316   -2.3031 H   0  0  0  0  0  0  0  0  0  0  0  0
    6.9161   -0.4318   -0.3409 H   0  0  0  0  0  0  0  0  0  0  0  0
    8.8135    1.1450   -0.5525 H   0  0  0  0  0  0  0  0  0  0  0  0
    8.4046    3.5914   -0.5593 H   0  0  0  0  0  0  0  0  0  0  0  0
    6.0961    4.4660   -0.3271 H   0  0  0  0  0  0  0  0  0  0  0  0
    4.1972    2.9073   -0.0884 H   0  0  0  0  0  0  0  0  0  0  0  0
    4.6730   -3.1051    2.0075 H   0  0  0  0  0  0  0  0  0  0  0  0
    2.9224   -4.8359    2.3129 H   0  0  0  0  0  0  0  0  0  0  0  0
    0.6937   -4.5472    1.2535 H   0  0  0  0  0  0  0  0  0  0  0  0
    0.2103   -2.5496   -0.0908 H   0  0  0  0  0  0  0  0  0  0  0  0
   -1.3104   -0.5923   -2.6769 H   0  0  0  0  0  0  0  0  0  0  0  0
   -1.5717    1.0382   -2.0265 H   0  0  0  0  0  0  0  0  0  0  0  0
   -2.9389   -1.5296   -1.0668 H   0  0  0  0  0  0  0  0  0  0  0  0
   -3.6470   -0.2217   -2.0482 H   0  0  0  0  0  0  0  0  0  0  0  0
  1  2  1  0
  2  3  1  0
  3  4  2  0
  4  5  1  0
  5  6  2  0
  6  7  1  0
  7  8  2  0
  8  9  1  0
  9 10  1  0
 10 11  1  0
 11 12  1  0
 12 13  1  0
 13 14  2  0
 14 15  1  0
 15 16  2  0
 16 17  1  0
 17 18  1  0
 18 19  2  0
 19 20  1  0
 20 21  2  0
 21 22  1  0
 22 23  2  0
 17 24  2  0
 24 25  1  0
 25 26  2  0
 26 27  1  0
 27 28  2  0
 28 29  1  0
 29 30  2  0
 30 31  1  0
 12 32  1  0
 32 33  1  0
  8  3  1  0
 33  9  1  0
 31 13  1  0
 31 16  1  0
 23 18  1  0
 30 25  1  0
  1 34  1  0
  1 35  1  0
  1 36  1  0
  4 37  1  0
  5 38  1  0
  6 39  1  0
  7 40  1  0
 10 41  1  0
 10 42  1  0
 11 43  1  0
 11 44  1  0
 14 45  1  0
 15 46  1  0
 19 47  1  0
 20 48  1  0
 21 49  1  0
 22 50  1  0
 23 51  1  0
 26 52  1  0
 27 53  1  0
 28 54  1  0
 29 55  1  0
 32 56  1  0
 32 57  1  0
 33 58  1  0
 33 59  1  0
M  END
$$$$
