
     RDKit          3D

 40 42  0  0  0  0  0  0  0  0999 V2000
   -5.3540    1.7026    1.1007 C   0  0  0  0  0  0  0  0  0  0  0  0
   -5.2182    0.1793    0.9229 C   0  0  0  0  0  0  0  0  0  0  0  0
   -6.4596   -0.3229    0.1542 C   0  0  0  0  0  0  0  0  0  0  0  0
   -5.2046   -0.5055    2.3019 C   0  0  0  0  0  0  0  0  0  0  0  0
   -3.9561   -0.1595    0.1432 C   0  0  0  0  0  0  0  0  0  0  0  0
   -3.9371   -0.7892   -1.0166 N   0  0  0  0  0  0  0  0  0  0  0  0
   -2.6574   -0.9688   -1.5060 N   0  0  0  0  0  0  0  0  0  0  0  0
   -1.7560   -0.4697   -0.7004 C   0  0  0  0  0  0  0  0  0  0  0  0
   -0.3966   -0.4342   -0.8042 N   0  0  0  0  0  0  0  0  0  0  0  0
    0.2837   -0.9695   -1.8727 C   0  0  0  0  0  0  0  0  0  0  0  0
   -0.2054   -1.5326   -2.8471 O   0  0  0  0  0  0  0  0  0  0  0  0
    1.8005   -0.8022   -1.7538 C   0  0  0  0  0  0  0  0  0  0  0  0
    2.1500   -0.1225   -0.5477 O   0  0  0  0  0  0  0  0  0  0  0  0
    3.4844    0.0891   -0.3245 C   0  0  0  0  0  0  0  0  0  0  0  0
    3.7726    0.7637    0.8799 C   0  0  0  0  0  0  0  0  0  0  0  0
    5.0899    1.0538    1.2493 C   0  0  0  0  0  0  0  0  0  0  0  0
    6.0918    0.6563    0.3941 C   0  0  0  0  0  0  0  0  0  0  0  0
    5.8166   -0.0015   -0.7810 C   0  0  0  0  0  0  0  0  0  0  0  0
    4.5258   -0.3010   -1.1711 C   0  0  0  0  0  0  0  0  0  0  0  0
    6.9439   -0.3054   -1.4798 O   0  0  0  0  0  0  0  0  0  0  0  0
    7.9590    0.2369   -0.6089 C   0  0  0  0  0  0  0  0  0  0  0  0
    7.4237    0.8491    0.5829 O   0  0  0  0  0  0  0  0  0  0  0  0
   -2.3759    0.2568    0.7121 S   0  0  0  0  0  0  0  0  0  0  0  0
   -5.3377    2.2185    0.1334 H   0  0  0  0  0  0  0  0  0  0  0  0
   -6.2953    1.9593    1.6003 H   0  0  0  0  0  0  0  0  0  0  0  0
   -4.5421    2.1176    1.7085 H   0  0  0  0  0  0  0  0  0  0  0  0
   -6.4271   -1.4091    0.0076 H   0  0  0  0  0  0  0  0  0  0  0  0
   -7.3836   -0.0904    0.6964 H   0  0  0  0  0  0  0  0  0  0  0  0
   -6.5320    0.1422   -0.8363 H   0  0  0  0  0  0  0  0  0  0  0  0
   -6.1410   -0.3235    2.8421 H   0  0  0  0  0  0  0  0  0  0  0  0
   -4.3897   -0.1358    2.9343 H   0  0  0  0  0  0  0  0  0  0  0  0
   -5.0801   -1.5905    2.2054 H   0  0  0  0  0  0  0  0  0  0  0  0
    0.1310    0.0054   -0.0616 H   0  0  0  0  0  0  0  0  0  0  0  0
    2.2359   -1.8081   -1.7598 H   0  0  0  0  0  0  0  0  0  0  0  0
    2.1286   -0.2209   -2.6232 H   0  0  0  0  0  0  0  0  0  0  0  0
    2.9593    1.0657    1.5360 H   0  0  0  0  0  0  0  0  0  0  0  0
    5.3153    1.5721    2.1742 H   0  0  0  0  0  0  0  0  0  0  0  0
    4.3703   -0.8209   -2.1076 H   0  0  0  0  0  0  0  0  0  0  0  0
    8.6365   -0.5725   -0.3136 H   0  0  0  0  0  0  0  0  0  0  0  0
    8.5308    0.9899   -1.1635 H   0  0  0  0  0  0  0  0  0  0  0  0
  1  2  1  0
  2  3  1  0
  2  4  1  0
  2  5  1  0
  5  6  2  0
  6  7  1  0
  7  8  2  0
  8  9  1  0
  9 10  1  0
 10 11  2  0
 10 12  1  0
 12 13  1  0
 13 14  1  0
 14 15  2  0
 15 16  1  0
 16 17  2  0
 17 18  1  0
 18 19  2  0
 18 20  1  0
 20 21  1  0
 21 22  1  0
  8 23  1  0
 23  5  1  0
 19 14  1  0
 22 17  1  0
  1 24  1  0
  1 25  1  0
  1 26  1  0
  3 27  1  0
  3 28  1  0
  3 29  1  0
  4 30  1  0
  4 31  1  0
  4 32  1  0
  9 33  1  0
 12 34  1  0
 12 35  1  0
 15 36  1  0
 16 37  1  0
 19 38  1  0
 21 39  1  0
 21 40  1  0
M  END
$$$$
