
     RDKit          3D

 60 63  0  0  0  0  0  0  0  0999 V2000
   -9.3953    1.0949   -0.8209 C   0  0  0  0  0  0  0  0  0  0  0  0
   -8.6424    0.8985    0.3673 O   0  0  0  0  0  0  0  0  0  0  0  0
   -7.2871    1.1102    0.3079 C   0  0  0  0  0  0  0  0  0  0  0  0
   -6.5902    1.4388   -0.8622 C   0  0  0  0  0  0  0  0  0  0  0  0
   -5.2077    1.6298   -0.8309 C   0  0  0  0  0  0  0  0  0  0  0  0
   -4.5241    1.4846    0.3754 C   0  0  0  0  0  0  0  0  0  0  0  0
   -2.7669    1.7114    0.4375 S   0  0  0  0  0  6  0  0  0  0  0  0
   -2.4717    2.5358    1.5886 O   0  0  0  0  0  0  0  0  0  0  0  0
   -2.3031    2.0751   -0.8836 O   0  0  0  0  0  0  0  0  0  0  0  0
   -2.2166    0.1646    0.7646 N   0  0  0  0  0  0  0  0  0  0  0  0
   -2.4010   -0.8856   -0.2396 C   0  0  0  0  0  0  0  0  0  0  0  0
   -1.5765   -2.0081    0.3526 C   0  0  0  0  0  0  0  0  0  0  0  0
   -0.5137   -1.3843    1.0822 O   0  0  0  0  0  0  0  0  0  0  0  0
   -0.8216    0.0192    1.2233 C   0  0  0  0  0  0  0  0  0  0  0  0
    0.2206    0.8530    0.4298 C   0  0  0  0  0  0  0  0  0  0  0  0
    1.5941    0.5536    0.7970 N   0  0  0  0  0  0  0  0  0  0  0  0
    2.3073   -0.4498    0.1792 C   0  0  0  0  0  0  0  0  0  0  0  0
    1.9734   -1.0693   -0.8215 O   0  0  0  0  0  0  0  0  0  0  0  0
    3.6522   -0.7654    0.8728 C   0  0  0  0  0  0  0  0  0  0  0  0
    3.9808   -0.1521    1.8790 O   0  0  0  0  0  0  0  0  0  0  0  0
    4.3740   -1.7511    0.2445 N   0  0  0  0  0  0  0  0  0  0  0  0
    5.7165   -2.0934    0.6322 C   0  0  0  0  0  0  0  0  0  0  0  0
    6.7232   -1.3757   -0.2296 C   0  0  0  0  0  0  0  0  0  0  0  0
    7.1306   -0.0618    0.1021 C   0  0  0  0  0  0  0  0  0  0  0  0
    8.0457    0.6325   -0.6954 C   0  0  0  0  0  0  0  0  0  0  0  0
    8.5296   -0.0045   -1.8165 C   0  0  0  0  0  0  0  0  0  0  0  0
    8.1335   -1.2772   -2.1531 C   0  0  0  0  0  0  0  0  0  0  0  0
    7.2327   -1.9871   -1.3870 C   0  0  0  0  0  0  0  0  0  0  0  0
    8.7235   -1.7194   -3.2960 O   0  0  0  0  0  0  0  0  0  0  0  0
    9.5359   -0.5774   -3.6400 C   0  0  0  0  0  0  0  0  0  0  0  0
    9.4192    0.5143   -2.7044 O   0  0  0  0  0  0  0  0  0  0  0  0
   -5.2032    1.1670    1.5560 C   0  0  0  0  0  0  0  0  0  0  0  0
   -6.5871    0.9772    1.5276 C   0  0  0  0  0  0  0  0  0  0  0  0
   -7.3447    0.6515    2.6253 O   0  0  0  0  0  0  0  0  0  0  0  0
   -6.7024    0.6466    3.8927 C   0  0  0  0  0  0  0  0  0  0  0  0
  -10.4485    0.9172   -0.5827 H   0  0  0  0  0  0  0  0  0  0  0  0
   -9.3055    2.1251   -1.1812 H   0  0  0  0  0  0  0  0  0  0  0  0
   -9.1043    0.3772   -1.5947 H   0  0  0  0  0  0  0  0  0  0  0  0
   -7.0966    1.5538   -1.8152 H   0  0  0  0  0  0  0  0  0  0  0  0
   -4.6801    1.8896   -1.7463 H   0  0  0  0  0  0  0  0  0  0  0  0
   -1.9875   -0.5790   -1.2060 H   0  0  0  0  0  0  0  0  0  0  0  0
   -3.4457   -1.1793   -0.3631 H   0  0  0  0  0  0  0  0  0  0  0  0
   -2.1643   -2.5981    1.0640 H   0  0  0  0  0  0  0  0  0  0  0  0
   -1.1677   -2.6805   -0.4065 H   0  0  0  0  0  0  0  0  0  0  0  0
   -0.7553    0.2530    2.2913 H   0  0  0  0  0  0  0  0  0  0  0  0
    0.0801    1.9231    0.6075 H   0  0  0  0  0  0  0  0  0  0  0  0
    0.1129    0.6664   -0.6446 H   0  0  0  0  0  0  0  0  0  0  0  0
    1.9827    0.9083    1.6674 H   0  0  0  0  0  0  0  0  0  0  0  0
    4.0027   -2.0846   -0.6403 H   0  0  0  0  0  0  0  0  0  0  0  0
    5.8824   -1.8541    1.6888 H   0  0  0  0  0  0  0  0  0  0  0  0
    5.8249   -3.1781    0.5234 H   0  0  0  0  0  0  0  0  0  0  0  0
    6.7242    0.4234    0.9892 H   0  0  0  0  0  0  0  0  0  0  0  0
    8.3605    1.6388   -0.4435 H   0  0  0  0  0  0  0  0  0  0  0  0
    6.9344   -2.9875   -1.6817 H   0  0  0  0  0  0  0  0  0  0  0  0
    9.2375   -0.2217   -4.6329 H   0  0  0  0  0  0  0  0  0  0  0  0
   10.5847   -0.8935   -3.6807 H   0  0  0  0  0  0  0  0  0  0  0  0
   -4.6321    1.0692    2.4739 H   0  0  0  0  0  0  0  0  0  0  0  0
   -5.9494   -0.1462    3.9479 H   0  0  0  0  0  0  0  0  0  0  0  0
   -7.4619    0.4363    4.6518 H   0  0  0  0  0  0  0  0  0  0  0  0
   -6.2660    1.6247    4.1208 H   0  0  0  0  0  0  0  0  0  0  0  0
  1  2  1  0
  2  3  1  0
  3  4  2  0
  4  5  1  0
  5  6  2  0
  6  7  1  0
  7  8  2  0
  7  9  2  0
  7 10  1  0
 10 11  1  0
 11 12  1  0
 12 13  1  0
 13 14  1  0
 14 15  1  0
 15 16  1  0
 16 17  1  0
 17 18  2  0
 17 19  1  0
 19 20  2  0
 19 21  1  0
 21 22  1  0
 22 23  1  0
 23 24  2  0
 24 25  1  0
 25 26  2  0
 26 27  1  0
 27 28  2  0
 27 29  1  0
 29 30  1  0
 30 31  1  0
  6 32  1  0
 32 33  2  0
 33 34  1  0
 34 35  1  0
 33  3  1  0
 14 10  1  0
 28 23  1  0
 31 26  1  0
  1 36  1  0
  1 37  1  0
  1 38  1  0
  4 39  1  0
  5 40  1  0
 11 41  1  0
 11 42  1  0
 12 43  1  0
 12 44  1  0
 14 45  1  0
 15 46  1  0
 15 47  1  0
 16 48  1  0
 21 49  1  0
 22 50  1  0
 22 51  1  0
 24 52  1  0
 25 53  1  0
 28 54  1  0
 30 55  1  0
 30 56  1  0
 32 57  1  0
 35 58  1  0
 35 59  1  0
 35 60  1  0
M  END
$$$$
