
     RDKit          3D

 31 33  0  0  0  0  0  0  0  0999 V2000
   -3.1915    2.5185   -0.1118 N   0  0  0  0  0  0  0  0  0  0  0  0
   -1.9672    2.4625    0.4913 C   0  0  0  0  0  0  0  0  0  0  0  0
   -1.4487    3.4493    0.9934 O   0  0  0  0  0  0  0  0  0  0  0  0
   -1.2550    1.1677    0.4254 C   0  0  0  0  0  0  0  0  0  0  0  0
    0.0509    1.2206   -0.0666 C   0  0  0  0  0  0  0  0  0  0  0  0
    0.7570    0.0394   -0.2099 C   0  0  0  0  0  0  0  0  0  0  0  0
    2.1386   -0.0225   -0.7358 C   0  0  0  0  0  0  0  0  0  0  0  0
    2.6395    0.9232   -1.6506 C   0  0  0  0  0  0  0  0  0  0  0  0
    3.9513    0.8486   -2.1327 C   0  0  0  0  0  0  0  0  0  0  0  0
    4.7929   -0.1770   -1.7135 C   0  0  0  0  0  0  0  0  0  0  0  0
    4.3231   -1.1305   -0.8166 C   0  0  0  0  0  0  0  0  0  0  0  0
    3.0118   -1.0531   -0.3372 C   0  0  0  0  0  0  0  0  0  0  0  0
    0.2042   -1.1513    0.1336 N   0  0  0  0  0  0  0  0  0  0  0  0
   -1.0376   -1.1994    0.6398 C   0  0  0  0  0  0  0  0  0  0  0  0
   -1.5461   -2.4409    0.9991 C   0  0  0  0  0  0  0  0  0  0  0  0
   -2.8189   -2.5882    1.5552 C   0  0  0  0  0  0  0  0  0  0  0  0
   -3.6004   -1.4632    1.7661 C   0  0  0  0  0  0  0  0  0  0  0  0
   -5.3162   -1.6366    2.5361 Br  0  0  0  0  0  0  0  0  0  0  0  0
   -3.1196   -0.2046    1.4130 C   0  0  0  0  0  0  0  0  0  0  0  0
   -1.8354   -0.0556    0.8259 C   0  0  0  0  0  0  0  0  0  0  0  0
   -3.6230    3.4316   -0.1860 H   0  0  0  0  0  0  0  0  0  0  0  0
   -3.5340    1.7816   -0.7138 H   0  0  0  0  0  0  0  0  0  0  0  0
    0.4926    2.1789   -0.3217 H   0  0  0  0  0  0  0  0  0  0  0  0
    2.0095    1.7297   -2.0185 H   0  0  0  0  0  0  0  0  0  0  0  0
    4.3121    1.5916   -2.8396 H   0  0  0  0  0  0  0  0  0  0  0  0
    5.8113   -0.2357   -2.0881 H   0  0  0  0  0  0  0  0  0  0  0  0
    4.9725   -1.9373   -0.4871 H   0  0  0  0  0  0  0  0  0  0  0  0
    2.6678   -1.8119    0.3645 H   0  0  0  0  0  0  0  0  0  0  0  0
   -0.9276   -3.3237    0.8470 H   0  0  0  0  0  0  0  0  0  0  0  0
   -3.1756   -3.5787    1.8251 H   0  0  0  0  0  0  0  0  0  0  0  0
   -3.7382    0.6672    1.6139 H   0  0  0  0  0  0  0  0  0  0  0  0
  1  2  1  0
  2  3  2  0
  2  4  1  0
  4  5  2  0
  5  6  1  0
  6  7  1  0
  7  8  2  0
  8  9  1  0
  9 10  2  0
 10 11  1  0
 11 12  2  0
  6 13  2  0
 13 14  1  0
 14 15  2  0
 15 16  1  0
 16 17  2  0
 17 18  1  0
 17 19  1  0
 19 20  2  0
 20  4  1  0
 12  7  1  0
 20 14  1  0
  1 21  1  0
  1 22  1  0
  5 23  1  0
  8 24  1  0
  9 25  1  0
 10 26  1  0
 11 27  1  0
 12 28  1  0
 15 29  1  0
 16 30  1  0
 19 31  1  0
M  END
$$$$
