
     RDKit          3D

 61 66  0  0  0  0  0  0  0  0999 V2000
    7.3906   -0.2994    3.7097 F   0  0  0  0  0  0  0  0  0  0  0  0
    6.3756    0.5373    3.3565 C   0  0  0  0  0  0  0  0  0  0  0  0
    6.7328    1.7713    3.8113 F   0  0  0  0  0  0  0  0  0  0  0  0
    5.3032    0.1621    4.1101 F   0  0  0  0  0  0  0  0  0  0  0  0
    6.0987    0.5102    1.8738 C   0  0  0  0  0  0  0  0  0  0  0  0
    6.8239    1.3353    1.0014 C   0  0  0  0  0  0  0  0  0  0  0  0
    6.5845    1.2960   -0.3717 C   0  0  0  0  0  0  0  0  0  0  0  0
    5.6232    0.4279   -0.8879 C   0  0  0  0  0  0  0  0  0  0  0  0
    4.8886   -0.4120   -0.0389 C   0  0  0  0  0  0  0  0  0  0  0  0
    3.8566   -1.3649   -0.6077 C   0  0  0  0  0  0  0  0  0  0  0  0
    2.7922   -0.6823   -1.3610 N   0  0  0  0  0  0  0  0  0  0  0  0
    1.9141    0.1078   -0.4642 C   0  0  0  0  0  0  0  0  0  0  0  0
    0.7431    0.7730   -1.2242 C   0  0  0  0  0  0  0  0  0  0  0  0
   -0.0657   -0.2411   -1.9311 N   0  0  0  0  0  0  0  0  0  0  0  0
   -1.0794   -0.8866   -1.2243 C   0  0  0  0  0  0  0  0  0  0  0  0
   -1.0236   -2.1846   -1.0622 N   0  0  0  0  0  0  0  0  0  0  0  0
   -2.0137   -2.8585   -0.3205 C   0  0  0  0  0  0  0  0  0  0  0  0
   -1.8977   -4.2409   -0.1636 C   0  0  0  0  0  0  0  0  0  0  0  0
   -2.8450   -4.9574    0.5727 C   0  0  0  0  0  0  0  0  0  0  0  0
   -3.9223   -4.2940    1.1616 C   0  0  0  0  0  0  0  0  0  0  0  0
   -4.0589   -2.9129    1.0177 C   0  0  0  0  0  0  0  0  0  0  0  0
   -3.1029   -2.2095    0.2788 C   0  0  0  0  0  0  0  0  0  0  0  0
   -3.1695   -0.8219    0.0729 N   0  0  0  0  0  0  0  0  0  0  0  0
   -4.1123    0.0828    0.5006 C   0  0  0  0  0  0  0  0  0  0  0  0
   -3.7875    1.3292   -0.0039 C   0  0  0  0  0  0  0  0  0  0  0  0
   -4.5839    2.5296    0.2091 C   0  0  0  0  0  0  0  0  0  0  0  0
   -4.6723    3.5013   -0.7973 C   0  0  0  0  0  0  0  0  0  0  0  0
   -5.4283    4.6606   -0.6033 C   0  0  0  0  0  0  0  0  0  0  0  0
   -6.1007    4.8622    0.6001 C   0  0  0  0  0  0  0  0  0  0  0  0
   -6.0182    3.9058    1.6101 C   0  0  0  0  0  0  0  0  0  0  0  0
   -5.2633    2.7455    1.4163 C   0  0  0  0  0  0  0  0  0  0  0  0
   -2.5971    1.1574   -0.7619 C   0  0  0  0  0  0  0  0  0  0  0  0
   -2.2116   -0.1672   -0.6647 C   0  0  0  0  0  0  0  0  0  0  0  0
    0.7831   -1.0400   -2.8389 C   0  0  0  0  0  0  0  0  0  0  0  0
    1.9690   -1.6819   -2.0856 C   0  0  0  0  0  0  0  0  0  0  0  0
    5.1385   -0.3671    1.3411 C   0  0  0  0  0  0  0  0  0  0  0  0
    7.5801    2.0151    1.3915 H   0  0  0  0  0  0  0  0  0  0  0  0
    7.1467    1.9413   -1.0422 H   0  0  0  0  0  0  0  0  0  0  0  0
    5.4393    0.4073   -1.9607 H   0  0  0  0  0  0  0  0  0  0  0  0
    4.4014   -2.0490   -1.2725 H   0  0  0  0  0  0  0  0  0  0  0  0
    3.4308   -1.9881    0.1901 H   0  0  0  0  0  0  0  0  0  0  0  0
    1.5092   -0.5303    0.3325 H   0  0  0  0  0  0  0  0  0  0  0  0
    2.4905    0.9073    0.0151 H   0  0  0  0  0  0  0  0  0  0  0  0
    0.1427    1.3515   -0.5162 H   0  0  0  0  0  0  0  0  0  0  0  0
    1.1367    1.4872   -1.9580 H   0  0  0  0  0  0  0  0  0  0  0  0
   -1.0600   -4.7607   -0.6205 H   0  0  0  0  0  0  0  0  0  0  0  0
   -2.7413   -6.0335    0.6851 H   0  0  0  0  0  0  0  0  0  0  0  0
   -4.6579   -4.8565    1.7318 H   0  0  0  0  0  0  0  0  0  0  0  0
   -4.9067   -2.4200    1.4814 H   0  0  0  0  0  0  0  0  0  0  0  0
   -4.9539   -0.2273    1.1027 H   0  0  0  0  0  0  0  0  0  0  0  0
   -4.1649    3.3600   -1.7485 H   0  0  0  0  0  0  0  0  0  0  0  0
   -5.4928    5.4035   -1.3942 H   0  0  0  0  0  0  0  0  0  0  0  0
   -6.6884    5.7641    0.7509 H   0  0  0  0  0  0  0  0  0  0  0  0
   -6.5382    4.0625    2.5515 H   0  0  0  0  0  0  0  0  0  0  0  0
   -5.2020    2.0205    2.2240 H   0  0  0  0  0  0  0  0  0  0  0  0
   -2.0679    1.9217   -1.3156 H   0  0  0  0  0  0  0  0  0  0  0  0
    0.1927   -1.8113   -3.3482 H   0  0  0  0  0  0  0  0  0  0  0  0
    1.1673   -0.3796   -3.6268 H   0  0  0  0  0  0  0  0  0  0  0  0
    1.5971   -2.4422   -1.3873 H   0  0  0  0  0  0  0  0  0  0  0  0
    2.5967   -2.1982   -2.8222 H   0  0  0  0  0  0  0  0  0  0  0  0
    4.5790   -1.0186    2.0120 H   0  0  0  0  0  0  0  0  0  0  0  0
  1  2  1  0
  2  3  1  0
  2  4  1  0
  2  5  1  0
  5  6  2  0
  6  7  1  0
  7  8  2  0
  8  9  1  0
  9 10  1  0
 10 11  1  0
 11 12  1  0
 12 13  1  0
 13 14  1  0
 14 15  1  0
 15 16  2  0
 16 17  1  0
 17 18  2  0
 18 19  1  0
 19 20  2  0
 20 21  1  0
 21 22  2  0
 22 23  1  0
 23 24  1  0
 24 25  2  0
 25 26  1  0
 26 27  2  0
 27 28  1  0
 28 29  2  0
 29 30  1  0
 30 31  2  0
 25 32  1  0
 32 33  2  0
 14 34  1  0
 34 35  1  0
  9 36  2  0
 36  5  1  0
 35 11  1  0
 33 15  1  0
 22 17  1  0
 33 23  1  0
 31 26  1  0
  6 37  1  0
  7 38  1  0
  8 39  1  0
 10 40  1  0
 10 41  1  0
 12 42  1  0
 12 43  1  0
 13 44  1  0
 13 45  1  0
 18 46  1  0
 19 47  1  0
 20 48  1  0
 21 49  1  0
 24 50  1  0
 27 51  1  0
 28 52  1  0
 29 53  1  0
 30 54  1  0
 31 55  1  0
 32 56  1  0
 34 57  1  0
 34 58  1  0
 35 59  1  0
 35 60  1  0
 36 61  1  0
M  END
$$$$
