
     RDKit          3D

 48 49  0  0  0  0  0  0  0  0999 V2000
   -3.8016    0.2794   -2.3024 C   0  0  0  0  0  0  0  0  0  0  0  0
   -3.5402    1.0731   -1.0314 C   0  0  0  0  0  0  0  0  0  0  0  0
   -4.3301    0.5868    0.1063 N   0  0  0  0  0  0  0  0  0  0  0  0
   -5.7314    1.0016    0.1779 C   0  0  0  0  0  0  0  0  0  0  0  0
   -5.9009    2.3581    0.8462 C   0  0  0  0  0  0  0  0  0  0  0  0
   -3.7909   -0.0409    1.2325 C   0  0  0  0  0  0  0  0  0  0  0  0
   -4.4146   -0.2300    2.2742 O   0  0  0  0  0  0  0  0  0  0  0  0
   -2.3899   -0.5042    1.1956 C   0  0  0  0  0  0  0  0  0  0  0  0
   -2.0066   -1.5398    0.3424 C   0  0  0  0  0  0  0  0  0  0  0  0
   -0.6781   -1.9786    0.3342 C   0  0  0  0  0  0  0  0  0  0  0  0
    0.2652   -1.3972    1.1863 C   0  0  0  0  0  0  0  0  0  0  0  0
    1.6179   -1.7807    1.2364 N   0  0  0  0  0  0  0  0  0  0  0  0
    2.2699   -2.7113    0.4444 C   0  0  0  0  0  0  0  0  0  0  0  0
    1.7807   -3.3892   -0.4537 O   0  0  0  0  0  0  0  0  0  0  0  0
    3.7490   -2.8541    0.8181 C   0  0  0  0  0  0  0  0  0  0  0  0
    4.3584   -1.6371    1.2321 O   0  0  0  0  0  0  0  0  0  0  0  0
    4.6330   -0.6791    0.2898 C   0  0  0  0  0  0  0  0  0  0  0  0
    4.5070   -0.8592   -1.0924 C   0  0  0  0  0  0  0  0  0  0  0  0
    4.8108    0.1858   -1.9740 C   0  0  0  0  0  0  0  0  0  0  0  0
    5.2436    1.4191   -1.4717 C   0  0  0  0  0  0  0  0  0  0  0  0
    5.5573    2.5139   -2.3979 N   0  0  0  0  0  4  0  0  0  0  0  0
    5.4612    2.2857   -3.6115 O   0  0  0  0  0  0  0  0  0  0  0  0
    5.8974    3.6000   -1.9094 O   0  0  0  0  0  1  0  0  0  0  0  0
    5.3744    1.6176   -0.0947 C   0  0  0  0  0  0  0  0  0  0  0  0
    5.0691    0.5684    0.7755 C   0  0  0  0  0  0  0  0  0  0  0  0
    5.2194    0.8599    2.4748 Cl  0  0  0  0  0  0  0  0  0  0  0  0
   -0.1400   -0.3765    2.0589 C   0  0  0  0  0  0  0  0  0  0  0  0
   -1.4653    0.0666    2.0707 C   0  0  0  0  0  0  0  0  0  0  0  0
   -4.8449    0.3666   -2.6211 H   0  0  0  0  0  0  0  0  0  0  0  0
   -3.5870   -0.7837   -2.1619 H   0  0  0  0  0  0  0  0  0  0  0  0
   -3.1702    0.6513   -3.1156 H   0  0  0  0  0  0  0  0  0  0  0  0
   -3.7895    2.1276   -1.1939 H   0  0  0  0  0  0  0  0  0  0  0  0
   -2.4720    1.0444   -0.7998 H   0  0  0  0  0  0  0  0  0  0  0  0
   -6.1515    1.0222   -0.8327 H   0  0  0  0  0  0  0  0  0  0  0  0
   -6.2960    0.2510    0.7438 H   0  0  0  0  0  0  0  0  0  0  0  0
   -5.3756    3.1419    0.2916 H   0  0  0  0  0  0  0  0  0  0  0  0
   -5.5049    2.3506    1.8666 H   0  0  0  0  0  0  0  0  0  0  0  0
   -6.9608    2.6269    0.8935 H   0  0  0  0  0  0  0  0  0  0  0  0
   -2.7368   -2.0192   -0.3037 H   0  0  0  0  0  0  0  0  0  0  0  0
   -0.4167   -2.7877   -0.3409 H   0  0  0  0  0  0  0  0  0  0  0  0
    2.2065   -1.2849    1.9000 H   0  0  0  0  0  0  0  0  0  0  0  0
    4.3113   -3.3299    0.0071 H   0  0  0  0  0  0  0  0  0  0  0  0
    3.7920   -3.5420    1.6706 H   0  0  0  0  0  0  0  0  0  0  0  0
    4.1742   -1.7972   -1.5289 H   0  0  0  0  0  0  0  0  0  0  0  0
    4.7025    0.0194   -3.0452 H   0  0  0  0  0  0  0  0  0  0  0  0
    5.7052    2.5726    0.3077 H   0  0  0  0  0  0  0  0  0  0  0  0
    0.5661    0.0844    2.7453 H   0  0  0  0  0  0  0  0  0  0  0  0
   -1.7768    0.8475    2.7603 H   0  0  0  0  0  0  0  0  0  0  0  0
  1  2  1  0
  2  3  1  0
  3  4  1  0
  4  5  1  0
  3  6  1  0
  6  7  2  0
  6  8  1  0
  8  9  2  0
  9 10  1  0
 10 11  2  0
 11 12  1  0
 12 13  1  0
 13 14  2  0
 13 15  1  0
 15 16  1  0
 16 17  1  0
 17 18  2  0
 18 19  1  0
 19 20  2  0
 20 21  1  0
 21 22  2  0
 21 23  1  0
 20 24  1  0
 24 25  2  0
 25 26  1  0
 11 27  1  0
 27 28  2  0
 28  8  1  0
 25 17  1  0
  1 29  1  0
  1 30  1  0
  1 31  1  0
  2 32  1  0
  2 33  1  0
  4 34  1  0
  4 35  1  0
  5 36  1  0
  5 37  1  0
  5 38  1  0
  9 39  1  0
 10 40  1  0
 12 41  1  0
 15 42  1  0
 15 43  1  0
 18 44  1  0
 19 45  1  0
 24 46  1  0
 27 47  1  0
 28 48  1  0
M  CHG  2  21   1  23  -1
M  END
$$$$
