
     RDKit          3D

 42 44  0  0  0  0  0  0  0  0999 V2000
   -0.7220   -3.0281   -0.9357 C   0  0  0  0  0  0  0  0  0  0  0  0
   -0.8985   -1.6288   -0.4393 C   0  0  0  0  0  0  0  0  0  0  0  0
   -0.0905   -0.5696   -0.6134 C   0  0  0  0  0  0  0  0  0  0  0  0
    1.1369   -0.3681   -1.1889 N   0  0  0  0  0  0  0  0  0  0  0  0
    2.0961   -1.3019   -1.5200 C   0  0  0  0  0  0  0  0  0  0  0  0
    2.0440   -2.5034   -1.2703 O   0  0  0  0  0  0  0  0  0  0  0  0
    3.2913   -0.7175   -2.2349 C   0  0  0  0  0  0  0  0  0  0  0  0
    4.2079   -0.1175   -1.2889 N   0  0  0  0  0  0  0  0  0  0  0  0
    5.3021   -0.7044   -0.7169 C   0  0  0  0  0  0  0  0  0  0  0  0
    5.8744    0.2530    0.0903 C   0  0  0  0  0  0  0  0  0  0  0  0
    5.0519    1.3920   -0.0694 C   0  0  0  0  0  0  0  0  0  0  0  0
    5.1975    2.7004    0.5452 N   0  0  0  0  0  4  0  0  0  0  0  0
    4.3916    3.5920    0.2427 O   0  0  0  0  0  0  0  0  0  0  0  0
    6.1442    2.8264    1.3377 O   0  0  0  0  0  1  0  0  0  0  0  0
    4.0256    1.1659   -0.9121 N   0  0  0  0  0  0  0  0  0  0  0  0
   -0.8323    0.6015   -0.0411 C   0  0  0  0  0  0  0  0  0  0  0  0
   -0.3928    1.7407   -0.1108 O   0  0  0  0  0  0  0  0  0  0  0  0
   -2.0408    0.1086    0.4537 N   0  0  0  0  0  0  0  0  0  0  0  0
   -3.2236    0.8657    0.6535 C   0  0  0  0  0  0  0  0  0  0  0  0
   -3.1584    2.2332    0.9558 C   0  0  0  0  0  0  0  0  0  0  0  0
   -4.3219    2.9836    1.1571 C   0  0  0  0  0  0  0  0  0  0  0  0
   -5.5710    2.3784    1.0548 C   0  0  0  0  0  0  0  0  0  0  0  0
   -5.6572    1.0240    0.7468 C   0  0  0  0  0  0  0  0  0  0  0  0
   -4.4929    0.2756    0.5464 C   0  0  0  0  0  0  0  0  0  0  0  0
   -2.0790   -1.3031    0.2607 N   0  0  0  0  0  0  0  0  0  0  0  0
   -2.3484   -2.0489    1.5058 C   0  0  0  0  0  0  0  0  0  0  0  0
   -0.2231   -3.0520   -1.9085 H   0  0  0  0  0  0  0  0  0  0  0  0
   -0.1627   -3.6310   -0.2137 H   0  0  0  0  0  0  0  0  0  0  0  0
   -1.6960   -3.5070   -1.0898 H   0  0  0  0  0  0  0  0  0  0  0  0
    1.4251    0.6144   -1.1938 H   0  0  0  0  0  0  0  0  0  0  0  0
    2.9824    0.0447   -2.9582 H   0  0  0  0  0  0  0  0  0  0  0  0
    3.8191   -1.5077   -2.7781 H   0  0  0  0  0  0  0  0  0  0  0  0
    5.5734   -1.7325   -0.9231 H   0  0  0  0  0  0  0  0  0  0  0  0
    6.7590    0.1533    0.7053 H   0  0  0  0  0  0  0  0  0  0  0  0
   -2.2024    2.7416    1.0579 H   0  0  0  0  0  0  0  0  0  0  0  0
   -4.2463    4.0429    1.3927 H   0  0  0  0  0  0  0  0  0  0  0  0
   -6.4737    2.9629    1.2082 H   0  0  0  0  0  0  0  0  0  0  0  0
   -6.6301    0.5482    0.6515 H   0  0  0  0  0  0  0  0  0  0  0  0
   -4.5976   -0.7700    0.2701 H   0  0  0  0  0  0  0  0  0  0  0  0
   -3.3040   -1.7609    1.9530 H   0  0  0  0  0  0  0  0  0  0  0  0
   -2.3996   -3.1252    1.3059 H   0  0  0  0  0  0  0  0  0  0  0  0
   -1.5577   -1.8713    2.2444 H   0  0  0  0  0  0  0  0  0  0  0  0
  1  2  1  0
  2  3  2  0
  3  4  1  0
  4  5  1  0
  5  6  2  0
  5  7  1  0
  7  8  1  0
  8  9  1  0
  9 10  2  0
 10 11  1  0
 11 12  1  0
 12 13  2  0
 12 14  1  0
 11 15  2  0
  3 16  1  0
 16 17  2  0
 16 18  1  0
 18 19  1  0
 19 20  2  0
 20 21  1  0
 21 22  2  0
 22 23  1  0
 23 24  2  0
 18 25  1  0
 25 26  1  0
 25  2  1  0
 15  8  1  0
 24 19  1  0
  1 27  1  0
  1 28  1  0
  1 29  1  0
  4 30  1  0
  7 31  1  0
  7 32  1  0
  9 33  1  0
 10 34  1  0
 20 35  1  0
 21 36  1  0
 22 37  1  0
 23 38  1  0
 24 39  1  0
 26 40  1  0
 26 41  1  0
 26 42  1  0
M  CHG  2  12   1  14  -1
M  END
$$$$
