
     RDKit          3D

 52 53  0  0  0  0  0  0  0  0999 V2000
    5.3125   -2.9953   -2.4477 C   0  0  0  0  0  0  0  0  0  0  0  0
    4.3227   -2.6351   -1.3490 C   0  0  0  0  0  0  0  0  0  0  0  0
    2.8786   -2.7906   -1.8304 C   0  0  0  0  0  0  0  0  0  0  0  0
    1.8848   -2.5919   -0.7726 N   0  0  0  0  0  0  0  0  0  0  0  0
    1.8099   -1.2150   -0.2508 C   0  0  0  0  0  0  0  0  0  0  0  0
    1.2290   -0.1975   -1.2564 C   0  0  0  0  0  0  0  0  0  0  0  0
   -0.0174   -0.6969   -1.7634 O   0  0  0  0  0  0  0  0  0  0  0  0
    1.0311    1.1878   -0.6211 C   0  0  0  0  0  0  0  0  0  0  0  0
    0.1261    1.0619    0.4885 O   0  0  0  0  0  0  0  0  0  0  0  0
   -0.1185    2.2759    1.0693 C   0  0  0  0  0  0  0  0  0  0  0  0
    0.7923    2.7737    2.0027 C   0  0  0  0  0  0  0  0  0  0  0  0
    0.5206    3.9688    2.6716 C   0  0  0  0  0  0  0  0  0  0  0  0
   -0.6669    4.6583    2.4213 C   0  0  0  0  0  0  0  0  0  0  0  0
   -1.5919    4.1505    1.5074 C   0  0  0  0  0  0  0  0  0  0  0  0
   -1.3201    2.9515    0.8389 C   0  0  0  0  0  0  0  0  0  0  0  0
   -2.3036    2.4276   -0.1322 C   0  0  0  0  0  0  0  0  0  0  0  0
   -1.9879    2.3405   -1.3156 O   0  0  0  0  0  0  0  0  0  0  0  0
   -3.6962    2.0900    0.3626 C   0  0  0  0  0  0  0  0  0  0  0  0
   -3.7169    1.0227    1.4564 C   0  0  0  0  0  0  0  0  0  0  0  0
   -3.1311   -0.3125    1.0598 C   0  0  0  0  0  0  0  0  0  0  0  0
   -2.1761   -0.9303    1.8808 C   0  0  0  0  0  0  0  0  0  0  0  0
   -1.6345   -2.1700    1.5356 C   0  0  0  0  0  0  0  0  0  0  0  0
   -2.0454   -2.8113    0.3703 C   0  0  0  0  0  0  0  0  0  0  0  0
   -3.0038   -2.2162   -0.4465 C   0  0  0  0  0  0  0  0  0  0  0  0
   -3.5483   -0.9776   -0.1013 C   0  0  0  0  0  0  0  0  0  0  0  0
    5.1991   -4.0413   -2.7508 H   0  0  0  0  0  0  0  0  0  0  0  0
    6.3392   -2.8541   -2.0947 H   0  0  0  0  0  0  0  0  0  0  0  0
    5.1665   -2.3633   -3.3299 H   0  0  0  0  0  0  0  0  0  0  0  0
    4.5011   -3.2806   -0.4810 H   0  0  0  0  0  0  0  0  0  0  0  0
    4.5167   -1.6036   -1.0362 H   0  0  0  0  0  0  0  0  0  0  0  0
    2.7473   -3.8126   -2.2050 H   0  0  0  0  0  0  0  0  0  0  0  0
    2.6851   -2.1307   -2.6832 H   0  0  0  0  0  0  0  0  0  0  0  0
    0.9631   -2.7790   -1.1836 H   0  0  0  0  0  0  0  0  0  0  0  0
    1.1490   -1.2707    0.6215 H   0  0  0  0  0  0  0  0  0  0  0  0
    2.7793   -0.8760    0.1286 H   0  0  0  0  0  0  0  0  0  0  0  0
    1.9028   -0.0895   -2.1125 H   0  0  0  0  0  0  0  0  0  0  0  0
   -0.6883   -0.5224   -1.0721 H   0  0  0  0  0  0  0  0  0  0  0  0
    0.6049    1.8695   -1.3665 H   0  0  0  0  0  0  0  0  0  0  0  0
    1.9983    1.5774   -0.2813 H   0  0  0  0  0  0  0  0  0  0  0  0
    1.7057    2.2280    2.2213 H   0  0  0  0  0  0  0  0  0  0  0  0
    1.2344    4.3602    3.3930 H   0  0  0  0  0  0  0  0  0  0  0  0
   -0.8712    5.5929    2.9382 H   0  0  0  0  0  0  0  0  0  0  0  0
   -2.5069    4.7026    1.3114 H   0  0  0  0  0  0  0  0  0  0  0  0
   -4.2869    1.7665   -0.5023 H   0  0  0  0  0  0  0  0  0  0  0  0
   -4.1723    3.0075    0.7254 H   0  0  0  0  0  0  0  0  0  0  0  0
   -3.1971    1.4056    2.3431 H   0  0  0  0  0  0  0  0  0  0  0  0
   -4.7556    0.8513    1.7668 H   0  0  0  0  0  0  0  0  0  0  0  0
   -1.8353   -0.4462    2.7930 H   0  0  0  0  0  0  0  0  0  0  0  0
   -0.8845   -2.6328    2.1722 H   0  0  0  0  0  0  0  0  0  0  0  0
   -1.6168   -3.7725    0.0979 H   0  0  0  0  0  0  0  0  0  0  0  0
   -3.3264   -2.7150   -1.3572 H   0  0  0  0  0  0  0  0  0  0  0  0
   -4.3000   -0.5400   -0.7541 H   0  0  0  0  0  0  0  0  0  0  0  0
  1  2  1  0
  2  3  1  0
  3  4  1  0
  4  5  1  0
  5  6  1  0
  6  7  1  0
  6  8  1  0
  8  9  1  0
  9 10  1  0
 10 11  2  0
 11 12  1  0
 12 13  2  0
 13 14  1  0
 14 15  2  0
 15 16  1  0
 16 17  2  0
 16 18  1  0
 18 19  1  0
 19 20  1  0
 20 21  2  0
 21 22  1  0
 22 23  2  0
 23 24  1  0
 24 25  2  0
 15 10  1  0
 25 20  1  0
  1 26  1  0
  1 27  1  0
  1 28  1  0
  2 29  1  0
  2 30  1  0
  3 31  1  0
  3 32  1  0
  4 33  1  0
  5 34  1  0
  5 35  1  0
  6 36  1  0
  7 37  1  0
  8 38  1  0
  8 39  1  0
 11 40  1  0
 12 41  1  0
 13 42  1  0
 14 43  1  0
 18 44  1  0
 18 45  1  0
 19 46  1  0
 19 47  1  0
 21 48  1  0
 22 49  1  0
 23 50  1  0
 24 51  1  0
 25 52  1  0
M  END
$$$$
