
     RDKit          3D

 44 45  0  0  0  0  0  0  0  0999 V2000
    7.6948    2.2228    0.7340 C   0  0  0  0  0  0  0  0  0  0  0  0
    7.3054    0.7615    0.8429 C   0  0  0  0  0  0  0  0  0  0  0  0
    5.8892    0.6613    0.6484 O   0  0  0  0  0  0  0  0  0  0  0  0
    5.4066   -0.6035    0.7226 C   0  0  0  0  0  0  0  0  0  0  0  0
    6.0647   -1.6098    0.9326 O   0  0  0  0  0  0  0  0  0  0  0  0
    3.9329   -0.6164    0.5096 C   0  0  0  0  0  0  0  0  0  0  0  0
    3.2688   -1.8522    0.5586 C   0  0  0  0  0  0  0  0  0  0  0  0
    1.8864   -1.9226    0.3659 C   0  0  0  0  0  0  0  0  0  0  0  0
    1.1678   -0.7510    0.1148 C   0  0  0  0  0  0  0  0  0  0  0  0
   -0.5886   -0.8229   -0.1046 S   0  0  0  0  0  6  0  0  0  0  0  0
   -1.1693    0.4011    0.4128 O   0  0  0  0  0  0  0  0  0  0  0  0
   -1.0637   -2.1245    0.3040 O   0  0  0  0  0  0  0  0  0  0  0  0
   -0.7145   -0.7437   -1.8224 N   0  0  0  0  0  0  0  0  0  0  0  0
   -1.7969    0.1198   -2.2272 N   0  0  0  0  0  0  0  0  0  0  0  0
   -3.2572   -0.7664   -2.5188 S   0  0  0  0  0  6  0  0  0  0  0  0
   -2.9167   -2.1724   -2.4149 O   0  0  0  0  0  0  0  0  0  0  0  0
   -3.8675   -0.2240   -3.7125 O   0  0  0  0  0  0  0  0  0  0  0  0
   -4.2585   -0.3009   -1.1343 C   0  0  0  0  0  0  0  0  0  0  0  0
   -4.9585    0.9081   -1.1743 C   0  0  0  0  0  0  0  0  0  0  0  0
   -5.7568    1.2757   -0.0902 C   0  0  0  0  0  0  0  0  0  0  0  0
   -5.8575    0.4424    1.0321 C   0  0  0  0  0  0  0  0  0  0  0  0
   -6.7415    0.8252    2.1832 C   0  0  0  0  0  0  0  0  0  0  0  0
   -5.1746   -0.7816    1.0428 C   0  0  0  0  0  0  0  0  0  0  0  0
   -4.3765   -1.1575   -0.0386 C   0  0  0  0  0  0  0  0  0  0  0  0
    1.8136    0.4886    0.0748 C   0  0  0  0  0  0  0  0  0  0  0  0
    3.1967    0.5537    0.2682 C   0  0  0  0  0  0  0  0  0  0  0  0
    7.1652    2.8197    1.4838 H   0  0  0  0  0  0  0  0  0  0  0  0
    7.4166    2.6237   -0.2464 H   0  0  0  0  0  0  0  0  0  0  0  0
    8.7715    2.3514    0.8758 H   0  0  0  0  0  0  0  0  0  0  0  0
    7.8264    0.1811    0.0732 H   0  0  0  0  0  0  0  0  0  0  0  0
    7.5702    0.3809    1.8358 H   0  0  0  0  0  0  0  0  0  0  0  0
    3.8288   -2.7666    0.7518 H   0  0  0  0  0  0  0  0  0  0  0  0
    1.3874   -2.8886    0.4166 H   0  0  0  0  0  0  0  0  0  0  0  0
   -0.8523   -1.7115   -2.1717 H   0  0  0  0  0  0  0  0  0  0  0  0
   -1.9647    0.8847   -1.5507 H   0  0  0  0  0  0  0  0  0  0  0  0
   -4.8988    1.5611   -2.0426 H   0  0  0  0  0  0  0  0  0  0  0  0
   -6.3054    2.2149   -0.1258 H   0  0  0  0  0  0  0  0  0  0  0  0
   -7.7554    0.4486    2.0174 H   0  0  0  0  0  0  0  0  0  0  0  0
   -6.3593    0.4129    3.1230 H   0  0  0  0  0  0  0  0  0  0  0  0
   -6.7818    1.9134    2.2990 H   0  0  0  0  0  0  0  0  0  0  0  0
   -5.2613   -1.4515    1.8964 H   0  0  0  0  0  0  0  0  0  0  0  0
   -3.8552   -2.1125   -0.0109 H   0  0  0  0  0  0  0  0  0  0  0  0
    1.2524    1.4034   -0.1058 H   0  0  0  0  0  0  0  0  0  0  0  0
    3.6873    1.5241    0.2309 H   0  0  0  0  0  0  0  0  0  0  0  0
  1  2  1  0
  2  3  1  0
  3  4  1  0
  4  5  2  0
  4  6  1  0
  6  7  2  0
  7  8  1  0
  8  9  2  0
  9 10  1  0
 10 11  2  0
 10 12  2  0
 10 13  1  0
 13 14  1  0
 14 15  1  0
 15 16  2  0
 15 17  2  0
 15 18  1  0
 18 19  2  0
 19 20  1  0
 20 21  2  0
 21 22  1  0
 21 23  1  0
 23 24  2  0
  9 25  1  0
 25 26  2  0
 26  6  1  0
 24 18  1  0
  1 27  1  0
  1 28  1  0
  1 29  1  0
  2 30  1  0
  2 31  1  0
  7 32  1  0
  8 33  1  0
 13 34  1  0
 14 35  1  0
 19 36  1  0
 20 37  1  0
 22 38  1  0
 22 39  1  0
 22 40  1  0
 23 41  1  0
 24 42  1  0
 25 43  1  0
 26 44  1  0
M  END
$$$$
