
     RDKit          3D

 47 51  0  0  0  0  0  0  0  0999 V2000
   -1.9396   -2.6273   -1.3439 C   0  0  0  0  0  0  0  0  0  0  0  0
   -2.4477   -1.2803   -0.9303 C   0  0  0  0  0  0  0  0  0  0  0  0
   -3.6895   -0.9572   -1.2006 N   0  0  0  0  0  0  0  0  0  0  0  0
   -4.1198    0.2808   -0.8083 C   0  0  0  0  0  0  0  0  0  0  0  0
   -5.7152    0.8334   -1.1000 S   0  0  0  0  0  0  0  0  0  0  0  0
   -5.4021    2.3319   -0.3403 C   0  0  0  0  0  0  0  0  0  0  0  0
   -4.1050    2.4377    0.1363 C   0  0  0  0  0  0  0  0  0  0  0  0
   -3.3947    1.2498   -0.1471 C   0  0  0  0  0  0  0  0  0  0  0  0
   -1.9507    0.8264    0.1455 C   0  0  0  0  0  0  0  0  0  0  0  0
   -0.9844    1.4772    0.7406 N   0  0  0  0  0  0  0  0  0  0  0  0
    0.1139    0.6512    0.7296 N   0  0  0  0  0  0  0  0  0  0  0  0
   -0.2239   -0.4738    0.1315 C   0  0  0  0  0  0  0  0  0  0  0  0
    0.8726   -1.7814   -0.1064 S   0  0  0  0  0  0  0  0  0  0  0  0
    2.4176   -0.8594   -0.3705 C   0  0  0  0  0  0  0  0  0  0  0  0
    3.4051   -1.7453   -1.1069 C   0  0  0  0  0  0  0  0  0  0  0  0
    3.2474   -2.0687   -2.2847 O   0  0  0  0  0  0  0  0  0  0  0  0
    4.4829   -2.1565   -0.3531 N   0  0  0  0  0  0  0  0  0  0  0  0
    5.4224   -3.1116   -0.9010 C   0  0  0  0  0  0  0  0  0  0  0  0
    6.6405   -3.1240   -0.0549 C   0  0  0  0  0  0  0  0  0  0  0  0
    7.9665   -2.8329   -0.3020 C   0  0  0  0  0  0  0  0  0  0  0  0
    8.6558   -3.0273    0.9211 C   0  0  0  0  0  0  0  0  0  0  0  0
    7.7096   -3.4272    1.8334 C   0  0  0  0  0  0  0  0  0  0  0  0
    6.4807   -3.4886    1.2516 O   0  0  0  0  0  0  0  0  0  0  0  0
   -1.5433   -0.4260   -0.2646 N   0  0  0  0  0  0  0  0  0  0  0  0
   -3.6123    3.6511    0.8619 C   0  0  0  0  0  0  0  0  0  0  0  0
   -4.5534    4.8535    0.6572 C   0  0  0  0  0  0  0  0  0  0  0  0
   -6.0319    4.4571    0.8011 C   0  0  0  0  0  0  0  0  0  0  0  0
   -6.4425    3.4091   -0.2483 C   0  0  0  0  0  0  0  0  0  0  0  0
   -1.6161   -3.2010   -0.4724 H   0  0  0  0  0  0  0  0  0  0  0  0
   -2.7441   -3.1899   -1.8260 H   0  0  0  0  0  0  0  0  0  0  0  0
   -1.1320   -2.5257   -2.0706 H   0  0  0  0  0  0  0  0  0  0  0  0
    2.8229   -0.5330    0.5890 H   0  0  0  0  0  0  0  0  0  0  0  0
    2.2477    0.0251   -0.9916 H   0  0  0  0  0  0  0  0  0  0  0  0
    4.3972   -2.1468    0.6567 H   0  0  0  0  0  0  0  0  0  0  0  0
    5.6650   -2.8379   -1.9322 H   0  0  0  0  0  0  0  0  0  0  0  0
    4.9432   -4.0941   -0.9117 H   0  0  0  0  0  0  0  0  0  0  0  0
    8.3813   -2.5160   -1.2484 H   0  0  0  0  0  0  0  0  0  0  0  0
    9.7122   -2.8956    1.1129 H   0  0  0  0  0  0  0  0  0  0  0  0
    7.7468   -3.6924    2.8801 H   0  0  0  0  0  0  0  0  0  0  0  0
   -2.6029    3.9152    0.5245 H   0  0  0  0  0  0  0  0  0  0  0  0
   -3.5514    3.4177    1.9351 H   0  0  0  0  0  0  0  0  0  0  0  0
   -4.3952    5.2755   -0.3464 H   0  0  0  0  0  0  0  0  0  0  0  0
   -4.3051    5.6384    1.3819 H   0  0  0  0  0  0  0  0  0  0  0  0
   -6.1980    4.0557    1.8120 H   0  0  0  0  0  0  0  0  0  0  0  0
   -6.6718    5.3431    0.7000 H   0  0  0  0  0  0  0  0  0  0  0  0
   -7.4223    2.9964    0.0137 H   0  0  0  0  0  0  0  0  0  0  0  0
   -6.5361    3.8940   -1.2288 H   0  0  0  0  0  0  0  0  0  0  0  0
  1  2  1  0
  2  3  2  0
  3  4  1  0
  4  5  1  0
  5  6  1  0
  6  7  2  0
  7  8  1  0
  8  9  1  0
  9 10  2  0
 10 11  1  0
 11 12  2  0
 12 13  1  0
 13 14  1  0
 14 15  1  0
 15 16  2  0
 15 17  1  0
 17 18  1  0
 18 19  1  0
 19 20  2  0
 20 21  1  0
 21 22  2  0
 22 23  1  0
 12 24  1  0
  7 25  1  0
 25 26  1  0
 26 27  1  0
 27 28  1  0
 24  2  1  0
  8  4  2  0
 24  9  1  0
 28  6  1  0
 23 19  1  0
  1 29  1  0
  1 30  1  0
  1 31  1  0
 14 32  1  0
 14 33  1  0
 17 34  1  0
 18 35  1  0
 18 36  1  0
 20 37  1  0
 21 38  1  0
 22 39  1  0
 25 40  1  0
 25 41  1  0
 26 42  1  0
 26 43  1  0
 27 44  1  0
 27 45  1  0
 28 46  1  0
 28 47  1  0
M  END
$$$$
