
     RDKit          3D

 57 62  0  0  0  0  0  0  0  0999 V2000
    7.6145    0.5374   -1.2791 C   0  0  0  0  0  0  0  0  0  0  0  0
    6.6049   -0.1358   -0.4141 C   0  0  0  0  0  0  0  0  0  0  0  0
    6.6248   -1.4209    0.0835 C   0  0  0  0  0  0  0  0  0  0  0  0
    5.4854   -1.7008    0.8920 C   0  0  0  0  0  0  0  0  0  0  0  0
    4.6070   -0.6359    0.9558 C   0  0  0  0  0  0  0  0  0  0  0  0
    3.3756   -0.5662    1.7301 C   0  0  0  0  0  0  0  0  0  0  0  0
    3.3327   -0.9870    2.8881 O   0  0  0  0  0  0  0  0  0  0  0  0
    2.2175   -0.0438    1.1311 N   0  0  0  0  0  0  0  0  0  0  0  0
    1.0486    0.1542    1.9772 C   0  0  0  0  0  0  0  0  0  0  0  0
    0.0773    1.1741    1.3920 C   0  0  0  0  0  0  0  0  0  0  0  0
   -0.3731    0.8480   -0.0649 C   0  0  0  0  0  0  0  0  0  0  0  0
    0.5663   -0.2114   -0.6972 C   0  0  0  0  0  0  0  0  0  0  0  0
    2.0219    0.0459   -0.3145 C   0  0  0  0  0  0  0  0  0  0  0  0
   -0.1600    2.1055   -0.7723 O   0  0  0  0  0  0  0  0  0  0  0  0
   -0.8165    2.2995   -1.9520 C   0  0  0  0  0  0  0  0  0  0  0  0
   -0.4068    3.3967   -2.7092 C   0  0  0  0  0  0  0  0  0  0  0  0
   -1.0030    3.6563   -3.9464 C   0  0  0  0  0  0  0  0  0  0  0  0
   -2.0113    2.8173   -4.4225 C   0  0  0  0  0  0  0  0  0  0  0  0
   -2.7335    3.1350   -5.9505 Cl  0  0  0  0  0  0  0  0  0  0  0  0
   -2.4353    1.7262   -3.6693 C   0  0  0  0  0  0  0  0  0  0  0  0
   -1.8383    1.4835   -2.4284 C   0  0  0  0  0  0  0  0  0  0  0  0
   -2.2731    0.3538   -1.5970 C   0  0  0  0  0  0  0  0  0  0  0  0
   -2.9031   -0.5729   -2.0989 O   0  0  0  0  0  0  0  0  0  0  0  0
   -1.8680    0.4238   -0.1301 C   0  0  0  0  0  0  0  0  0  0  0  0
   -2.2183   -0.8592    0.6073 C   0  0  0  0  0  0  0  0  0  0  0  0
   -3.5679   -0.4684    1.1092 C   0  0  0  0  0  0  0  0  0  0  0  0
   -4.5206   -1.4553    1.6514 C   0  0  0  0  0  0  0  0  0  0  0  0
   -4.2024   -2.8055    1.8022 C   0  0  0  0  0  0  0  0  0  0  0  0
   -5.1540   -3.6770    2.3310 C   0  0  0  0  0  0  0  0  0  0  0  0
   -6.3909   -3.1667    2.6918 C   0  0  0  0  0  0  0  0  0  0  0  0
   -6.7299   -1.8672    2.5610 N   0  0  0  0  0  0  0  0  0  0  0  0
   -5.7883   -1.0393    2.0429 C   0  0  0  0  0  0  0  0  0  0  0  0
   -3.8142    0.8017    1.0639 N   0  0  0  0  0  0  0  0  0  0  0  0
   -2.6916    1.4313    0.4834 O   0  0  0  0  0  0  0  0  0  0  0  0
    5.2251    0.7242    0.1189 S   0  0  0  0  0  0  0  0  0  0  0  0
    8.2510   -0.1998   -1.7808 H   0  0  0  0  0  0  0  0  0  0  0  0
    7.1355    1.1430   -2.0560 H   0  0  0  0  0  0  0  0  0  0  0  0
    8.2579    1.1880   -0.6766 H   0  0  0  0  0  0  0  0  0  0  0  0
    7.4263   -2.1249   -0.1075 H   0  0  0  0  0  0  0  0  0  0  0  0
    5.3106   -2.6405    1.4034 H   0  0  0  0  0  0  0  0  0  0  0  0
    0.5684   -0.8218    2.1062 H   0  0  0  0  0  0  0  0  0  0  0  0
    1.3701    0.4860    2.9714 H   0  0  0  0  0  0  0  0  0  0  0  0
   -0.7810    1.2628    2.0672 H   0  0  0  0  0  0  0  0  0  0  0  0
    0.5680    2.1572    1.4172 H   0  0  0  0  0  0  0  0  0  0  0  0
    0.4968   -0.1983   -1.7906 H   0  0  0  0  0  0  0  0  0  0  0  0
    0.2880   -1.2200   -0.3689 H   0  0  0  0  0  0  0  0  0  0  0  0
    2.6586   -0.6850   -0.8231 H   0  0  0  0  0  0  0  0  0  0  0  0
    2.3252    1.0494   -0.6318 H   0  0  0  0  0  0  0  0  0  0  0  0
    0.3818    4.0488   -2.3404 H   0  0  0  0  0  0  0  0  0  0  0  0
   -0.6761    4.5115   -4.5328 H   0  0  0  0  0  0  0  0  0  0  0  0
   -3.2278    1.0773   -4.0345 H   0  0  0  0  0  0  0  0  0  0  0  0
   -2.2383   -1.7491   -0.0254 H   0  0  0  0  0  0  0  0  0  0  0  0
   -1.5858   -1.0448    1.4783 H   0  0  0  0  0  0  0  0  0  0  0  0
   -3.2315   -3.2002    1.5219 H   0  0  0  0  0  0  0  0  0  0  0  0
   -4.9365   -4.7317    2.4600 H   0  0  0  0  0  0  0  0  0  0  0  0
   -7.1629   -3.8075    3.1085 H   0  0  0  0  0  0  0  0  0  0  0  0
   -6.0998   -0.0013    1.9517 H   0  0  0  0  0  0  0  0  0  0  0  0
  1  2  1  0
  2  3  2  0
  3  4  1  0
  4  5  2  0
  5  6  1  0
  6  7  2  0
  6  8  1  0
  8  9  1  0
  9 10  1  0
 10 11  1  0
 11 12  1  0
 12 13  1  0
 11 14  1  0
 14 15  1  0
 15 16  2  0
 16 17  1  0
 17 18  2  0
 18 19  1  0
 18 20  1  0
 20 21  2  0
 21 22  1  0
 22 23  2  0
 22 24  1  0
 24 25  1  0
 25 26  1  0
 26 27  1  0
 27 28  2  0
 28 29  1  0
 29 30  2  0
 30 31  1  0
 31 32  2  0
 26 33  2  0
 33 34  1  0
  5 35  1  0
 35  2  1  0
 13  8  1  0
 21 15  1  0
 34 24  1  0
 24 11  1  0
 32 27  1  0
  1 36  1  0
  1 37  1  0
  1 38  1  0
  3 39  1  0
  4 40  1  0
  9 41  1  0
  9 42  1  0
 10 43  1  0
 10 44  1  0
 12 45  1  0
 12 46  1  0
 13 47  1  0
 13 48  1  0
 16 49  1  0
 17 50  1  0
 20 51  1  0
 25 52  1  0
 25 53  1  0
 28 54  1  0
 29 55  1  0
 30 56  1  0
 32 57  1  0
M  END
$$$$
