
     RDKit          3D

 59 64  0  0  0  0  0  0  0  0999 V2000
   -5.6125   -0.9620    2.2482 C   0  0  0  0  0  0  0  0  0  0  0  0
   -5.9796   -0.1047    1.0924 C   0  0  0  0  0  0  0  0  0  0  0  0
   -7.1418    0.4945    0.9299 N   0  0  0  0  0  0  0  0  0  0  0  0
   -7.0562    1.1661   -0.2629 C   0  0  0  0  0  0  0  0  0  0  0  0
   -8.0145    1.9593   -0.9110 C   0  0  0  0  0  0  0  0  0  0  0  0
   -7.6858    2.5479   -2.1376 C   0  0  0  0  0  0  0  0  0  0  0  0
   -6.4267    2.3523   -2.7067 C   0  0  0  0  0  0  0  0  0  0  0  0
   -5.4572    1.5645   -2.0742 C   0  0  0  0  0  0  0  0  0  0  0  0
   -5.8084    0.9824   -0.8495 C   0  0  0  0  0  0  0  0  0  0  0  0
   -5.1388    0.1687    0.0357 N   0  0  0  0  0  0  0  0  0  0  0  0
   -3.7805   -0.3131   -0.1306 C   0  0  0  0  0  0  0  0  0  0  0  0
   -2.7553    0.6671    0.4252 C   0  0  0  0  0  0  0  0  0  0  0  0
   -1.3768    0.1498    0.2472 C   0  0  0  0  0  0  0  0  0  0  0  0
   -0.7472   -0.5975    1.2113 N   0  0  0  0  0  0  0  0  0  0  0  0
    0.4158   -0.8663    0.6582 C   0  0  0  0  0  0  0  0  0  0  0  0
    1.5572   -1.6205    1.1256 C   0  0  0  0  0  0  0  0  0  0  0  0
    1.5973   -2.2266    2.3824 C   0  0  0  0  0  0  0  0  0  0  0  0
    2.7301   -2.9464    2.7609 C   0  0  0  0  0  0  0  0  0  0  0  0
    3.8119   -3.0597    1.8860 C   0  0  0  0  0  0  0  0  0  0  0  0
    3.7690   -2.4515    0.6281 C   0  0  0  0  0  0  0  0  0  0  0  0
    2.6464   -1.7243    0.2339 C   0  0  0  0  0  0  0  0  0  0  0  0
    2.6399   -1.1174   -1.0518 N   0  0  0  0  0  0  0  0  0  0  0  0
    1.5885   -0.4408   -1.4374 C   0  0  0  0  0  0  0  0  0  0  0  0
    1.5577    0.2914   -3.0354 S   0  0  0  0  0  0  0  0  0  0  0  0
    3.2623    0.0573   -3.5958 C   0  0  0  0  0  0  0  0  0  0  0  0
    4.1879    1.0777   -2.9577 C   0  0  0  0  0  0  0  0  0  0  0  0
    4.4078    2.1753   -3.4616 O   0  0  0  0  0  0  0  0  0  0  0  0
    4.7571    0.6772   -1.7742 N   0  0  0  0  0  0  0  0  0  0  0  0
    5.6533    1.5360   -1.0439 C   0  0  0  0  0  0  0  0  0  0  0  0
    5.9783    0.9104    0.2606 C   0  0  0  0  0  0  0  0  0  0  0  0
    5.7000    1.2556    1.5674 C   0  0  0  0  0  0  0  0  0  0  0  0
    6.2932    0.2607    2.3799 C   0  0  0  0  0  0  0  0  0  0  0  0
    6.8911   -0.6295    1.5202 C   0  0  0  0  0  0  0  0  0  0  0  0
    6.7026   -0.2458    0.2308 O   0  0  0  0  0  0  0  0  0  0  0  0
    0.4749   -0.3099   -0.5917 N   0  0  0  0  0  0  0  0  0  0  0  0
   -0.6777    0.3401   -0.8786 N   0  0  0  0  0  0  0  0  0  0  0  0
   -6.4033   -0.9424    3.0052 H   0  0  0  0  0  0  0  0  0  0  0  0
   -5.4781   -1.9994    1.9291 H   0  0  0  0  0  0  0  0  0  0  0  0
   -4.6887   -0.6131    2.7182 H   0  0  0  0  0  0  0  0  0  0  0  0
   -8.9903    2.1060   -0.4618 H   0  0  0  0  0  0  0  0  0  0  0  0
   -8.4217    3.1633   -2.6499 H   0  0  0  0  0  0  0  0  0  0  0  0
   -6.1933    2.8205   -3.6608 H   0  0  0  0  0  0  0  0  0  0  0  0
   -4.4807    1.4186   -2.5238 H   0  0  0  0  0  0  0  0  0  0  0  0
   -3.7032   -1.2901    0.3601 H   0  0  0  0  0  0  0  0  0  0  0  0
   -3.6194   -0.4942   -1.2004 H   0  0  0  0  0  0  0  0  0  0  0  0
   -2.8510    1.6426   -0.0679 H   0  0  0  0  0  0  0  0  0  0  0  0
   -2.9407    0.8445    1.4918 H   0  0  0  0  0  0  0  0  0  0  0  0
    0.7531   -2.1417    3.0637 H   0  0  0  0  0  0  0  0  0  0  0  0
    2.7699   -3.4221    3.7386 H   0  0  0  0  0  0  0  0  0  0  0  0
    4.6938   -3.6220    2.1843 H   0  0  0  0  0  0  0  0  0  0  0  0
    4.6198   -2.5437   -0.0420 H   0  0  0  0  0  0  0  0  0  0  0  0
    3.6162   -0.9633   -3.4185 H   0  0  0  0  0  0  0  0  0  0  0  0
    3.2943    0.2140   -4.6793 H   0  0  0  0  0  0  0  0  0  0  0  0
    4.4335   -0.1853   -1.3364 H   0  0  0  0  0  0  0  0  0  0  0  0
    5.1702    2.5096   -0.8996 H   0  0  0  0  0  0  0  0  0  0  0  0
    6.5561    1.6903   -1.6447 H   0  0  0  0  0  0  0  0  0  0  0  0
    5.1446    2.1244    1.8917 H   0  0  0  0  0  0  0  0  0  0  0  0
    6.2895    0.1995    3.4586 H   0  0  0  0  0  0  0  0  0  0  0  0
    7.4658   -1.5340    1.6581 H   0  0  0  0  0  0  0  0  0  0  0  0
  1  2  1  0
  2  3  2  0
  3  4  1  0
  4  5  2  0
  5  6  1  0
  6  7  2  0
  7  8  1  0
  8  9  2  0
  9 10  1  0
 10 11  1  0
 11 12  1  0
 12 13  1  0
 13 14  1  0
 14 15  2  0
 15 16  1  0
 16 17  2  0
 17 18  1  0
 18 19  2  0
 19 20  1  0
 20 21  2  0
 21 22  1  0
 22 23  2  0
 23 24  1  0
 24 25  1  0
 25 26  1  0
 26 27  2  0
 26 28  1  0
 28 29  1  0
 29 30  1  0
 30 31  2  0
 31 32  1  0
 32 33  2  0
 33 34  1  0
 23 35  1  0
 35 36  1  0
 10  2  1  0
 36 13  2  0
  9  4  1  0
 35 15  1  0
 21 16  1  0
 34 30  1  0
  1 37  1  0
  1 38  1  0
  1 39  1  0
  5 40  1  0
  6 41  1  0
  7 42  1  0
  8 43  1  0
 11 44  1  0
 11 45  1  0
 12 46  1  0
 12 47  1  0
 17 48  1  0
 18 49  1  0
 19 50  1  0
 20 51  1  0
 25 52  1  0
 25 53  1  0
 28 54  1  0
 29 55  1  0
 29 56  1  0
 31 57  1  0
 32 58  1  0
 33 59  1  0
M  END
$$$$
