
     RDKit          3D

 70 75  0  0  0  0  0  0  0  0999 V2000
    2.4995   -1.7276   -2.0565 O   0  0  0  0  0  0  0  0  0  0  0  0
    1.6674   -1.9210   -0.9092 C   0  0  0  0  0  0  0  0  0  0  0  0
    2.5065   -2.4190    0.2910 C   0  0  0  0  0  0  0  0  0  0  0  0
    3.1963   -1.3710    1.0422 N   0  0  0  0  0  0  0  0  0  0  0  0
    4.3051   -0.6943    0.5763 C   0  0  0  0  0  0  0  0  0  0  0  0
    4.5604   -0.6621   -0.7034 N   0  0  0  0  0  0  0  0  0  0  0  0
    5.6977    0.0187   -1.1881 C   0  0  0  0  0  0  0  0  0  0  0  0
    5.9319    0.0226   -2.5645 C   0  0  0  0  0  0  0  0  0  0  0  0
    7.0459    0.6788   -3.0953 C   0  0  0  0  0  0  0  0  0  0  0  0
    7.9397    1.3385   -2.2509 C   0  0  0  0  0  0  0  0  0  0  0  0
    7.7251    1.3483   -0.8721 C   0  0  0  0  0  0  0  0  0  0  0  0
    6.6060    0.6890   -0.3554 C   0  0  0  0  0  0  0  0  0  0  0  0
    6.3105    0.6536    1.0171 N   0  0  0  0  0  0  0  0  0  0  0  0
    6.9889    1.2086    2.0756 C   0  0  0  0  0  0  0  0  0  0  0  0
    6.2985    0.9150    3.2319 C   0  0  0  0  0  0  0  0  0  0  0  0
    5.1650    0.1522    2.8633 C   0  0  0  0  0  0  0  0  0  0  0  0
    5.1970   -0.0055    1.4892 C   0  0  0  0  0  0  0  0  0  0  0  0
    0.8479   -0.6467   -0.5810 C   0  0  0  0  0  0  0  0  0  0  0  0
   -0.0353   -0.1570   -1.6626 N   0  0  0  0  0  0  0  0  0  0  0  0
   -1.1222   -1.0826   -2.0234 C   0  0  0  0  0  0  0  0  0  0  0  0
   -2.2591   -1.1812   -0.9789 C   0  0  0  0  0  0  0  0  0  0  0  0
   -2.8634    0.1359   -0.6592 N   0  0  0  0  0  0  0  0  0  0  0  0
   -3.8974    0.0143    0.4129 C   0  0  0  0  0  0  0  0  0  0  0  0
   -4.5091    1.3571    0.8368 C   0  0  0  0  0  0  0  0  0  0  0  0
   -4.9607    2.2952   -0.1079 C   0  0  0  0  0  0  0  0  0  0  0  0
   -5.5288    3.5034    0.2995 C   0  0  0  0  0  0  0  0  0  0  0  0
   -5.6612    3.7892    1.6563 C   0  0  0  0  0  0  0  0  0  0  0  0
   -5.2283    2.8673    2.6073 C   0  0  0  0  0  0  0  0  0  0  0  0
   -4.6582    1.6586    2.2018 C   0  0  0  0  0  0  0  0  0  0  0  0
   -5.0252   -0.9694    0.0676 C   0  0  0  0  0  0  0  0  0  0  0  0
   -5.4550   -1.9074    1.0225 C   0  0  0  0  0  0  0  0  0  0  0  0
   -6.4936   -2.7955    0.7326 C   0  0  0  0  0  0  0  0  0  0  0  0
   -7.1202   -2.7569   -0.5113 C   0  0  0  0  0  0  0  0  0  0  0  0
   -6.7114   -1.8298   -1.4671 C   0  0  0  0  0  0  0  0  0  0  0  0
   -5.6742   -0.9408   -1.1795 C   0  0  0  0  0  0  0  0  0  0  0  0
   -1.7782    1.0695   -0.2678 C   0  0  0  0  0  0  0  0  0  0  0  0
   -0.6391    1.1445   -1.3142 C   0  0  0  0  0  0  0  0  0  0  0  0
    3.2259   -1.1344   -1.7609 H   0  0  0  0  0  0  0  0  0  0  0  0
    0.9901   -2.7401   -1.1716 H   0  0  0  0  0  0  0  0  0  0  0  0
    3.2363   -3.1677   -0.0384 H   0  0  0  0  0  0  0  0  0  0  0  0
    1.8259   -2.9171    0.9916 H   0  0  0  0  0  0  0  0  0  0  0  0
    3.2235   -1.5541    2.0389 H   0  0  0  0  0  0  0  0  0  0  0  0
    5.2393   -0.4904   -3.2279 H   0  0  0  0  0  0  0  0  0  0  0  0
    7.2138    0.6738   -4.1695 H   0  0  0  0  0  0  0  0  0  0  0  0
    8.8045    1.8472   -2.6710 H   0  0  0  0  0  0  0  0  0  0  0  0
    8.4329    1.8695   -0.2363 H   0  0  0  0  0  0  0  0  0  0  0  0
    7.9007    1.7712    1.9362 H   0  0  0  0  0  0  0  0  0  0  0  0
    6.5814    1.2215    4.2311 H   0  0  0  0  0  0  0  0  0  0  0  0
    4.4106   -0.2336    3.5353 H   0  0  0  0  0  0  0  0  0  0  0  0
    0.2815   -0.8183    0.3415 H   0  0  0  0  0  0  0  0  0  0  0  0
    1.5647    0.1583   -0.3767 H   0  0  0  0  0  0  0  0  0  0  0  0
   -1.5563   -0.7382   -2.9723 H   0  0  0  0  0  0  0  0  0  0  0  0
   -0.7360   -2.0829   -2.2432 H   0  0  0  0  0  0  0  0  0  0  0  0
   -1.8749   -1.6591   -0.0685 H   0  0  0  0  0  0  0  0  0  0  0  0
   -3.0125   -1.8546   -1.4010 H   0  0  0  0  0  0  0  0  0  0  0  0
   -3.3756   -0.3917    1.2929 H   0  0  0  0  0  0  0  0  0  0  0  0
   -4.8594    2.0879   -1.1710 H   0  0  0  0  0  0  0  0  0  0  0  0
   -5.8685    4.2196   -0.4442 H   0  0  0  0  0  0  0  0  0  0  0  0
   -6.1065    4.7287    1.9724 H   0  0  0  0  0  0  0  0  0  0  0  0
   -5.3385    3.0881    3.6656 H   0  0  0  0  0  0  0  0  0  0  0  0
   -4.3353    0.9493    2.9601 H   0  0  0  0  0  0  0  0  0  0  0  0
   -4.9877   -1.9479    2.0034 H   0  0  0  0  0  0  0  0  0  0  0  0
   -6.8186   -3.5139    1.4806 H   0  0  0  0  0  0  0  0  0  0  0  0
   -7.9307   -3.4455   -0.7355 H   0  0  0  0  0  0  0  0  0  0  0  0
   -7.2002   -1.7957   -2.4374 H   0  0  0  0  0  0  0  0  0  0  0  0
   -5.3636   -0.2254   -1.9381 H   0  0  0  0  0  0  0  0  0  0  0  0
   -2.1685    2.0869   -0.1602 H   0  0  0  0  0  0  0  0  0  0  0  0
   -1.3595    0.7828    0.7056 H   0  0  0  0  0  0  0  0  0  0  0  0
   -1.0405    1.5905   -2.2343 H   0  0  0  0  0  0  0  0  0  0  0  0
    0.1330    1.8425   -0.9672 H   0  0  0  0  0  0  0  0  0  0  0  0
  1  2  1  0
  2  3  1  0
  3  4  1  0
  4  5  1  0
  5  6  2  0
  6  7  1  0
  7  8  2  0
  8  9  1  0
  9 10  2  0
 10 11  1  0
 11 12  2  0
 12 13  1  0
 13 14  1  0
 14 15  2  0
 15 16  1  0
 16 17  2  0
  2 18  1  0
 18 19  1  0
 19 20  1  0
 20 21  1  0
 21 22  1  0
 22 23  1  0
 23 24  1  0
 24 25  2  0
 25 26  1  0
 26 27  2  0
 27 28  1  0
 28 29  2  0
 23 30  1  0
 30 31  2  0
 31 32  1  0
 32 33  2  0
 33 34  1  0
 34 35  2  0
 22 36  1  0
 36 37  1  0
 17  5  1  0
 37 19  1  0
 12  7  1  0
 17 13  1  0
 29 24  1  0
 35 30  1  0
  1 38  1  0
  2 39  1  0
  3 40  1  0
  3 41  1  0
  4 42  1  0
  8 43  1  0
  9 44  1  0
 10 45  1  0
 11 46  1  0
 14 47  1  0
 15 48  1  0
 16 49  1  0
 18 50  1  0
 18 51  1  0
 20 52  1  0
 20 53  1  0
 21 54  1  0
 21 55  1  0
 23 56  1  0
 25 57  1  0
 26 58  1  0
 27 59  1  0
 28 60  1  0
 29 61  1  0
 31 62  1  0
 32 63  1  0
 33 64  1  0
 34 65  1  0
 35 66  1  0
 36 67  1  0
 36 68  1  0
 37 69  1  0
 37 70  1  0
M  END
$$$$
