
     RDKit          3D

 24 25  0  0  0  0  0  0  0  0999 V2000
    4.6711    0.7785    0.3518 C   0  0  0  0  0  0  0  0  0  0  0  0
    2.8698    0.9273    0.3458 S   0  0  0  0  0  0  0  0  0  0  0  0
    2.4106   -0.5985   -0.3357 C   0  0  0  0  0  0  0  0  0  0  0  0
    3.2768   -1.5050   -0.7355 N   0  0  0  0  0  0  0  0  0  0  0  0
    2.5518   -2.4990   -1.3192 N   0  0  0  0  0  0  0  0  0  0  0  0
    1.2596   -2.2226   -1.2922 N   0  0  0  0  0  0  0  0  0  0  0  0
    1.1222   -1.0359   -0.6326 N   0  0  0  0  0  0  0  0  0  0  0  0
   -0.1851   -0.5183   -0.3891 C   0  0  0  0  0  0  0  0  0  0  0  0
   -1.2802   -1.1339   -1.0220 C   0  0  0  0  0  0  0  0  0  0  0  0
   -2.5841   -0.6687   -0.8215 C   0  0  0  0  0  0  0  0  0  0  0  0
   -2.8333    0.4188    0.0226 C   0  0  0  0  0  0  0  0  0  0  0  0
   -4.2439    0.8968    0.2208 C   0  0  0  0  0  0  0  0  0  0  0  0
   -1.7447    1.0213    0.6670 C   0  0  0  0  0  0  0  0  0  0  0  0
   -1.9677    2.3555    1.7452 Cl  0  0  0  0  0  0  0  0  0  0  0  0
   -0.4349    0.5578    0.4674 C   0  0  0  0  0  0  0  0  0  0  0  0
    5.1043    1.6905    0.7715 H   0  0  0  0  0  0  0  0  0  0  0  0
    5.0520    0.6527   -0.6655 H   0  0  0  0  0  0  0  0  0  0  0  0
    4.9870   -0.0681    0.9678 H   0  0  0  0  0  0  0  0  0  0  0  0
   -1.1447   -1.9822   -1.6932 H   0  0  0  0  0  0  0  0  0  0  0  0
   -3.4044   -1.1681   -1.3347 H   0  0  0  0  0  0  0  0  0  0  0  0
   -4.9522    0.3153   -0.3792 H   0  0  0  0  0  0  0  0  0  0  0  0
   -4.3397    1.9435   -0.0852 H   0  0  0  0  0  0  0  0  0  0  0  0
   -4.5386    0.7918    1.2699 H   0  0  0  0  0  0  0  0  0  0  0  0
    0.3482    1.0507    1.0291 H   0  0  0  0  0  0  0  0  0  0  0  0
  1  2  1  0
  2  3  1  0
  3  4  2  0
  4  5  1  0
  5  6  2  0
  6  7  1  0
  7  8  1  0
  8  9  2  0
  9 10  1  0
 10 11  2  0
 11 12  1  0
 11 13  1  0
 13 14  1  0
 13 15  2  0
  7  3  1  0
 15  8  1  0
  1 16  1  0
  1 17  1  0
  1 18  1  0
  9 19  1  0
 10 20  1  0
 12 21  1  0
 12 22  1  0
 12 23  1  0
 15 24  1  0
M  END
$$$$
