
     RDKit          3D

 42 44  0  0  0  0  0  0  0  0999 V2000
   -4.3200   -1.0823    2.1214 C   0  0  0  0  0  0  0  0  0  0  0  0
   -4.2846   -0.8835    0.6054 C   0  0  0  0  0  0  0  0  0  0  0  0
   -4.6030   -2.1820   -0.1371 C   0  0  0  0  0  0  0  0  0  0  0  0
   -3.0105   -0.3098    0.1655 N   0  0  0  0  0  0  0  0  0  0  0  0
   -1.7891   -0.9218    0.3213 C   0  0  0  0  0  0  0  0  0  0  0  0
   -0.8188   -0.0897   -0.1887 C   0  0  0  0  0  0  0  0  0  0  0  0
    0.5687   -0.4278   -0.1633 C   0  0  0  0  0  0  0  0  0  0  0  0
    1.5747    0.4465    0.0060 C   0  0  0  0  0  0  0  0  0  0  0  0
    2.9934    0.0753    0.0390 C   0  0  0  0  0  0  0  0  0  0  0  0
    3.4517   -1.0645    0.6981 C   0  0  0  0  0  0  0  0  0  0  0  0
    4.8126   -1.3486    0.7201 C   0  0  0  0  0  0  0  0  0  0  0  0
    5.6974   -0.5285    0.1109 N   0  0  0  0  0  4  0  0  0  0  0  0
    7.1349   -0.8457    0.1550 C   0  0  0  0  0  0  0  0  0  0  0  0
    5.2795    0.5945   -0.5142 C   0  0  0  0  0  0  0  0  0  0  0  0
    3.9282    0.9187   -0.5589 C   0  0  0  0  0  0  0  0  0  0  0  0
   -1.4745    1.0629   -0.7193 C   0  0  0  0  0  0  0  0  0  0  0  0
   -1.0435    2.2222   -1.4046 C   0  0  0  0  0  0  0  0  0  0  0  0
   -1.9708    3.1924   -1.7970 C   0  0  0  0  0  0  0  0  0  0  0  0
   -3.3217    3.0235   -1.5247 C   0  0  0  0  0  0  0  0  0  0  0  0
   -3.7822    1.8818   -0.8640 C   0  0  0  0  0  0  0  0  0  0  0  0
   -2.8466    0.9069   -0.4729 C   0  0  0  0  0  0  0  0  0  0  0  0
   -4.0947   -0.1457    2.6432 H   0  0  0  0  0  0  0  0  0  0  0  0
   -5.3119   -1.4173    2.4431 H   0  0  0  0  0  0  0  0  0  0  0  0
   -3.5915   -1.8310    2.4509 H   0  0  0  0  0  0  0  0  0  0  0  0
   -5.0689   -0.1626    0.3540 H   0  0  0  0  0  0  0  0  0  0  0  0
   -3.8830   -2.9728    0.0997 H   0  0  0  0  0  0  0  0  0  0  0  0
   -4.5824   -2.0265   -1.2215 H   0  0  0  0  0  0  0  0  0  0  0  0
   -5.6001   -2.5458    0.1325 H   0  0  0  0  0  0  0  0  0  0  0  0
   -1.7139   -1.8908    0.7973 H   0  0  0  0  0  0  0  0  0  0  0  0
    0.7901   -1.4877   -0.2691 H   0  0  0  0  0  0  0  0  0  0  0  0
    1.3565    1.5051    0.1323 H   0  0  0  0  0  0  0  0  0  0  0  0
    2.7599   -1.7310    1.2096 H   0  0  0  0  0  0  0  0  0  0  0  0
    5.2030   -2.2262    1.2279 H   0  0  0  0  0  0  0  0  0  0  0  0
    7.2614   -1.9307    0.1941 H   0  0  0  0  0  0  0  0  0  0  0  0
    7.6149   -0.4584   -0.7475 H   0  0  0  0  0  0  0  0  0  0  0  0
    7.5471   -0.3726    1.0496 H   0  0  0  0  0  0  0  0  0  0  0  0
    6.0331    1.2286   -0.9728 H   0  0  0  0  0  0  0  0  0  0  0  0
    3.6114    1.8270   -1.0690 H   0  0  0  0  0  0  0  0  0  0  0  0
    0.0046    2.3655   -1.6438 H   0  0  0  0  0  0  0  0  0  0  0  0
   -1.6334    4.0817   -2.3233 H   0  0  0  0  0  0  0  0  0  0  0  0
   -4.0340    3.7844   -1.8362 H   0  0  0  0  0  0  0  0  0  0  0  0
   -4.8441    1.7662   -0.6721 H   0  0  0  0  0  0  0  0  0  0  0  0
  1  2  1  0
  2  3  1  0
  2  4  1  0
  4  5  1  0
  5  6  2  0
  6  7  1  0
  7  8  2  3
  8  9  1  0
  9 10  2  0
 10 11  1  0
 11 12  2  0
 12 13  1  0
 12 14  1  0
 14 15  2  0
  6 16  1  0
 16 17  2  0
 17 18  1  0
 18 19  2  0
 19 20  1  0
 20 21  2  0
 21  4  1  0
 15  9  1  0
 21 16  1  0
  1 22  1  0
  1 23  1  0
  1 24  1  0
  2 25  1  0
  3 26  1  0
  3 27  1  0
  3 28  1  0
  5 29  1  0
  7 30  1  0
  8 31  1  0
 10 32  1  0
 11 33  1  0
 13 34  1  0
 13 35  1  0
 13 36  1  0
 14 37  1  0
 15 38  1  0
 17 39  1  0
 18 40  1  0
 19 41  1  0
 20 42  1  0
M  CHG  1  12   1
M  END
$$$$
