
     RDKit          3D

 44 46  0  0  0  0  0  0  0  0999 V2000
   -0.8511    2.7133   -1.5535 C   0  0  0  0  0  0  0  0  0  0  0  0
   -2.0308    1.8981   -1.1004 C   0  0  0  0  0  0  0  0  0  0  0  0
   -3.3288    2.3312   -1.4003 C   0  0  0  0  0  0  0  0  0  0  0  0
   -4.4379    1.5908   -0.9904 C   0  0  0  0  0  0  0  0  0  0  0  0
   -4.2747    0.4008   -0.2719 C   0  0  0  0  0  0  0  0  0  0  0  0
   -5.4979   -0.3875    0.1652 C   0  0  0  0  0  0  0  0  0  0  0  0
   -5.5930   -0.4785    1.6904 C   0  0  0  0  0  0  0  0  0  0  0  0
   -5.5264   -1.7808   -0.4681 C   0  0  0  0  0  0  0  0  0  0  0  0
   -2.9710   -0.0325    0.0272 C   0  0  0  0  0  0  0  0  0  0  0  0
   -1.8523    0.7047   -0.3804 C   0  0  0  0  0  0  0  0  0  0  0  0
   -0.5507    0.3557   -0.1314 O   0  0  0  0  0  0  0  0  0  0  0  0
   -0.3184   -0.8462    0.5978 C   0  0  0  0  0  0  0  0  0  0  0  0
    1.1825   -1.0836    0.7926 C   0  0  0  0  0  0  0  0  0  0  0  0
    1.5794   -2.0827    1.3853 O   0  0  0  0  0  0  0  0  0  0  0  0
    1.9529   -0.0835    0.2473 N   0  0  0  0  0  0  0  0  0  0  0  0
    3.3183    0.0171    0.2456 C   0  0  0  0  0  0  0  0  0  0  0  0
    3.9458    1.0298   -0.3131 N   0  0  0  0  0  0  0  0  0  0  0  0
    5.3187    0.9223   -0.1919 N   0  0  0  0  0  0  0  0  0  0  0  0
    5.6579   -0.1744    0.4478 C   0  0  0  0  0  0  0  0  0  0  0  0
    7.1448   -0.5451    0.7355 C   0  0  0  0  0  0  0  0  0  0  0  0
    7.7735   -1.7002   -0.0023 C   0  0  0  0  0  0  0  0  0  0  0  0
    8.1850   -0.2937   -0.3268 C   0  0  0  0  0  0  0  0  0  0  0  0
    4.3459   -1.1403    0.9598 S   0  0  0  0  0  0  0  0  0  0  0  0
   -0.2560    3.0309   -0.6911 H   0  0  0  0  0  0  0  0  0  0  0  0
   -1.1664    3.6151   -2.0886 H   0  0  0  0  0  0  0  0  0  0  0  0
   -0.2235    2.1263   -2.2319 H   0  0  0  0  0  0  0  0  0  0  0  0
   -3.4866    3.2523   -1.9571 H   0  0  0  0  0  0  0  0  0  0  0  0
   -5.4328    1.9546   -1.2383 H   0  0  0  0  0  0  0  0  0  0  0  0
   -6.3959    0.1409   -0.1818 H   0  0  0  0  0  0  0  0  0  0  0  0
   -4.7602   -1.0453    2.1207 H   0  0  0  0  0  0  0  0  0  0  0  0
   -5.5865    0.5196    2.1428 H   0  0  0  0  0  0  0  0  0  0  0  0
   -6.5223   -0.9759    1.9888 H   0  0  0  0  0  0  0  0  0  0  0  0
   -5.4707   -1.7151   -1.5604 H   0  0  0  0  0  0  0  0  0  0  0  0
   -4.6918   -2.4035   -0.1283 H   0  0  0  0  0  0  0  0  0  0  0  0
   -6.4552   -2.3014   -0.2106 H   0  0  0  0  0  0  0  0  0  0  0  0
   -2.8564   -0.9565    0.5848 H   0  0  0  0  0  0  0  0  0  0  0  0
   -0.7640   -0.7763    1.5968 H   0  0  0  0  0  0  0  0  0  0  0  0
   -0.7107   -1.7069    0.0442 H   0  0  0  0  0  0  0  0  0  0  0  0
    1.4701    0.6795   -0.2153 H   0  0  0  0  0  0  0  0  0  0  0  0
    7.4466   -0.3829    1.7647 H   0  0  0  0  0  0  0  0  0  0  0  0
    8.4753   -2.3238    0.5394 H   0  0  0  0  0  0  0  0  0  0  0  0
    7.1859   -2.2337   -0.7408 H   0  0  0  0  0  0  0  0  0  0  0  0
    9.1640    0.0410   -0.0045 H   0  0  0  0  0  0  0  0  0  0  0  0
    7.8651    0.1263   -1.2744 H   0  0  0  0  0  0  0  0  0  0  0  0
  1  2  1  0
  2  3  2  0
  3  4  1  0
  4  5  2  0
  5  6  1  0
  6  7  1  0
  6  8  1  0
  5  9  1  0
  9 10  2  0
 10 11  1  0
 11 12  1  0
 12 13  1  0
 13 14  2  0
 13 15  1  0
 15 16  1  0
 16 17  2  0
 17 18  1  0
 18 19  2  0
 19 20  1  0
 20 21  1  0
 21 22  1  0
 19 23  1  0
 10  2  1  0
 23 16  1  0
 22 20  1  0
  1 24  1  0
  1 25  1  0
  1 26  1  0
  3 27  1  0
  4 28  1  0
  6 29  1  0
  7 30  1  0
  7 31  1  0
  7 32  1  0
  8 33  1  0
  8 34  1  0
  8 35  1  0
  9 36  1  0
 12 37  1  0
 12 38  1  0
 15 39  1  0
 20 40  1  0
 21 41  1  0
 21 42  1  0
 22 43  1  0
 22 44  1  0
M  END
$$$$
