
     RDKit          3D

 50 53  0  0  0  0  0  0  0  0999 V2000
    8.7757    1.4290    1.5940 C   0  0  0  0  0  0  0  0  0  0  0  0
    7.6891    0.5474    0.9999 C   0  0  0  0  0  0  0  0  0  0  0  0
    6.4422    0.9056    1.6137 O   0  0  0  0  0  0  0  0  0  0  0  0
    5.3806    0.7344    0.7707 C   0  0  0  0  0  0  0  0  0  0  0  0
    5.1790    1.6487   -0.2664 C   0  0  0  0  0  0  0  0  0  0  0  0
    4.0425    1.5504   -1.0765 C   0  0  0  0  0  0  0  0  0  0  0  0
    3.0796    0.5582   -0.8361 C   0  0  0  0  0  0  0  0  0  0  0  0
    1.8816    0.5043   -1.7199 C   0  0  0  0  0  0  0  0  0  0  0  0
    2.0272    0.7957   -2.9007 O   0  0  0  0  0  0  0  0  0  0  0  0
    0.7037    0.1612   -1.0822 N   0  0  0  0  0  0  0  0  0  0  0  0
   -0.5645   -0.0251   -1.6740 C   0  0  0  0  0  0  0  0  0  0  0  0
   -0.7993    0.0159   -3.0484 C   0  0  0  0  0  0  0  0  0  0  0  0
   -2.0835   -0.2025   -3.5518 C   0  0  0  0  0  0  0  0  0  0  0  0
   -3.1453   -0.4634   -2.6852 C   0  0  0  0  0  0  0  0  0  0  0  0
   -2.9364   -0.5030   -1.3002 C   0  0  0  0  0  0  0  0  0  0  0  0
   -4.0530   -0.7751   -0.3674 C   0  0  0  0  0  0  0  0  0  0  0  0
   -5.1600   -0.0175   -0.4414 C   0  0  0  0  0  0  0  0  0  0  0  0
   -6.2737   -0.2300    0.4676 C   0  0  0  0  0  0  0  0  0  0  0  0
   -7.4314    0.5515    0.4231 C   0  0  0  0  0  0  0  0  0  0  0  0
   -8.4731    0.3117    1.3256 C   0  0  0  0  0  0  0  0  0  0  0  0
   -8.3649   -0.7113    2.2706 C   0  0  0  0  0  0  0  0  0  0  0  0
   -7.2139   -1.4955    2.3176 C   0  0  0  0  0  0  0  0  0  0  0  0
   -6.1831   -1.2412    1.4160 C   0  0  0  0  0  0  0  0  0  0  0  0
   -5.0349   -2.0479    1.5005 O   0  0  0  0  0  0  0  0  0  0  0  0
   -3.9400   -1.8539    0.6631 C   0  0  0  0  0  0  0  0  0  0  0  0
   -2.9344   -2.5471    0.7795 O   0  0  0  0  0  0  0  0  0  0  0  0
   -1.6386   -0.2847   -0.8094 C   0  0  0  0  0  0  0  0  0  0  0  0
    3.2704   -0.3605    0.2016 C   0  0  0  0  0  0  0  0  0  0  0  0
    4.4202   -0.2532    0.9973 C   0  0  0  0  0  0  0  0  0  0  0  0
    4.5898   -1.2056    2.0764 N   0  0  0  0  0  4  0  0  0  0  0  0
    5.6289   -1.8770    2.0951 O   0  0  0  0  0  0  0  0  0  0  0  0
    3.6432   -1.3223    2.8690 O   0  0  0  0  0  1  0  0  0  0  0  0
    9.7572    1.1715    1.1854 H   0  0  0  0  0  0  0  0  0  0  0  0
    8.8090    1.3263    2.6872 H   0  0  0  0  0  0  0  0  0  0  0  0
    8.5730    2.4867    1.3820 H   0  0  0  0  0  0  0  0  0  0  0  0
    7.9020   -0.5042    1.2329 H   0  0  0  0  0  0  0  0  0  0  0  0
    7.6774    0.6652   -0.0924 H   0  0  0  0  0  0  0  0  0  0  0  0
    5.8943    2.4502   -0.4396 H   0  0  0  0  0  0  0  0  0  0  0  0
    3.8970    2.2625   -1.8885 H   0  0  0  0  0  0  0  0  0  0  0  0
    0.7233    0.0855   -0.0728 H   0  0  0  0  0  0  0  0  0  0  0  0
    0.0001    0.2029   -3.7601 H   0  0  0  0  0  0  0  0  0  0  0  0
   -2.2507   -0.1765   -4.6258 H   0  0  0  0  0  0  0  0  0  0  0  0
   -4.1321   -0.6467   -3.1052 H   0  0  0  0  0  0  0  0  0  0  0  0
   -5.2535    0.7867   -1.1664 H   0  0  0  0  0  0  0  0  0  0  0  0
   -7.5391    1.3488   -0.3100 H   0  0  0  0  0  0  0  0  0  0  0  0
   -9.3724    0.9207    1.2895 H   0  0  0  0  0  0  0  0  0  0  0  0
   -9.1771   -0.8960    2.9694 H   0  0  0  0  0  0  0  0  0  0  0  0
   -7.1208   -2.2944    3.0469 H   0  0  0  0  0  0  0  0  0  0  0  0
   -1.4666   -0.3256    0.2649 H   0  0  0  0  0  0  0  0  0  0  0  0
    2.5556   -1.1607    0.3812 H   0  0  0  0  0  0  0  0  0  0  0  0
  1  2  1  0
  2  3  1  0
  3  4  1  0
  4  5  2  0
  5  6  1  0
  6  7  2  0
  7  8  1  0
  8  9  2  0
  8 10  1  0
 10 11  1  0
 11 12  2  0
 12 13  1  0
 13 14  2  0
 14 15  1  0
 15 16  1  0
 16 17  2  0
 17 18  1  0
 18 19  2  0
 19 20  1  0
 20 21  2  0
 21 22  1  0
 22 23  2  0
 23 24  1  0
 24 25  1  0
 25 26  2  0
 15 27  2  0
  7 28  1  0
 28 29  2  0
 29 30  1  0
 30 31  2  0
 30 32  1  0
 29  4  1  0
 27 11  1  0
 25 16  1  0
 23 18  1  0
  1 33  1  0
  1 34  1  0
  1 35  1  0
  2 36  1  0
  2 37  1  0
  5 38  1  0
  6 39  1  0
 10 40  1  0
 12 41  1  0
 13 42  1  0
 14 43  1  0
 17 44  1  0
 19 45  1  0
 20 46  1  0
 21 47  1  0
 22 48  1  0
 27 49  1  0
 28 50  1  0
M  CHG  2  30   1  32  -1
M  END
$$$$
