
     RDKit          3D

 32 33  0  0  0  0  0  0  0  0999 V2000
    4.2469    1.7491   -0.0776 C   0  0  0  0  0  0  0  0  0  0  0  0
    4.4285    0.0747    0.4797 S   0  0  0  0  0  6  0  0  0  0  0  0
    5.6263   -0.4594   -0.1420 O   0  0  0  0  0  0  0  0  0  0  0  0
    4.2562    0.0382    1.9179 O   0  0  0  0  0  0  0  0  0  0  0  0
    3.0394   -0.7821   -0.2275 C   0  0  0  0  0  0  0  0  0  0  0  0
    3.2533   -1.8813   -1.0615 C   0  0  0  0  0  0  0  0  0  0  0  0
    2.1568   -2.5515   -1.6002 C   0  0  0  0  0  0  0  0  0  0  0  0
    0.8611   -2.1161   -1.3058 C   0  0  0  0  0  0  0  0  0  0  0  0
   -0.4666   -2.9772   -2.0103 Cl  0  0  0  0  0  0  0  0  0  0  0  0
    0.6383   -1.0037   -0.4686 C   0  0  0  0  0  0  0  0  0  0  0  0
   -0.6992   -0.6066   -0.2230 N   0  0  0  0  0  0  0  0  0  0  0  0
   -1.1387    0.4824    0.5040 C   0  0  0  0  0  0  0  0  0  0  0  0
   -0.4364    1.2999    1.0862 O   0  0  0  0  0  0  0  0  0  0  0  0
   -2.6183    0.6406    0.5784 C   0  0  0  0  0  0  0  0  0  0  0  0
   -3.1720    1.1562    1.7584 C   0  0  0  0  0  0  0  0  0  0  0  0
   -4.5530    1.3233    1.8728 C   0  0  0  0  0  0  0  0  0  0  0  0
   -5.3851    0.9858    0.8056 C   0  0  0  0  0  0  0  0  0  0  0  0
   -4.8309    0.4910   -0.3747 C   0  0  0  0  0  0  0  0  0  0  0  0
   -5.9610    0.0556   -1.8271 Br  0  0  0  0  0  0  0  0  0  0  0  0
   -3.4520    0.3191   -0.5000 C   0  0  0  0  0  0  0  0  0  0  0  0
    1.7435   -0.3468    0.0787 C   0  0  0  0  0  0  0  0  0  0  0  0
    5.1096    2.3172    0.2777 H   0  0  0  0  0  0  0  0  0  0  0  0
    3.3326    2.1761    0.3371 H   0  0  0  0  0  0  0  0  0  0  0  0
    4.2223    1.7597   -1.1690 H   0  0  0  0  0  0  0  0  0  0  0  0
    4.2607   -2.2268   -1.2868 H   0  0  0  0  0  0  0  0  0  0  0  0
    2.3172   -3.4116   -2.2461 H   0  0  0  0  0  0  0  0  0  0  0  0
   -1.3966   -1.2274   -0.6208 H   0  0  0  0  0  0  0  0  0  0  0  0
   -2.5261    1.4271    2.5923 H   0  0  0  0  0  0  0  0  0  0  0  0
   -4.9780    1.7197    2.7920 H   0  0  0  0  0  0  0  0  0  0  0  0
   -6.4599    1.1206    0.9008 H   0  0  0  0  0  0  0  0  0  0  0  0
   -3.0397   -0.0331   -1.4409 H   0  0  0  0  0  0  0  0  0  0  0  0
    1.6211    0.4874    0.7623 H   0  0  0  0  0  0  0  0  0  0  0  0
  1  2  1  0
  2  3  2  0
  2  4  2  0
  2  5  1  0
  5  6  2  0
  6  7  1  0
  7  8  2  0
  8  9  1  0
  8 10  1  0
 10 11  1  0
 11 12  1  0
 12 13  2  0
 12 14  1  0
 14 15  2  0
 15 16  1  0
 16 17  2  0
 17 18  1  0
 18 19  1  0
 18 20  2  0
 10 21  2  0
 21  5  1  0
 20 14  1  0
  1 22  1  0
  1 23  1  0
  1 24  1  0
  6 25  1  0
  7 26  1  0
 11 27  1  0
 15 28  1  0
 16 29  1  0
 17 30  1  0
 20 31  1  0
 21 32  1  0
M  END
$$$$
