
     RDKit          3D

 39 41  0  0  0  0  0  0  0  0999 V2000
    3.2774   -1.0093    1.1984 C   0  0  0  0  0  0  0  0  0  0  0  0
    3.7261   -0.3007    0.0073 N   0  0  0  0  0  0  0  0  0  0  0  0
    4.1142   -1.2199   -1.0546 C   0  0  0  0  0  0  0  0  0  0  0  0
    2.8149    0.7652   -0.4330 C   0  0  0  0  0  0  0  0  0  0  0  0
    1.5651    0.4195   -1.2711 C   0  0  0  0  0  0  0  0  0  0  0  0
    0.5025   -0.3726   -0.5543 C   0  0  0  0  0  0  0  0  0  0  0  0
   -0.7221    0.0159   -0.1293 C   0  0  0  0  0  0  0  0  0  0  0  0
   -1.2437    1.3958   -0.3118 C   0  0  0  0  0  0  0  0  0  0  0  0
   -0.5249    2.5273    0.1004 C   0  0  0  0  0  0  0  0  0  0  0  0
   -1.0500    3.8092   -0.0765 C   0  0  0  0  0  0  0  0  0  0  0  0
   -2.3090    3.9744   -0.6472 C   0  0  0  0  0  0  0  0  0  0  0  0
   -3.0554    2.8569   -1.0210 C   0  0  0  0  0  0  0  0  0  0  0  0
   -2.5389    1.5672   -0.8390 C   0  0  0  0  0  0  0  0  0  0  0  0
   -3.5821    0.1706   -1.2634 S   0  0  0  0  0  0  0  0  0  0  0  0
   -2.9739   -1.0609   -0.1103 C   0  0  0  0  0  0  0  0  0  0  0  0
   -3.8580   -2.0570    0.3247 C   0  0  0  0  0  0  0  0  0  0  0  0
   -3.4345   -3.0259    1.2364 C   0  0  0  0  0  0  0  0  0  0  0  0
   -2.1281   -2.9975    1.7179 C   0  0  0  0  0  0  0  0  0  0  0  0
   -1.6118   -4.1824    2.8539 Cl  0  0  0  0  0  0  0  0  0  0  0  0
   -1.2348   -2.0169    1.2890 C   0  0  0  0  0  0  0  0  0  0  0  0
   -1.6435   -1.0504    0.3562 C   0  0  0  0  0  0  0  0  0  0  0  0
    2.4266   -1.6691    1.0107 H   0  0  0  0  0  0  0  0  0  0  0  0
    4.0910   -1.6260    1.5972 H   0  0  0  0  0  0  0  0  0  0  0  0
    3.0042   -0.3079    1.9944 H   0  0  0  0  0  0  0  0  0  0  0  0
    3.2876   -1.8624   -1.3764 H   0  0  0  0  0  0  0  0  0  0  0  0
    4.4892   -0.6716   -1.9259 H   0  0  0  0  0  0  0  0  0  0  0  0
    4.9317   -1.8674   -0.7180 H   0  0  0  0  0  0  0  0  0  0  0  0
    2.5187    1.3652    0.4365 H   0  0  0  0  0  0  0  0  0  0  0  0
    3.4177    1.4510   -1.0441 H   0  0  0  0  0  0  0  0  0  0  0  0
    1.1517    1.3531   -1.6680 H   0  0  0  0  0  0  0  0  0  0  0  0
    1.8614   -0.1431   -2.1651 H   0  0  0  0  0  0  0  0  0  0  0  0
    0.7672   -1.4266   -0.4754 H   0  0  0  0  0  0  0  0  0  0  0  0
    0.4455    2.4215    0.5760 H   0  0  0  0  0  0  0  0  0  0  0  0
   -0.4776    4.6781    0.2388 H   0  0  0  0  0  0  0  0  0  0  0  0
   -2.7186    4.9720   -0.7848 H   0  0  0  0  0  0  0  0  0  0  0  0
   -4.0486    2.9986   -1.4408 H   0  0  0  0  0  0  0  0  0  0  0  0
   -4.8834   -2.0807   -0.0377 H   0  0  0  0  0  0  0  0  0  0  0  0
   -4.1295   -3.7919    1.5706 H   0  0  0  0  0  0  0  0  0  0  0  0
   -0.2242   -2.0013    1.6885 H   0  0  0  0  0  0  0  0  0  0  0  0
  1  2  1  0
  2  3  1  0
  2  4  1  0
  4  5  1  0
  5  6  1  0
  6  7  2  3
  7  8  1  0
  8  9  2  0
  9 10  1  0
 10 11  2  0
 11 12  1  0
 12 13  2  0
 13 14  1  0
 14 15  1  0
 15 16  2  0
 16 17  1  0
 17 18  2  0
 18 19  1  0
 18 20  1  0
 20 21  2  0
 21  7  1  0
 13  8  1  0
 21 15  1  0
  1 22  1  0
  1 23  1  0
  1 24  1  0
  3 25  1  0
  3 26  1  0
  3 27  1  0
  4 28  1  0
  4 29  1  0
  5 30  1  0
  5 31  1  0
  6 32  1  0
  9 33  1  0
 10 34  1  0
 11 35  1  0
 12 36  1  0
 16 37  1  0
 17 38  1  0
 20 39  1  0
M  END
$$$$
