
     RDKit          3D

 56 61  0  0  0  0  0  0  0  0999 V2000
    8.3191   -0.7690   -0.6396 C   0  0  0  0  0  0  0  0  0  0  0  0
    6.8487   -0.5652   -0.4145 C   0  0  0  0  0  0  0  0  0  0  0  0
    6.0055   -1.6634   -0.2216 C   0  0  0  0  0  0  0  0  0  0  0  0
    4.6399   -1.4777    0.0157 C   0  0  0  0  0  0  0  0  0  0  0  0
    4.1024   -0.1864    0.0669 C   0  0  0  0  0  0  0  0  0  0  0  0
    2.5668    0.0133    0.3255 C   0  0  0  0  0  0  0  0  0  0  0  0
    1.6411   -0.9834    0.6135 C   0  0  0  0  0  0  0  0  0  0  0  0
    0.3894   -0.3968    0.8004 N   0  0  0  0  0  4  0  0  0  0  0  0
   -0.8874   -1.0918    1.0415 C   0  0  0  0  0  0  0  0  0  0  0  0
   -1.6678   -1.2256   -0.2845 C   0  0  0  0  0  0  0  0  0  0  0  0
   -1.0363   -1.5268   -1.2998 O   0  0  0  0  0  0  0  0  0  0  0  0
   -3.0138   -0.8211   -0.2353 N   0  0  0  0  0  0  0  0  0  0  0  0
   -3.6572   -0.1938   -1.3679 C   0  0  0  0  0  0  0  0  0  0  0  0
   -3.2675   -0.4883   -2.6868 C   0  0  0  0  0  0  0  0  0  0  0  0
   -3.8767    0.1235   -3.7880 C   0  0  0  0  0  0  0  0  0  0  0  0
   -4.8896    1.0529   -3.5982 C   0  0  0  0  0  0  0  0  0  0  0  0
   -5.2899    1.3716   -2.3053 C   0  0  0  0  0  0  0  0  0  0  0  0
   -4.6845    0.7567   -1.1975 C   0  0  0  0  0  0  0  0  0  0  0  0
   -5.1994    1.3104    0.4124 S   0  0  0  0  0  0  0  0  0  0  0  0
   -4.8476   -0.1657    1.3233 C   0  0  0  0  0  0  0  0  0  0  0  0
   -5.5961   -0.4183    2.4819 C   0  0  0  0  0  0  0  0  0  0  0  0
   -5.3622   -1.5609    3.2429 C   0  0  0  0  0  0  0  0  0  0  0  0
   -4.3851   -2.4640    2.8453 C   0  0  0  0  0  0  0  0  0  0  0  0
   -3.6288   -2.2127    1.6978 C   0  0  0  0  0  0  0  0  0  0  0  0
   -3.8264   -1.0449    0.9326 C   0  0  0  0  0  0  0  0  0  0  0  0
    0.5252    0.9056    0.5823 C   0  0  0  0  0  0  0  0  0  0  0  0
    1.8012    1.1670    0.3201 N   0  0  0  0  0  0  0  0  0  0  0  0
    2.0182    2.5763    0.0306 C   0  0  0  0  0  0  0  0  0  0  0  0
    0.5788    3.1383   -0.1410 C   0  0  0  0  0  0  0  0  0  0  0  0
   -0.3416    2.1046    0.5375 C   0  0  0  0  0  0  0  0  0  0  0  0
    4.9445    0.9129   -0.1033 C   0  0  0  0  0  0  0  0  0  0  0  0
    6.3108    0.7232   -0.3374 C   0  0  0  0  0  0  0  0  0  0  0  0
    8.7602    0.0880   -1.1590 H   0  0  0  0  0  0  0  0  0  0  0  0
    8.4971   -1.6530   -1.2616 H   0  0  0  0  0  0  0  0  0  0  0  0
    8.8300   -0.8994    0.3197 H   0  0  0  0  0  0  0  0  0  0  0  0
    6.4105   -2.6738   -0.2594 H   0  0  0  0  0  0  0  0  0  0  0  0
    4.0262   -2.3642    0.1469 H   0  0  0  0  0  0  0  0  0  0  0  0
    1.7153   -2.0531    0.7112 H   0  0  0  0  0  0  0  0  0  0  0  0
   -1.4238   -0.4983    1.7861 H   0  0  0  0  0  0  0  0  0  0  0  0
   -0.6796   -2.0870    1.4445 H   0  0  0  0  0  0  0  0  0  0  0  0
   -2.5138   -1.2382   -2.9108 H   0  0  0  0  0  0  0  0  0  0  0  0
   -3.5643   -0.1408   -4.7964 H   0  0  0  0  0  0  0  0  0  0  0  0
   -5.3676    1.5263   -4.4525 H   0  0  0  0  0  0  0  0  0  0  0  0
   -6.0801    2.1079   -2.1670 H   0  0  0  0  0  0  0  0  0  0  0  0
   -6.3794    0.2706    2.7944 H   0  0  0  0  0  0  0  0  0  0  0  0
   -5.9608   -1.7554    4.1307 H   0  0  0  0  0  0  0  0  0  0  0  0
   -4.2315   -3.3792    3.4150 H   0  0  0  0  0  0  0  0  0  0  0  0
   -2.9276   -2.9836    1.3852 H   0  0  0  0  0  0  0  0  0  0  0  0
    2.5223    3.0373    0.8845 H   0  0  0  0  0  0  0  0  0  0  0  0
    2.6009    2.7050   -0.8843 H   0  0  0  0  0  0  0  0  0  0  0  0
    0.3400    3.1826   -1.2098 H   0  0  0  0  0  0  0  0  0  0  0  0
    0.4652    4.1448    0.2699 H   0  0  0  0  0  0  0  0  0  0  0  0
   -1.2383    1.8783   -0.0394 H   0  0  0  0  0  0  0  0  0  0  0  0
   -0.5741    2.3626    1.5726 H   0  0  0  0  0  0  0  0  0  0  0  0
    4.5824    1.9310   -0.0413 H   0  0  0  0  0  0  0  0  0  0  0  0
    6.9573    1.5911   -0.4584 H   0  0  0  0  0  0  0  0  0  0  0  0
  1  2  1  0
  2  3  2  0
  3  4  1  0
  4  5  2  0
  5  6  1  0
  6  7  2  0
  7  8  1  0
  8  9  1  0
  9 10  1  0
 10 11  2  0
 10 12  1  0
 12 13  1  0
 13 14  2  0
 14 15  1  0
 15 16  2  0
 16 17  1  0
 17 18  2  0
 18 19  1  0
 19 20  1  0
 20 21  2  0
 21 22  1  0
 22 23  2  0
 23 24  1  0
 24 25  2  0
  8 26  2  0
 26 27  1  0
 27 28  1  0
 28 29  1  0
 29 30  1  0
  5 31  1  0
 31 32  2  0
 32  2  1  0
 27  6  1  0
 25 12  1  0
 30 26  1  0
 18 13  1  0
 25 20  1  0
  1 33  1  0
  1 34  1  0
  1 35  1  0
  3 36  1  0
  4 37  1  0
  7 38  1  0
  9 39  1  0
  9 40  1  0
 14 41  1  0
 15 42  1  0
 16 43  1  0
 17 44  1  0
 21 45  1  0
 22 46  1  0
 23 47  1  0
 24 48  1  0
 28 49  1  0
 28 50  1  0
 29 51  1  0
 29 52  1  0
 30 53  1  0
 30 54  1  0
 31 55  1  0
 32 56  1  0
M  CHG  1   8   1
M  END
$$$$
