
     RDKit          3D

 44 45  0  0  0  0  0  0  0  0999 V2000
    6.2048    0.7642    2.9002 C   0  0  0  0  0  0  0  0  0  0  0  0
    6.6397    0.3485    1.5075 C   0  0  0  0  0  0  0  0  0  0  0  0
    5.5198    0.3780    0.6102 O   0  0  0  0  0  0  0  0  0  0  0  0
    4.7715   -0.7525    0.5651 C   0  0  0  0  0  0  0  0  0  0  0  0
    4.9690   -1.7700    1.2096 O   0  0  0  0  0  0  0  0  0  0  0  0
    3.6436   -0.5943   -0.3946 C   0  0  0  0  0  0  0  0  0  0  0  0
    3.4632    0.5687   -1.1591 C   0  0  0  0  0  0  0  0  0  0  0  0
    2.3874    0.6692   -2.0463 C   0  0  0  0  0  0  0  0  0  0  0  0
    1.4853   -0.3930   -2.1618 C   0  0  0  0  0  0  0  0  0  0  0  0
    0.1375   -0.2644   -3.3015 S   0  0  0  0  0  6  0  0  0  0  0  0
    0.5968    0.4600   -4.4666 O   0  0  0  0  0  0  0  0  0  0  0  0
   -0.5285   -1.5459   -3.4225 O   0  0  0  0  0  0  0  0  0  0  0  0
   -0.9458    0.7813   -2.4802 N   0  0  0  0  0  0  0  0  0  0  0  0
   -2.0748    0.1165   -1.9260 N   0  0  0  0  0  0  0  0  0  0  0  0
   -1.7862   -0.3976   -0.2955 S   0  0  0  0  0  6  0  0  0  0  0  0
   -1.5626   -1.8261   -0.3463 O   0  0  0  0  0  0  0  0  0  0  0  0
   -0.8362    0.5005    0.3270 O   0  0  0  0  0  0  0  0  0  0  0  0
   -3.3784   -0.0981    0.4239 C   0  0  0  0  0  0  0  0  0  0  0  0
   -3.7172    1.2001    0.8135 C   0  0  0  0  0  0  0  0  0  0  0  0
   -4.9641    1.4401    1.3926 C   0  0  0  0  0  0  0  0  0  0  0  0
   -5.8651    0.3866    1.6005 C   0  0  0  0  0  0  0  0  0  0  0  0
   -7.2170    0.6531    2.1960 C   0  0  0  0  0  0  0  0  0  0  0  0
   -5.5112   -0.9101    1.2020 C   0  0  0  0  0  0  0  0  0  0  0  0
   -4.2657   -1.1581    0.6222 C   0  0  0  0  0  0  0  0  0  0  0  0
    1.6633   -1.5628   -1.4194 C   0  0  0  0  0  0  0  0  0  0  0  0
    2.7393   -1.6582   -0.5331 C   0  0  0  0  0  0  0  0  0  0  0  0
    7.0616    0.8027    3.5788 H   0  0  0  0  0  0  0  0  0  0  0  0
    5.4680    0.0644    3.3070 H   0  0  0  0  0  0  0  0  0  0  0  0
    5.7284    1.7498    2.8760 H   0  0  0  0  0  0  0  0  0  0  0  0
    7.1202   -0.6366    1.5140 H   0  0  0  0  0  0  0  0  0  0  0  0
    7.3756    1.0624    1.1234 H   0  0  0  0  0  0  0  0  0  0  0  0
    4.1536    1.4048   -1.0739 H   0  0  0  0  0  0  0  0  0  0  0  0
    2.2615    1.5738   -2.6372 H   0  0  0  0  0  0  0  0  0  0  0  0
   -1.1294    1.6251   -3.0325 H   0  0  0  0  0  0  0  0  0  0  0  0
   -2.3046   -0.7474   -2.4535 H   0  0  0  0  0  0  0  0  0  0  0  0
   -3.0200    2.0229    0.6708 H   0  0  0  0  0  0  0  0  0  0  0  0
   -5.2279    2.4538    1.6878 H   0  0  0  0  0  0  0  0  0  0  0  0
   -7.1764    1.4941    2.8962 H   0  0  0  0  0  0  0  0  0  0  0  0
   -7.9350    0.8860    1.4038 H   0  0  0  0  0  0  0  0  0  0  0  0
   -7.5760   -0.2174    2.7551 H   0  0  0  0  0  0  0  0  0  0  0  0
   -6.2041   -1.7367    1.3483 H   0  0  0  0  0  0  0  0  0  0  0  0
   -4.0013   -2.1730    0.3339 H   0  0  0  0  0  0  0  0  0  0  0  0
    0.9704   -2.3977   -1.5099 H   0  0  0  0  0  0  0  0  0  0  0  0
    2.8673   -2.5668    0.0537 H   0  0  0  0  0  0  0  0  0  0  0  0
  1  2  1  0
  2  3  1  0
  3  4  1  0
  4  5  2  0
  4  6  1  0
  6  7  2  0
  7  8  1  0
  8  9  2  0
  9 10  1  0
 10 11  2  0
 10 12  2  0
 10 13  1  0
 13 14  1  0
 14 15  1  0
 15 16  2  0
 15 17  2  0
 15 18  1  0
 18 19  2  0
 19 20  1  0
 20 21  2  0
 21 22  1  0
 21 23  1  0
 23 24  2  0
  9 25  1  0
 25 26  2  0
 26  6  1  0
 24 18  1  0
  1 27  1  0
  1 28  1  0
  1 29  1  0
  2 30  1  0
  2 31  1  0
  7 32  1  0
  8 33  1  0
 13 34  1  0
 14 35  1  0
 19 36  1  0
 20 37  1  0
 22 38  1  0
 22 39  1  0
 22 40  1  0
 23 41  1  0
 24 42  1  0
 25 43  1  0
 26 44  1  0
M  END
$$$$
