
     RDKit          3D

 44 44  0  0  0  0  0  0  0  0999 V2000
   -4.1123    0.4977    1.9379 C   0  0  0  0  0  0  0  0  0  0  0  0
   -4.2257    1.4357    0.7434 C   0  0  0  0  0  0  0  0  0  0  0  0
   -3.7618    0.7932   -0.4942 N   0  0  0  0  0  0  0  0  0  0  0  0
   -4.7881    0.4962   -1.5023 C   0  0  0  0  0  0  0  0  0  0  0  0
   -5.4279   -0.8609   -1.2519 C   0  0  0  0  0  0  0  0  0  0  0  0
   -2.4114    0.5608   -0.7460 C   0  0  0  0  0  0  0  0  0  0  0  0
   -1.9794   -0.2919   -1.7785 C   0  0  0  0  0  0  0  0  0  0  0  0
   -0.6225   -0.5215   -2.0485 C   0  0  0  0  0  0  0  0  0  0  0  0
    0.3560    0.0885   -1.2751 C   0  0  0  0  0  0  0  0  0  0  0  0
   -0.0323    0.9103   -0.2256 C   0  0  0  0  0  0  0  0  0  0  0  0
    0.8648    1.5654    0.5751 O   0  0  0  0  0  0  0  0  0  0  0  0
    1.8079    0.6979    1.1992 C   0  0  0  0  0  0  0  0  0  0  0  0
    3.1983    0.6776    0.5421 C   0  0  0  0  0  0  0  0  0  0  0  0
    3.4531    1.3387   -0.4668 O   0  0  0  0  0  0  0  0  0  0  0  0
    4.1726   -0.1381    1.1273 N   0  0  0  0  0  0  0  0  0  0  0  0
    3.8918   -1.1232    2.1635 C   0  0  0  0  0  0  0  0  0  0  0  0
    5.4738   -0.2296    0.4537 C   0  0  0  0  0  0  0  0  0  0  0  0
    5.4521   -1.1611   -0.7578 C   0  0  0  0  0  0  0  0  0  0  0  0
    6.7935   -1.2750   -1.3385 C   0  0  0  0  0  0  0  0  0  0  0  0
    7.8605   -1.3763   -1.7834 N   0  0  0  0  0  0  0  0  0  0  0  0
   -1.3904    1.1575    0.0156 C   0  0  0  0  0  0  0  0  0  0  0  0
   -4.5149    0.9801    2.8340 H   0  0  0  0  0  0  0  0  0  0  0  0
   -4.6744   -0.4263    1.7692 H   0  0  0  0  0  0  0  0  0  0  0  0
   -3.0745    0.2213    2.1451 H   0  0  0  0  0  0  0  0  0  0  0  0
   -5.2807    1.7219    0.6470 H   0  0  0  0  0  0  0  0  0  0  0  0
   -3.6938    2.3755    0.9288 H   0  0  0  0  0  0  0  0  0  0  0  0
   -5.5702    1.2654   -1.4737 H   0  0  0  0  0  0  0  0  0  0  0  0
   -4.3887    0.5502   -2.5214 H   0  0  0  0  0  0  0  0  0  0  0  0
   -5.9498   -0.8781   -0.2896 H   0  0  0  0  0  0  0  0  0  0  0  0
   -4.6845   -1.6643   -1.2426 H   0  0  0  0  0  0  0  0  0  0  0  0
   -6.1609   -1.0825   -2.0342 H   0  0  0  0  0  0  0  0  0  0  0  0
   -2.6963   -0.8130   -2.4061 H   0  0  0  0  0  0  0  0  0  0  0  0
   -0.3392   -1.1706   -2.8729 H   0  0  0  0  0  0  0  0  0  0  0  0
    1.4023   -0.0615   -1.5185 H   0  0  0  0  0  0  0  0  0  0  0  0
    1.9408    1.0822    2.2170 H   0  0  0  0  0  0  0  0  0  0  0  0
    1.4216   -0.3266    1.2788 H   0  0  0  0  0  0  0  0  0  0  0  0
    3.0586   -0.8169    2.7980 H   0  0  0  0  0  0  0  0  0  0  0  0
    4.7750   -1.2496    2.7965 H   0  0  0  0  0  0  0  0  0  0  0  0
    3.6433   -2.0734    1.6823 H   0  0  0  0  0  0  0  0  0  0  0  0
    5.7712    0.7788    0.1361 H   0  0  0  0  0  0  0  0  0  0  0  0
    6.2219   -0.5531    1.1881 H   0  0  0  0  0  0  0  0  0  0  0  0
    5.0968   -2.1541   -0.4586 H   0  0  0  0  0  0  0  0  0  0  0  0
    4.7497   -0.7925   -1.5135 H   0  0  0  0  0  0  0  0  0  0  0  0
   -1.6256    1.8450    0.8211 H   0  0  0  0  0  0  0  0  0  0  0  0
  1  2  1  0
  2  3  1  0
  3  4  1  0
  4  5  1  0
  3  6  1  0
  6  7  2  0
  7  8  1  0
  8  9  2  0
  9 10  1  0
 10 11  1  0
 11 12  1  0
 12 13  1  0
 13 14  2  0
 13 15  1  0
 15 16  1  0
 15 17  1  0
 17 18  1  0
 18 19  1  0
 19 20  3  0
 10 21  2  0
 21  6  1  0
  1 22  1  0
  1 23  1  0
  1 24  1  0
  2 25  1  0
  2 26  1  0
  4 27  1  0
  4 28  1  0
  5 29  1  0
  5 30  1  0
  5 31  1  0
  7 32  1  0
  8 33  1  0
  9 34  1  0
 12 35  1  0
 12 36  1  0
 16 37  1  0
 16 38  1  0
 16 39  1  0
 17 40  1  0
 17 41  1  0
 18 42  1  0
 18 43  1  0
 21 44  1  0
M  END
$$$$
