
     RDKit          3D

 44 46  0  0  0  0  0  0  0  0999 V2000
   -6.8509   -0.8025   -0.6282 C   0  0  0  0  0  0  0  0  0  0  0  0
   -5.4633   -0.2387   -0.5735 C   0  0  0  0  0  0  0  0  0  0  0  0
   -4.3786   -1.0573   -0.2450 C   0  0  0  0  0  0  0  0  0  0  0  0
   -3.0657   -0.5643   -0.2614 C   0  0  0  0  0  0  0  0  0  0  0  0
   -1.9431   -1.5013    0.0813 C   0  0  0  0  0  0  0  0  0  0  0  0
   -2.8569    0.7878   -0.5830 C   0  0  0  0  0  0  0  0  0  0  0  0
   -1.5824    1.2773   -0.7004 O   0  0  0  0  0  0  0  0  0  0  0  0
   -1.0354    1.6916    0.5554 C   0  0  0  0  0  0  0  0  0  0  0  0
    0.4821    1.4560    0.5533 C   0  0  0  0  0  0  0  0  0  0  0  0
    1.1880    1.8710    1.4644 O   0  0  0  0  0  0  0  0  0  0  0  0
    0.8832    0.7252   -0.5395 N   0  0  0  0  0  0  0  0  0  0  0  0
    2.0926    0.1153   -0.6559 C   0  0  0  0  0  0  0  0  0  0  0  0
    3.1145    0.1082    0.1580 N   0  0  0  0  0  0  0  0  0  0  0  0
    4.0855   -0.7527   -0.3395 C   0  0  0  0  0  0  0  0  0  0  0  0
    5.3538   -0.9852    0.3450 C   0  0  0  0  0  0  0  0  0  0  0  0
    5.8018   -0.1122    1.3338 C   0  0  0  0  0  0  0  0  0  0  0  0
    7.0468   -0.3450    1.9139 C   0  0  0  0  0  0  0  0  0  0  0  0
    7.7961   -1.4405    1.5090 C   0  0  0  0  0  0  0  0  0  0  0  0
    7.2675   -2.2647    0.5340 C   0  0  0  0  0  0  0  0  0  0  0  0
    6.0740   -2.0609   -0.0650 N   0  0  0  0  0  0  0  0  0  0  0  0
    3.7630   -1.3599   -1.5450 C   0  0  0  0  0  0  0  0  0  0  0  0
    2.2292   -0.8272   -2.0781 S   0  0  0  0  0  0  0  0  0  0  0  0
   -3.9280    1.6214   -0.9453 C   0  0  0  0  0  0  0  0  0  0  0  0
   -3.7194    3.0584   -1.3289 C   0  0  0  0  0  0  0  0  0  0  0  0
   -5.2286    1.0996   -0.9218 C   0  0  0  0  0  0  0  0  0  0  0  0
   -7.1227   -1.0319   -1.6611 H   0  0  0  0  0  0  0  0  0  0  0  0
   -7.5717   -0.0935   -0.2204 H   0  0  0  0  0  0  0  0  0  0  0  0
   -6.9257   -1.7162   -0.0380 H   0  0  0  0  0  0  0  0  0  0  0  0
   -4.5565   -2.1003   -0.0100 H   0  0  0  0  0  0  0  0  0  0  0  0
   -2.2063   -2.5313   -0.1788 H   0  0  0  0  0  0  0  0  0  0  0  0
   -1.7223   -1.4579    1.1524 H   0  0  0  0  0  0  0  0  0  0  0  0
   -1.0387   -1.2662   -0.4851 H   0  0  0  0  0  0  0  0  0  0  0  0
   -1.2246    2.7628    0.6842 H   0  0  0  0  0  0  0  0  0  0  0  0
   -1.4552    1.1362    1.4030 H   0  0  0  0  0  0  0  0  0  0  0  0
    0.1986    0.5441   -1.2644 H   0  0  0  0  0  0  0  0  0  0  0  0
    5.2052    0.7449    1.6281 H   0  0  0  0  0  0  0  0  0  0  0  0
    7.4377    0.3341    2.6637 H   0  0  0  0  0  0  0  0  0  0  0  0
    8.7696   -1.6452    1.9409 H   0  0  0  0  0  0  0  0  0  0  0  0
    7.8149   -3.1366    0.1874 H   0  0  0  0  0  0  0  0  0  0  0  0
    4.3495   -2.0598   -2.1218 H   0  0  0  0  0  0  0  0  0  0  0  0
   -3.6454    3.6721   -0.4280 H   0  0  0  0  0  0  0  0  0  0  0  0
   -2.8110    3.1872   -1.9264 H   0  0  0  0  0  0  0  0  0  0  0  0
   -4.5524    3.4259   -1.9358 H   0  0  0  0  0  0  0  0  0  0  0  0
   -6.0688    1.7323   -1.2161 H   0  0  0  0  0  0  0  0  0  0  0  0
  1  2  1  0
  2  3  2  0
  3  4  1  0
  4  5  1  0
  4  6  2  0
  6  7  1  0
  7  8  1  0
  8  9  1  0
  9 10  2  0
  9 11  1  0
 11 12  1  0
 12 13  2  0
 13 14  1  0
 14 15  1  0
 15 16  2  0
 16 17  1  0
 17 18  2  0
 18 19  1  0
 19 20  2  0
 14 21  2  0
 21 22  1  0
  6 23  1  0
 23 24  1  0
 23 25  2  0
 25  2  1  0
 22 12  1  0
 20 15  1  0
  1 26  1  0
  1 27  1  0
  1 28  1  0
  3 29  1  0
  5 30  1  0
  5 31  1  0
  5 32  1  0
  8 33  1  0
  8 34  1  0
 11 35  1  0
 16 36  1  0
 17 37  1  0
 18 38  1  0
 19 39  1  0
 21 40  1  0
 24 41  1  0
 24 42  1  0
 24 43  1  0
 25 44  1  0
M  END
$$$$
