
     RDKit          3D

 48 51  0  0  0  0  0  0  0  0999 V2000
    7.6812    1.0618   -1.6960 C   0  0  0  0  0  0  0  0  0  0  0  0
    6.3133    0.8351   -1.1986 C   0  0  0  0  0  0  0  0  0  0  0  0
    5.7821    0.1761   -0.1194 C   0  0  0  0  0  0  0  0  0  0  0  0
    4.3817    0.3582   -0.2430 C   0  0  0  0  0  0  0  0  0  0  0  0
    3.3373   -0.1459    0.6500 C   0  0  0  0  0  0  0  0  0  0  0  0
    3.5857   -0.8412    1.6304 O   0  0  0  0  0  0  0  0  0  0  0  0
    2.0605    0.2200    0.2868 N   0  0  0  0  0  0  0  0  0  0  0  0
    0.8929   -0.3036    0.9550 C   0  0  0  0  0  0  0  0  0  0  0  0
    0.5680   -1.7308    0.4527 C   0  0  0  0  0  0  0  0  0  0  0  0
   -0.8887   -2.1889    0.7580 C   0  0  0  0  0  0  0  0  0  0  0  0
   -1.1226   -2.2744    2.2802 C   0  0  0  0  0  0  0  0  0  0  0  0
   -1.1005   -3.5953    0.1662 C   0  0  0  0  0  0  0  0  0  0  0  0
   -1.9147   -1.2105    0.1027 C   0  0  0  0  0  0  0  0  0  0  0  0
   -1.5127    0.2139    0.3024 C   0  0  0  0  0  0  0  0  0  0  0  0
   -0.2493    0.6177    0.6989 C   0  0  0  0  0  0  0  0  0  0  0  0
   -0.3606    1.9996    0.8831 C   0  0  0  0  0  0  0  0  0  0  0  0
   -1.5798    2.4507    0.6017 N   0  0  0  0  0  0  0  0  0  0  0  0
   -2.2874    1.3613    0.1811 N   0  0  0  0  0  0  0  0  0  0  0  0
   -3.6259    1.5509   -0.2880 C   0  0  0  0  0  0  0  0  0  0  0  0
   -4.2416    2.8028   -0.0831 C   0  0  0  0  0  0  0  0  0  0  0  0
   -5.5468    3.0399   -0.5221 C   0  0  0  0  0  0  0  0  0  0  0  0
   -6.2395    2.0326   -1.1759 C   0  0  0  0  0  0  0  0  0  0  0  0
   -7.4898    2.2553   -1.6006 F   0  0  0  0  0  0  0  0  0  0  0  0
   -5.6480    0.7971   -1.4046 C   0  0  0  0  0  0  0  0  0  0  0  0
   -4.3406    0.5545   -0.9657 C   0  0  0  0  0  0  0  0  0  0  0  0
    4.0906    1.0831   -1.3389 N   0  0  0  0  0  0  0  0  0  0  0  0
    5.3057    1.3796   -1.9302 O   0  0  0  0  0  0  0  0  0  0  0  0
    8.4135    0.5139   -1.0951 H   0  0  0  0  0  0  0  0  0  0  0  0
    7.7742    0.7264   -2.7336 H   0  0  0  0  0  0  0  0  0  0  0  0
    7.9324    2.1261   -1.6530 H   0  0  0  0  0  0  0  0  0  0  0  0
    6.3107   -0.3608    0.6547 H   0  0  0  0  0  0  0  0  0  0  0  0
    1.9612    0.6985   -0.6038 H   0  0  0  0  0  0  0  0  0  0  0  0
    1.0924   -0.3372    2.0332 H   0  0  0  0  0  0  0  0  0  0  0  0
    1.2891   -2.4386    0.8825 H   0  0  0  0  0  0  0  0  0  0  0  0
    0.7231   -1.7729   -0.6358 H   0  0  0  0  0  0  0  0  0  0  0  0
   -0.3916   -2.9413    2.7514 H   0  0  0  0  0  0  0  0  0  0  0  0
   -2.1211   -2.6690    2.5013 H   0  0  0  0  0  0  0  0  0  0  0  0
   -1.0447   -1.2992    2.7701 H   0  0  0  0  0  0  0  0  0  0  0  0
   -0.4124   -4.3207    0.6145 H   0  0  0  0  0  0  0  0  0  0  0  0
   -0.9297   -3.6011   -0.9160 H   0  0  0  0  0  0  0  0  0  0  0  0
   -2.1225   -3.9487    0.3437 H   0  0  0  0  0  0  0  0  0  0  0  0
   -2.9086   -1.3998    0.5231 H   0  0  0  0  0  0  0  0  0  0  0  0
   -1.9525   -1.4046   -0.9765 H   0  0  0  0  0  0  0  0  0  0  0  0
    0.3920    2.6989    1.2258 H   0  0  0  0  0  0  0  0  0  0  0  0
   -3.7161    3.6073    0.4300 H   0  0  0  0  0  0  0  0  0  0  0  0
   -6.0197    4.0025   -0.3566 H   0  0  0  0  0  0  0  0  0  0  0  0
   -6.2048    0.0299   -1.9342 H   0  0  0  0  0  0  0  0  0  0  0  0
   -3.9151   -0.4094   -1.2089 H   0  0  0  0  0  0  0  0  0  0  0  0
  1  2  1  0
  2  3  2  0
  3  4  1  0
  4  5  1  0
  5  6  2  0
  5  7  1  0
  7  8  1  0
  8  9  1  0
  9 10  1  0
 10 11  1  0
 10 12  1  0
 10 13  1  0
 13 14  1  0
 14 15  2  0
 15 16  1  0
 16 17  2  0
 17 18  1  0
 18 19  1  0
 19 20  2  0
 20 21  1  0
 21 22  2  0
 22 23  1  0
 22 24  1  0
 24 25  2  0
  4 26  2  0
 26 27  1  0
 27  2  1  0
 15  8  1  0
 25 19  1  0
 18 14  1  0
  1 28  1  0
  1 29  1  0
  1 30  1  0
  3 31  1  0
  7 32  1  0
  8 33  1  0
  9 34  1  0
  9 35  1  0
 11 36  1  0
 11 37  1  0
 11 38  1  0
 12 39  1  0
 12 40  1  0
 12 41  1  0
 13 42  1  0
 13 43  1  0
 16 44  1  0
 20 45  1  0
 21 46  1  0
 24 47  1  0
 25 48  1  0
M  END
$$$$
