
     RDKit          3D

 31 32  0  0  0  0  0  0  0  0999 V2000
    3.8751   -1.5527   -1.6063 O   0  0  0  0  0  0  0  0  0  0  0  0
    4.3933   -0.6420   -0.9610 C   0  0  0  0  0  0  0  0  0  0  0  0
    3.7268    0.2170   -0.0939 N   0  0  0  0  0  0  0  0  0  0  0  0
    2.3556    0.2321    0.2271 C   0  0  0  0  0  0  0  0  0  0  0  0
    1.4175   -0.6549   -0.2952 C   0  0  0  0  0  0  0  0  0  0  0  0
    0.0685   -0.5661    0.0786 C   0  0  0  0  0  0  0  0  0  0  0  0
   -0.3733    0.3997    0.9861 C   0  0  0  0  0  0  0  0  0  0  0  0
   -1.7198    0.5488    1.3557 N   0  0  0  0  0  0  0  0  0  0  0  0
   -2.9184    0.1991    0.7091 C   0  0  0  0  0  0  0  0  0  0  0  0
   -4.0528   -0.0779    1.4864 C   0  0  0  0  0  0  0  0  0  0  0  0
   -5.2579   -0.4657    0.8936 C   0  0  0  0  0  0  0  0  0  0  0  0
   -5.3451   -0.5870   -0.4902 C   0  0  0  0  0  0  0  0  0  0  0  0
   -4.2284   -0.3210   -1.2775 C   0  0  0  0  0  0  0  0  0  0  0  0
   -3.0245    0.0648   -0.6798 C   0  0  0  0  0  0  0  0  0  0  0  0
    0.5752    1.2897    1.5026 C   0  0  0  0  0  0  0  0  0  0  0  0
    1.9229    1.2071    1.1312 C   0  0  0  0  0  0  0  0  0  0  0  0
    5.8949   -0.3756   -1.0745 C   0  0  0  0  0  0  0  0  0  0  0  0
    6.6544   -0.5709    0.5214 Cl  0  0  0  0  0  0  0  0  0  0  0  0
    6.1603    1.2739   -1.6835 Cl  0  0  0  0  0  0  0  0  0  0  0  0
    4.2985    0.9214    0.3617 H   0  0  0  0  0  0  0  0  0  0  0  0
    1.6923   -1.4369   -0.9955 H   0  0  0  0  0  0  0  0  0  0  0  0
   -0.6273   -1.2938   -0.3312 H   0  0  0  0  0  0  0  0  0  0  0  0
   -1.8545    0.9715    2.2667 H   0  0  0  0  0  0  0  0  0  0  0  0
   -4.0034   -0.0058    2.5698 H   0  0  0  0  0  0  0  0  0  0  0  0
   -6.1245   -0.6775    1.5142 H   0  0  0  0  0  0  0  0  0  0  0  0
   -6.2803   -0.8884   -0.9543 H   0  0  0  0  0  0  0  0  0  0  0  0
   -4.2905   -0.4091   -2.3590 H   0  0  0  0  0  0  0  0  0  0  0  0
   -2.1766    0.2916   -1.3202 H   0  0  0  0  0  0  0  0  0  0  0  0
    0.2700    2.0709    2.1945 H   0  0  0  0  0  0  0  0  0  0  0  0
    2.6206    1.9225    1.5584 H   0  0  0  0  0  0  0  0  0  0  0  0
    6.3514   -1.0850   -1.7703 H   0  0  0  0  0  0  0  0  0  0  0  0
  1  2  2  0
  2  3  1  0
  3  4  1  0
  4  5  2  0
  5  6  1  0
  6  7  2  0
  7  8  1  0
  8  9  1  0
  9 10  2  0
 10 11  1  0
 11 12  2  0
 12 13  1  0
 13 14  2  0
  7 15  1  0
 15 16  2  0
  2 17  1  0
 17 18  1  0
 17 19  1  0
 16  4  1  0
 14  9  1  0
  3 20  1  0
  5 21  1  0
  6 22  1  0
  8 23  1  0
 10 24  1  0
 11 25  1  0
 12 26  1  0
 13 27  1  0
 14 28  1  0
 15 29  1  0
 16 30  1  0
 17 31  1  0
M  END
$$$$
