
     RDKit          3D

 56 60  0  0  0  0  0  0  0  0999 V2000
   -4.0195    1.4813   -1.4276 C   0  0  0  0  0  0  0  0  0  0  0  0
   -3.4136    0.1057   -1.5117 C   0  0  0  0  0  0  0  0  0  0  0  0
   -3.7208   -0.6936   -2.6228 C   0  0  0  0  0  0  0  0  0  0  0  0
   -3.1939   -1.9766   -2.7427 C   0  0  0  0  0  0  0  0  0  0  0  0
   -2.3545   -2.4809   -1.7524 C   0  0  0  0  0  0  0  0  0  0  0  0
   -2.0218   -1.7095   -0.6273 C   0  0  0  0  0  0  0  0  0  0  0  0
   -1.0839   -2.3130    0.3821 C   0  0  0  0  0  0  0  0  0  0  0  0
   -2.5300   -0.3956   -0.5256 C   0  0  0  0  0  0  0  0  0  0  0  0
   -2.1739    0.4282    0.5840 N   0  0  0  0  0  0  0  0  0  0  0  0
   -1.2131    1.4297    0.4884 C   0  0  0  0  0  0  0  0  0  0  0  0
   -0.2787    1.5791   -0.9961 S   0  0  0  0  0  0  0  0  0  0  0  0
    1.3978    1.5782   -0.2998 C   0  0  0  0  0  0  0  0  0  0  0  0
    1.7393    0.2434    0.3567 C   0  0  0  0  0  0  0  0  0  0  0  0
    1.1088   -0.1333    1.3521 O   0  0  0  0  0  0  0  0  0  0  0  0
    2.8481   -0.4729   -0.0893 N   0  0  0  0  0  0  0  0  0  0  0  0
    3.4581   -1.3837    0.8854 C   0  0  0  0  0  0  0  0  0  0  0  0
    4.9571   -1.5931    0.7274 C   0  0  0  0  0  0  0  0  0  0  0  0
    5.6660   -2.0416    1.6272 O   0  0  0  0  0  0  0  0  0  0  0  0
    5.4737   -1.3881   -0.5211 N   0  0  0  0  0  0  0  0  0  0  0  0
    4.7001   -0.9613   -1.6043 C   0  0  0  0  0  0  0  0  0  0  0  0
    5.2836   -0.9726   -2.8749 C   0  0  0  0  0  0  0  0  0  0  0  0
    4.5313   -0.6023   -3.9859 C   0  0  0  0  0  0  0  0  0  0  0  0
    3.1981   -0.2377   -3.8253 C   0  0  0  0  0  0  0  0  0  0  0  0
    2.6225   -0.2095   -2.5502 C   0  0  0  0  0  0  0  0  0  0  0  0
    3.3739   -0.5282   -1.4148 C   0  0  0  0  0  0  0  0  0  0  0  0
   -0.9493    2.2850    1.4235 N   0  0  0  0  0  0  0  0  0  0  0  0
   -1.6360    2.1686    2.6354 C   0  0  0  0  0  0  0  0  0  0  0  0
   -1.3398    3.0674    3.6634 C   0  0  0  0  0  0  0  0  0  0  0  0
   -1.9942    2.9830    4.8954 C   0  0  0  0  0  0  0  0  0  0  0  0
   -2.9535    1.9945    5.1099 C   0  0  0  0  0  0  0  0  0  0  0  0
   -3.2582    1.0925    4.0915 C   0  0  0  0  0  0  0  0  0  0  0  0
   -2.5958    1.1852    2.8605 C   0  0  0  0  0  0  0  0  0  0  0  0
   -2.9088    0.2571    1.7582 C   0  0  0  0  0  0  0  0  0  0  0  0
   -3.7955   -0.5788    1.9286 O   0  0  0  0  0  0  0  0  0  0  0  0
   -3.3135    2.2314   -1.7953 H   0  0  0  0  0  0  0  0  0  0  0  0
   -4.9311    1.5460   -2.0324 H   0  0  0  0  0  0  0  0  0  0  0  0
   -4.3098    1.7275   -0.4016 H   0  0  0  0  0  0  0  0  0  0  0  0
   -4.3839   -0.3213   -3.4009 H   0  0  0  0  0  0  0  0  0  0  0  0
   -3.4447   -2.5887   -3.6052 H   0  0  0  0  0  0  0  0  0  0  0  0
   -1.9584   -3.4889   -1.8594 H   0  0  0  0  0  0  0  0  0  0  0  0
   -0.0544   -2.2358    0.0213 H   0  0  0  0  0  0  0  0  0  0  0  0
   -1.3205   -3.3720    0.5345 H   0  0  0  0  0  0  0  0  0  0  0  0
   -1.1518   -1.8360    1.3625 H   0  0  0  0  0  0  0  0  0  0  0  0
    1.4909    2.3564    0.4660 H   0  0  0  0  0  0  0  0  0  0  0  0
    2.1151    1.8558   -1.0737 H   0  0  0  0  0  0  0  0  0  0  0  0
    2.9566   -2.3545    0.7971 H   0  0  0  0  0  0  0  0  0  0  0  0
    3.2943   -0.9974    1.8982 H   0  0  0  0  0  0  0  0  0  0  0  0
    6.4467   -1.6356   -0.6446 H   0  0  0  0  0  0  0  0  0  0  0  0
    6.3155   -1.2842   -3.0135 H   0  0  0  0  0  0  0  0  0  0  0  0
    4.9761   -0.6203   -4.9781 H   0  0  0  0  0  0  0  0  0  0  0  0
    2.5959    0.0170   -4.6950 H   0  0  0  0  0  0  0  0  0  0  0  0
    1.5655    0.0216   -2.4897 H   0  0  0  0  0  0  0  0  0  0  0  0
   -0.5897    3.8374    3.5012 H   0  0  0  0  0  0  0  0  0  0  0  0
   -1.7520    3.6881    5.6869 H   0  0  0  0  0  0  0  0  0  0  0  0
   -3.4630    1.9262    6.0680 H   0  0  0  0  0  0  0  0  0  0  0  0
   -4.0075    0.3211    4.2555 H   0  0  0  0  0  0  0  0  0  0  0  0
  1  2  1  0
  2  3  2  0
  3  4  1  0
  4  5  2  0
  5  6  1  0
  6  7  1  0
  6  8  2  0
  8  9  1  0
  9 10  1  0
 10 11  1  0
 11 12  1  0
 12 13  1  0
 13 14  2  0
 13 15  1  0
 15 16  1  0
 16 17  1  0
 17 18  2  0
 17 19  1  0
 19 20  1  0
 20 21  2  0
 21 22  1  0
 22 23  2  0
 23 24  1  0
 24 25  2  0
 10 26  2  0
 26 27  1  0
 27 28  2  0
 28 29  1  0
 29 30  2  0
 30 31  1  0
 31 32  2  0
 32 33  1  0
 33 34  2  0
  8  2  1  0
 33  9  1  0
 25 15  1  0
 32 27  1  0
 25 20  1  0
  1 35  1  0
  1 36  1  0
  1 37  1  0
  3 38  1  0
  4 39  1  0
  5 40  1  0
  7 41  1  0
  7 42  1  0
  7 43  1  0
 12 44  1  0
 12 45  1  0
 16 46  1  0
 16 47  1  0
 19 48  1  0
 21 49  1  0
 22 50  1  0
 23 51  1  0
 24 52  1  0
 28 53  1  0
 29 54  1  0
 30 55  1  0
 31 56  1  0
M  END
$$$$
