
     RDKit          3D

 58 62  0  0  0  0  0  0  0  0999 V2000
    6.8837    3.9415    1.5378 C   0  0  0  0  0  0  0  0  0  0  0  0
    6.6676    2.5363    1.5416 O   0  0  0  0  0  0  0  0  0  0  0  0
    5.3827    2.1091    1.3492 C   0  0  0  0  0  0  0  0  0  0  0  0
    5.2104    0.7258    1.4228 C   0  0  0  0  0  0  0  0  0  0  0  0
    3.9496    0.1533    1.2439 C   0  0  0  0  0  0  0  0  0  0  0  0
    2.8374    0.9629    0.9891 C   0  0  0  0  0  0  0  0  0  0  0  0
    1.4790    0.3456    0.7724 C   0  0  0  0  0  0  0  0  0  0  0  0
    1.3033   -0.1494   -0.6673 C   0  0  0  0  0  0  0  0  0  0  0  0
   -0.0578   -0.6838   -0.8677 N   0  0  0  0  0  0  0  0  0  0  0  0
   -1.1233    0.1595   -1.2285 C   0  0  0  0  0  0  0  0  0  0  0  0
   -1.0155    1.4536   -1.3594 N   0  0  0  0  0  0  0  0  0  0  0  0
   -2.4921   -0.4276   -1.4778 C   0  0  0  0  0  0  0  0  0  0  0  0
   -3.7107    0.3209   -1.9217 C   0  0  0  0  0  0  0  0  0  0  0  0
   -4.7981   -0.2345   -2.0596 O   0  0  0  0  0  0  0  0  0  0  0  0
   -3.5262    1.6561   -2.1475 N   0  0  0  0  0  0  0  0  0  0  0  0
   -4.6141    2.5667   -2.3978 C   0  0  0  0  0  0  0  0  0  0  0  0
   -5.0746    3.1301   -1.1059 C   0  0  0  0  0  0  0  0  0  0  0  0
   -5.8897    2.6459   -0.1031 C   0  0  0  0  0  0  0  0  0  0  0  0
   -5.9512    3.6564    0.8857 C   0  0  0  0  0  0  0  0  0  0  0  0
   -5.1703    4.6903    0.4254 C   0  0  0  0  0  0  0  0  0  0  0  0
   -4.6323    4.3805   -0.7825 O   0  0  0  0  0  0  0  0  0  0  0  0
   -2.6113   -1.7488   -1.2615 C   0  0  0  0  0  0  0  0  0  0  0  0
   -1.5092   -2.5797   -0.8080 C   0  0  0  0  0  0  0  0  0  0  0  0
   -1.7433   -4.0290   -0.5448 C   0  0  0  0  0  0  0  0  0  0  0  0
   -2.8643   -4.5136   -0.7135 O   0  0  0  0  0  0  0  0  0  0  0  0
   -0.6462   -4.7522   -0.1112 N   0  0  0  0  0  0  0  0  0  0  0  0
   -0.7836   -6.1106    0.1573 C   0  0  0  0  0  0  0  0  0  0  0  0
    0.2467   -6.8527    0.5811 C   0  0  0  0  0  0  0  0  0  0  0  0
    1.5370   -6.2448    0.7691 C   0  0  0  0  0  0  0  0  0  0  0  0
    1.7134   -4.9411    0.5236 C   0  0  0  0  0  0  0  0  0  0  0  0
    0.5674   -4.1125    0.0513 C   0  0  0  0  0  0  0  0  0  0  0  0
    0.7681   -2.8545   -0.1774 N   0  0  0  0  0  0  0  0  0  0  0  0
   -0.2727   -2.0666   -0.6167 C   0  0  0  0  0  0  0  0  0  0  0  0
    3.0121    2.3495    0.9113 C   0  0  0  0  0  0  0  0  0  0  0  0
    4.2775    2.9198    1.0916 C   0  0  0  0  0  0  0  0  0  0  0  0
    6.3115    4.4306    2.3317 H   0  0  0  0  0  0  0  0  0  0  0  0
    7.9451    4.1174    1.7358 H   0  0  0  0  0  0  0  0  0  0  0  0
    6.6501    4.3724    0.5587 H   0  0  0  0  0  0  0  0  0  0  0  0
    6.0679    0.0880    1.6226 H   0  0  0  0  0  0  0  0  0  0  0  0
    3.8441   -0.9273    1.3063 H   0  0  0  0  0  0  0  0  0  0  0  0
    0.7005    1.0767    1.0241 H   0  0  0  0  0  0  0  0  0  0  0  0
    1.3416   -0.4809    1.4814 H   0  0  0  0  0  0  0  0  0  0  0  0
    1.5128    0.6516   -1.3871 H   0  0  0  0  0  0  0  0  0  0  0  0
    2.0609   -0.9086   -0.9022 H   0  0  0  0  0  0  0  0  0  0  0  0
   -0.0697    1.7741   -1.1577 H   0  0  0  0  0  0  0  0  0  0  0  0
   -2.6157    2.0440   -1.8894 H   0  0  0  0  0  0  0  0  0  0  0  0
   -4.2393    3.3540   -3.0590 H   0  0  0  0  0  0  0  0  0  0  0  0
   -5.4330    2.0494   -2.9081 H   0  0  0  0  0  0  0  0  0  0  0  0
   -6.3710    1.6776   -0.0989 H   0  0  0  0  0  0  0  0  0  0  0  0
   -6.4957    3.6335    1.8188 H   0  0  0  0  0  0  0  0  0  0  0  0
   -4.9074    5.6622    0.8178 H   0  0  0  0  0  0  0  0  0  0  0  0
   -3.5682   -2.2456   -1.4157 H   0  0  0  0  0  0  0  0  0  0  0  0
   -1.7683   -6.5484    0.0086 H   0  0  0  0  0  0  0  0  0  0  0  0
    0.1296   -7.9120    0.7882 H   0  0  0  0  0  0  0  0  0  0  0  0
    2.3576   -6.8661    1.1136 H   0  0  0  0  0  0  0  0  0  0  0  0
    2.6682   -4.4466    0.6525 H   0  0  0  0  0  0  0  0  0  0  0  0
    2.1648    3.0028    0.7134 H   0  0  0  0  0  0  0  0  0  0  0  0
    4.3640    3.9992    1.0225 H   0  0  0  0  0  0  0  0  0  0  0  0
  1  2  1  0
  2  3  1  0
  3  4  2  0
  4  5  1  0
  5  6  2  0
  6  7  1  0
  7  8  1  0
  8  9  1  0
  9 10  1  0
 10 11  2  3
 10 12  1  0
 12 13  1  0
 13 14  2  0
 13 15  1  0
 15 16  1  0
 16 17  1  0
 17 18  2  0
 18 19  1  0
 19 20  2  0
 20 21  1  0
 12 22  2  0
 22 23  1  0
 23 24  1  0
 24 25  2  0
 24 26  1  0
 26 27  1  0
 27 28  2  0
 28 29  1  0
 29 30  2  0
 30 31  1  0
 31 32  2  0
 32 33  1  0
  6 34  1  0
 34 35  2  0
 35  3  1  0
 33  9  1  0
 21 17  1  0
 33 23  2  0
 31 26  1  0
  1 36  1  0
  1 37  1  0
  1 38  1  0
  4 39  1  0
  5 40  1  0
  7 41  1  0
  7 42  1  0
  8 43  1  0
  8 44  1  0
 11 45  1  0
 15 46  1  0
 16 47  1  0
 16 48  1  0
 18 49  1  0
 19 50  1  0
 20 51  1  0
 22 52  1  0
 27 53  1  0
 28 54  1  0
 29 55  1  0
 30 56  1  0
 34 57  1  0
 35 58  1  0
M  END
$$$$
