
     RDKit          3D

 45 47  0  0  0  0  0  0  0  0999 V2000
    7.6801   -0.7866   -1.1356 C   0  0  0  0  0  0  0  0  0  0  0  0
    7.0990   -1.2793    0.1822 C   0  0  0  0  0  0  0  0  0  0  0  0
    5.8376   -0.5255    0.6110 C   0  0  0  0  0  0  0  0  0  0  0  0
    4.6314   -0.8102   -0.2887 C   0  0  0  0  0  0  0  0  0  0  0  0
    3.4004   -0.1326    0.2217 C   0  0  0  0  0  0  0  0  0  0  0  0
    2.8639   -0.3391    1.4067 N   0  0  0  0  0  0  0  0  0  0  0  0
    1.7159    0.4053    1.5904 N   0  0  0  0  0  0  0  0  0  0  0  0
    1.4298    1.1436    0.5407 C   0  0  0  0  0  0  0  0  0  0  0  0
    0.3230    1.9497    0.4969 N   0  0  0  0  0  0  0  0  0  0  0  0
   -0.1139    2.7140   -0.5608 C   0  0  0  0  0  0  0  0  0  0  0  0
    0.4376    2.8633   -1.6471 O   0  0  0  0  0  0  0  0  0  0  0  0
   -1.4225    3.4517   -0.2479 C   0  0  0  0  0  0  0  0  0  0  0  0
   -2.1949    2.8838    0.8021 O   0  0  0  0  0  0  0  0  0  0  0  0
   -2.9664    1.7911    0.5224 C   0  0  0  0  0  0  0  0  0  0  0  0
   -3.7410    1.3420    1.5959 C   0  0  0  0  0  0  0  0  0  0  0  0
   -4.5657    0.2168    1.4711 C   0  0  0  0  0  0  0  0  0  0  0  0
   -4.6291   -0.4873    0.2652 C   0  0  0  0  0  0  0  0  0  0  0  0
   -5.4625   -1.6786    0.0603 C   0  0  0  0  0  0  0  0  0  0  0  0
   -6.3180   -2.2006    1.1774 C   0  0  0  0  0  0  0  0  0  0  0  0
   -5.4321   -2.2795   -1.1385 C   0  0  0  0  0  0  0  0  0  0  0  0
   -4.6108   -1.8048   -2.2623 C   0  0  0  0  0  0  0  0  0  0  0  0
   -4.6180   -2.3984   -3.3348 O   0  0  0  0  0  0  0  0  0  0  0  0
   -3.8463   -0.6713   -2.0439 O   0  0  0  0  0  0  0  0  0  0  0  0
   -3.8478   -0.0209   -0.7937 C   0  0  0  0  0  0  0  0  0  0  0  0
   -3.0207    1.1033   -0.6850 C   0  0  0  0  0  0  0  0  0  0  0  0
    2.5496    1.0137   -0.7365 S   0  0  0  0  0  0  0  0  0  0  0  0
    8.6065   -1.3238   -1.3607 H   0  0  0  0  0  0  0  0  0  0  0  0
    7.9113    0.2822   -1.0928 H   0  0  0  0  0  0  0  0  0  0  0  0
    6.9920   -0.9566   -1.9689 H   0  0  0  0  0  0  0  0  0  0  0  0
    7.8587   -1.1578    0.9637 H   0  0  0  0  0  0  0  0  0  0  0  0
    6.8871   -2.3533    0.1108 H   0  0  0  0  0  0  0  0  0  0  0  0
    6.0401    0.5543    0.6390 H   0  0  0  0  0  0  0  0  0  0  0  0
    5.5992   -0.8241    1.6421 H   0  0  0  0  0  0  0  0  0  0  0  0
    4.8454   -0.4917   -1.3152 H   0  0  0  0  0  0  0  0  0  0  0  0
    4.4414   -1.8904   -0.3215 H   0  0  0  0  0  0  0  0  0  0  0  0
   -0.2596    1.8968    1.3253 H   0  0  0  0  0  0  0  0  0  0  0  0
   -2.0170    3.5744   -1.1606 H   0  0  0  0  0  0  0  0  0  0  0  0
   -1.1379    4.4583    0.0788 H   0  0  0  0  0  0  0  0  0  0  0  0
   -3.7047    1.8695    2.5464 H   0  0  0  0  0  0  0  0  0  0  0  0
   -5.1458   -0.0931    2.3361 H   0  0  0  0  0  0  0  0  0  0  0  0
   -5.7028   -2.4845    2.0391 H   0  0  0  0  0  0  0  0  0  0  0  0
   -7.0472   -1.4461    1.4945 H   0  0  0  0  0  0  0  0  0  0  0  0
   -6.8846   -3.0927    0.8815 H   0  0  0  0  0  0  0  0  0  0  0  0
   -6.0203   -3.1651   -1.3518 H   0  0  0  0  0  0  0  0  0  0  0  0
   -2.4404    1.3944   -1.5550 H   0  0  0  0  0  0  0  0  0  0  0  0
  1  2  1  0
  2  3  1  0
  3  4  1  0
  4  5  1  0
  5  6  2  0
  6  7  1  0
  7  8  2  0
  8  9  1  0
  9 10  1  0
 10 11  2  0
 10 12  1  0
 12 13  1  0
 13 14  1  0
 14 15  2  0
 15 16  1  0
 16 17  2  0
 17 18  1  0
 18 19  1  0
 18 20  2  0
 20 21  1  0
 21 22  2  0
 21 23  1  0
 23 24  1  0
 24 25  2  0
  8 26  1  0
 26  5  1  0
 25 14  1  0
 24 17  1  0
  1 27  1  0
  1 28  1  0
  1 29  1  0
  2 30  1  0
  2 31  1  0
  3 32  1  0
  3 33  1  0
  4 34  1  0
  4 35  1  0
  9 36  1  0
 12 37  1  0
 12 38  1  0
 15 39  1  0
 16 40  1  0
 19 41  1  0
 19 42  1  0
 19 43  1  0
 20 44  1  0
 25 45  1  0
M  END
$$$$
