
     RDKit          3D

 92 94  0  0  0  0  0  0  0  0999 V2000
   -1.1837   -4.5821    1.7426 C   0  0  0  0  0  0  0  0  0  0  0  0
   -0.8510   -3.1337    1.5552 C   0  0  0  0  0  0  0  0  0  0  0  0
    0.1481   -2.5968    2.0073 O   0  0  0  0  0  0  0  0  0  0  0  0
   -1.8246   -2.5295    0.8287 O   0  0  0  0  0  0  0  0  0  0  0  0
   -1.6738   -1.1016    0.5400 C   0  0  1  0  0  0  0  0  0  0  0  0
   -1.4983   -0.9448   -0.9895 C   0  0  2  0  0  0  0  0  0  0  0  0
   -2.6203   -1.6024   -1.6291 O   0  0  0  0  0  0  0  0  0  0  0  0
   -3.0462   -1.1290   -2.8279 C   0  0  0  0  0  0  0  0  0  0  0  0
   -4.1813   -1.9728   -3.3225 C   0  0  0  0  0  0  0  0  0  0  0  0
   -2.6048   -0.1621   -3.4282 O   0  0  0  0  0  0  0  0  0  0  0  0
   -0.1746   -1.5405   -1.4825 C   0  0  0  0  0  0  0  0  0  0  0  0
   -0.2305   -2.9146   -2.1046 C   0  0  0  0  0  0  0  0  0  0  0  0
    1.0121   -0.8924   -1.4217 C   0  0  0  0  0  0  0  0  0  0  0  0
    1.3187    0.4691   -0.7852 C   0  0  1  0  0  0  0  0  0  0  0  0
    2.8046    0.6009   -0.3618 C   0  0  1  0  0  0  0  0  0  0  0  0
    3.3309   -0.5970    0.2123 O   0  0  0  0  0  0  0  0  0  0  0  0
    2.9981   -0.7882    1.5181 C   0  0  0  0  0  0  0  0  0  0  0  0
    2.4037    0.0160    2.2211 O   0  0  0  0  0  0  0  0  0  0  0  0
    3.5017   -2.1011    2.0003 C   0  0  0  0  0  0  0  0  0  0  0  0
    3.4407   -2.3686    3.3756 C   0  0  0  0  0  0  0  0  0  0  0  0
    3.9039   -3.5865    3.8775 C   0  0  0  0  0  0  0  0  0  0  0  0
    4.4239   -4.5450    3.0076 C   0  0  0  0  0  0  0  0  0  0  0  0
    4.4790   -4.2899    1.6364 C   0  0  0  0  0  0  0  0  0  0  0  0
    4.0194   -3.0717    1.1311 C   0  0  0  0  0  0  0  0  0  0  0  0
    3.5548    1.0684   -1.6345 C   0  0  1  0  0  0  0  0  0  0  0  0
    4.4985    0.0517   -2.2623 C   0  0  0  0  0  0  0  0  0  0  0  0
    2.4509    1.5348   -2.6075 C   0  0  0  0  0  0  0  0  0  0  0  0
    1.1799    1.6802   -1.7427 C   0  0  1  0  0  0  0  0  0  0  0  0
    0.0316    1.5507   -2.5792 O   0  0  0  0  0  0  0  0  0  0  0  0
    1.1421    3.0840   -1.0405 C   0  0  1  0  0  0  0  0  0  0  0  0
    0.7299    4.0506   -2.0527 O   0  0  0  0  0  0  0  0  0  0  0  0
    1.5922    5.0628   -2.3395 C   0  0  0  0  0  0  0  0  0  0  0  0
    0.9887    5.9728   -3.3641 C   0  0  0  0  0  0  0  0  0  0  0  0
    2.7027    5.2086   -1.8538 O   0  0  0  0  0  0  0  0  0  0  0  0
    0.2234    3.2317    0.2133 C   0  0  1  0  0  0  0  0  0  0  0  0
    0.1135    4.6943    0.6603 C   0  0  0  0  0  0  0  0  0  0  0  0
   -1.1716    2.6624    0.0622 C   0  0  0  0  0  0  0  0  0  0  0  0
   -1.7342    1.8639    0.9884 C   0  0  0  0  0  0  0  0  0  0  0  0
   -3.0881    1.1605    0.9310 C   0  0  0  0  0  0  0  0  0  0  0  0
   -3.9505    1.7735    2.0671 C   0  0  0  0  0  0  0  0  0  0  0  0
   -3.8734    1.4309   -0.3723 C   0  0  0  0  0  0  0  0  0  0  0  0
   -2.9199   -0.3972    1.1576 C   0  0  2  0  0  0  0  0  0  0  0  0
   -2.7956   -0.6174    2.6021 O   0  0  0  0  0  0  0  0  0  0  0  0
   -3.6104   -1.5391    3.1780 C   0  0  0  0  0  0  0  0  0  0  0  0
   -3.2896   -1.6565    4.6366 C   0  0  0  0  0  0  0  0  0  0  0  0
   -4.4693   -2.1952    2.6077 O   0  0  0  0  0  0  0  0  0  0  0  0
   -0.3806   -5.0694    2.3035 H   0  0  0  0  0  0  0  0  0  0  0  0
   -1.2707   -5.0726    0.7705 H   0  0  0  0  0  0  0  0  0  0  0  0
   -2.1144   -4.6779    2.3073 H   0  0  0  0  0  0  0  0  0  0  0  0
   -0.7874   -0.7240    1.0583 H   0  0  0  0  0  0  0  0  0  0  0  0
   -1.5080    0.1130   -1.2459 H   0  0  0  0  0  0  0  0  0  0  0  0
   -4.4863   -1.6264   -4.3141 H   0  0  0  0  0  0  0  0  0  0  0  0
   -5.0313   -1.8825   -2.6410 H   0  0  0  0  0  0  0  0  0  0  0  0
   -3.8616   -3.0145   -3.4047 H   0  0  0  0  0  0  0  0  0  0  0  0
    0.7670   -3.3153   -2.3111 H   0  0  0  0  0  0  0  0  0  0  0  0
   -0.7733   -2.8886   -3.0547 H   0  0  0  0  0  0  0  0  0  0  0  0
   -0.7277   -3.6246   -1.4377 H   0  0  0  0  0  0  0  0  0  0  0  0
    1.8739   -1.3997   -1.8505 H   0  0  0  0  0  0  0  0  0  0  0  0
    0.6895    0.5645    0.0988 H   0  0  0  0  0  0  0  0  0  0  0  0
    2.9031    1.4156    0.3694 H   0  0  0  0  0  0  0  0  0  0  0  0
    3.0239   -1.6289    4.0561 H   0  0  0  0  0  0  0  0  0  0  0  0
    3.8542   -3.7886    4.9451 H   0  0  0  0  0  0  0  0  0  0  0  0
    4.7810   -5.4946    3.3980 H   0  0  0  0  0  0  0  0  0  0  0  0
    4.8791   -5.0420    0.9607 H   0  0  0  0  0  0  0  0  0  0  0  0
    4.0634   -2.8948    0.0598 H   0  0  0  0  0  0  0  0  0  0  0  0
    4.1604    1.9429   -1.3609 H   0  0  0  0  0  0  0  0  0  0  0  0
    3.9824   -0.8689   -2.5470 H   0  0  0  0  0  0  0  0  0  0  0  0
    5.3011   -0.2122   -1.5669 H   0  0  0  0  0  0  0  0  0  0  0  0
    4.9615    0.4660   -3.1634 H   0  0  0  0  0  0  0  0  0  0  0  0
    2.2875    0.7969   -3.4033 H   0  0  0  0  0  0  0  0  0  0  0  0
    2.7277    2.4661   -3.1124 H   0  0  0  0  0  0  0  0  0  0  0  0
   -0.0511    2.3717   -3.0952 H   0  0  0  0  0  0  0  0  0  0  0  0
    2.1543    3.3235   -0.6930 H   0  0  0  0  0  0  0  0  0  0  0  0
   -0.0064    6.2897   -3.0397 H   0  0  0  0  0  0  0  0  0  0  0  0
    0.9322    5.4596   -4.3274 H   0  0  0  0  0  0  0  0  0  0  0  0
    1.6126    6.8648   -3.4698 H   0  0  0  0  0  0  0  0  0  0  0  0
    0.7263    2.6928    1.0282 H   0  0  0  0  0  0  0  0  0  0  0  0
    1.1077    5.1339    0.7929 H   0  0  0  0  0  0  0  0  0  0  0  0
   -0.4094    4.7685    1.6209 H   0  0  0  0  0  0  0  0  0  0  0  0
   -0.4400    5.3042   -0.0625 H   0  0  0  0  0  0  0  0  0  0  0  0
   -1.6967    2.9100   -0.8571 H   0  0  0  0  0  0  0  0  0  0  0  0
   -1.1635    1.6605    1.8981 H   0  0  0  0  0  0  0  0  0  0  0  0
   -4.9151    1.2591    2.1482 H   0  0  0  0  0  0  0  0  0  0  0  0
   -3.4555    1.7152    3.0438 H   0  0  0  0  0  0  0  0  0  0  0  0
   -4.1561    2.8356    1.8820 H   0  0  0  0  0  0  0  0  0  0  0  0
   -4.8061    0.8562   -0.3945 H   0  0  0  0  0  0  0  0  0  0  0  0
   -3.3124    1.1838   -1.2712 H   0  0  0  0  0  0  0  0  0  0  0  0
   -4.1488    2.4892   -0.4587 H   0  0  0  0  0  0  0  0  0  0  0  0
   -3.8269   -0.8994    0.7980 H   0  0  0  0  0  0  0  0  0  0  0  0
   -3.3355   -0.6717    5.1081 H   0  0  0  0  0  0  0  0  0  0  0  0
   -2.2974   -2.0966    4.7596 H   0  0  0  0  0  0  0  0  0  0  0  0
   -4.0280   -2.3022    5.1196 H   0  0  0  0  0  0  0  0  0  0  0  0
  1  2  1  0
  2  3  2  0
  2  4  1  0
  4  5  1  0
  5  6  1  0
  6  7  1  0
  7  8  1  0
  8  9  1  0
  8 10  2  0
  6 11  1  0
 11 12  1  0
 11 13  2  0
 13 14  1  0
 14 15  1  0
 15 16  1  0
 16 17  1  0
 17 18  2  0
 17 19  1  0
 19 20  2  0
 20 21  1  0
 21 22  2  0
 22 23  1  0
 23 24  2  0
 15 25  1  0
 25 26  1  0
 25 27  1  0
 27 28  1  0
 28 29  1  6
 28 30  1  0
 30 31  1  0
 31 32  1  0
 32 33  1  0
 32 34  2  0
 30 35  1  0
 35 36  1  0
 35 37  1  0
 37 38  2  0
 38 39  1  0
 39 40  1  0
 39 41  1  0
 39 42  1  0
 42 43  1  0
 43 44  1  0
 44 45  1  0
 44 46  2  0
 42  5  1  0
 28 14  1  0
 24 19  1  0
  1 47  1  0
  1 48  1  0
  1 49  1  0
  5 50  1  1
  6 51  1  1
  9 52  1  0
  9 53  1  0
  9 54  1  0
 12 55  1  0
 12 56  1  0
 12 57  1  0
 13 58  1  0
 14 59  1  1
 15 60  1  1
 20 61  1  0
 21 62  1  0
 22 63  1  0
 23 64  1  0
 24 65  1  0
 25 66  1  1
 26 67  1  0
 26 68  1  0
 26 69  1  0
 27 70  1  0
 27 71  1  0
 29 72  1  0
 30 73  1  1
 33 74  1  0
 33 75  1  0
 33 76  1  0
 35 77  1  1
 36 78  1  0
 36 79  1  0
 36 80  1  0
 37 81  1  0
 38 82  1  0
 40 83  1  0
 40 84  1  0
 40 85  1  0
 41 86  1  0
 41 87  1  0
 41 88  1  0
 42 89  1  6
 45 90  1  0
 45 91  1  0
 45 92  1  0
M  END
$$$$
