
     RDKit          3D

 58 62  0  0  0  0  0  0  0  0999 V2000
    6.1849    0.4016    2.7952 C   0  0  0  0  0  0  0  0  0  0  0  0
    6.1940   -0.0332    1.3550 C   0  0  0  0  0  0  0  0  0  0  0  0
    7.2294   -1.0758    1.0366 C   0  0  0  0  0  0  0  0  0  0  0  0
    5.3471    0.4642    0.4365 C   0  0  0  0  0  0  0  0  0  0  0  0
    5.1701    0.1515   -1.0580 C   0  0  0  0  0  0  0  0  0  0  0  0
    5.4431    1.5892   -1.5675 C   0  0  0  0  0  0  0  0  0  0  0  0
    4.7984    2.5062   -0.4696 C   0  0  0  0  0  0  0  0  0  0  0  0
    4.2160    1.5026    0.5564 C   0  0  0  0  0  0  0  0  0  0  0  0
    3.1147    0.7463   -0.1138 C   0  0  0  0  0  0  0  0  0  0  0  0
    3.6907   -0.0792   -1.0958 C   0  0  0  0  0  0  0  0  0  0  0  0
    2.7005   -0.7817   -1.7212 C   0  0  0  0  0  0  0  0  0  0  0  0
    2.7859   -1.6729   -2.7041 O   0  0  0  0  0  0  0  0  0  0  0  0
    1.4740   -0.3954   -1.1237 N   0  0  0  0  0  0  0  0  0  0  0  0
    0.1610   -0.8308   -1.3976 C   0  0  0  0  0  0  0  0  0  0  0  0
   -0.8733   -0.3534   -0.7316 N   0  0  0  0  0  0  0  0  0  0  0  0
   -2.0378   -0.9391   -1.2082 C   0  0  0  0  0  0  0  0  0  0  0  0
   -3.3226   -0.5679   -0.6347 C   0  0  0  0  0  0  0  0  0  0  0  0
   -3.4661   -0.5215    0.7559 C   0  0  0  0  0  0  0  0  0  0  0  0
   -4.6870   -0.1582    1.3323 C   0  0  0  0  0  0  0  0  0  0  0  0
   -5.7877    0.1748    0.5295 C   0  0  0  0  0  0  0  0  0  0  0  0
   -7.1220    0.5785    1.1323 C   0  0  0  0  0  0  0  0  0  0  0  0
   -7.7127   -0.5377    1.9982 C   0  0  0  0  0  0  0  0  0  0  0  0
   -7.0054    1.8817    1.9271 C   0  0  0  0  0  0  0  0  0  0  0  0
   -5.6329    0.1432   -0.8641 C   0  0  0  0  0  0  0  0  0  0  0  0
   -4.4116   -0.2204   -1.4410 C   0  0  0  0  0  0  0  0  0  0  0  0
   -1.8554   -1.8879   -2.2030 C   0  0  0  0  0  0  0  0  0  0  0  0
   -2.8338   -2.7588   -2.9111 C   0  0  0  0  0  0  0  0  0  0  0  0
   -0.1815   -1.9903   -2.5870 S   0  0  0  0  0  0  0  0  0  0  0  0
    1.7650    0.5729   -0.1245 C   0  0  0  0  0  0  0  0  0  0  0  0
    0.8364    1.1634    0.6305 O   0  0  0  0  0  0  0  0  0  0  0  0
    5.9683   -0.4524    3.4451 H   0  0  0  0  0  0  0  0  0  0  0  0
    5.4417    1.1735    3.0081 H   0  0  0  0  0  0  0  0  0  0  0  0
    7.1637    0.8073    3.0723 H   0  0  0  0  0  0  0  0  0  0  0  0
    7.2322   -1.3720   -0.0152 H   0  0  0  0  0  0  0  0  0  0  0  0
    7.0516   -1.9777    1.6315 H   0  0  0  0  0  0  0  0  0  0  0  0
    8.2299   -0.6973    1.2719 H   0  0  0  0  0  0  0  0  0  0  0  0
    5.7829   -0.6333   -1.4968 H   0  0  0  0  0  0  0  0  0  0  0  0
    6.5188    1.7908   -1.6366 H   0  0  0  0  0  0  0  0  0  0  0  0
    4.9936    1.7769   -2.5492 H   0  0  0  0  0  0  0  0  0  0  0  0
    4.0289    3.1555   -0.9024 H   0  0  0  0  0  0  0  0  0  0  0  0
    5.5685    3.1404   -0.0140 H   0  0  0  0  0  0  0  0  0  0  0  0
    3.9873    1.9053    1.5409 H   0  0  0  0  0  0  0  0  0  0  0  0
    3.7302   -1.7843   -2.9145 H   0  0  0  0  0  0  0  0  0  0  0  0
   -2.6254   -0.7693    1.4010 H   0  0  0  0  0  0  0  0  0  0  0  0
   -4.7651   -0.1328    2.4169 H   0  0  0  0  0  0  0  0  0  0  0  0
   -7.8337    0.7607    0.3153 H   0  0  0  0  0  0  0  0  0  0  0  0
   -7.8029   -1.4696    1.4282 H   0  0  0  0  0  0  0  0  0  0  0  0
   -7.0955   -0.7439    2.8800 H   0  0  0  0  0  0  0  0  0  0  0  0
   -8.7128   -0.2615    2.3504 H   0  0  0  0  0  0  0  0  0  0  0  0
   -6.3451    1.7746    2.7945 H   0  0  0  0  0  0  0  0  0  0  0  0
   -7.9879    2.1983    2.2937 H   0  0  0  0  0  0  0  0  0  0  0  0
   -6.6057    2.6875    1.3015 H   0  0  0  0  0  0  0  0  0  0  0  0
   -6.4621    0.4113   -1.5161 H   0  0  0  0  0  0  0  0  0  0  0  0
   -4.3192   -0.2093   -2.5240 H   0  0  0  0  0  0  0  0  0  0  0  0
   -3.6340   -3.0781   -2.2356 H   0  0  0  0  0  0  0  0  0  0  0  0
   -3.2838   -2.2195   -3.7507 H   0  0  0  0  0  0  0  0  0  0  0  0
   -2.3629   -3.6661   -3.3042 H   0  0  0  0  0  0  0  0  0  0  0  0
   -0.0424    0.8131    0.3594 H   0  0  0  0  0  0  0  0  0  0  0  0
  1  2  1  0
  2  3  1  0
  2  4  2  3
  4  5  1  0
  5  6  1  0
  6  7  1  0
  7  8  1  0
  8  9  1  0
  9 10  1  0
 10 11  2  0
 11 12  1  0
 11 13  1  0
 13 14  1  0
 14 15  2  0
 15 16  1  0
 16 17  1  0
 17 18  2  0
 18 19  1  0
 19 20  2  0
 20 21  1  0
 21 22  1  0
 21 23  1  0
 20 24  1  0
 24 25  2  0
 16 26  2  0
 26 27  1  0
 26 28  1  0
 13 29  1  0
 29 30  1  0
  8  4  1  0
 29  9  2  0
 10  5  1  0
 28 14  1  0
 25 17  1  0
  1 31  1  0
  1 32  1  0
  1 33  1  0
  3 34  1  0
  3 35  1  0
  3 36  1  0
  5 37  1  0
  6 38  1  0
  6 39  1  0
  7 40  1  0
  7 41  1  0
  8 42  1  0
 12 43  1  0
 18 44  1  0
 19 45  1  0
 21 46  1  0
 22 47  1  0
 22 48  1  0
 22 49  1  0
 23 50  1  0
 23 51  1  0
 23 52  1  0
 24 53  1  0
 25 54  1  0
 27 55  1  0
 27 56  1  0
 27 57  1  0
 30 58  1  0
M  END
$$$$
