
     RDKit          3D

 50 53  0  0  0  0  0  0  0  0999 V2000
    6.1048   -2.7097    2.7682 C   0  0  0  0  0  0  0  0  0  0  0  0
    5.3653   -2.7272    1.5536 O   0  0  0  0  0  0  0  0  0  0  0  0
    4.3471   -1.8229    1.4342 C   0  0  0  0  0  0  0  0  0  0  0  0
    3.9678   -0.8835    2.3899 C   0  0  0  0  0  0  0  0  0  0  0  0
    2.9065   -0.0054    2.1307 C   0  0  0  0  0  0  0  0  0  0  0  0
    2.1886   -0.0507    0.9199 C   0  0  0  0  0  0  0  0  0  0  0  0
    1.0729    0.8751    0.6888 C   0  0  0  0  0  0  0  0  0  0  0  0
    1.2711    2.1733    1.0253 N   0  0  0  0  0  0  0  0  0  0  0  0
    0.2268    3.0158    0.8126 C   0  0  0  0  0  0  0  0  0  0  0  0
    0.4404    4.4509    1.1475 C   0  0  0  0  0  0  0  0  0  0  0  0
    1.6907    4.7715    1.6040 N   0  0  0  0  0  0  0  0  0  0  0  0
   -0.4382    5.2946    1.0221 O   0  0  0  0  0  0  0  0  0  0  0  0
   -0.9632    2.5803    0.3136 C   0  0  0  0  0  0  0  0  0  0  0  0
   -2.1535    3.2205   -0.0030 N   0  0  0  0  0  0  0  0  0  0  0  0
   -3.0627    2.2615   -0.4856 C   0  0  0  0  0  0  0  0  0  0  0  0
   -4.2218    2.5203   -0.7657 O   0  0  0  0  0  0  0  0  0  0  0  0
   -2.3684    1.0196   -0.4718 N   0  0  0  0  0  0  0  0  0  0  0  0
   -2.8408   -0.2418   -0.8982 C   0  0  0  0  0  0  0  0  0  0  0  0
   -2.4716   -1.4085   -0.2046 C   0  0  0  0  0  0  0  0  0  0  0  0
   -2.9537   -2.6645   -0.5843 C   0  0  0  0  0  0  0  0  0  0  0  0
   -3.8042   -2.7811   -1.6770 C   0  0  0  0  0  0  0  0  0  0  0  0
   -4.1693   -1.6429   -2.3927 C   0  0  0  0  0  0  0  0  0  0  0  0
   -3.7036   -0.3779   -2.0031 C   0  0  0  0  0  0  0  0  0  0  0  0
   -3.9426    0.7132   -2.8026 O   0  0  0  0  0  0  0  0  0  0  0  0
   -5.3277    0.9078   -3.0867 C   0  0  0  0  0  0  0  0  0  0  0  0
   -1.0727    1.2385    0.0431 C   0  0  0  0  0  0  0  0  0  0  0  0
   -0.0825    0.3585    0.2199 N   0  0  0  0  0  0  0  0  0  0  0  0
    2.5831   -1.0121   -0.0261 C   0  0  0  0  0  0  0  0  0  0  0  0
    1.9810   -1.0378   -1.2607 O   0  0  0  0  0  0  0  0  0  0  0  0
    1.2229   -2.2347   -1.4414 C   0  0  0  0  0  0  0  0  0  0  0  0
    3.6572   -1.8761    0.2228 C   0  0  0  0  0  0  0  0  0  0  0  0
    5.4635   -2.9460    3.6238 H   0  0  0  0  0  0  0  0  0  0  0  0
    6.6126   -1.7497    2.9074 H   0  0  0  0  0  0  0  0  0  0  0  0
    6.8728   -3.4864    2.7032 H   0  0  0  0  0  0  0  0  0  0  0  0
    4.4767   -0.7999    3.3447 H   0  0  0  0  0  0  0  0  0  0  0  0
    2.6329    0.7222    2.8939 H   0  0  0  0  0  0  0  0  0  0  0  0
    1.9164    5.7386    1.7898 H   0  0  0  0  0  0  0  0  0  0  0  0
    2.4200    4.0674    1.6308 H   0  0  0  0  0  0  0  0  0  0  0  0
   -2.3525    4.2057    0.1218 H   0  0  0  0  0  0  0  0  0  0  0  0
   -1.8284   -1.3571    0.6702 H   0  0  0  0  0  0  0  0  0  0  0  0
   -2.6623   -3.5486   -0.0229 H   0  0  0  0  0  0  0  0  0  0  0  0
   -4.1691   -3.7578   -1.9841 H   0  0  0  0  0  0  0  0  0  0  0  0
   -4.7880   -1.7570   -3.2777 H   0  0  0  0  0  0  0  0  0  0  0  0
   -5.6362    0.2846   -3.9318 H   0  0  0  0  0  0  0  0  0  0  0  0
   -5.9598    0.7122   -2.2129 H   0  0  0  0  0  0  0  0  0  0  0  0
   -5.4657    1.9539   -3.3768 H   0  0  0  0  0  0  0  0  0  0  0  0
    0.5259   -2.0679   -2.2682 H   0  0  0  0  0  0  0  0  0  0  0  0
    1.8798   -3.0667   -1.7141 H   0  0  0  0  0  0  0  0  0  0  0  0
    0.6377   -2.4887   -0.5502 H   0  0  0  0  0  0  0  0  0  0  0  0
    3.9740   -2.5830   -0.5394 H   0  0  0  0  0  0  0  0  0  0  0  0
  1  2  1  0
  2  3  1  0
  3  4  2  0
  4  5  1  0
  5  6  2  0
  6  7  1  0
  7  8  2  0
  8  9  1  0
  9 10  1  0
 10 11  1  0
 10 12  2  0
  9 13  2  0
 13 14  1  0
 14 15  1  0
 15 16  2  0
 15 17  1  0
 17 18  1  0
 18 19  2  0
 19 20  1  0
 20 21  2  0
 21 22  1  0
 22 23  2  0
 23 24  1  0
 24 25  1  0
 17 26  1  0
 26 27  2  0
  6 28  1  0
 28 29  1  0
 29 30  1  0
 28 31  2  0
 31  3  1  0
 27  7  1  0
 26 13  1  0
 23 18  1  0
  1 32  1  0
  1 33  1  0
  1 34  1  0
  4 35  1  0
  5 36  1  0
 11 37  1  0
 11 38  1  0
 14 39  1  0
 19 40  1  0
 20 41  1  0
 21 42  1  0
 22 43  1  0
 25 44  1  0
 25 45  1  0
 25 46  1  0
 30 47  1  0
 30 48  1  0
 30 49  1  0
 31 50  1  0
M  END
$$$$
