
     RDKit          3D

 23 23  0  0  0  0  0  0  0  0999 V2000
    0.0294    2.4132   -0.7497 O   0  0  0  0  0  0  0  0  0  0  0  0
   -1.0821    1.9394   -0.6017 C   0  0  0  0  0  0  0  0  0  0  0  0
   -2.1731    2.7307   -0.5902 O   0  0  0  0  0  0  0  0  0  0  0  0
   -1.4404    0.5091   -0.4322 C   0  0  0  0  0  0  0  0  0  0  0  0
   -2.6815    0.0508   -0.9089 C   0  0  0  0  0  0  0  0  0  0  0  0
   -3.0366   -1.2923   -0.7797 C   0  0  0  0  0  0  0  0  0  0  0  0
   -2.1597   -2.1850   -0.1709 C   0  0  0  0  0  0  0  0  0  0  0  0
   -0.9271   -1.7351    0.3065 C   0  0  0  0  0  0  0  0  0  0  0  0
   -0.5446   -0.3928    0.1733 C   0  0  0  0  0  0  0  0  0  0  0  0
    0.6935   -0.0160    0.7263 N   0  0  0  0  0  0  0  0  0  0  0  0
    1.6666    0.1497   -0.1138 C   0  0  0  0  0  0  0  0  0  0  0  0
    3.0075    0.6088    0.3534 C   0  0  0  0  0  0  0  0  0  0  0  0
    3.9711   -0.4341   -0.0851 N   0  0  0  0  0  4  0  0  0  0  0  0
    4.3115   -0.4216   -1.2760 O   0  0  0  0  0  0  0  0  0  0  0  0
    4.3669   -1.2405    0.7657 O   0  0  0  0  0  1  0  0  0  0  0  0
   -1.8116    3.6368   -0.6834 H   0  0  0  0  0  0  0  0  0  0  0  0
   -3.3776    0.7380   -1.3850 H   0  0  0  0  0  0  0  0  0  0  0  0
   -3.9991   -1.6392   -1.1485 H   0  0  0  0  0  0  0  0  0  0  0  0
   -2.4358   -3.2307   -0.0578 H   0  0  0  0  0  0  0  0  0  0  0  0
   -0.2559   -2.4358    0.7987 H   0  0  0  0  0  0  0  0  0  0  0  0
    1.5353   -0.0044   -1.2022 H   0  0  0  0  0  0  0  0  0  0  0  0
    3.2843    1.5458   -0.1354 H   0  0  0  0  0  0  0  0  0  0  0  0
    3.0590    0.7053    1.4403 H   0  0  0  0  0  0  0  0  0  0  0  0
  1  2  2  0
  2  3  1  0
  2  4  1  0
  4  5  2  0
  5  6  1  0
  6  7  2  0
  7  8  1  0
  8  9  2  0
  9 10  1  0
 10 11  2  3
 11 12  1  0
 12 13  1  0
 13 14  2  0
 13 15  1  0
  9  4  1  0
  3 16  1  0
  5 17  1  0
  6 18  1  0
  7 19  1  0
  8 20  1  0
 11 21  1  0
 12 22  1  0
 12 23  1  0
M  CHG  2  13   1  15  -1
M  END
$$$$
