
     RDKit          3D

 54 59  0  0  0  0  0  0  0  0999 V2000
    7.0777   -2.3335    1.3564 C   0  0  0  0  0  0  0  0  0  0  0  0
    6.0155   -1.4988    0.7049 C   0  0  0  0  0  0  0  0  0  0  0  0
    6.2067   -0.1266    0.5163 C   0  0  0  0  0  0  0  0  0  0  0  0
    5.2304    0.6447   -0.1199 C   0  0  0  0  0  0  0  0  0  0  0  0
    4.0414    0.0594   -0.5793 C   0  0  0  0  0  0  0  0  0  0  0  0
    2.9947    0.9004   -1.2800 C   0  0  0  0  0  0  0  0  0  0  0  0
    1.6704    0.8189   -0.6621 N   0  0  0  0  0  0  0  0  0  0  0  0
    1.3249    1.5541    0.4780 C   0  0  0  0  0  0  0  0  0  0  0  0
    2.3611    2.4598    1.1043 C   0  0  0  0  0  0  0  0  0  0  0  0
    0.1576    1.5171    1.0576 N   0  0  0  0  0  0  0  0  0  0  0  0
   -0.7366    0.6999    0.4656 C   0  0  0  0  0  0  0  0  0  0  0  0
   -0.5360   -0.0798   -0.6493 C   0  0  0  0  0  0  0  0  0  0  0  0
    0.7494   -0.0425   -1.2931 C   0  0  0  0  0  0  0  0  0  0  0  0
    1.0081   -0.7031   -2.2949 O   0  0  0  0  0  0  0  0  0  0  0  0
   -1.7296   -0.7811   -0.9020 C   0  0  0  0  0  0  0  0  0  0  0  0
   -2.0628   -1.6784   -1.8617 N   0  0  0  0  0  0  0  0  0  0  0  0
   -3.3167   -2.1491   -1.7776 C   0  0  0  0  0  0  0  0  0  0  0  0
   -3.7358   -3.0732   -2.7259 C   0  0  0  0  0  0  0  0  0  0  0  0
   -5.0239   -3.6096   -2.7057 C   0  0  0  0  0  0  0  0  0  0  0  0
   -5.9132   -3.2145   -1.7165 C   0  0  0  0  0  0  0  0  0  0  0  0
   -5.5062   -2.2864   -0.7567 C   0  0  0  0  0  0  0  0  0  0  0  0
   -4.2276   -1.7435   -0.7640 C   0  0  0  0  0  0  0  0  0  0  0  0
   -3.9083   -0.8538    0.1926 N   0  0  0  0  0  0  0  0  0  0  0  0
   -2.6430   -0.4000    0.0786 C   0  0  0  0  0  0  0  0  0  0  0  0
   -2.0275    0.5189    0.8943 N   0  0  0  0  0  0  0  0  0  0  0  0
   -2.6461    1.1567    2.0440 C   0  0  0  0  0  0  0  0  0  0  0  0
   -3.3775    2.3854    1.6423 C   0  0  0  0  0  0  0  0  0  0  0  0
   -4.4807    2.6191    0.8449 C   0  0  0  0  0  0  0  0  0  0  0  0
   -4.6999    4.0170    0.8622 C   0  0  0  0  0  0  0  0  0  0  0  0
   -3.7251    4.5470    1.6736 C   0  0  0  0  0  0  0  0  0  0  0  0
   -2.9219    3.5653    2.1568 O   0  0  0  0  0  0  0  0  0  0  0  0
    3.8697   -1.3222   -0.4168 C   0  0  0  0  0  0  0  0  0  0  0  0
    4.8467   -2.0927    0.2189 C   0  0  0  0  0  0  0  0  0  0  0  0
    6.6361   -3.1862    1.8829 H   0  0  0  0  0  0  0  0  0  0  0  0
    7.6349   -1.7489    2.0960 H   0  0  0  0  0  0  0  0  0  0  0  0
    7.7761   -2.7067    0.6012 H   0  0  0  0  0  0  0  0  0  0  0  0
    7.1206    0.3514    0.8624 H   0  0  0  0  0  0  0  0  0  0  0  0
    5.4107    1.7095   -0.2518 H   0  0  0  0  0  0  0  0  0  0  0  0
    2.9567    0.5887   -2.3307 H   0  0  0  0  0  0  0  0  0  0  0  0
    3.3050    1.9502   -1.3000 H   0  0  0  0  0  0  0  0  0  0  0  0
    1.9135    3.0307    1.9244 H   0  0  0  0  0  0  0  0  0  0  0  0
    2.7474    3.1733    0.3734 H   0  0  0  0  0  0  0  0  0  0  0  0
    3.1772    1.8638    1.5172 H   0  0  0  0  0  0  0  0  0  0  0  0
   -3.0381   -3.3830   -3.5012 H   0  0  0  0  0  0  0  0  0  0  0  0
   -5.3248   -4.3315   -3.4606 H   0  0  0  0  0  0  0  0  0  0  0  0
   -6.9198   -3.6238   -1.6870 H   0  0  0  0  0  0  0  0  0  0  0  0
   -6.2047   -1.9788    0.0181 H   0  0  0  0  0  0  0  0  0  0  0  0
   -1.8627    1.3760    2.7774 H   0  0  0  0  0  0  0  0  0  0  0  0
   -3.3290    0.4352    2.5059 H   0  0  0  0  0  0  0  0  0  0  0  0
   -5.0497    1.8675    0.3136 H   0  0  0  0  0  0  0  0  0  0  0  0
   -5.4725    4.5704    0.3477 H   0  0  0  0  0  0  0  0  0  0  0  0
   -3.4793    5.5501    1.9929 H   0  0  0  0  0  0  0  0  0  0  0  0
    2.9782   -1.8193   -0.7950 H   0  0  0  0  0  0  0  0  0  0  0  0
    4.6884   -3.1638    0.3269 H   0  0  0  0  0  0  0  0  0  0  0  0
  1  2  1  0
  2  3  2  0
  3  4  1  0
  4  5  2  0
  5  6  1  0
  6  7  1  0
  7  8  1  0
  8  9  1  0
  8 10  2  0
 10 11  1  0
 11 12  2  0
 12 13  1  0
 13 14  2  0
 12 15  1  0
 15 16  2  0
 16 17  1  0
 17 18  2  0
 18 19  1  0
 19 20  2  0
 20 21  1  0
 21 22  2  0
 22 23  1  0
 23 24  2  0
 24 25  1  0
 25 26  1  0
 26 27  1  0
 27 28  2  0
 28 29  1  0
 29 30  2  0
 30 31  1  0
  5 32  1  0
 32 33  2  0
 33  2  1  0
 13  7  1  0
 24 15  1  0
 31 27  1  0
 25 11  1  0
 22 17  1  0
  1 34  1  0
  1 35  1  0
  1 36  1  0
  3 37  1  0
  4 38  1  0
  6 39  1  0
  6 40  1  0
  9 41  1  0
  9 42  1  0
  9 43  1  0
 18 44  1  0
 19 45  1  0
 20 46  1  0
 21 47  1  0
 26 48  1  0
 26 49  1  0
 28 50  1  0
 29 51  1  0
 30 52  1  0
 32 53  1  0
 33 54  1  0
M  END
$$$$
