
     RDKit          3D

 31 31  0  0  0  0  0  0  0  0999 V2000
    4.6317    1.4056    1.2572 C   0  0  0  0  0  0  0  0  0  0  0  0
    4.4389    0.2250    0.4910 O   0  0  0  0  0  0  0  0  0  0  0  0
    3.2259   -0.4411    0.8381 C   0  0  0  0  0  0  0  0  0  0  0  0
    2.0857    0.3228    0.4403 O   0  0  0  0  0  0  0  0  0  0  0  0
    0.9049   -0.3364    0.6842 C   0  0  0  0  0  0  0  0  0  0  0  0
   -0.2250   -0.0525    0.0167 C   0  0  0  0  0  0  0  0  0  0  0  0
   -0.2039    0.9169   -0.9614 N   0  0  0  0  0  0  0  0  0  0  0  0
   -1.2492    1.3659   -1.7448 C   0  0  0  0  0  0  0  0  0  0  0  0
   -0.8243    2.4481   -2.7055 C   0  0  0  0  0  0  0  0  0  0  0  0
   -2.4156    0.9923   -1.6972 O   0  0  0  0  0  0  0  0  0  0  0  0
   -1.4396   -0.8053    0.3576 C   0  0  0  0  0  0  0  0  0  0  0  0
   -1.7585   -1.9828   -0.3318 C   0  0  0  0  0  0  0  0  0  0  0  0
   -2.8882   -2.7229    0.0229 C   0  0  0  0  0  0  0  0  0  0  0  0
   -3.7030   -2.2940    1.0701 C   0  0  0  0  0  0  0  0  0  0  0  0
   -3.3924   -1.1240    1.7623 C   0  0  0  0  0  0  0  0  0  0  0  0
   -2.2633   -0.3822    1.4093 C   0  0  0  0  0  0  0  0  0  0  0  0
    4.6692    1.1705    2.3253 H   0  0  0  0  0  0  0  0  0  0  0  0
    5.5875    1.8501    0.9665 H   0  0  0  0  0  0  0  0  0  0  0  0
    3.8387    2.1327    1.0583 H   0  0  0  0  0  0  0  0  0  0  0  0
    3.2090   -0.6370    1.9181 H   0  0  0  0  0  0  0  0  0  0  0  0
    3.2260   -1.3992    0.3053 H   0  0  0  0  0  0  0  0  0  0  0  0
    0.9493   -1.0843    1.4668 H   0  0  0  0  0  0  0  0  0  0  0  0
    0.7043    1.3507   -1.0952 H   0  0  0  0  0  0  0  0  0  0  0  0
   -1.4623    2.4138   -3.5935 H   0  0  0  0  0  0  0  0  0  0  0  0
    0.2112    2.3070   -3.0285 H   0  0  0  0  0  0  0  0  0  0  0  0
   -0.9264    3.4219   -2.2196 H   0  0  0  0  0  0  0  0  0  0  0  0
   -1.1359   -2.3194   -1.1568 H   0  0  0  0  0  0  0  0  0  0  0  0
   -3.1374   -3.6277   -0.5248 H   0  0  0  0  0  0  0  0  0  0  0  0
   -4.5873   -2.8656    1.3391 H   0  0  0  0  0  0  0  0  0  0  0  0
   -4.0343   -0.7833    2.5701 H   0  0  0  0  0  0  0  0  0  0  0  0
   -2.0358    0.5343    1.9477 H   0  0  0  0  0  0  0  0  0  0  0  0
  1  2  1  0
  2  3  1  0
  3  4  1  0
  4  5  1  0
  5  6  2  3
  6  7  1  0
  7  8  1  0
  8  9  1  0
  8 10  2  0
  6 11  1  0
 11 12  2  0
 12 13  1  0
 13 14  2  0
 14 15  1  0
 15 16  2  0
 16 11  1  0
  1 17  1  0
  1 18  1  0
  1 19  1  0
  3 20  1  0
  3 21  1  0
  5 22  1  0
  7 23  1  0
  9 24  1  0
  9 25  1  0
  9 26  1  0
 12 27  1  0
 13 28  1  0
 14 29  1  0
 15 30  1  0
 16 31  1  0
M  END
$$$$
