
     RDKit          3D

 52 55  0  0  0  0  0  0  0  0999 V2000
   -6.9062    2.4835    0.9591 C   0  0  0  0  0  0  0  0  0  0  0  0
   -5.8247    3.2116    0.1732 C   0  0  0  0  0  0  0  0  0  0  0  0
   -4.7740    2.2575   -0.3916 C   0  0  0  0  0  0  0  0  0  0  0  0
   -4.0930    1.6280    0.6927 O   0  0  0  0  0  0  0  0  0  0  0  0
   -3.1209    0.7202    0.3764 C   0  0  0  0  0  0  0  0  0  0  0  0
   -2.7070    0.3732   -0.9097 C   0  0  0  0  0  0  0  0  0  0  0  0
   -1.6956   -0.5776   -1.0913 C   0  0  0  0  0  0  0  0  0  0  0  0
   -1.0936   -1.1933    0.0118 C   0  0  0  0  0  0  0  0  0  0  0  0
   -0.0403   -2.1813   -0.1798 C   0  0  0  0  0  0  0  0  0  0  0  0
    1.3401   -2.0307   -0.1528 C   0  0  0  0  0  0  0  0  0  0  0  0
    2.1251   -0.8203    0.0887 C   0  0  0  0  0  0  0  0  0  0  0  0
    1.6058    0.2591    0.3519 O   0  0  0  0  0  0  0  0  0  0  0  0
    3.4942   -1.0609   -0.0019 N   0  0  0  0  0  0  0  0  0  0  0  0
    4.5081   -0.1958    0.3235 N   0  0  0  0  0  0  0  0  0  0  0  0
    4.3186    1.0760    0.1649 C   0  0  0  0  0  0  0  0  0  0  0  0
    5.3518    2.0649    0.5396 C   0  0  0  0  0  0  0  0  0  0  0  0
    5.0789    3.4238    0.3558 C   0  0  0  0  0  0  0  0  0  0  0  0
    6.0395    4.3762    0.7011 C   0  0  0  0  0  0  0  0  0  0  0  0
    7.2668    3.9717    1.2278 C   0  0  0  0  0  0  0  0  0  0  0  0
    7.5375    2.6152    1.4121 C   0  0  0  0  0  0  0  0  0  0  0  0
    6.5805    1.6590    1.0689 C   0  0  0  0  0  0  0  0  0  0  0  0
    1.9332   -3.2419   -0.3995 N   0  0  0  0  0  0  0  0  0  0  0  0
    0.9838   -4.1414   -0.5776 N   0  0  0  0  0  0  0  0  0  0  0  0
   -0.2366   -3.5396   -0.4454 N   0  0  0  0  0  0  0  0  0  0  0  0
   -1.4401   -4.2812   -0.5618 C   0  0  0  0  0  0  0  0  0  0  0  0
   -2.6295   -3.7085   -0.3755 N   0  0  0  0  0  0  0  0  0  0  0  0
   -3.5405   -4.7473   -0.5529 O   0  0  0  0  0  0  0  0  0  0  0  0
   -2.8921   -5.9426   -0.8450 N   0  0  0  0  0  0  0  0  0  0  0  0
   -1.5925   -5.6494   -0.8563 C   0  0  0  0  0  0  0  0  0  0  0  0
   -0.6169   -6.5413   -1.1142 N   0  0  0  0  0  0  0  0  0  0  0  0
   -1.5013   -0.8367    1.2999 C   0  0  0  0  0  0  0  0  0  0  0  0
   -2.5107    0.1132    1.4765 C   0  0  0  0  0  0  0  0  0  0  0  0
   -6.4870    1.9626    1.8256 H   0  0  0  0  0  0  0  0  0  0  0  0
   -7.6520    3.1968    1.3239 H   0  0  0  0  0  0  0  0  0  0  0  0
   -7.4188    1.7483    0.3306 H   0  0  0  0  0  0  0  0  0  0  0  0
   -5.3418    3.9375    0.8379 H   0  0  0  0  0  0  0  0  0  0  0  0
   -6.2886    3.7680   -0.6487 H   0  0  0  0  0  0  0  0  0  0  0  0
   -4.0621    2.8378   -0.9906 H   0  0  0  0  0  0  0  0  0  0  0  0
   -5.2642    1.5067   -1.0232 H   0  0  0  0  0  0  0  0  0  0  0  0
   -3.1468    0.8233   -1.7931 H   0  0  0  0  0  0  0  0  0  0  0  0
   -1.3862   -0.8295   -2.1029 H   0  0  0  0  0  0  0  0  0  0  0  0
    3.7822   -2.0363   -0.0478 H   0  0  0  0  0  0  0  0  0  0  0  0
    3.4027    1.4962   -0.2821 H   0  0  0  0  0  0  0  0  0  0  0  0
    4.1248    3.7506   -0.0495 H   0  0  0  0  0  0  0  0  0  0  0  0
    5.8310    5.4341    0.5618 H   0  0  0  0  0  0  0  0  0  0  0  0
    8.0135    4.7148    1.4972 H   0  0  0  0  0  0  0  0  0  0  0  0
    8.4934    2.3019    1.8241 H   0  0  0  0  0  0  0  0  0  0  0  0
    6.7971    0.6038    1.2162 H   0  0  0  0  0  0  0  0  0  0  0  0
   -0.8418   -7.5308   -1.1063 H   0  0  0  0  0  0  0  0  0  0  0  0
    0.3596   -6.3283   -0.9178 H   0  0  0  0  0  0  0  0  0  0  0  0
   -1.0404   -1.2858    2.1758 H   0  0  0  0  0  0  0  0  0  0  0  0
   -2.8230    0.3852    2.4819 H   0  0  0  0  0  0  0  0  0  0  0  0
  1  2  1  0
  2  3  1  0
  3  4  1  0
  4  5  1  0
  5  6  2  0
  6  7  1  0
  7  8  2  0
  8  9  1  0
  9 10  2  0
 10 11  1  0
 11 12  2  0
 11 13  1  0
 13 14  1  0
 14 15  2  3
 15 16  1  0
 16 17  2  0
 17 18  1  0
 18 19  2  0
 19 20  1  0
 20 21  2  0
 10 22  1  0
 22 23  2  0
 23 24  1  0
 24 25  1  0
 25 26  2  0
 26 27  1  0
 27 28  1  0
 28 29  2  0
 29 30  1  0
  8 31  1  0
 31 32  2  0
 32  5  1  0
 24  9  1  0
 29 25  1  0
 21 16  1  0
  1 33  1  0
  1 34  1  0
  1 35  1  0
  2 36  1  0
  2 37  1  0
  3 38  1  0
  3 39  1  0
  6 40  1  0
  7 41  1  0
 13 42  1  0
 15 43  1  0
 17 44  1  0
 18 45  1  0
 19 46  1  0
 20 47  1  0
 21 48  1  0
 30 49  1  0
 30 50  1  0
 31 51  1  0
 32 52  1  0
M  END
$$$$
