
     RDKit          3D

 26 27  0  0  0  0  0  0  0  0999 V2000
   -0.9793    1.7929    0.4297 O   0  0  0  0  0  0  0  0  0  0  0  0
   -1.2483    0.5917    0.4497 C   0  0  0  0  0  0  0  0  0  0  0  0
   -0.3466   -0.4443    1.1331 C   0  0  0  0  0  0  0  0  0  0  0  0
    0.7952    0.1233    1.7760 O   0  0  0  0  0  0  0  0  0  0  0  0
    1.9186    0.0017    1.0009 C   0  0  0  0  0  0  0  0  0  0  0  0
    2.3058    1.1054    0.2394 C   0  0  0  0  0  0  0  0  0  0  0  0
    3.4601    1.0410   -0.5416 C   0  0  0  0  0  0  0  0  0  0  0  0
    4.2358   -0.1189   -0.5485 C   0  0  0  0  0  0  0  0  0  0  0  0
    3.8628   -1.2151    0.2328 C   0  0  0  0  0  0  0  0  0  0  0  0
    2.7079   -1.1537    1.0153 C   0  0  0  0  0  0  0  0  0  0  0  0
    2.2905   -2.5208    1.9826 Cl  0  0  0  0  0  0  0  0  0  0  0  0
   -2.4542    0.0886   -0.1877 C   0  0  0  0  0  0  0  0  0  0  0  0
   -2.9660   -1.1930   -0.3046 C   0  0  0  0  0  0  0  0  0  0  0  0
   -4.1797   -1.1139   -1.0314 C   0  0  0  0  0  0  0  0  0  0  0  0
   -4.3847    0.2099   -1.3420 C   0  0  0  0  0  0  0  0  0  0  0  0
   -3.3398    0.9290   -0.8288 N   0  0  0  0  0  0  0  0  0  0  0  0
   -0.0727   -1.2128    0.3982 H   0  0  0  0  0  0  0  0  0  0  0  0
   -0.9361   -0.9275    1.9207 H   0  0  0  0  0  0  0  0  0  0  0  0
    1.7100    2.0153    0.2566 H   0  0  0  0  0  0  0  0  0  0  0  0
    3.7578    1.8998   -1.1388 H   0  0  0  0  0  0  0  0  0  0  0  0
    5.1376   -0.1654   -1.1545 H   0  0  0  0  0  0  0  0  0  0  0  0
    4.4804   -2.1094    0.2326 H   0  0  0  0  0  0  0  0  0  0  0  0
   -2.5235   -2.1004    0.0873 H   0  0  0  0  0  0  0  0  0  0  0  0
   -4.8336   -1.9347   -1.2983 H   0  0  0  0  0  0  0  0  0  0  0  0
   -5.1829    0.7018   -1.8821 H   0  0  0  0  0  0  0  0  0  0  0  0
   -3.2149    1.9327   -0.8967 H   0  0  0  0  0  0  0  0  0  0  0  0
  1  2  2  0
  2  3  1  0
  3  4  1  0
  4  5  1  0
  5  6  2  0
  6  7  1  0
  7  8  2  0
  8  9  1  0
  9 10  2  0
 10 11  1  0
  2 12  1  0
 12 13  2  0
 13 14  1  0
 14 15  2  0
 15 16  1  0
 10  5  1  0
 16 12  1  0
  3 17  1  0
  3 18  1  0
  6 19  1  0
  7 20  1  0
  8 21  1  0
  9 22  1  0
 13 23  1  0
 14 24  1  0
 15 25  1  0
 16 26  1  0
M  END
$$$$
