
     RDKit          3D

 53 56  0  0  0  0  0  0  0  0999 V2000
    5.9540    3.1258    0.7689 C   0  0  0  0  0  0  0  0  0  0  0  0
    5.2718    2.1817    1.5892 O   0  0  0  0  0  0  0  0  0  0  0  0
    4.5832    1.2050    0.9251 C   0  0  0  0  0  0  0  0  0  0  0  0
    4.3406    0.0427    1.6565 C   0  0  0  0  0  0  0  0  0  0  0  0
    3.6477   -1.0329    1.0868 C   0  0  0  0  0  0  0  0  0  0  0  0
    3.1708   -0.9457   -0.2196 C   0  0  0  0  0  0  0  0  0  0  0  0
    2.4418   -1.9620   -0.8672 N   0  0  0  0  0  0  0  0  0  0  0  0
    2.0345   -3.1827   -0.3526 C   0  0  0  0  0  0  0  0  0  0  0  0
    2.3205   -3.6341    0.7529 O   0  0  0  0  0  0  0  0  0  0  0  0
    1.1469   -3.9691   -1.3107 C   0  0  0  0  0  0  0  0  0  0  0  0
   -0.6011   -3.5065   -1.0908 S   0  0  0  0  0  0  0  0  0  0  0  0
   -0.5516   -1.8593   -1.6389 C   0  0  0  0  0  0  0  0  0  0  0  0
    0.2171   -1.4561   -2.6258 N   0  0  0  0  0  0  0  0  0  0  0  0
    0.2085   -0.0913   -2.6304 N   0  0  0  0  0  0  0  0  0  0  0  0
   -0.5855    0.3252   -1.6586 C   0  0  0  0  0  0  0  0  0  0  0  0
   -0.9786    1.7531   -1.4457 C   0  0  0  0  0  0  0  0  0  0  0  0
   -2.3934    2.0385   -1.8671 C   0  0  0  0  0  0  0  0  0  0  0  0
   -3.5242    2.1337   -1.0788 C   0  0  0  0  0  0  0  0  0  0  0  0
   -4.6967    2.4107   -1.8399 C   0  0  0  0  0  0  0  0  0  0  0  0
   -4.4218    2.5314   -3.1827 C   0  0  0  0  0  0  0  0  0  0  0  0
   -2.7613    2.3121   -3.5211 S   0  0  0  0  0  0  0  0  0  0  0  0
   -1.0731   -0.7737   -0.9571 N   0  0  0  0  0  0  0  0  0  0  0  0
   -1.8772   -0.7754    0.2095 C   0  0  0  0  0  0  0  0  0  0  0  0
   -2.9900   -1.6185    0.2922 C   0  0  0  0  0  0  0  0  0  0  0  0
   -3.7838   -1.6112    1.4422 C   0  0  0  0  0  0  0  0  0  0  0  0
   -3.4765   -0.7659    2.5149 C   0  0  0  0  0  0  0  0  0  0  0  0
   -4.3059   -0.7918    3.7657 C   0  0  0  0  0  0  0  0  0  0  0  0
   -2.3444    0.0531    2.4351 C   0  0  0  0  0  0  0  0  0  0  0  0
   -1.5471    0.0535    1.2876 C   0  0  0  0  0  0  0  0  0  0  0  0
    3.3994    0.2314   -0.9448 C   0  0  0  0  0  0  0  0  0  0  0  0
    4.1006    1.3029   -0.3786 C   0  0  0  0  0  0  0  0  0  0  0  0
    6.6250    3.7042    1.4115 H   0  0  0  0  0  0  0  0  0  0  0  0
    6.5673    2.6252    0.0108 H   0  0  0  0  0  0  0  0  0  0  0  0
    5.2473    3.8239    0.3082 H   0  0  0  0  0  0  0  0  0  0  0  0
    4.7072   -0.0394    2.6767 H   0  0  0  0  0  0  0  0  0  0  0  0
    3.4986   -1.9212    1.6941 H   0  0  0  0  0  0  0  0  0  0  0  0
    2.0881   -1.7188   -1.7936 H   0  0  0  0  0  0  0  0  0  0  0  0
    1.2581   -5.0341   -1.0845 H   0  0  0  0  0  0  0  0  0  0  0  0
    1.4669   -3.8255   -2.3479 H   0  0  0  0  0  0  0  0  0  0  0  0
   -0.8301    2.0568   -0.4063 H   0  0  0  0  0  0  0  0  0  0  0  0
   -0.2939    2.3909   -2.0222 H   0  0  0  0  0  0  0  0  0  0  0  0
   -3.5226    2.0018   -0.0037 H   0  0  0  0  0  0  0  0  0  0  0  0
   -5.6903    2.5150   -1.4207 H   0  0  0  0  0  0  0  0  0  0  0  0
   -5.1146    2.7416   -3.9855 H   0  0  0  0  0  0  0  0  0  0  0  0
   -3.2783   -2.2671   -0.5322 H   0  0  0  0  0  0  0  0  0  0  0  0
   -4.6460   -2.2750    1.4964 H   0  0  0  0  0  0  0  0  0  0  0  0
   -5.3398   -1.0760    3.5459 H   0  0  0  0  0  0  0  0  0  0  0  0
   -3.8867   -1.5103    4.4771 H   0  0  0  0  0  0  0  0  0  0  0  0
   -4.3333    0.1975    4.2346 H   0  0  0  0  0  0  0  0  0  0  0  0
   -2.0657    0.6849    3.2764 H   0  0  0  0  0  0  0  0  0  0  0  0
   -0.6481    0.6652    1.2857 H   0  0  0  0  0  0  0  0  0  0  0  0
    3.0264    0.3346   -1.9620 H   0  0  0  0  0  0  0  0  0  0  0  0
    4.2395    2.2009   -0.9745 H   0  0  0  0  0  0  0  0  0  0  0  0
  1  2  1  0
  2  3  1  0
  3  4  2  0
  4  5  1  0
  5  6  2  0
  6  7  1  0
  7  8  1  0
  8  9  2  0
  8 10  1  0
 10 11  1  0
 11 12  1  0
 12 13  2  0
 13 14  1  0
 14 15  2  0
 15 16  1  0
 16 17  1  0
 17 18  2  0
 18 19  1  0
 19 20  2  0
 20 21  1  0
 15 22  1  0
 22 23  1  0
 23 24  2  0
 24 25  1  0
 25 26  2  0
 26 27  1  0
 26 28  1  0
 28 29  2  0
  6 30  1  0
 30 31  2  0
 31  3  1  0
 22 12  1  0
 29 23  1  0
 21 17  1  0
  1 32  1  0
  1 33  1  0
  1 34  1  0
  4 35  1  0
  5 36  1  0
  7 37  1  0
 10 38  1  0
 10 39  1  0
 16 40  1  0
 16 41  1  0
 18 42  1  0
 19 43  1  0
 20 44  1  0
 24 45  1  0
 25 46  1  0
 27 47  1  0
 27 48  1  0
 27 49  1  0
 28 50  1  0
 29 51  1  0
 30 52  1  0
 31 53  1  0
M  END
$$$$
