
     RDKit          3D

 57 60  0  0  0  0  0  0  0  0999 V2000
   -1.9213    1.0776    3.8858 C   0  0  0  0  0  0  0  0  0  0  0  0
   -1.8220   -0.0781    3.0630 O   0  0  0  0  0  0  0  0  0  0  0  0
   -0.5859   -0.4203    2.5934 C   0  0  0  0  0  0  0  0  0  0  0  0
    0.6110    0.0642    3.1344 C   0  0  0  0  0  0  0  0  0  0  0  0
    1.8476   -0.3318    2.6099 C   0  0  0  0  0  0  0  0  0  0  0  0
    1.9019   -1.2257    1.5375 C   0  0  0  0  0  0  0  0  0  0  0  0
    3.1942   -1.6668    0.9498 C   0  0  0  0  0  0  0  0  0  0  0  0
    3.2975   -2.7872    0.4686 O   0  0  0  0  0  0  0  0  0  0  0  0
    4.2059   -0.7292    0.9446 N   0  0  0  0  0  0  0  0  0  0  0  0
    5.4207   -0.9561    0.1922 C   0  0  0  0  0  0  0  0  0  0  0  0
    5.3200   -0.3270   -1.1766 C   0  0  0  0  0  0  0  0  0  0  0  0
    5.8695    0.9531   -1.4253 C   0  0  0  0  0  0  0  0  0  0  0  0
    5.7521    1.5540   -2.6826 C   0  0  0  0  0  0  0  0  0  0  0  0
    5.0762    0.8621   -3.6642 C   0  0  0  0  0  0  0  0  0  0  0  0
    4.5320   -0.3788   -3.4314 C   0  0  0  0  0  0  0  0  0  0  0  0
    4.6362   -0.9989   -2.2045 C   0  0  0  0  0  0  0  0  0  0  0  0
    3.9035   -0.8835   -4.5265 O   0  0  0  0  0  0  0  0  0  0  0  0
    4.1115    0.1835   -5.4745 C   0  0  0  0  0  0  0  0  0  0  0  0
    4.8626    1.2926   -4.9369 O   0  0  0  0  0  0  0  0  0  0  0  0
    0.7175   -1.7385    1.0050 C   0  0  0  0  0  0  0  0  0  0  0  0
   -0.5180   -1.3303    1.5288 C   0  0  0  0  0  0  0  0  0  0  0  0
   -1.9991   -1.9837    0.7971 S   0  0  0  0  0  6  0  0  0  0  0  0
   -1.6292   -2.6896   -0.4138 O   0  0  0  0  0  0  0  0  0  0  0  0
   -2.7449   -2.6581    1.8367 O   0  0  0  0  0  0  0  0  0  0  0  0
   -2.8613   -0.6028    0.2900 N   0  0  0  0  0  0  0  0  0  0  0  0
   -2.1894    0.2252   -0.7334 C   0  0  0  0  0  0  0  0  0  0  0  0
   -4.2749   -0.8927   -0.0637 C   0  0  0  0  0  0  0  0  0  0  0  0
   -5.2002    0.2185    0.3846 C   0  0  0  0  0  0  0  0  0  0  0  0
   -5.3693    0.4683    1.7554 C   0  0  0  0  0  0  0  0  0  0  0  0
   -6.2289    1.4776    2.1919 C   0  0  0  0  0  0  0  0  0  0  0  0
   -6.9229    2.2528    1.2622 C   0  0  0  0  0  0  0  0  0  0  0  0
   -6.7584    2.0160   -0.1007 C   0  0  0  0  0  0  0  0  0  0  0  0
   -5.9024    1.0025   -0.5403 C   0  0  0  0  0  0  0  0  0  0  0  0
   -1.4829    0.8935    4.8722 H   0  0  0  0  0  0  0  0  0  0  0  0
   -1.4642    1.9493    3.4052 H   0  0  0  0  0  0  0  0  0  0  0  0
   -2.9835    1.2967    4.0308 H   0  0  0  0  0  0  0  0  0  0  0  0
    0.6164    0.7387    3.9850 H   0  0  0  0  0  0  0  0  0  0  0  0
    2.7584    0.0386    3.0728 H   0  0  0  0  0  0  0  0  0  0  0  0
    3.9744    0.2337    1.1445 H   0  0  0  0  0  0  0  0  0  0  0  0
    6.2423   -0.5067    0.7617 H   0  0  0  0  0  0  0  0  0  0  0  0
    5.6327   -2.0287    0.1028 H   0  0  0  0  0  0  0  0  0  0  0  0
    6.3945    1.4858   -0.6362 H   0  0  0  0  0  0  0  0  0  0  0  0
    6.1755    2.5322   -2.8826 H   0  0  0  0  0  0  0  0  0  0  0  0
    4.1915   -1.9775   -2.0415 H   0  0  0  0  0  0  0  0  0  0  0  0
    4.6478   -0.2158   -6.3424 H   0  0  0  0  0  0  0  0  0  0  0  0
    3.1335    0.5525   -5.8042 H   0  0  0  0  0  0  0  0  0  0  0  0
    0.7640   -2.4508    0.1833 H   0  0  0  0  0  0  0  0  0  0  0  0
   -2.0661   -0.3272   -1.6702 H   0  0  0  0  0  0  0  0  0  0  0  0
   -2.7782    1.1248   -0.9414 H   0  0  0  0  0  0  0  0  0  0  0  0
   -1.2121    0.5651   -0.3804 H   0  0  0  0  0  0  0  0  0  0  0  0
   -4.6315   -1.8147    0.4111 H   0  0  0  0  0  0  0  0  0  0  0  0
   -4.3637   -1.0589   -1.1457 H   0  0  0  0  0  0  0  0  0  0  0  0
   -4.8291   -0.1330    2.4852 H   0  0  0  0  0  0  0  0  0  0  0  0
   -6.3593    1.6532    3.2571 H   0  0  0  0  0  0  0  0  0  0  0  0
   -7.5957    3.0364    1.6033 H   0  0  0  0  0  0  0  0  0  0  0  0
   -7.3027    2.6186   -0.8237 H   0  0  0  0  0  0  0  0  0  0  0  0
   -5.7938    0.8254   -1.6078 H   0  0  0  0  0  0  0  0  0  0  0  0
  1  2  1  0
  2  3  1  0
  3  4  2  0
  4  5  1  0
  5  6  2  0
  6  7  1  0
  7  8  2  0
  7  9  1  0
  9 10  1  0
 10 11  1  0
 11 12  2  0
 12 13  1  0
 13 14  2  0
 14 15  1  0
 15 16  2  0
 15 17  1  0
 17 18  1  0
 18 19  1  0
  6 20  1  0
 20 21  2  0
 21 22  1  0
 22 23  2  0
 22 24  2  0
 22 25  1  0
 25 26  1  0
 25 27  1  0
 27 28  1  0
 28 29  2  0
 29 30  1  0
 30 31  2  0
 31 32  1  0
 32 33  2  0
 21  3  1  0
 33 28  1  0
 16 11  1  0
 19 14  1  0
  1 34  1  0
  1 35  1  0
  1 36  1  0
  4 37  1  0
  5 38  1  0
  9 39  1  0
 10 40  1  0
 10 41  1  0
 12 42  1  0
 13 43  1  0
 16 44  1  0
 18 45  1  0
 18 46  1  0
 20 47  1  0
 26 48  1  0
 26 49  1  0
 26 50  1  0
 27 51  1  0
 27 52  1  0
 29 53  1  0
 30 54  1  0
 31 55  1  0
 32 56  1  0
 33 57  1  0
M  END
$$$$
