
     RDKit          3D

 45 46  0  0  0  0  0  0  0  0999 V2000
    7.1253    1.2495    1.8349 C   0  0  0  0  0  0  0  0  0  0  0  0
    6.0254    1.6164    1.0099 O   0  0  0  0  0  0  0  0  0  0  0  0
    5.0984    0.6450    0.7510 C   0  0  0  0  0  0  0  0  0  0  0  0
    4.0453    1.0508   -0.0742 C   0  0  0  0  0  0  0  0  0  0  0  0
    3.0207    0.1635   -0.4185 C   0  0  0  0  0  0  0  0  0  0  0  0
    3.0341   -1.1453    0.0766 C   0  0  0  0  0  0  0  0  0  0  0  0
    1.9633   -2.1174   -0.2566 C   0  0  0  0  0  0  0  0  0  0  0  0
    2.2281   -3.3188   -0.2774 O   0  0  0  0  0  0  0  0  0  0  0  0
    0.5769   -1.6752   -0.5478 C   0  0  0  0  0  0  0  0  0  0  0  0
   -0.0394   -0.6916    0.1255 C   0  0  0  0  0  0  0  0  0  0  0  0
   -1.4280   -0.2812   -0.1325 C   0  0  0  0  0  0  0  0  0  0  0  0
   -2.4485   -1.2194   -0.3532 C   0  0  0  0  0  0  0  0  0  0  0  0
   -3.7640   -0.8030   -0.5726 C   0  0  0  0  0  0  0  0  0  0  0  0
   -4.8233   -1.6423   -0.8036 O   0  0  0  0  0  0  0  0  0  0  0  0
   -4.5381   -3.0201   -1.0016 C   0  0  0  0  0  0  0  0  0  0  0  0
   -4.0546    0.5711   -0.5385 C   0  0  0  0  0  0  0  0  0  0  0  0
   -5.3403    0.9955   -0.7964 O   0  0  0  0  0  0  0  0  0  0  0  0
   -6.0742    1.0833    0.4237 C   0  0  0  0  0  0  0  0  0  0  0  0
   -3.0471    1.5259   -0.3218 C   0  0  0  0  0  0  0  0  0  0  0  0
   -3.4436    2.8383   -0.3238 O   0  0  0  0  0  0  0  0  0  0  0  0
   -2.4294    3.8313   -0.2668 C   0  0  0  0  0  0  0  0  0  0  0  0
   -1.7385    1.0871   -0.1052 C   0  0  0  0  0  0  0  0  0  0  0  0
    4.1125   -1.5569    0.8730 C   0  0  0  0  0  0  0  0  0  0  0  0
    4.2378   -2.8361    1.3511 O   0  0  0  0  0  0  0  0  0  0  0  0
    5.1307   -0.6670    1.2215 C   0  0  0  0  0  0  0  0  0  0  0  0
    7.7210    0.4575    1.3691 H   0  0  0  0  0  0  0  0  0  0  0  0
    6.7881    0.9562    2.8346 H   0  0  0  0  0  0  0  0  0  0  0  0
    7.7679    2.1283    1.9449 H   0  0  0  0  0  0  0  0  0  0  0  0
    4.0290    2.0688   -0.4583 H   0  0  0  0  0  0  0  0  0  0  0  0
    2.2349    0.5103   -1.0839 H   0  0  0  0  0  0  0  0  0  0  0  0
    0.0689   -2.2731   -1.2978 H   0  0  0  0  0  0  0  0  0  0  0  0
    0.4710   -0.1387    0.9112 H   0  0  0  0  0  0  0  0  0  0  0  0
   -2.2005   -2.2757   -0.3353 H   0  0  0  0  0  0  0  0  0  0  0  0
   -5.4759   -3.5221   -1.2582 H   0  0  0  0  0  0  0  0  0  0  0  0
   -4.1575   -3.4772   -0.0825 H   0  0  0  0  0  0  0  0  0  0  0  0
   -3.8430   -3.1672   -1.8349 H   0  0  0  0  0  0  0  0  0  0  0  0
   -7.0853    1.4242    0.1816 H   0  0  0  0  0  0  0  0  0  0  0  0
   -5.6273    1.8130    1.1078 H   0  0  0  0  0  0  0  0  0  0  0  0
   -6.1559    0.1066    0.9130 H   0  0  0  0  0  0  0  0  0  0  0  0
   -2.9124    4.8087   -0.3608 H   0  0  0  0  0  0  0  0  0  0  0  0
   -1.9119    3.8081    0.6977 H   0  0  0  0  0  0  0  0  0  0  0  0
   -1.7236    3.7276   -1.0976 H   0  0  0  0  0  0  0  0  0  0  0  0
   -0.9396    1.7974    0.0825 H   0  0  0  0  0  0  0  0  0  0  0  0
    3.5882   -3.4019    0.8755 H   0  0  0  0  0  0  0  0  0  0  0  0
    5.9347   -1.0342    1.8503 H   0  0  0  0  0  0  0  0  0  0  0  0
  1  2  1  0
  2  3  1  0
  3  4  2  0
  4  5  1  0
  5  6  2  0
  6  7  1  0
  7  8  2  0
  7  9  1  0
  9 10  2  0
 10 11  1  0
 11 12  2  0
 12 13  1  0
 13 14  1  0
 14 15  1  0
 13 16  2  0
 16 17  1  0
 17 18  1  0
 16 19  1  0
 19 20  1  0
 20 21  1  0
 19 22  2  0
  6 23  1  0
 23 24  1  0
 23 25  2  0
 25  3  1  0
 22 11  1  0
  1 26  1  0
  1 27  1  0
  1 28  1  0
  4 29  1  0
  5 30  1  0
  9 31  1  0
 10 32  1  0
 12 33  1  0
 15 34  1  0
 15 35  1  0
 15 36  1  0
 18 37  1  0
 18 38  1  0
 18 39  1  0
 21 40  1  0
 21 41  1  0
 21 42  1  0
 22 43  1  0
 24 44  1  0
 25 45  1  0
M  END
$$$$
