
     RDKit          3D

 56 61  0  0  0  0  0  0  0  0999 V2000
    9.6215    2.2755   -1.1198 C   0  0  0  0  0  0  0  0  0  0  0  0
    8.2073    2.2044   -1.2527 O   0  0  0  0  0  0  0  0  0  0  0  0
    7.5758    1.1618   -0.6324 C   0  0  0  0  0  0  0  0  0  0  0  0
    8.1887    0.1676    0.1223 C   0  0  0  0  0  0  0  0  0  0  0  0
    7.4137   -0.8391    0.6997 C   0  0  0  0  0  0  0  0  0  0  0  0
    6.0211   -0.8572    0.5258 C   0  0  0  0  0  0  0  0  0  0  0  0
    5.2372   -1.8675    1.1053 C   0  0  0  0  0  0  0  0  0  0  0  0
    3.8544   -1.8203    0.8904 C   0  0  0  0  0  0  0  0  0  0  0  0
    2.7310   -2.5971    1.2633 C   0  0  0  0  0  0  0  0  0  0  0  0
    1.6169   -1.9813    0.7184 C   0  0  0  0  0  0  0  0  0  0  0  0
    0.2224   -2.3879    0.7474 C   0  0  0  0  0  0  0  0  0  0  0  0
   -0.0792   -3.5631    0.9663 O   0  0  0  0  0  0  0  0  0  0  0  0
   -0.7713   -1.4314    0.4953 N   0  0  0  0  0  0  0  0  0  0  0  0
   -2.1511   -1.9135    0.4266 C   0  0  0  0  0  0  0  0  0  0  0  0
   -3.0737   -0.9404   -0.3307 C   0  0  0  0  0  0  0  0  0  0  0  0
   -3.0016    0.4377    0.2053 N   0  0  0  0  0  0  0  0  0  0  0  0
   -3.8527    1.3614   -0.5629 C   0  0  0  0  0  0  0  0  0  0  0  0
   -5.3338    1.1037   -0.3732 C   0  0  0  0  0  0  0  0  0  0  0  0
   -6.1569    0.8103   -1.4856 C   0  0  0  0  0  0  0  0  0  0  0  0
   -7.5270    0.5781   -1.3260 C   0  0  0  0  0  0  0  0  0  0  0  0
   -8.0452    0.6477   -0.0514 C   0  0  0  0  0  0  0  0  0  0  0  0
   -7.2560    0.9350    1.0367 C   0  0  0  0  0  0  0  0  0  0  0  0
   -5.9033    1.1686    0.9109 C   0  0  0  0  0  0  0  0  0  0  0  0
   -7.9619    0.9557    2.1989 O   0  0  0  0  0  0  0  0  0  0  0  0
   -9.2851    0.6442    1.7171 C   0  0  0  0  0  0  0  0  0  0  0  0
   -9.3472    0.4511    0.2886 O   0  0  0  0  0  0  0  0  0  0  0  0
   -1.5966    0.8979    0.1729 C   0  0  0  0  0  0  0  0  0  0  0  0
   -0.6611   -0.0417    0.9543 C   0  0  0  0  0  0  0  0  0  0  0  0
    2.0118   -0.8882   -0.0045 O   0  0  0  0  0  0  0  0  0  0  0  0
    3.3624   -0.7797    0.1136 C   0  0  0  0  0  0  0  0  0  0  0  0
    4.0664    0.2084   -0.4585 N   0  0  0  0  0  0  0  0  0  0  0  0
    5.3874    0.1499   -0.2411 C   0  0  0  0  0  0  0  0  0  0  0  0
    6.1865    1.1360   -0.8011 C   0  0  0  0  0  0  0  0  0  0  0  0
    9.9653    3.1560   -1.6711 H   0  0  0  0  0  0  0  0  0  0  0  0
    9.9132    2.4035   -0.0721 H   0  0  0  0  0  0  0  0  0  0  0  0
   10.1039    1.3969   -1.5605 H   0  0  0  0  0  0  0  0  0  0  0  0
    9.2617    0.1448    0.2812 H   0  0  0  0  0  0  0  0  0  0  0  0
    7.9070   -1.6107    1.2874 H   0  0  0  0  0  0  0  0  0  0  0  0
    5.6777   -2.6610    1.7003 H   0  0  0  0  0  0  0  0  0  0  0  0
    2.7155   -3.5022    1.8552 H   0  0  0  0  0  0  0  0  0  0  0  0
   -2.5054   -2.0547    1.4555 H   0  0  0  0  0  0  0  0  0  0  0  0
   -2.1767   -2.8909   -0.0688 H   0  0  0  0  0  0  0  0  0  0  0  0
   -4.0962   -1.3275   -0.2563 H   0  0  0  0  0  0  0  0  0  0  0  0
   -2.7962   -0.9453   -1.3935 H   0  0  0  0  0  0  0  0  0  0  0  0
   -3.5925    1.3335   -1.6294 H   0  0  0  0  0  0  0  0  0  0  0  0
   -3.6747    2.3935   -0.2314 H   0  0  0  0  0  0  0  0  0  0  0  0
   -5.7273    0.7593   -2.4840 H   0  0  0  0  0  0  0  0  0  0  0  0
   -8.1620    0.3509   -2.1746 H   0  0  0  0  0  0  0  0  0  0  0  0
   -5.2960    1.3873    1.7832 H   0  0  0  0  0  0  0  0  0  0  0  0
   -9.9591    1.4647    1.9890 H   0  0  0  0  0  0  0  0  0  0  0  0
   -9.6310   -0.2719    2.2097 H   0  0  0  0  0  0  0  0  0  0  0  0
   -1.2439    0.9728   -0.8645 H   0  0  0  0  0  0  0  0  0  0  0  0
   -1.5262    1.8971    0.6193 H   0  0  0  0  0  0  0  0  0  0  0  0
   -0.9291   -0.0376    2.0191 H   0  0  0  0  0  0  0  0  0  0  0  0
    0.3581    0.3381    0.8964 H   0  0  0  0  0  0  0  0  0  0  0  0
    5.7134    1.9166   -1.3937 H   0  0  0  0  0  0  0  0  0  0  0  0
  1  2  1  0
  2  3  1  0
  3  4  2  0
  4  5  1  0
  5  6  2  0
  6  7  1  0
  7  8  2  0
  8  9  1  0
  9 10  2  0
 10 11  1  0
 11 12  2  0
 11 13  1  0
 13 14  1  0
 14 15  1  0
 15 16  1  0
 16 17  1  0
 17 18  1  0
 18 19  2  0
 19 20  1  0
 20 21  2  0
 21 22  1  0
 22 23  2  0
 22 24  1  0
 24 25  1  0
 25 26  1  0
 16 27  1  0
 27 28  1  0
 10 29  1  0
 29 30  1  0
 30 31  2  0
 31 32  1  0
 32 33  2  0
 33  3  1  0
 32  6  1  0
 30  8  1  0
 28 13  1  0
 23 18  1  0
 26 21  1  0
  1 34  1  0
  1 35  1  0
  1 36  1  0
  4 37  1  0
  5 38  1  0
  7 39  1  0
  9 40  1  0
 14 41  1  0
 14 42  1  0
 15 43  1  0
 15 44  1  0
 17 45  1  0
 17 46  1  0
 19 47  1  0
 20 48  1  0
 23 49  1  0
 25 50  1  0
 25 51  1  0
 27 52  1  0
 27 53  1  0
 28 54  1  0
 28 55  1  0
 33 56  1  0
M  END
$$$$
