
     RDKit          3D

 23 24  0  0  0  0  0  0  0  0999 V2000
    0.2042    2.2130    0.4924 O   0  0  0  0  0  0  0  0  0  0  0  0
    1.2372    1.6484    0.1928 C   0  0  0  0  0  0  0  0  0  0  0  0
    2.4873    2.1574    0.4009 O   0  0  0  0  0  0  0  0  0  0  0  0
    3.4687    1.1746    0.0732 C   0  0  0  0  0  0  0  0  0  0  0  0
    2.8165    0.2552   -0.9254 C   0  0  0  0  0  0  0  0  0  0  0  0
    1.3985    0.3372   -0.4894 C   0  0  0  0  0  0  0  0  0  0  0  0
    0.4931   -0.6396   -0.6521 C   0  0  0  0  0  0  0  0  0  0  0  0
   -0.9048   -0.6408   -0.2113 C   0  0  0  0  0  0  0  0  0  0  0  0
   -1.3430   -1.6474    0.6581 C   0  0  0  0  0  0  0  0  0  0  0  0
   -2.6792   -1.7023    1.0616 C   0  0  0  0  0  0  0  0  0  0  0  0
   -3.5886   -0.7567    0.5920 C   0  0  0  0  0  0  0  0  0  0  0  0
   -3.1635    0.2414   -0.2827 C   0  0  0  0  0  0  0  0  0  0  0  0
   -1.8278    0.2955   -0.6881 C   0  0  0  0  0  0  0  0  0  0  0  0
    4.3520    1.6657   -0.3464 H   0  0  0  0  0  0  0  0  0  0  0  0
    3.7635    0.6542    0.9918 H   0  0  0  0  0  0  0  0  0  0  0  0
    2.9117    0.6569   -1.9405 H   0  0  0  0  0  0  0  0  0  0  0  0
    3.2440   -0.7507   -0.8970 H   0  0  0  0  0  0  0  0  0  0  0  0
    0.7959   -1.5626   -1.1435 H   0  0  0  0  0  0  0  0  0  0  0  0
   -0.6470   -2.3932    1.0343 H   0  0  0  0  0  0  0  0  0  0  0  0
   -3.0091   -2.4808    1.7442 H   0  0  0  0  0  0  0  0  0  0  0  0
   -4.6271   -0.7943    0.9097 H   0  0  0  0  0  0  0  0  0  0  0  0
   -3.8684    0.9844   -0.6461 H   0  0  0  0  0  0  0  0  0  0  0  0
   -1.5141    1.0845   -1.3676 H   0  0  0  0  0  0  0  0  0  0  0  0
  1  2  2  0
  2  3  1  0
  3  4  1  0
  4  5  1  0
  5  6  1  0
  6  7  2  3
  7  8  1  0
  8  9  2  0
  9 10  1  0
 10 11  2  0
 11 12  1  0
 12 13  2  0
  6  2  1  0
 13  8  1  0
  4 14  1  0
  4 15  1  0
  5 16  1  0
  5 17  1  0
  7 18  1  0
  9 19  1  0
 10 20  1  0
 11 21  1  0
 12 22  1  0
 13 23  1  0
M  END
$$$$
