
     RDKit          3D

 33 33  0  0  0  0  0  0  0  0999 V2000
   -2.3246    0.9877   -2.3817 C   0  0  0  0  0  0  0  0  0  0  0  0
   -2.6410    1.0119   -0.9070 C   0  0  0  0  0  0  0  0  0  0  0  0
   -3.5045    1.7610   -0.4621 O   0  0  0  0  0  0  0  0  0  0  0  0
   -1.8421    0.1495   -0.1866 N   0  0  0  0  0  0  0  0  0  0  0  0
   -1.8540   -0.0953    1.2033 C   0  0  0  0  0  0  0  0  0  0  0  0
   -2.7604    0.4923    2.0871 C   0  0  0  0  0  0  0  0  0  0  0  0
   -2.7212    0.1859    3.4529 C   0  0  0  0  0  0  0  0  0  0  0  0
   -1.7818   -0.7173    3.9487 C   0  0  0  0  0  0  0  0  0  0  0  0
   -0.8703   -1.3123    3.0810 C   0  0  0  0  0  0  0  0  0  0  0  0
   -0.8982   -0.9856    1.7232 C   0  0  0  0  0  0  0  0  0  0  0  0
   -0.0042   -1.6061    0.8860 O   0  0  0  0  0  0  0  0  0  0  0  0
    1.2443   -0.9135    0.8596 C   0  0  0  0  0  0  0  0  0  0  0  0
    1.4974   -0.3050   -0.5215 C   0  0  0  0  0  0  0  0  0  0  0  0
    0.6631   -0.3050   -1.4243 O   0  0  0  0  0  0  0  0  0  0  0  0
    2.7418    0.2760   -0.6652 N   0  0  0  0  0  0  0  0  0  0  0  0
    3.1737    0.7923   -1.9675 C   0  0  0  0  0  0  0  0  0  0  0  0
    3.7432   -0.2588   -2.9247 C   0  0  0  0  0  0  0  0  0  0  0  0
    2.8420   -1.2030   -3.2583 F   0  0  0  0  0  0  0  0  0  0  0  0
    4.1815    0.3204   -4.0650 F   0  0  0  0  0  0  0  0  0  0  0  0
    4.8030   -0.8837   -2.3554 F   0  0  0  0  0  0  0  0  0  0  0  0
   -3.1899    1.3491   -2.9448 H   0  0  0  0  0  0  0  0  0  0  0  0
   -1.4666    1.6356   -2.5791 H   0  0  0  0  0  0  0  0  0  0  0  0
   -2.1037   -0.0299   -2.7166 H   0  0  0  0  0  0  0  0  0  0  0  0
   -1.1217   -0.3512   -0.7101 H   0  0  0  0  0  0  0  0  0  0  0  0
   -3.5199    1.1879    1.7438 H   0  0  0  0  0  0  0  0  0  0  0  0
   -3.4392    0.6489    4.1260 H   0  0  0  0  0  0  0  0  0  0  0  0
   -1.7696   -0.9624    5.0075 H   0  0  0  0  0  0  0  0  0  0  0  0
   -0.1500   -2.0318    3.4579 H   0  0  0  0  0  0  0  0  0  0  0  0
    1.3187   -0.1162    1.6112 H   0  0  0  0  0  0  0  0  0  0  0  0
    2.0311   -1.6494    1.0584 H   0  0  0  0  0  0  0  0  0  0  0  0
    3.4556    0.0842    0.0287 H   0  0  0  0  0  0  0  0  0  0  0  0
    3.9405    1.5459   -1.7608 H   0  0  0  0  0  0  0  0  0  0  0  0
    2.3272    1.2979   -2.4446 H   0  0  0  0  0  0  0  0  0  0  0  0
  1  2  1  0
  2  3  2  0
  2  4  1  0
  4  5  1  0
  5  6  2  0
  6  7  1  0
  7  8  2  0
  8  9  1  0
  9 10  2  0
 10 11  1  0
 11 12  1  0
 12 13  1  0
 13 14  2  0
 13 15  1  0
 15 16  1  0
 16 17  1  0
 17 18  1  0
 17 19  1  0
 17 20  1  0
 10  5  1  0
  1 21  1  0
  1 22  1  0
  1 23  1  0
  4 24  1  0
  6 25  1  0
  7 26  1  0
  8 27  1  0
  9 28  1  0
 12 29  1  0
 12 30  1  0
 15 31  1  0
 16 32  1  0
 16 33  1  0
M  END
$$$$
