
     RDKit          3D

 49 52  0  0  0  0  0  0  0  0999 V2000
    2.2107   -0.0974    2.2711 C   0  0  0  0  0  0  0  0  0  0  0  0
    3.3493   -0.7565    1.5472 C   0  0  0  0  0  0  0  0  0  0  0  0
    4.0747   -1.7471    2.2327 C   0  0  0  0  0  0  0  0  0  0  0  0
    5.1237   -2.4130    1.6099 C   0  0  0  0  0  0  0  0  0  0  0  0
    5.9955   -3.6175    2.4614 Cl  0  0  0  0  0  0  0  0  0  0  0  0
    5.4669   -2.1050    0.3017 C   0  0  0  0  0  0  0  0  0  0  0  0
    4.7451   -1.1321   -0.3958 C   0  0  0  0  0  0  0  0  0  0  0  0
    3.6795   -0.4513    0.2064 C   0  0  0  0  0  0  0  0  0  0  0  0
    2.9409    0.5447   -0.4803 N   0  0  0  0  0  0  0  0  0  0  0  0
    3.0210    0.8848   -1.8224 C   0  0  0  0  0  0  0  0  0  0  0  0
    3.7090    0.3283   -2.6750 O   0  0  0  0  0  0  0  0  0  0  0  0
    2.1623    2.0797   -2.1971 C   0  0  0  0  0  0  0  0  0  0  0  0
    0.4713    1.5646   -2.6053 S   0  0  0  0  0  0  0  0  0  0  0  0
   -0.2095    1.3864   -1.0291 C   0  0  0  0  0  0  0  0  0  0  0  0
    0.3403    1.8108    0.0838 N   0  0  0  0  0  0  0  0  0  0  0  0
   -0.5051    1.4992    1.1125 N   0  0  0  0  0  0  0  0  0  0  0  0
   -1.5551    0.8799    0.6129 C   0  0  0  0  0  0  0  0  0  0  0  0
   -2.7112    0.3647    1.4076 C   0  0  0  0  0  0  0  0  0  0  0  0
   -3.8448    1.3464    1.4997 C   0  0  0  0  0  0  0  0  0  0  0  0
   -5.0419    1.3584    0.8094 C   0  0  0  0  0  0  0  0  0  0  0  0
   -5.8751    2.4516    1.1810 C   0  0  0  0  0  0  0  0  0  0  0  0
   -5.2958    3.2306    2.1557 C   0  0  0  0  0  0  0  0  0  0  0  0
   -3.7605    2.6467    2.6156 S   0  0  0  0  0  0  0  0  0  0  0  0
   -1.4007    0.7762   -0.7557 N   0  0  0  0  0  0  0  0  0  0  0  0
   -2.3178    0.1645   -1.6960 C   0  0  0  0  0  0  0  0  0  0  0  0
   -2.0265   -1.2836   -1.8467 C   0  0  0  0  0  0  0  0  0  0  0  0
   -2.5937   -2.4345   -1.3383 C   0  0  0  0  0  0  0  0  0  0  0  0
   -1.8380   -3.5134   -1.8543 C   0  0  0  0  0  0  0  0  0  0  0  0
   -0.8649   -2.9557   -2.6474 C   0  0  0  0  0  0  0  0  0  0  0  0
   -0.9766   -1.6067   -2.6540 O   0  0  0  0  0  0  0  0  0  0  0  0
    2.3036    0.9877    2.2293 H   0  0  0  0  0  0  0  0  0  0  0  0
    2.1874   -0.3741    3.3315 H   0  0  0  0  0  0  0  0  0  0  0  0
    1.2628   -0.4125    1.8252 H   0  0  0  0  0  0  0  0  0  0  0  0
    3.8158   -2.0009    3.2569 H   0  0  0  0  0  0  0  0  0  0  0  0
    6.2886   -2.6128   -0.1927 H   0  0  0  0  0  0  0  0  0  0  0  0
    5.0520   -0.9278   -1.4159 H   0  0  0  0  0  0  0  0  0  0  0  0
    2.2040    1.0055    0.0482 H   0  0  0  0  0  0  0  0  0  0  0  0
    2.1851    2.8382   -1.4098 H   0  0  0  0  0  0  0  0  0  0  0  0
    2.6057    2.5389   -3.0852 H   0  0  0  0  0  0  0  0  0  0  0  0
   -2.3598    0.1159    2.4184 H   0  0  0  0  0  0  0  0  0  0  0  0
   -3.0732   -0.5785    0.9901 H   0  0  0  0  0  0  0  0  0  0  0  0
   -5.3217    0.6122    0.0718 H   0  0  0  0  0  0  0  0  0  0  0  0
   -6.8563    2.6540    0.7628 H   0  0  0  0  0  0  0  0  0  0  0  0
   -5.6952    4.1152    2.6321 H   0  0  0  0  0  0  0  0  0  0  0  0
   -2.2536    0.6882   -2.6562 H   0  0  0  0  0  0  0  0  0  0  0  0
   -3.3398    0.3171   -1.3306 H   0  0  0  0  0  0  0  0  0  0  0  0
   -3.4447   -2.4948   -0.6758 H   0  0  0  0  0  0  0  0  0  0  0  0
   -1.9797   -4.5678   -1.6693 H   0  0  0  0  0  0  0  0  0  0  0  0
   -0.0538   -3.3598   -3.2422 H   0  0  0  0  0  0  0  0  0  0  0  0
  1  2  1  0
  2  3  2  0
  3  4  1  0
  4  5  1  0
  4  6  2  0
  6  7  1  0
  7  8  2  0
  8  9  1  0
  9 10  1  0
 10 11  2  0
 10 12  1  0
 12 13  1  0
 13 14  1  0
 14 15  2  0
 15 16  1  0
 16 17  2  0
 17 18  1  0
 18 19  1  0
 19 20  2  0
 20 21  1  0
 21 22  2  0
 22 23  1  0
 17 24  1  0
 24 25  1  0
 25 26  1  0
 26 27  2  0
 27 28  1  0
 28 29  2  0
 29 30  1  0
  8  2  1  0
 24 14  1  0
 30 26  1  0
 23 19  1  0
  1 31  1  0
  1 32  1  0
  1 33  1  0
  3 34  1  0
  6 35  1  0
  7 36  1  0
  9 37  1  0
 12 38  1  0
 12 39  1  0
 18 40  1  0
 18 41  1  0
 20 42  1  0
 21 43  1  0
 22 44  1  0
 25 45  1  0
 25 46  1  0
 27 47  1  0
 28 48  1  0
 29 49  1  0
M  END
$$$$
