
     RDKit          3D

 40 41  0  0  0  0  0  0  0  0999 V2000
    5.9944    0.4227   -1.7484 C   0  0  0  0  0  0  0  0  0  0  0  0
    6.1076    1.8421   -0.6315 S   0  0  0  0  0  0  0  0  0  0  0  0
    5.7711    1.0069    0.9507 C   0  0  0  0  0  0  0  0  0  0  0  0
    4.3615    0.4811    1.0619 C   0  0  0  0  0  0  0  0  0  0  0  0
    3.2777    1.3642    1.1854 C   0  0  0  0  0  0  0  0  0  0  0  0
    1.9700    0.8805    1.2891 C   0  0  0  0  0  0  0  0  0  0  0  0
    1.7295   -0.4978    1.2636 C   0  0  0  0  0  0  0  0  0  0  0  0
    0.3566   -1.0645    1.3685 C   0  0  0  0  0  0  0  0  0  0  0  0
    0.1857   -2.1905    1.8208 O   0  0  0  0  0  0  0  0  0  0  0  0
   -0.6722   -0.2768    0.8950 N   0  0  0  0  0  0  0  0  0  0  0  0
   -2.0483   -0.7474    0.8969 C   0  0  0  0  0  0  0  0  0  0  0  0
   -2.3178   -1.7617   -0.2171 C   0  0  0  0  0  0  0  0  0  0  0  0
   -4.0790   -2.2529   -0.2865 S   0  0  0  0  0  0  0  0  0  0  0  0
   -4.8118   -0.7563   -0.9194 C   0  0  0  0  0  0  0  0  0  0  0  0
   -4.4684   -0.2530   -2.1785 C   0  0  0  0  0  0  0  0  0  0  0  0
   -5.0602    0.9200   -2.6552 C   0  0  0  0  0  0  0  0  0  0  0  0
   -6.0035    1.5848   -1.8742 C   0  0  0  0  0  0  0  0  0  0  0  0
   -6.8034    3.1718   -2.5171 Br  0  0  0  0  0  0  0  0  0  0  0  0
   -6.3650    1.0844   -0.6252 C   0  0  0  0  0  0  0  0  0  0  0  0
   -5.7721   -0.0891   -0.1516 C   0  0  0  0  0  0  0  0  0  0  0  0
    2.8076   -1.3844    1.1611 C   0  0  0  0  0  0  0  0  0  0  0  0
    4.1135   -0.8988    1.0569 C   0  0  0  0  0  0  0  0  0  0  0  0
    6.2948    0.7358   -2.7521 H   0  0  0  0  0  0  0  0  0  0  0  0
    4.9683    0.0509   -1.8011 H   0  0  0  0  0  0  0  0  0  0  0  0
    6.6640   -0.3774   -1.4224 H   0  0  0  0  0  0  0  0  0  0  0  0
    5.9441    1.7259    1.7598 H   0  0  0  0  0  0  0  0  0  0  0  0
    6.5049    0.2056    1.0923 H   0  0  0  0  0  0  0  0  0  0  0  0
    3.4508    2.4393    1.2058 H   0  0  0  0  0  0  0  0  0  0  0  0
    1.1598    1.5922    1.4166 H   0  0  0  0  0  0  0  0  0  0  0  0
   -0.4572    0.5548    0.3620 H   0  0  0  0  0  0  0  0  0  0  0  0
   -2.6714    0.1457    0.7856 H   0  0  0  0  0  0  0  0  0  0  0  0
   -2.2570   -1.1918    1.8771 H   0  0  0  0  0  0  0  0  0  0  0  0
   -1.9985   -1.3681   -1.1878 H   0  0  0  0  0  0  0  0  0  0  0  0
   -1.7339   -2.6719   -0.0440 H   0  0  0  0  0  0  0  0  0  0  0  0
   -3.7497   -0.7744   -2.8062 H   0  0  0  0  0  0  0  0  0  0  0  0
   -4.7853    1.2992   -3.6360 H   0  0  0  0  0  0  0  0  0  0  0  0
   -7.1072    1.5932   -0.0157 H   0  0  0  0  0  0  0  0  0  0  0  0
   -6.0661   -0.4769    0.8216 H   0  0  0  0  0  0  0  0  0  0  0  0
    2.6316   -2.4588    1.1610 H   0  0  0  0  0  0  0  0  0  0  0  0
    4.9343   -1.6085    0.9748 H   0  0  0  0  0  0  0  0  0  0  0  0
  1  2  1  0
  2  3  1  0
  3  4  1  0
  4  5  2  0
  5  6  1  0
  6  7  2  0
  7  8  1  0
  8  9  2  0
  8 10  1  0
 10 11  1  0
 11 12  1  0
 12 13  1  0
 13 14  1  0
 14 15  2  0
 15 16  1  0
 16 17  2  0
 17 18  1  0
 17 19  1  0
 19 20  2  0
  7 21  1  0
 21 22  2  0
 22  4  1  0
 20 14  1  0
  1 23  1  0
  1 24  1  0
  1 25  1  0
  3 26  1  0
  3 27  1  0
  5 28  1  0
  6 29  1  0
 10 30  1  0
 11 31  1  0
 11 32  1  0
 12 33  1  0
 12 34  1  0
 15 35  1  0
 16 36  1  0
 19 37  1  0
 20 38  1  0
 21 39  1  0
 22 40  1  0
M  END
$$$$
