
     RDKit          3D

 61 67  0  0  0  0  0  0  0  0999 V2000
    3.5160   -2.6570    2.1216 O   0  0  0  0  0  0  0  0  0  0  0  0
    3.2817   -1.6776    1.4171 C   0  0  0  0  0  0  0  0  0  0  0  0
    4.3904   -1.1382    0.6018 C   0  0  0  0  0  0  0  0  0  0  0  0
    5.6068   -0.8186    1.2397 C   0  0  0  0  0  0  0  0  0  0  0  0
    6.6858   -0.3338    0.4951 C   0  0  0  0  0  0  0  0  0  0  0  0
    6.5145   -0.2015   -0.8672 C   0  0  0  0  0  0  0  0  0  0  0  0
    5.3328   -0.5368   -1.4895 C   0  0  0  0  0  0  0  0  0  0  0  0
    4.2500   -1.0179   -0.7869 C   0  0  0  0  0  0  0  0  0  0  0  0
    5.3816   -0.3401   -2.8341 O   0  0  0  0  0  0  0  0  0  0  0  0
    6.7317    0.1454   -2.9904 C   0  0  0  0  0  0  0  0  0  0  0  0
    7.4513    0.2486   -1.7439 O   0  0  0  0  0  0  0  0  0  0  0  0
    2.0260   -1.0775    1.3399 N   0  0  0  0  0  0  0  0  0  0  0  0
    1.7711    0.2781    0.8734 C   0  0  0  0  0  0  0  0  0  0  0  0
    0.5785    0.3222   -0.0817 C   0  0  0  0  0  0  0  0  0  0  0  0
   -0.5901   -0.6270    0.3354 C   0  0  0  0  0  0  0  0  0  0  0  0
   -0.4176   -1.0623    1.8110 C   0  0  0  0  0  0  0  0  0  0  0  0
    0.9355   -1.7351    2.0457 C   0  0  0  0  0  0  0  0  0  0  0  0
   -0.3945   -1.7958   -0.5082 O   0  0  0  0  0  0  0  0  0  0  0  0
   -1.4511   -2.6330   -0.7010 C   0  0  0  0  0  0  0  0  0  0  0  0
   -1.1537   -3.8704   -1.2752 C   0  0  0  0  0  0  0  0  0  0  0  0
   -2.1700   -4.8021   -1.4932 C   0  0  0  0  0  0  0  0  0  0  0  0
   -3.4777   -4.4880   -1.1377 C   0  0  0  0  0  0  0  0  0  0  0  0
   -4.4495   -5.3854   -1.3442 F   0  0  0  0  0  0  0  0  0  0  0  0
   -3.7904   -3.2579   -0.5747 C   0  0  0  0  0  0  0  0  0  0  0  0
   -2.7673   -2.3286   -0.3692 C   0  0  0  0  0  0  0  0  0  0  0  0
   -3.0609   -1.0120    0.2101 C   0  0  0  0  0  0  0  0  0  0  0  0
   -4.1349   -0.8208    0.7751 O   0  0  0  0  0  0  0  0  0  0  0  0
   -1.9675    0.0407    0.0701 C   0  0  0  0  0  0  0  0  0  0  0  0
   -2.2665    1.2557    0.9390 C   0  0  0  0  0  0  0  0  0  0  0  0
   -2.9228    2.1155   -0.0873 C   0  0  0  0  0  0  0  0  0  0  0  0
   -3.6737    3.3418    0.2730 C   0  0  0  0  0  0  0  0  0  0  0  0
   -3.7537    3.7922    1.5962 C   0  0  0  0  0  0  0  0  0  0  0  0
   -4.4691    4.9563    1.8978 C   0  0  0  0  0  0  0  0  0  0  0  0
   -5.1018    5.6692    0.8803 C   0  0  0  0  0  0  0  0  0  0  0  0
   -5.9784    7.0999    1.2577 Cl  0  0  0  0  0  0  0  0  0  0  0  0
   -5.0266    5.2296   -0.4389 C   0  0  0  0  0  0  0  0  0  0  0  0
   -4.3128    4.0669   -0.7425 C   0  0  0  0  0  0  0  0  0  0  0  0
   -2.7533    1.7265   -1.3107 N   0  0  0  0  0  0  0  0  0  0  0  0
   -2.0113    0.5261   -1.2820 O   0  0  0  0  0  0  0  0  0  0  0  0
    5.7066   -0.9570    2.3144 H   0  0  0  0  0  0  0  0  0  0  0  0
    7.6279   -0.0803    0.9681 H   0  0  0  0  0  0  0  0  0  0  0  0
    3.3341   -1.2994   -1.2939 H   0  0  0  0  0  0  0  0  0  0  0  0
    7.2753   -0.5366   -3.6543 H   0  0  0  0  0  0  0  0  0  0  0  0
    6.6954    1.1366   -3.4570 H   0  0  0  0  0  0  0  0  0  0  0  0
    1.5634    0.8865    1.7630 H   0  0  0  0  0  0  0  0  0  0  0  0
    2.6466    0.7321    0.4045 H   0  0  0  0  0  0  0  0  0  0  0  0
    0.2580    1.3671   -0.1516 H   0  0  0  0  0  0  0  0  0  0  0  0
    0.9295    0.0485   -1.0859 H   0  0  0  0  0  0  0  0  0  0  0  0
   -0.5016   -0.1892    2.4699 H   0  0  0  0  0  0  0  0  0  0  0  0
   -1.2013   -1.7626    2.1216 H   0  0  0  0  0  0  0  0  0  0  0  0
    1.1677   -1.7381    3.1174 H   0  0  0  0  0  0  0  0  0  0  0  0
    0.9051   -2.7822    1.7206 H   0  0  0  0  0  0  0  0  0  0  0  0
   -0.1285   -4.1128   -1.5458 H   0  0  0  0  0  0  0  0  0  0  0  0
   -1.9499   -5.7692   -1.9351 H   0  0  0  0  0  0  0  0  0  0  0  0
   -4.8197   -3.0316   -0.3123 H   0  0  0  0  0  0  0  0  0  0  0  0
   -1.3691    1.7727    1.2908 H   0  0  0  0  0  0  0  0  0  0  0  0
   -2.9135    1.0455    1.7936 H   0  0  0  0  0  0  0  0  0  0  0  0
   -3.2717    3.2596    2.4103 H   0  0  0  0  0  0  0  0  0  0  0  0
   -4.5306    5.3006    2.9273 H   0  0  0  0  0  0  0  0  0  0  0  0
   -5.5196    5.7817   -1.2349 H   0  0  0  0  0  0  0  0  0  0  0  0
   -4.2625    3.7306   -1.7769 H   0  0  0  0  0  0  0  0  0  0  0  0
  1  2  2  0
  2  3  1  0
  3  4  2  0
  4  5  1  0
  5  6  2  0
  6  7  1  0
  7  8  2  0
  7  9  1  0
  9 10  1  0
 10 11  1  0
  2 12  1  0
 12 13  1  0
 13 14  1  0
 14 15  1  0
 15 16  1  0
 16 17  1  0
 15 18  1  0
 18 19  1  0
 19 20  2  0
 20 21  1  0
 21 22  2  0
 22 23  1  0
 22 24  1  0
 24 25  2  0
 25 26  1  0
 26 27  2  0
 26 28  1  0
 28 29  1  0
 29 30  1  0
 30 31  1  0
 31 32  2  0
 32 33  1  0
 33 34  2  0
 34 35  1  0
 34 36  1  0
 36 37  2  0
 30 38  2  0
 38 39  1  0
  8  3  1  0
 17 12  1  0
 25 19  1  0
 39 28  1  0
 11  6  1  0
 28 15  1  0
 37 31  1  0
  4 40  1  0
  5 41  1  0
  8 42  1  0
 10 43  1  0
 10 44  1  0
 13 45  1  0
 13 46  1  0
 14 47  1  0
 14 48  1  0
 16 49  1  0
 16 50  1  0
 17 51  1  0
 17 52  1  0
 20 53  1  0
 21 54  1  0
 24 55  1  0
 29 56  1  0
 29 57  1  0
 32 58  1  0
 33 59  1  0
 36 60  1  0
 37 61  1  0
M  END
$$$$
