
     RDKit          3D

 59 62  0  0  0  0  0  0  0  0999 V2000
    9.0543    1.8829    2.3555 C   0  0  0  0  0  0  0  0  0  0  0  0
    7.6829    1.3313    2.0977 C   0  0  0  0  0  0  0  0  0  0  0  0
    6.6703    2.1549    1.6020 C   0  0  0  0  0  0  0  0  0  0  0  0
    5.3848    1.6458    1.3911 C   0  0  0  0  0  0  0  0  0  0  0  0
    5.0768    0.3068    1.6933 C   0  0  0  0  0  0  0  0  0  0  0  0
    3.7450   -0.1637    1.4540 N   0  0  0  0  0  0  0  0  0  0  0  0
    2.9241    0.5984    0.6800 N   0  0  0  0  0  0  0  0  0  0  0  0
    1.8401   -0.1536    0.4725 C   0  0  0  0  0  0  0  0  0  0  0  0
    0.6887    0.2006   -0.3485 C   0  0  0  0  0  0  0  0  0  0  0  0
    0.6111    1.2431   -0.9965 O   0  0  0  0  0  0  0  0  0  0  0  0
   -0.3265   -0.7802   -0.3109 N   0  0  0  0  0  0  0  0  0  0  0  0
   -1.5468   -0.5757   -1.0855 C   0  0  0  0  0  0  0  0  0  0  0  0
   -1.4217   -1.1563   -2.4984 C   0  0  0  0  0  0  0  0  0  0  0  0
   -2.7772   -1.2525   -3.1975 C   0  0  0  0  0  0  0  0  0  0  0  0
   -3.3590    0.1119   -3.5070 C   0  0  0  0  0  0  0  0  0  0  0  0
   -2.7103    0.9985   -4.0539 O   0  0  0  0  0  0  0  0  0  0  0  0
   -4.6745    0.2620   -3.1259 N   0  0  0  0  0  0  0  0  0  0  0  0
   -5.3863    1.4956   -3.3674 C   0  0  0  0  0  0  0  0  0  0  0  0
   -6.5719    1.5425   -2.4667 C   0  0  0  0  0  0  0  0  0  0  0  0
   -7.9386    1.4770   -2.6753 C   0  0  0  0  0  0  0  0  0  0  0  0
   -8.5500    1.5948   -1.3967 C   0  0  0  0  0  0  0  0  0  0  0  0
   -7.5204    1.7284   -0.4875 C   0  0  0  0  0  0  0  0  0  0  0  0
   -7.4659    1.9053    0.9789 C   0  0  0  0  0  0  0  0  0  0  0  0
   -6.3150    1.6847   -1.1293 O   0  0  0  0  0  0  0  0  0  0  0  0
   -0.2440   -2.0001    0.3735 N   0  0  0  0  0  0  0  0  0  0  0  0
    0.8047   -2.3009    1.0876 C   0  0  0  0  0  0  0  0  0  0  0  0
    0.8246   -3.6256    1.7962 C   0  0  0  0  0  0  0  0  0  0  0  0
    1.8964   -1.3608    1.1787 C   0  0  0  0  0  0  0  0  0  0  0  0
    3.0855   -1.3245    1.8907 C   0  0  0  0  0  0  0  0  0  0  0  0
    3.5900   -2.2403    2.9479 C   0  0  0  0  0  0  0  0  0  0  0  0
    6.0963   -0.5190    2.1807 C   0  0  0  0  0  0  0  0  0  0  0  0
    7.3838   -0.0050    2.3928 C   0  0  0  0  0  0  0  0  0  0  0  0
    9.1344    2.2082    3.3975 H   0  0  0  0  0  0  0  0  0  0  0  0
    9.8220    1.1253    2.1586 H   0  0  0  0  0  0  0  0  0  0  0  0
    9.2644    2.7374    1.7039 H   0  0  0  0  0  0  0  0  0  0  0  0
    6.8704    3.1986    1.3669 H   0  0  0  0  0  0  0  0  0  0  0  0
    4.6255    2.3186    0.9945 H   0  0  0  0  0  0  0  0  0  0  0  0
   -2.3702   -1.0563   -0.5399 H   0  0  0  0  0  0  0  0  0  0  0  0
   -1.7716    0.4972   -1.1320 H   0  0  0  0  0  0  0  0  0  0  0  0
   -0.7212   -0.5475   -3.0863 H   0  0  0  0  0  0  0  0  0  0  0  0
   -0.9908   -2.1655   -2.4469 H   0  0  0  0  0  0  0  0  0  0  0  0
   -3.4710   -1.8469   -2.5884 H   0  0  0  0  0  0  0  0  0  0  0  0
   -2.6620   -1.7765   -4.1551 H   0  0  0  0  0  0  0  0  0  0  0  0
   -5.1910   -0.5207   -2.7475 H   0  0  0  0  0  0  0  0  0  0  0  0
   -4.7195    2.3603   -3.1881 H   0  0  0  0  0  0  0  0  0  0  0  0
   -5.6873    1.5062   -4.4297 H   0  0  0  0  0  0  0  0  0  0  0  0
   -8.4353    1.3650   -3.6316 H   0  0  0  0  0  0  0  0  0  0  0  0
   -9.6124    1.5952   -1.1668 H   0  0  0  0  0  0  0  0  0  0  0  0
   -8.4791    1.9801    1.4034 H   0  0  0  0  0  0  0  0  0  0  0  0
   -6.9190    2.8185    1.2264 H   0  0  0  0  0  0  0  0  0  0  0  0
   -6.9514    1.0585    1.4548 H   0  0  0  0  0  0  0  0  0  0  0  0
    1.7871   -4.1204    1.6509 H   0  0  0  0  0  0  0  0  0  0  0  0
    0.6456   -3.4677    2.8629 H   0  0  0  0  0  0  0  0  0  0  0  0
    0.0377   -4.2788    1.4060 H   0  0  0  0  0  0  0  0  0  0  0  0
    4.2273   -3.0203    2.5158 H   0  0  0  0  0  0  0  0  0  0  0  0
    4.1395   -1.6993    3.7251 H   0  0  0  0  0  0  0  0  0  0  0  0
    2.7638   -2.7348    3.4703 H   0  0  0  0  0  0  0  0  0  0  0  0
    5.9538   -1.5754    2.3708 H   0  0  0  0  0  0  0  0  0  0  0  0
    8.1592   -0.6655    2.7797 H   0  0  0  0  0  0  0  0  0  0  0  0
  1  2  1  0
  2  3  2  0
  3  4  1  0
  4  5  2  0
  5  6  1  0
  6  7  1  0
  7  8  2  0
  8  9  1  0
  9 10  2  0
  9 11  1  0
 11 12  1  0
 12 13  1  0
 13 14  1  0
 14 15  1  0
 15 16  2  0
 15 17  1  0
 17 18  1  0
 18 19  1  0
 19 20  2  0
 20 21  1  0
 21 22  2  0
 22 23  1  0
 22 24  1  0
 11 25  1  0
 25 26  2  0
 26 27  1  0
 26 28  1  0
 28 29  2  0
 29 30  1  0
  5 31  1  0
 31 32  2  0
 32  2  1  0
 29  6  1  0
 28  8  1  0
 24 19  1  0
  1 33  1  0
  1 34  1  0
  1 35  1  0
  3 36  1  0
  4 37  1  0
 12 38  1  0
 12 39  1  0
 13 40  1  0
 13 41  1  0
 14 42  1  0
 14 43  1  0
 17 44  1  0
 18 45  1  0
 18 46  1  0
 20 47  1  0
 21 48  1  0
 23 49  1  0
 23 50  1  0
 23 51  1  0
 27 52  1  0
 27 53  1  0
 27 54  1  0
 30 55  1  0
 30 56  1  0
 30 57  1  0
 31 58  1  0
 32 59  1  0
M  END
$$$$
