
     RDKit          3D

 32 33  0  0  0  0  0  0  0  0999 V2000
   -4.1519    0.0170    1.9202 C   0  0  0  0  0  0  0  0  0  0  0  0
   -3.0839   -0.5186    0.9791 C   0  0  0  0  0  0  0  0  0  0  0  0
   -3.3971   -0.1692   -0.4764 C   0  0  0  0  0  0  0  0  0  0  0  0
   -2.3796   -0.7470   -1.4671 C   0  0  0  0  0  0  0  0  0  0  0  0
   -1.0493   -0.1541   -1.3255 N   0  0  0  0  0  0  0  0  0  0  0  0
   -0.7894    1.0909   -1.8073 C   0  0  0  0  0  0  0  0  0  0  0  0
   -1.5296    1.8632   -2.3812 O   0  0  0  0  0  0  0  0  0  0  0  0
    0.6777    1.3634   -1.4982 C   0  0  0  0  0  0  0  0  0  0  0  0
    1.2171    2.4159   -1.7805 O   0  0  0  0  0  0  0  0  0  0  0  0
    1.1366    0.2401   -0.8560 N   0  0  0  0  0  0  0  0  0  0  0  0
    2.4733    0.1452   -0.3604 C   0  0  0  0  0  0  0  0  0  0  0  0
    3.5259    0.8000   -1.0230 C   0  0  0  0  0  0  0  0  0  0  0  0
    4.8414    0.7291   -0.5515 C   0  0  0  0  0  0  0  0  0  0  0  0
    5.1308    0.0105    0.6022 C   0  0  0  0  0  0  0  0  0  0  0  0
    4.1033   -0.6276    1.2873 C   0  0  0  0  0  0  0  0  0  0  0  0
    2.7879   -0.5554    0.8130 C   0  0  0  0  0  0  0  0  0  0  0  0
    0.1064   -0.7086   -0.7907 C   0  0  0  0  0  0  0  0  0  0  0  0
    0.2006   -2.3003   -0.2636 S   0  0  0  0  0  0  0  0  0  0  0  0
   -3.9093   -0.2425    2.9554 H   0  0  0  0  0  0  0  0  0  0  0  0
   -4.2245    1.1071    1.8511 H   0  0  0  0  0  0  0  0  0  0  0  0
   -5.1324   -0.4088    1.6844 H   0  0  0  0  0  0  0  0  0  0  0  0
   -3.0180   -1.6063    1.0954 H   0  0  0  0  0  0  0  0  0  0  0  0
   -2.1156   -0.0972    1.2703 H   0  0  0  0  0  0  0  0  0  0  0  0
   -3.4512    0.9206   -0.5859 H   0  0  0  0  0  0  0  0  0  0  0  0
   -4.3882   -0.5627   -0.7340 H   0  0  0  0  0  0  0  0  0  0  0  0
   -2.7277   -0.5282   -2.4842 H   0  0  0  0  0  0  0  0  0  0  0  0
   -2.3372   -1.8350   -1.3701 H   0  0  0  0  0  0  0  0  0  0  0  0
    3.3554    1.3620   -1.9390 H   0  0  0  0  0  0  0  0  0  0  0  0
    5.6370    1.2381   -1.0904 H   0  0  0  0  0  0  0  0  0  0  0  0
    6.1516   -0.0437    0.9714 H   0  0  0  0  0  0  0  0  0  0  0  0
    4.3191   -1.1752    2.2018 H   0  0  0  0  0  0  0  0  0  0  0  0
    2.0208   -1.0227    1.4227 H   0  0  0  0  0  0  0  0  0  0  0  0
  1  2  1  0
  2  3  1  0
  3  4  1  0
  4  5  1  0
  5  6  1  0
  6  7  2  0
  6  8  1  0
  8  9  2  0
  8 10  1  0
 10 11  1  0
 11 12  2  0
 12 13  1  0
 13 14  2  0
 14 15  1  0
 15 16  2  0
 10 17  1  0
 17 18  2  0
 17  5  1  0
 16 11  1  0
  1 19  1  0
  1 20  1  0
  1 21  1  0
  2 22  1  0
  2 23  1  0
  3 24  1  0
  3 25  1  0
  4 26  1  0
  4 27  1  0
 12 28  1  0
 13 29  1  0
 14 30  1  0
 15 31  1  0
 16 32  1  0
M  END
$$$$
