
     RDKit          3D

 69 74  0  0  0  0  0  0  0  0999 V2000
    2.1439    1.8897    1.0582 O   0  0  0  0  0  0  0  0  0  0  0  0
    2.2599    0.5583    1.5799 C   0  0  0  0  0  0  0  0  0  0  0  0
    2.7700   -0.3929    0.4902 C   0  0  0  0  0  0  0  0  0  0  0  0
    4.0965    0.0343    0.1428 O   0  0  0  0  0  0  0  0  0  0  0  0
    4.8036   -0.7019   -0.7658 C   0  0  0  0  0  0  0  0  0  0  0  0
    4.2333   -1.7547   -1.4967 C   0  0  0  0  0  0  0  0  0  0  0  0
    4.9811   -2.4706   -2.4330 C   0  0  0  0  0  0  0  0  0  0  0  0
    6.3132   -2.1414   -2.6577 C   0  0  0  0  0  0  0  0  0  0  0  0
    6.9157   -1.0990   -1.9520 C   0  0  0  0  0  0  0  0  0  0  0  0
    8.2718   -0.8311   -2.2495 N   0  0  0  0  0  0  0  0  0  0  0  0
    8.8663    0.1278   -1.6141 C   0  0  0  0  0  0  0  0  0  0  0  0
    8.1881    0.9077   -0.6267 C   0  0  0  0  0  0  0  0  0  0  0  0
    8.6363    1.9521    0.1532 C   0  0  0  0  0  0  0  0  0  0  0  0
    7.5558    2.3507    0.9679 C   0  0  0  0  0  0  0  0  0  0  0  0
    6.4858    1.5357    0.6592 C   0  0  0  0  0  0  0  0  0  0  0  0
    6.8653    0.6532   -0.3276 N   0  0  0  0  0  0  0  0  0  0  0  0
    6.1553   -0.3786   -0.9980 C   0  0  0  0  0  0  0  0  0  0  0  0
    0.9289    0.0934    2.2151 C   0  0  0  0  0  0  0  0  0  0  0  0
   -0.0908   -0.4305    1.2822 N   0  0  0  0  0  0  0  0  0  0  0  0
   -1.1185   -1.1841    2.0367 C   0  0  0  0  0  0  0  0  0  0  0  0
   -2.4515   -1.3046    1.2691 C   0  0  0  0  0  0  0  0  0  0  0  0
   -3.1292    0.0032    1.0833 N   0  0  0  0  0  0  0  0  0  0  0  0
   -4.0786   -0.0358   -0.0684 C   0  0  0  0  0  0  0  0  0  0  0  0
   -5.0674   -1.2098   -0.0017 C   0  0  0  0  0  0  0  0  0  0  0  0
   -5.8493   -1.4501    1.1416 C   0  0  0  0  0  0  0  0  0  0  0  0
   -6.7490   -2.5166    1.1813 C   0  0  0  0  0  0  0  0  0  0  0  0
   -6.8842   -3.3561    0.0779 C   0  0  0  0  0  0  0  0  0  0  0  0
   -6.1222   -3.1294   -1.0666 C   0  0  0  0  0  0  0  0  0  0  0  0
   -5.2212   -2.0631   -1.1081 C   0  0  0  0  0  0  0  0  0  0  0  0
   -4.8603    1.2718   -0.2680 C   0  0  0  0  0  0  0  0  0  0  0  0
   -5.1010    1.7469   -1.5692 C   0  0  0  0  0  0  0  0  0  0  0  0
   -5.8223    2.9241   -1.7772 C   0  0  0  0  0  0  0  0  0  0  0  0
   -6.3189    3.6398   -0.6903 C   0  0  0  0  0  0  0  0  0  0  0  0
   -6.0975    3.1793    0.6056 C   0  0  0  0  0  0  0  0  0  0  0  0
   -5.3767    2.0026    0.8160 C   0  0  0  0  0  0  0  0  0  0  0  0
   -2.1172    1.0821    0.9533 C   0  0  0  0  0  0  0  0  0  0  0  0
   -0.7250    0.6226    0.4603 C   0  0  0  0  0  0  0  0  0  0  0  0
    2.9630    2.0540    0.5543 H   0  0  0  0  0  0  0  0  0  0  0  0
    3.0121    0.6249    2.3759 H   0  0  0  0  0  0  0  0  0  0  0  0
    2.7953   -1.4200    0.8713 H   0  0  0  0  0  0  0  0  0  0  0  0
    2.1319   -0.3142   -0.3971 H   0  0  0  0  0  0  0  0  0  0  0  0
    3.1947   -2.0460   -1.3690 H   0  0  0  0  0  0  0  0  0  0  0  0
    4.5221   -3.2823   -2.9921 H   0  0  0  0  0  0  0  0  0  0  0  0
    6.8943   -2.6969   -3.3901 H   0  0  0  0  0  0  0  0  0  0  0  0
    9.9231    0.3482   -1.8370 H   0  0  0  0  0  0  0  0  0  0  0  0
    9.6319    2.3768    0.1413 H   0  0  0  0  0  0  0  0  0  0  0  0
    7.5523    3.1415    1.7077 H   0  0  0  0  0  0  0  0  0  0  0  0
    5.4954    1.5329    1.0844 H   0  0  0  0  0  0  0  0  0  0  0  0
    0.5053    0.9059    2.8195 H   0  0  0  0  0  0  0  0  0  0  0  0
    1.1950   -0.7186    2.9054 H   0  0  0  0  0  0  0  0  0  0  0  0
   -0.7312   -2.1896    2.2398 H   0  0  0  0  0  0  0  0  0  0  0  0
   -1.3213   -0.7146    3.0094 H   0  0  0  0  0  0  0  0  0  0  0  0
   -3.1074   -1.9734    1.8375 H   0  0  0  0  0  0  0  0  0  0  0  0
   -2.2460   -1.7877    0.3036 H   0  0  0  0  0  0  0  0  0  0  0  0
   -3.4594   -0.1769   -0.9673 H   0  0  0  0  0  0  0  0  0  0  0  0
   -5.7505   -0.8057    2.0122 H   0  0  0  0  0  0  0  0  0  0  0  0
   -7.3439   -2.6898    2.0744 H   0  0  0  0  0  0  0  0  0  0  0  0
   -7.5863   -4.1849    0.1089 H   0  0  0  0  0  0  0  0  0  0  0  0
   -6.2321   -3.7818   -1.9290 H   0  0  0  0  0  0  0  0  0  0  0  0
   -4.6396   -1.9007   -2.0126 H   0  0  0  0  0  0  0  0  0  0  0  0
   -4.7295    1.1983   -2.4313 H   0  0  0  0  0  0  0  0  0  0  0  0
   -6.0004    3.2800   -2.7885 H   0  0  0  0  0  0  0  0  0  0  0  0
   -6.8821    4.5546   -0.8529 H   0  0  0  0  0  0  0  0  0  0  0  0
   -6.4876    3.7339    1.4542 H   0  0  0  0  0  0  0  0  0  0  0  0
   -5.2113    1.6563    1.8338 H   0  0  0  0  0  0  0  0  0  0  0  0
   -2.4547    1.9021    0.3105 H   0  0  0  0  0  0  0  0  0  0  0  0
   -1.9969    1.5307    1.9484 H   0  0  0  0  0  0  0  0  0  0  0  0
   -0.0871    1.5021    0.3441 H   0  0  0  0  0  0  0  0  0  0  0  0
   -0.8391    0.2160   -0.5534 H   0  0  0  0  0  0  0  0  0  0  0  0
  1  2  1  0
  2  3  1  0
  3  4  1  0
  4  5  1  0
  5  6  2  0
  6  7  1  0
  7  8  2  0
  8  9  1  0
  9 10  1  0
 10 11  2  0
 11 12  1  0
 12 13  2  0
 13 14  1  0
 14 15  2  0
 15 16  1  0
 16 17  1  0
  2 18  1  0
 18 19  1  0
 19 20  1  0
 20 21  1  0
 21 22  1  0
 22 23  1  0
 23 24  1  0
 24 25  2  0
 25 26  1  0
 26 27  2  0
 27 28  1  0
 28 29  2  0
 23 30  1  0
 30 31  2  0
 31 32  1  0
 32 33  2  0
 33 34  1  0
 34 35  2  0
 22 36  1  0
 36 37  1  0
 17  5  1  0
 37 19  1  0
 17  9  2  0
 29 24  1  0
 35 30  1  0
 16 12  1  0
  1 38  1  0
  2 39  1  0
  3 40  1  0
  3 41  1  0
  6 42  1  0
  7 43  1  0
  8 44  1  0
 11 45  1  0
 13 46  1  0
 14 47  1  0
 15 48  1  0
 18 49  1  0
 18 50  1  0
 20 51  1  0
 20 52  1  0
 21 53  1  0
 21 54  1  0
 23 55  1  0
 25 56  1  0
 26 57  1  0
 27 58  1  0
 28 59  1  0
 29 60  1  0
 31 61  1  0
 32 62  1  0
 33 63  1  0
 34 64  1  0
 35 65  1  0
 36 66  1  0
 36 67  1  0
 37 68  1  0
 37 69  1  0
M  END
$$$$
