
     RDKit          3D

 45 46  0  0  0  0  0  0  0  0999 V2000
    5.0963   -3.6569    2.8143 C   0  0  0  0  0  0  0  0  0  0  0  0
    5.5672   -2.3711    2.4317 O   0  0  0  0  0  0  0  0  0  0  0  0
    4.7863   -1.6511    1.5710 C   0  0  0  0  0  0  0  0  0  0  0  0
    3.5623   -2.0594    1.0381 C   0  0  0  0  0  0  0  0  0  0  0  0
    2.8558   -1.2203    0.1659 C   0  0  0  0  0  0  0  0  0  0  0  0
    3.3642    0.0411   -0.1710 C   0  0  0  0  0  0  0  0  0  0  0  0
    2.6390    0.9551   -1.0879 C   0  0  0  0  0  0  0  0  0  0  0  0
    3.2791    1.7478   -1.7774 O   0  0  0  0  0  0  0  0  0  0  0  0
    1.1578    0.9454   -1.1807 C   0  0  0  0  0  0  0  0  0  0  0  0
    0.3533    0.8000   -0.1165 C   0  0  0  0  0  0  0  0  0  0  0  0
   -1.1147    0.8364   -0.2005 C   0  0  0  0  0  0  0  0  0  0  0  0
   -1.8537   -0.0602    0.5865 C   0  0  0  0  0  0  0  0  0  0  0  0
   -3.2505   -0.0521    0.5553 C   0  0  0  0  0  0  0  0  0  0  0  0
   -4.0532   -0.8981    1.2761 O   0  0  0  0  0  0  0  0  0  0  0  0
   -3.4438   -1.6440    2.3205 C   0  0  0  0  0  0  0  0  0  0  0  0
   -3.9048    0.8632   -0.2854 C   0  0  0  0  0  0  0  0  0  0  0  0
   -5.2823    0.9039   -0.2924 O   0  0  0  0  0  0  0  0  0  0  0  0
   -5.7850    0.0515   -1.3196 C   0  0  0  0  0  0  0  0  0  0  0  0
   -3.1842    1.7964   -1.0491 C   0  0  0  0  0  0  0  0  0  0  0  0
   -3.9273    2.6655   -1.8056 O   0  0  0  0  0  0  0  0  0  0  0  0
   -3.2410    3.7390   -2.4348 C   0  0  0  0  0  0  0  0  0  0  0  0
   -1.7879    1.7720   -1.0017 C   0  0  0  0  0  0  0  0  0  0  0  0
    4.6104    0.4267    0.3380 C   0  0  0  0  0  0  0  0  0  0  0  0
    5.2117    1.6147    0.0153 O   0  0  0  0  0  0  0  0  0  0  0  0
    5.3065   -0.4051    1.2132 C   0  0  0  0  0  0  0  0  0  0  0  0
    4.1453   -3.5846    3.3523 H   0  0  0  0  0  0  0  0  0  0  0  0
    5.0107   -4.3199    1.9470 H   0  0  0  0  0  0  0  0  0  0  0  0
    5.8323   -4.0937    3.4960 H   0  0  0  0  0  0  0  0  0  0  0  0
    3.1327   -3.0275    1.2754 H   0  0  0  0  0  0  0  0  0  0  0  0
    1.9184   -1.5782   -0.2523 H   0  0  0  0  0  0  0  0  0  0  0  0
    0.7750    1.1533   -2.1748 H   0  0  0  0  0  0  0  0  0  0  0  0
    0.7588    0.6475    0.8815 H   0  0  0  0  0  0  0  0  0  0  0  0
   -1.3182   -0.7691    1.2098 H   0  0  0  0  0  0  0  0  0  0  0  0
   -2.7734   -2.4082    1.9143 H   0  0  0  0  0  0  0  0  0  0  0  0
   -2.9182   -0.9905    3.0248 H   0  0  0  0  0  0  0  0  0  0  0  0
   -4.2373   -2.1577    2.8717 H   0  0  0  0  0  0  0  0  0  0  0  0
   -6.8776    0.1033   -1.2920 H   0  0  0  0  0  0  0  0  0  0  0  0
   -5.4926   -0.9910   -1.1527 H   0  0  0  0  0  0  0  0  0  0  0  0
   -5.4567    0.3827   -2.3108 H   0  0  0  0  0  0  0  0  0  0  0  0
   -2.5702    3.3698   -3.2173 H   0  0  0  0  0  0  0  0  0  0  0  0
   -2.6996    4.3487   -1.7037 H   0  0  0  0  0  0  0  0  0  0  0  0
   -3.9885    4.3791   -2.9132 H   0  0  0  0  0  0  0  0  0  0  0  0
   -1.2046    2.4832   -1.5775 H   0  0  0  0  0  0  0  0  0  0  0  0
    4.7351    1.9968   -0.7555 H   0  0  0  0  0  0  0  0  0  0  0  0
    6.2669   -0.0844    1.6096 H   0  0  0  0  0  0  0  0  0  0  0  0
  1  2  1  0
  2  3  1  0
  3  4  2  0
  4  5  1  0
  5  6  2  0
  6  7  1  0
  7  8  2  0
  7  9  1  0
  9 10  2  0
 10 11  1  0
 11 12  2  0
 12 13  1  0
 13 14  1  0
 14 15  1  0
 13 16  2  0
 16 17  1  0
 17 18  1  0
 16 19  1  0
 19 20  1  0
 20 21  1  0
 19 22  2  0
  6 23  1  0
 23 24  1  0
 23 25  2  0
 25  3  1  0
 22 11  1  0
  1 26  1  0
  1 27  1  0
  1 28  1  0
  4 29  1  0
  5 30  1  0
  9 31  1  0
 10 32  1  0
 12 33  1  0
 15 34  1  0
 15 35  1  0
 15 36  1  0
 18 37  1  0
 18 38  1  0
 18 39  1  0
 21 40  1  0
 21 41  1  0
 21 42  1  0
 22 43  1  0
 24 44  1  0
 25 45  1  0
M  END
$$$$
