
     RDKit          3D

 51 55  0  0  0  0  0  0  0  0999 V2000
    8.4519   -1.0444   -0.3320 F   0  0  0  0  0  0  0  0  0  0  0  0
    7.2849   -0.8229    0.2874 C   0  0  0  0  0  0  0  0  0  0  0  0
    6.1744   -1.5865   -0.0506 C   0  0  0  0  0  0  0  0  0  0  0  0
    4.9587   -1.3567    0.5947 C   0  0  0  0  0  0  0  0  0  0  0  0
    4.8546   -0.3647    1.5816 C   0  0  0  0  0  0  0  0  0  0  0  0
    3.5376   -0.1078    2.2781 C   0  0  0  0  0  0  0  0  0  0  0  0
    2.6310    0.8927    1.5346 C   0  0  0  0  0  0  0  0  0  0  0  0
    2.0120    0.3742    0.2995 N   0  0  0  0  0  0  0  0  0  0  0  0
    1.0572   -0.7232    0.5783 C   0  0  0  0  0  0  0  0  0  0  0  0
   -0.0072   -0.9281   -0.5237 C   0  0  0  0  0  0  0  0  0  0  0  0
   -0.8210    0.2804   -0.7184 N   0  0  0  0  0  0  0  0  0  0  0  0
   -2.2084    0.2236   -0.8006 C   0  0  0  0  0  0  0  0  0  0  0  0
   -2.8986    1.1623   -0.1989 N   0  0  0  0  0  0  0  0  0  0  0  0
   -4.3060    1.1422   -0.2069 C   0  0  0  0  0  0  0  0  0  0  0  0
   -4.9872    2.1562    0.4700 C   0  0  0  0  0  0  0  0  0  0  0  0
   -6.3840    2.1772    0.5061 C   0  0  0  0  0  0  0  0  0  0  0  0
   -7.1155    1.1789   -0.1383 C   0  0  0  0  0  0  0  0  0  0  0  0
   -6.4555    0.1562   -0.8211 C   0  0  0  0  0  0  0  0  0  0  0  0
   -5.0575    0.1480   -0.8467 C   0  0  0  0  0  0  0  0  0  0  0  0
   -4.3138   -0.8358   -1.5178 N   0  0  0  0  0  0  0  0  0  0  0  0
   -4.7541   -1.9115   -2.2525 C   0  0  0  0  0  0  0  0  0  0  0  0
   -3.6549   -2.5486   -2.7839 C   0  0  0  0  0  0  0  0  0  0  0  0
   -2.5106   -1.8439   -2.3440 C   0  0  0  0  0  0  0  0  0  0  0  0
   -2.9351   -0.8105   -1.5260 C   0  0  0  0  0  0  0  0  0  0  0  0
   -0.1757    1.5378   -0.3034 C   0  0  0  0  0  0  0  0  0  0  0  0
    1.3550    1.4568   -0.4710 C   0  0  0  0  0  0  0  0  0  0  0  0
    5.9875    0.4007    1.9034 C   0  0  0  0  0  0  0  0  0  0  0  0
    7.2025    0.1693    1.2567 C   0  0  0  0  0  0  0  0  0  0  0  0
    6.2598   -2.3514   -0.8152 H   0  0  0  0  0  0  0  0  0  0  0  0
    4.0895   -1.9491    0.3177 H   0  0  0  0  0  0  0  0  0  0  0  0
    3.0236   -1.0584    2.4637 H   0  0  0  0  0  0  0  0  0  0  0  0
    3.7485    0.2975    3.2770 H   0  0  0  0  0  0  0  0  0  0  0  0
    3.2404    1.7734    1.2911 H   0  0  0  0  0  0  0  0  0  0  0  0
    1.8475    1.2373    2.2225 H   0  0  0  0  0  0  0  0  0  0  0  0
    0.5272   -0.5383    1.5228 H   0  0  0  0  0  0  0  0  0  0  0  0
    1.6139   -1.6592    0.6966 H   0  0  0  0  0  0  0  0  0  0  0  0
    0.4827   -1.1879   -1.4692 H   0  0  0  0  0  0  0  0  0  0  0  0
   -0.6320   -1.7770   -0.2241 H   0  0  0  0  0  0  0  0  0  0  0  0
   -4.4197    2.9340    0.9740 H   0  0  0  0  0  0  0  0  0  0  0  0
   -6.8989    2.9727    1.0391 H   0  0  0  0  0  0  0  0  0  0  0  0
   -8.2021    1.1994   -0.1080 H   0  0  0  0  0  0  0  0  0  0  0  0
   -7.0459   -0.6075   -1.3158 H   0  0  0  0  0  0  0  0  0  0  0  0
   -5.8053   -2.1344   -2.3636 H   0  0  0  0  0  0  0  0  0  0  0  0
   -3.6773   -3.4167   -3.4308 H   0  0  0  0  0  0  0  0  0  0  0  0
   -1.4862   -2.0701   -2.6047 H   0  0  0  0  0  0  0  0  0  0  0  0
   -0.5503    2.3620   -0.9222 H   0  0  0  0  0  0  0  0  0  0  0  0
   -0.4221    1.7612    0.7421 H   0  0  0  0  0  0  0  0  0  0  0  0
    1.5732    1.2687   -1.5305 H   0  0  0  0  0  0  0  0  0  0  0  0
    1.7995    2.4347   -0.2507 H   0  0  0  0  0  0  0  0  0  0  0  0
    5.9299    1.1815    2.6592 H   0  0  0  0  0  0  0  0  0  0  0  0
    8.0823    0.7557    1.5018 H   0  0  0  0  0  0  0  0  0  0  0  0
  1  2  1  0
  2  3  2  0
  3  4  1  0
  4  5  2  0
  5  6  1  0
  6  7  1  0
  7  8  1  0
  8  9  1  0
  9 10  1  0
 10 11  1  0
 11 12  1  0
 12 13  2  0
 13 14  1  0
 14 15  2  0
 15 16  1  0
 16 17  2  0
 17 18  1  0
 18 19  2  0
 19 20  1  0
 20 21  1  0
 21 22  2  0
 22 23  1  0
 23 24  2  0
 11 25  1  0
 25 26  1  0
  5 27  1  0
 27 28  2  0
 28  2  1  0
 26  8  1  0
 24 12  1  0
 19 14  1  0
 24 20  1  0
  3 29  1  0
  4 30  1  0
  6 31  1  0
  6 32  1  0
  7 33  1  0
  7 34  1  0
  9 35  1  0
  9 36  1  0
 10 37  1  0
 10 38  1  0
 15 39  1  0
 16 40  1  0
 17 41  1  0
 18 42  1  0
 21 43  1  0
 22 44  1  0
 23 45  1  0
 25 46  1  0
 25 47  1  0
 26 48  1  0
 26 49  1  0
 27 50  1  0
 28 51  1  0
M  END
$$$$
