
     RDKit          3D

 48 49  0  0  0  0  0  0  0  0999 V2000
   -2.1633    2.9289   -1.8208 C   0  0  0  0  0  0  0  0  0  0  0  0
   -2.2970    2.2850   -0.4711 C   0  0  0  0  0  0  0  0  0  0  0  0
   -2.7807    3.0144    0.6156 C   0  0  0  0  0  0  0  0  0  0  0  0
   -2.9428    2.3996    1.8567 C   0  0  0  0  0  0  0  0  0  0  0  0
   -2.6319    1.0404    2.0365 C   0  0  0  0  0  0  0  0  0  0  0  0
   -2.8321    0.4431    3.4064 C   0  0  0  0  0  0  0  0  0  0  0  0
   -2.1461    0.2900    0.9418 C   0  0  0  0  0  0  0  0  0  0  0  0
   -1.8395   -1.0786    1.1419 N   0  0  0  0  0  0  0  0  0  0  0  0
   -1.2815   -1.9757    0.2477 C   0  0  0  0  0  0  0  0  0  0  0  0
   -0.9469   -1.7425   -0.9117 O   0  0  0  0  0  0  0  0  0  0  0  0
   -1.1405   -3.3642    0.8643 C   0  0  0  0  0  0  0  0  0  0  0  0
   -0.1456   -4.2470    0.1220 C   0  0  0  0  0  0  0  0  0  0  0  0
    1.2594   -4.0101    0.6395 C   0  0  0  0  0  0  0  0  0  0  0  0
    1.7657   -4.7618    1.4688 O   0  0  0  0  0  0  0  0  0  0  0  0
    1.8336   -2.8658    0.1186 N   0  0  0  0  0  0  0  0  0  0  0  0
    3.1428   -2.5938    0.3229 N   0  0  0  0  0  0  0  0  0  0  0  0
    3.6515   -1.4912   -0.1476 C   0  0  0  0  0  0  0  0  0  0  0  0
    3.0492   -0.3210   -0.8421 C   0  0  0  0  0  0  0  0  0  0  0  0
    3.6729    0.9074   -0.5718 C   0  0  0  0  0  0  0  0  0  0  0  0
    3.1831    2.0877   -1.1524 C   0  0  0  0  0  0  0  0  0  0  0  0
    3.8282    3.3714   -0.8445 N   0  0  0  0  0  4  0  0  0  0  0  0
    3.2471    4.4084   -1.1987 O   0  0  0  0  0  0  0  0  0  0  0  0
    4.9134    3.3386   -0.2468 O   0  0  0  0  0  1  0  0  0  0  0  0
    2.0830    2.0560   -2.0170 C   0  0  0  0  0  0  0  0  0  0  0  0
    1.4737    0.8343   -2.3014 C   0  0  0  0  0  0  0  0  0  0  0  0
    1.9562   -0.3420   -1.7192 C   0  0  0  0  0  0  0  0  0  0  0  0
    1.3414   -1.5121   -2.0660 O   0  0  0  0  0  0  0  0  0  0  0  0
   -1.9958    0.9238   -0.3004 C   0  0  0  0  0  0  0  0  0  0  0  0
   -1.2822    2.5473   -2.3513 H   0  0  0  0  0  0  0  0  0  0  0  0
   -3.0555    2.7263   -2.4222 H   0  0  0  0  0  0  0  0  0  0  0  0
   -2.0381    4.0137   -1.7283 H   0  0  0  0  0  0  0  0  0  0  0  0
   -3.0377    4.0659    0.5048 H   0  0  0  0  0  0  0  0  0  0  0  0
   -3.3197    2.9940    2.6896 H   0  0  0  0  0  0  0  0  0  0  0  0
   -3.5497   -0.3836    3.3580 H   0  0  0  0  0  0  0  0  0  0  0  0
   -1.8780    0.0829    3.8066 H   0  0  0  0  0  0  0  0  0  0  0  0
   -3.2291    1.1772    4.1163 H   0  0  0  0  0  0  0  0  0  0  0  0
   -2.0156   -1.4359    2.0717 H   0  0  0  0  0  0  0  0  0  0  0  0
   -0.8641   -3.2774    1.9251 H   0  0  0  0  0  0  0  0  0  0  0  0
   -2.1355   -3.8293    0.8110 H   0  0  0  0  0  0  0  0  0  0  0  0
   -0.3813   -5.3015    0.3040 H   0  0  0  0  0  0  0  0  0  0  0  0
   -0.1720   -4.1044   -0.9631 H   0  0  0  0  0  0  0  0  0  0  0  0
    1.3953   -2.4273   -0.6880 H   0  0  0  0  0  0  0  0  0  0  0  0
    4.7281   -1.3713    0.0712 H   0  0  0  0  0  0  0  0  0  0  0  0
    4.5244    0.9450    0.1076 H   0  0  0  0  0  0  0  0  0  0  0  0
    1.6984    2.9625   -2.4793 H   0  0  0  0  0  0  0  0  0  0  0  0
    0.6341    0.8026   -2.9937 H   0  0  0  0  0  0  0  0  0  0  0  0
    0.3755   -1.3512   -2.1414 H   0  0  0  0  0  0  0  0  0  0  0  0
   -1.6548    0.3743   -1.1698 H   0  0  0  0  0  0  0  0  0  0  0  0
  1  2  1  0
  2  3  2  0
  3  4  1  0
  4  5  2  0
  5  6  1  0
  5  7  1  0
  7  8  1  0
  8  9  1  0
  9 10  2  0
  9 11  1  0
 11 12  1  0
 12 13  1  0
 13 14  2  0
 13 15  1  0
 15 16  1  0
 16 17  2  3
 17 18  1  0
 18 19  2  0
 19 20  1  0
 20 21  1  0
 21 22  2  0
 21 23  1  0
 20 24  2  0
 24 25  1  0
 25 26  2  0
 26 27  1  0
  7 28  2  0
 28  2  1  0
 26 18  1  0
  1 29  1  0
  1 30  1  0
  1 31  1  0
  3 32  1  0
  4 33  1  0
  6 34  1  0
  6 35  1  0
  6 36  1  0
  8 37  1  0
 11 38  1  0
 11 39  1  0
 12 40  1  0
 12 41  1  0
 15 42  1  0
 17 43  1  0
 19 44  1  0
 24 45  1  0
 25 46  1  0
 27 47  1  0
 28 48  1  0
M  CHG  2  21   1  23  -1
M  END
$$$$
