
     RDKit          3D

 35 36  0  0  0  0  0  0  0  0999 V2000
   -5.2579    0.5554   -2.1704 C   0  0  0  0  0  0  0  0  0  0  0  0
   -4.7836   -0.4397   -1.1442 C   0  0  0  0  0  0  0  0  0  0  0  0
   -5.3427   -1.5251   -1.0012 O   0  0  0  0  0  0  0  0  0  0  0  0
   -3.6071   -0.0970   -0.2909 C   0  0  0  0  0  0  0  0  0  0  0  0
   -3.2244   -0.9989    0.7123 C   0  0  0  0  0  0  0  0  0  0  0  0
   -2.1289   -0.7228    1.5359 C   0  0  0  0  0  0  0  0  0  0  0  0
   -1.4024    0.4538    1.3565 C   0  0  0  0  0  0  0  0  0  0  0  0
   -0.2830    0.7017    2.1971 N   0  0  0  0  0  0  0  0  0  0  0  0
    1.2588    0.8791    1.5254 S   0  0  0  0  0  6  0  0  0  0  0  0
    2.1463    0.9468    2.6690 O   0  0  0  0  0  0  0  0  0  0  0  0
    1.2174    1.9374    0.5386 O   0  0  0  0  0  0  0  0  0  0  0  0
    1.4971   -0.7075    0.7033 C   0  0  0  0  0  0  0  0  0  0  0  0
    2.8857   -0.7594    0.1179 C   0  0  0  0  0  0  0  0  0  0  0  0
    3.9572   -1.2700    0.8664 C   0  0  0  0  0  0  0  0  0  0  0  0
    5.2435   -1.3135    0.3233 C   0  0  0  0  0  0  0  0  0  0  0  0
    5.4667   -0.8449   -0.9691 C   0  0  0  0  0  0  0  0  0  0  0  0
    7.0509   -0.9006   -1.6376 Cl  0  0  0  0  0  0  0  0  0  0  0  0
    4.4148   -0.3294   -1.7223 C   0  0  0  0  0  0  0  0  0  0  0  0
    3.1282   -0.2853   -1.1805 C   0  0  0  0  0  0  0  0  0  0  0  0
   -1.7825    1.3590    0.3664 C   0  0  0  0  0  0  0  0  0  0  0  0
   -2.8800    1.0864   -0.4584 C   0  0  0  0  0  0  0  0  0  0  0  0
   -4.4932    0.6998   -2.9378 H   0  0  0  0  0  0  0  0  0  0  0  0
   -6.1601    0.1690   -2.6549 H   0  0  0  0  0  0  0  0  0  0  0  0
   -5.5144    1.5035   -1.6907 H   0  0  0  0  0  0  0  0  0  0  0  0
   -3.7833   -1.9223    0.8596 H   0  0  0  0  0  0  0  0  0  0  0  0
   -1.8584   -1.4374    2.3084 H   0  0  0  0  0  0  0  0  0  0  0  0
   -0.2583    0.2428    3.1077 H   0  0  0  0  0  0  0  0  0  0  0  0
    1.3539   -1.4999    1.4445 H   0  0  0  0  0  0  0  0  0  0  0  0
    0.7448   -0.8109   -0.0839 H   0  0  0  0  0  0  0  0  0  0  0  0
    3.8038   -1.6270    1.8835 H   0  0  0  0  0  0  0  0  0  0  0  0
    6.0657   -1.7069    0.9152 H   0  0  0  0  0  0  0  0  0  0  0  0
    4.5899    0.0451   -2.7274 H   0  0  0  0  0  0  0  0  0  0  0  0
    2.3198    0.1338   -1.7778 H   0  0  0  0  0  0  0  0  0  0  0  0
   -1.2416    2.2942    0.2342 H   0  0  0  0  0  0  0  0  0  0  0  0
   -3.1428    1.8172   -1.2181 H   0  0  0  0  0  0  0  0  0  0  0  0
  1  2  1  0
  2  3  2  0
  2  4  1  0
  4  5  2  0
  5  6  1  0
  6  7  2  0
  7  8  1  0
  8  9  1  0
  9 10  2  0
  9 11  2  0
  9 12  1  0
 12 13  1  0
 13 14  2  0
 14 15  1  0
 15 16  2  0
 16 17  1  0
 16 18  1  0
 18 19  2  0
  7 20  1  0
 20 21  2  0
 21  4  1  0
 19 13  1  0
  1 22  1  0
  1 23  1  0
  1 24  1  0
  5 25  1  0
  6 26  1  0
  8 27  1  0
 12 28  1  0
 12 29  1  0
 14 30  1  0
 15 31  1  0
 18 32  1  0
 19 33  1  0
 20 34  1  0
 21 35  1  0
M  END
$$$$
