
     RDKit          3D

 54 57  0  0  0  0  0  0  0  0999 V2000
    8.2773   -0.6070   -0.2853 C   0  0  0  0  0  0  0  0  0  0  0  0
    6.8919   -1.0887   -0.2815 N   0  0  0  0  0  0  0  0  0  0  0  0
    6.6666   -2.3256    0.4647 C   0  0  0  0  0  0  0  0  0  0  0  0
    5.8880   -0.1072   -0.2986 C   0  0  0  0  0  0  0  0  0  0  0  0
    6.0340    1.0633   -1.0670 C   0  0  0  0  0  0  0  0  0  0  0  0
    5.0538    2.0635   -1.1003 C   0  0  0  0  0  0  0  0  0  0  0  0
    3.8804    1.9081   -0.3682 C   0  0  0  0  0  0  0  0  0  0  0  0
    2.9132    3.0263   -0.3500 C   0  0  0  0  0  0  0  0  0  0  0  0
    1.6173    3.0009   -0.2522 N   0  0  0  0  0  0  0  0  0  0  0  0
    0.9630    1.8130   -0.3550 N   0  0  0  0  0  0  0  0  0  0  0  0
   -0.3824    1.7175   -0.0262 C   0  0  0  0  0  0  0  0  0  0  0  0
   -1.0456    2.6031    0.5034 O   0  0  0  0  0  0  0  0  0  0  0  0
   -0.9443    0.4067   -0.3492 C   0  0  0  0  0  0  0  0  0  0  0  0
   -0.2272   -0.5453   -1.0252 N   0  0  0  0  0  0  0  0  0  0  0  0
   -0.9930   -1.6108   -1.1787 N   0  0  0  0  0  0  0  0  0  0  0  0
   -2.1994   -1.3903   -0.5725 N   0  0  0  0  0  0  0  0  0  0  0  0
   -3.1877   -2.4073   -0.5151 C   0  0  0  0  0  0  0  0  0  0  0  0
   -4.3044   -2.2525    0.1991 N   0  0  0  0  0  0  0  0  0  0  0  0
   -4.9953   -3.4489    0.0130 O   0  0  0  0  0  0  0  0  0  0  0  0
   -4.2735   -4.3302   -0.7832 N   0  0  0  0  0  0  0  0  0  0  0  0
   -3.1587   -3.6799   -1.1153 C   0  0  0  0  0  0  0  0  0  0  0  0
   -2.1883   -4.1895   -1.8977 N   0  0  0  0  0  0  0  0  0  0  0  0
   -2.2028   -0.0976   -0.0509 C   0  0  0  0  0  0  0  0  0  0  0  0
   -3.3545    0.5286    0.6499 C   0  0  0  0  0  0  0  0  0  0  0  0
   -4.3664    0.7234   -0.3378 O   0  0  0  0  0  0  0  0  0  0  0  0
   -5.5963    1.1106    0.1263 C   0  0  0  0  0  0  0  0  0  0  0  0
   -6.6562    0.9043   -0.7667 C   0  0  0  0  0  0  0  0  0  0  0  0
   -7.9610    1.2478   -0.4086 C   0  0  0  0  0  0  0  0  0  0  0  0
   -8.1983    1.8104    0.8389 C   0  0  0  0  0  0  0  0  0  0  0  0
   -9.4489    2.1359    1.1945 F   0  0  0  0  0  0  0  0  0  0  0  0
   -7.1541    2.0406    1.7290 C   0  0  0  0  0  0  0  0  0  0  0  0
   -5.8476    1.6919    1.3720 C   0  0  0  0  0  0  0  0  0  0  0  0
    3.7012    0.7637    0.4040 C   0  0  0  0  0  0  0  0  0  0  0  0
    4.6864   -0.2356    0.4165 C   0  0  0  0  0  0  0  0  0  0  0  0
    8.5566   -0.2100   -1.2659 H   0  0  0  0  0  0  0  0  0  0  0  0
    8.4303    0.1650    0.4790 H   0  0  0  0  0  0  0  0  0  0  0  0
    8.9818   -1.4205   -0.0735 H   0  0  0  0  0  0  0  0  0  0  0  0
    7.4848   -3.0345    0.2992 H   0  0  0  0  0  0  0  0  0  0  0  0
    6.6047   -2.1329    1.5423 H   0  0  0  0  0  0  0  0  0  0  0  0
    5.7526   -2.8287    0.1260 H   0  0  0  0  0  0  0  0  0  0  0  0
    6.9240    1.2132   -1.6725 H   0  0  0  0  0  0  0  0  0  0  0  0
    5.2236    2.9516   -1.7030 H   0  0  0  0  0  0  0  0  0  0  0  0
    3.3697    4.0325   -0.4007 H   0  0  0  0  0  0  0  0  0  0  0  0
    1.3965    1.0473   -0.8657 H   0  0  0  0  0  0  0  0  0  0  0  0
   -2.2067   -5.1696   -2.1600 H   0  0  0  0  0  0  0  0  0  0  0  0
   -1.2887   -3.7212   -2.0264 H   0  0  0  0  0  0  0  0  0  0  0  0
   -3.7012   -0.1098    1.4707 H   0  0  0  0  0  0  0  0  0  0  0  0
   -3.0729    1.4953    1.0756 H   0  0  0  0  0  0  0  0  0  0  0  0
   -6.4618    0.4622   -1.7418 H   0  0  0  0  0  0  0  0  0  0  0  0
   -8.7874    1.0786   -1.0915 H   0  0  0  0  0  0  0  0  0  0  0  0
   -7.3652    2.4973    2.6947 H   0  0  0  0  0  0  0  0  0  0  0  0
   -5.0512    1.9018    2.0813 H   0  0  0  0  0  0  0  0  0  0  0  0
    2.8257    0.6455    1.0351 H   0  0  0  0  0  0  0  0  0  0  0  0
    4.4977   -1.1065    1.0387 H   0  0  0  0  0  0  0  0  0  0  0  0
  1  2  1  0
  2  3  1  0
  2  4  1  0
  4  5  2  0
  5  6  1  0
  6  7  2  0
  7  8  1  0
  8  9  2  3
  9 10  1  0
 10 11  1  0
 11 12  2  0
 11 13  1  0
 13 14  1  0
 14 15  2  0
 15 16  1  0
 16 17  1  0
 17 18  2  0
 18 19  1  0
 19 20  1  0
 20 21  2  0
 21 22  1  0
 16 23  1  0
 23 24  1  0
 24 25  1  0
 25 26  1  0
 26 27  2  0
 27 28  1  0
 28 29  2  0
 29 30  1  0
 29 31  1  0
 31 32  2  0
  7 33  1  0
 33 34  2  0
 34  4  1  0
 23 13  2  0
 32 26  1  0
 21 17  1  0
  1 35  1  0
  1 36  1  0
  1 37  1  0
  3 38  1  0
  3 39  1  0
  3 40  1  0
  5 41  1  0
  6 42  1  0
  8 43  1  0
 10 44  1  0
 22 45  1  0
 22 46  1  0
 24 47  1  0
 24 48  1  0
 27 49  1  0
 28 50  1  0
 31 51  1  0
 32 52  1  0
 33 53  1  0
 34 54  1  0
M  END
$$$$
