
     RDKit          3D

 39 39  0  0  0  0  0  0  0  0999 V2000
    0.4599   -3.8040   -0.2149 C   0  0  0  0  0  0  0  0  0  0  0  0
   -0.9355   -3.4047    0.2271 C   0  0  0  0  0  0  0  0  0  0  0  0
   -0.9073   -2.1038    0.8333 O   0  0  0  0  0  0  0  0  0  0  0  0
   -1.0111   -1.0395   -0.0242 C   0  0  0  0  0  0  0  0  0  0  0  0
   -1.1207   -1.1507   -1.2415 O   0  0  0  0  0  0  0  0  0  0  0  0
   -0.8768    0.3009    0.7469 C   0  0  0  0  0  0  0  0  0  0  0  0
   -0.8033    1.4827   -0.1052 N   0  0  0  0  0  0  0  0  0  0  0  0
   -1.8916    1.9538   -0.7869 C   0  0  0  0  0  0  0  0  0  0  0  0
   -2.9714    1.3792   -0.7718 O   0  0  0  0  0  0  0  0  0  0  0  0
   -1.6162    3.2384   -1.5398 C   0  0  0  0  0  0  0  0  0  0  0  0
   -2.8301    3.7278   -2.3085 C   0  0  0  0  0  0  0  0  0  0  0  0
    0.4383    0.3801    1.4828 N   0  0  0  0  0  0  0  0  0  0  0  0
    1.6684    0.0140    0.9260 C   0  0  0  0  0  0  0  0  0  0  0  0
    2.7373   -0.2295    1.8042 C   0  0  0  0  0  0  0  0  0  0  0  0
    4.0166   -0.5415    1.3347 C   0  0  0  0  0  0  0  0  0  0  0  0
    4.2607   -0.5889   -0.0323 C   0  0  0  0  0  0  0  0  0  0  0  0
    3.2290   -0.3087   -0.9214 C   0  0  0  0  0  0  0  0  0  0  0  0
    1.9507    0.0059   -0.4445 C   0  0  0  0  0  0  0  0  0  0  0  0
   -2.0768    0.2864    1.7632 C   0  0  0  0  0  0  0  0  0  0  0  0
   -3.2115   -0.2744    1.2985 F   0  0  0  0  0  0  0  0  0  0  0  0
   -2.3779    1.5388    2.1989 F   0  0  0  0  0  0  0  0  0  0  0  0
   -1.7278   -0.4126    2.8842 F   0  0  0  0  0  0  0  0  0  0  0  0
    0.8364   -3.1270   -0.9880 H   0  0  0  0  0  0  0  0  0  0  0  0
    0.4640   -4.8227   -0.6125 H   0  0  0  0  0  0  0  0  0  0  0  0
    1.1603   -3.7487    0.6250 H   0  0  0  0  0  0  0  0  0  0  0  0
   -1.2938   -4.1038    0.9897 H   0  0  0  0  0  0  0  0  0  0  0  0
   -1.6485   -3.4422   -0.6043 H   0  0  0  0  0  0  0  0  0  0  0  0
    0.0002    2.0719    0.0545 H   0  0  0  0  0  0  0  0  0  0  0  0
   -0.7879    3.0629   -2.2353 H   0  0  0  0  0  0  0  0  0  0  0  0
   -1.3058    4.0035   -0.8195 H   0  0  0  0  0  0  0  0  0  0  0  0
   -3.6701    3.9235   -1.6337 H   0  0  0  0  0  0  0  0  0  0  0  0
   -3.1566    2.9837   -3.0426 H   0  0  0  0  0  0  0  0  0  0  0  0
   -2.5961    4.6545   -2.8412 H   0  0  0  0  0  0  0  0  0  0  0  0
    0.3310   -0.0629    2.4000 H   0  0  0  0  0  0  0  0  0  0  0  0
    2.5832   -0.1791    2.8801 H   0  0  0  0  0  0  0  0  0  0  0  0
    4.8204   -0.7387    2.0392 H   0  0  0  0  0  0  0  0  0  0  0  0
    5.2530   -0.8298   -0.4038 H   0  0  0  0  0  0  0  0  0  0  0  0
    3.4151   -0.3275   -1.9926 H   0  0  0  0  0  0  0  0  0  0  0  0
    1.1925    0.2327   -1.1885 H   0  0  0  0  0  0  0  0  0  0  0  0
  1  2  1  0
  2  3  1  0
  3  4  1  0
  4  5  2  0
  4  6  1  0
  6  7  1  0
  7  8  1  0
  8  9  2  0
  8 10  1  0
 10 11  1  0
  6 12  1  0
 12 13  1  0
 13 14  2  0
 14 15  1  0
 15 16  2  0
 16 17  1  0
 17 18  2  0
  6 19  1  0
 19 20  1  0
 19 21  1  0
 19 22  1  0
 18 13  1  0
  1 23  1  0
  1 24  1  0
  1 25  1  0
  2 26  1  0
  2 27  1  0
  7 28  1  0
 10 29  1  0
 10 30  1  0
 11 31  1  0
 11 32  1  0
 11 33  1  0
 12 34  1  0
 14 35  1  0
 15 36  1  0
 16 37  1  0
 17 38  1  0
 18 39  1  0
M  END
$$$$
