
     RDKit          3D

 46 49  0  0  0  0  0  0  0  0999 V2000
    2.5710    0.6347   -3.0292 O   0  0  0  0  0  0  0  0  0  0  0  0
    2.7407   -0.2275   -2.1700 C   0  0  0  0  0  0  0  0  0  0  0  0
    2.6211   -1.7051   -2.5220 C   0  0  0  0  0  0  0  0  0  0  0  0
    0.8654   -2.1893   -2.5572 S   0  0  0  0  0  0  0  0  0  0  0  0
    0.4890   -1.9941   -0.8831 C   0  0  0  0  0  0  0  0  0  0  0  0
    1.3063   -2.2770    0.1019 N   0  0  0  0  0  0  0  0  0  0  0  0
    0.6914   -1.9083    1.2671 N   0  0  0  0  0  0  0  0  0  0  0  0
   -0.4920   -1.4004    0.9730 C   0  0  0  0  0  0  0  0  0  0  0  0
   -1.4764   -0.8773    1.9688 C   0  0  0  0  0  0  0  0  0  0  0  0
   -1.6075    0.6217    1.9651 C   0  0  0  0  0  0  0  0  0  0  0  0
   -2.7353    1.3781    1.7062 C   0  0  0  0  0  0  0  0  0  0  0  0
   -2.4837    2.7778    1.7952 C   0  0  0  0  0  0  0  0  0  0  0  0
   -1.1778    3.0464    2.1366 C   0  0  0  0  0  0  0  0  0  0  0  0
   -0.2681    1.6186    2.3602 S   0  0  0  0  0  0  0  0  0  0  0  0
   -0.6665   -1.4497   -0.3955 N   0  0  0  0  0  0  0  0  0  0  0  0
   -1.8037   -0.9691   -1.1536 C   0  0  0  0  0  0  0  0  0  0  0  0
   -2.8735   -1.9948   -1.1953 C   0  0  0  0  0  0  0  0  0  0  0  0
   -3.0466   -3.1604   -1.9137 C   0  0  0  0  0  0  0  0  0  0  0  0
   -4.2872   -3.7026   -1.5004 C   0  0  0  0  0  0  0  0  0  0  0  0
   -4.7942   -2.8335   -0.5637 C   0  0  0  0  0  0  0  0  0  0  0  0
   -3.9447   -1.7916   -0.3737 O   0  0  0  0  0  0  0  0  0  0  0  0
    3.0227    0.0018   -0.8348 N   0  0  0  0  0  0  0  0  0  0  0  0
    3.1340    1.2449   -0.1658 C   0  0  0  0  0  0  0  0  0  0  0  0
    2.9605    2.4767   -0.8039 C   0  0  0  0  0  0  0  0  0  0  0  0
    3.0416    3.6721   -0.0799 C   0  0  0  0  0  0  0  0  0  0  0  0
    3.3045    3.6447    1.2865 C   0  0  0  0  0  0  0  0  0  0  0  0
    3.3850    5.1175    2.1701 Cl  0  0  0  0  0  0  0  0  0  0  0  0
    3.5010    2.4341    1.9397 C   0  0  0  0  0  0  0  0  0  0  0  0
    3.4168    1.2427    1.2151 C   0  0  0  0  0  0  0  0  0  0  0  0
    3.6941   -0.2373    2.0695 Cl  0  0  0  0  0  0  0  0  0  0  0  0
    3.1890   -2.3301   -1.8255 H   0  0  0  0  0  0  0  0  0  0  0  0
    3.0536   -1.8556   -3.5165 H   0  0  0  0  0  0  0  0  0  0  0  0
   -1.1723   -1.2010    2.9732 H   0  0  0  0  0  0  0  0  0  0  0  0
   -2.4551   -1.3378    1.7945 H   0  0  0  0  0  0  0  0  0  0  0  0
   -3.6985    0.9476    1.4579 H   0  0  0  0  0  0  0  0  0  0  0  0
   -3.2243    3.5496    1.6232 H   0  0  0  0  0  0  0  0  0  0  0  0
   -0.7144    4.0142    2.2794 H   0  0  0  0  0  0  0  0  0  0  0  0
   -2.1567   -0.0416   -0.6981 H   0  0  0  0  0  0  0  0  0  0  0  0
   -1.4832   -0.7061   -2.1656 H   0  0  0  0  0  0  0  0  0  0  0  0
   -2.3603   -3.5718   -2.6427 H   0  0  0  0  0  0  0  0  0  0  0  0
   -4.7552   -4.6153   -1.8431 H   0  0  0  0  0  0  0  0  0  0  0  0
   -5.6995   -2.8148    0.0280 H   0  0  0  0  0  0  0  0  0  0  0  0
    3.0348   -0.8109   -0.2139 H   0  0  0  0  0  0  0  0  0  0  0  0
    2.7479    2.5476   -1.8657 H   0  0  0  0  0  0  0  0  0  0  0  0
    2.8933    4.6185   -0.5940 H   0  0  0  0  0  0  0  0  0  0  0  0
    3.7131    2.4138    3.0050 H   0  0  0  0  0  0  0  0  0  0  0  0
  1  2  2  0
  2  3  1  0
  3  4  1  0
  4  5  1  0
  5  6  2  0
  6  7  1  0
  7  8  2  0
  8  9  1  0
  9 10  1  0
 10 11  2  0
 11 12  1  0
 12 13  2  0
 13 14  1  0
  8 15  1  0
 15 16  1  0
 16 17  1  0
 17 18  2  0
 18 19  1  0
 19 20  2  0
 20 21  1  0
  2 22  1  0
 22 23  1  0
 23 24  2  0
 24 25  1  0
 25 26  2  0
 26 27  1  0
 26 28  1  0
 28 29  2  0
 29 30  1  0
 15  5  1  0
 21 17  1  0
 29 23  1  0
 14 10  1  0
  3 31  1  0
  3 32  1  0
  9 33  1  0
  9 34  1  0
 11 35  1  0
 12 36  1  0
 13 37  1  0
 16 38  1  0
 16 39  1  0
 18 40  1  0
 19 41  1  0
 20 42  1  0
 22 43  1  0
 24 44  1  0
 25 45  1  0
 28 46  1  0
M  END
$$$$
