
     RDKit          3D

 61 64  0  0  0  0  0  0  0  0999 V2000
    6.9797    3.9312   -1.7730 C   0  0  0  0  0  0  0  0  0  0  0  0
    6.5224    3.2618   -0.6117 O   0  0  0  0  0  0  0  0  0  0  0  0
    5.5486    2.3150   -0.7740 C   0  0  0  0  0  0  0  0  0  0  0  0
    5.0386    1.8886   -1.9949 C   0  0  0  0  0  0  0  0  0  0  0  0
    4.0705    0.8721   -2.0510 C   0  0  0  0  0  0  0  0  0  0  0  0
    3.5916    0.2795   -0.8848 C   0  0  0  0  0  0  0  0  0  0  0  0
    2.6895   -0.8069   -0.8632 N   0  0  0  0  0  0  0  0  0  0  0  0
    2.2306   -1.5385   -1.9348 C   0  0  0  0  0  0  0  0  0  0  0  0
    2.3389   -1.2309   -3.1200 O   0  0  0  0  0  0  0  0  0  0  0  0
    1.5921   -2.8561   -1.5207 C   0  0  0  0  0  0  0  0  0  0  0  0
   -0.2139   -2.7523   -1.5398 S   0  0  0  0  0  0  0  0  0  0  0  0
   -0.5269   -1.9054   -0.0664 C   0  0  0  0  0  0  0  0  0  0  0  0
    0.4041   -1.5549    0.7872 N   0  0  0  0  0  0  0  0  0  0  0  0
   -0.2119   -1.0011    1.8722 N   0  0  0  0  0  0  0  0  0  0  0  0
   -1.5169   -1.0324    1.6763 C   0  0  0  0  0  0  0  0  0  0  0  0
   -2.5167   -0.3981    2.5925 C   0  0  0  0  0  0  0  0  0  0  0  0
   -3.3143    0.6949    1.9482 C   0  0  0  0  0  0  0  0  0  0  0  0
   -4.6708    0.7319    1.6529 C   0  0  0  0  0  0  0  0  0  0  0  0
   -4.9515    1.9652    1.0221 C   0  0  0  0  0  0  0  0  0  0  0  0
   -3.7696    2.6613    0.9535 C   0  0  0  0  0  0  0  0  0  0  0  0
   -2.7814    1.9008    1.5421 N   0  0  0  0  0  0  0  0  0  0  0  0
   -1.4157    2.3388    1.7164 C   0  0  0  0  0  0  0  0  0  0  0  0
   -1.7919   -1.6539    0.4545 N   0  0  0  0  0  0  0  0  0  0  0  0
   -3.0571   -1.9794   -0.1010 C   0  0  0  0  0  0  0  0  0  0  0  0
   -3.3387   -1.6655   -1.4338 C   0  0  0  0  0  0  0  0  0  0  0  0
   -4.5919   -1.9689   -1.9742 C   0  0  0  0  0  0  0  0  0  0  0  0
   -5.5675   -2.6084   -1.2021 C   0  0  0  0  0  0  0  0  0  0  0  0
   -6.9238   -2.9171   -1.7887 C   0  0  0  0  0  0  0  0  0  0  0  0
   -5.2743   -2.9161    0.1324 C   0  0  0  0  0  0  0  0  0  0  0  0
   -4.0249   -2.6082    0.6839 C   0  0  0  0  0  0  0  0  0  0  0  0
    4.0659    0.7365    0.3459 C   0  0  0  0  0  0  0  0  0  0  0  0
    5.0530    1.7260    0.3963 C   0  0  0  0  0  0  0  0  0  0  0  0
    5.5154    2.1404    1.6271 O   0  0  0  0  0  0  0  0  0  0  0  0
    6.5092    1.2402    2.1016 C   0  0  0  0  0  0  0  0  0  0  0  0
    7.7539    4.6344   -1.4606 H   0  0  0  0  0  0  0  0  0  0  0  0
    7.4410    3.2395   -2.4883 H   0  0  0  0  0  0  0  0  0  0  0  0
    6.1702    4.4991   -2.2462 H   0  0  0  0  0  0  0  0  0  0  0  0
    5.3672    2.3212   -2.9380 H   0  0  0  0  0  0  0  0  0  0  0  0
    3.6854    0.5972   -3.0296 H   0  0  0  0  0  0  0  0  0  0  0  0
    2.3491   -1.0836    0.0608 H   0  0  0  0  0  0  0  0  0  0  0  0
    1.9768   -3.1978   -0.5456 H   0  0  0  0  0  0  0  0  0  0  0  0
    1.8989   -3.6090   -2.2505 H   0  0  0  0  0  0  0  0  0  0  0  0
   -3.1696   -1.1570    3.0145 H   0  0  0  0  0  0  0  0  0  0  0  0
   -1.9991    0.0262    3.4539 H   0  0  0  0  0  0  0  0  0  0  0  0
   -5.3839   -0.0623    1.8554 H   0  0  0  0  0  0  0  0  0  0  0  0
   -5.9119    2.3133    0.6537 H   0  0  0  0  0  0  0  0  0  0  0  0
   -3.5520    3.6424    0.5466 H   0  0  0  0  0  0  0  0  0  0  0  0
   -1.1279    2.1631    2.7445 H   0  0  0  0  0  0  0  0  0  0  0  0
   -1.3606    3.4038    1.5030 H   0  0  0  0  0  0  0  0  0  0  0  0
   -0.7742    1.7799    1.0226 H   0  0  0  0  0  0  0  0  0  0  0  0
   -2.6153   -1.1500   -2.0611 H   0  0  0  0  0  0  0  0  0  0  0  0
   -4.8036   -1.7006   -3.0085 H   0  0  0  0  0  0  0  0  0  0  0  0
   -6.8424   -3.1983   -2.8463 H   0  0  0  0  0  0  0  0  0  0  0  0
   -7.3954   -3.7623   -1.2706 H   0  0  0  0  0  0  0  0  0  0  0  0
   -7.5686   -2.0304   -1.7137 H   0  0  0  0  0  0  0  0  0  0  0  0
   -6.0165   -3.4147    0.7490 H   0  0  0  0  0  0  0  0  0  0  0  0
   -3.8229   -2.9050    1.7092 H   0  0  0  0  0  0  0  0  0  0  0  0
    3.6917    0.3220    1.2744 H   0  0  0  0  0  0  0  0  0  0  0  0
    7.0945    1.7414    2.8729 H   0  0  0  0  0  0  0  0  0  0  0  0
    6.0383    0.3750    2.5608 H   0  0  0  0  0  0  0  0  0  0  0  0
    7.1863    0.9224    1.3029 H   0  0  0  0  0  0  0  0  0  0  0  0
  1  2  1  0
  2  3  1  0
  3  4  2  0
  4  5  1  0
  5  6  2  0
  6  7  1  0
  7  8  1  0
  8  9  2  0
  8 10  1  0
 10 11  1  0
 11 12  1  0
 12 13  2  0
 13 14  1  0
 14 15  2  0
 15 16  1  0
 16 17  1  0
 17 18  2  0
 18 19  1  0
 19 20  2  0
 20 21  1  0
 21 22  1  0
 15 23  1  0
 23 24  1  0
 24 25  2  0
 25 26  1  0
 26 27  2  0
 27 28  1  0
 27 29  1  0
 29 30  2  0
  6 31  1  0
 31 32  2  0
 32 33  1  0
 33 34  1  0
 32  3  1  0
 23 12  1  0
 30 24  1  0
 21 17  1  0
  1 35  1  0
  1 36  1  0
  1 37  1  0
  4 38  1  0
  5 39  1  0
  7 40  1  0
 10 41  1  0
 10 42  1  0
 16 43  1  0
 16 44  1  0
 18 45  1  0
 19 46  1  0
 20 47  1  0
 22 48  1  0
 22 49  1  0
 22 50  1  0
 25 51  1  0
 26 52  1  0
 28 53  1  0
 28 54  1  0
 28 55  1  0
 29 56  1  0
 30 57  1  0
 31 58  1  0
 34 59  1  0
 34 60  1  0
 34 61  1  0
M  END
$$$$
