
     RDKit          3D

 27 27  0  0  0  0  0  0  0  0999 V2000
   -5.2179    0.4645    1.6327 C   0  0  0  0  0  0  0  0  0  0  0  0
   -4.9278   -0.5667    0.8278 C   0  0  0  0  0  0  0  0  0  0  0  0
   -4.4500   -0.4265   -0.5823 C   0  0  0  0  0  0  0  0  0  0  0  0
   -3.0883   -0.8780   -0.6283 N   0  0  0  0  0  0  0  0  0  0  0  0
   -2.0162   -0.0176   -0.6291 C   0  0  0  0  0  0  0  0  0  0  0  0
   -2.0570    1.2044   -0.6921 O   0  0  0  0  0  0  0  0  0  0  0  0
   -0.6531   -0.7288   -0.5380 C   0  0  0  0  0  0  0  0  0  0  0  0
   -0.6154   -1.9498   -0.4719 O   0  0  0  0  0  0  0  0  0  0  0  0
    0.3925    0.1744   -0.5434 N   0  0  0  0  0  0  0  0  0  0  0  0
    1.6870   -0.2498   -0.4693 N   0  0  0  0  0  0  0  0  0  0  0  0
    2.5824    0.6866   -0.4780 C   0  0  0  0  0  0  0  0  0  0  0  0
    3.9895    0.4019   -0.4062 C   0  0  0  0  0  0  0  0  0  0  0  0
    5.0867    1.2429   -0.4016 C   0  0  0  0  0  0  0  0  0  0  0  0
    6.2330    0.4150   -0.3144 C   0  0  0  0  0  0  0  0  0  0  0  0
    5.7676   -0.8773   -0.2713 C   0  0  0  0  0  0  0  0  0  0  0  0
    4.4121   -0.8955   -0.3263 O   0  0  0  0  0  0  0  0  0  0  0  0
   -5.5652    0.2982    2.6477 H   0  0  0  0  0  0  0  0  0  0  0  0
   -5.1039    1.4932    1.3028 H   0  0  0  0  0  0  0  0  0  0  0  0
   -5.0555   -1.5786    1.2055 H   0  0  0  0  0  0  0  0  0  0  0  0
   -4.5224    0.6054   -0.9411 H   0  0  0  0  0  0  0  0  0  0  0  0
   -5.0420   -1.0668   -1.2431 H   0  0  0  0  0  0  0  0  0  0  0  0
   -2.8720   -1.8644   -0.5092 H   0  0  0  0  0  0  0  0  0  0  0  0
    0.1590    1.1642   -0.6005 H   0  0  0  0  0  0  0  0  0  0  0  0
    2.2999    1.7527   -0.5414 H   0  0  0  0  0  0  0  0  0  0  0  0
    5.0639    2.3224   -0.4545 H   0  0  0  0  0  0  0  0  0  0  0  0
    7.2697    0.7198   -0.2864 H   0  0  0  0  0  0  0  0  0  0  0  0
    6.2434   -1.8460   -0.2050 H   0  0  0  0  0  0  0  0  0  0  0  0
  1  2  2  0
  2  3  1  0
  3  4  1  0
  4  5  1  0
  5  6  2  0
  5  7  1  0
  7  8  2  0
  7  9  1  0
  9 10  1  0
 10 11  2  3
 11 12  1  0
 12 13  2  0
 13 14  1  0
 14 15  2  0
 15 16  1  0
 16 12  1  0
  1 17  1  0
  1 18  1  0
  2 19  1  0
  3 20  1  0
  3 21  1  0
  4 22  1  0
  9 23  1  0
 11 24  1  0
 13 25  1  0
 14 26  1  0
 15 27  1  0
M  END
$$$$
