
     RDKit          3D

 46 48  0  0  0  0  0  0  0  0999 V2000
   -3.3255    1.3057   -0.6297 C   0  0  0  0  0  0  0  0  0  0  0  0
   -2.7675    0.6994    0.6446 C   0  0  0  0  0  0  0  0  0  0  0  0
   -2.7221   -0.7905    0.5252 N   0  0  0  0  0  4  0  0  0  0  0  0
   -1.5601   -1.3920    0.1255 C   0  0  0  0  0  0  0  0  0  0  0  0
   -0.3989   -0.5945   -0.2884 C   0  0  0  0  0  0  0  0  0  0  0  0
    0.7665   -0.6199    0.3783 C   0  0  0  0  0  0  0  0  0  0  0  0
    1.9233    0.1988   -0.0052 C   0  0  0  0  0  0  0  0  0  0  0  0
    2.6980    0.7898    0.9911 C   0  0  0  0  0  0  0  0  0  0  0  0
    3.8149    1.5734    0.6600 C   0  0  0  0  0  0  0  0  0  0  0  0
    4.2212    1.7837   -0.6685 C   0  0  0  0  0  0  0  0  0  0  0  0
    5.3183    2.5864   -0.9941 N   0  0  0  0  0  0  0  0  0  0  0  0
    6.2634    2.9685    0.0557 C   0  0  0  0  0  0  0  0  0  0  0  0
    5.8768    2.5214   -2.3450 C   0  0  0  0  0  0  0  0  0  0  0  0
    3.4272    1.1678   -1.6509 C   0  0  0  0  0  0  0  0  0  0  0  0
    2.3072    0.3830   -1.3326 C   0  0  0  0  0  0  0  0  0  0  0  0
   -1.4606   -2.7827    0.0659 C   0  0  0  0  0  0  0  0  0  0  0  0
   -2.5401   -3.5722    0.4130 C   0  0  0  0  0  0  0  0  0  0  0  0
   -3.7272   -2.9686    0.8072 C   0  0  0  0  0  0  0  0  0  0  0  0
   -4.8279   -3.7684    1.1488 C   0  0  0  0  0  0  0  0  0  0  0  0
   -6.0323   -3.1901    1.5383 C   0  0  0  0  0  0  0  0  0  0  0  0
   -6.1496   -1.8082    1.5869 C   0  0  0  0  0  0  0  0  0  0  0  0
   -5.0596   -0.9978    1.2505 C   0  0  0  0  0  0  0  0  0  0  0  0
   -3.8225   -1.5496    0.8593 C   0  0  0  0  0  0  0  0  0  0  0  0
   -2.7118    1.0458   -1.4973 H   0  0  0  0  0  0  0  0  0  0  0  0
   -4.3418    0.9557   -0.8326 H   0  0  0  0  0  0  0  0  0  0  0  0
   -3.3532    2.3965   -0.5476 H   0  0  0  0  0  0  0  0  0  0  0  0
   -3.3597    0.9669    1.5241 H   0  0  0  0  0  0  0  0  0  0  0  0
   -1.7657    1.0831    0.8563 H   0  0  0  0  0  0  0  0  0  0  0  0
   -0.5353    0.0386   -1.1612 H   0  0  0  0  0  0  0  0  0  0  0  0
    0.9040   -1.2307    1.2696 H   0  0  0  0  0  0  0  0  0  0  0  0
    2.4483    0.6659    2.0424 H   0  0  0  0  0  0  0  0  0  0  0  0
    4.3617    2.0187    1.4862 H   0  0  0  0  0  0  0  0  0  0  0  0
    6.7287    2.0847    0.5060 H   0  0  0  0  0  0  0  0  0  0  0  0
    5.7725    3.5636    0.8331 H   0  0  0  0  0  0  0  0  0  0  0  0
    7.0666    3.5993   -0.3415 H   0  0  0  0  0  0  0  0  0  0  0  0
    5.1442    2.8446   -3.0922 H   0  0  0  0  0  0  0  0  0  0  0  0
    6.2206    1.5079   -2.5796 H   0  0  0  0  0  0  0  0  0  0  0  0
    6.7341    3.1950   -2.4552 H   0  0  0  0  0  0  0  0  0  0  0  0
    3.6616    1.2808   -2.7056 H   0  0  0  0  0  0  0  0  0  0  0  0
    1.7589   -0.0810   -2.1483 H   0  0  0  0  0  0  0  0  0  0  0  0
   -0.5368   -3.2595   -0.2606 H   0  0  0  0  0  0  0  0  0  0  0  0
   -2.4467   -4.6568    0.3625 H   0  0  0  0  0  0  0  0  0  0  0  0
   -4.7627   -4.8562    1.1139 H   0  0  0  0  0  0  0  0  0  0  0  0
   -6.8810   -3.8207    1.8000 H   0  0  0  0  0  0  0  0  0  0  0  0
   -7.0957   -1.3582    1.8859 H   0  0  0  0  0  0  0  0  0  0  0  0
   -5.2337    0.0725    1.3006 H   0  0  0  0  0  0  0  0  0  0  0  0
  1  2  1  0
  2  3  1  0
  3  4  2  0
  4  5  1  0
  5  6  2  3
  6  7  1  0
  7  8  2  0
  8  9  1  0
  9 10  2  0
 10 11  1  0
 11 12  1  0
 11 13  1  0
 10 14  1  0
 14 15  2  0
  4 16  1  0
 16 17  2  0
 17 18  1  0
 18 19  2  0
 19 20  1  0
 20 21  2  0
 21 22  1  0
 22 23  2  0
 23  3  1  0
 15  7  1  0
 23 18  1  0
  1 24  1  0
  1 25  1  0
  1 26  1  0
  2 27  1  0
  2 28  1  0
  5 29  1  0
  6 30  1  0
  8 31  1  0
  9 32  1  0
 12 33  1  0
 12 34  1  0
 12 35  1  0
 13 36  1  0
 13 37  1  0
 13 38  1  0
 14 39  1  0
 15 40  1  0
 16 41  1  0
 17 42  1  0
 19 43  1  0
 20 44  1  0
 21 45  1  0
 22 46  1  0
M  CHG  1   3   1
M  END
$$$$
