
     RDKit          3D

 56 60  0  0  0  0  0  0  0  0999 V2000
   -5.9141   -2.0638   -0.1274 C   0  0  0  0  0  0  0  0  0  0  0  0
   -4.4863   -1.6977    0.1663 C   0  0  0  0  0  0  0  0  0  0  0  0
   -4.1183   -1.4532    1.4988 C   0  0  0  0  0  0  0  0  0  0  0  0
   -2.7977   -1.1372    1.8404 C   0  0  0  0  0  0  0  0  0  0  0  0
   -1.7876   -1.0909    0.8689 C   0  0  0  0  0  0  0  0  0  0  0  0
   -0.3878   -0.7671    1.2014 C   0  0  0  0  0  0  0  0  0  0  0  0
    0.1028    0.2652    0.4805 N   0  0  0  0  0  0  0  0  0  0  0  0
    1.3864    0.6931    0.6657 N   0  0  0  0  0  0  0  0  0  0  0  0
    2.1915    0.1072    1.5742 C   0  0  0  0  0  0  0  0  0  0  0  0
    3.5120    0.5906    1.7669 N   0  0  0  0  0  0  0  0  0  0  0  0
    4.3019    1.3670    0.8930 C   0  0  0  0  0  0  0  0  0  0  0  0
    4.1183    1.3485   -0.5070 C   0  0  0  0  0  0  0  0  0  0  0  0
    4.9852    2.0311   -1.3699 C   0  0  0  0  0  0  0  0  0  0  0  0
    6.0457    2.7064   -0.8114 C   0  0  0  0  0  0  0  0  0  0  0  0
    6.2512    2.7196    0.5454 C   0  0  0  0  0  0  0  0  0  0  0  0
    5.4083    2.0597    1.4165 C   0  0  0  0  0  0  0  0  0  0  0  0
    7.3658    3.4170    0.8952 O   0  0  0  0  0  0  0  0  0  0  0  0
    7.8561    3.8096   -0.4035 C   0  0  0  0  0  0  0  0  0  0  0  0
    7.0036    3.3940   -1.4903 O   0  0  0  0  0  0  0  0  0  0  0  0
    1.7289   -0.9802    2.3501 C   0  0  0  0  0  0  0  0  0  0  0  0
    2.5430   -1.6496    3.2986 C   0  0  0  0  0  0  0  0  0  0  0  0
    2.0755   -2.7380    4.0353 C   0  0  0  0  0  0  0  0  0  0  0  0
    0.7858   -3.1999    3.8327 C   0  0  0  0  0  0  0  0  0  0  0  0
   -0.0340   -2.5685    2.8974 C   0  0  0  0  0  0  0  0  0  0  0  0
    0.4049   -1.4426    2.1513 C   0  0  0  0  0  0  0  0  0  0  0  0
   -2.1580   -1.3175   -0.4665 C   0  0  0  0  0  0  0  0  0  0  0  0
   -3.4882   -1.6028   -0.8209 C   0  0  0  0  0  0  0  0  0  0  0  0
   -3.8450   -1.8087   -2.5591 S   0  0  0  0  0  6  0  0  0  0  0  0
   -2.6074   -1.6941   -3.2991 O   0  0  0  0  0  0  0  0  0  0  0  0
   -4.7138   -2.9526   -2.7192 O   0  0  0  0  0  0  0  0  0  0  0  0
   -4.7498   -0.4497   -2.9164 N   0  0  0  0  0  0  0  0  0  0  0  0
   -4.2033    0.8836   -2.6676 C   0  0  0  0  0  0  0  0  0  0  0  0
   -4.5347    1.8166   -3.8329 C   0  0  0  0  0  0  0  0  0  0  0  0
   -4.1191    3.1482   -3.5460 O   0  0  0  0  0  0  0  0  0  0  0  0
   -5.9787   -3.0987   -0.4739 H   0  0  0  0  0  0  0  0  0  0  0  0
   -6.5386   -1.9878    0.7706 H   0  0  0  0  0  0  0  0  0  0  0  0
   -6.3494   -1.3894   -0.8685 H   0  0  0  0  0  0  0  0  0  0  0  0
   -4.8632   -1.5019    2.2919 H   0  0  0  0  0  0  0  0  0  0  0  0
   -2.5656   -0.9247    2.8833 H   0  0  0  0  0  0  0  0  0  0  0  0
    3.6225    0.8742    2.7363 H   0  0  0  0  0  0  0  0  0  0  0  0
    3.3026    0.7801   -0.9496 H   0  0  0  0  0  0  0  0  0  0  0  0
    4.8376    2.0079   -2.4427 H   0  0  0  0  0  0  0  0  0  0  0  0
    5.6241    2.0687    2.4760 H   0  0  0  0  0  0  0  0  0  0  0  0
    7.9563    4.9007   -0.4291 H   0  0  0  0  0  0  0  0  0  0  0  0
    8.8459    3.3628   -0.5473 H   0  0  0  0  0  0  0  0  0  0  0  0
    3.5738   -1.3376    3.4576 H   0  0  0  0  0  0  0  0  0  0  0  0
    2.7250   -3.2316    4.7532 H   0  0  0  0  0  0  0  0  0  0  0  0
    0.4166   -4.0571    4.3920 H   0  0  0  0  0  0  0  0  0  0  0  0
   -1.0282   -2.9832    2.7464 H   0  0  0  0  0  0  0  0  0  0  0  0
   -1.3910   -1.2578   -1.2405 H   0  0  0  0  0  0  0  0  0  0  0  0
   -5.7588   -0.5874   -2.9405 H   0  0  0  0  0  0  0  0  0  0  0  0
   -4.6305    1.2803   -1.7386 H   0  0  0  0  0  0  0  0  0  0  0  0
   -3.1169    0.8610   -2.5299 H   0  0  0  0  0  0  0  0  0  0  0  0
   -4.0461    1.4847   -4.7562 H   0  0  0  0  0  0  0  0  0  0  0  0
   -5.6144    1.8360   -4.0138 H   0  0  0  0  0  0  0  0  0  0  0  0
   -3.1448    3.1577   -3.5571 H   0  0  0  0  0  0  0  0  0  0  0  0
  1  2  1  0
  2  3  2  0
  3  4  1  0
  4  5  2  0
  5  6  1  0
  6  7  2  0
  7  8  1  0
  8  9  2  0
  9 10  1  0
 10 11  1  0
 11 12  2  0
 12 13  1  0
 13 14  2  0
 14 15  1  0
 15 16  2  0
 15 17  1  0
 17 18  1  0
 18 19  1  0
  9 20  1  0
 20 21  2  0
 21 22  1  0
 22 23  2  0
 23 24  1  0
 24 25  2  0
  5 26  1  0
 26 27  2  0
 27 28  1  0
 28 29  2  0
 28 30  2  0
 28 31  1  0
 31 32  1  0
 32 33  1  0
 33 34  1  0
 27  2  1  0
 25  6  1  0
 16 11  1  0
 25 20  1  0
 19 14  1  0
  1 35  1  0
  1 36  1  0
  1 37  1  0
  3 38  1  0
  4 39  1  0
 10 40  1  0
 12 41  1  0
 13 42  1  0
 16 43  1  0
 18 44  1  0
 18 45  1  0
 21 46  1  0
 22 47  1  0
 23 48  1  0
 24 49  1  0
 26 50  1  0
 31 51  1  0
 32 52  1  0
 32 53  1  0
 33 54  1  0
 33 55  1  0
 34 56  1  0
M  END
$$$$
