
     RDKit          3D

 63 67  0  0  0  0  0  0  0  0999 V2000
    3.9195    5.9985   -1.6334 C   0  0  0  0  0  0  0  0  0  0  0  0
    3.0419    5.0282   -2.1918 O   0  0  0  0  0  0  0  0  0  0  0  0
    3.2836    3.7205   -1.8731 C   0  0  0  0  0  0  0  0  0  0  0  0
    4.3064    3.2511   -1.0495 C   0  0  0  0  0  0  0  0  0  0  0  0
    4.4397    1.8784   -0.8052 C   0  0  0  0  0  0  0  0  0  0  0  0
    3.5543    0.9579   -1.3816 C   0  0  0  0  0  0  0  0  0  0  0  0
    3.6825   -0.4804   -1.1141 C   0  0  0  0  0  0  0  0  0  0  0  0
    5.0983   -1.2830   -1.6440 S   0  0  0  0  0  0  0  0  0  0  0  0
    4.5652   -2.8061   -1.0595 C   0  0  0  0  0  0  0  0  0  0  0  0
    5.2561   -4.0305   -1.1404 C   0  0  0  0  0  0  0  0  0  0  0  0
    4.6719   -5.1837   -0.6039 C   0  0  0  0  0  0  0  0  0  0  0  0
    3.4262   -5.1269    0.0055 C   0  0  0  0  0  0  0  0  0  0  0  0
    2.7558   -6.1796    0.5661 O   0  0  0  0  0  0  0  0  0  0  0  0
    3.4072   -7.4435    0.5465 C   0  0  0  0  0  0  0  0  0  0  0  0
    2.7500   -3.9030    0.0785 C   0  0  0  0  0  0  0  0  0  0  0  0
    3.3092   -2.7139   -0.4599 C   0  0  0  0  0  0  0  0  0  0  0  0
    2.8023   -1.3589   -0.4992 C   0  0  0  0  0  0  0  0  0  0  0  0
    1.5195   -0.9135    0.0367 C   0  0  0  0  0  0  0  0  0  0  0  0
    1.4690   -0.0742    1.1528 C   0  0  0  0  0  0  0  0  0  0  0  0
    0.2354    0.3517    1.6502 C   0  0  0  0  0  0  0  0  0  0  0  0
   -0.9564   -0.0513    1.0426 C   0  0  0  0  0  0  0  0  0  0  0  0
   -2.0898    0.4446    1.6249 O   0  0  0  0  0  0  0  0  0  0  0  0
   -3.3243    0.2218    0.9356 C   0  0  0  0  0  0  0  0  0  0  0  0
   -4.4309    0.9662    1.7010 C   0  0  0  0  0  0  0  0  0  0  0  0
   -5.7611    0.8349    1.0841 N   0  0  0  0  0  0  0  0  0  0  0  0
   -5.9185    1.6606   -0.1351 C   0  0  0  0  0  0  0  0  0  0  0  0
   -6.7255    2.9509    0.0889 C   0  0  0  0  0  0  0  0  0  0  0  0
   -8.0496    2.7089    0.5813 O   0  0  0  0  0  0  0  0  0  0  0  0
   -8.1434    1.5216    1.3808 C   0  0  0  0  0  0  0  0  0  0  0  0
   -6.8180    1.1626    2.0683 C   0  0  0  0  0  0  0  0  0  0  0  0
   -0.9072   -0.9022   -0.0620 C   0  0  0  0  0  0  0  0  0  0  0  0
    0.3268   -1.3324   -0.5631 C   0  0  0  0  0  0  0  0  0  0  0  0
    2.5300    1.4361   -2.2061 C   0  0  0  0  0  0  0  0  0  0  0  0
    2.3983    2.8064   -2.4477 C   0  0  0  0  0  0  0  0  0  0  0  0
    3.5974    6.9829   -1.9862 H   0  0  0  0  0  0  0  0  0  0  0  0
    3.8601    6.0012   -0.5397 H   0  0  0  0  0  0  0  0  0  0  0  0
    4.9489    5.8435   -1.9742 H   0  0  0  0  0  0  0  0  0  0  0  0
    5.0167    3.9224   -0.5794 H   0  0  0  0  0  0  0  0  0  0  0  0
    5.2401    1.5341   -0.1537 H   0  0  0  0  0  0  0  0  0  0  0  0
    6.2330   -4.0816   -1.6137 H   0  0  0  0  0  0  0  0  0  0  0  0
    5.2280   -6.1123   -0.6823 H   0  0  0  0  0  0  0  0  0  0  0  0
    3.5693   -7.7878   -0.4801 H   0  0  0  0  0  0  0  0  0  0  0  0
    2.7497   -8.1660    1.0396 H   0  0  0  0  0  0  0  0  0  0  0  0
    4.3473   -7.4121    1.1070 H   0  0  0  0  0  0  0  0  0  0  0  0
    1.7767   -3.8664    0.5632 H   0  0  0  0  0  0  0  0  0  0  0  0
    2.3831    0.2561    1.6397 H   0  0  0  0  0  0  0  0  0  0  0  0
    0.2041    1.0091    2.5155 H   0  0  0  0  0  0  0  0  0  0  0  0
   -3.5541   -0.8504    0.9204 H   0  0  0  0  0  0  0  0  0  0  0  0
   -3.2473    0.6006   -0.0892 H   0  0  0  0  0  0  0  0  0  0  0  0
   -4.1561    2.0217    1.8305 H   0  0  0  0  0  0  0  0  0  0  0  0
   -4.4509    0.5420    2.7148 H   0  0  0  0  0  0  0  0  0  0  0  0
   -6.4577    1.0435   -0.8648 H   0  0  0  0  0  0  0  0  0  0  0  0
   -4.9562    1.9098   -0.5938 H   0  0  0  0  0  0  0  0  0  0  0  0
   -6.8233    3.5003   -0.8535 H   0  0  0  0  0  0  0  0  0  0  0  0
   -6.2115    3.6114    0.7975 H   0  0  0  0  0  0  0  0  0  0  0  0
   -8.9219    1.6939    2.1305 H   0  0  0  0  0  0  0  0  0  0  0  0
   -8.4859    0.7019    0.7383 H   0  0  0  0  0  0  0  0  0  0  0  0
   -6.5107    2.0159    2.6882 H   0  0  0  0  0  0  0  0  0  0  0  0
   -6.9688    0.3023    2.7297 H   0  0  0  0  0  0  0  0  0  0  0  0
   -1.8074   -1.2534   -0.5547 H   0  0  0  0  0  0  0  0  0  0  0  0
    0.3493   -1.9921   -1.4278 H   0  0  0  0  0  0  0  0  0  0  0  0
    1.8266    0.7475   -2.6677 H   0  0  0  0  0  0  0  0  0  0  0  0
    1.5969    3.1636   -3.0894 H   0  0  0  0  0  0  0  0  0  0  0  0
  1  2  1  0
  2  3  1  0
  3  4  2  0
  4  5  1  0
  5  6  2  0
  6  7  1  0
  7  8  1  0
  8  9  1  0
  9 10  2  0
 10 11  1  0
 11 12  2  0
 12 13  1  0
 13 14  1  0
 12 15  1  0
 15 16  2  0
 16 17  1  0
 17 18  1  0
 18 19  2  0
 19 20  1  0
 20 21  2  0
 21 22  1  0
 22 23  1  0
 23 24  1  0
 24 25  1  0
 25 26  1  0
 26 27  1  0
 27 28  1  0
 28 29  1  0
 29 30  1  0
 21 31  1  0
 31 32  2  0
  6 33  1  0
 33 34  2  0
 34  3  1  0
 17  7  2  0
 32 18  1  0
 16  9  1  0
 30 25  1  0
  1 35  1  0
  1 36  1  0
  1 37  1  0
  4 38  1  0
  5 39  1  0
 10 40  1  0
 11 41  1  0
 14 42  1  0
 14 43  1  0
 14 44  1  0
 15 45  1  0
 19 46  1  0
 20 47  1  0
 23 48  1  0
 23 49  1  0
 24 50  1  0
 24 51  1  0
 26 52  1  0
 26 53  1  0
 27 54  1  0
 27 55  1  0
 29 56  1  0
 29 57  1  0
 30 58  1  0
 30 59  1  0
 31 60  1  0
 32 61  1  0
 33 62  1  0
 34 63  1  0
M  END
$$$$
