
     RDKit          3D

 63 67  0  0  0  0  0  0  0  0999 V2000
   -4.0395    0.0934    6.6212 C   0  0  0  0  0  0  0  0  0  0  0  0
   -4.0920   -1.0749    5.8001 O   0  0  0  0  0  0  0  0  0  0  0  0
   -3.4490   -0.9463    4.6128 C   0  0  0  0  0  0  0  0  0  0  0  0
   -2.8535    0.0542    4.2332 O   0  0  0  0  0  0  0  0  0  0  0  0
   -3.5735   -2.1903    3.7976 C   0  0  0  0  0  0  0  0  0  0  0  0
   -4.0037   -3.3857    4.4027 C   0  0  0  0  0  0  0  0  0  0  0  0
   -4.1100   -4.5602    3.6591 C   0  0  0  0  0  0  0  0  0  0  0  0
   -3.7639   -4.5563    2.3135 C   0  0  0  0  0  0  0  0  0  0  0  0
   -3.3231   -3.3776    1.7037 C   0  0  0  0  0  0  0  0  0  0  0  0
   -3.2535   -2.1752    2.4200 C   0  0  0  0  0  0  0  0  0  0  0  0
   -2.7910   -0.9771    1.8122 N   0  0  0  0  0  0  0  0  0  0  0  0
   -2.7905   -0.5685    0.4878 C   0  0  0  0  0  0  0  0  0  0  0  0
   -3.9524   -1.0809   -0.6278 S   0  0  0  0  0  0  0  0  0  0  0  0
   -1.7727    0.3763    0.1960 N   0  0  0  0  0  0  0  0  0  0  0  0
   -1.8177    1.1815   -1.0423 C   0  0  0  0  0  0  0  0  0  0  0  0
   -0.9839    0.6694   -2.2030 C   0  0  0  0  0  0  0  0  0  0  0  0
   -0.5538   -0.6746   -2.3083 C   0  0  0  0  0  0  0  0  0  0  0  0
    0.2076   -1.1150   -3.3970 C   0  0  0  0  0  0  0  0  0  0  0  0
    0.5180   -0.1979   -4.3736 C   0  0  0  0  0  0  0  0  0  0  0  0
    0.0943    1.1065   -4.2962 C   0  0  0  0  0  0  0  0  0  0  0  0
   -0.6568    1.5684   -3.2358 C   0  0  0  0  0  0  0  0  0  0  0  0
    0.4920    1.8454   -5.3672 O   0  0  0  0  0  0  0  0  0  0  0  0
    1.1471    0.8348   -6.1628 C   0  0  0  0  0  0  0  0  0  0  0  0
    1.2376   -0.4436   -5.5014 O   0  0  0  0  0  0  0  0  0  0  0  0
   -0.6999    0.7173    1.1650 C   0  0  0  0  0  0  0  0  0  0  0  0
    0.6767    0.7056    0.5625 C   0  0  0  0  0  0  0  0  0  0  0  0
    1.3002    1.8103    0.1115 C   0  0  0  0  0  0  0  0  0  0  0  0
    2.6474    1.7398   -0.4484 C   0  0  0  0  0  0  0  0  0  0  0  0
    3.2815    2.8626   -0.9797 C   0  0  0  0  0  0  0  0  0  0  0  0
    4.5808    2.7611   -1.4942 C   0  0  0  0  0  0  0  0  0  0  0  0
    5.2528    1.5373   -1.4767 C   0  0  0  0  0  0  0  0  0  0  0  0
    6.5217    1.3118   -1.9399 O   0  0  0  0  0  0  0  0  0  0  0  0
    7.2172    2.4253   -2.4876 C   0  0  0  0  0  0  0  0  0  0  0  0
    4.6144    0.4114   -0.9510 C   0  0  0  0  0  0  0  0  0  0  0  0
    3.3172    0.5138   -0.4488 C   0  0  0  0  0  0  0  0  0  0  0  0
    2.6710   -0.6182    0.0611 N   0  0  0  0  0  0  0  0  0  0  0  0
    1.3975   -0.6056    0.5648 C   0  0  0  0  0  0  0  0  0  0  0  0
    0.8896   -1.6254    1.0196 O   0  0  0  0  0  0  0  0  0  0  0  0
   -3.0087    0.2870    6.9402 H   0  0  0  0  0  0  0  0  0  0  0  0
   -4.4515    0.9595    6.0915 H   0  0  0  0  0  0  0  0  0  0  0  0
   -4.6526   -0.0871    7.5101 H   0  0  0  0  0  0  0  0  0  0  0  0
   -4.2529   -3.4203    5.4605 H   0  0  0  0  0  0  0  0  0  0  0  0
   -4.4446   -5.4794    4.1331 H   0  0  0  0  0  0  0  0  0  0  0  0
   -3.8155   -5.4746    1.7319 H   0  0  0  0  0  0  0  0  0  0  0  0
   -3.0050   -3.4354    0.6660 H   0  0  0  0  0  0  0  0  0  0  0  0
   -2.6304   -0.2190    2.4750 H   0  0  0  0  0  0  0  0  0  0  0  0
   -2.8527    1.3019   -1.3837 H   0  0  0  0  0  0  0  0  0  0  0  0
   -1.4842    2.1934   -0.7769 H   0  0  0  0  0  0  0  0  0  0  0  0
   -0.8034   -1.3948   -1.5313 H   0  0  0  0  0  0  0  0  0  0  0  0
    0.5377   -2.1452   -3.4679 H   0  0  0  0  0  0  0  0  0  0  0  0
   -0.9824    2.6029   -3.2123 H   0  0  0  0  0  0  0  0  0  0  0  0
    0.5781    0.7019   -7.0936 H   0  0  0  0  0  0  0  0  0  0  0  0
    2.1578    1.1813   -6.4087 H   0  0  0  0  0  0  0  0  0  0  0  0
   -0.9450    1.7135    1.5566 H   0  0  0  0  0  0  0  0  0  0  0  0
   -0.6998    0.0499    2.0311 H   0  0  0  0  0  0  0  0  0  0  0  0
    0.8115    2.7806    0.1462 H   0  0  0  0  0  0  0  0  0  0  0  0
    2.7781    3.8236   -1.0082 H   0  0  0  0  0  0  0  0  0  0  0  0
    5.0383    3.6569   -1.9006 H   0  0  0  0  0  0  0  0  0  0  0  0
    8.1857    2.0661   -2.8487 H   0  0  0  0  0  0  0  0  0  0  0  0
    6.6799    2.8543   -3.3428 H   0  0  0  0  0  0  0  0  0  0  0  0
    7.4023    3.1820   -1.7150 H   0  0  0  0  0  0  0  0  0  0  0  0
    5.1364   -0.5390   -0.9338 H   0  0  0  0  0  0  0  0  0  0  0  0
    3.1387   -1.5126    0.0785 H   0  0  0  0  0  0  0  0  0  0  0  0
  1  2  1  0
  2  3  1  0
  3  4  2  0
  3  5  1  0
  5  6  2  0
  6  7  1  0
  7  8  2  0
  8  9  1  0
  9 10  2  0
 10 11  1  0
 11 12  1  0
 12 13  2  0
 12 14  1  0
 14 15  1  0
 15 16  1  0
 16 17  2  0
 17 18  1  0
 18 19  2  0
 19 20  1  0
 20 21  2  0
 20 22  1  0
 22 23  1  0
 23 24  1  0
 14 25  1  0
 25 26  1  0
 26 27  2  0
 27 28  1  0
 28 29  2  0
 29 30  1  0
 30 31  2  0
 31 32  1  0
 32 33  1  0
 31 34  1  0
 34 35  2  0
 35 36  1  0
 36 37  1  0
 37 38  2  0
 10  5  1  0
 21 16  1  0
 37 26  1  0
 24 19  1  0
 35 28  1  0
  1 39  1  0
  1 40  1  0
  1 41  1  0
  6 42  1  0
  7 43  1  0
  8 44  1  0
  9 45  1  0
 11 46  1  0
 15 47  1  0
 15 48  1  0
 17 49  1  0
 18 50  1  0
 21 51  1  0
 23 52  1  0
 23 53  1  0
 25 54  1  0
 25 55  1  0
 27 56  1  0
 29 57  1  0
 30 58  1  0
 33 59  1  0
 33 60  1  0
 33 61  1  0
 34 62  1  0
 36 63  1  0
M  END
$$$$
