
     RDKit          3D

 92 95  0  0  0  0  0  0  0  0999 V2000
   -1.2892   -3.2484    0.8799 C   0  0  0  0  0  0  0  0  0  0  0  0
   -0.5592   -2.7985   -0.1472 C   0  0  0  0  0  0  0  0  0  0  0  0
    0.9296   -2.9911   -0.2400 C   0  0  0  0  0  0  0  0  0  0  0  0
    1.7848   -1.7394    0.0268 C   0  0  0  0  0  0  0  0  0  0  0  0
    1.4828   -0.9971    1.3417 C   0  0  0  0  0  0  0  0  0  0  0  0
    2.1145   -1.7197    2.5146 C   0  0  0  0  0  0  0  0  0  0  0  0
    1.6256   -2.7969    2.8805 O   0  0  0  0  0  0  0  0  0  0  0  0
    3.2326   -1.2020    3.1475 N   0  0  0  0  0  0  0  0  0  0  0  0
    3.8722   -2.0420    4.1755 C   0  0  0  0  0  0  0  0  0  0  0  0
    3.1957   -1.9263    5.5503 C   0  0  0  0  0  0  0  0  0  0  0  0
    1.8889   -2.4935    5.5818 O   0  0  0  0  0  0  0  0  0  0  0  0
    3.7042    0.1855    3.0428 C   0  0  0  0  0  0  0  0  0  0  0  0
    4.9324    0.3231    2.1726 C   0  0  0  0  0  0  0  0  0  0  0  0
    4.8206    0.4809    0.7849 C   0  0  0  0  0  0  0  0  0  0  0  0
    5.9579    0.5574   -0.0211 C   0  0  0  0  0  0  0  0  0  0  0  0
    7.2260    0.4956    0.5552 C   0  0  0  0  0  0  0  0  0  0  0  0
    7.3565    0.3554    1.9349 C   0  0  0  0  0  0  0  0  0  0  0  0
    6.2153    0.2663    2.7378 C   0  0  0  0  0  0  0  0  0  0  0  0
    1.7658   -0.7967   -1.1705 C   0  0  0  0  0  0  0  0  0  0  0  0
    2.6656   -0.7959   -2.0069 O   0  0  0  0  0  0  0  0  0  0  0  0
    0.6799    0.0393   -1.2531 N   0  0  0  0  0  0  0  0  0  0  0  0
    0.5269    1.0257   -2.3296 C   0  0  0  0  0  0  0  0  0  0  0  0
   -0.1903    0.4092   -3.5496 C   0  0  0  0  0  0  0  0  0  0  0  0
   -1.4419   -0.2222   -3.2125 O   0  0  0  0  0  0  0  0  0  0  0  0
   -2.5643    0.5425   -3.3114 C   0  0  0  0  0  0  0  0  0  0  0  0
   -2.5736    1.7454   -3.5444 O   0  0  0  0  0  0  0  0  0  0  0  0
   -3.7853   -0.3078   -3.0136 C   0  0  0  0  0  0  0  0  0  0  0  0
   -5.0581    0.3202   -3.6176 C   0  0  0  0  0  0  0  0  0  0  0  0
   -5.1963    0.3545   -5.1202 C   0  0  0  0  0  0  0  0  0  0  0  0
   -4.3891   -0.1972   -6.0377 C   0  0  0  0  0  0  0  0  0  0  0  0
   -3.8859   -0.4191   -1.4798 C   0  0  0  0  0  0  0  0  0  0  0  0
   -4.7968   -1.5242   -0.9955 C   0  0  0  0  0  0  0  0  0  0  0  0
   -5.9795   -1.2186   -0.3019 C   0  0  0  0  0  0  0  0  0  0  0  0
   -6.7986   -2.2403    0.1817 C   0  0  0  0  0  0  0  0  0  0  0  0
   -6.4317   -3.5661   -0.0196 C   0  0  0  0  0  0  0  0  0  0  0  0
   -7.2077   -4.5497    0.4594 F   0  0  0  0  0  0  0  0  0  0  0  0
   -5.2691   -3.8901   -0.7109 C   0  0  0  0  0  0  0  0  0  0  0  0
   -4.4544   -2.8716   -1.2029 C   0  0  0  0  0  0  0  0  0  0  0  0
   -0.1736    2.2953   -1.8126 C   0  0  0  0  0  0  0  0  0  0  0  0
    0.5713    3.0528   -0.7427 C   0  0  0  0  0  0  0  0  0  0  0  0
    1.9350    3.1030   -0.5220 C   0  0  0  0  0  0  0  0  0  0  0  0
    2.1759    3.9298    0.5438 N   0  0  0  0  0  0  0  0  0  0  0  0
    0.9932    4.4375    1.0265 C   0  0  0  0  0  0  0  0  0  0  0  0
    0.7550    5.3262    2.0835 C   0  0  0  0  0  0  0  0  0  0  0  0
   -0.5688    5.6934    2.3378 C   0  0  0  0  0  0  0  0  0  0  0  0
   -1.6121    5.1885    1.5672 C   0  0  0  0  0  0  0  0  0  0  0  0
   -1.3560    4.3027    0.5144 C   0  0  0  0  0  0  0  0  0  0  0  0
   -0.0300    3.9124    0.2368 C   0  0  0  0  0  0  0  0  0  0  0  0
   -2.3630   -3.1074    0.9198 H   0  0  0  0  0  0  0  0  0  0  0  0
   -0.8288   -3.7701    1.7157 H   0  0  0  0  0  0  0  0  0  0  0  0
   -1.0536   -2.2997   -0.9738 H   0  0  0  0  0  0  0  0  0  0  0  0
    1.2391   -3.7858    0.4503 H   0  0  0  0  0  0  0  0  0  0  0  0
    1.1484   -3.3745   -1.2446 H   0  0  0  0  0  0  0  0  0  0  0  0
    2.8266   -2.0870    0.0831 H   0  0  0  0  0  0  0  0  0  0  0  0
    0.4078   -0.9208    1.5391 H   0  0  0  0  0  0  0  0  0  0  0  0
    1.8202    0.0354    1.2725 H   0  0  0  0  0  0  0  0  0  0  0  0
    3.8309   -3.0855    3.8409 H   0  0  0  0  0  0  0  0  0  0  0  0
    4.9277   -1.7647    4.2551 H   0  0  0  0  0  0  0  0  0  0  0  0
    3.7939   -2.4545    6.2981 H   0  0  0  0  0  0  0  0  0  0  0  0
    3.1153   -0.8822    5.8677 H   0  0  0  0  0  0  0  0  0  0  0  0
    1.6642   -2.7980    4.6738 H   0  0  0  0  0  0  0  0  0  0  0  0
    3.9272    0.5456    4.0553 H   0  0  0  0  0  0  0  0  0  0  0  0
    2.9142    0.8518    2.6840 H   0  0  0  0  0  0  0  0  0  0  0  0
    3.8471    0.5379    0.3061 H   0  0  0  0  0  0  0  0  0  0  0  0
    5.8507    0.6655   -1.0985 H   0  0  0  0  0  0  0  0  0  0  0  0
    8.1106    0.5507   -0.0741 H   0  0  0  0  0  0  0  0  0  0  0  0
    8.3457    0.3008    2.3849 H   0  0  0  0  0  0  0  0  0  0  0  0
    6.3398    0.1568    3.8126 H   0  0  0  0  0  0  0  0  0  0  0  0
   -0.0977   -0.0828   -0.6163 H   0  0  0  0  0  0  0  0  0  0  0  0
    1.5314    1.3041   -2.6750 H   0  0  0  0  0  0  0  0  0  0  0  0
    0.4318   -0.3877   -3.9712 H   0  0  0  0  0  0  0  0  0  0  0  0
   -0.3297    1.1494   -4.3473 H   0  0  0  0  0  0  0  0  0  0  0  0
   -3.6256   -1.2959   -3.4667 H   0  0  0  0  0  0  0  0  0  0  0  0
   -5.9335   -0.2241   -3.2474 H   0  0  0  0  0  0  0  0  0  0  0  0
   -5.1628    1.3546   -3.2551 H   0  0  0  0  0  0  0  0  0  0  0  0
   -6.0709    0.9048   -5.4792 H   0  0  0  0  0  0  0  0  0  0  0  0
   -4.6176   -0.0826   -7.0959 H   0  0  0  0  0  0  0  0  0  0  0  0
   -3.4932   -0.7580   -5.7911 H   0  0  0  0  0  0  0  0  0  0  0  0
   -2.8972   -0.6018   -1.0385 H   0  0  0  0  0  0  0  0  0  0  0  0
   -4.2032    0.5460   -1.0570 H   0  0  0  0  0  0  0  0  0  0  0  0
   -6.2682   -0.1825   -0.1327 H   0  0  0  0  0  0  0  0  0  0  0  0
   -7.7109   -2.0118    0.7239 H   0  0  0  0  0  0  0  0  0  0  0  0
   -5.0001   -4.9341   -0.8486 H   0  0  0  0  0  0  0  0  0  0  0  0
   -3.5378   -3.1349   -1.7306 H   0  0  0  0  0  0  0  0  0  0  0  0
   -1.1518    2.0199   -1.4029 H   0  0  0  0  0  0  0  0  0  0  0  0
   -0.3415    2.9879   -2.6478 H   0  0  0  0  0  0  0  0  0  0  0  0
    2.7631    2.6313   -1.0393 H   0  0  0  0  0  0  0  0  0  0  0  0
    3.0883    4.1564    0.9163 H   0  0  0  0  0  0  0  0  0  0  0  0
    1.5645    5.7293    2.6838 H   0  0  0  0  0  0  0  0  0  0  0  0
   -0.7841    6.3869    3.1467 H   0  0  0  0  0  0  0  0  0  0  0  0
   -2.6341    5.4934    1.7760 H   0  0  0  0  0  0  0  0  0  0  0  0
   -2.1804    3.9299   -0.0871 H   0  0  0  0  0  0  0  0  0  0  0  0
  1  2  2  0
  2  3  1  0
  3  4  1  0
  4  5  1  0
  5  6  1  0
  6  7  2  0
  6  8  1  0
  8  9  1  0
  9 10  1  0
 10 11  1  0
  8 12  1  0
 12 13  1  0
 13 14  2  0
 14 15  1  0
 15 16  2  0
 16 17  1  0
 17 18  2  0
  4 19  1  0
 19 20  2  0
 19 21  1  0
 21 22  1  0
 22 23  1  0
 23 24  1  0
 24 25  1  0
 25 26  2  0
 25 27  1  0
 27 28  1  0
 28 29  1  0
 29 30  2  0
 27 31  1  0
 31 32  1  0
 32 33  2  0
 33 34  1  0
 34 35  2  0
 35 36  1  0
 35 37  1  0
 37 38  2  0
 22 39  1  0
 39 40  1  0
 40 41  2  0
 41 42  1  0
 42 43  1  0
 43 44  2  0
 44 45  1  0
 45 46  2  0
 46 47  1  0
 47 48  2  0
 18 13  1  0
 38 32  1  0
 48 40  1  0
 48 43  1  0
  1 49  1  0
  1 50  1  0
  2 51  1  0
  3 52  1  0
  3 53  1  0
  4 54  1  0
  5 55  1  0
  5 56  1  0
  9 57  1  0
  9 58  1  0
 10 59  1  0
 10 60  1  0
 11 61  1  0
 12 62  1  0
 12 63  1  0
 14 64  1  0
 15 65  1  0
 16 66  1  0
 17 67  1  0
 18 68  1  0
 21 69  1  0
 22 70  1  0
 23 71  1  0
 23 72  1  0
 27 73  1  0
 28 74  1  0
 28 75  1  0
 29 76  1  0
 30 77  1  0
 30 78  1  0
 31 79  1  0
 31 80  1  0
 33 81  1  0
 34 82  1  0
 37 83  1  0
 38 84  1  0
 39 85  1  0
 39 86  1  0
 41 87  1  0
 42 88  1  0
 44 89  1  0
 45 90  1  0
 46 91  1  0
 47 92  1  0
M  END
$$$$
