
     RDKit          3D

 59 64  0  0  0  0  0  0  0  0999 V2000
   -5.4090    0.6089    3.6518 C   0  0  0  0  0  0  0  0  0  0  0  0
   -5.3310    1.0081    2.2215 C   0  0  0  0  0  0  0  0  0  0  0  0
   -5.7261    2.1723    1.7450 N   0  0  0  0  0  0  0  0  0  0  0  0
   -5.4927    2.1234    0.3948 C   0  0  0  0  0  0  0  0  0  0  0  0
   -5.7368    3.0985   -0.5855 C   0  0  0  0  0  0  0  0  0  0  0  0
   -5.4186    2.8133   -1.9187 C   0  0  0  0  0  0  0  0  0  0  0  0
   -4.8688    1.5788   -2.2697 C   0  0  0  0  0  0  0  0  0  0  0  0
   -4.6198    0.5939   -1.3048 C   0  0  0  0  0  0  0  0  0  0  0  0
   -4.9426    0.8987    0.0251 C   0  0  0  0  0  0  0  0  0  0  0  0
   -4.8295    0.2074    1.2122 N   0  0  0  0  0  0  0  0  0  0  0  0
   -4.3470   -1.1566    1.3631 C   0  0  0  0  0  0  0  0  0  0  0  0
   -2.9314   -1.2620    1.9278 C   0  0  0  0  0  0  0  0  0  0  0  0
   -1.8785   -1.1212    0.8894 C   0  0  0  0  0  0  0  0  0  0  0  0
   -1.7313    0.0235    0.1515 N   0  0  0  0  0  0  0  0  0  0  0  0
   -0.7086   -0.2557   -0.6252 C   0  0  0  0  0  0  0  0  0  0  0  0
   -0.0584    0.4998   -1.6715 C   0  0  0  0  0  0  0  0  0  0  0  0
   -0.4781    1.7773   -2.0474 C   0  0  0  0  0  0  0  0  0  0  0  0
    0.1907    2.4428   -3.0743 C   0  0  0  0  0  0  0  0  0  0  0  0
    1.2694    1.8325   -3.7190 C   0  0  0  0  0  0  0  0  0  0  0  0
    1.6854    0.5516   -3.3411 C   0  0  0  0  0  0  0  0  0  0  0  0
    1.0285   -0.1301   -2.3167 C   0  0  0  0  0  0  0  0  0  0  0  0
    1.4743   -1.4327   -1.9625 N   0  0  0  0  0  0  0  0  0  0  0  0
    0.8570   -2.0766   -1.0048 C   0  0  0  0  0  0  0  0  0  0  0  0
    1.4355   -3.6818   -0.5737 S   0  0  0  0  0  0  0  0  0  0  0  0
    3.2068   -3.3031   -0.4422 C   0  0  0  0  0  0  0  0  0  0  0  0
    3.5015   -2.1329    0.4899 C   0  0  0  0  0  0  0  0  0  0  0  0
    2.6584   -1.5495    1.1652 O   0  0  0  0  0  0  0  0  0  0  0  0
    4.8311   -1.7677    0.4994 N   0  0  0  0  0  0  0  0  0  0  0  0
    5.3043   -0.7440    1.4035 C   0  0  0  0  0  0  0  0  0  0  0  0
    6.6724   -0.3534    0.9916 C   0  0  0  0  0  0  0  0  0  0  0  0
    7.2014    0.7816    0.4115 C   0  0  0  0  0  0  0  0  0  0  0  0
    8.5870    0.5394    0.2523 C   0  0  0  0  0  0  0  0  0  0  0  0
    8.8150   -0.7250    0.7442 C   0  0  0  0  0  0  0  0  0  0  0  0
    7.6577   -1.2795    1.1878 O   0  0  0  0  0  0  0  0  0  0  0  0
   -0.2390   -1.5094   -0.3402 N   0  0  0  0  0  0  0  0  0  0  0  0
   -1.0068   -2.1013    0.6090 N   0  0  0  0  0  0  0  0  0  0  0  0
   -4.4087    0.5503    4.0936 H   0  0  0  0  0  0  0  0  0  0  0  0
   -5.9076   -0.3595    3.7694 H   0  0  0  0  0  0  0  0  0  0  0  0
   -5.9825    1.3507    4.2215 H   0  0  0  0  0  0  0  0  0  0  0  0
   -6.1654    4.0530   -0.3007 H   0  0  0  0  0  0  0  0  0  0  0  0
   -5.6038    3.5621   -2.6862 H   0  0  0  0  0  0  0  0  0  0  0  0
   -4.6238    1.3778   -3.3110 H   0  0  0  0  0  0  0  0  0  0  0  0
   -4.1768   -0.3560   -1.5852 H   0  0  0  0  0  0  0  0  0  0  0  0
   -5.0504   -1.6575    2.0387 H   0  0  0  0  0  0  0  0  0  0  0  0
   -4.4360   -1.6635    0.3961 H   0  0  0  0  0  0  0  0  0  0  0  0
   -2.7558   -0.5175    2.7131 H   0  0  0  0  0  0  0  0  0  0  0  0
   -2.8270   -2.2475    2.4016 H   0  0  0  0  0  0  0  0  0  0  0  0
   -1.3214    2.2494   -1.5454 H   0  0  0  0  0  0  0  0  0  0  0  0
   -0.1297    3.4390   -3.3722 H   0  0  0  0  0  0  0  0  0  0  0  0
    1.7881    2.3551   -4.5196 H   0  0  0  0  0  0  0  0  0  0  0  0
    2.5242    0.0822   -3.8483 H   0  0  0  0  0  0  0  0  0  0  0  0
    3.7174   -4.1904   -0.0534 H   0  0  0  0  0  0  0  0  0  0  0  0
    3.6079   -3.0843   -1.4373 H   0  0  0  0  0  0  0  0  0  0  0  0
    5.5261   -2.3997    0.1217 H   0  0  0  0  0  0  0  0  0  0  0  0
    5.3036   -1.1554    2.4180 H   0  0  0  0  0  0  0  0  0  0  0  0
    4.6209    0.1109    1.3781 H   0  0  0  0  0  0  0  0  0  0  0  0
    6.6517    1.6718    0.1344 H   0  0  0  0  0  0  0  0  0  0  0  0
    9.3294    1.2033   -0.1690 H   0  0  0  0  0  0  0  0  0  0  0  0
    9.6971   -1.3436    0.8404 H   0  0  0  0  0  0  0  0  0  0  0  0
  1  2  1  0
  2  3  2  0
  3  4  1  0
  4  5  2  0
  5  6  1  0
  6  7  2  0
  7  8  1  0
  8  9  2  0
  9 10  1  0
 10 11  1  0
 11 12  1  0
 12 13  1  0
 13 14  1  0
 14 15  2  0
 15 16  1  0
 16 17  2  0
 17 18  1  0
 18 19  2  0
 19 20  1  0
 20 21  2  0
 21 22  1  0
 22 23  2  0
 23 24  1  0
 24 25  1  0
 25 26  1  0
 26 27  2  0
 26 28  1  0
 28 29  1  0
 29 30  1  0
 30 31  2  0
 31 32  1  0
 32 33  2  0
 33 34  1  0
 23 35  1  0
 35 36  1  0
 10  2  1  0
 36 13  2  0
  9  4  1  0
 35 15  1  0
 21 16  1  0
 34 30  1  0
  1 37  1  0
  1 38  1  0
  1 39  1  0
  5 40  1  0
  6 41  1  0
  7 42  1  0
  8 43  1  0
 11 44  1  0
 11 45  1  0
 12 46  1  0
 12 47  1  0
 17 48  1  0
 18 49  1  0
 19 50  1  0
 20 51  1  0
 25 52  1  0
 25 53  1  0
 28 54  1  0
 29 55  1  0
 29 56  1  0
 31 57  1  0
 32 58  1  0
 33 59  1  0
M  END
$$$$
