
     RDKit          3D

 39 39  0  0  0  0  0  0  0  0999 V2000
   -2.5658    3.6865    1.5419 C   0  0  0  0  0  0  0  0  0  0  0  0
   -2.9552    2.8935    0.3322 C   0  0  0  0  0  0  0  0  0  0  0  0
   -3.5351    3.3534   -0.6401 O   0  0  0  0  0  0  0  0  0  0  0  0
   -2.5562    1.5968    0.4796 O   0  0  0  0  0  0  0  0  0  0  0  0
   -2.8550    0.7311   -0.6285 C   0  0  0  0  0  0  0  0  0  0  0  0
   -1.7581    0.7746   -1.6950 C   0  0  0  0  0  0  0  0  0  0  0  0
   -0.3424    0.3634   -1.2361 C   0  0  0  0  0  0  0  0  0  0  0  0
    0.1557    1.3335   -0.2497 N   0  0  0  0  0  0  0  0  0  0  0  0
    1.8007    1.5025   -0.0465 S   0  0  0  0  0  6  0  0  0  0  0  0
    1.9742    2.4598    1.0220 O   0  0  0  0  0  0  0  0  0  0  0  0
    2.4077    1.6964   -1.3419 O   0  0  0  0  0  0  0  0  0  0  0  0
    2.2768    0.0655    0.5180 O   0  0  0  0  0  0  0  0  0  0  0  0
    3.6532   -0.0848    0.8526 C   0  0  0  0  0  0  0  0  0  0  0  0
    4.0004   -1.5476    1.1588 C   0  0  0  0  0  0  0  0  0  0  0  0
    3.7339   -2.5794   -0.2786 Cl  0  0  0  0  0  0  0  0  0  0  0  0
    5.7304   -1.6617    1.6218 Cl  0  0  0  0  0  0  0  0  0  0  0  0
    3.0126   -2.1648    2.5201 Cl  0  0  0  0  0  0  0  0  0  0  0  0
   -0.2823   -1.0861   -0.7853 C   0  0  0  0  0  0  0  0  0  0  0  0
    0.0454   -2.0815   -1.7212 C   0  0  0  0  0  0  0  0  0  0  0  0
    0.1124   -3.4241   -1.3447 C   0  0  0  0  0  0  0  0  0  0  0  0
   -0.1493   -3.7933   -0.0284 C   0  0  0  0  0  0  0  0  0  0  0  0
   -0.4824   -2.8217    0.9111 C   0  0  0  0  0  0  0  0  0  0  0  0
   -0.5513   -1.4782    0.5365 C   0  0  0  0  0  0  0  0  0  0  0  0
   -3.0357    3.2604    2.4319 H   0  0  0  0  0  0  0  0  0  0  0  0
   -2.9118    4.7176    1.4262 H   0  0  0  0  0  0  0  0  0  0  0  0
   -1.4778    3.6922    1.6460 H   0  0  0  0  0  0  0  0  0  0  0  0
   -3.8249    0.9910   -1.0705 H   0  0  0  0  0  0  0  0  0  0  0  0
   -2.9745   -0.2800   -0.2285 H   0  0  0  0  0  0  0  0  0  0  0  0
   -2.0675    0.1292   -2.5270 H   0  0  0  0  0  0  0  0  0  0  0  0
   -1.7005    1.7963   -2.0924 H   0  0  0  0  0  0  0  0  0  0  0  0
    0.2925    0.4614   -2.1276 H   0  0  0  0  0  0  0  0  0  0  0  0
   -0.3556    1.3673    0.6292 H   0  0  0  0  0  0  0  0  0  0  0  0
    4.2700    0.2794    0.0211 H   0  0  0  0  0  0  0  0  0  0  0  0
    3.8647    0.5462    1.7250 H   0  0  0  0  0  0  0  0  0  0  0  0
    0.2619   -1.8183   -2.7552 H   0  0  0  0  0  0  0  0  0  0  0  0
    0.3777   -4.1816   -2.0781 H   0  0  0  0  0  0  0  0  0  0  0  0
   -0.0894   -4.8379    0.2660 H   0  0  0  0  0  0  0  0  0  0  0  0
   -0.6836   -3.1104    1.9400 H   0  0  0  0  0  0  0  0  0  0  0  0
   -0.8159   -0.7467    1.2955 H   0  0  0  0  0  0  0  0  0  0  0  0
  1  2  1  0
  2  3  2  0
  2  4  1  0
  4  5  1  0
  5  6  1  0
  6  7  1  0
  7  8  1  0
  8  9  1  0
  9 10  2  0
  9 11  2  0
  9 12  1  0
 12 13  1  0
 13 14  1  0
 14 15  1  0
 14 16  1  0
 14 17  1  0
  7 18  1  0
 18 19  2  0
 19 20  1  0
 20 21  2  0
 21 22  1  0
 22 23  2  0
 23 18  1  0
  1 24  1  0
  1 25  1  0
  1 26  1  0
  5 27  1  0
  5 28  1  0
  6 29  1  0
  6 30  1  0
  7 31  1  0
  8 32  1  0
 13 33  1  0
 13 34  1  0
 19 35  1  0
 20 36  1  0
 21 37  1  0
 22 38  1  0
 23 39  1  0
M  END
$$$$
