
     RDKit          3D

 44 46  0  0  0  0  0  0  0  0999 V2000
    7.8108    4.5975    1.7184 C   0  0  0  0  0  0  0  0  0  0  0  0
    6.6620    4.3284    2.5124 O   0  0  0  0  0  0  0  0  0  0  0  0
    5.6587    3.6103    1.9247 C   0  0  0  0  0  0  0  0  0  0  0  0
    4.5539    3.3718    2.7424 C   0  0  0  0  0  0  0  0  0  0  0  0
    3.4539    2.6485    2.2677 C   0  0  0  0  0  0  0  0  0  0  0  0
    3.4364    2.1467    0.9596 C   0  0  0  0  0  0  0  0  0  0  0  0
    2.2865    1.3933    0.4703 C   0  0  0  0  0  0  0  0  0  0  0  0
    1.0831    0.9999    1.0068 C   0  0  0  0  0  0  0  0  0  0  0  0
    0.4317    0.2866   -0.0304 C   0  0  0  0  0  0  0  0  0  0  0  0
   -0.8907   -0.3494    0.0186 C   0  0  0  0  0  0  0  0  0  0  0  0
   -1.5736   -0.3039    1.0357 O   0  0  0  0  0  0  0  0  0  0  0  0
   -1.2291   -0.9659   -1.1727 N   0  0  0  0  0  0  0  0  0  0  0  0
   -2.4051   -1.6689   -1.4935 C   0  0  0  0  0  0  0  0  0  0  0  0
   -2.4935   -2.1989   -2.7837 C   0  0  0  0  0  0  0  0  0  0  0  0
   -3.6259   -2.9120   -3.1885 C   0  0  0  0  0  0  0  0  0  0  0  0
   -4.6898   -3.1056   -2.3051 C   0  0  0  0  0  0  0  0  0  0  0  0
   -5.8393   -3.7899   -2.6116 O   0  0  0  0  0  0  0  0  0  0  0  0
   -5.9535   -4.3382   -3.9164 C   0  0  0  0  0  0  0  0  0  0  0  0
   -4.6102   -2.5751   -1.0025 C   0  0  0  0  0  0  0  0  0  0  0  0
   -5.6967   -2.8078   -0.1931 O   0  0  0  0  0  0  0  0  0  0  0  0
   -5.6579   -2.2900    1.1295 C   0  0  0  0  0  0  0  0  0  0  0  0
   -3.4682   -1.8612   -0.6080 C   0  0  0  0  0  0  0  0  0  0  0  0
    1.1976    0.2490   -1.1355 N   0  0  0  0  0  0  0  0  0  0  0  0
    2.3516    0.9407   -0.8156 O   0  0  0  0  0  0  0  0  0  0  0  0
    4.5526    2.3924    0.1459 C   0  0  0  0  0  0  0  0  0  0  0  0
    5.6544    3.1171    0.6222 C   0  0  0  0  0  0  0  0  0  0  0  0
    8.3123    3.6700    1.4227 H   0  0  0  0  0  0  0  0  0  0  0  0
    7.5530    5.2044    0.8442 H   0  0  0  0  0  0  0  0  0  0  0  0
    8.5116    5.1746    2.3293 H   0  0  0  0  0  0  0  0  0  0  0  0
    4.5476    3.7527    3.7612 H   0  0  0  0  0  0  0  0  0  0  0  0
    2.6156    2.4875    2.9410 H   0  0  0  0  0  0  0  0  0  0  0  0
    0.7073    1.1889    2.0013 H   0  0  0  0  0  0  0  0  0  0  0  0
   -0.5206   -0.8886   -1.8977 H   0  0  0  0  0  0  0  0  0  0  0  0
   -1.6828   -2.0663   -3.4963 H   0  0  0  0  0  0  0  0  0  0  0  0
   -3.6441   -3.3024   -4.2003 H   0  0  0  0  0  0  0  0  0  0  0  0
   -6.9221   -4.8430   -3.9836 H   0  0  0  0  0  0  0  0  0  0  0  0
   -5.9352   -3.5522   -4.6784 H   0  0  0  0  0  0  0  0  0  0  0  0
   -5.1757   -5.0868   -4.1000 H   0  0  0  0  0  0  0  0  0  0  0  0
   -6.5941   -2.5670    1.6238 H   0  0  0  0  0  0  0  0  0  0  0  0
   -5.5969   -1.1968    1.1246 H   0  0  0  0  0  0  0  0  0  0  0  0
   -4.8370   -2.7323    1.7034 H   0  0  0  0  0  0  0  0  0  0  0  0
   -3.4112   -1.4556    0.3932 H   0  0  0  0  0  0  0  0  0  0  0  0
    4.5838    2.0221   -0.8773 H   0  0  0  0  0  0  0  0  0  0  0  0
    6.4887    3.2755   -0.0531 H   0  0  0  0  0  0  0  0  0  0  0  0
  1  2  1  0
  2  3  1  0
  3  4  2  0
  4  5  1  0
  5  6  2  0
  6  7  1  0
  7  8  2  0
  8  9  1  0
  9 10  1  0
 10 11  2  0
 10 12  1  0
 12 13  1  0
 13 14  2  0
 14 15  1  0
 15 16  2  0
 16 17  1  0
 17 18  1  0
 16 19  1  0
 19 20  1  0
 20 21  1  0
 19 22  2  0
  9 23  2  0
 23 24  1  0
  6 25  1  0
 25 26  2  0
 26  3  1  0
 24  7  1  0
 22 13  1  0
  1 27  1  0
  1 28  1  0
  1 29  1  0
  4 30  1  0
  5 31  1  0
  8 32  1  0
 12 33  1  0
 14 34  1  0
 15 35  1  0
 18 36  1  0
 18 37  1  0
 18 38  1  0
 21 39  1  0
 21 40  1  0
 21 41  1  0
 22 42  1  0
 25 43  1  0
 26 44  1  0
M  END
$$$$
