
     RDKit          3D

 56 61  0  0  0  0  0  0  0  0999 V2000
    1.6496    1.5284   -3.3738 O   0  0  0  0  0  0  0  0  0  0  0  0
    1.1288    2.2756   -2.5592 C   0  0  0  0  0  0  0  0  0  0  0  0
    0.6342    3.5467   -2.8691 N   0  0  0  0  0  0  0  0  0  0  0  0
    0.0795    4.1617   -1.7565 C   0  0  0  0  0  0  0  0  0  0  0  0
   -0.5007    5.4118   -1.7063 C   0  0  0  0  0  0  0  0  0  0  0  0
   -1.0135    5.8317   -0.4772 C   0  0  0  0  0  0  0  0  0  0  0  0
   -0.9353    5.0026    0.6573 C   0  0  0  0  0  0  0  0  0  0  0  0
   -0.3395    3.7398    0.5835 C   0  0  0  0  0  0  0  0  0  0  0  0
    0.1694    3.3255   -0.6392 C   0  0  0  0  0  0  0  0  0  0  0  0
    0.8618    2.0510   -1.0408 C   0  0  0  0  0  0  0  0  0  0  0  0
    2.1252    1.7581   -0.2747 N   0  0  0  0  0  0  0  0  0  0  0  0
    2.1635    0.2641    0.0104 C   0  0  2  0  0  0  0  0  0  0  0  0
    3.1034   -0.4282   -0.9933 C   0  0  0  0  0  0  0  0  0  0  0  0
    3.4452   -1.8581   -0.6369 C   0  0  0  0  0  0  0  0  0  0  0  0
    2.7922   -2.9218   -1.2744 C   0  0  0  0  0  0  0  0  0  0  0  0
    3.1154   -4.2424   -0.9601 C   0  0  0  0  0  0  0  0  0  0  0  0
    4.0921   -4.5129   -0.0037 C   0  0  0  0  0  0  0  0  0  0  0  0
    4.7436   -3.4626    0.6407 C   0  0  0  0  0  0  0  0  0  0  0  0
    4.4217   -2.1407    0.3274 C   0  0  0  0  0  0  0  0  0  0  0  0
    0.7352   -0.1053   -0.1219 C   0  0  0  0  0  0  0  0  0  0  0  0
   -0.0095    0.9065   -0.7380 C   0  0  0  0  0  0  0  0  0  0  0  0
   -1.3107    0.4875   -0.8367 C   0  0  0  0  0  0  0  0  0  0  0  0
   -2.3972    1.0627   -1.3370 O   0  0  0  0  0  0  0  0  0  0  0  0
   -1.3614   -0.7776   -0.2648 N   0  0  0  0  0  0  0  0  0  0  0  0
   -2.5336   -1.6479   -0.3065 C   0  0  0  0  0  0  0  0  0  0  0  0
   -3.2370   -1.7391    1.0267 C   0  0  0  0  0  0  0  0  0  0  0  0
   -3.3627   -2.9796    1.6823 C   0  0  0  0  0  0  0  0  0  0  0  0
   -4.0284   -3.0653    2.9069 C   0  0  0  0  0  0  0  0  0  0  0  0
   -4.5919   -1.9198    3.4807 C   0  0  0  0  0  0  0  0  0  0  0  0
   -4.4859   -0.6860    2.8339 C   0  0  0  0  0  0  0  0  0  0  0  0
   -3.8110   -0.5936    1.6145 C   0  0  0  0  0  0  0  0  0  0  0  0
   -0.1104   -1.1181    0.2387 C   0  0  0  0  0  0  0  0  0  0  0  0
    0.1468   -2.2272    0.9204 O   0  0  0  0  0  0  0  0  0  0  0  0
    0.7019    3.9398   -3.7961 H   0  0  0  0  0  0  0  0  0  0  0  0
   -0.5599    6.0509   -2.5805 H   0  0  0  0  0  0  0  0  0  0  0  0
   -1.4788    6.8120   -0.3931 H   0  0  0  0  0  0  0  0  0  0  0  0
   -1.3433    5.3495    1.6046 H   0  0  0  0  0  0  0  0  0  0  0  0
   -0.2883    3.1004    1.4608 H   0  0  0  0  0  0  0  0  0  0  0  0
    2.0040    2.1968    0.6372 H   0  0  0  0  0  0  0  0  0  0  0  0
    2.5141    0.1202    1.0396 H   0  0  0  0  0  0  0  0  0  0  0  0
    4.0487    0.1291   -1.0552 H   0  0  0  0  0  0  0  0  0  0  0  0
    2.6836   -0.4071   -2.0069 H   0  0  0  0  0  0  0  0  0  0  0  0
    2.0224   -2.7223   -2.0175 H   0  0  0  0  0  0  0  0  0  0  0  0
    2.6026   -5.0586   -1.4612 H   0  0  0  0  0  0  0  0  0  0  0  0
    4.3446   -5.5413    0.2393 H   0  0  0  0  0  0  0  0  0  0  0  0
    5.5046   -3.6726    1.3870 H   0  0  0  0  0  0  0  0  0  0  0  0
    4.9426   -1.3321    0.8343 H   0  0  0  0  0  0  0  0  0  0  0  0
   -2.1362    1.9359   -1.6885 H   0  0  0  0  0  0  0  0  0  0  0  0
   -3.2271   -1.2846   -1.0725 H   0  0  0  0  0  0  0  0  0  0  0  0
   -2.1807   -2.6315   -0.6398 H   0  0  0  0  0  0  0  0  0  0  0  0
   -2.9483   -3.8910    1.2440 H   0  0  0  0  0  0  0  0  0  0  0  0
   -4.1139   -4.0246    3.4120 H   0  0  0  0  0  0  0  0  0  0  0  0
   -5.1174   -1.9895    4.4300 H   0  0  0  0  0  0  0  0  0  0  0  0
   -4.9349    0.2057    3.2736 H   0  0  0  0  0  0  0  0  0  0  0  0
   -3.7391    0.3815    1.1208 H   0  0  0  0  0  0  0  0  0  0  0  0
   -0.6799   -2.5937    1.2750 H   0  0  0  0  0  0  0  0  0  0  0  0
  1  2  2  0
  2  3  1  0
  3  4  1  0
  4  5  2  0
  5  6  1  0
  6  7  2  0
  7  8  1  0
  8  9  2  0
  9 10  1  0
 10 11  1  0
 11 12  1  0
 12 13  1  0
 13 14  1  0
 14 15  2  0
 15 16  1  0
 16 17  2  0
 17 18  1  0
 18 19  2  0
 12 20  1  0
 20 21  1  0
 21 22  2  0
 22 23  1  0
 22 24  1  0
 24 25  1  0
 25 26  1  0
 26 27  2  0
 27 28  1  0
 28 29  2  0
 29 30  1  0
 30 31  2  0
 24 32  1  0
 32 33  1  0
 10  2  1  0
 19 14  1  0
 32 20  2  0
  9  4  1  0
 21 10  1  0
 31 26  1  0
  3 34  1  0
  5 35  1  0
  6 36  1  0
  7 37  1  0
  8 38  1  0
 11 39  1  0
 12 40  1  1
 13 41  1  0
 13 42  1  0
 15 43  1  0
 16 44  1  0
 17 45  1  0
 18 46  1  0
 19 47  1  0
 23 48  1  0
 25 49  1  0
 25 50  1  0
 27 51  1  0
 28 52  1  0
 29 53  1  0
 30 54  1  0
 31 55  1  0
 33 56  1  0
M  END
$$$$
