
     RDKit          3D

 64 67  0  0  0  0  0  0  0  0999 V2000
    8.2944   -3.6205   -0.2325 C   0  0  0  0  0  0  0  0  0  0  0  0
    7.9150   -2.7748    0.8486 O   0  0  0  0  0  0  0  0  0  0  0  0
    6.7682   -2.0455    0.6808 C   0  0  0  0  0  0  0  0  0  0  0  0
    5.9962   -1.9904   -0.4806 C   0  0  0  0  0  0  0  0  0  0  0  0
    4.8329   -1.2121   -0.5220 C   0  0  0  0  0  0  0  0  0  0  0  0
    4.4341   -0.4805    0.5964 C   0  0  0  0  0  0  0  0  0  0  0  0
    3.2697    0.3141    0.6380 N   0  0  0  0  0  0  0  0  0  0  0  0
    2.3472    0.5491   -0.3627 C   0  0  0  0  0  0  0  0  0  0  0  0
    2.4282    0.1722   -1.5302 O   0  0  0  0  0  0  0  0  0  0  0  0
    1.2196    1.4762    0.0606 C   0  0  0  0  0  0  0  0  0  0  0  0
    0.3456    0.9084    1.5489 S   0  0  0  0  0  0  0  0  0  0  0  0
   -0.5213   -0.4281    0.8788 C   0  0  0  0  0  0  0  0  0  0  0  0
    0.0166   -1.5533    0.4787 N   0  0  0  0  0  0  0  0  0  0  0  0
   -0.9924   -2.3516    0.0064 N   0  0  0  0  0  0  0  0  0  0  0  0
   -2.1307   -1.6897    0.1115 C   0  0  0  0  0  0  0  0  0  0  0  0
   -3.4644   -2.2020   -0.3243 C   0  0  0  0  0  0  0  0  0  0  0  0
   -4.0080   -1.5025   -1.5366 C   0  0  0  0  0  0  0  0  0  0  0  0
   -5.2046   -0.8206   -1.6816 C   0  0  0  0  0  0  0  0  0  0  0  0
   -5.2731   -0.3380   -3.0085 C   0  0  0  0  0  0  0  0  0  0  0  0
   -4.1218   -0.7362   -3.6471 C   0  0  0  0  0  0  0  0  0  0  0  0
   -3.3712   -1.4670   -2.7611 N   0  0  0  0  0  0  0  0  0  0  0  0
   -2.1041   -2.0875   -3.1005 C   0  0  0  0  0  0  0  0  0  0  0  0
   -1.8752   -0.4568    0.6724 N   0  0  0  0  0  0  0  0  0  0  0  0
   -2.8416    0.5720    1.0021 C   0  0  0  0  0  0  0  0  0  0  0  0
   -2.8611    1.7207   -0.0093 C   0  0  0  0  0  0  0  0  0  0  0  0
   -3.9667    2.7094    0.2719 C   0  0  0  0  0  0  0  0  0  0  0  0
   -3.9809    3.4556    1.4577 C   0  0  0  0  0  0  0  0  0  0  0  0
   -5.0129    4.3605    1.7120 C   0  0  0  0  0  0  0  0  0  0  0  0
   -6.0344    4.5366    0.7813 C   0  0  0  0  0  0  0  0  0  0  0  0
   -6.0220    3.8104   -0.4070 C   0  0  0  0  0  0  0  0  0  0  0  0
   -4.9930    2.9030   -0.6614 C   0  0  0  0  0  0  0  0  0  0  0  0
    5.2207   -0.5184    1.7654 C   0  0  0  0  0  0  0  0  0  0  0  0
    4.7617    0.2486    2.8121 O   0  0  0  0  0  0  0  0  0  0  0  0
    5.7012    0.5400    3.8408 C   0  0  0  0  0  0  0  0  0  0  0  0
    6.3758   -1.3061    1.8016 C   0  0  0  0  0  0  0  0  0  0  0  0
    8.5570   -3.0340   -1.1194 H   0  0  0  0  0  0  0  0  0  0  0  0
    9.1883   -4.1739    0.0737 H   0  0  0  0  0  0  0  0  0  0  0  0
    7.5110   -4.3506   -0.4577 H   0  0  0  0  0  0  0  0  0  0  0  0
    6.2667   -2.5401   -1.3746 H   0  0  0  0  0  0  0  0  0  0  0  0
    4.2555   -1.2042   -1.4416 H   0  0  0  0  0  0  0  0  0  0  0  0
    3.0819    0.7097    1.5557 H   0  0  0  0  0  0  0  0  0  0  0  0
    1.6435    2.4664    0.2584 H   0  0  0  0  0  0  0  0  0  0  0  0
    0.5090    1.5768   -0.7653 H   0  0  0  0  0  0  0  0  0  0  0  0
   -3.3899   -3.2756   -0.5419 H   0  0  0  0  0  0  0  0  0  0  0  0
   -4.1770   -2.1162    0.5061 H   0  0  0  0  0  0  0  0  0  0  0  0
   -5.9508   -0.6831   -0.9080 H   0  0  0  0  0  0  0  0  0  0  0  0
   -6.0702    0.2439   -3.4541 H   0  0  0  0  0  0  0  0  0  0  0  0
   -3.7855   -0.5681   -4.6609 H   0  0  0  0  0  0  0  0  0  0  0  0
   -2.0360   -2.1930   -4.1870 H   0  0  0  0  0  0  0  0  0  0  0  0
   -1.2992   -1.4410   -2.7388 H   0  0  0  0  0  0  0  0  0  0  0  0
   -2.0570   -3.0789   -2.6417 H   0  0  0  0  0  0  0  0  0  0  0  0
   -3.8287    0.1046    1.0768 H   0  0  0  0  0  0  0  0  0  0  0  0
   -2.6033    0.9303    2.0097 H   0  0  0  0  0  0  0  0  0  0  0  0
   -2.9626    1.3226   -1.0256 H   0  0  0  0  0  0  0  0  0  0  0  0
   -1.9098    2.2655   -0.0048 H   0  0  0  0  0  0  0  0  0  0  0  0
   -3.1888    3.3412    2.1940 H   0  0  0  0  0  0  0  0  0  0  0  0
   -5.0196    4.9308    2.6371 H   0  0  0  0  0  0  0  0  0  0  0  0
   -6.8371    5.2403    0.9807 H   0  0  0  0  0  0  0  0  0  0  0  0
   -6.8140    3.9494   -1.1393 H   0  0  0  0  0  0  0  0  0  0  0  0
   -4.9999    2.3482   -1.5966 H   0  0  0  0  0  0  0  0  0  0  0  0
    6.6436    0.9209    3.4337 H   0  0  0  0  0  0  0  0  0  0  0  0
    5.2709    1.3285    4.4638 H   0  0  0  0  0  0  0  0  0  0  0  0
    5.8693   -0.3373    4.4714 H   0  0  0  0  0  0  0  0  0  0  0  0
    6.9847   -1.3784    2.6955 H   0  0  0  0  0  0  0  0  0  0  0  0
  1  2  1  0
  2  3  1  0
  3  4  2  0
  4  5  1  0
  5  6  2  0
  6  7  1  0
  7  8  1  0
  8  9  2  0
  8 10  1  0
 10 11  1  0
 11 12  1  0
 12 13  2  0
 13 14  1  0
 14 15  2  0
 15 16  1  0
 16 17  1  0
 17 18  2  0
 18 19  1  0
 19 20  2  0
 20 21  1  0
 21 22  1  0
 15 23  1  0
 23 24  1  0
 24 25  1  0
 25 26  1  0
 26 27  2  0
 27 28  1  0
 28 29  2  0
 29 30  1  0
 30 31  2  0
  6 32  1  0
 32 33  1  0
 33 34  1  0
 32 35  2  0
 35  3  1  0
 23 12  1  0
 31 26  1  0
 21 17  1  0
  1 36  1  0
  1 37  1  0
  1 38  1  0
  4 39  1  0
  5 40  1  0
  7 41  1  0
 10 42  1  0
 10 43  1  0
 16 44  1  0
 16 45  1  0
 18 46  1  0
 19 47  1  0
 20 48  1  0
 22 49  1  0
 22 50  1  0
 22 51  1  0
 24 52  1  0
 24 53  1  0
 25 54  1  0
 25 55  1  0
 27 56  1  0
 28 57  1  0
 29 58  1  0
 30 59  1  0
 31 60  1  0
 34 61  1  0
 34 62  1  0
 34 63  1  0
 35 64  1  0
M  END
$$$$
