
     RDKit          3D

 38 40  0  0  0  0  0  0  0  0999 V2000
    0.6323    3.6358   -0.1267 S   0  0  0  0  0  0  0  0  0  0  0  0
    0.3696    2.0302    0.2706 C   0  0  0  0  0  0  0  0  0  0  0  0
    1.4263    1.3415    0.7965 N   0  0  0  0  0  0  0  0  0  0  0  0
    1.6906   -0.0742    0.5850 C   0  0  0  0  0  0  0  0  0  0  0  0
    2.9706   -0.2671   -0.1887 C   0  0  0  0  0  0  0  0  0  0  0  0
    3.0202    0.0379   -1.5571 C   0  0  0  0  0  0  0  0  0  0  0  0
    4.2051   -0.1228   -2.2763 C   0  0  0  0  0  0  0  0  0  0  0  0
    5.3521   -0.5866   -1.6353 C   0  0  0  0  0  0  0  0  0  0  0  0
    5.3157   -0.8902   -0.2756 C   0  0  0  0  0  0  0  0  0  0  0  0
    4.1314   -0.7291    0.4463 C   0  0  0  0  0  0  0  0  0  0  0  0
   -0.8188    1.3333    0.1141 N   0  0  0  0  0  0  0  0  0  0  0  0
   -1.8477    1.7918   -0.8259 C   0  0  0  0  0  0  0  0  0  0  0  0
   -2.6754    0.6164   -1.3450 C   0  0  0  0  0  0  0  0  0  0  0  0
   -3.1540   -0.2839   -0.2356 C   0  0  0  0  0  0  0  0  0  0  0  0
   -4.2108   -1.1756   -0.4655 C   0  0  0  0  0  0  0  0  0  0  0  0
   -4.6400   -2.0361    0.5438 C   0  0  0  0  0  0  0  0  0  0  0  0
   -4.0135   -2.0184    1.7871 C   0  0  0  0  0  0  0  0  0  0  0  0
   -2.9531   -1.1431    2.0215 C   0  0  0  0  0  0  0  0  0  0  0  0
   -2.5047   -0.2777    1.0118 C   0  0  0  0  0  0  0  0  0  0  0  0
   -1.3744    0.6804    1.3060 C   0  0  0  0  0  0  0  0  0  0  0  0
    2.2584    1.9140    0.8866 H   0  0  0  0  0  0  0  0  0  0  0  0
    1.7675   -0.5363    1.5750 H   0  0  0  0  0  0  0  0  0  0  0  0
    0.8714   -0.5621    0.0471 H   0  0  0  0  0  0  0  0  0  0  0  0
    2.1322    0.4078   -2.0664 H   0  0  0  0  0  0  0  0  0  0  0  0
    4.2334    0.1173   -3.3360 H   0  0  0  0  0  0  0  0  0  0  0  0
    6.2752   -0.7105   -2.1954 H   0  0  0  0  0  0  0  0  0  0  0  0
    6.2114   -1.2508    0.2234 H   0  0  0  0  0  0  0  0  0  0  0  0
    4.1225   -0.9673    1.5072 H   0  0  0  0  0  0  0  0  0  0  0  0
   -1.3849    2.2955   -1.6811 H   0  0  0  0  0  0  0  0  0  0  0  0
   -2.4818    2.5223   -0.3068 H   0  0  0  0  0  0  0  0  0  0  0  0
   -2.0620    0.0128   -2.0263 H   0  0  0  0  0  0  0  0  0  0  0  0
   -3.5284    1.0047   -1.9139 H   0  0  0  0  0  0  0  0  0  0  0  0
   -4.7051   -1.2027   -1.4342 H   0  0  0  0  0  0  0  0  0  0  0  0
   -5.4631   -2.7214    0.3594 H   0  0  0  0  0  0  0  0  0  0  0  0
   -4.3506   -2.6874    2.5747 H   0  0  0  0  0  0  0  0  0  0  0  0
   -2.4766   -1.1387    2.9995 H   0  0  0  0  0  0  0  0  0  0  0  0
   -1.7535    1.4778    1.9589 H   0  0  0  0  0  0  0  0  0  0  0  0
   -0.5875    0.1623    1.8607 H   0  0  0  0  0  0  0  0  0  0  0  0
  1  2  2  0
  2  3  1  0
  3  4  1  0
  4  5  1  0
  5  6  2  0
  6  7  1  0
  7  8  2  0
  8  9  1  0
  9 10  2  0
  2 11  1  0
 11 12  1  0
 12 13  1  0
 13 14  1  0
 14 15  2  0
 15 16  1  0
 16 17  2  0
 17 18  1  0
 18 19  2  0
 19 20  1  0
 10  5  1  0
 20 11  1  0
 19 14  1  0
  3 21  1  0
  4 22  1  0
  4 23  1  0
  6 24  1  0
  7 25  1  0
  8 26  1  0
  9 27  1  0
 10 28  1  0
 12 29  1  0
 12 30  1  0
 13 31  1  0
 13 32  1  0
 15 33  1  0
 16 34  1  0
 17 35  1  0
 18 36  1  0
 20 37  1  0
 20 38  1  0
M  END
$$$$
