
     RDKit          3D

 46 48  0  0  0  0  0  0  0  0999 V2000
   -5.8949   -2.2943   -2.5043 C   0  0  0  0  0  0  0  0  0  0  0  0
   -6.1744   -2.1965   -1.1122 O   0  0  0  0  0  0  0  0  0  0  0  0
   -5.3927   -1.3329   -0.3881 C   0  0  0  0  0  0  0  0  0  0  0  0
   -4.3308   -0.5714   -0.8788 C   0  0  0  0  0  0  0  0  0  0  0  0
   -3.6067    0.2705   -0.0186 C   0  0  0  0  0  0  0  0  0  0  0  0
   -2.5036    1.0659   -0.5651 C   0  0  0  0  0  0  0  0  0  0  0  0
   -1.2396    1.0089   -0.1229 C   0  0  0  0  0  0  0  0  0  0  0  0
   -0.6256    0.1689    0.9545 C   0  0  0  0  0  0  0  0  0  0  0  0
    0.8680    0.1355    0.6324 C   0  0  0  0  0  0  0  0  0  0  0  0
    1.1176    1.3642   -0.1863 C   0  0  0  0  0  0  0  0  0  0  0  0
    2.2533    2.0405   -0.4070 C   0  0  0  0  0  0  0  0  0  0  0  0
    3.5533    1.6461    0.1396 C   0  0  0  0  0  0  0  0  0  0  0  0
    4.1952    2.4932    1.0513 C   0  0  0  0  0  0  0  0  0  0  0  0
    5.4328    2.1384    1.5855 C   0  0  0  0  0  0  0  0  0  0  0  0
    6.0217    0.9423    1.1969 C   0  0  0  0  0  0  0  0  0  0  0  0
    7.2365    0.6163    1.7364 O   0  0  0  0  0  0  0  0  0  0  0  0
    5.4065    0.0846    0.2777 C   0  0  0  0  0  0  0  0  0  0  0  0
    6.1124   -1.0550   -0.0122 O   0  0  0  0  0  0  0  0  0  0  0  0
    5.5409   -1.9304   -0.9777 C   0  0  0  0  0  0  0  0  0  0  0  0
    4.1665    0.4442   -0.2519 C   0  0  0  0  0  0  0  0  0  0  0  0
   -0.1735    1.8289   -0.7511 C   0  0  0  0  0  0  0  0  0  0  0  0
   -0.3278    2.7077   -1.5772 O   0  0  0  0  0  0  0  0  0  0  0  0
   -3.9683    0.3623    1.3323 C   0  0  0  0  0  0  0  0  0  0  0  0
   -5.0265   -0.3969    1.8291 C   0  0  0  0  0  0  0  0  0  0  0  0
   -5.7225   -1.2350    0.9685 C   0  0  0  0  0  0  0  0  0  0  0  0
   -6.7568   -1.9705    1.4804 O   0  0  0  0  0  0  0  0  0  0  0  0
   -6.0356   -1.3303   -3.0042 H   0  0  0  0  0  0  0  0  0  0  0  0
   -4.8878   -2.6879   -2.6770 H   0  0  0  0  0  0  0  0  0  0  0  0
   -6.6077   -3.0018   -2.9387 H   0  0  0  0  0  0  0  0  0  0  0  0
   -4.0407   -0.6179   -1.9235 H   0  0  0  0  0  0  0  0  0  0  0  0
   -2.7626    1.7209   -1.3961 H   0  0  0  0  0  0  0  0  0  0  0  0
   -1.0359   -0.8452    0.9899 H   0  0  0  0  0  0  0  0  0  0  0  0
   -0.7866    0.6443    1.9294 H   0  0  0  0  0  0  0  0  0  0  0  0
    1.1036   -0.7562    0.0392 H   0  0  0  0  0  0  0  0  0  0  0  0
    1.4613    0.1074    1.5518 H   0  0  0  0  0  0  0  0  0  0  0  0
    2.2474    2.9502   -1.0056 H   0  0  0  0  0  0  0  0  0  0  0  0
    3.7342    3.4304    1.3553 H   0  0  0  0  0  0  0  0  0  0  0  0
    5.9347    2.7876    2.2965 H   0  0  0  0  0  0  0  0  0  0  0  0
    7.4710   -0.2406    1.3299 H   0  0  0  0  0  0  0  0  0  0  0  0
    6.2251   -2.7742   -1.1095 H   0  0  0  0  0  0  0  0  0  0  0  0
    5.4341   -1.4334   -1.9476 H   0  0  0  0  0  0  0  0  0  0  0  0
    4.5829   -2.3299   -0.6288 H   0  0  0  0  0  0  0  0  0  0  0  0
    3.6585   -0.1861   -0.9741 H   0  0  0  0  0  0  0  0  0  0  0  0
   -3.4367    1.0313    2.0049 H   0  0  0  0  0  0  0  0  0  0  0  0
   -5.3110   -0.3319    2.8749 H   0  0  0  0  0  0  0  0  0  0  0  0
   -7.1093   -2.4726    0.7200 H   0  0  0  0  0  0  0  0  0  0  0  0
  1  2  1  0
  2  3  1  0
  3  4  2  0
  4  5  1  0
  5  6  1  0
  6  7  2  3
  7  8  1  0
  8  9  1  0
  9 10  1  0
 10 11  2  3
 11 12  1  0
 12 13  2  0
 13 14  1  0
 14 15  2  0
 15 16  1  0
 15 17  1  0
 17 18  1  0
 18 19  1  0
 17 20  2  0
 10 21  1  0
 21 22  2  0
  5 23  2  0
 23 24  1  0
 24 25  2  0
 25 26  1  0
 25  3  1  0
 21  7  1  0
 20 12  1  0
  1 27  1  0
  1 28  1  0
  1 29  1  0
  4 30  1  0
  6 31  1  0
  8 32  1  0
  8 33  1  0
  9 34  1  0
  9 35  1  0
 11 36  1  0
 13 37  1  0
 14 38  1  0
 16 39  1  0
 19 40  1  0
 19 41  1  0
 19 42  1  0
 20 43  1  0
 23 44  1  0
 24 45  1  0
 26 46  1  0
M  END
$$$$
