
     RDKit          3D

 46 49  0  0  0  0  0  0  0  0999 V2000
    2.8492   -0.8133    1.1650 O   0  0  0  0  0  0  0  0  0  0  0  0
    1.6844   -0.6237    0.8214 C   0  0  0  0  0  0  0  0  0  0  0  0
    0.5837   -1.5185    1.3650 C   0  0  0  0  0  0  0  0  0  0  0  0
   -0.2234   -2.1189    0.3178 N   0  0  0  0  0  0  0  0  0  0  0  0
   -1.5326   -1.8200   -0.0031 C   0  0  0  0  0  0  0  0  0  0  0  0
   -2.3705   -0.7818    0.6775 C   0  0  0  0  0  0  0  0  0  0  0  0
   -1.5992    0.4244    0.7052 O   0  0  0  0  0  0  0  0  0  0  0  0
   -2.2206    1.4335    1.3902 C   0  0  0  0  0  0  0  0  0  0  0  0
   -3.4982    1.8888    1.0689 C   0  0  0  0  0  0  0  0  0  0  0  0
   -4.0543    2.9506    1.7841 C   0  0  0  0  0  0  0  0  0  0  0  0
   -3.3299    3.5632    2.8063 C   0  0  0  0  0  0  0  0  0  0  0  0
   -2.0418    3.1246    3.1064 C   0  0  0  0  0  0  0  0  0  0  0  0
   -1.4816    2.0674    2.3892 C   0  0  0  0  0  0  0  0  0  0  0  0
   -1.9497   -2.5845   -0.9966 N   0  0  0  0  0  0  0  0  0  0  0  0
   -0.8891   -3.3845   -1.3350 C   0  0  0  0  0  0  0  0  0  0  0  0
   -0.7952   -4.3695   -2.3294 C   0  0  0  0  0  0  0  0  0  0  0  0
    0.4148   -5.0562   -2.4860 C   0  0  0  0  0  0  0  0  0  0  0  0
    1.5090   -4.7680   -1.6671 C   0  0  0  0  0  0  0  0  0  0  0  0
    1.4325   -3.7893   -0.6679 C   0  0  0  0  0  0  0  0  0  0  0  0
    0.2115   -3.1160   -0.5288 C   0  0  0  0  0  0  0  0  0  0  0  0
    1.2492    0.3945   -0.0081 N   0  0  0  0  0  0  0  0  0  0  0  0
    2.0322    1.3689   -0.6782 C   0  0  0  0  0  0  0  0  0  0  0  0
    3.4163    1.4884   -0.5129 C   0  0  0  0  0  0  0  0  0  0  0  0
    4.1395    2.4723   -1.2033 C   0  0  0  0  0  0  0  0  0  0  0  0
    5.8476    2.5467   -0.9433 Cl  0  0  0  0  0  0  0  0  0  0  0  0
    3.4811    3.3515   -2.0676 C   0  0  0  0  0  0  0  0  0  0  0  0
    4.3088    4.5874   -2.9446 Cl  0  0  0  0  0  0  0  0  0  0  0  0
    2.1010    3.2505   -2.2381 C   0  0  0  0  0  0  0  0  0  0  0  0
    1.3864    2.2645   -1.5532 C   0  0  0  0  0  0  0  0  0  0  0  0
   -0.3142    2.1684   -1.8401 Cl  0  0  0  0  0  0  0  0  0  0  0  0
    1.0356   -2.3426    1.9310 H   0  0  0  0  0  0  0  0  0  0  0  0
   -0.0462   -0.9598    2.0613 H   0  0  0  0  0  0  0  0  0  0  0  0
   -3.2892   -0.6428    0.0980 H   0  0  0  0  0  0  0  0  0  0  0  0
   -2.6178   -1.1102    1.6943 H   0  0  0  0  0  0  0  0  0  0  0  0
   -4.0597    1.4540    0.2467 H   0  0  0  0  0  0  0  0  0  0  0  0
   -5.0464    3.3151    1.5290 H   0  0  0  0  0  0  0  0  0  0  0  0
   -3.7612    4.3946    3.3587 H   0  0  0  0  0  0  0  0  0  0  0  0
   -1.4699    3.6150    3.8897 H   0  0  0  0  0  0  0  0  0  0  0  0
   -0.4699    1.7453    2.6133 H   0  0  0  0  0  0  0  0  0  0  0  0
   -1.6491   -4.5860   -2.9618 H   0  0  0  0  0  0  0  0  0  0  0  0
    0.5006   -5.8211   -3.2553 H   0  0  0  0  0  0  0  0  0  0  0  0
    2.4409   -5.3123   -1.8093 H   0  0  0  0  0  0  0  0  0  0  0  0
    2.2911   -3.5692   -0.0391 H   0  0  0  0  0  0  0  0  0  0  0  0
    0.2469    0.4544   -0.1955 H   0  0  0  0  0  0  0  0  0  0  0  0
    3.9653    0.8304    0.1525 H   0  0  0  0  0  0  0  0  0  0  0  0
    1.5819    3.9336   -2.9072 H   0  0  0  0  0  0  0  0  0  0  0  0
  1  2  2  0
  2  3  1  0
  3  4  1  0
  4  5  1  0
  5  6  1  0
  6  7  1  0
  7  8  1  0
  8  9  2  0
  9 10  1  0
 10 11  2  0
 11 12  1  0
 12 13  2  0
  5 14  2  0
 14 15  1  0
 15 16  2  0
 16 17  1  0
 17 18  2  0
 18 19  1  0
 19 20  2  0
  2 21  1  0
 21 22  1  0
 22 23  2  0
 23 24  1  0
 24 25  1  0
 24 26  2  0
 26 27  1  0
 26 28  1  0
 28 29  2  0
 29 30  1  0
 20  4  1  0
 29 22  1  0
 13  8  1  0
 20 15  1  0
  3 31  1  0
  3 32  1  0
  6 33  1  0
  6 34  1  0
  9 35  1  0
 10 36  1  0
 11 37  1  0
 12 38  1  0
 13 39  1  0
 16 40  1  0
 17 41  1  0
 18 42  1  0
 19 43  1  0
 21 44  1  0
 23 45  1  0
 28 46  1  0
M  END
$$$$
