
     RDKit          3D

 42 44  0  0  0  0  0  0  0  0999 V2000
    3.4720    1.8412   -0.3886 O   0  0  0  0  0  0  0  0  0  0  0  0
    2.3846    1.3536   -0.0934 C   0  0  0  0  0  0  0  0  0  0  0  0
    2.1693    0.0573    0.3297 N   0  0  0  0  0  0  0  0  0  0  0  0
    3.1178   -0.9876    0.4644 C   0  0  0  0  0  0  0  0  0  0  0  0
    4.4910   -0.8011    0.2757 C   0  0  0  0  0  0  0  0  0  0  0  0
    5.3881   -1.8646    0.4315 C   0  0  0  0  0  0  0  0  0  0  0  0
    4.9261   -3.1320    0.7747 C   0  0  0  0  0  0  0  0  0  0  0  0
    3.5619   -3.3403    0.9596 C   0  0  0  0  0  0  0  0  0  0  0  0
    2.6650   -2.2778    0.8040 C   0  0  0  0  0  0  0  0  0  0  0  0
    0.9791   -2.6219    1.0045 Cl  0  0  0  0  0  0  0  0  0  0  0  0
    1.1796    2.2393   -0.1923 C   0  0  0  0  0  0  0  0  0  0  0  0
    1.3985    3.6176   -0.0198 C   0  0  0  0  0  0  0  0  0  0  0  0
    0.3500    4.5299   -0.1382 C   0  0  0  0  0  0  0  0  0  0  0  0
   -0.9276    4.0789   -0.4523 C   0  0  0  0  0  0  0  0  0  0  0  0
   -1.1619    2.7155   -0.6390 C   0  0  0  0  0  0  0  0  0  0  0  0
   -0.1193    1.7855   -0.4901 C   0  0  0  0  0  0  0  0  0  0  0  0
   -0.3068    0.4306   -0.6835 O   0  0  0  0  0  0  0  0  0  0  0  0
   -1.5531   -0.1058   -0.4686 C   0  0  0  0  0  0  0  0  0  0  0  0
   -2.1680   -0.6793   -1.5856 C   0  0  0  0  0  0  0  0  0  0  0  0
   -3.4301   -1.2712   -1.4738 C   0  0  0  0  0  0  0  0  0  0  0  0
   -4.0934   -1.3210   -0.2369 C   0  0  0  0  0  0  0  0  0  0  0  0
   -5.4686   -1.9402   -0.1260 C   0  0  0  0  0  0  0  0  0  0  0  0
   -5.6831   -2.9283   -1.0367 F   0  0  0  0  0  0  0  0  0  0  0  0
   -5.7002   -2.4970    1.0939 F   0  0  0  0  0  0  0  0  0  0  0  0
   -6.4568   -1.0261   -0.3190 F   0  0  0  0  0  0  0  0  0  0  0  0
   -3.4689   -0.7609    0.8900 C   0  0  0  0  0  0  0  0  0  0  0  0
   -2.1984   -0.1721    0.7719 C   0  0  0  0  0  0  0  0  0  0  0  0
   -1.5752    0.3551    1.9789 N   0  0  0  0  0  4  0  0  0  0  0  0
   -2.3148    0.9344    2.7861 O   0  0  0  0  0  0  0  0  0  0  0  0
   -0.3588    0.1786    2.1262 O   0  0  0  0  0  1  0  0  0  0  0  0
    1.2190   -0.1945    0.5918 H   0  0  0  0  0  0  0  0  0  0  0  0
    4.9045    0.1681    0.0156 H   0  0  0  0  0  0  0  0  0  0  0  0
    6.4524   -1.6937    0.2849 H   0  0  0  0  0  0  0  0  0  0  0  0
    5.6268   -3.9541    0.8952 H   0  0  0  0  0  0  0  0  0  0  0  0
    3.2016   -4.3317    1.2209 H   0  0  0  0  0  0  0  0  0  0  0  0
    2.3984    3.9861    0.2064 H   0  0  0  0  0  0  0  0  0  0  0  0
    0.5370    5.5919    0.0017 H   0  0  0  0  0  0  0  0  0  0  0  0
   -1.7417    4.7918   -0.5627 H   0  0  0  0  0  0  0  0  0  0  0  0
   -2.1655    2.4056   -0.9175 H   0  0  0  0  0  0  0  0  0  0  0  0
   -1.6653   -0.6599   -2.5514 H   0  0  0  0  0  0  0  0  0  0  0  0
   -3.8945   -1.7016   -2.3617 H   0  0  0  0  0  0  0  0  0  0  0  0
   -3.9711   -0.7983    1.8578 H   0  0  0  0  0  0  0  0  0  0  0  0
  1  2  2  0
  2  3  1  0
  3  4  1  0
  4  5  2  0
  5  6  1  0
  6  7  2  0
  7  8  1  0
  8  9  2  0
  9 10  1  0
  2 11  1  0
 11 12  2  0
 12 13  1  0
 13 14  2  0
 14 15  1  0
 15 16  2  0
 16 17  1  0
 17 18  1  0
 18 19  2  0
 19 20  1  0
 20 21  2  0
 21 22  1  0
 22 23  1  0
 22 24  1  0
 22 25  1  0
 21 26  1  0
 26 27  2  0
 27 28  1  0
 28 29  2  0
 28 30  1  0
  9  4  1  0
 16 11  1  0
 27 18  1  0
  3 31  1  0
  5 32  1  0
  6 33  1  0
  7 34  1  0
  8 35  1  0
 12 36  1  0
 13 37  1  0
 14 38  1  0
 15 39  1  0
 19 40  1  0
 20 41  1  0
 26 42  1  0
M  CHG  2  28   1  30  -1
M  END
$$$$
