
     RDKit          3D

 36 37  0  0  0  0  0  0  0  0999 V2000
   -0.5387   -2.1333   -0.3715 O   0  0  0  0  0  0  0  0  0  0  0  0
   -0.0258   -1.2257   -1.0255 C   0  0  0  0  0  0  0  0  0  0  0  0
    1.4448   -1.2312   -1.4472 C   0  0  0  0  0  0  0  0  0  0  0  0
    2.2944   -0.5433   -0.5274 O   0  0  0  0  0  0  0  0  0  0  0  0
    2.2392    0.8077   -0.5905 C   0  0  0  0  0  0  0  0  0  0  0  0
    1.5191    1.4521   -1.3378 O   0  0  0  0  0  0  0  0  0  0  0  0
    3.1745    1.4243    0.3865 C   0  0  0  0  0  0  0  0  0  0  0  0
    3.9571    0.6585    1.2606 C   0  0  0  0  0  0  0  0  0  0  0  0
    4.8165    1.2951    2.1565 C   0  0  0  0  0  0  0  0  0  0  0  0
    5.7773    0.3513    3.2275 Cl  0  0  0  0  0  0  0  0  0  0  0  0
    4.9067    2.6842    2.1944 C   0  0  0  0  0  0  0  0  0  0  0  0
    4.1265    3.4410    1.3246 C   0  0  0  0  0  0  0  0  0  0  0  0
    4.2302    5.1577    1.3627 Cl  0  0  0  0  0  0  0  0  0  0  0  0
    3.2621    2.8224    0.4224 C   0  0  0  0  0  0  0  0  0  0  0  0
   -0.7427   -0.1215   -1.4408 N   0  0  0  0  0  0  0  0  0  0  0  0
   -2.0874    0.1037   -0.9421 C   0  0  0  0  0  0  0  0  0  0  0  0
   -3.1040   -0.9295   -1.4521 C   0  0  0  0  0  0  0  0  0  0  0  0
   -4.0623   -1.2940   -0.4289 N   0  0  0  0  0  0  0  0  0  0  0  0
   -3.9480   -2.3700    0.4193 C   0  0  0  0  0  0  0  0  0  0  0  0
   -2.8780   -3.2135    0.3830 O   0  0  0  0  0  0  0  0  0  0  0  0
   -4.9670   -2.5130    1.2717 C   0  0  0  0  0  0  0  0  0  0  0  0
   -6.1446   -1.2531    1.0764 S   0  0  0  0  0  0  0  0  0  0  0  0
   -5.1911   -0.5127   -0.2197 C   0  0  0  0  0  0  0  0  0  0  0  0
   -5.5033    0.5176   -0.7944 O   0  0  0  0  0  0  0  0  0  0  0  0
    1.7771   -2.2741   -1.4903 H   0  0  0  0  0  0  0  0  0  0  0  0
    1.5543   -0.8270   -2.4610 H   0  0  0  0  0  0  0  0  0  0  0  0
    3.9046   -0.4277    1.2535 H   0  0  0  0  0  0  0  0  0  0  0  0
    5.5787    3.1723    2.8956 H   0  0  0  0  0  0  0  0  0  0  0  0
    2.6588    3.4284   -0.2514 H   0  0  0  0  0  0  0  0  0  0  0  0
   -0.1879    0.7036   -1.6805 H   0  0  0  0  0  0  0  0  0  0  0  0
   -2.0298    0.0998    0.1531 H   0  0  0  0  0  0  0  0  0  0  0  0
   -2.3878    1.1099   -1.2536 H   0  0  0  0  0  0  0  0  0  0  0  0
   -3.6486   -0.4910   -2.2982 H   0  0  0  0  0  0  0  0  0  0  0  0
   -2.6343   -1.8380   -1.8444 H   0  0  0  0  0  0  0  0  0  0  0  0
   -2.0856   -2.7319    0.0618 H   0  0  0  0  0  0  0  0  0  0  0  0
   -5.0549   -3.2992    2.0078 H   0  0  0  0  0  0  0  0  0  0  0  0
  1  2  2  0
  2  3  1  0
  3  4  1  0
  4  5  1  0
  5  6  2  0
  5  7  1  0
  7  8  2  0
  8  9  1  0
  9 10  1  0
  9 11  2  0
 11 12  1  0
 12 13  1  0
 12 14  2  0
  2 15  1  0
 15 16  1  0
 16 17  1  0
 17 18  1  0
 18 19  1  0
 19 20  1  0
 19 21  2  0
 21 22  1  0
 22 23  1  0
 23 24  2  0
 14  7  1  0
 23 18  1  0
  3 25  1  0
  3 26  1  0
  8 27  1  0
 11 28  1  0
 14 29  1  0
 15 30  1  0
 16 31  1  0
 16 32  1  0
 17 33  1  0
 17 34  1  0
 20 35  1  0
 21 36  1  0
M  END
$$$$
