
     RDKit          3D

 32 34  0  0  0  0  0  0  0  0999 V2000
   -0.3865   -0.3086   -2.0159 O   0  0  0  0  0  0  0  0  0  0  0  0
   -0.3884   -0.2062   -0.7947 C   0  0  0  0  0  0  0  0  0  0  0  0
   -1.6730    0.0112    0.0167 C   0  0  0  0  0  0  0  0  0  0  0  0
   -2.8170    0.0754   -0.8188 O   0  0  0  0  0  0  0  0  0  0  0  0
   -4.0284    0.2664   -0.2172 C   0  0  0  0  0  0  0  0  0  0  0  0
   -4.2555    0.4066    1.1532 C   0  0  0  0  0  0  0  0  0  0  0  0
   -5.5564    0.5978    1.6329 C   0  0  0  0  0  0  0  0  0  0  0  0
   -6.6271    0.6487    0.7420 C   0  0  0  0  0  0  0  0  0  0  0  0
   -8.3812    0.9072    1.3960 Br  0  0  0  0  0  0  0  0  0  0  0  0
   -6.4108    0.5102   -0.6256 C   0  0  0  0  0  0  0  0  0  0  0  0
   -5.1114    0.3194   -1.1001 C   0  0  0  0  0  0  0  0  0  0  0  0
    0.7237   -0.2670    0.0260 N   0  0  0  0  0  0  0  0  0  0  0  0
    1.9837   -0.4550   -0.4735 C   0  0  0  0  0  0  0  0  0  0  0  0
    2.4018   -0.6078   -1.7055 N   0  0  0  0  0  0  0  0  0  0  0  0
    3.7759   -0.7721   -1.7635 N   0  0  0  0  0  0  0  0  0  0  0  0
    4.3188   -0.7261   -0.5681 C   0  0  0  0  0  0  0  0  0  0  0  0
    5.8533   -0.8919   -0.3449 C   0  0  0  0  0  0  0  0  0  0  0  0
    6.6680    0.2922    0.1106 C   0  0  0  0  0  0  0  0  0  0  0  0
    6.8088   -0.2152   -1.2947 C   0  0  0  0  0  0  0  0  0  0  0  0
    3.2111   -0.4979    0.7166 S   0  0  0  0  0  0  0  0  0  0  0  0
   -1.7644   -0.8311    0.7135 H   0  0  0  0  0  0  0  0  0  0  0  0
   -1.5560    0.9540    0.5652 H   0  0  0  0  0  0  0  0  0  0  0  0
   -3.4490    0.3727    1.8769 H   0  0  0  0  0  0  0  0  0  0  0  0
   -5.7232    0.7059    2.7016 H   0  0  0  0  0  0  0  0  0  0  0  0
   -7.2379    0.5482   -1.3292 H   0  0  0  0  0  0  0  0  0  0  0  0
   -4.9387    0.2107   -2.1691 H   0  0  0  0  0  0  0  0  0  0  0  0
    0.6438   -0.1733    1.0266 H   0  0  0  0  0  0  0  0  0  0  0  0
    6.1410   -1.8722    0.0195 H   0  0  0  0  0  0  0  0  0  0  0  0
    6.1757    1.2481    0.2499 H   0  0  0  0  0  0  0  0  0  0  0  0
    7.4850    0.1102    0.7992 H   0  0  0  0  0  0  0  0  0  0  0  0
    6.3981    0.3851   -2.0998 H   0  0  0  0  0  0  0  0  0  0  0  0
    7.7159   -0.7454   -1.5607 H   0  0  0  0  0  0  0  0  0  0  0  0
  1  2  2  0
  2  3  1  0
  3  4  1  0
  4  5  1  0
  5  6  2  0
  6  7  1  0
  7  8  2  0
  8  9  1  0
  8 10  1  0
 10 11  2  0
  2 12  1  0
 12 13  1  0
 13 14  2  0
 14 15  1  0
 15 16  2  0
 16 17  1  0
 17 18  1  0
 18 19  1  0
 16 20  1  0
 11  5  1  0
 20 13  1  0
 19 17  1  0
  3 21  1  0
  3 22  1  0
  6 23  1  0
  7 24  1  0
 10 25  1  0
 11 26  1  0
 12 27  1  0
 17 28  1  0
 18 29  1  0
 18 30  1  0
 19 31  1  0
 19 32  1  0
M  END
$$$$
