
     RDKit          3D

 39 40  0  0  0  0  0  0  0  0999 V2000
    5.1061   -0.5483   -2.0233 C   0  0  0  0  0  0  0  0  0  0  0  0
    5.4034   -0.8846   -0.5688 C   0  0  0  0  0  0  0  0  0  0  0  0
    4.9776    0.1586    0.4774 C   0  0  0  0  0  0  0  0  0  0  0  0
    5.5233    1.5616    0.2180 C   0  0  0  0  0  0  0  0  0  0  0  0
    3.4660    0.1393    0.7335 C   0  0  0  0  0  0  0  0  0  0  0  0
    3.0280   -0.4632    1.7101 O   0  0  0  0  0  0  0  0  0  0  0  0
    2.7205    0.7937   -0.2161 N   0  0  0  0  0  0  0  0  0  0  0  0
    1.3547    0.9252   -0.2508 C   0  0  0  0  0  0  0  0  0  0  0  0
    0.7454    1.5684   -1.2225 N   0  0  0  0  0  0  0  0  0  0  0  0
   -0.6254    1.5818   -1.0616 N   0  0  0  0  0  0  0  0  0  0  0  0
   -0.9972    0.9463    0.0304 C   0  0  0  0  0  0  0  0  0  0  0  0
   -2.4112    0.7810    0.4782 C   0  0  0  0  0  0  0  0  0  0  0  0
   -3.0798   -0.3907   -0.2422 C   0  0  0  0  0  0  0  0  0  0  0  0
   -4.5112   -0.5685    0.1999 C   0  0  0  0  0  0  0  0  0  0  0  0
   -4.8222   -1.4004    1.2838 C   0  0  0  0  0  0  0  0  0  0  0  0
   -6.1447   -1.5464    1.7051 C   0  0  0  0  0  0  0  0  0  0  0  0
   -7.1660   -0.8603    1.0505 C   0  0  0  0  0  0  0  0  0  0  0  0
   -6.8662   -0.0268   -0.0254 C   0  0  0  0  0  0  0  0  0  0  0  0
   -5.5446    0.1208   -0.4486 C   0  0  0  0  0  0  0  0  0  0  0  0
    0.3082    0.2901    0.9321 S   0  0  0  0  0  0  0  0  0  0  0  0
    5.4952   -1.3411   -2.6713 H   0  0  0  0  0  0  0  0  0  0  0  0
    5.5823    0.3870   -2.3298 H   0  0  0  0  0  0  0  0  0  0  0  0
    4.0320   -0.4759   -2.2112 H   0  0  0  0  0  0  0  0  0  0  0  0
    6.4854   -1.0430   -0.4757 H   0  0  0  0  0  0  0  0  0  0  0  0
    4.9293   -1.8457   -0.3333 H   0  0  0  0  0  0  0  0  0  0  0  0
    5.4245   -0.1622    1.4303 H   0  0  0  0  0  0  0  0  0  0  0  0
    6.6176    1.5464    0.1788 H   0  0  0  0  0  0  0  0  0  0  0  0
    5.2242    2.2431    1.0222 H   0  0  0  0  0  0  0  0  0  0  0  0
    5.1614    1.9917   -0.7202 H   0  0  0  0  0  0  0  0  0  0  0  0
    3.1742    1.2406   -0.9993 H   0  0  0  0  0  0  0  0  0  0  0  0
   -2.9560    1.7106    0.2685 H   0  0  0  0  0  0  0  0  0  0  0  0
   -2.4581    0.6389    1.5654 H   0  0  0  0  0  0  0  0  0  0  0  0
   -2.5257   -1.3212   -0.0605 H   0  0  0  0  0  0  0  0  0  0  0  0
   -3.0510   -0.2400   -1.3296 H   0  0  0  0  0  0  0  0  0  0  0  0
   -4.0368   -1.9417    1.8067 H   0  0  0  0  0  0  0  0  0  0  0  0
   -6.3784   -2.1959    2.5446 H   0  0  0  0  0  0  0  0  0  0  0  0
   -8.1956   -0.9751    1.3789 H   0  0  0  0  0  0  0  0  0  0  0  0
   -7.6624    0.5090   -0.5356 H   0  0  0  0  0  0  0  0  0  0  0  0
   -5.3265    0.7768   -1.2887 H   0  0  0  0  0  0  0  0  0  0  0  0
  1  2  1  0
  2  3  1  0
  3  4  1  0
  3  5  1  0
  5  6  2  0
  5  7  1  0
  7  8  1  0
  8  9  2  0
  9 10  1  0
 10 11  2  0
 11 12  1  0
 12 13  1  0
 13 14  1  0
 14 15  2  0
 15 16  1  0
 16 17  2  0
 17 18  1  0
 18 19  2  0
 11 20  1  0
 20  8  1  0
 19 14  1  0
  1 21  1  0
  1 22  1  0
  1 23  1  0
  2 24  1  0
  2 25  1  0
  3 26  1  0
  4 27  1  0
  4 28  1  0
  4 29  1  0
  7 30  1  0
 12 31  1  0
 12 32  1  0
 13 33  1  0
 13 34  1  0
 15 35  1  0
 16 36  1  0
 17 37  1  0
 18 38  1  0
 19 39  1  0
M  END
$$$$
