
     RDKit          3D

 59 64  0  0  0  0  0  0  0  0999 V2000
    3.8481    0.9582   -2.7533 O   0  0  0  0  0  0  0  0  0  0  0  0
    3.5690    0.5117   -1.6457 C   0  0  0  0  0  0  0  0  0  0  0  0
    4.6563    0.3043   -0.6648 C   0  0  0  0  0  0  0  0  0  0  0  0
    4.7400    1.1204    0.3971 C   0  0  0  0  0  0  0  0  0  0  0  0
    5.7534    0.9757    1.3881 C   0  0  0  0  0  0  0  0  0  0  0  0
    6.8462    0.1270    1.4649 C   0  0  0  0  0  0  0  0  0  0  0  0
    7.6118    0.2999    2.6529 C   0  0  0  0  0  0  0  0  0  0  0  0
    7.0868    1.2779    3.4621 C   0  0  0  0  0  0  0  0  0  0  0  0
    5.6894    1.9860    2.7862 S   0  0  0  0  0  0  0  0  0  0  0  0
    2.2889    0.1655   -1.2573 N   0  0  0  0  0  0  0  0  0  0  0  0
    1.9477   -0.5311   -0.0156 C   0  0  0  0  0  0  0  0  0  0  0  0
    0.8003   -1.5126   -0.2373 C   0  0  0  0  0  0  0  0  0  0  0  0
   -0.5001   -0.8336   -0.7715 C   0  0  0  0  0  0  0  0  0  0  0  0
   -0.1426    0.5184   -1.4492 C   0  0  0  0  0  0  0  0  0  0  0  0
    1.1950    0.4480   -2.1787 C   0  0  0  0  0  0  0  0  0  0  0  0
   -1.0347   -1.6470   -1.8499 O   0  0  0  0  0  0  0  0  0  0  0  0
   -1.6549   -2.8073   -1.4771 C   0  0  0  0  0  0  0  0  0  0  0  0
   -1.8129   -3.7653   -2.4790 C   0  0  0  0  0  0  0  0  0  0  0  0
   -2.4210   -4.9847   -2.1836 C   0  0  0  0  0  0  0  0  0  0  0  0
   -2.8793   -5.2334   -0.8921 C   0  0  0  0  0  0  0  0  0  0  0  0
   -3.4843   -6.3974   -0.6195 F   0  0  0  0  0  0  0  0  0  0  0  0
   -2.7386   -4.2857    0.1112 C   0  0  0  0  0  0  0  0  0  0  0  0
   -2.1277   -3.0663   -0.1912 C   0  0  0  0  0  0  0  0  0  0  0  0
   -2.0043   -2.0193    0.8386 C   0  0  0  0  0  0  0  0  0  0  0  0
   -2.2871   -2.2806    2.0033 O   0  0  0  0  0  0  0  0  0  0  0  0
   -1.5741   -0.6442    0.3359 C   0  0  0  0  0  0  0  0  0  0  0  0
   -2.8376    0.1043   -0.0744 C   0  0  0  0  0  0  0  0  0  0  0  0
   -2.6274    1.3723    0.6722 C   0  0  0  0  0  0  0  0  0  0  0  0
   -3.5299    2.5344    0.5075 C   0  0  0  0  0  0  0  0  0  0  0  0
   -4.5896    2.5192   -0.4058 C   0  0  0  0  0  0  0  0  0  0  0  0
   -5.4335    3.6263   -0.5191 C   0  0  0  0  0  0  0  0  0  0  0  0
   -5.2261    4.7493    0.2794 C   0  0  0  0  0  0  0  0  0  0  0  0
   -4.1728    4.7704    1.1910 C   0  0  0  0  0  0  0  0  0  0  0  0
   -3.3246    3.6682    1.3046 C   0  0  0  0  0  0  0  0  0  0  0  0
   -1.6160    1.3716    1.4802 N   0  0  0  0  0  0  0  0  0  0  0  0
   -1.0197    0.0964    1.4276 O   0  0  0  0  0  0  0  0  0  0  0  0
    5.3592   -0.4808   -0.9028 H   0  0  0  0  0  0  0  0  0  0  0  0
    3.9962    1.9048    0.5262 H   0  0  0  0  0  0  0  0  0  0  0  0
    7.0995   -0.5959    0.7004 H   0  0  0  0  0  0  0  0  0  0  0  0
    8.4993   -0.2673    2.9030 H   0  0  0  0  0  0  0  0  0  0  0  0
    7.4585    1.6141    4.4193 H   0  0  0  0  0  0  0  0  0  0  0  0
    1.6772    0.2262    0.7302 H   0  0  0  0  0  0  0  0  0  0  0  0
    2.8132   -1.0788    0.3654 H   0  0  0  0  0  0  0  0  0  0  0  0
    0.6128   -2.0424    0.7038 H   0  0  0  0  0  0  0  0  0  0  0  0
    1.1374   -2.2783   -0.9512 H   0  0  0  0  0  0  0  0  0  0  0  0
   -0.0759    1.3248   -0.7097 H   0  0  0  0  0  0  0  0  0  0  0  0
   -0.9154    0.8006   -2.1745 H   0  0  0  0  0  0  0  0  0  0  0  0
    1.3893    1.3967   -2.6930 H   0  0  0  0  0  0  0  0  0  0  0  0
    1.1895   -0.3414   -2.9416 H   0  0  0  0  0  0  0  0  0  0  0  0
   -1.4430   -3.5705   -3.4858 H   0  0  0  0  0  0  0  0  0  0  0  0
   -2.5455   -5.7426   -2.9512 H   0  0  0  0  0  0  0  0  0  0  0  0
   -3.1182   -4.4943    1.1079 H   0  0  0  0  0  0  0  0  0  0  0  0
   -3.7547   -0.3672    0.2852 H   0  0  0  0  0  0  0  0  0  0  0  0
   -2.9224    0.2647   -1.1493 H   0  0  0  0  0  0  0  0  0  0  0  0
   -4.7829    1.6605   -1.0377 H   0  0  0  0  0  0  0  0  0  0  0  0
   -6.2597    3.6155   -1.2277 H   0  0  0  0  0  0  0  0  0  0  0  0
   -5.8845    5.6112    0.1922 H   0  0  0  0  0  0  0  0  0  0  0  0
   -4.0139    5.6469    1.8168 H   0  0  0  0  0  0  0  0  0  0  0  0
   -2.5103    3.6965    2.0263 H   0  0  0  0  0  0  0  0  0  0  0  0
  1  2  2  0
  2  3  1  0
  3  4  2  3
  4  5  1  0
  5  6  2  0
  6  7  1  0
  7  8  2  0
  8  9  1  0
  2 10  1  0
 10 11  1  0
 11 12  1  0
 12 13  1  0
 13 14  1  0
 14 15  1  0
 13 16  1  0
 16 17  1  0
 17 18  2  0
 18 19  1  0
 19 20  2  0
 20 21  1  0
 20 22  1  0
 22 23  2  0
 23 24  1  0
 24 25  2  0
 24 26  1  0
 26 27  1  0
 27 28  1  0
 28 29  1  0
 29 30  2  0
 30 31  1  0
 31 32  2  0
 32 33  1  0
 33 34  2  0
 28 35  2  0
 35 36  1  0
  9  5  1  0
 15 10  1  0
 23 17  1  0
 36 26  1  0
 26 13  1  0
 34 29  1  0
  3 37  1  0
  4 38  1  0
  6 39  1  0
  7 40  1  0
  8 41  1  0
 11 42  1  0
 11 43  1  0
 12 44  1  0
 12 45  1  0
 14 46  1  0
 14 47  1  0
 15 48  1  0
 15 49  1  0
 18 50  1  0
 19 51  1  0
 22 52  1  0
 27 53  1  0
 27 54  1  0
 30 55  1  0
 31 56  1  0
 32 57  1  0
 33 58  1  0
 34 59  1  0
M  END
$$$$
