
     RDKit          3D

 58 60  0  0  0  0  0  0  0  0999 V2000
    7.7820    4.2009    1.8391 C   0  0  0  0  0  0  0  0  0  0  0  0
    6.7733    3.7412    0.8700 C   0  0  0  0  0  0  0  0  0  0  0  0
    5.6934    2.8968    0.9367 C   0  0  0  0  0  0  0  0  0  0  0  0
    5.1545    2.9053   -0.3679 C   0  0  0  0  0  0  0  0  0  0  0  0
    4.0620    2.2348   -0.8707 N   0  0  0  0  0  0  0  0  0  0  0  0
    3.2475    1.3903   -0.1521 C   0  0  0  0  0  0  0  0  0  0  0  0
    3.3715    1.1092    1.0354 O   0  0  0  0  0  0  0  0  0  0  0  0
    2.1346    0.8188   -1.0068 C   0  0  0  0  0  0  0  0  0  0  0  0
    1.2271   -0.1100   -0.2049 C   0  0  0  0  0  0  0  0  0  0  0  0
    0.1089   -0.6720   -1.0623 C   0  0  0  0  0  0  0  0  0  0  0  0
    0.0362   -0.3982   -2.2608 O   0  0  0  0  0  0  0  0  0  0  0  0
   -0.8254   -1.4891   -0.4399 N   0  0  0  0  0  0  0  0  0  0  0  0
   -0.8322   -1.8041    1.0004 C   0  0  0  0  0  0  0  0  0  0  0  0
   -1.8340   -0.9623    1.8036 C   0  0  0  0  0  0  0  0  0  0  0  0
   -2.1844   -1.2841    2.9357 O   0  0  0  0  0  0  0  0  0  0  0  0
   -2.2289    0.2121    1.1953 N   0  0  0  0  0  0  0  0  0  0  0  0
   -3.2347    1.0677    1.7840 C   0  0  0  0  0  0  0  0  0  0  0  0
   -4.6595    0.5531    1.5541 C   0  0  0  0  0  0  0  0  0  0  0  0
   -5.5332    1.7959    1.3748 C   0  0  0  0  0  0  0  0  0  0  0  0
   -4.6095    2.9931    1.5625 C   0  0  0  0  0  0  0  0  0  0  0  0
   -3.2392    2.4649    1.1754 C   0  0  0  0  0  0  0  0  0  0  0  0
   -1.8832   -2.0986   -1.2504 C   0  0  0  0  0  0  0  0  0  0  0  0
   -1.5711   -3.5333   -1.6095 C   0  0  0  0  0  0  0  0  0  0  0  0
   -2.2395   -4.5929   -0.9749 C   0  0  0  0  0  0  0  0  0  0  0  0
   -1.9377   -5.9156   -1.3043 C   0  0  0  0  0  0  0  0  0  0  0  0
   -0.9700   -6.1803   -2.2657 C   0  0  0  0  0  0  0  0  0  0  0  0
   -0.6820   -7.4501   -2.5797 F   0  0  0  0  0  0  0  0  0  0  0  0
   -0.2972   -5.1473   -2.9063 C   0  0  0  0  0  0  0  0  0  0  0  0
   -0.5967   -3.8244   -2.5790 C   0  0  0  0  0  0  0  0  0  0  0  0
    5.8635    3.7048   -1.1726 N   0  0  0  0  0  0  0  0  0  0  0  0
    6.8780    4.2296   -0.3932 O   0  0  0  0  0  0  0  0  0  0  0  0
    7.6436    5.2643    2.0593 H   0  0  0  0  0  0  0  0  0  0  0  0
    7.7046    3.6454    2.7790 H   0  0  0  0  0  0  0  0  0  0  0  0
    8.7918    4.0577    1.4423 H   0  0  0  0  0  0  0  0  0  0  0  0
    5.3496    2.3557    1.8050 H   0  0  0  0  0  0  0  0  0  0  0  0
    3.8872    2.4130   -1.8508 H   0  0  0  0  0  0  0  0  0  0  0  0
    1.5515    1.6518   -1.4185 H   0  0  0  0  0  0  0  0  0  0  0  0
    2.5871    0.2741   -1.8445 H   0  0  0  0  0  0  0  0  0  0  0  0
    0.7900    0.4415    0.6349 H   0  0  0  0  0  0  0  0  0  0  0  0
    1.8195   -0.9447    0.1867 H   0  0  0  0  0  0  0  0  0  0  0  0
   -1.0902   -2.8599    1.1273 H   0  0  0  0  0  0  0  0  0  0  0  0
    0.1537   -1.6473    1.4426 H   0  0  0  0  0  0  0  0  0  0  0  0
   -2.0439    0.2968    0.2027 H   0  0  0  0  0  0  0  0  0  0  0  0
   -3.0478    1.1371    2.8636 H   0  0  0  0  0  0  0  0  0  0  0  0
   -4.9973   -0.0540    2.4011 H   0  0  0  0  0  0  0  0  0  0  0  0
   -4.7256   -0.0786    0.6599 H   0  0  0  0  0  0  0  0  0  0  0  0
   -6.3659    1.8160    2.0846 H   0  0  0  0  0  0  0  0  0  0  0  0
   -5.9607    1.8033    0.3657 H   0  0  0  0  0  0  0  0  0  0  0  0
   -4.9139    3.8512    0.9564 H   0  0  0  0  0  0  0  0  0  0  0  0
   -4.6098    3.3036    2.6143 H   0  0  0  0  0  0  0  0  0  0  0  0
   -2.4276    3.0889    1.5614 H   0  0  0  0  0  0  0  0  0  0  0  0
   -3.1419    2.4234    0.0833 H   0  0  0  0  0  0  0  0  0  0  0  0
   -2.0392   -1.5302   -2.1750 H   0  0  0  0  0  0  0  0  0  0  0  0
   -2.8272   -2.0342   -0.6958 H   0  0  0  0  0  0  0  0  0  0  0  0
   -2.9976   -4.3969   -0.2196 H   0  0  0  0  0  0  0  0  0  0  0  0
   -2.4497   -6.7399   -0.8179 H   0  0  0  0  0  0  0  0  0  0  0  0
    0.4543   -5.3768   -3.6549 H   0  0  0  0  0  0  0  0  0  0  0  0
   -0.0685   -3.0173   -3.0851 H   0  0  0  0  0  0  0  0  0  0  0  0
  1  2  1  0
  2  3  2  0
  3  4  1  0
  4  5  1  0
  5  6  1  0
  6  7  2  0
  6  8  1  0
  8  9  1  0
  9 10  1  0
 10 11  2  0
 10 12  1  0
 12 13  1  0
 13 14  1  0
 14 15  2  0
 14 16  1  0
 16 17  1  0
 17 18  1  0
 18 19  1  0
 19 20  1  0
 20 21  1  0
 12 22  1  0
 22 23  1  0
 23 24  2  0
 24 25  1  0
 25 26  2  0
 26 27  1  0
 26 28  1  0
 28 29  2  0
  4 30  2  0
 30 31  1  0
 31  2  1  0
 21 17  1  0
 29 23  1  0
  1 32  1  0
  1 33  1  0
  1 34  1  0
  3 35  1  0
  5 36  1  0
  8 37  1  0
  8 38  1  0
  9 39  1  0
  9 40  1  0
 13 41  1  0
 13 42  1  0
 16 43  1  0
 17 44  1  0
 18 45  1  0
 18 46  1  0
 19 47  1  0
 19 48  1  0
 20 49  1  0
 20 50  1  0
 21 51  1  0
 21 52  1  0
 22 53  1  0
 22 54  1  0
 24 55  1  0
 25 56  1  0
 28 57  1  0
 29 58  1  0
M  END
$$$$
