
     RDKit          3D

 57 59  0  0  0  0  0  0  0  0999 V2000
    9.0864   -3.1042   -2.3741 C   0  0  0  0  0  0  0  0  0  0  0  0
    8.4108   -1.8888   -2.0779 O   0  0  0  0  0  0  0  0  0  0  0  0
    7.4443   -1.9382   -1.1116 C   0  0  0  0  0  0  0  0  0  0  0  0
    6.8002   -0.7237   -0.8674 C   0  0  0  0  0  0  0  0  0  0  0  0
    5.7923   -0.6313    0.0952 C   0  0  0  0  0  0  0  0  0  0  0  0
    5.4173   -1.7576    0.8376 C   0  0  0  0  0  0  0  0  0  0  0  0
    4.3145   -1.6638    1.8589 C   0  0  0  0  0  0  0  0  0  0  0  0
    3.0282   -1.8576    1.2433 N   0  0  0  0  0  0  0  0  0  0  0  0
    2.2312   -0.8081    0.8544 C   0  0  0  0  0  0  0  0  0  0  0  0
    2.4192    0.3758    1.0961 O   0  0  0  0  0  0  0  0  0  0  0  0
    0.9933   -1.2469    0.0393 C   0  0  0  0  0  0  0  0  0  0  0  0
    0.7502   -2.4364   -0.1066 O   0  0  0  0  0  0  0  0  0  0  0  0
    0.2576   -0.1965   -0.4520 N   0  0  0  0  0  0  0  0  0  0  0  0
   -1.0463   -0.3677   -1.0746 C   0  0  0  0  0  0  0  0  0  0  0  0
   -2.2241    0.0213   -0.1493 C   0  0  0  0  0  0  0  0  0  0  0  0
   -2.3506   -0.9176    0.9377 O   0  0  0  0  0  0  0  0  0  0  0  0
   -1.8947   -0.2593    2.1248 C   0  0  0  0  0  0  0  0  0  0  0  0
   -2.2289    1.1982    1.9027 C   0  0  0  0  0  0  0  0  0  0  0  0
   -2.0112    1.3417    0.4648 N   0  0  0  0  0  0  0  0  0  0  0  0
   -2.5609    2.7038   -0.3351 S   0  0  0  0  0  6  0  0  0  0  0  0
   -2.1498    3.8588    0.4336 O   0  0  0  0  0  0  0  0  0  0  0  0
   -2.2001    2.5675   -1.7301 O   0  0  0  0  0  0  0  0  0  0  0  0
   -4.3361    2.6024   -0.2336 C   0  0  0  0  0  0  0  0  0  0  0  0
   -5.0013    3.1897    0.8446 C   0  0  0  0  0  0  0  0  0  0  0  0
   -6.3950    3.1341    0.9034 C   0  0  0  0  0  0  0  0  0  0  0  0
   -7.1299    2.5180   -0.1148 C   0  0  0  0  0  0  0  0  0  0  0  0
   -8.4841    2.5346    0.0723 O   0  0  0  0  0  0  0  0  0  0  0  0
   -9.2837    1.9423   -0.9439 C   0  0  0  0  0  0  0  0  0  0  0  0
   -6.4583    1.9624   -1.2061 C   0  0  0  0  0  0  0  0  0  0  0  0
   -5.0615    2.0121   -1.2726 C   0  0  0  0  0  0  0  0  0  0  0  0
    6.0580   -2.9773    0.5828 C   0  0  0  0  0  0  0  0  0  0  0  0
    7.0678   -3.0664   -0.3830 C   0  0  0  0  0  0  0  0  0  0  0  0
    8.3912   -3.8597   -2.7549 H   0  0  0  0  0  0  0  0  0  0  0  0
    9.6342   -3.4744   -1.5012 H   0  0  0  0  0  0  0  0  0  0  0  0
    9.8170   -2.8972   -3.1619 H   0  0  0  0  0  0  0  0  0  0  0  0
    7.0830    0.1597   -1.4350 H   0  0  0  0  0  0  0  0  0  0  0  0
    5.2982    0.3250    0.2595 H   0  0  0  0  0  0  0  0  0  0  0  0
    4.4346   -2.4405    2.6221 H   0  0  0  0  0  0  0  0  0  0  0  0
    4.3520   -0.6959    2.3717 H   0  0  0  0  0  0  0  0  0  0  0  0
    2.7802   -2.7701    0.8720 H   0  0  0  0  0  0  0  0  0  0  0  0
    0.5458    0.7394   -0.1748 H   0  0  0  0  0  0  0  0  0  0  0  0
   -1.1576   -1.4115   -1.3869 H   0  0  0  0  0  0  0  0  0  0  0  0
   -1.0412    0.2603   -1.9698 H   0  0  0  0  0  0  0  0  0  0  0  0
   -3.1608   -0.0331   -0.7092 H   0  0  0  0  0  0  0  0  0  0  0  0
   -0.8163   -0.4186    2.2243 H   0  0  0  0  0  0  0  0  0  0  0  0
   -2.3935   -0.6802    3.0019 H   0  0  0  0  0  0  0  0  0  0  0  0
   -1.5870    1.8574    2.4914 H   0  0  0  0  0  0  0  0  0  0  0  0
   -3.2767    1.3740    2.1595 H   0  0  0  0  0  0  0  0  0  0  0  0
   -4.4506    3.6946    1.6352 H   0  0  0  0  0  0  0  0  0  0  0  0
   -6.9175    3.5844    1.7450 H   0  0  0  0  0  0  0  0  0  0  0  0
   -9.1585    2.4636   -1.8987 H   0  0  0  0  0  0  0  0  0  0  0  0
  -10.3316    2.0419   -0.6451 H   0  0  0  0  0  0  0  0  0  0  0  0
   -9.0660    0.8738   -1.0443 H   0  0  0  0  0  0  0  0  0  0  0  0
   -6.9920    1.4921   -2.0260 H   0  0  0  0  0  0  0  0  0  0  0  0
   -4.5544    1.5968   -2.1410 H   0  0  0  0  0  0  0  0  0  0  0  0
    5.7762   -3.8712    1.1352 H   0  0  0  0  0  0  0  0  0  0  0  0
    7.5368   -4.0315   -0.5417 H   0  0  0  0  0  0  0  0  0  0  0  0
  1  2  1  0
  2  3  1  0
  3  4  2  0
  4  5  1  0
  5  6  2  0
  6  7  1  0
  7  8  1  0
  8  9  1  0
  9 10  2  0
  9 11  1  0
 11 12  2  0
 11 13  1  0
 13 14  1  0
 14 15  1  0
 15 16  1  0
 16 17  1  0
 17 18  1  0
 18 19  1  0
 19 20  1  0
 20 21  2  0
 20 22  2  0
 20 23  1  0
 23 24  2  0
 24 25  1  0
 25 26  2  0
 26 27  1  0
 27 28  1  0
 26 29  1  0
 29 30  2  0
  6 31  1  0
 31 32  2  0
 32  3  1  0
 19 15  1  0
 30 23  1  0
  1 33  1  0
  1 34  1  0
  1 35  1  0
  4 36  1  0
  5 37  1  0
  7 38  1  0
  7 39  1  0
  8 40  1  0
 13 41  1  0
 14 42  1  0
 14 43  1  0
 15 44  1  0
 17 45  1  0
 17 46  1  0
 18 47  1  0
 18 48  1  0
 24 49  1  0
 25 50  1  0
 28 51  1  0
 28 52  1  0
 28 53  1  0
 29 54  1  0
 30 55  1  0
 31 56  1  0
 32 57  1  0
M  END
$$$$
