
     RDKit          3D

 53 55  0  0  0  0  0  0  0  0999 V2000
   -6.3491   -0.0197    3.1828 C   0  0  0  0  0  0  0  0  0  0  0  0
   -5.7417   -0.8696    2.2181 O   0  0  0  0  0  0  0  0  0  0  0  0
   -6.4142   -1.0694    1.0406 C   0  0  0  0  0  0  0  0  0  0  0  0
   -7.6784   -0.5473    0.7466 C   0  0  0  0  0  0  0  0  0  0  0  0
   -8.2764   -0.7935   -0.4920 C   0  0  0  0  0  0  0  0  0  0  0  0
   -7.6163   -1.5589   -1.4478 C   0  0  0  0  0  0  0  0  0  0  0  0
   -6.3581   -2.0860   -1.1643 C   0  0  0  0  0  0  0  0  0  0  0  0
   -5.7501   -1.8587    0.0823 C   0  0  0  0  0  0  0  0  0  0  0  0
   -4.3808   -2.4301    0.3466 C   0  0  0  0  0  0  0  0  0  0  0  0
   -3.3536   -1.4498    0.1078 N   0  0  0  0  0  0  0  0  0  0  0  0
   -2.0323   -1.8090    0.0073 C   0  0  0  0  0  0  0  0  0  0  0  0
   -1.5961   -2.9477   -0.0893 O   0  0  0  0  0  0  0  0  0  0  0  0
   -1.0593   -0.6081    0.0444 C   0  0  0  0  0  0  0  0  0  0  0  0
   -1.4710    0.5092    0.3207 O   0  0  0  0  0  0  0  0  0  0  0  0
    0.2435   -0.9465   -0.2363 N   0  0  0  0  0  0  0  0  0  0  0  0
    1.3435   -0.0205   -0.0162 C   0  0  0  0  0  0  0  0  0  0  0  0
    2.6271   -0.4639   -0.7512 C   0  0  0  0  0  0  0  0  0  0  0  0
    2.9094   -1.8260   -0.3332 O   0  0  0  0  0  0  0  0  0  0  0  0
    4.2583   -1.8655    0.1433 C   0  0  0  0  0  0  0  0  0  0  0  0
    4.5690   -0.4481    0.5667 C   0  0  0  0  0  0  0  0  0  0  0  0
    3.8479    0.3130   -0.4541 N   0  0  0  0  0  0  0  0  0  0  0  0
    3.6973    1.9717   -0.2801 S   0  0  0  0  0  6  0  0  0  0  0  0
    2.9977    2.4778   -1.4396 O   0  0  0  0  0  0  0  0  0  0  0  0
    3.2235    2.2291    1.0623 O   0  0  0  0  0  0  0  0  0  0  0  0
    5.3824    2.5207   -0.3935 C   0  0  0  0  0  0  0  0  0  0  0  0
    6.0353    2.4526   -1.6291 C   0  0  0  0  0  0  0  0  0  0  0  0
    7.3587    2.8841   -1.7317 C   0  0  0  0  0  0  0  0  0  0  0  0
    8.0130    3.3837   -0.6044 C   0  0  0  0  0  0  0  0  0  0  0  0
    9.8059    3.9665   -0.7455 Br  0  0  0  0  0  0  0  0  0  0  0  0
    7.3569    3.4606    0.6258 C   0  0  0  0  0  0  0  0  0  0  0  0
    6.0329    3.0303    0.7343 C   0  0  0  0  0  0  0  0  0  0  0  0
   -7.2917   -0.4442    3.5436 H   0  0  0  0  0  0  0  0  0  0  0  0
   -5.6695    0.0541    4.0373 H   0  0  0  0  0  0  0  0  0  0  0  0
   -6.4942    0.9903    2.7854 H   0  0  0  0  0  0  0  0  0  0  0  0
   -8.2271    0.0593    1.4592 H   0  0  0  0  0  0  0  0  0  0  0  0
   -9.2580   -0.3811   -0.7114 H   0  0  0  0  0  0  0  0  0  0  0  0
   -8.0785   -1.7430   -2.4142 H   0  0  0  0  0  0  0  0  0  0  0  0
   -5.8467   -2.6758   -1.9225 H   0  0  0  0  0  0  0  0  0  0  0  0
   -4.1955   -3.3060   -0.2872 H   0  0  0  0  0  0  0  0  0  0  0  0
   -4.2919   -2.7801    1.3817 H   0  0  0  0  0  0  0  0  0  0  0  0
   -3.5340   -0.4839    0.3692 H   0  0  0  0  0  0  0  0  0  0  0  0
    0.4488   -1.9450   -0.2557 H   0  0  0  0  0  0  0  0  0  0  0  0
    1.0219    0.9780   -0.3274 H   0  0  0  0  0  0  0  0  0  0  0  0
    1.5095   -0.0014    1.0672 H   0  0  0  0  0  0  0  0  0  0  0  0
    2.4616   -0.4883   -1.8338 H   0  0  0  0  0  0  0  0  0  0  0  0
    4.3482   -2.5849    0.9614 H   0  0  0  0  0  0  0  0  0  0  0  0
    4.8997   -2.1866   -0.6850 H   0  0  0  0  0  0  0  0  0  0  0  0
    4.1558   -0.2486    1.5609 H   0  0  0  0  0  0  0  0  0  0  0  0
    5.6439   -0.2560    0.5630 H   0  0  0  0  0  0  0  0  0  0  0  0
    5.5186    2.0704   -2.5073 H   0  0  0  0  0  0  0  0  0  0  0  0
    7.8676    2.8326   -2.6912 H   0  0  0  0  0  0  0  0  0  0  0  0
    7.8655    3.8586    1.5007 H   0  0  0  0  0  0  0  0  0  0  0  0
    5.5210    3.1007    1.6917 H   0  0  0  0  0  0  0  0  0  0  0  0
  1  2  1  0
  2  3  1  0
  3  4  2  0
  4  5  1  0
  5  6  2  0
  6  7  1  0
  7  8  2  0
  8  9  1  0
  9 10  1  0
 10 11  1  0
 11 12  2  0
 11 13  1  0
 13 14  2  0
 13 15  1  0
 15 16  1  0
 16 17  1  0
 17 18  1  0
 18 19  1  0
 19 20  1  0
 20 21  1  0
 21 22  1  0
 22 23  2  0
 22 24  2  0
 22 25  1  0
 25 26  2  0
 26 27  1  0
 27 28  2  0
 28 29  1  0
 28 30  1  0
 30 31  2  0
  8  3  1  0
 21 17  1  0
 31 25  1  0
  1 32  1  0
  1 33  1  0
  1 34  1  0
  4 35  1  0
  5 36  1  0
  6 37  1  0
  7 38  1  0
  9 39  1  0
  9 40  1  0
 10 41  1  0
 15 42  1  0
 16 43  1  0
 16 44  1  0
 17 45  1  0
 19 46  1  0
 19 47  1  0
 20 48  1  0
 20 49  1  0
 26 50  1  0
 27 51  1  0
 30 52  1  0
 31 53  1  0
M  END
$$$$
