
     RDKit          3D

 39 40  0  0  0  0  0  0  0  0999 V2000
    0.2214    0.9550   -1.4897 O   0  0  0  0  0  0  0  0  0  0  0  0
   -0.6395    0.8961   -0.6133 C   0  0  0  0  0  0  0  0  0  0  0  0
   -2.0577    0.7347   -1.0457 C   0  0  0  0  0  0  0  0  0  0  0  0
   -3.0802    0.4700   -0.2180 C   0  0  0  0  0  0  0  0  0  0  0  0
   -4.4802    0.2987   -0.6451 C   0  0  0  0  0  0  0  0  0  0  0  0
   -4.8403   -0.1411   -1.9313 C   0  0  0  0  0  0  0  0  0  0  0  0
   -6.1851   -0.3231   -2.2779 C   0  0  0  0  0  0  0  0  0  0  0  0
   -7.1732   -0.0808   -1.3336 C   0  0  0  0  0  0  0  0  0  0  0  0
   -8.4937   -0.2481   -1.6252 O   0  0  0  0  0  0  0  0  0  0  0  0
   -6.8398    0.3410   -0.0529 C   0  0  0  0  0  0  0  0  0  0  0  0
   -5.4970    0.5284    0.2904 C   0  0  0  0  0  0  0  0  0  0  0  0
   -0.3097    0.9377    0.8574 C   0  0  0  0  0  0  0  0  0  0  0  0
    1.0943    1.3873    1.1715 C   0  0  0  0  0  0  0  0  0  0  0  0
    1.3041    2.4442    1.7664 O   0  0  0  0  0  0  0  0  0  0  0  0
    2.2138    0.4760    0.7982 C   0  0  0  0  0  0  0  0  0  0  0  0
    3.4572    0.7185    1.2387 C   0  0  0  0  0  0  0  0  0  0  0  0
    4.6109   -0.1214    0.9003 C   0  0  0  0  0  0  0  0  0  0  0  0
    4.5563   -1.5197    0.9667 C   0  0  0  0  0  0  0  0  0  0  0  0
    5.6870   -2.2880    0.6715 C   0  0  0  0  0  0  0  0  0  0  0  0
    6.8742   -1.6601    0.3177 C   0  0  0  0  0  0  0  0  0  0  0  0
    7.9536   -2.4486    0.0451 O   0  0  0  0  0  0  0  0  0  0  0  0
    6.9524   -0.2724    0.2548 C   0  0  0  0  0  0  0  0  0  0  0  0
    5.8204    0.4952    0.5527 C   0  0  0  0  0  0  0  0  0  0  0  0
   -2.1938    0.8475   -2.1170 H   0  0  0  0  0  0  0  0  0  0  0  0
   -2.9237    0.3708    0.8497 H   0  0  0  0  0  0  0  0  0  0  0  0
   -4.0846   -0.3594   -2.6821 H   0  0  0  0  0  0  0  0  0  0  0  0
   -6.4350   -0.6610   -3.2801 H   0  0  0  0  0  0  0  0  0  0  0  0
   -8.5787   -0.5019   -2.5592 H   0  0  0  0  0  0  0  0  0  0  0  0
   -7.6209    0.5213    0.6800 H   0  0  0  0  0  0  0  0  0  0  0  0
   -5.2592    0.8628    1.3008 H   0  0  0  0  0  0  0  0  0  0  0  0
   -0.9911    1.6368    1.3558 H   0  0  0  0  0  0  0  0  0  0  0  0
   -0.4590   -0.0556    1.2905 H   0  0  0  0  0  0  0  0  0  0  0  0
    1.9779   -0.3621    0.1537 H   0  0  0  0  0  0  0  0  0  0  0  0
    3.6656    1.5842    1.8642 H   0  0  0  0  0  0  0  0  0  0  0  0
    3.6418   -2.0281    1.2608 H   0  0  0  0  0  0  0  0  0  0  0  0
    5.6432   -3.3737    0.7246 H   0  0  0  0  0  0  0  0  0  0  0  0
    8.7049   -1.8757   -0.1852 H   0  0  0  0  0  0  0  0  0  0  0  0
    7.8754    0.2316   -0.0171 H   0  0  0  0  0  0  0  0  0  0  0  0
    5.8880    1.5828    0.5041 H   0  0  0  0  0  0  0  0  0  0  0  0
  1  2  2  0
  2  3  1  0
  3  4  2  3
  4  5  1  0
  5  6  2  0
  6  7  1  0
  7  8  2  0
  8  9  1  0
  8 10  1  0
 10 11  2  0
  2 12  1  0
 12 13  1  0
 13 14  2  0
 13 15  1  0
 15 16  2  3
 16 17  1  0
 17 18  2  0
 18 19  1  0
 19 20  2  0
 20 21  1  0
 20 22  1  0
 22 23  2  0
 11  5  1  0
 23 17  1  0
  3 24  1  0
  4 25  1  0
  6 26  1  0
  7 27  1  0
  9 28  1  0
 10 29  1  0
 11 30  1  0
 12 31  1  0
 12 32  1  0
 15 33  1  0
 16 34  1  0
 18 35  1  0
 19 36  1  0
 21 37  1  0
 22 38  1  0
 23 39  1  0
M  END
$$$$
