
     RDKit          3D

 58 60  0  0  0  0  0  0  0  0999 V2000
    9.1050   -2.3575   -3.4204 C   0  0  0  0  0  0  0  0  0  0  0  0
    7.8208   -1.8984   -2.7936 C   0  0  0  0  0  0  0  0  0  0  0  0
    7.6136   -0.5489   -2.4856 C   0  0  0  0  0  0  0  0  0  0  0  0
    6.4077   -0.1260   -1.9149 C   0  0  0  0  0  0  0  0  0  0  0  0
    5.3839   -1.0445   -1.6559 C   0  0  0  0  0  0  0  0  0  0  0  0
    4.0935   -0.6005   -1.0119 C   0  0  0  0  0  0  0  0  0  0  0  0
    4.1300   -0.7955    0.5054 C   0  0  0  0  0  0  0  0  0  0  0  0
    2.9199   -0.3223    1.1544 N   0  0  0  0  0  0  0  0  0  0  0  0
    1.7739   -1.0873    1.1978 C   0  0  0  0  0  0  0  0  0  0  0  0
    1.6855   -2.2041    0.6975 O   0  0  0  0  0  0  0  0  0  0  0  0
    0.6276   -0.4020    1.9091 C   0  0  0  0  0  0  0  0  0  0  0  0
   -0.5503   -1.3422    2.1444 C   0  0  0  0  0  0  0  0  0  0  0  0
   -1.2421   -1.6171    0.8744 N   0  0  0  0  0  0  0  0  0  0  0  0
   -2.7779   -2.2996    0.9479 S   0  0  0  0  0  6  0  0  0  0  0  0
   -3.0623   -2.8491   -0.3572 O   0  0  0  0  0  0  0  0  0  0  0  0
   -2.8614   -3.0938    2.1541 O   0  0  0  0  0  0  0  0  0  0  0  0
   -3.8125   -0.8709    1.1388 C   0  0  0  0  0  0  0  0  0  0  0  0
   -4.6569   -0.7583    2.2420 C   0  0  0  0  0  0  0  0  0  0  0  0
   -5.4860    0.3628    2.3661 C   0  0  0  0  0  0  0  0  0  0  0  0
   -5.4801    1.3799    1.3947 C   0  0  0  0  0  0  0  0  0  0  0  0
   -4.6157    1.2488    0.3069 C   0  0  0  0  0  0  0  0  0  0  0  0
   -3.7837    0.1274    0.1668 C   0  0  0  0  0  0  0  0  0  0  0  0
   -4.5717    2.3116   -0.7081 C   0  0  0  0  0  0  0  0  0  0  0  0
   -3.7289    2.2503   -1.5988 O   0  0  0  0  0  0  0  0  0  0  0  0
   -5.4884    3.3409   -0.5732 N   0  0  0  0  0  0  0  0  0  0  0  0
   -5.4763    4.3842   -1.5822 C   0  0  0  0  0  0  0  0  0  0  0  0
   -6.3175    3.5284    0.5259 C   0  0  0  0  0  0  0  0  0  0  0  0
   -7.0133    4.5404    0.6412 O   0  0  0  0  0  0  0  0  0  0  0  0
   -6.3149    2.5248    1.4921 N   0  0  0  0  0  0  0  0  0  0  0  0
   -7.2060    2.6726    2.6368 C   0  0  0  0  0  0  0  0  0  0  0  0
    5.5870   -2.3928   -1.9775 C   0  0  0  0  0  0  0  0  0  0  0  0
    6.7927   -2.8145   -2.5474 C   0  0  0  0  0  0  0  0  0  0  0  0
    9.9075   -1.6282   -3.2609 H   0  0  0  0  0  0  0  0  0  0  0  0
    8.9671   -2.4976   -4.4977 H   0  0  0  0  0  0  0  0  0  0  0  0
    9.4314   -3.3028   -2.9733 H   0  0  0  0  0  0  0  0  0  0  0  0
    8.3917    0.1829   -2.6871 H   0  0  0  0  0  0  0  0  0  0  0  0
    6.2743    0.9275   -1.6783 H   0  0  0  0  0  0  0  0  0  0  0  0
    3.2547   -1.1541   -1.4539 H   0  0  0  0  0  0  0  0  0  0  0  0
    3.9042    0.4552   -1.2488 H   0  0  0  0  0  0  0  0  0  0  0  0
    4.9648   -0.2398    0.9472 H   0  0  0  0  0  0  0  0  0  0  0  0
    4.2673   -1.8544    0.7554 H   0  0  0  0  0  0  0  0  0  0  0  0
    2.8864    0.6446    1.4570 H   0  0  0  0  0  0  0  0  0  0  0  0
    0.3201    0.4668    1.3153 H   0  0  0  0  0  0  0  0  0  0  0  0
    0.9965   -0.0464    2.8780 H   0  0  0  0  0  0  0  0  0  0  0  0
   -0.2091   -2.2855    2.5853 H   0  0  0  0  0  0  0  0  0  0  0  0
   -1.2442   -0.8601    2.8418 H   0  0  0  0  0  0  0  0  0  0  0  0
   -0.6711   -2.0856    0.1621 H   0  0  0  0  0  0  0  0  0  0  0  0
   -4.6857   -1.5371    3.0018 H   0  0  0  0  0  0  0  0  0  0  0  0
   -6.1332    0.4095    3.2379 H   0  0  0  0  0  0  0  0  0  0  0  0
   -3.1247    0.0325   -0.6957 H   0  0  0  0  0  0  0  0  0  0  0  0
   -6.4845    4.7800   -1.7417 H   0  0  0  0  0  0  0  0  0  0  0  0
   -5.0936    4.0129   -2.5377 H   0  0  0  0  0  0  0  0  0  0  0  0
   -4.8319    5.1951   -1.2307 H   0  0  0  0  0  0  0  0  0  0  0  0
   -7.8842    1.8139    2.6837 H   0  0  0  0  0  0  0  0  0  0  0  0
   -7.8213    3.5751    2.5711 H   0  0  0  0  0  0  0  0  0  0  0  0
   -6.6087    2.7388    3.5530 H   0  0  0  0  0  0  0  0  0  0  0  0
    4.8051   -3.1244   -1.7850 H   0  0  0  0  0  0  0  0  0  0  0  0
    6.9258   -3.8656   -2.7964 H   0  0  0  0  0  0  0  0  0  0  0  0
  1  2  1  0
  2  3  2  0
  3  4  1  0
  4  5  2  0
  5  6  1  0
  6  7  1  0
  7  8  1  0
  8  9  1  0
  9 10  2  0
  9 11  1  0
 11 12  1  0
 12 13  1  0
 13 14  1  0
 14 15  2  0
 14 16  2  0
 14 17  1  0
 17 18  2  0
 18 19  1  0
 19 20  2  0
 20 21  1  0
 21 22  2  0
 21 23  1  0
 23 24  2  0
 23 25  1  0
 25 26  1  0
 25 27  1  0
 27 28  2  0
 27 29  1  0
 29 30  1  0
  5 31  1  0
 31 32  2  0
 32  2  1  0
 22 17  1  0
 29 20  1  0
  1 33  1  0
  1 34  1  0
  1 35  1  0
  3 36  1  0
  4 37  1  0
  6 38  1  0
  6 39  1  0
  7 40  1  0
  7 41  1  0
  8 42  1  0
 11 43  1  0
 11 44  1  0
 12 45  1  0
 12 46  1  0
 13 47  1  0
 18 48  1  0
 19 49  1  0
 22 50  1  0
 26 51  1  0
 26 52  1  0
 26 53  1  0
 30 54  1  0
 30 55  1  0
 30 56  1  0
 31 57  1  0
 32 58  1  0
M  END
$$$$
