
     RDKit          3D

 38 40  0  0  0  0  0  0  0  0999 V2000
   -3.6730   -1.5924   -1.9675 C   0  0  0  0  0  0  0  0  0  0  0  0
   -3.3662   -0.2345   -1.4028 C   0  0  0  0  0  0  0  0  0  0  0  0
   -3.7262    0.8950   -2.1597 C   0  0  0  0  0  0  0  0  0  0  0  0
   -3.4856    2.1800   -1.6801 C   0  0  0  0  0  0  0  0  0  0  0  0
   -3.8319    3.2359   -2.4273 F   0  0  0  0  0  0  0  0  0  0  0  0
   -2.8961    2.3823   -0.4413 C   0  0  0  0  0  0  0  0  0  0  0  0
   -2.5412    1.2799    0.3341 C   0  0  0  0  0  0  0  0  0  0  0  0
   -2.7676   -0.0249   -0.1422 C   0  0  0  0  0  0  0  0  0  0  0  0
   -2.2819   -1.3826    0.9246 S   0  0  0  0  0  6  0  0  0  0  0  0
   -3.2563   -2.4430    0.7808 O   0  0  0  0  0  0  0  0  0  0  0  0
   -1.9729   -0.8402    2.2305 O   0  0  0  0  0  0  0  0  0  0  0  0
   -0.8569   -1.9393    0.2103 N   0  0  0  0  0  0  0  0  0  0  0  0
    0.1869   -1.0218   -0.0941 C   0  0  0  0  0  0  0  0  0  0  0  0
    0.5552   -0.8488   -1.4294 C   0  0  0  0  0  0  0  0  0  0  0  0
    1.5463    0.0740   -1.7675 C   0  0  0  0  0  0  0  0  0  0  0  0
    2.1700    0.8172   -0.7648 C   0  0  0  0  0  0  0  0  0  0  0  0
    3.1299    1.7321   -1.1036 O   0  0  0  0  0  0  0  0  0  0  0  0
    1.8193    0.6401    0.5812 C   0  0  0  0  0  0  0  0  0  0  0  0
    2.5887    1.5738    1.8935 S   0  0  0  0  0  0  0  0  0  0  0  0
    4.0362    0.6448    2.1925 C   0  0  0  0  0  0  0  0  0  0  0  0
    4.2955   -0.5890    1.6482 N   0  0  0  0  0  0  0  0  0  0  0  0
    5.4585   -0.9053    2.1649 C   0  0  0  0  0  0  0  0  0  0  0  0
    5.8729    0.0910    2.9885 N   0  0  0  0  0  0  0  0  0  0  0  0
    4.9808    1.0901    3.0309 N   0  0  0  0  0  0  0  0  0  0  0  0
    0.8179   -0.2843    0.9076 C   0  0  0  0  0  0  0  0  0  0  0  0
   -3.9237   -1.5308   -3.0326 H   0  0  0  0  0  0  0  0  0  0  0  0
   -2.8079   -2.2568   -1.8934 H   0  0  0  0  0  0  0  0  0  0  0  0
   -4.5317   -2.0336   -1.4529 H   0  0  0  0  0  0  0  0  0  0  0  0
   -4.2019    0.7904   -3.1319 H   0  0  0  0  0  0  0  0  0  0  0  0
   -2.7199    3.3924   -0.0846 H   0  0  0  0  0  0  0  0  0  0  0  0
   -2.0831    1.4475    1.3079 H   0  0  0  0  0  0  0  0  0  0  0  0
   -1.0155   -2.7218   -0.4206 H   0  0  0  0  0  0  0  0  0  0  0  0
    0.0690   -1.4157   -2.2182 H   0  0  0  0  0  0  0  0  0  0  0  0
    1.8137    0.2054   -2.8116 H   0  0  0  0  0  0  0  0  0  0  0  0
    3.3063    1.6794   -2.0560 H   0  0  0  0  0  0  0  0  0  0  0  0
    6.0249   -1.8078    1.9869 H   0  0  0  0  0  0  0  0  0  0  0  0
    6.7217    0.1588    3.5384 H   0  0  0  0  0  0  0  0  0  0  0  0
    0.5457   -0.4374    1.9495 H   0  0  0  0  0  0  0  0  0  0  0  0
  1  2  1  0
  2  3  2  0
  3  4  1  0
  4  5  1  0
  4  6  2  0
  6  7  1  0
  7  8  2  0
  8  9  1  0
  9 10  2  0
  9 11  2  0
  9 12  1  0
 12 13  1  0
 13 14  2  0
 14 15  1  0
 15 16  2  0
 16 17  1  0
 16 18  1  0
 18 19  1  0
 19 20  1  0
 20 21  1  0
 21 22  2  0
 22 23  1  0
 23 24  1  0
 18 25  2  0
  8  2  1  0
 25 13  1  0
 24 20  2  0
  1 26  1  0
  1 27  1  0
  1 28  1  0
  3 29  1  0
  6 30  1  0
  7 31  1  0
 12 32  1  0
 14 33  1  0
 15 34  1  0
 17 35  1  0
 22 36  1  0
 23 37  1  0
 25 38  1  0
M  END
$$$$
