
     RDKit          3D

 57 59  0  0  0  0  0  0  0  0999 V2000
    5.4929    0.9875    2.7536 C   0  0  0  0  0  0  0  0  0  0  0  0
    4.7957    1.0531    1.3981 C   0  0  0  0  0  0  0  0  0  0  0  0
    5.4571   -0.2656    0.2861 S   0  0  0  0  0  0  0  0  0  0  0  0
    6.6624    0.7022   -0.6820 C   0  0  0  0  0  0  0  0  0  0  0  0
    7.8449    1.1886    0.1125 C   0  0  0  0  0  0  0  0  0  0  0  0
    8.7856    0.2818    0.6261 C   0  0  0  0  0  0  0  0  0  0  0  0
    9.8796    0.7359    1.3641 C   0  0  0  0  0  0  0  0  0  0  0  0
   10.0498    2.0998    1.5929 C   0  0  0  0  0  0  0  0  0  0  0  0
    9.1275    3.0109    1.0824 C   0  0  0  0  0  0  0  0  0  0  0  0
    8.0319    2.5599    0.3439 C   0  0  0  0  0  0  0  0  0  0  0  0
    3.2720    0.9262    1.5766 C   0  0  0  0  0  0  0  0  0  0  0  0
    2.7046    1.3032    2.6021 O   0  0  0  0  0  0  0  0  0  0  0  0
    2.6131    0.4528    0.4482 N   0  0  0  0  0  0  0  0  0  0  0  0
    1.2622    0.2785    0.4695 N   0  0  0  0  0  0  0  0  0  0  0  0
    0.7651   -0.3515   -0.5456 C   0  0  0  0  0  0  0  0  0  0  0  0
   -0.6811   -0.6299   -0.6512 C   0  0  0  0  0  0  0  0  0  0  0  0
   -1.1556   -1.3446   -1.7535 C   0  0  0  0  0  0  0  0  0  0  0  0
   -2.5216   -1.6324   -1.8654 C   0  0  0  0  0  0  0  0  0  0  0  0
   -3.4126   -1.2068   -0.8775 C   0  0  0  0  0  0  0  0  0  0  0  0
   -4.7619   -1.4261   -0.8635 O   0  0  0  0  0  0  0  0  0  0  0  0
   -5.2948   -2.2453   -1.9006 C   0  0  0  0  0  0  0  0  0  0  0  0
   -6.7957   -2.4650   -1.7070 C   0  0  0  0  0  0  0  0  0  0  0  0
   -7.5102   -2.9004   -2.6071 O   0  0  0  0  0  0  0  0  0  0  0  0
   -7.2539   -2.1797   -0.4418 N   0  0  0  0  0  0  0  0  0  0  0  0
   -8.6594   -2.1906   -0.1143 C   0  0  0  0  0  0  0  0  0  0  0  0
   -9.1954   -0.8191   -0.2885 C   0  0  0  0  0  0  0  0  0  0  0  0
   -9.7900   -0.1626   -1.3461 C   0  0  0  0  0  0  0  0  0  0  0  0
  -10.0743    1.1480   -0.8933 C   0  0  0  0  0  0  0  0  0  0  0  0
   -9.6325    1.2087    0.4074 C   0  0  0  0  0  0  0  0  0  0  0  0
   -9.0951    0.0199    0.7838 O   0  0  0  0  0  0  0  0  0  0  0  0
   -2.9290   -0.4849    0.2176 C   0  0  0  0  0  0  0  0  0  0  0  0
   -1.5674   -0.1975    0.3365 C   0  0  0  0  0  0  0  0  0  0  0  0
    5.2629    0.0526    3.2784 H   0  0  0  0  0  0  0  0  0  0  0  0
    6.5794    1.0739    2.6697 H   0  0  0  0  0  0  0  0  0  0  0  0
    5.1584    1.8068    3.3993 H   0  0  0  0  0  0  0  0  0  0  0  0
    4.9659    2.0316    0.9372 H   0  0  0  0  0  0  0  0  0  0  0  0
    7.0282    0.0653   -1.4960 H   0  0  0  0  0  0  0  0  0  0  0  0
    6.1376    1.5353   -1.1628 H   0  0  0  0  0  0  0  0  0  0  0  0
    8.6667   -0.7866    0.4600 H   0  0  0  0  0  0  0  0  0  0  0  0
   10.5980    0.0240    1.7636 H   0  0  0  0  0  0  0  0  0  0  0  0
   10.9014    2.4520    2.1693 H   0  0  0  0  0  0  0  0  0  0  0  0
    9.2616    4.0742    1.2608 H   0  0  0  0  0  0  0  0  0  0  0  0
    7.3260    3.2899   -0.0466 H   0  0  0  0  0  0  0  0  0  0  0  0
    3.1708   -0.0119   -0.2635 H   0  0  0  0  0  0  0  0  0  0  0  0
    1.4017   -0.7137   -1.3730 H   0  0  0  0  0  0  0  0  0  0  0  0
   -0.4764   -1.6863   -2.5307 H   0  0  0  0  0  0  0  0  0  0  0  0
   -2.8533   -2.1901   -2.7351 H   0  0  0  0  0  0  0  0  0  0  0  0
   -4.8233   -3.2345   -1.8892 H   0  0  0  0  0  0  0  0  0  0  0  0
   -5.1615   -1.7532   -2.8704 H   0  0  0  0  0  0  0  0  0  0  0  0
   -6.6378   -1.6292    0.1480 H   0  0  0  0  0  0  0  0  0  0  0  0
   -9.1952   -2.9035   -0.7486 H   0  0  0  0  0  0  0  0  0  0  0  0
   -8.7525   -2.5135    0.9273 H   0  0  0  0  0  0  0  0  0  0  0  0
   -9.9843   -0.5843   -2.3231 H   0  0  0  0  0  0  0  0  0  0  0  0
  -10.5399    1.9510   -1.4467 H   0  0  0  0  0  0  0  0  0  0  0  0
   -9.6260    1.9838    1.1610 H   0  0  0  0  0  0  0  0  0  0  0  0
   -3.6148   -0.1472    0.9920 H   0  0  0  0  0  0  0  0  0  0  0  0
   -1.2075    0.3588    1.2001 H   0  0  0  0  0  0  0  0  0  0  0  0
  1  2  1  0
  2  3  1  0
  3  4  1  0
  4  5  1  0
  5  6  2  0
  6  7  1  0
  7  8  2  0
  8  9  1  0
  9 10  2  0
  2 11  1  0
 11 12  2  0
 11 13  1  0
 13 14  1  0
 14 15  2  3
 15 16  1  0
 16 17  2  0
 17 18  1  0
 18 19  2  0
 19 20  1  0
 20 21  1  0
 21 22  1  0
 22 23  2  0
 22 24  1  0
 24 25  1  0
 25 26  1  0
 26 27  2  0
 27 28  1  0
 28 29  2  0
 29 30  1  0
 19 31  1  0
 31 32  2  0
 10  5  1  0
 32 16  1  0
 30 26  1  0
  1 33  1  0
  1 34  1  0
  1 35  1  0
  2 36  1  0
  4 37  1  0
  4 38  1  0
  6 39  1  0
  7 40  1  0
  8 41  1  0
  9 42  1  0
 10 43  1  0
 13 44  1  0
 15 45  1  0
 17 46  1  0
 18 47  1  0
 21 48  1  0
 21 49  1  0
 24 50  1  0
 25 51  1  0
 25 52  1  0
 27 53  1  0
 28 54  1  0
 29 55  1  0
 31 56  1  0
 32 57  1  0
M  END
$$$$
