
     RDKit          3D

 54 58  0  0  0  0  0  0  0  0999 V2000
    1.9884   -0.2497    3.2679 O   0  0  0  0  0  0  0  0  0  0  0  0
    2.3044    0.2097    2.1745 C   0  0  0  0  0  0  0  0  0  0  0  0
    1.2887    0.4904    1.0858 C   0  0  0  0  0  0  0  0  0  0  0  0
    1.3421   -0.8483   -0.1416 S   0  0  0  0  0  0  0  0  0  0  0  0
   -0.1423   -0.4768   -1.0077 C   0  0  0  0  0  0  0  0  0  0  0  0
   -0.3408    0.7811   -1.2595 N   0  0  0  0  0  0  0  0  0  0  0  0
   -1.5187    1.0634   -1.9562 C   0  0  0  0  0  0  0  0  0  0  0  0
   -2.3673    0.0840   -2.3691 C   0  0  0  0  0  0  0  0  0  0  0  0
   -3.7111    0.7012   -3.1887 S   0  0  0  0  0  0  0  0  0  0  0  0
   -3.1591    2.3304   -2.9945 C   0  0  0  0  0  0  0  0  0  0  0  0
   -3.7966    3.5020   -3.4475 C   0  0  0  0  0  0  0  0  0  0  0  0
   -3.1955    4.7371   -3.1973 C   0  0  0  0  0  0  0  0  0  0  0  0
   -1.9864    4.8125   -2.5161 C   0  0  0  0  0  0  0  0  0  0  0  0
   -1.3545    3.6485   -2.0685 C   0  0  0  0  0  0  0  0  0  0  0  0
   -1.9411    2.3802   -2.3025 C   0  0  0  0  0  0  0  0  0  0  0  0
   -2.1292   -1.3070   -2.1248 C   0  0  0  0  0  0  0  0  0  0  0  0
   -2.8527   -2.2074   -2.5483 O   0  0  0  0  0  0  0  0  0  0  0  0
   -0.9656   -1.5419   -1.3727 N   0  0  0  0  0  0  0  0  0  0  0  0
   -0.7218   -2.9403   -0.9813 C   0  0  0  0  0  0  0  0  0  0  0  0
   -1.0930   -3.2521    0.4804 C   0  0  0  0  0  0  0  0  0  0  0  0
   -2.5066   -2.8768    0.8549 C   0  0  0  0  0  0  0  0  0  0  0  0
   -2.7515   -1.7688    1.6823 C   0  0  0  0  0  0  0  0  0  0  0  0
   -4.0604   -1.4046    2.0099 C   0  0  0  0  0  0  0  0  0  0  0  0
   -5.1352   -2.1425    1.5153 C   0  0  0  0  0  0  0  0  0  0  0  0
   -4.9015   -3.2463    0.6944 C   0  0  0  0  0  0  0  0  0  0  0  0
   -3.5942   -3.6138    0.3666 C   0  0  0  0  0  0  0  0  0  0  0  0
    3.6030    0.5093    1.8359 N   0  0  0  0  0  0  0  0  0  0  0  0
    4.6878    0.2773    2.7593 C   0  0  0  0  0  0  0  0  0  0  0  0
    5.9687    0.5482    2.0682 C   0  0  0  0  0  0  0  0  0  0  0  0
    6.9208   -0.2625    1.4899 C   0  0  0  0  0  0  0  0  0  0  0  0
    7.9250    0.5988    0.9841 C   0  0  0  0  0  0  0  0  0  0  0  0
    7.5214    1.8774    1.2828 C   0  0  0  0  0  0  0  0  0  0  0  0
    6.3281    1.8607    1.9306 O   0  0  0  0  0  0  0  0  0  0  0  0
    1.5120    1.4553    0.6177 H   0  0  0  0  0  0  0  0  0  0  0  0
    0.2976    0.5522    1.5468 H   0  0  0  0  0  0  0  0  0  0  0  0
   -4.7407    3.4484   -3.9830 H   0  0  0  0  0  0  0  0  0  0  0  0
   -3.6799    5.6480   -3.5426 H   0  0  0  0  0  0  0  0  0  0  0  0
   -1.5270    5.7796   -2.3292 H   0  0  0  0  0  0  0  0  0  0  0  0
   -0.4053    3.7126   -1.5385 H   0  0  0  0  0  0  0  0  0  0  0  0
   -1.2832   -3.6155   -1.6384 H   0  0  0  0  0  0  0  0  0  0  0  0
    0.3328   -3.1838   -1.1516 H   0  0  0  0  0  0  0  0  0  0  0  0
   -0.3984   -2.7548    1.1668 H   0  0  0  0  0  0  0  0  0  0  0  0
   -0.9564   -4.3268    0.6610 H   0  0  0  0  0  0  0  0  0  0  0  0
   -1.9249   -1.1802    2.0802 H   0  0  0  0  0  0  0  0  0  0  0  0
   -4.2419   -0.5441    2.6514 H   0  0  0  0  0  0  0  0  0  0  0  0
   -6.1545   -1.8577    1.7675 H   0  0  0  0  0  0  0  0  0  0  0  0
   -5.7383   -3.8178    0.3011 H   0  0  0  0  0  0  0  0  0  0  0  0
   -3.4334   -4.4705   -0.2870 H   0  0  0  0  0  0  0  0  0  0  0  0
    3.8205    0.8754    0.9148 H   0  0  0  0  0  0  0  0  0  0  0  0
    4.5554    0.9309    3.6291 H   0  0  0  0  0  0  0  0  0  0  0  0
    4.6398   -0.7616    3.1047 H   0  0  0  0  0  0  0  0  0  0  0  0
    6.8942   -1.3423    1.4487 H   0  0  0  0  0  0  0  0  0  0  0  0
    8.8341    0.3229    0.4686 H   0  0  0  0  0  0  0  0  0  0  0  0
    7.9441    2.8565    1.1057 H   0  0  0  0  0  0  0  0  0  0  0  0
  1  2  2  0
  2  3  1  0
  3  4  1  0
  4  5  1  0
  5  6  2  0
  6  7  1  0
  7  8  2  0
  8  9  1  0
  9 10  1  0
 10 11  2  0
 11 12  1  0
 12 13  2  0
 13 14  1  0
 14 15  2  0
  8 16  1  0
 16 17  2  0
 16 18  1  0
 18 19  1  0
 19 20  1  0
 20 21  1  0
 21 22  2  0
 22 23  1  0
 23 24  2  0
 24 25  1  0
 25 26  2  0
  2 27  1  0
 27 28  1  0
 28 29  1  0
 29 30  2  0
 30 31  1  0
 31 32  2  0
 32 33  1  0
 18  5  1  0
 26 21  1  0
 33 29  1  0
 15  7  1  0
 15 10  1  0
  3 34  1  0
  3 35  1  0
 11 36  1  0
 12 37  1  0
 13 38  1  0
 14 39  1  0
 19 40  1  0
 19 41  1  0
 20 42  1  0
 20 43  1  0
 22 44  1  0
 23 45  1  0
 24 46  1  0
 25 47  1  0
 26 48  1  0
 27 49  1  0
 28 50  1  0
 28 51  1  0
 30 52  1  0
 31 53  1  0
 32 54  1  0
M  END
$$$$
