
     RDKit          3D

 57 59  0  0  0  0  0  0  0  0999 V2000
   -4.1463    2.3241   -1.3948 C   0  0  0  0  0  0  0  0  0  0  0  0
   -3.2672    1.2192   -1.7301 N   0  0  0  0  0  0  0  0  0  0  0  0
   -2.0787    1.3068   -2.4312 C   0  0  0  0  0  0  0  0  0  0  0  0
   -1.5305    2.7753   -3.0490 S   0  0  0  0  0  0  0  0  0  0  0  0
   -1.4154    0.0690   -2.5857 N   0  0  0  0  0  0  0  0  0  0  0  0
   -2.0709   -1.2373   -2.3163 C   0  0  0  0  0  0  0  0  0  0  0  0
   -1.6818   -1.9245   -0.9947 C   0  0  0  0  0  0  0  0  0  0  0  0
   -2.3065   -1.3108    0.2336 C   0  0  0  0  0  0  0  0  0  0  0  0
   -1.5952   -0.3888    1.0081 C   0  0  0  0  0  0  0  0  0  0  0  0
   -2.1918    0.2071    2.1183 C   0  0  0  0  0  0  0  0  0  0  0  0
   -3.5051   -0.1095    2.4630 C   0  0  0  0  0  0  0  0  0  0  0  0
   -4.2368   -1.0229    1.6967 C   0  0  0  0  0  0  0  0  0  0  0  0
   -5.6379   -1.3857    2.0906 C   0  0  0  0  0  0  0  0  0  0  0  0
   -3.6256   -1.6299    0.5920 C   0  0  0  0  0  0  0  0  0  0  0  0
   -0.0896   -0.0313   -3.2449 C   0  0  0  0  0  0  0  0  0  0  0  0
    1.0112   -0.2144   -2.2390 C   0  0  0  0  0  0  0  0  0  0  0  0
    1.4114    0.7468   -1.3862 C   0  0  0  0  0  0  0  0  0  0  0  0
    2.5091    0.5209   -0.4476 C   0  0  0  0  0  0  0  0  0  0  0  0
    2.9106    1.5081    0.4558 C   0  0  0  0  0  0  0  0  0  0  0  0
    3.9695    1.2645    1.3395 C   0  0  0  0  0  0  0  0  0  0  0  0
    4.4346    2.1734    2.2580 O   0  0  0  0  0  0  0  0  0  0  0  0
    3.7720    3.4257    2.3438 C   0  0  0  0  0  0  0  0  0  0  0  0
    4.6327    0.0176    1.3149 C   0  0  0  0  0  0  0  0  0  0  0  0
    5.6583   -0.1340    2.2156 O   0  0  0  0  0  0  0  0  0  0  0  0
    6.3534   -1.3719    2.2277 C   0  0  0  0  0  0  0  0  0  0  0  0
    4.2266   -0.9674    0.4080 C   0  0  0  0  0  0  0  0  0  0  0  0
    3.1692   -0.7098   -0.4639 C   0  0  0  0  0  0  0  0  0  0  0  0
    2.7553   -1.6928   -1.3698 N   0  0  0  0  0  0  0  0  0  0  0  0
    1.7206   -1.5298   -2.2518 C   0  0  0  0  0  0  0  0  0  0  0  0
    1.3886   -2.4392   -3.0059 O   0  0  0  0  0  0  0  0  0  0  0  0
   -4.4196    2.8793   -2.2958 H   0  0  0  0  0  0  0  0  0  0  0  0
   -3.6414    2.9836   -0.6837 H   0  0  0  0  0  0  0  0  0  0  0  0
   -5.0482    1.9133   -0.9334 H   0  0  0  0  0  0  0  0  0  0  0  0
   -3.2922    0.4804   -1.0443 H   0  0  0  0  0  0  0  0  0  0  0  0
   -1.8092   -1.9071   -3.1442 H   0  0  0  0  0  0  0  0  0  0  0  0
   -3.1587   -1.1263   -2.3804 H   0  0  0  0  0  0  0  0  0  0  0  0
   -2.0043   -2.9739   -1.0445 H   0  0  0  0  0  0  0  0  0  0  0  0
   -0.5970   -1.9653   -0.8671 H   0  0  0  0  0  0  0  0  0  0  0  0
   -0.5726   -0.1254    0.7501 H   0  0  0  0  0  0  0  0  0  0  0  0
   -1.6299    0.9178    2.7188 H   0  0  0  0  0  0  0  0  0  0  0  0
   -3.9546    0.3589    3.3358 H   0  0  0  0  0  0  0  0  0  0  0  0
   -5.6198   -2.1350    2.8872 H   0  0  0  0  0  0  0  0  0  0  0  0
   -6.1935   -1.7925    1.2391 H   0  0  0  0  0  0  0  0  0  0  0  0
   -6.1823   -0.5018    2.4428 H   0  0  0  0  0  0  0  0  0  0  0  0
   -4.1834   -2.3538    0.0013 H   0  0  0  0  0  0  0  0  0  0  0  0
   -0.1331   -0.8444   -3.9773 H   0  0  0  0  0  0  0  0  0  0  0  0
    0.1336    0.8544   -3.8455 H   0  0  0  0  0  0  0  0  0  0  0  0
    0.9271    1.7174   -1.3737 H   0  0  0  0  0  0  0  0  0  0  0  0
    2.3881    2.4589    0.4537 H   0  0  0  0  0  0  0  0  0  0  0  0
    4.2644    4.0104    3.1259 H   0  0  0  0  0  0  0  0  0  0  0  0
    2.7241    3.2998    2.6318 H   0  0  0  0  0  0  0  0  0  0  0  0
    3.8601    3.9839    1.4068 H   0  0  0  0  0  0  0  0  0  0  0  0
    6.8524   -1.5549    1.2701 H   0  0  0  0  0  0  0  0  0  0  0  0
    7.1271   -1.3134    2.9992 H   0  0  0  0  0  0  0  0  0  0  0  0
    5.6842   -2.1982    2.4901 H   0  0  0  0  0  0  0  0  0  0  0  0
    4.7178   -1.9327    0.3658 H   0  0  0  0  0  0  0  0  0  0  0  0
    3.2172   -2.5918   -1.3973 H   0  0  0  0  0  0  0  0  0  0  0  0
  1  2  1  0
  2  3  1  0
  3  4  2  0
  3  5  1  0
  5  6  1  0
  6  7  1  0
  7  8  1  0
  8  9  2  0
  9 10  1  0
 10 11  2  0
 11 12  1  0
 12 13  1  0
 12 14  2  0
  5 15  1  0
 15 16  1  0
 16 17  2  0
 17 18  1  0
 18 19  2  0
 19 20  1  0
 20 21  1  0
 21 22  1  0
 20 23  2  0
 23 24  1  0
 24 25  1  0
 23 26  1  0
 26 27  2  0
 27 28  1  0
 28 29  1  0
 29 30  2  0
 14  8  1  0
 29 16  1  0
 27 18  1  0
  1 31  1  0
  1 32  1  0
  1 33  1  0
  2 34  1  0
  6 35  1  0
  6 36  1  0
  7 37  1  0
  7 38  1  0
  9 39  1  0
 10 40  1  0
 11 41  1  0
 13 42  1  0
 13 43  1  0
 13 44  1  0
 14 45  1  0
 15 46  1  0
 15 47  1  0
 17 48  1  0
 19 49  1  0
 22 50  1  0
 22 51  1  0
 22 52  1  0
 25 53  1  0
 25 54  1  0
 25 55  1  0
 26 56  1  0
 28 57  1  0
M  END
$$$$
