
     RDKit          3D

 51 55  0  0  0  0  0  0  0  0999 V2000
    4.0424   -4.1641   -0.9438 C   0  0  0  0  0  0  0  0  0  0  0  0
    4.6610   -3.1781   -1.9203 C   0  0  0  0  0  0  0  0  0  0  0  0
    3.6706   -2.6320   -2.7899 O   0  0  0  0  0  0  0  0  0  0  0  0
    2.9942   -1.5101   -2.4032 C   0  0  0  0  0  0  0  0  0  0  0  0
    2.1334   -0.9914   -3.3773 C   0  0  0  0  0  0  0  0  0  0  0  0
    1.3598    0.1427   -3.1217 C   0  0  0  0  0  0  0  0  0  0  0  0
    1.4284    0.7476   -1.8680 C   0  0  0  0  0  0  0  0  0  0  0  0
    0.4487    2.1934   -1.5133 S   0  0  0  0  0  6  0  0  0  0  0  0
    0.2003    2.8880   -2.7596 O   0  0  0  0  0  0  0  0  0  0  0  0
    1.1265    2.8954   -0.4395 O   0  0  0  0  0  0  0  0  0  0  0  0
   -1.0342    1.5942   -0.9161 N   0  0  0  0  0  0  0  0  0  0  0  0
   -1.9900    1.0847   -1.8467 C   0  0  0  0  0  0  0  0  0  0  0  0
   -1.6566    0.6067   -2.9240 O   0  0  0  0  0  0  0  0  0  0  0  0
   -3.3735    1.1742   -1.4075 C   0  0  0  0  0  0  0  0  0  0  0  0
   -4.0242    1.9173   -0.4358 C   0  0  0  0  0  0  0  0  0  0  0  0
   -5.3954    1.5655   -0.4916 C   0  0  0  0  0  0  0  0  0  0  0  0
   -5.5088    0.6351   -1.4951 C   0  0  0  0  0  0  0  0  0  0  0  0
   -4.2981    0.3939   -2.0564 O   0  0  0  0  0  0  0  0  0  0  0  0
   -0.9497    0.8351    0.3250 C   0  0  0  0  0  0  0  0  0  0  0  0
   -0.7878   -0.5611    0.2578 C   0  0  0  0  0  0  0  0  0  0  0  0
   -0.6453   -1.2782    1.4292 C   0  0  0  0  0  0  0  0  0  0  0  0
   -0.4138   -3.0053    1.6062 S   0  0  0  0  0  0  0  0  0  0  0  0
   -0.3646   -2.7733    3.3570 C   0  0  0  0  0  0  0  0  0  0  0  0
   -0.2103   -3.7089    4.1296 O   0  0  0  0  0  0  0  0  0  0  0  0
   -0.5110   -1.4587    3.7908 O   0  0  0  0  0  0  0  0  0  0  0  0
   -0.6622   -0.6419    2.6628 C   0  0  0  0  0  0  0  0  0  0  0  0
   -0.8160    0.7454    2.7780 C   0  0  0  0  0  0  0  0  0  0  0  0
   -0.8329    1.3880    4.0324 C   0  0  0  0  0  0  0  0  0  0  0  0
   -0.9823    2.7692    4.1305 C   0  0  0  0  0  0  0  0  0  0  0  0
   -1.1157    3.5298    2.9780 C   0  0  0  0  0  0  0  0  0  0  0  0
   -1.1027    2.9089    1.7271 C   0  0  0  0  0  0  0  0  0  0  0  0
   -0.9533    1.5090    1.5877 C   0  0  0  0  0  0  0  0  0  0  0  0
    2.3122    0.2605   -0.8983 C   0  0  0  0  0  0  0  0  0  0  0  0
    3.0848   -0.8747   -1.1645 C   0  0  0  0  0  0  0  0  0  0  0  0
    3.5035   -4.9504   -1.4834 H   0  0  0  0  0  0  0  0  0  0  0  0
    4.8149   -4.6286   -0.3236 H   0  0  0  0  0  0  0  0  0  0  0  0
    3.3152   -3.6774   -0.2869 H   0  0  0  0  0  0  0  0  0  0  0  0
    5.2512   -2.4048   -1.4171 H   0  0  0  0  0  0  0  0  0  0  0  0
    5.3650   -3.7233   -2.5598 H   0  0  0  0  0  0  0  0  0  0  0  0
    2.0673   -1.4765   -4.3492 H   0  0  0  0  0  0  0  0  0  0  0  0
    0.7063    0.5325   -3.8998 H   0  0  0  0  0  0  0  0  0  0  0  0
   -3.5740    2.6421    0.2270 H   0  0  0  0  0  0  0  0  0  0  0  0
   -6.2027    1.9499    0.1174 H   0  0  0  0  0  0  0  0  0  0  0  0
   -6.3380    0.0815   -1.9154 H   0  0  0  0  0  0  0  0  0  0  0  0
   -0.7567   -1.0856   -0.6950 H   0  0  0  0  0  0  0  0  0  0  0  0
   -0.7244    0.8125    4.9504 H   0  0  0  0  0  0  0  0  0  0  0  0
   -0.9875    3.2495    5.1057 H   0  0  0  0  0  0  0  0  0  0  0  0
   -1.2213    4.6101    3.0463 H   0  0  0  0  0  0  0  0  0  0  0  0
   -1.1991    3.5462    0.8498 H   0  0  0  0  0  0  0  0  0  0  0  0
    2.4037    0.7516    0.0686 H   0  0  0  0  0  0  0  0  0  0  0  0
    3.7425   -1.2356   -0.3811 H   0  0  0  0  0  0  0  0  0  0  0  0
  1  2  1  0
  2  3  1  0
  3  4  1  0
  4  5  2  0
  5  6  1  0
  6  7  2  0
  7  8  1  0
  8  9  2  0
  8 10  2  0
  8 11  1  0
 11 12  1  0
 12 13  2  0
 12 14  1  0
 14 15  2  0
 15 16  1  0
 16 17  2  0
 17 18  1  0
 11 19  1  0
 19 20  2  0
 20 21  1  0
 21 22  1  0
 22 23  1  0
 23 24  2  0
 23 25  1  0
 25 26  1  0
 26 27  1  0
 27 28  2  0
 28 29  1  0
 29 30  2  0
 30 31  1  0
 31 32  2  0
  7 33  1  0
 33 34  2  0
 34  4  1  0
 18 14  1  0
 32 19  1  0
 26 21  2  0
 32 27  1  0
  1 35  1  0
  1 36  1  0
  1 37  1  0
  2 38  1  0
  2 39  1  0
  5 40  1  0
  6 41  1  0
 15 42  1  0
 16 43  1  0
 17 44  1  0
 20 45  1  0
 28 46  1  0
 29 47  1  0
 30 48  1  0
 31 49  1  0
 33 50  1  0
 34 51  1  0
M  END
$$$$
