
     RDKit          3D

 49 51  0  0  0  0  0  0  0  0999 V2000
    2.0632   -2.8351   -2.2570 O   0  0  0  0  0  0  0  0  0  0  0  0
    2.0895   -2.7664   -1.0362 C   0  0  0  0  0  0  0  0  0  0  0  0
    3.1455   -3.0940   -0.2203 N   0  0  0  0  0  0  0  0  0  0  0  0
    4.4501   -3.4106   -0.7394 C   0  0  0  0  0  0  0  0  0  0  0  0
    5.3393   -2.1949   -0.7352 C   0  0  0  0  0  0  0  0  0  0  0  0
    5.3125   -1.2949   -1.8106 C   0  0  0  0  0  0  0  0  0  0  0  0
    6.1178   -0.1552   -1.8009 C   0  0  0  0  0  0  0  0  0  0  0  0
    6.9521    0.1000   -0.7143 C   0  0  0  0  0  0  0  0  0  0  0  0
    6.9793   -0.7816    0.3650 C   0  0  0  0  0  0  0  0  0  0  0  0
    6.1743   -1.9221    0.3576 C   0  0  0  0  0  0  0  0  0  0  0  0
    0.8533   -2.2543   -0.2619 C   0  0  0  0  0  0  0  0  0  0  0  0
    0.9078   -2.0900    0.9486 O   0  0  0  0  0  0  0  0  0  0  0  0
   -0.2360   -1.9979   -1.0608 N   0  0  0  0  0  0  0  0  0  0  0  0
   -1.4185   -1.3259   -0.5455 C   0  0  0  0  0  0  0  0  0  0  0  0
   -1.1828    0.1720   -0.2313 C   0  0  0  0  0  0  0  0  0  0  0  0
   -0.6616    0.7862   -1.4406 O   0  0  0  0  0  0  0  0  0  0  0  0
   -1.4230    1.9702   -1.6872 C   0  0  0  0  0  0  0  0  0  0  0  0
   -2.7733    1.6905   -1.0713 C   0  0  0  0  0  0  0  0  0  0  0  0
   -2.3873    0.9542    0.1338 N   0  0  0  0  0  0  0  0  0  0  0  0
   -3.5770    0.2006    1.0403 S   0  0  0  0  0  6  0  0  0  0  0  0
   -4.3751   -0.5982    0.1350 O   0  0  0  0  0  0  0  0  0  0  0  0
   -2.9553   -0.3810    2.2081 O   0  0  0  0  0  0  0  0  0  0  0  0
   -4.5615    1.5717    1.5927 C   0  0  0  0  0  0  0  0  0  0  0  0
   -4.0288    2.4467    2.5457 C   0  0  0  0  0  0  0  0  0  0  0  0
   -4.7930    3.5267    2.9902 C   0  0  0  0  0  0  0  0  0  0  0  0
   -6.0801    3.7180    2.4848 C   0  0  0  0  0  0  0  0  0  0  0  0
   -7.1130    5.1824    3.0871 Br  0  0  0  0  0  0  0  0  0  0  0  0
   -6.6142    2.8381    1.5412 C   0  0  0  0  0  0  0  0  0  0  0  0
   -5.8542    1.7560    1.0929 C   0  0  0  0  0  0  0  0  0  0  0  0
    3.0435   -2.8520    0.7611 H   0  0  0  0  0  0  0  0  0  0  0  0
    4.8751   -4.1962   -0.1049 H   0  0  0  0  0  0  0  0  0  0  0  0
    4.3694   -3.8196   -1.7530 H   0  0  0  0  0  0  0  0  0  0  0  0
    4.6572   -1.4788   -2.6607 H   0  0  0  0  0  0  0  0  0  0  0  0
    6.0905    0.5346   -2.6403 H   0  0  0  0  0  0  0  0  0  0  0  0
    7.5780    0.9883   -0.7068 H   0  0  0  0  0  0  0  0  0  0  0  0
    7.6262   -0.5789    1.2147 H   0  0  0  0  0  0  0  0  0  0  0  0
    6.2030   -2.5963    1.2105 H   0  0  0  0  0  0  0  0  0  0  0  0
   -0.0592   -1.9985   -2.0625 H   0  0  0  0  0  0  0  0  0  0  0  0
   -1.7417   -1.8679    0.3483 H   0  0  0  0  0  0  0  0  0  0  0  0
   -2.1850   -1.4375   -1.3199 H   0  0  0  0  0  0  0  0  0  0  0  0
   -0.4237    0.2973    0.5479 H   0  0  0  0  0  0  0  0  0  0  0  0
   -0.9196    2.8089   -1.1934 H   0  0  0  0  0  0  0  0  0  0  0  0
   -1.4759    2.1683   -2.7609 H   0  0  0  0  0  0  0  0  0  0  0  0
   -3.3120    2.6146   -0.8519 H   0  0  0  0  0  0  0  0  0  0  0  0
   -3.3701    1.0561   -1.7352 H   0  0  0  0  0  0  0  0  0  0  0  0
   -3.0279    2.2885    2.9431 H   0  0  0  0  0  0  0  0  0  0  0  0
   -4.3808    4.2074    3.7312 H   0  0  0  0  0  0  0  0  0  0  0  0
   -7.6205    2.9840    1.1556 H   0  0  0  0  0  0  0  0  0  0  0  0
   -6.2765    1.0664    0.3651 H   0  0  0  0  0  0  0  0  0  0  0  0
  1  2  2  0
  2  3  1  0
  3  4  1  0
  4  5  1  0
  5  6  2  0
  6  7  1  0
  7  8  2  0
  8  9  1  0
  9 10  2  0
  2 11  1  0
 11 12  2  0
 11 13  1  0
 13 14  1  0
 14 15  1  0
 15 16  1  0
 16 17  1  0
 17 18  1  0
 18 19  1  0
 19 20  1  0
 20 21  2  0
 20 22  2  0
 20 23  1  0
 23 24  2  0
 24 25  1  0
 25 26  2  0
 26 27  1  0
 26 28  1  0
 28 29  2  0
 10  5  1  0
 19 15  1  0
 29 23  1  0
  3 30  1  0
  4 31  1  0
  4 32  1  0
  6 33  1  0
  7 34  1  0
  8 35  1  0
  9 36  1  0
 10 37  1  0
 13 38  1  0
 14 39  1  0
 14 40  1  0
 15 41  1  0
 17 42  1  0
 17 43  1  0
 18 44  1  0
 18 45  1  0
 24 46  1  0
 25 47  1  0
 28 48  1  0
 29 49  1  0
M  END
$$$$
