
     RDKit          3D

 46 48  0  0  0  0  0  0  0  0999 V2000
   -3.7123   -3.1626   -1.3557 C   0  0  0  0  0  0  0  0  0  0  0  0
   -4.9540   -2.5907   -0.9555 O   0  0  0  0  0  0  0  0  0  0  0  0
   -4.8790   -1.3493   -0.3750 C   0  0  0  0  0  0  0  0  0  0  0  0
   -3.7874   -0.4808   -0.4390 C   0  0  0  0  0  0  0  0  0  0  0  0
   -3.8222    0.7561    0.2232 C   0  0  0  0  0  0  0  0  0  0  0  0
   -2.7112    1.7152    0.1505 C   0  0  0  0  0  0  0  0  0  0  0  0
   -1.4024    1.4985    0.3566 C   0  0  0  0  0  0  0  0  0  0  0  0
   -0.3490    2.5662    0.2487 C   0  0  0  0  0  0  0  0  0  0  0  0
    0.9585    1.8229   -0.0028 C   0  0  0  0  0  0  0  0  0  0  0  0
    0.7456    0.4739    0.6053 C   0  0  0  0  0  0  0  0  0  0  0  0
    1.6379   -0.4230    1.0474 C   0  0  0  0  0  0  0  0  0  0  0  0
    3.0877   -0.2291    0.9788 C   0  0  0  0  0  0  0  0  0  0  0  0
    3.8197   -0.1303    2.1684 C   0  0  0  0  0  0  0  0  0  0  0  0
    5.2003    0.0564    2.1277 C   0  0  0  0  0  0  0  0  0  0  0  0
    5.8384    0.1349    0.8968 C   0  0  0  0  0  0  0  0  0  0  0  0
    7.1944    0.3194    0.8839 O   0  0  0  0  0  0  0  0  0  0  0  0
    5.1311    0.0261   -0.3061 C   0  0  0  0  0  0  0  0  0  0  0  0
    5.8989    0.1164   -1.4389 O   0  0  0  0  0  0  0  0  0  0  0  0
    5.2235   -0.0425   -2.6813 C   0  0  0  0  0  0  0  0  0  0  0  0
    3.7486   -0.1580   -0.2590 C   0  0  0  0  0  0  0  0  0  0  0  0
   -0.7156    0.2282    0.7262 C   0  0  0  0  0  0  0  0  0  0  0  0
   -1.2240   -0.8224    1.0648 O   0  0  0  0  0  0  0  0  0  0  0  0
   -4.9857    1.1334    0.9109 C   0  0  0  0  0  0  0  0  0  0  0  0
   -6.0897    0.2821    0.9584 C   0  0  0  0  0  0  0  0  0  0  0  0
   -6.0254   -0.9460    0.3165 C   0  0  0  0  0  0  0  0  0  0  0  0
   -7.1177   -1.7679    0.3779 O   0  0  0  0  0  0  0  0  0  0  0  0
   -3.3081   -2.6427   -2.2301 H   0  0  0  0  0  0  0  0  0  0  0  0
   -2.9906   -3.1737   -0.5316 H   0  0  0  0  0  0  0  0  0  0  0  0
   -3.9024   -4.2006   -1.6454 H   0  0  0  0  0  0  0  0  0  0  0  0
   -2.8973   -0.7508   -0.9965 H   0  0  0  0  0  0  0  0  0  0  0  0
   -3.0316    2.7296   -0.0858 H   0  0  0  0  0  0  0  0  0  0  0  0
   -0.2926    3.1198    1.1941 H   0  0  0  0  0  0  0  0  0  0  0  0
   -0.5531    3.2800   -0.5563 H   0  0  0  0  0  0  0  0  0  0  0  0
    1.1326    1.7191   -1.0804 H   0  0  0  0  0  0  0  0  0  0  0  0
    1.8026    2.3636    0.4363 H   0  0  0  0  0  0  0  0  0  0  0  0
    1.3060   -1.3519    1.5089 H   0  0  0  0  0  0  0  0  0  0  0  0
    3.3199   -0.1924    3.1326 H   0  0  0  0  0  0  0  0  0  0  0  0
    5.7744    0.1386    3.0458 H   0  0  0  0  0  0  0  0  0  0  0  0
    7.4381    0.3347   -0.0621 H   0  0  0  0  0  0  0  0  0  0  0  0
    4.4891    0.7550   -2.8348 H   0  0  0  0  0  0  0  0  0  0  0  0
    5.9692    0.0336   -3.4785 H   0  0  0  0  0  0  0  0  0  0  0  0
    4.7574   -1.0306   -2.7542 H   0  0  0  0  0  0  0  0  0  0  0  0
    3.1623   -0.2558   -1.1665 H   0  0  0  0  0  0  0  0  0  0  0  0
   -5.0412    2.0930    1.4197 H   0  0  0  0  0  0  0  0  0  0  0  0
   -6.9891    0.5713    1.4931 H   0  0  0  0  0  0  0  0  0  0  0  0
   -6.8544   -2.5667   -0.1194 H   0  0  0  0  0  0  0  0  0  0  0  0
  1  2  1  0
  2  3  1  0
  3  4  2  0
  4  5  1  0
  5  6  1  0
  6  7  2  3
  7  8  1  0
  8  9  1  0
  9 10  1  0
 10 11  2  3
 11 12  1  0
 12 13  2  0
 13 14  1  0
 14 15  2  0
 15 16  1  0
 15 17  1  0
 17 18  1  0
 18 19  1  0
 17 20  2  0
 10 21  1  0
 21 22  2  0
  5 23  2  0
 23 24  1  0
 24 25  2  0
 25 26  1  0
 25  3  1  0
 21  7  1  0
 20 12  1  0
  1 27  1  0
  1 28  1  0
  1 29  1  0
  4 30  1  0
  6 31  1  0
  8 32  1  0
  8 33  1  0
  9 34  1  0
  9 35  1  0
 11 36  1  0
 13 37  1  0
 14 38  1  0
 16 39  1  0
 19 40  1  0
 19 41  1  0
 19 42  1  0
 20 43  1  0
 23 44  1  0
 24 45  1  0
 26 46  1  0
M  END
$$$$
