
     RDKit          3D

 46 48  0  0  0  0  0  0  0  0999 V2000
   -7.6188    0.3964    0.9988 C   0  0  0  0  0  0  0  0  0  0  0  0
   -6.9302    0.5847   -0.2306 O   0  0  0  0  0  0  0  0  0  0  0  0
   -5.6518    0.1033   -0.3118 C   0  0  0  0  0  0  0  0  0  0  0  0
   -5.0297    0.3254   -1.5406 C   0  0  0  0  0  0  0  0  0  0  0  0
   -3.7246   -0.1118   -1.7635 C   0  0  0  0  0  0  0  0  0  0  0  0
   -3.0216   -0.7751   -0.7508 C   0  0  0  0  0  0  0  0  0  0  0  0
   -1.6501   -1.2394   -1.0082 C   0  0  0  0  0  0  0  0  0  0  0  0
   -0.5709   -0.4585   -1.1487 C   0  0  0  0  0  0  0  0  0  0  0  0
   -0.4964    1.2709   -1.0686 S   0  0  0  0  0  0  0  0  0  0  0  0
    1.2258    1.2503   -1.3059 C   0  0  0  0  0  0  0  0  0  0  0  0
    1.9450    2.3770   -1.3492 C   0  0  0  0  0  0  0  0  0  0  0  0
    3.4081    2.4805   -1.5573 C   0  0  0  0  0  0  0  0  0  0  0  0
    3.8454    3.3225   -2.3354 O   0  0  0  0  0  0  0  0  0  0  0  0
    4.3370    1.5938   -0.8144 C   0  0  0  0  0  0  0  0  0  0  0  0
    4.0551    1.1404    0.4792 C   0  0  0  0  0  0  0  0  0  0  0  0
    4.9557    0.2960    1.1337 C   0  0  0  0  0  0  0  0  0  0  0  0
    6.1442   -0.0995    0.5072 C   0  0  0  0  0  0  0  0  0  0  0  0
    7.1247   -0.9792    1.2265 C   0  0  0  0  0  0  0  0  0  0  0  0
    6.4377    0.3885   -0.7717 C   0  0  0  0  0  0  0  0  0  0  0  0
    5.5398    1.2313   -1.4298 C   0  0  0  0  0  0  0  0  0  0  0  0
    1.6923   -0.0221   -1.4534 N   0  0  0  0  0  0  0  0  0  0  0  0
    0.7770   -1.0424   -1.3833 C   0  0  0  0  0  0  0  0  0  0  0  0
    1.0414   -2.2273   -1.5002 O   0  0  0  0  0  0  0  0  0  0  0  0
   -3.6450   -1.0118    0.4900 C   0  0  0  0  0  0  0  0  0  0  0  0
   -2.8885   -1.6786    1.4228 O   0  0  0  0  0  0  0  0  0  0  0  0
   -3.4825   -1.9500    2.6847 C   0  0  0  0  0  0  0  0  0  0  0  0
   -4.9584   -0.5665    0.7011 C   0  0  0  0  0  0  0  0  0  0  0  0
   -8.6142    0.8390    0.8958 H   0  0  0  0  0  0  0  0  0  0  0  0
   -7.1089    0.9112    1.8198 H   0  0  0  0  0  0  0  0  0  0  0  0
   -7.7491   -0.6683    1.2188 H   0  0  0  0  0  0  0  0  0  0  0  0
   -5.5666    0.8429   -2.3320 H   0  0  0  0  0  0  0  0  0  0  0  0
   -3.2639    0.0688   -2.7319 H   0  0  0  0  0  0  0  0  0  0  0  0
   -1.5419   -2.3222   -1.0425 H   0  0  0  0  0  0  0  0  0  0  0  0
    1.4534    3.3454   -1.3087 H   0  0  0  0  0  0  0  0  0  0  0  0
    3.1490    1.4408    0.9988 H   0  0  0  0  0  0  0  0  0  0  0  0
    4.7269   -0.0492    2.1404 H   0  0  0  0  0  0  0  0  0  0  0  0
    6.6083   -1.6630    1.9084 H   0  0  0  0  0  0  0  0  0  0  0  0
    7.6908   -1.5933    0.5183 H   0  0  0  0  0  0  0  0  0  0  0  0
    7.8248   -0.3661    1.8023 H   0  0  0  0  0  0  0  0  0  0  0  0
    7.3702    0.1177   -1.2633 H   0  0  0  0  0  0  0  0  0  0  0  0
    5.7828    1.6047   -2.4232 H   0  0  0  0  0  0  0  0  0  0  0  0
    2.6588   -0.2596   -1.6285 H   0  0  0  0  0  0  0  0  0  0  0  0
   -2.7473   -2.4878    3.2912 H   0  0  0  0  0  0  0  0  0  0  0  0
   -3.7323   -1.0229    3.2108 H   0  0  0  0  0  0  0  0  0  0  0  0
   -4.3605   -2.5954    2.5776 H   0  0  0  0  0  0  0  0  0  0  0  0
   -5.4408   -0.7414    1.6532 H   0  0  0  0  0  0  0  0  0  0  0  0
  1  2  1  0
  2  3  1  0
  3  4  2  0
  4  5  1  0
  5  6  2  0
  6  7  1  0
  7  8  2  3
  8  9  1  0
  9 10  1  0
 10 11  2  3
 11 12  1  0
 12 13  2  0
 12 14  1  0
 14 15  2  0
 15 16  1  0
 16 17  2  0
 17 18  1  0
 17 19  1  0
 19 20  2  0
 10 21  1  0
 21 22  1  0
 22 23  2  0
  6 24  1  0
 24 25  1  0
 25 26  1  0
 24 27  2  0
 27  3  1  0
 22  8  1  0
 20 14  1  0
  1 28  1  0
  1 29  1  0
  1 30  1  0
  4 31  1  0
  5 32  1  0
  7 33  1  0
 11 34  1  0
 15 35  1  0
 16 36  1  0
 18 37  1  0
 18 38  1  0
 18 39  1  0
 19 40  1  0
 20 41  1  0
 21 42  1  0
 26 43  1  0
 26 44  1  0
 26 45  1  0
 27 46  1  0
M  END
$$$$
