
     RDKit          3D

 57 60  0  0  0  0  0  0  0  0999 V2000
    5.3729    3.1932    0.3303 C   0  0  0  0  0  0  0  0  0  0  0  0
    4.3482    2.1770   -0.0505 C   0  0  0  0  0  0  0  0  0  0  0  0
    2.9950    2.3897   -0.2205 C   0  0  0  0  0  0  0  0  0  0  0  0
    2.3828    1.1426   -0.4541 C   0  0  0  0  0  0  0  0  0  0  0  0
    0.9839    0.9648   -0.6727 C   0  0  0  0  0  0  0  0  0  0  0  0
    0.2595   -0.0819   -0.2421 C   0  0  0  0  0  0  0  0  0  0  0  0
   -1.1825   -0.1825   -0.4763 C   0  0  0  0  0  0  0  0  0  0  0  0
   -1.6253   -0.4091   -1.7804 C   0  0  0  0  0  0  0  0  0  0  0  0
   -2.9774   -0.5385   -2.0398 C   0  0  0  0  0  0  0  0  0  0  0  0
   -3.8891   -0.4496   -0.9923 C   0  0  0  0  0  0  0  0  0  0  0  0
   -5.2700   -0.5833   -1.2438 C   0  0  0  0  0  0  0  0  0  0  0  0
   -6.2432   -0.5089   -0.2334 C   0  0  0  0  0  0  0  0  0  0  0  0
   -7.6042   -0.6171   -0.5070 N   0  0  0  0  0  0  0  0  0  0  0  0
   -8.5736   -0.7075    0.5872 C   0  0  0  0  0  0  0  0  0  0  0  0
   -8.0479   -1.1894   -1.7809 C   0  0  0  0  0  0  0  0  0  0  0  0
   -5.7566   -0.2753    1.0592 C   0  0  0  0  0  0  0  0  0  0  0  0
   -4.3864   -0.1384    1.3374 C   0  0  0  0  0  0  0  0  0  0  0  0
   -3.4229   -0.2204    0.3225 C   0  0  0  0  0  0  0  0  0  0  0  0
   -2.0745   -0.0859    0.5513 N   0  0  0  0  0  4  0  0  0  0  0  0
   -1.6019    0.1991    1.9284 C   0  0  0  0  0  0  0  0  0  0  0  0
    3.3809    0.1814   -0.4937 C   0  0  0  0  0  0  0  0  0  0  0  0
    3.2929   -1.2587   -0.8919 C   0  0  0  0  0  0  0  0  0  0  0  0
    4.5981    0.8157   -0.2083 N   0  0  0  0  0  0  0  0  0  0  0  0
    5.8702    0.1796   -0.1019 C   0  0  0  0  0  0  0  0  0  0  0  0
    6.9917    0.7384   -0.7269 C   0  0  0  0  0  0  0  0  0  0  0  0
    8.2342    0.1085   -0.6246 C   0  0  0  0  0  0  0  0  0  0  0  0
    8.3622   -1.0748    0.1018 C   0  0  0  0  0  0  0  0  0  0  0  0
    7.2488   -1.6328    0.7282 C   0  0  0  0  0  0  0  0  0  0  0  0
    6.0024   -1.0096    0.6276 C   0  0  0  0  0  0  0  0  0  0  0  0
    5.9167    3.5452   -0.5512 H   0  0  0  0  0  0  0  0  0  0  0  0
    4.8919    4.0655    0.7868 H   0  0  0  0  0  0  0  0  0  0  0  0
    6.0827    2.8007    1.0641 H   0  0  0  0  0  0  0  0  0  0  0  0
    2.5096    3.3558   -0.1458 H   0  0  0  0  0  0  0  0  0  0  0  0
    0.4862    1.7851   -1.1922 H   0  0  0  0  0  0  0  0  0  0  0  0
    0.7167   -0.8941    0.3168 H   0  0  0  0  0  0  0  0  0  0  0  0
   -0.9143   -0.4927   -2.6020 H   0  0  0  0  0  0  0  0  0  0  0  0
   -3.3098   -0.7144   -3.0630 H   0  0  0  0  0  0  0  0  0  0  0  0
   -5.5834   -0.7410   -2.2745 H   0  0  0  0  0  0  0  0  0  0  0  0
   -8.5073    0.1618    1.2506 H   0  0  0  0  0  0  0  0  0  0  0  0
   -9.6023   -0.7186    0.2095 H   0  0  0  0  0  0  0  0  0  0  0  0
   -8.4213   -1.6248    1.1659 H   0  0  0  0  0  0  0  0  0  0  0  0
   -7.6526   -2.2029   -1.9129 H   0  0  0  0  0  0  0  0  0  0  0  0
   -7.7384   -0.5614   -2.6233 H   0  0  0  0  0  0  0  0  0  0  0  0
   -9.1404   -1.2532   -1.8358 H   0  0  0  0  0  0  0  0  0  0  0  0
   -6.4404   -0.1906    1.9014 H   0  0  0  0  0  0  0  0  0  0  0  0
   -4.1244    0.0356    2.3771 H   0  0  0  0  0  0  0  0  0  0  0  0
   -2.0819    1.1240    2.2642 H   0  0  0  0  0  0  0  0  0  0  0  0
   -0.5226    0.3403    1.9834 H   0  0  0  0  0  0  0  0  0  0  0  0
   -1.8782   -0.6515    2.5593 H   0  0  0  0  0  0  0  0  0  0  0  0
    2.4506   -1.4253   -1.5714 H   0  0  0  0  0  0  0  0  0  0  0  0
    4.1847   -1.5929   -1.4306 H   0  0  0  0  0  0  0  0  0  0  0  0
    3.1453   -1.8921   -0.0122 H   0  0  0  0  0  0  0  0  0  0  0  0
    6.9145    1.6358   -1.3349 H   0  0  0  0  0  0  0  0  0  0  0  0
    9.1027    0.5370   -1.1195 H   0  0  0  0  0  0  0  0  0  0  0  0
    9.3319   -1.5619    0.1798 H   0  0  0  0  0  0  0  0  0  0  0  0
    7.3555   -2.5503    1.3030 H   0  0  0  0  0  0  0  0  0  0  0  0
    5.1602   -1.4450    1.1574 H   0  0  0  0  0  0  0  0  0  0  0  0
  1  2  1  0
  2  3  2  0
  3  4  1  0
  4  5  1  0
  5  6  2  3
  6  7  1  0
  7  8  2  0
  8  9  1  0
  9 10  2  0
 10 11  1  0
 11 12  2  0
 12 13  1  0
 13 14  1  0
 13 15  1  0
 12 16  1  0
 16 17  2  0
 17 18  1  0
 18 19  2  0
 19 20  1  0
  4 21  2  0
 21 22  1  0
 21 23  1  0
 23 24  1  0
 24 25  2  0
 25 26  1  0
 26 27  2  0
 27 28  1  0
 28 29  2  0
 23  2  1  0
 29 24  1  0
 19  7  1  0
 18 10  1  0
  1 30  1  0
  1 31  1  0
  1 32  1  0
  3 33  1  0
  5 34  1  0
  6 35  1  0
  8 36  1  0
  9 37  1  0
 11 38  1  0
 14 39  1  0
 14 40  1  0
 14 41  1  0
 15 42  1  0
 15 43  1  0
 15 44  1  0
 16 45  1  0
 17 46  1  0
 20 47  1  0
 20 48  1  0
 20 49  1  0
 22 50  1  0
 22 51  1  0
 22 52  1  0
 25 53  1  0
 26 54  1  0
 27 55  1  0
 28 56  1  0
 29 57  1  0
M  CHG  1  19   1
M  END
$$$$
