
     RDKit          3D

 52 51  0  0  0  0  0  0  0  0999 V2000
   -5.5901    3.8402   -0.1223 C   0  0  0  0  0  0  0  0  0  0  0  0
   -5.6543    2.8229    0.5140 C   0  0  0  0  0  0  0  0  0  0  0  0
   -5.7402    1.5889    1.3005 C   0  0  0  0  0  0  0  0  0  0  0  0
   -5.2187    0.3573    0.5173 N   0  0  0  0  0  4  0  0  0  0  0  0
   -5.3975   -0.8543    1.4281 C   0  0  0  0  0  0  0  0  0  0  0  0
   -6.0637    0.1626   -0.7397 C   0  0  0  0  0  0  0  0  0  0  0  0
   -3.7292    0.5767    0.1747 C   0  0  0  0  0  0  0  0  0  0  0  0
   -3.0700   -0.6295   -0.5017 C   0  0  0  0  0  0  0  0  0  0  0  0
   -1.6368   -0.3289   -0.9635 C   0  0  0  0  0  0  0  0  0  0  0  0
   -0.6489   -0.1788    0.1968 C   0  0  0  0  0  0  0  0  0  0  0  0
    0.7588    0.2390   -0.2453 C   0  0  0  0  0  0  0  0  0  0  0  0
    1.4658   -0.8029   -1.1158 C   0  0  0  0  0  0  0  0  0  0  0  0
    2.8808   -0.3835   -1.5298 C   0  0  0  0  0  0  0  0  0  0  0  0
    3.8745   -0.3533   -0.3649 C   0  0  0  0  0  0  0  0  0  0  0  0
    5.2839   -0.0070   -0.8542 C   0  0  0  0  0  0  0  0  0  0  0  0
    6.3028    0.1338    0.2811 C   0  0  0  0  0  0  0  0  0  0  0  0
    6.6114   -1.1901    0.9840 C   0  0  0  0  0  0  0  0  0  0  0  0
    7.6979   -1.0204    2.0351 C   0  0  0  0  0  0  0  0  0  0  0  0
   -5.5343    4.7513   -0.6755 H   0  0  0  0  0  0  0  0  0  0  0  0
   -6.7809    1.3799    1.5752 H   0  0  0  0  0  0  0  0  0  0  0  0
   -5.1454    1.6623    2.2174 H   0  0  0  0  0  0  0  0  0  0  0  0
   -4.7393   -0.7384    2.2946 H   0  0  0  0  0  0  0  0  0  0  0  0
   -6.4437   -0.8991    1.7448 H   0  0  0  0  0  0  0  0  0  0  0  0
   -5.1487   -1.7607    0.8704 H   0  0  0  0  0  0  0  0  0  0  0  0
   -5.8222    0.9492   -1.4599 H   0  0  0  0  0  0  0  0  0  0  0  0
   -5.8415   -0.8194   -1.1652 H   0  0  0  0  0  0  0  0  0  0  0  0
   -7.1207    0.2038   -0.4565 H   0  0  0  0  0  0  0  0  0  0  0  0
   -3.6702    1.4484   -0.4868 H   0  0  0  0  0  0  0  0  0  0  0  0
   -3.2274    0.8174    1.1189 H   0  0  0  0  0  0  0  0  0  0  0  0
   -3.6440   -0.9240   -1.3863 H   0  0  0  0  0  0  0  0  0  0  0  0
   -3.0493   -1.4925    0.1724 H   0  0  0  0  0  0  0  0  0  0  0  0
   -1.3156   -1.1568   -1.6056 H   0  0  0  0  0  0  0  0  0  0  0  0
   -1.6305    0.5751   -1.5840 H   0  0  0  0  0  0  0  0  0  0  0  0
   -1.0115    0.5822    0.8965 H   0  0  0  0  0  0  0  0  0  0  0  0
   -0.5936   -1.1215    0.7553 H   0  0  0  0  0  0  0  0  0  0  0  0
    0.7035    1.1937   -0.7834 H   0  0  0  0  0  0  0  0  0  0  0  0
    1.3469    0.4206    0.6615 H   0  0  0  0  0  0  0  0  0  0  0  0
    0.8892   -0.9621   -2.0338 H   0  0  0  0  0  0  0  0  0  0  0  0
    1.5033   -1.7649   -0.5920 H   0  0  0  0  0  0  0  0  0  0  0  0
    3.2409   -1.0956   -2.2840 H   0  0  0  0  0  0  0  0  0  0  0  0
    2.8457    0.5997   -2.0159 H   0  0  0  0  0  0  0  0  0  0  0  0
    3.8769   -1.3310    0.1290 H   0  0  0  0  0  0  0  0  0  0  0  0
    3.5631    0.3886    0.3781 H   0  0  0  0  0  0  0  0  0  0  0  0
    5.6280   -0.7672   -1.5661 H   0  0  0  0  0  0  0  0  0  0  0  0
    5.2469    0.9439   -1.4007 H   0  0  0  0  0  0  0  0  0  0  0  0
    5.9432    0.8692    1.0126 H   0  0  0  0  0  0  0  0  0  0  0  0
    7.2311    0.5380   -0.1423 H   0  0  0  0  0  0  0  0  0  0  0  0
    6.9379   -1.9342    0.2476 H   0  0  0  0  0  0  0  0  0  0  0  0
    5.7128   -1.5839    1.4698 H   0  0  0  0  0  0  0  0  0  0  0  0
    8.6258   -0.6522    1.5851 H   0  0  0  0  0  0  0  0  0  0  0  0
    7.9114   -1.9790    2.5158 H   0  0  0  0  0  0  0  0  0  0  0  0
    7.3855   -0.3137    2.8108 H   0  0  0  0  0  0  0  0  0  0  0  0
  1  2  3  0
  2  3  1  0
  3  4  1  0
  4  5  1  0
  4  6  1  0
  4  7  1  0
  7  8  1  0
  8  9  1  0
  9 10  1  0
 10 11  1  0
 11 12  1  0
 12 13  1  0
 13 14  1  0
 14 15  1  0
 15 16  1  0
 16 17  1  0
 17 18  1  0
  1 19  1  0
  3 20  1  0
  3 21  1  0
  5 22  1  0
  5 23  1  0
  5 24  1  0
  6 25  1  0
  6 26  1  0
  6 27  1  0
  7 28  1  0
  7 29  1  0
  8 30  1  0
  8 31  1  0
  9 32  1  0
  9 33  1  0
 10 34  1  0
 10 35  1  0
 11 36  1  0
 11 37  1  0
 12 38  1  0
 12 39  1  0
 13 40  1  0
 13 41  1  0
 14 42  1  0
 14 43  1  0
 15 44  1  0
 15 45  1  0
 16 46  1  0
 16 47  1  0
 17 48  1  0
 17 49  1  0
 18 50  1  0
 18 51  1  0
 18 52  1  0
M  CHG  1   4   1
M  END
$$$$
