
     RDKit          3D

 60 65  0  0  0  0  0  0  0  0999 V2000
    6.1800   -2.3651   -0.6691 C   0  0  0  0  0  0  0  0  0  0  0  0
    5.6764   -0.9955   -0.9246 C   0  0  0  0  0  0  0  0  0  0  0  0
    6.4479    0.0686   -0.6709 N   0  0  0  0  0  0  0  0  0  0  0  0
    5.7093    1.1687   -1.0597 O   0  0  0  0  0  0  0  0  0  0  0  0
    4.5009    0.7633   -1.5336 C   0  0  0  0  0  0  0  0  0  0  0  0
    3.6305    1.8311   -2.0591 C   0  0  0  0  0  0  0  0  0  0  0  0
    4.4052   -0.6080   -1.4233 C   0  0  0  0  0  0  0  0  0  0  0  0
    3.3079   -1.4626   -1.8194 C   0  0  0  0  0  0  0  0  0  0  0  0
    3.5057   -2.4129   -2.5724 O   0  0  0  0  0  0  0  0  0  0  0  0
    2.0360   -1.1758   -1.3115 N   0  0  0  0  0  0  0  0  0  0  0  0
    0.9200   -1.9640   -1.8255 C   0  0  0  0  0  0  0  0  0  0  0  0
   -0.4184   -1.3184   -1.4889 C   0  0  0  0  0  0  0  0  0  0  0  0
   -0.6272   -1.2427    0.0477 C   0  0  0  0  0  0  0  0  0  0  0  0
    0.7200   -0.9778    0.7781 C   0  0  0  0  0  0  0  0  0  0  0  0
    1.7905   -0.3634   -0.1207 C   0  0  0  0  0  0  0  0  0  0  0  0
   -1.0361   -2.6010    0.3826 O   0  0  0  0  0  0  0  0  0  0  0  0
   -1.7000   -2.8013    1.5551 C   0  0  0  0  0  0  0  0  0  0  0  0
   -1.8349   -4.1299    1.9629 C   0  0  0  0  0  0  0  0  0  0  0  0
   -2.4816   -4.4306    3.1630 C   0  0  0  0  0  0  0  0  0  0  0  0
   -2.9916   -3.3999    3.9456 C   0  0  0  0  0  0  0  0  0  0  0  0
   -3.6065   -3.6915    5.0985 F   0  0  0  0  0  0  0  0  0  0  0  0
   -2.8751   -2.0748    3.5479 C   0  0  0  0  0  0  0  0  0  0  0  0
   -2.2351   -1.7855    2.3399 C   0  0  0  0  0  0  0  0  0  0  0  0
   -2.1111   -0.3992    1.8758 C   0  0  0  0  0  0  0  0  0  0  0  0
   -2.2893    0.5255    2.6646 O   0  0  0  0  0  0  0  0  0  0  0  0
   -1.7359   -0.2133    0.4086 C   0  0  0  0  0  0  0  0  0  0  0  0
   -1.3975    1.2433    0.1197 C   0  0  0  0  0  0  0  0  0  0  0  0
   -2.7386    1.6978   -0.3504 C   0  0  0  0  0  0  0  0  0  0  0  0
   -3.0807    3.1323   -0.5002 C   0  0  0  0  0  0  0  0  0  0  0  0
   -2.1407    4.1414   -0.2586 C   0  0  0  0  0  0  0  0  0  0  0  0
   -2.4996    5.4848   -0.4147 C   0  0  0  0  0  0  0  0  0  0  0  0
   -3.7933    5.8194   -0.8123 C   0  0  0  0  0  0  0  0  0  0  0  0
   -4.2271    7.4725   -1.0038 Cl  0  0  0  0  0  0  0  0  0  0  0  0
   -4.7345    4.8225   -1.0561 C   0  0  0  0  0  0  0  0  0  0  0  0
   -4.3785    3.4799   -0.9005 C   0  0  0  0  0  0  0  0  0  0  0  0
   -3.5584    0.7416   -0.6512 N   0  0  0  0  0  0  0  0  0  0  0  0
   -2.9107   -0.4813   -0.3738 O   0  0  0  0  0  0  0  0  0  0  0  0
    6.4237   -2.8616   -1.6135 H   0  0  0  0  0  0  0  0  0  0  0  0
    7.0822   -2.3520   -0.0487 H   0  0  0  0  0  0  0  0  0  0  0  0
    5.4258   -2.9638   -0.1485 H   0  0  0  0  0  0  0  0  0  0  0  0
    4.2037    2.5241   -2.6831 H   0  0  0  0  0  0  0  0  0  0  0  0
    2.8224    1.4211   -2.6722 H   0  0  0  0  0  0  0  0  0  0  0  0
    3.1853    2.3990   -1.2368 H   0  0  0  0  0  0  0  0  0  0  0  0
    0.9934   -2.9713   -1.3982 H   0  0  0  0  0  0  0  0  0  0  0  0
    1.0255   -2.0619   -2.9122 H   0  0  0  0  0  0  0  0  0  0  0  0
   -1.2179   -1.9098   -1.9527 H   0  0  0  0  0  0  0  0  0  0  0  0
   -0.4456   -0.3260   -1.9505 H   0  0  0  0  0  0  0  0  0  0  0  0
    0.5758   -0.3269    1.6481 H   0  0  0  0  0  0  0  0  0  0  0  0
    1.1153   -1.9221    1.1774 H   0  0  0  0  0  0  0  0  0  0  0  0
    1.4785    0.6285   -0.4608 H   0  0  0  0  0  0  0  0  0  0  0  0
    2.7098   -0.2428    0.4600 H   0  0  0  0  0  0  0  0  0  0  0  0
   -1.4316   -4.9323    1.3495 H   0  0  0  0  0  0  0  0  0  0  0  0
   -2.5898   -5.4598    3.4922 H   0  0  0  0  0  0  0  0  0  0  0  0
   -3.2897   -1.2873    4.1703 H   0  0  0  0  0  0  0  0  0  0  0  0
   -0.6964    1.3798   -0.7064 H   0  0  0  0  0  0  0  0  0  0  0  0
   -1.0376    1.7997    0.9879 H   0  0  0  0  0  0  0  0  0  0  0  0
   -1.1258    3.9139    0.0518 H   0  0  0  0  0  0  0  0  0  0  0  0
   -1.7672    6.2653   -0.2233 H   0  0  0  0  0  0  0  0  0  0  0  0
   -5.7445    5.0792   -1.3652 H   0  0  0  0  0  0  0  0  0  0  0  0
   -5.1230    2.7087   -1.0917 H   0  0  0  0  0  0  0  0  0  0  0  0
  1  2  1  0
  2  3  2  0
  3  4  1  0
  4  5  1  0
  5  6  1  0
  5  7  2  0
  7  8  1  0
  8  9  2  0
  8 10  1  0
 10 11  1  0
 11 12  1  0
 12 13  1  0
 13 14  1  0
 14 15  1  0
 13 16  1  0
 16 17  1  0
 17 18  2  0
 18 19  1  0
 19 20  2  0
 20 21  1  0
 20 22  1  0
 22 23  2  0
 23 24  1  0
 24 25  2  0
 24 26  1  0
 26 27  1  0
 27 28  1  0
 28 29  1  0
 29 30  2  0
 30 31  1  0
 31 32  2  0
 32 33  1  0
 32 34  1  0
 34 35  2  0
 28 36  2  0
 36 37  1  0
  7  2  1  0
 15 10  1  0
 23 17  1  0
 37 26  1  0
 26 13  1  0
 35 29  1  0
  1 38  1  0
  1 39  1  0
  1 40  1  0
  6 41  1  0
  6 42  1  0
  6 43  1  0
 11 44  1  0
 11 45  1  0
 12 46  1  0
 12 47  1  0
 14 48  1  0
 14 49  1  0
 15 50  1  0
 15 51  1  0
 18 52  1  0
 19 53  1  0
 22 54  1  0
 27 55  1  0
 27 56  1  0
 30 57  1  0
 31 58  1  0
 34 59  1  0
 35 60  1  0
M  END
$$$$
