
     RDKit          3D

 64 67  0  0  0  0  0  0  0  0999 V2000
    2.3395   -2.3714    6.1638 C   0  0  0  0  0  0  0  0  0  0  0  0
    2.6872   -3.0005    4.9329 O   0  0  0  0  0  0  0  0  0  0  0  0
    2.7909   -2.1826    3.8391 C   0  0  0  0  0  0  0  0  0  0  0  0
    2.8667   -2.8442    2.6111 C   0  0  0  0  0  0  0  0  0  0  0  0
    2.9602   -2.1208    1.4176 C   0  0  0  0  0  0  0  0  0  0  0  0
    2.9841   -0.7215    1.4358 C   0  0  0  0  0  0  0  0  0  0  0  0
    3.0565   -0.0634    0.1947 N   0  0  0  0  0  0  0  0  0  0  0  0
    3.0168    1.2958   -0.0612 C   0  0  0  0  0  0  0  0  0  0  0  0
    2.9053    2.1936    0.7702 O   0  0  0  0  0  0  0  0  0  0  0  0
    3.0604    1.6346   -1.5607 C   0  0  0  0  0  0  0  0  0  0  0  0
    3.3672    0.4839   -2.4291 N   0  0  0  0  0  0  0  0  0  0  0  0
    4.7842    0.1734   -2.5955 C   0  0  0  0  0  0  0  0  0  0  0  0
    2.4693   -0.1266   -3.2868 C   0  0  0  0  0  0  0  0  0  0  0  0
    2.8022   -0.9558   -4.1302 O   0  0  0  0  0  0  0  0  0  0  0  0
    1.0402    0.2547   -3.2303 C   0  0  0  0  0  0  0  0  0  0  0  0
    0.2651   -0.0122   -2.1688 C   0  0  0  0  0  0  0  0  0  0  0  0
   -1.1457    0.2103   -2.1032 C   0  0  0  0  0  0  0  0  0  0  0  0
   -2.0100    0.2548   -3.1745 C   0  0  0  0  0  0  0  0  0  0  0  0
   -3.2790    0.4140   -2.6635 N   0  0  0  0  0  0  0  0  0  0  0  0
   -4.5077    0.5072   -3.3774 C   0  0  0  0  0  0  0  0  0  0  0  0
   -4.5441    0.4472   -4.7784 C   0  0  0  0  0  0  0  0  0  0  0  0
   -5.7666    0.5465   -5.4531 C   0  0  0  0  0  0  0  0  0  0  0  0
   -6.9532    0.6987   -4.7396 C   0  0  0  0  0  0  0  0  0  0  0  0
   -6.9254    0.7552   -3.3477 C   0  0  0  0  0  0  0  0  0  0  0  0
   -5.7078    0.6626   -2.6664 C   0  0  0  0  0  0  0  0  0  0  0  0
   -3.2611    0.4729   -1.3110 N   0  0  0  0  0  0  0  0  0  0  0  0
   -1.9726    0.3726   -0.9574 C   0  0  0  0  0  0  0  0  0  0  0  0
   -1.5917    0.4507    0.4507 C   0  0  0  0  0  0  0  0  0  0  0  0
   -2.2249   -0.3611    1.4005 C   0  0  0  0  0  0  0  0  0  0  0  0
   -1.8817   -0.2670    2.7527 C   0  0  0  0  0  0  0  0  0  0  0  0
   -0.9037    0.6417    3.1742 C   0  0  0  0  0  0  0  0  0  0  0  0
   -0.5686    0.7713    4.6317 C   0  0  0  0  0  0  0  0  0  0  0  0
   -0.2851    1.4652    2.2262 C   0  0  0  0  0  0  0  0  0  0  0  0
   -0.6224    1.3672    0.8734 C   0  0  0  0  0  0  0  0  0  0  0  0
    2.9353   -0.0636    2.6657 C   0  0  0  0  0  0  0  0  0  0  0  0
    2.8395   -0.7891    3.8631 C   0  0  0  0  0  0  0  0  0  0  0  0
    2.1758   -3.1590    6.9090 H   0  0  0  0  0  0  0  0  0  0  0  0
    1.4071   -1.8021    6.0716 H   0  0  0  0  0  0  0  0  0  0  0  0
    3.1554   -1.7367    6.5211 H   0  0  0  0  0  0  0  0  0  0  0  0
    2.8415   -3.9314    2.5817 H   0  0  0  0  0  0  0  0  0  0  0  0
    3.0026   -2.6709    0.4800 H   0  0  0  0  0  0  0  0  0  0  0  0
    3.1305   -0.6560   -0.6276 H   0  0  0  0  0  0  0  0  0  0  0  0
    3.8360    2.3929   -1.7192 H   0  0  0  0  0  0  0  0  0  0  0  0
    2.0996    2.0801   -1.8296 H   0  0  0  0  0  0  0  0  0  0  0  0
    4.9294   -0.8108   -3.0521 H   0  0  0  0  0  0  0  0  0  0  0  0
    5.2308    0.9349   -3.2439 H   0  0  0  0  0  0  0  0  0  0  0  0
    5.2842    0.1859   -1.6205 H   0  0  0  0  0  0  0  0  0  0  0  0
    0.6429    0.6439   -4.1603 H   0  0  0  0  0  0  0  0  0  0  0  0
    0.7143   -0.4591   -1.2857 H   0  0  0  0  0  0  0  0  0  0  0  0
   -1.8330    0.1560   -4.2334 H   0  0  0  0  0  0  0  0  0  0  0  0
   -3.6488    0.3255   -5.3782 H   0  0  0  0  0  0  0  0  0  0  0  0
   -5.7938    0.5010   -6.5398 H   0  0  0  0  0  0  0  0  0  0  0  0
   -7.9011    0.7718   -5.2690 H   0  0  0  0  0  0  0  0  0  0  0  0
   -7.8511    0.8682   -2.7875 H   0  0  0  0  0  0  0  0  0  0  0  0
   -5.7136    0.7096   -1.5775 H   0  0  0  0  0  0  0  0  0  0  0  0
   -2.9978   -1.0613    1.0912 H   0  0  0  0  0  0  0  0  0  0  0  0
   -2.3916   -0.8991    3.4754 H   0  0  0  0  0  0  0  0  0  0  0  0
   -0.5341   -0.2144    5.1069 H   0  0  0  0  0  0  0  0  0  0  0  0
    0.4121    1.2354    4.7745 H   0  0  0  0  0  0  0  0  0  0  0  0
   -1.3183    1.3869    5.1331 H   0  0  0  0  0  0  0  0  0  0  0  0
    0.4651    2.1930    2.5303 H   0  0  0  0  0  0  0  0  0  0  0  0
   -0.1387    2.0325    0.1627 H   0  0  0  0  0  0  0  0  0  0  0  0
    2.9671    1.0196    2.7338 H   0  0  0  0  0  0  0  0  0  0  0  0
    2.8083   -0.2309    4.7947 H   0  0  0  0  0  0  0  0  0  0  0  0
  1  2  1  0
  2  3  1  0
  3  4  2  0
  4  5  1  0
  5  6  2  0
  6  7  1  0
  7  8  1  0
  8  9  2  0
  8 10  1  0
 10 11  1  0
 11 12  1  0
 11 13  1  0
 13 14  2  0
 13 15  1  0
 15 16  2  3
 16 17  1  0
 17 18  2  0
 18 19  1  0
 19 20  1  0
 20 21  2  0
 21 22  1  0
 22 23  2  0
 23 24  1  0
 24 25  2  0
 19 26  1  0
 26 27  2  0
 27 28  1  0
 28 29  2  0
 29 30  1  0
 30 31  2  0
 31 32  1  0
 31 33  1  0
 33 34  2  0
  6 35  1  0
 35 36  2  0
 36  3  1  0
 27 17  1  0
 34 28  1  0
 25 20  1  0
  1 37  1  0
  1 38  1  0
  1 39  1  0
  4 40  1  0
  5 41  1  0
  7 42  1  0
 10 43  1  0
 10 44  1  0
 12 45  1  0
 12 46  1  0
 12 47  1  0
 15 48  1  0
 16 49  1  0
 18 50  1  0
 21 51  1  0
 22 52  1  0
 23 53  1  0
 24 54  1  0
 25 55  1  0
 29 56  1  0
 30 57  1  0
 32 58  1  0
 32 59  1  0
 32 60  1  0
 33 61  1  0
 34 62  1  0
 35 63  1  0
 36 64  1  0
M  END
$$$$
