
     RDKit          3D

 42 41  0  0  0  0  0  0  0  0999 V2000
   -5.6834   -1.0264    0.8247 C   0  0  0  0  0  0  0  0  0  0  0  0
   -4.4877   -0.2997    1.3817 C   0  0  0  0  0  0  0  0  0  0  0  0
   -4.4301   -0.2572    2.8837 C   0  0  0  0  0  0  0  0  0  0  0  0
   -3.5660    0.2394    0.5601 C   0  0  0  0  0  0  0  0  0  0  0  0
   -2.3387    1.0185    0.9497 C   0  0  0  0  0  0  0  0  0  0  0  0
   -1.0738    0.1628    1.1066 C   0  0  0  0  0  0  0  0  0  0  0  0
   -0.4984   -0.3632   -0.1983 C   0  0  0  0  0  0  0  0  0  0  0  0
   -1.0683   -1.6682   -0.6863 C   0  0  0  0  0  0  0  0  0  0  0  0
    0.5028    0.3010   -0.8111 C   0  0  0  0  0  0  0  0  0  0  0  0
    1.1858   -0.0569   -2.1049 C   0  0  0  0  0  0  0  0  0  0  0  0
    2.5797   -0.6680   -1.8995 C   0  0  0  0  0  0  0  0  0  0  0  0
    3.6016    0.2756   -1.2831 C   0  0  0  0  0  0  0  0  0  0  0  0
    4.0333    1.4178   -2.1630 C   0  0  0  0  0  0  0  0  0  0  0  0
    4.0771    0.0406   -0.0430 C   0  0  0  0  0  0  0  0  0  0  0  0
    5.0588    0.8466    0.7437 C   0  0  0  0  0  0  0  0  0  0  0  0
    6.2380    0.0754    0.9071 O   0  0  0  0  0  0  0  0  0  0  0  0
   -5.6871   -2.0673    1.1643 H   0  0  0  0  0  0  0  0  0  0  0  0
   -6.6083   -0.5465    1.1611 H   0  0  0  0  0  0  0  0  0  0  0  0
   -5.6924   -1.0341   -0.2704 H   0  0  0  0  0  0  0  0  0  0  0  0
   -3.5049    0.1786    3.2683 H   0  0  0  0  0  0  0  0  0  0  0  0
   -4.4988   -1.2715    3.2913 H   0  0  0  0  0  0  0  0  0  0  0  0
   -5.2669    0.3297    3.2760 H   0  0  0  0  0  0  0  0  0  0  0  0
   -3.7038    0.1374   -0.5160 H   0  0  0  0  0  0  0  0  0  0  0  0
   -2.1718    1.7998    0.1969 H   0  0  0  0  0  0  0  0  0  0  0  0
   -2.5192    1.5586    1.8863 H   0  0  0  0  0  0  0  0  0  0  0  0
   -1.2580   -0.6722    1.7947 H   0  0  0  0  0  0  0  0  0  0  0  0
   -0.3155    0.7811    1.6065 H   0  0  0  0  0  0  0  0  0  0  0  0
   -1.2291   -2.3545    0.1520 H   0  0  0  0  0  0  0  0  0  0  0  0
   -2.0246   -1.5082   -1.1914 H   0  0  0  0  0  0  0  0  0  0  0  0
   -0.4010   -2.1860   -1.3808 H   0  0  0  0  0  0  0  0  0  0  0  0
    0.8701    1.2208   -0.3555 H   0  0  0  0  0  0  0  0  0  0  0  0
    0.5772   -0.7558   -2.6888 H   0  0  0  0  0  0  0  0  0  0  0  0
    1.2530    0.8483   -2.7207 H   0  0  0  0  0  0  0  0  0  0  0  0
    2.9645   -1.0022   -2.8718 H   0  0  0  0  0  0  0  0  0  0  0  0
    2.4828   -1.5793   -1.2943 H   0  0  0  0  0  0  0  0  0  0  0  0
    4.2694    1.0526   -3.1683 H   0  0  0  0  0  0  0  0  0  0  0  0
    4.9288    1.9265   -1.7988 H   0  0  0  0  0  0  0  0  0  0  0  0
    3.2339    2.1606   -2.2441 H   0  0  0  0  0  0  0  0  0  0  0  0
    3.7032   -0.8280    0.4995 H   0  0  0  0  0  0  0  0  0  0  0  0
    5.3246    1.7989    0.2809 H   0  0  0  0  0  0  0  0  0  0  0  0
    4.6500    1.0648    1.7351 H   0  0  0  0  0  0  0  0  0  0  0  0
    6.4934   -0.2305    0.0199 H   0  0  0  0  0  0  0  0  0  0  0  0
  1  2  1  0
  2  3  1  0
  2  4  2  3
  4  5  1  0
  5  6  1  0
  6  7  1  0
  7  8  1  0
  7  9  2  3
  9 10  1  0
 10 11  1  0
 11 12  1  0
 12 13  1  0
 12 14  2  3
 14 15  1  0
 15 16  1  0
  1 17  1  0
  1 18  1  0
  1 19  1  0
  3 20  1  0
  3 21  1  0
  3 22  1  0
  4 23  1  0
  5 24  1  0
  5 25  1  0
  6 26  1  0
  6 27  1  0
  8 28  1  0
  8 29  1  0
  8 30  1  0
  9 31  1  0
 10 32  1  0
 10 33  1  0
 11 34  1  0
 11 35  1  0
 13 36  1  0
 13 37  1  0
 13 38  1  0
 14 39  1  0
 15 40  1  0
 15 41  1  0
 16 42  1  0
M  END
$$$$
