
     RDKit          3D

 37 39  0  0  0  0  0  0  0  0999 V2000
    4.4974   -0.7473    0.5233 N   0  0  0  0  0  0  0  0  0  0  0  0
    4.2127    0.5045   -0.1661 C   0  0  0  0  0  0  0  0  0  0  0  0
    2.9472    0.3994   -1.0174 C   0  0  0  0  0  0  0  0  0  0  0  0
    1.6784    0.2033   -0.1800 C   0  0  0  0  0  0  0  0  0  0  0  0
    0.4396    0.1008   -1.0819 C   0  0  0  0  0  0  0  0  0  0  0  0
   -0.8115   -0.0068   -0.2958 N   0  0  0  0  0  0  0  0  0  0  0  0
   -1.2890   -1.3200   -0.0115 C   0  0  0  0  0  0  0  0  0  0  0  0
   -0.4611   -2.4616   -0.1130 C   0  0  0  0  0  0  0  0  0  0  0  0
   -0.9166   -3.7541    0.1761 C   0  0  0  0  0  0  0  0  0  0  0  0
   -2.2245   -3.9519    0.5831 C   0  0  0  0  0  0  0  0  0  0  0  0
   -3.0679   -2.8540    0.7023 C   0  0  0  0  0  0  0  0  0  0  0  0
   -2.6126   -1.5511    0.4154 C   0  0  0  0  0  0  0  0  0  0  0  0
   -3.8262   -0.2655    0.5930 S   0  0  0  0  0  0  0  0  0  0  0  0
   -2.8441    1.2059    0.4347 C   0  0  0  0  0  0  0  0  0  0  0  0
   -3.5110    2.4101    0.7396 C   0  0  0  0  0  0  0  0  0  0  0  0
   -2.8631    3.6353    0.6333 C   0  0  0  0  0  0  0  0  0  0  0  0
   -1.5423    3.6576    0.2210 C   0  0  0  0  0  0  0  0  0  0  0  0
   -0.7150    5.1619    0.0889 Cl  0  0  0  0  0  0  0  0  0  0  0  0
   -0.8729    2.4685   -0.0861 C   0  0  0  0  0  0  0  0  0  0  0  0
   -1.5005    1.2051    0.0038 C   0  0  0  0  0  0  0  0  0  0  0  0
    4.6988   -1.4786   -0.1574 H   0  0  0  0  0  0  0  0  0  0  0  0
    5.3440   -0.6405    1.0817 H   0  0  0  0  0  0  0  0  0  0  0  0
    5.0629    0.7607   -0.8076 H   0  0  0  0  0  0  0  0  0  0  0  0
    4.1033    1.3080    0.5702 H   0  0  0  0  0  0  0  0  0  0  0  0
    2.8486    1.3200   -1.6058 H   0  0  0  0  0  0  0  0  0  0  0  0
    3.0501   -0.4241   -1.7354 H   0  0  0  0  0  0  0  0  0  0  0  0
    1.7710   -0.6957    0.4378 H   0  0  0  0  0  0  0  0  0  0  0  0
    1.5772    1.0380    0.5226 H   0  0  0  0  0  0  0  0  0  0  0  0
    0.5452   -0.7444   -1.7748 H   0  0  0  0  0  0  0  0  0  0  0  0
    0.3963    0.9572   -1.7677 H   0  0  0  0  0  0  0  0  0  0  0  0
    0.5815   -2.3838   -0.4030 H   0  0  0  0  0  0  0  0  0  0  0  0
   -0.2389   -4.5994    0.0870 H   0  0  0  0  0  0  0  0  0  0  0  0
   -2.5874   -4.9501    0.8106 H   0  0  0  0  0  0  0  0  0  0  0  0
   -4.0949   -3.0173    1.0234 H   0  0  0  0  0  0  0  0  0  0  0  0
   -4.5503    2.3947    1.0635 H   0  0  0  0  0  0  0  0  0  0  0  0
   -3.3904    4.5537    0.8735 H   0  0  0  0  0  0  0  0  0  0  0  0
    0.1662    2.5613   -0.3816 H   0  0  0  0  0  0  0  0  0  0  0  0
  1  2  1  0
  2  3  1  0
  3  4  1  0
  4  5  1  0
  5  6  1  0
  6  7  1  0
  7  8  2  0
  8  9  1  0
  9 10  2  0
 10 11  1  0
 11 12  2  0
 12 13  1  0
 13 14  1  0
 14 15  2  0
 15 16  1  0
 16 17  2  0
 17 18  1  0
 17 19  1  0
 19 20  2  0
 20  6  1  0
 12  7  1  0
 20 14  1  0
  1 21  1  0
  1 22  1  0
  2 23  1  0
  2 24  1  0
  3 25  1  0
  3 26  1  0
  4 27  1  0
  4 28  1  0
  5 29  1  0
  5 30  1  0
  8 31  1  0
  9 32  1  0
 10 33  1  0
 11 34  1  0
 15 35  1  0
 16 36  1  0
 19 37  1  0
M  END
$$$$
