
     RDKit          3D

 47 48  0  0  0  0  0  0  0  0999 V2000
    5.2397    2.4916   -1.6373 C   0  0  0  0  0  0  0  0  0  0  0  0
    4.9381    1.3822   -2.4724 O   0  0  0  0  0  0  0  0  0  0  0  0
    3.9125    0.5576   -2.0874 C   0  0  0  0  0  0  0  0  0  0  0  0
    3.1801    0.6867   -0.9016 C   0  0  0  0  0  0  0  0  0  0  0  0
    2.1498   -0.2155   -0.5921 C   0  0  0  0  0  0  0  0  0  0  0  0
    1.3794   -0.0229    0.6436 C   0  0  0  0  0  0  0  0  0  0  0  0
    1.1069   -1.0269    1.4900 C   0  0  0  0  0  0  0  0  0  0  0  0
    0.3094   -0.8842    2.7433 C   0  0  0  0  0  0  0  0  0  0  0  0
    0.2571   -1.8517    3.5035 O   0  0  0  0  0  0  0  0  0  0  0  0
   -0.3745    0.4265    3.0378 C   0  0  0  0  0  0  0  0  0  0  0  0
   -1.4427    0.3947    4.1006 C   0  0  0  0  0  0  0  0  0  0  0  0
   -1.5148    1.2989    4.9389 O   0  0  0  0  0  0  0  0  0  0  0  0
   -2.4769   -0.6753    4.1597 C   0  0  0  0  0  0  0  0  0  0  0  0
   -3.0710   -1.3430    3.1584 C   0  0  0  0  0  0  0  0  0  0  0  0
   -2.8790   -1.1528    1.7203 C   0  0  0  0  0  0  0  0  0  0  0  0
   -2.3296   -2.1956    0.9640 C   0  0  0  0  0  0  0  0  0  0  0  0
   -2.1247   -2.0348   -0.4050 C   0  0  0  0  0  0  0  0  0  0  0  0
   -2.4792   -0.8341   -1.0076 C   0  0  0  0  0  0  0  0  0  0  0  0
   -2.2483   -0.6962   -2.3494 O   0  0  0  0  0  0  0  0  0  0  0  0
   -3.0527    0.2138   -0.2772 C   0  0  0  0  0  0  0  0  0  0  0  0
   -3.3545    1.3338   -1.0096 O   0  0  0  0  0  0  0  0  0  0  0  0
   -3.9814    2.4039   -0.3087 C   0  0  0  0  0  0  0  0  0  0  0  0
   -3.2591    0.0457    1.0933 C   0  0  0  0  0  0  0  0  0  0  0  0
    1.8413   -1.2417   -1.4930 C   0  0  0  0  0  0  0  0  0  0  0  0
    2.5647   -1.3822   -2.6776 C   0  0  0  0  0  0  0  0  0  0  0  0
    3.5939   -0.4870   -2.9662 C   0  0  0  0  0  0  0  0  0  0  0  0
    4.3021   -0.6206   -4.1308 O   0  0  0  0  0  0  0  0  0  0  0  0
    4.3763    3.1586   -1.5387 H   0  0  0  0  0  0  0  0  0  0  0  0
    6.0457    3.0610   -2.1113 H   0  0  0  0  0  0  0  0  0  0  0  0
    5.5997    2.1589   -0.6573 H   0  0  0  0  0  0  0  0  0  0  0  0
    3.4016    1.4814   -0.1960 H   0  0  0  0  0  0  0  0  0  0  0  0
    1.0575    0.9975    0.8271 H   0  0  0  0  0  0  0  0  0  0  0  0
    1.4668   -2.0365    1.3115 H   0  0  0  0  0  0  0  0  0  0  0  0
   -0.8171    0.8523    2.1346 H   0  0  0  0  0  0  0  0  0  0  0  0
    0.4083    1.1132    3.3859 H   0  0  0  0  0  0  0  0  0  0  0  0
   -2.7743   -0.9006    5.1822 H   0  0  0  0  0  0  0  0  0  0  0  0
   -3.7978   -2.1142    3.4141 H   0  0  0  0  0  0  0  0  0  0  0  0
   -2.0408   -3.1318    1.4402 H   0  0  0  0  0  0  0  0  0  0  0  0
   -1.6925   -2.8363   -0.9966 H   0  0  0  0  0  0  0  0  0  0  0  0
   -2.5723    0.2001   -2.5719 H   0  0  0  0  0  0  0  0  0  0  0  0
   -3.3202    2.8037    0.4664 H   0  0  0  0  0  0  0  0  0  0  0  0
   -4.9430    2.0913    0.1119 H   0  0  0  0  0  0  0  0  0  0  0  0
   -4.1760    3.2051   -1.0269 H   0  0  0  0  0  0  0  0  0  0  0  0
   -3.7065    0.8298    1.6973 H   0  0  0  0  0  0  0  0  0  0  0  0
    1.0245   -1.9309   -1.2915 H   0  0  0  0  0  0  0  0  0  0  0  0
    2.3070   -2.1851   -3.3622 H   0  0  0  0  0  0  0  0  0  0  0  0
    3.9667   -1.3881   -4.6194 H   0  0  0  0  0  0  0  0  0  0  0  0
  1  2  1  0
  2  3  1  0
  3  4  2  0
  4  5  1  0
  5  6  1  0
  6  7  2  3
  7  8  1  0
  8  9  2  0
  8 10  1  0
 10 11  1  0
 11 12  2  0
 11 13  1  0
 13 14  2  3
 14 15  1  0
 15 16  2  0
 16 17  1  0
 17 18  2  0
 18 19  1  0
 18 20  1  0
 20 21  1  0
 21 22  1  0
 20 23  2  0
  5 24  2  0
 24 25  1  0
 25 26  2  0
 26 27  1  0
 26  3  1  0
 23 15  1  0
  1 28  1  0
  1 29  1  0
  1 30  1  0
  4 31  1  0
  6 32  1  0
  7 33  1  0
 10 34  1  0
 10 35  1  0
 13 36  1  0
 14 37  1  0
 16 38  1  0
 17 39  1  0
 19 40  1  0
 22 41  1  0
 22 42  1  0
 22 43  1  0
 23 44  1  0
 24 45  1  0
 25 46  1  0
 27 47  1  0
M  END
$$$$
