
     RDKit          3D

 60 64  0  0  0  0  0  0  0  0999 V2000
   -2.7293   -1.1805   -2.8918 C   0  0  0  0  0  0  0  0  0  0  0  0
   -2.6715   -1.7068   -1.5313 N   0  0  0  0  0  0  0  0  0  0  0  0
   -3.8894   -1.8875   -0.8690 C   0  0  0  0  0  0  0  0  0  0  0  0
   -4.9753   -1.6996   -1.4203 O   0  0  0  0  0  0  0  0  0  0  0  0
   -3.8481   -2.2846    0.5764 C   0  0  0  0  0  0  0  0  0  0  0  0
   -4.7041   -1.7994    1.4942 C   0  0  0  0  0  0  0  0  0  0  0  0
   -5.7259   -0.7724    1.2730 C   0  0  0  0  0  0  0  0  0  0  0  0
   -5.3671    0.5641    1.0727 C   0  0  0  0  0  0  0  0  0  0  0  0
   -6.3533    1.5348    0.8768 C   0  0  0  0  0  0  0  0  0  0  0  0
   -7.7125    1.1847    0.8833 C   0  0  0  0  0  0  0  0  0  0  0  0
   -8.7646    2.2425    0.6571 C   0  0  0  0  0  0  0  0  0  0  0  0
  -10.0365    1.8034    0.8726 F   0  0  0  0  0  0  0  0  0  0  0  0
   -8.6029    3.3214    1.4747 F   0  0  0  0  0  0  0  0  0  0  0  0
   -8.7485    2.7341   -0.6128 F   0  0  0  0  0  0  0  0  0  0  0  0
   -8.0641   -0.1579    1.0852 C   0  0  0  0  0  0  0  0  0  0  0  0
   -7.0776   -1.1279    1.2829 C   0  0  0  0  0  0  0  0  0  0  0  0
   -2.6861   -3.4744    1.0348 S   0  0  0  0  0  0  0  0  0  0  0  0
   -1.2763   -2.7719    0.2132 C   0  0  0  0  0  0  0  0  0  0  0  0
   -0.0111   -3.0802    0.7434 C   0  0  0  0  0  0  0  0  0  0  0  0
    1.1505   -2.6126    0.1331 C   0  0  0  0  0  0  0  0  0  0  0  0
    1.0478   -1.8211   -1.0077 C   0  0  0  0  0  0  0  0  0  0  0  0
    2.2535   -1.3336   -1.7174 C   0  0  0  0  0  0  0  0  0  0  0  0
    2.3210   -1.5475   -2.9264 O   0  0  0  0  0  0  0  0  0  0  0  0
    3.2394   -0.6601   -1.0062 N   0  0  0  0  0  0  0  0  0  0  0  0
    4.4358   -0.2283   -1.7318 C   0  0  0  0  0  0  0  0  0  0  0  0
    5.6644   -0.0331   -0.8245 C   0  0  0  0  0  0  0  0  0  0  0  0
    5.3719    0.7942    0.3608 N   0  0  0  0  0  0  0  0  0  0  0  0
    6.2969    1.7682    0.7314 C   0  0  0  0  0  0  0  0  0  0  0  0
    7.6702    1.5264    0.6530 C   0  0  0  0  0  0  0  0  0  0  0  0
    8.5813    2.5102    1.0375 C   0  0  0  0  0  0  0  0  0  0  0  0
    8.1095    3.7229    1.5103 C   0  0  0  0  0  0  0  0  0  0  0  0
    6.7414    3.8896    1.5827 C   0  0  0  0  0  0  0  0  0  0  0  0
    5.8439    2.9475    1.2134 N   0  0  0  0  0  0  0  0  0  0  0  0
    3.9613    1.1399    0.5944 C   0  0  0  0  0  0  0  0  0  0  0  0
    3.0574   -0.0801    0.3342 C   0  0  0  0  0  0  0  0  0  0  0  0
   -0.2093   -1.5353   -1.5590 C   0  0  0  0  0  0  0  0  0  0  0  0
   -1.3916   -1.9957   -0.9535 C   0  0  0  0  0  0  0  0  0  0  0  0
   -2.3669   -0.1477   -2.8920 H   0  0  0  0  0  0  0  0  0  0  0  0
   -3.7473   -1.1773   -3.2924 H   0  0  0  0  0  0  0  0  0  0  0  0
   -2.1204   -1.8018   -3.5563 H   0  0  0  0  0  0  0  0  0  0  0  0
   -4.6667   -2.1590    2.5206 H   0  0  0  0  0  0  0  0  0  0  0  0
   -4.3203    0.8604    1.0639 H   0  0  0  0  0  0  0  0  0  0  0  0
   -6.0575    2.5701    0.7154 H   0  0  0  0  0  0  0  0  0  0  0  0
   -9.1109   -0.4589    1.0835 H   0  0  0  0  0  0  0  0  0  0  0  0
   -7.3720   -2.1648    1.4264 H   0  0  0  0  0  0  0  0  0  0  0  0
    0.0767   -3.7070    1.6294 H   0  0  0  0  0  0  0  0  0  0  0  0
    2.1220   -2.8896    0.5339 H   0  0  0  0  0  0  0  0  0  0  0  0
    4.6737   -0.9508   -2.5210 H   0  0  0  0  0  0  0  0  0  0  0  0
    4.1823    0.7186   -2.2250 H   0  0  0  0  0  0  0  0  0  0  0  0
    6.4617    0.3960   -1.4428 H   0  0  0  0  0  0  0  0  0  0  0  0
    6.0089   -1.0125   -0.4719 H   0  0  0  0  0  0  0  0  0  0  0  0
    8.0448    0.5678    0.3106 H   0  0  0  0  0  0  0  0  0  0  0  0
    9.6490    2.3223    0.9745 H   0  0  0  0  0  0  0  0  0  0  0  0
    8.7853    4.5106    1.8185 H   0  0  0  0  0  0  0  0  0  0  0  0
    6.3099    4.8142    1.9540 H   0  0  0  0  0  0  0  0  0  0  0  0
    3.6602    1.9643   -0.0653 H   0  0  0  0  0  0  0  0  0  0  0  0
    3.8054    1.4559    1.6335 H   0  0  0  0  0  0  0  0  0  0  0  0
    3.3021   -0.8685    1.0550 H   0  0  0  0  0  0  0  0  0  0  0  0
    2.0088    0.2029    0.4748 H   0  0  0  0  0  0  0  0  0  0  0  0
   -0.2302   -0.9383   -2.4673 H   0  0  0  0  0  0  0  0  0  0  0  0
  1  2  1  0
  2  3  1  0
  3  4  2  0
  3  5  1  0
  5  6  2  3
  6  7  1  0
  7  8  2  0
  8  9  1  0
  9 10  2  0
 10 11  1  0
 11 12  1  0
 11 13  1  0
 11 14  1  0
 10 15  1  0
 15 16  2  0
  5 17  1  0
 17 18  1  0
 18 19  2  0
 19 20  1  0
 20 21  2  0
 21 22  1  0
 22 23  2  0
 22 24  1  0
 24 25  1  0
 25 26  1  0
 26 27  1  0
 27 28  1  0
 28 29  2  0
 29 30  1  0
 30 31  2  0
 31 32  1  0
 32 33  2  0
 27 34  1  0
 34 35  1  0
 21 36  1  0
 36 37  2  0
 37  2  1  0
 16  7  1  0
 37 18  1  0
 35 24  1  0
 33 28  1  0
  1 38  1  0
  1 39  1  0
  1 40  1  0
  6 41  1  0
  8 42  1  0
  9 43  1  0
 15 44  1  0
 16 45  1  0
 19 46  1  0
 20 47  1  0
 25 48  1  0
 25 49  1  0
 26 50  1  0
 26 51  1  0
 29 52  1  0
 30 53  1  0
 31 54  1  0
 32 55  1  0
 34 56  1  0
 34 57  1  0
 35 58  1  0
 35 59  1  0
 36 60  1  0
M  END
$$$$
