
     RDKit          3D

 58 62  0  0  0  0  0  0  0  0999 V2000
    8.8314    0.0098    1.8651 C   0  0  0  0  0  0  0  0  0  0  0  0
    7.7648   -0.2090    2.7795 O   0  0  0  0  0  0  0  0  0  0  0  0
    6.4990   -0.2491    2.2624 C   0  0  0  0  0  0  0  0  0  0  0  0
    5.4936   -0.4715    3.2080 C   0  0  0  0  0  0  0  0  0  0  0  0
    4.1516   -0.5369    2.8224 C   0  0  0  0  0  0  0  0  0  0  0  0
    3.7910   -0.3818    1.4850 C   0  0  0  0  0  0  0  0  0  0  0  0
    2.4267   -0.4434    1.1497 N   0  0  0  0  0  0  0  0  0  0  0  0
    2.0268   -0.2876   -0.0891 C   0  0  0  0  0  0  0  0  0  0  0  0
    0.6577   -0.3199   -0.3411 N   0  0  0  0  0  0  0  0  0  0  0  0
    0.0336    0.5827   -1.3207 C   0  0  0  0  0  0  0  0  0  0  0  0
   -1.3070    1.1556   -0.8105 C   0  0  0  0  0  0  0  0  0  0  0  0
   -2.3158    0.1486   -0.4148 N   0  0  0  0  0  0  0  0  0  0  0  0
   -3.2341   -0.1690   -1.5246 C   0  0  0  0  0  0  0  0  0  0  0  0
   -4.4715   -0.9954   -1.1149 C   0  0  0  0  0  0  0  0  0  0  0  0
   -5.5259   -0.1889   -0.3787 C   0  0  0  0  0  0  0  0  0  0  0  0
   -5.3853   -0.0136    1.0093 C   0  0  0  0  0  0  0  0  0  0  0  0
   -6.3180    0.7201    1.7412 C   0  0  0  0  0  0  0  0  0  0  0  0
   -7.4088    1.2929    1.0990 C   0  0  0  0  0  0  0  0  0  0  0  0
   -7.5640    1.1357   -0.2776 C   0  0  0  0  0  0  0  0  0  0  0  0
   -6.6297    0.4034   -1.0369 C   0  0  0  0  0  0  0  0  0  0  0  0
   -6.8523    0.2602   -2.5267 C   0  0  0  0  0  0  0  0  0  0  0  0
   -7.1709   -1.0146   -2.8878 F   0  0  0  0  0  0  0  0  0  0  0  0
   -5.7552    0.5937   -3.2644 F   0  0  0  0  0  0  0  0  0  0  0  0
   -7.8625    1.0404   -3.0077 F   0  0  0  0  0  0  0  0  0  0  0  0
   -1.6606   -1.0669    0.1261 C   0  0  0  0  0  0  0  0  0  0  0  0
   -0.2520   -0.8209    0.7056 C   0  0  0  0  0  0  0  0  0  0  0  0
    3.0408   -0.1044   -1.1207 C   0  0  0  0  0  0  0  0  0  0  0  0
    2.9605   -0.0339   -2.5013 C   0  0  0  0  0  0  0  0  0  0  0  0
    4.2677    0.1585   -3.0047 C   0  0  0  0  0  0  0  0  0  0  0  0
    5.1215    0.1698   -1.9245 C   0  0  0  0  0  0  0  0  0  0  0  0
    4.3768   -0.0256   -0.7851 N   0  0  0  0  0  0  0  0  0  0  0  0
    4.8055   -0.1591    0.5463 C   0  0  0  0  0  0  0  0  0  0  0  0
    6.1553   -0.0918    0.9190 C   0  0  0  0  0  0  0  0  0  0  0  0
    8.7378    0.9848    1.3756 H   0  0  0  0  0  0  0  0  0  0  0  0
    9.7655    0.0120    2.4352 H   0  0  0  0  0  0  0  0  0  0  0  0
    8.8925   -0.7988    1.1292 H   0  0  0  0  0  0  0  0  0  0  0  0
    5.7561   -0.5943    4.2560 H   0  0  0  0  0  0  0  0  0  0  0  0
    3.3807   -0.7078    3.5687 H   0  0  0  0  0  0  0  0  0  0  0  0
   -0.1366    0.0331   -2.2533 H   0  0  0  0  0  0  0  0  0  0  0  0
    0.6926    1.4304   -1.5406 H   0  0  0  0  0  0  0  0  0  0  0  0
   -1.0999    1.7673    0.0779 H   0  0  0  0  0  0  0  0  0  0  0  0
   -1.7129    1.8560   -1.5507 H   0  0  0  0  0  0  0  0  0  0  0  0
   -2.6909   -0.7094   -2.3109 H   0  0  0  0  0  0  0  0  0  0  0  0
   -3.5895    0.7648   -1.9785 H   0  0  0  0  0  0  0  0  0  0  0  0
   -4.9101   -1.4350   -2.0179 H   0  0  0  0  0  0  0  0  0  0  0  0
   -4.1875   -1.8629   -0.5062 H   0  0  0  0  0  0  0  0  0  0  0  0
   -4.5330   -0.4456    1.5305 H   0  0  0  0  0  0  0  0  0  0  0  0
   -6.1880    0.8456    2.8131 H   0  0  0  0  0  0  0  0  0  0  0  0
   -8.1371    1.8647    1.6685 H   0  0  0  0  0  0  0  0  0  0  0  0
   -8.4258    1.5940   -0.7620 H   0  0  0  0  0  0  0  0  0  0  0  0
   -2.2956   -1.4884    0.9130 H   0  0  0  0  0  0  0  0  0  0  0  0
   -1.5635   -1.8309   -0.6574 H   0  0  0  0  0  0  0  0  0  0  0  0
    0.1261   -1.7714    1.1012 H   0  0  0  0  0  0  0  0  0  0  0  0
   -0.3030   -0.1068    1.5370 H   0  0  0  0  0  0  0  0  0  0  0  0
    2.0602   -0.1151   -3.0934 H   0  0  0  0  0  0  0  0  0  0  0  0
    4.5577    0.2647   -4.0422 H   0  0  0  0  0  0  0  0  0  0  0  0
    6.1951    0.2824   -1.8940 H   0  0  0  0  0  0  0  0  0  0  0  0
    6.9189    0.0788    0.1718 H   0  0  0  0  0  0  0  0  0  0  0  0
  1  2  1  0
  2  3  1  0
  3  4  2  0
  4  5  1  0
  5  6  2  0
  6  7  1  0
  7  8  2  0
  8  9  1  0
  9 10  1  0
 10 11  1  0
 11 12  1  0
 12 13  1  0
 13 14  1  0
 14 15  1  0
 15 16  2  0
 16 17  1  0
 17 18  2  0
 18 19  1  0
 19 20  2  0
 20 21  1  0
 21 22  1  0
 21 23  1  0
 21 24  1  0
 12 25  1  0
 25 26  1  0
  8 27  1  0
 27 28  2  0
 28 29  1  0
 29 30  2  0
 30 31  1  0
 31 32  1  0
 32 33  2  0
 33  3  1  0
 32  6  1  0
 26  9  1  0
 31 27  1  0
 20 15  1  0
  1 34  1  0
  1 35  1  0
  1 36  1  0
  4 37  1  0
  5 38  1  0
 10 39  1  0
 10 40  1  0
 11 41  1  0
 11 42  1  0
 13 43  1  0
 13 44  1  0
 14 45  1  0
 14 46  1  0
 16 47  1  0
 17 48  1  0
 18 49  1  0
 19 50  1  0
 25 51  1  0
 25 52  1  0
 26 53  1  0
 26 54  1  0
 28 55  1  0
 29 56  1  0
 30 57  1  0
 33 58  1  0
M  END
$$$$
