
     RDKit          3D

 27 27  0  0  0  0  0  0  0  0999 V2000
    2.7137   -0.7081   -2.4377 C   0  0  0  0  0  0  0  0  0  0  0  0
    1.8673   -0.3232   -1.2847 C   0  0  0  0  0  0  0  0  0  0  0  0
    2.2611    0.2329   -0.0609 C   0  0  0  0  0  0  0  0  0  0  0  0
    1.1023    0.4112    0.6830 C   0  0  0  0  0  0  0  0  0  0  0  0
    1.0087    0.9546    2.0095 C   0  0  0  0  0  0  0  0  0  0  0  0
    0.0275    1.1355    2.7111 O   0  0  0  0  0  0  0  0  0  0  0  0
    2.2279    1.2931    2.4865 O   0  0  0  0  0  0  0  0  0  0  0  0
    0.0815   -0.0475   -0.1361 N   0  0  0  0  0  0  0  0  0  0  0  0
   -1.3801   -0.1179    0.0954 C   0  0  0  0  0  0  0  0  0  0  0  0
   -2.1220   -0.7173   -1.1368 C   0  0  0  0  0  0  0  0  0  0  0  0
   -1.9741    1.2890    0.2975 C   0  0  0  0  0  0  0  0  0  0  0  0
   -1.7066   -1.0525    1.2755 C   0  0  0  0  0  0  0  0  0  0  0  0
    0.5485   -0.4933   -1.3312 N   0  0  0  0  0  0  0  0  0  0  0  0
    3.7704   -0.5038   -2.2375 H   0  0  0  0  0  0  0  0  0  0  0  0
    2.4240   -0.1465   -3.3317 H   0  0  0  0  0  0  0  0  0  0  0  0
    2.6102   -1.7770   -2.6507 H   0  0  0  0  0  0  0  0  0  0  0  0
    3.2658    0.4800    0.2558 H   0  0  0  0  0  0  0  0  0  0  0  0
    2.0281    1.6428    3.3784 H   0  0  0  0  0  0  0  0  0  0  0  0
   -1.9676   -0.1089   -2.0361 H   0  0  0  0  0  0  0  0  0  0  0  0
   -3.2034   -0.7675   -0.9613 H   0  0  0  0  0  0  0  0  0  0  0  0
   -1.7817   -1.7365   -1.3563 H   0  0  0  0  0  0  0  0  0  0  0  0
   -3.0658    1.2455    0.3886 H   0  0  0  0  0  0  0  0  0  0  0  0
   -1.6056    1.7896    1.1929 H   0  0  0  0  0  0  0  0  0  0  0  0
   -1.7371    1.9388   -0.5534 H   0  0  0  0  0  0  0  0  0  0  0  0
   -1.2813   -2.0501    1.1127 H   0  0  0  0  0  0  0  0  0  0  0  0
   -2.7900   -1.1688    1.3970 H   0  0  0  0  0  0  0  0  0  0  0  0
   -1.3218   -0.6942    2.2304 H   0  0  0  0  0  0  0  0  0  0  0  0
  1  2  1  0
  2  3  1  0
  3  4  2  0
  4  5  1  0
  5  6  2  0
  5  7  1  0
  4  8  1  0
  8  9  1  0
  9 10  1  0
  9 11  1  0
  9 12  1  0
  8 13  1  0
 13  2  2  0
  1 14  1  0
  1 15  1  0
  1 16  1  0
  3 17  1  0
  7 18  1  0
 10 19  1  0
 10 20  1  0
 10 21  1  0
 11 22  1  0
 11 23  1  0
 11 24  1  0
 12 25  1  0
 12 26  1  0
 12 27  1  0
M  END
$$$$
