
     RDKit          3D

 54 57  0  0  0  0  0  0  0  0999 V2000
   -6.3304   -0.3763    0.6354 C   0  0  0  0  0  0  0  0  0  0  0  0
   -5.9873    0.8312   -0.0309 O   0  0  0  0  0  0  0  0  0  0  0  0
   -4.6531    1.1218   -0.1562 C   0  0  0  0  0  0  0  0  0  0  0  0
   -3.6120    0.2372    0.1392 C   0  0  0  0  0  0  0  0  0  0  0  0
   -2.2584    0.6043   -0.0150 C   0  0  0  0  0  0  0  0  0  0  0  0
   -1.1844   -0.3622    0.3063 C   0  0  0  0  0  0  0  0  0  0  0  0
    0.0421   -0.3764   -0.3333 C   0  0  0  0  0  0  0  0  0  0  0  0
    0.9884   -1.3250    0.0588 C   0  0  0  0  0  0  0  0  0  0  0  0
    2.3050   -1.2481   -0.6157 C   0  0  0  0  0  0  0  0  0  0  0  0
    2.3282   -1.3115   -1.8371 O   0  0  0  0  0  0  0  0  0  0  0  0
    3.3661   -1.0459    0.2453 N   0  0  0  0  0  0  0  0  0  0  0  0
    4.7313   -0.9399   -0.0895 C   0  0  0  0  0  0  0  0  0  0  0  0
    5.6303   -0.7052    0.9597 C   0  0  0  0  0  0  0  0  0  0  0  0
    7.0002   -0.5932    0.7105 C   0  0  0  0  0  0  0  0  0  0  0  0
    7.4742   -0.7167   -0.5880 C   0  0  0  0  0  0  0  0  0  0  0  0
    8.8167   -0.6016   -0.7892 O   0  0  0  0  0  0  0  0  0  0  0  0
    6.5993   -0.9514   -1.6416 C   0  0  0  0  0  0  0  0  0  0  0  0
    5.2271   -1.0632   -1.3898 C   0  0  0  0  0  0  0  0  0  0  0  0
    0.6953   -2.2895    1.0461 C   0  0  0  0  0  0  0  0  0  0  0  0
    1.5634   -3.3364    1.4526 C   0  0  0  0  0  0  0  0  0  0  0  0
    1.1873   -4.2364    2.4474 C   0  0  0  0  0  0  0  0  0  0  0  0
   -0.0590   -4.1120    3.0430 C   0  0  0  0  0  0  0  0  0  0  0  0
   -0.9244   -3.0965    2.6302 C   0  0  0  0  0  0  0  0  0  0  0  0
   -0.5756   -2.1897    1.6383 C   0  0  0  0  0  0  0  0  0  0  0  0
   -1.4748   -1.2553    1.2854 N   0  0  0  0  0  0  0  0  0  0  0  0
   -1.9778    1.9096   -0.4685 C   0  0  0  0  0  0  0  0  0  0  0  0
   -3.0014    2.8128   -0.7759 C   0  0  0  0  0  0  0  0  0  0  0  0
   -2.8078    4.0936   -1.2262 O   0  0  0  0  0  0  0  0  0  0  0  0
   -1.4793    4.5956   -1.2377 C   0  0  0  0  0  0  0  0  0  0  0  0
   -4.3354    2.4005   -0.6358 C   0  0  0  0  0  0  0  0  0  0  0  0
   -5.3483    3.2979   -0.8966 O   0  0  0  0  0  0  0  0  0  0  0  0
   -5.7665    3.1714   -2.2544 C   0  0  0  0  0  0  0  0  0  0  0  0
   -6.0331   -1.2481    0.0438 H   0  0  0  0  0  0  0  0  0  0  0  0
   -7.4195   -0.4022    0.7396 H   0  0  0  0  0  0  0  0  0  0  0  0
   -5.8995   -0.4137    1.6416 H   0  0  0  0  0  0  0  0  0  0  0  0
   -3.8271   -0.7678    0.4928 H   0  0  0  0  0  0  0  0  0  0  0  0
    0.2768    0.3214   -1.1309 H   0  0  0  0  0  0  0  0  0  0  0  0
    3.1442   -0.9402    1.2286 H   0  0  0  0  0  0  0  0  0  0  0  0
    5.2817   -0.6051    1.9841 H   0  0  0  0  0  0  0  0  0  0  0  0
    7.6934   -0.4099    1.5264 H   0  0  0  0  0  0  0  0  0  0  0  0
    8.9963   -0.6981   -1.7392 H   0  0  0  0  0  0  0  0  0  0  0  0
    6.9568   -1.0515   -2.6617 H   0  0  0  0  0  0  0  0  0  0  0  0
    4.5707   -1.2495   -2.2343 H   0  0  0  0  0  0  0  0  0  0  0  0
    2.5352   -3.4735    0.9811 H   0  0  0  0  0  0  0  0  0  0  0  0
    1.8613   -5.0352    2.7475 H   0  0  0  0  0  0  0  0  0  0  0  0
   -0.3690   -4.8073    3.8191 H   0  0  0  0  0  0  0  0  0  0  0  0
   -1.9055   -3.0143    3.0937 H   0  0  0  0  0  0  0  0  0  0  0  0
   -0.9418    2.2165   -0.5645 H   0  0  0  0  0  0  0  0  0  0  0  0
   -0.8619    4.0552   -1.9626 H   0  0  0  0  0  0  0  0  0  0  0  0
   -1.5200    5.6429   -1.5522 H   0  0  0  0  0  0  0  0  0  0  0  0
   -1.0342    4.5656   -0.2376 H   0  0  0  0  0  0  0  0  0  0  0  0
   -4.9453    3.3839   -2.9476 H   0  0  0  0  0  0  0  0  0  0  0  0
   -6.5554    3.9087   -2.4310 H   0  0  0  0  0  0  0  0  0  0  0  0
   -6.1831    2.1780   -2.4537 H   0  0  0  0  0  0  0  0  0  0  0  0
  1  2  1  0
  2  3  1  0
  3  4  2  0
  4  5  1  0
  5  6  1  0
  6  7  2  0
  7  8  1  0
  8  9  1  0
  9 10  2  0
  9 11  1  0
 11 12  1  0
 12 13  2  0
 13 14  1  0
 14 15  2  0
 15 16  1  0
 15 17  1  0
 17 18  2  0
  8 19  2  0
 19 20  1  0
 20 21  2  0
 21 22  1  0
 22 23  2  0
 23 24  1  0
 24 25  2  0
  5 26  2  0
 26 27  1  0
 27 28  1  0
 28 29  1  0
 27 30  2  0
 30 31  1  0
 31 32  1  0
 30  3  1  0
 25  6  1  0
 18 12  1  0
 24 19  1  0
  1 33  1  0
  1 34  1  0
  1 35  1  0
  4 36  1  0
  7 37  1  0
 11 38  1  0
 13 39  1  0
 14 40  1  0
 16 41  1  0
 17 42  1  0
 18 43  1  0
 20 44  1  0
 21 45  1  0
 22 46  1  0
 23 47  1  0
 26 48  1  0
 29 49  1  0
 29 50  1  0
 29 51  1  0
 32 52  1  0
 32 53  1  0
 32 54  1  0
M  END
$$$$
