
     RDKit          3D

 70 75  0  0  0  0  0  0  0  0999 V2000
    1.6942   -0.2740    2.6590 O   0  0  0  0  0  0  0  0  0  0  0  0
    1.4901    0.6824    1.6024 C   0  0  0  0  0  0  0  0  0  0  0  0
    2.5337    0.4497    0.4940 C   0  0  0  0  0  0  0  0  0  0  0  0
    3.8698    0.6785    1.0304 N   0  0  0  0  0  0  0  0  0  0  0  0
    4.9972    0.5315    0.2571 C   0  0  0  0  0  0  0  0  0  0  0  0
    4.8841    0.4679   -1.0438 N   0  0  0  0  0  0  0  0  0  0  0  0
    6.0290    0.3151   -1.8504 C   0  0  0  0  0  0  0  0  0  0  0  0
    5.8583    0.2519   -3.2342 C   0  0  0  0  0  0  0  0  0  0  0  0
    6.9590    0.0994   -4.0818 C   0  0  0  0  0  0  0  0  0  0  0  0
    8.2460    0.0113   -3.5490 C   0  0  0  0  0  0  0  0  0  0  0  0
    8.4405    0.0700   -2.1684 C   0  0  0  0  0  0  0  0  0  0  0  0
    7.3298    0.2215   -1.3333 C   0  0  0  0  0  0  0  0  0  0  0  0
    7.4328    0.2928    0.0660 N   0  0  0  0  0  0  0  0  0  0  0  0
    8.5473    0.2344    0.8689 C   0  0  0  0  0  0  0  0  0  0  0  0
    8.1400    0.3630    2.1803 C   0  0  0  0  0  0  0  0  0  0  0  0
    6.7306    0.4985    2.1736 C   0  0  0  0  0  0  0  0  0  0  0  0
    6.3150    0.4456    0.8546 C   0  0  0  0  0  0  0  0  0  0  0  0
    0.0420    0.6017    1.0708 C   0  0  0  0  0  0  0  0  0  0  0  0
   -0.2702   -0.7338    0.5135 N   0  0  0  0  0  0  0  0  0  0  0  0
   -1.0130   -0.6235   -0.7657 C   0  0  0  0  0  0  0  0  0  0  0  0
   -2.4788   -0.1452   -0.6220 C   0  0  0  0  0  0  0  0  0  0  0  0
   -3.2405   -1.0381    0.2645 N   0  0  0  0  0  0  0  0  0  0  0  0
   -4.6939   -0.7491    0.3729 C   0  0  0  0  0  0  0  0  0  0  0  0
   -5.0246    0.7045    0.7477 C   0  0  0  0  0  0  0  0  0  0  0  0
   -5.1273    1.7208   -0.2222 C   0  0  0  0  0  0  0  0  0  0  0  0
   -5.4351    3.0330    0.1453 C   0  0  0  0  0  0  0  0  0  0  0  0
   -5.6486    3.3495    1.4858 C   0  0  0  0  0  0  0  0  0  0  0  0
   -5.5528    2.3582    2.4611 C   0  0  0  0  0  0  0  0  0  0  0  0
   -5.2415    1.0455    2.0962 C   0  0  0  0  0  0  0  0  0  0  0  0
   -5.5362   -1.3048   -0.7955 C   0  0  0  0  0  0  0  0  0  0  0  0
   -6.9246   -1.0591   -0.8339 C   0  0  0  0  0  0  0  0  0  0  0  0
   -7.7260   -1.5797   -1.8539 C   0  0  0  0  0  0  0  0  0  0  0  0
   -7.1613   -2.3755   -2.8462 C   0  0  0  0  0  0  0  0  0  0  0  0
   -5.7984   -2.6600   -2.8111 C   0  0  0  0  0  0  0  0  0  0  0  0
   -4.9956   -2.1388   -1.7906 C   0  0  0  0  0  0  0  0  0  0  0  0
   -2.5741   -1.1408    1.5726 C   0  0  0  0  0  0  0  0  0  0  0  0
   -1.0851   -1.5532    1.4436 C   0  0  0  0  0  0  0  0  0  0  0  0
    1.5139   -1.1424    2.2457 H   0  0  0  0  0  0  0  0  0  0  0  0
    1.6421    1.6736    2.0461 H   0  0  0  0  0  0  0  0  0  0  0  0
    2.3465    1.1300   -0.3444 H   0  0  0  0  0  0  0  0  0  0  0  0
    2.4789   -0.5823    0.1326 H   0  0  0  0  0  0  0  0  0  0  0  0
    3.9587    0.4343    2.0142 H   0  0  0  0  0  0  0  0  0  0  0  0
    4.8559    0.3250   -3.6488 H   0  0  0  0  0  0  0  0  0  0  0  0
    6.8102    0.0519   -5.1561 H   0  0  0  0  0  0  0  0  0  0  0  0
    9.0993   -0.1043   -4.2128 H   0  0  0  0  0  0  0  0  0  0  0  0
    9.4497   -0.0020   -1.7766 H   0  0  0  0  0  0  0  0  0  0  0  0
    9.5403    0.1123    0.4601 H   0  0  0  0  0  0  0  0  0  0  0  0
    8.7915    0.3612    3.0456 H   0  0  0  0  0  0  0  0  0  0  0  0
    6.0931    0.6244    3.0389 H   0  0  0  0  0  0  0  0  0  0  0  0
   -0.0669    1.3844    0.3086 H   0  0  0  0  0  0  0  0  0  0  0  0
   -0.6481    0.8649    1.8812 H   0  0  0  0  0  0  0  0  0  0  0  0
   -0.4741    0.0374   -1.4567 H   0  0  0  0  0  0  0  0  0  0  0  0
   -1.0077   -1.6102   -1.2492 H   0  0  0  0  0  0  0  0  0  0  0  0
   -2.9224   -0.1222   -1.6231 H   0  0  0  0  0  0  0  0  0  0  0  0
   -2.4731    0.8833   -0.2418 H   0  0  0  0  0  0  0  0  0  0  0  0
   -5.0601   -1.3725    1.2047 H   0  0  0  0  0  0  0  0  0  0  0  0
   -4.9751    1.4942   -1.2753 H   0  0  0  0  0  0  0  0  0  0  0  0
   -5.5142    3.8066   -0.6160 H   0  0  0  0  0  0  0  0  0  0  0  0
   -5.8923    4.3698    1.7701 H   0  0  0  0  0  0  0  0  0  0  0  0
   -5.7263    2.6081    3.5073 H   0  0  0  0  0  0  0  0  0  0  0  0
   -5.1737    0.2854    2.8729 H   0  0  0  0  0  0  0  0  0  0  0  0
   -7.3961   -0.4541   -0.0601 H   0  0  0  0  0  0  0  0  0  0  0  0
   -8.7921   -1.3663   -1.8665 H   0  0  0  0  0  0  0  0  0  0  0  0
   -7.7855   -2.7836   -3.6373 H   0  0  0  0  0  0  0  0  0  0  0  0
   -5.3565   -3.2967   -3.5731 H   0  0  0  0  0  0  0  0  0  0  0  0
   -3.9400   -2.4018   -1.7778 H   0  0  0  0  0  0  0  0  0  0  0  0
   -3.0729   -1.9023    2.1835 H   0  0  0  0  0  0  0  0  0  0  0  0
   -2.6380   -0.1934    2.1207 H   0  0  0  0  0  0  0  0  0  0  0  0
   -1.0444   -2.5924    1.0884 H   0  0  0  0  0  0  0  0  0  0  0  0
   -0.6324   -1.5712    2.4420 H   0  0  0  0  0  0  0  0  0  0  0  0
  1  2  1  0
  2  3  1  0
  3  4  1  0
  4  5  1  0
  5  6  2  0
  6  7  1  0
  7  8  2  0
  8  9  1  0
  9 10  2  0
 10 11  1  0
 11 12  2  0
 12 13  1  0
 13 14  1  0
 14 15  2  0
 15 16  1  0
 16 17  2  0
  2 18  1  0
 18 19  1  0
 19 20  1  0
 20 21  1  0
 21 22  1  0
 22 23  1  0
 23 24  1  0
 24 25  2  0
 25 26  1  0
 26 27  2  0
 27 28  1  0
 28 29  2  0
 23 30  1  0
 30 31  2  0
 31 32  1  0
 32 33  2  0
 33 34  1  0
 34 35  2  0
 22 36  1  0
 36 37  1  0
 17  5  1  0
 37 19  1  0
 12  7  1  0
 17 13  1  0
 29 24  1  0
 35 30  1  0
  1 38  1  0
  2 39  1  0
  3 40  1  0
  3 41  1  0
  4 42  1  0
  8 43  1  0
  9 44  1  0
 10 45  1  0
 11 46  1  0
 14 47  1  0
 15 48  1  0
 16 49  1  0
 18 50  1  0
 18 51  1  0
 20 52  1  0
 20 53  1  0
 21 54  1  0
 21 55  1  0
 23 56  1  0
 25 57  1  0
 26 58  1  0
 27 59  1  0
 28 60  1  0
 29 61  1  0
 31 62  1  0
 32 63  1  0
 33 64  1  0
 34 65  1  0
 35 66  1  0
 36 67  1  0
 36 68  1  0
 37 69  1  0
 37 70  1  0
M  END
$$$$
