
     RDKit          3D

 47 50  0  0  0  0  0  0  0  0999 V2000
   -2.6120   -3.3780   -0.0267 C   0  0  0  0  0  0  0  0  0  0  0  0
   -1.5618   -2.3402    0.2502 C   0  0  0  0  0  0  0  0  0  0  0  0
   -0.3509   -2.7425    0.5203 N   0  0  0  0  0  0  0  0  0  0  0  0
    0.6689   -1.8201    0.7799 N   0  0  0  0  0  0  0  0  0  0  0  0
    2.0003   -2.3628    0.9886 C   0  0  0  0  0  0  0  0  0  0  0  0
    2.8425   -2.2467   -0.2847 C   0  0  0  0  0  0  0  0  0  0  0  0
    2.3733   -2.0423   -1.4017 O   0  0  0  0  0  0  0  0  0  0  0  0
    4.1950   -2.4424   -0.0666 N   0  0  0  0  0  0  0  0  0  0  0  0
    5.1625   -2.2159   -1.1183 C   0  0  0  0  0  0  0  0  0  0  0  0
    5.7429   -0.8496   -0.9302 C   0  0  0  0  0  0  0  0  0  0  0  0
    5.1418    0.3724   -1.1669 C   0  0  0  0  0  0  0  0  0  0  0  0
    5.9999    1.4677   -0.8637 C   0  0  0  0  0  0  0  0  0  0  0  0
    7.2295    1.0478   -0.4094 C   0  0  0  0  0  0  0  0  0  0  0  0
    7.3425   -0.6571   -0.3458 S   0  0  0  0  0  0  0  0  0  0  0  0
    0.5178   -0.4202    0.8038 C   0  0  0  0  0  0  0  0  0  0  0  0
    1.4398    0.3536    1.0572 O   0  0  0  0  0  0  0  0  0  0  0  0
   -0.8444    0.0016    0.5087 C   0  0  0  0  0  0  0  0  0  0  0  0
   -1.2883    1.2582    0.4421 N   0  0  0  0  0  0  0  0  0  0  0  0
   -2.6245    1.1506    0.2068 N   0  0  0  0  0  0  0  0  0  0  0  0
   -3.4264    2.3325    0.2820 C   0  0  0  0  0  0  0  0  0  0  0  0
   -4.8160    2.2892    0.4472 C   0  0  0  0  0  0  0  0  0  0  0  0
   -5.5560    3.4747    0.5234 C   0  0  0  0  0  0  0  0  0  0  0  0
   -4.9171    4.7102    0.4487 C   0  0  0  0  0  0  0  0  0  0  0  0
   -3.5336    4.7663    0.3105 C   0  0  0  0  0  0  0  0  0  0  0  0
   -2.7904    3.5859    0.2353 C   0  0  0  0  0  0  0  0  0  0  0  0
   -2.9787   -0.1764   -0.0687 C   0  0  0  0  0  0  0  0  0  0  0  0
   -4.2856   -0.6045   -0.6308 C   0  0  0  0  0  0  0  0  0  0  0  0
   -1.8530   -0.9267    0.2296 C   0  0  0  0  0  0  0  0  0  0  0  0
   -2.2474   -4.3712    0.2523 H   0  0  0  0  0  0  0  0  0  0  0  0
   -2.8466   -3.3831   -1.0944 H   0  0  0  0  0  0  0  0  0  0  0  0
   -3.5163   -3.1660    0.5495 H   0  0  0  0  0  0  0  0  0  0  0  0
    2.4901   -1.8137    1.8002 H   0  0  0  0  0  0  0  0  0  0  0  0
    1.9257   -3.4189    1.2688 H   0  0  0  0  0  0  0  0  0  0  0  0
    4.5439   -2.3995    0.8816 H   0  0  0  0  0  0  0  0  0  0  0  0
    4.6967   -2.3023   -2.1055 H   0  0  0  0  0  0  0  0  0  0  0  0
    5.9227   -2.9990   -1.0317 H   0  0  0  0  0  0  0  0  0  0  0  0
    4.1247    0.4726   -1.5321 H   0  0  0  0  0  0  0  0  0  0  0  0
    5.7250    2.5099   -0.9712 H   0  0  0  0  0  0  0  0  0  0  0  0
    8.0679    1.6607   -0.1084 H   0  0  0  0  0  0  0  0  0  0  0  0
   -5.3582    1.3598    0.5696 H   0  0  0  0  0  0  0  0  0  0  0  0
   -6.6346    3.4328    0.6560 H   0  0  0  0  0  0  0  0  0  0  0  0
   -5.4951    5.6286    0.5113 H   0  0  0  0  0  0  0  0  0  0  0  0
   -3.0274    5.7273    0.2637 H   0  0  0  0  0  0  0  0  0  0  0  0
   -1.7087    3.6605    0.1276 H   0  0  0  0  0  0  0  0  0  0  0  0
   -4.1681   -1.4876   -1.2649 H   0  0  0  0  0  0  0  0  0  0  0  0
   -4.7242    0.1610   -1.2775 H   0  0  0  0  0  0  0  0  0  0  0  0
   -4.9883   -0.8573    0.1686 H   0  0  0  0  0  0  0  0  0  0  0  0
  1  2  1  0
  2  3  2  0
  3  4  1  0
  4  5  1  0
  5  6  1  0
  6  7  2  0
  6  8  1  0
  8  9  1  0
  9 10  1  0
 10 11  2  0
 11 12  1  0
 12 13  2  0
 13 14  1  0
  4 15  1  0
 15 16  2  0
 15 17  1  0
 17 18  2  0
 18 19  1  0
 19 20  1  0
 20 21  2  0
 21 22  1  0
 22 23  2  0
 23 24  1  0
 24 25  2  0
 19 26  1  0
 26 27  1  0
 26 28  2  0
 28  2  1  0
 14 10  1  0
 28 17  1  0
 25 20  1  0
  1 29  1  0
  1 30  1  0
  1 31  1  0
  5 32  1  0
  5 33  1  0
  8 34  1  0
  9 35  1  0
  9 36  1  0
 11 37  1  0
 12 38  1  0
 13 39  1  0
 21 40  1  0
 22 41  1  0
 23 42  1  0
 24 43  1  0
 25 44  1  0
 27 45  1  0
 27 46  1  0
 27 47  1  0
M  END
$$$$
