
     RDKit          3D

 31 32  0  0  0  0  0  0  0  0999 V2000
    3.8126   -0.4003    1.8121 C   0  0  0  0  0  0  0  0  0  0  0  0
    3.1709    0.4935    0.7606 C   0  0  0  0  0  0  0  0  0  0  0  0
    2.6787   -0.2673   -0.3848 N   0  0  0  0  0  0  0  0  0  0  0  0
    1.3957   -0.5935   -0.7187 C   0  0  0  0  0  0  0  0  0  0  0  0
    0.2179   -0.3318    0.0868 C   0  0  0  0  0  0  0  0  0  0  0  0
    0.1373   -0.4122    1.4630 C   0  0  0  0  0  0  0  0  0  0  0  0
   -1.4163   -0.0420    2.0728 S   0  0  0  0  0  0  0  0  0  0  0  0
   -2.0504    0.1871    0.5010 C   0  0  0  0  0  0  0  0  0  0  0  0
   -3.5057    0.5478    0.3147 C   0  0  0  0  0  0  0  0  0  0  0  0
   -3.6487    1.9053   -0.3761 C   0  0  0  0  0  0  0  0  0  0  0  0
   -4.2427   -0.5390   -0.4703 C   0  0  0  0  0  0  0  0  0  0  0  0
   -1.0756   -0.0109   -0.4579 C   0  0  0  0  0  0  0  0  0  0  0  0
    1.2660   -1.1639   -1.8849 N   0  0  0  0  0  0  0  0  0  0  0  0
    2.5388   -1.2454   -2.3623 N   0  0  0  0  0  0  0  0  0  0  0  0
    3.4279   -0.6778   -1.4647 C   0  0  0  0  0  0  0  0  0  0  0  0
    5.0552   -0.5532   -1.7545 S   0  0  0  0  0  0  0  0  0  0  0  0
    4.1115    0.1935    2.6814 H   0  0  0  0  0  0  0  0  0  0  0  0
    3.1271   -1.1831    2.1488 H   0  0  0  0  0  0  0  0  0  0  0  0
    4.7059   -0.8977    1.4225 H   0  0  0  0  0  0  0  0  0  0  0  0
    2.3521    1.0677    1.2018 H   0  0  0  0  0  0  0  0  0  0  0  0
    3.9104    1.2202    0.4069 H   0  0  0  0  0  0  0  0  0  0  0  0
    0.9075   -0.6842    2.1677 H   0  0  0  0  0  0  0  0  0  0  0  0
   -3.9913    0.6282    1.2964 H   0  0  0  0  0  0  0  0  0  0  0  0
   -4.7037    2.1883   -0.4576 H   0  0  0  0  0  0  0  0  0  0  0  0
   -3.1338    2.6894    0.1904 H   0  0  0  0  0  0  0  0  0  0  0  0
   -3.2262    1.8930   -1.3871 H   0  0  0  0  0  0  0  0  0  0  0  0
   -4.1547   -1.5106    0.0287 H   0  0  0  0  0  0  0  0  0  0  0  0
   -3.8434   -0.6485   -1.4849 H   0  0  0  0  0  0  0  0  0  0  0  0
   -5.3083   -0.3001   -0.5539 H   0  0  0  0  0  0  0  0  0  0  0  0
   -1.2676    0.0750   -1.5223 H   0  0  0  0  0  0  0  0  0  0  0  0
    2.7534   -1.6276   -3.2756 H   0  0  0  0  0  0  0  0  0  0  0  0
  1  2  1  0
  2  3  1  0
  3  4  1  0
  4  5  1  0
  5  6  2  0
  6  7  1  0
  7  8  1  0
  8  9  1  0
  9 10  1  0
  9 11  1  0
  8 12  2  0
  4 13  2  0
 13 14  1  0
 14 15  1  0
 15 16  2  0
 15  3  1  0
 12  5  1  0
  1 17  1  0
  1 18  1  0
  1 19  1  0
  2 20  1  0
  2 21  1  0
  6 22  1  0
  9 23  1  0
 10 24  1  0
 10 25  1  0
 10 26  1  0
 11 27  1  0
 11 28  1  0
 11 29  1  0
 12 30  1  0
 14 31  1  0
M  END
$$$$
