
     RDKit          3D

 52 54  0  0  0  0  0  0  0  0999 V2000
   -4.4288   -1.0052   -2.3356 C   0  0  0  0  0  0  0  0  0  0  0  0
   -3.8973    0.0865   -1.5289 N   0  0  0  0  0  0  0  0  0  0  0  0
   -4.7850    0.6458   -0.5095 C   0  0  0  0  0  0  0  0  0  0  0  0
   -5.0289   -0.3111    0.6341 C   0  0  0  0  0  0  0  0  0  0  0  0
   -6.2175   -1.0526    0.7074 C   0  0  0  0  0  0  0  0  0  0  0  0
   -6.4313   -1.9449    1.7596 C   0  0  0  0  0  0  0  0  0  0  0  0
   -5.4603   -2.1066    2.7467 C   0  0  0  0  0  0  0  0  0  0  0  0
   -4.2737   -1.3786    2.6820 C   0  0  0  0  0  0  0  0  0  0  0  0
   -4.0581   -0.4861    1.6311 C   0  0  0  0  0  0  0  0  0  0  0  0
   -2.5444    0.4206   -1.4804 C   0  0  0  0  0  0  0  0  0  0  0  0
   -2.0991    1.2503   -0.6843 O   0  0  0  0  0  0  0  0  0  0  0  0
   -1.6184   -0.2925   -2.4696 C   0  0  0  0  0  0  0  0  0  0  0  0
   -0.2718    0.1518   -2.2918 O   0  0  0  0  0  0  0  0  0  0  0  0
    0.6404   -0.4989   -3.0664 C   0  0  0  0  0  0  0  0  0  0  0  0
    0.3750   -1.4269   -3.8190 O   0  0  0  0  0  0  0  0  0  0  0  0
    2.0382    0.0303   -2.8120 C   0  0  0  0  0  0  0  0  0  0  0  0
    2.0163    1.4558   -2.4570 N   0  0  0  0  0  0  0  0  0  0  0  0
    3.4584    2.2704   -2.2559 S   0  0  0  0  0  6  0  0  0  0  0  0
    4.2674    2.0250   -3.4291 O   0  0  0  0  0  0  0  0  0  0  0  0
    3.1313    3.6075   -1.8161 O   0  0  0  0  0  0  0  0  0  0  0  0
    4.1946    1.4184   -0.8855 C   0  0  0  0  0  0  0  0  0  0  0  0
    5.2616    0.5457   -1.0965 C   0  0  0  0  0  0  0  0  0  0  0  0
    5.8291   -0.1157   -0.0073 C   0  0  0  0  0  0  0  0  0  0  0  0
    5.3445    0.0959    1.2944 C   0  0  0  0  0  0  0  0  0  0  0  0
    5.9103   -0.5620    2.3977 C   0  0  0  0  0  0  0  0  0  0  0  0
    5.4261   -0.3377    3.6869 C   0  0  0  0  0  0  0  0  0  0  0  0
    4.3708    0.5464    3.8902 C   0  0  0  0  0  0  0  0  0  0  0  0
    3.7952    1.2087    2.8047 C   0  0  0  0  0  0  0  0  0  0  0  0
    4.2701    0.9943    1.5015 C   0  0  0  0  0  0  0  0  0  0  0  0
    3.7035    1.6547    0.4023 C   0  0  0  0  0  0  0  0  0  0  0  0
   -4.3485   -1.9359   -1.7677 H   0  0  0  0  0  0  0  0  0  0  0  0
   -5.4749   -0.8042   -2.5841 H   0  0  0  0  0  0  0  0  0  0  0  0
   -3.8761   -1.1169   -3.2695 H   0  0  0  0  0  0  0  0  0  0  0  0
   -5.7308    0.9141   -0.9963 H   0  0  0  0  0  0  0  0  0  0  0  0
   -4.3776    1.5820   -0.1103 H   0  0  0  0  0  0  0  0  0  0  0  0
   -6.9866   -0.9369   -0.0519 H   0  0  0  0  0  0  0  0  0  0  0  0
   -7.3568   -2.5118    1.8116 H   0  0  0  0  0  0  0  0  0  0  0  0
   -5.6282   -2.7995    3.5676 H   0  0  0  0  0  0  0  0  0  0  0  0
   -3.5151   -1.5045    3.4497 H   0  0  0  0  0  0  0  0  0  0  0  0
   -3.1274    0.0775    1.5916 H   0  0  0  0  0  0  0  0  0  0  0  0
   -1.6776   -1.3701   -2.2833 H   0  0  0  0  0  0  0  0  0  0  0  0
   -1.9372   -0.0432   -3.4864 H   0  0  0  0  0  0  0  0  0  0  0  0
    2.4586   -0.5614   -1.9938 H   0  0  0  0  0  0  0  0  0  0  0  0
    2.6251   -0.1145   -3.7238 H   0  0  0  0  0  0  0  0  0  0  0  0
    1.2452    1.7806   -1.8673 H   0  0  0  0  0  0  0  0  0  0  0  0
    5.6593    0.3773   -2.0944 H   0  0  0  0  0  0  0  0  0  0  0  0
    6.6611   -0.7952   -0.1793 H   0  0  0  0  0  0  0  0  0  0  0  0
    6.7381   -1.2541    2.2617 H   0  0  0  0  0  0  0  0  0  0  0  0
    5.8759   -0.8519    4.5324 H   0  0  0  0  0  0  0  0  0  0  0  0
    3.9962    0.7238    4.8951 H   0  0  0  0  0  0  0  0  0  0  0  0
    2.9730    1.8977    2.9875 H   0  0  0  0  0  0  0  0  0  0  0  0
    2.8860    2.3581    0.5482 H   0  0  0  0  0  0  0  0  0  0  0  0
  1  2  1  0
  2  3  1  0
  3  4  1  0
  4  5  2  0
  5  6  1  0
  6  7  2  0
  7  8  1  0
  8  9  2  0
  2 10  1  0
 10 11  2  0
 10 12  1  0
 12 13  1  0
 13 14  1  0
 14 15  2  0
 14 16  1  0
 16 17  1  0
 17 18  1  0
 18 19  2  0
 18 20  2  0
 18 21  1  0
 21 22  2  0
 22 23  1  0
 23 24  2  0
 24 25  1  0
 25 26  2  0
 26 27  1  0
 27 28  2  0
 28 29  1  0
 29 30  2  0
  9  4  1  0
 30 21  1  0
 29 24  1  0
  1 31  1  0
  1 32  1  0
  1 33  1  0
  3 34  1  0
  3 35  1  0
  5 36  1  0
  6 37  1  0
  7 38  1  0
  8 39  1  0
  9 40  1  0
 12 41  1  0
 12 42  1  0
 16 43  1  0
 16 44  1  0
 17 45  1  0
 22 46  1  0
 23 47  1  0
 25 48  1  0
 26 49  1  0
 27 50  1  0
 28 51  1  0
 30 52  1  0
M  END
$$$$
