
     RDKit          3D

 48 49  0  0  0  0  0  0  0  0999 V2000
   -7.2352   -0.4380    2.8084 C   0  0  0  0  0  0  0  0  0  0  0  0
   -6.8049   -0.2155    1.3883 C   0  0  0  0  0  0  0  0  0  0  0  0
   -7.7520   -0.1026    0.3714 C   0  0  0  0  0  0  0  0  0  0  0  0
   -7.3424    0.0723   -0.9490 C   0  0  0  0  0  0  0  0  0  0  0  0
   -5.9778    0.1280   -1.2817 C   0  0  0  0  0  0  0  0  0  0  0  0
   -5.6079    0.3189   -2.7286 C   0  0  0  0  0  0  0  0  0  0  0  0
   -5.0101   -0.0008   -0.2612 C   0  0  0  0  0  0  0  0  0  0  0  0
   -3.6399    0.0501   -0.6131 N   0  0  0  0  0  0  0  0  0  0  0  0
   -2.5366   -0.0528    0.2180 C   0  0  0  0  0  0  0  0  0  0  0  0
   -2.5358   -0.2113    1.4334 O   0  0  0  0  0  0  0  0  0  0  0  0
   -1.2438    0.0556   -0.5685 C   0  0  0  0  0  0  0  0  0  0  0  0
   -0.0244   -0.0541    0.3381 C   0  0  0  0  0  0  0  0  0  0  0  0
    1.2626    0.0498   -0.4483 C   0  0  0  0  0  0  0  0  0  0  0  0
    1.2928    0.2026   -1.6659 O   0  0  0  0  0  0  0  0  0  0  0  0
    2.3809   -0.0483    0.3685 N   0  0  0  0  0  0  0  0  0  0  0  0
    3.6197    0.0272   -0.1861 N   0  0  0  0  0  0  0  0  0  0  0  0
    4.6167   -0.0725    0.6327 C   0  0  0  0  0  0  0  0  0  0  0  0
    6.0058   -0.0029    0.1352 C   0  0  0  0  0  0  0  0  0  0  0  0
    7.0438   -0.1179    1.0660 C   0  0  0  0  0  0  0  0  0  0  0  0
    8.3736   -0.0549    0.6209 C   0  0  0  0  0  0  0  0  0  0  0  0
    9.4679   -0.1758    1.5929 N   0  0  0  0  0  4  0  0  0  0  0  0
   10.6292   -0.1109    1.1679 O   0  0  0  0  0  0  0  0  0  0  0  0
    9.1600   -0.3357    2.7827 O   0  0  0  0  0  1  0  0  0  0  0  0
    8.6692    0.1216   -0.7375 C   0  0  0  0  0  0  0  0  0  0  0  0
    7.6253    0.2350   -1.6574 C   0  0  0  0  0  0  0  0  0  0  0  0
    6.3013    0.1728   -1.2238 C   0  0  0  0  0  0  0  0  0  0  0  0
    5.3451    0.2920   -2.1939 O   0  0  0  0  0  0  0  0  0  0  0  0
   -5.4406   -0.1765    1.0607 C   0  0  0  0  0  0  0  0  0  0  0  0
   -6.5165    0.0014    3.5083 H   0  0  0  0  0  0  0  0  0  0  0  0
   -7.3167   -1.5103    3.0109 H   0  0  0  0  0  0  0  0  0  0  0  0
   -8.2047    0.0333    3.0016 H   0  0  0  0  0  0  0  0  0  0  0  0
   -8.8142   -0.1492    0.5997 H   0  0  0  0  0  0  0  0  0  0  0  0
   -8.1022    0.1631   -1.7227 H   0  0  0  0  0  0  0  0  0  0  0  0
   -5.0289   -0.5376   -3.0888 H   0  0  0  0  0  0  0  0  0  0  0  0
   -6.4949    0.4054   -3.3656 H   0  0  0  0  0  0  0  0  0  0  0  0
   -5.0256    1.2373   -2.8543 H   0  0  0  0  0  0  0  0  0  0  0  0
   -3.4389    0.1790   -1.5958 H   0  0  0  0  0  0  0  0  0  0  0  0
   -1.2272   -0.7423   -1.3209 H   0  0  0  0  0  0  0  0  0  0  0  0
   -1.2366    1.0183   -1.0940 H   0  0  0  0  0  0  0  0  0  0  0  0
   -0.0378    0.7456    1.0883 H   0  0  0  0  0  0  0  0  0  0  0  0
   -0.0309   -1.0153    0.8662 H   0  0  0  0  0  0  0  0  0  0  0  0
    2.2777   -0.1758    1.3702 H   0  0  0  0  0  0  0  0  0  0  0  0
    4.4713   -0.2111    1.7193 H   0  0  0  0  0  0  0  0  0  0  0  0
    6.8195   -0.2547    2.1215 H   0  0  0  0  0  0  0  0  0  0  0  0
    9.6961    0.1726   -1.0947 H   0  0  0  0  0  0  0  0  0  0  0  0
    7.8397    0.3719   -2.7152 H   0  0  0  0  0  0  0  0  0  0  0  0
    4.4548    0.2336   -1.7751 H   0  0  0  0  0  0  0  0  0  0  0  0
   -4.7267   -0.2876    1.8708 H   0  0  0  0  0  0  0  0  0  0  0  0
  1  2  1  0
  2  3  2  0
  3  4  1  0
  4  5  2  0
  5  6  1  0
  5  7  1  0
  7  8  1  0
  8  9  1  0
  9 10  2  0
  9 11  1  0
 11 12  1  0
 12 13  1  0
 13 14  2  0
 13 15  1  0
 15 16  1  0
 16 17  2  3
 17 18  1  0
 18 19  2  0
 19 20  1  0
 20 21  1  0
 21 22  2  0
 21 23  1  0
 20 24  2  0
 24 25  1  0
 25 26  2  0
 26 27  1  0
  7 28  2  0
 28  2  1  0
 26 18  1  0
  1 29  1  0
  1 30  1  0
  1 31  1  0
  3 32  1  0
  4 33  1  0
  6 34  1  0
  6 35  1  0
  6 36  1  0
  8 37  1  0
 11 38  1  0
 11 39  1  0
 12 40  1  0
 12 41  1  0
 15 42  1  0
 17 43  1  0
 19 44  1  0
 24 45  1  0
 25 46  1  0
 27 47  1  0
 28 48  1  0
M  CHG  2  21   1  23  -1
M  END
$$$$
