
     RDKit          3D

 42 41  0  0  0  0  0  0  0  0999 V2000
    4.3393    1.9617   -0.8173 C   0  0  0  0  0  0  0  0  0  0  0  0
    4.8973    0.5813   -1.0314 C   0  0  0  0  0  0  0  0  0  0  0  0
    6.4020    0.5243   -1.0867 C   0  0  0  0  0  0  0  0  0  0  0  0
    4.1638   -0.5412   -1.1542 C   0  0  0  0  0  0  0  0  0  0  0  0
    2.6631   -0.6654   -1.1503 C   0  0  0  0  0  0  0  0  0  0  0  0
    2.1524   -1.2178    0.1851 C   0  0  0  0  0  0  0  0  0  0  0  0
    0.6375   -1.3210    0.2372 C   0  0  0  0  0  0  0  0  0  0  0  0
    0.0500   -2.4933   -0.5025 C   0  0  0  0  0  0  0  0  0  0  0  0
   -0.0780   -0.4061    0.9230 C   0  0  0  0  0  0  0  0  0  0  0  0
   -1.5700   -0.3624    1.1268 C   0  0  0  0  0  0  0  0  0  0  0  0
   -2.2376    0.6305    0.1648 C   0  0  0  0  0  0  0  0  0  0  0  0
   -3.7510    0.8032    0.2551 C   0  0  0  0  0  0  0  0  0  0  0  0
   -4.2908    1.7219   -0.8133 C   0  0  0  0  0  0  0  0  0  0  0  0
   -4.5190    0.2057    1.1898 C   0  0  0  0  0  0  0  0  0  0  0  0
   -6.0020    0.2849    1.3695 C   0  0  0  0  0  0  0  0  0  0  0  0
   -6.5114   -1.0410    1.3948 O   0  0  0  0  0  0  0  0  0  0  0  0
    4.7836    2.4104    0.0775 H   0  0  0  0  0  0  0  0  0  0  0  0
    4.5736    2.6001   -1.6753 H   0  0  0  0  0  0  0  0  0  0  0  0
    3.2566    1.9762   -0.6741 H   0  0  0  0  0  0  0  0  0  0  0  0
    6.7756    1.1516   -1.9042 H   0  0  0  0  0  0  0  0  0  0  0  0
    6.7742   -0.4938   -1.2518 H   0  0  0  0  0  0  0  0  0  0  0  0
    6.8298    0.8846   -0.1450 H   0  0  0  0  0  0  0  0  0  0  0  0
    4.6853   -1.4892   -1.2879 H   0  0  0  0  0  0  0  0  0  0  0  0
    2.3834   -1.3384   -1.9704 H   0  0  0  0  0  0  0  0  0  0  0  0
    2.1780    0.2895   -1.3781 H   0  0  0  0  0  0  0  0  0  0  0  0
    2.5847   -2.2078    0.3761 H   0  0  0  0  0  0  0  0  0  0  0  0
    2.5124   -0.5780    1.0017 H   0  0  0  0  0  0  0  0  0  0  0  0
    0.4354   -3.4331   -0.0892 H   0  0  0  0  0  0  0  0  0  0  0  0
   -1.0419   -2.5317   -0.4547 H   0  0  0  0  0  0  0  0  0  0  0  0
    0.3190   -2.4465   -1.5644 H   0  0  0  0  0  0  0  0  0  0  0  0
    0.4566    0.4109    1.4077 H   0  0  0  0  0  0  0  0  0  0  0  0
   -2.0143   -1.3565    1.0215 H   0  0  0  0  0  0  0  0  0  0  0  0
   -1.7514   -0.0584    2.1657 H   0  0  0  0  0  0  0  0  0  0  0  0
   -1.7800    1.6188    0.3114 H   0  0  0  0  0  0  0  0  0  0  0  0
   -1.9990    0.3240   -0.8624 H   0  0  0  0  0  0  0  0  0  0  0  0
   -5.3415    1.9864   -0.6763 H   0  0  0  0  0  0  0  0  0  0  0  0
   -4.1893    1.2509   -1.7974 H   0  0  0  0  0  0  0  0  0  0  0  0
   -3.7282    2.6634   -0.8188 H   0  0  0  0  0  0  0  0  0  0  0  0
   -4.0490   -0.4264    1.9413 H   0  0  0  0  0  0  0  0  0  0  0  0
   -6.2363    0.7594    2.3275 H   0  0  0  0  0  0  0  0  0  0  0  0
   -6.5236    0.8302    0.5813 H   0  0  0  0  0  0  0  0  0  0  0  0
   -6.2394   -1.4616    0.5589 H   0  0  0  0  0  0  0  0  0  0  0  0
  1  2  1  0
  2  3  1  0
  2  4  2  3
  4  5  1  0
  5  6  1  0
  6  7  1  0
  7  8  1  0
  7  9  2  3
  9 10  1  0
 10 11  1  0
 11 12  1  0
 12 13  1  0
 12 14  2  3
 14 15  1  0
 15 16  1  0
  1 17  1  0
  1 18  1  0
  1 19  1  0
  3 20  1  0
  3 21  1  0
  3 22  1  0
  4 23  1  0
  5 24  1  0
  5 25  1  0
  6 26  1  0
  6 27  1  0
  8 28  1  0
  8 29  1  0
  8 30  1  0
  9 31  1  0
 10 32  1  0
 10 33  1  0
 11 34  1  0
 11 35  1  0
 13 36  1  0
 13 37  1  0
 13 38  1  0
 14 39  1  0
 15 40  1  0
 15 41  1  0
 16 42  1  0
M  END
$$$$
