
     RDKit          3D

 60 65  0  0  0  0  0  0  0  0999 V2000
   -3.3005   -3.0110    1.0803 C   0  0  0  0  0  0  0  0  0  0  0  0
   -4.0517   -2.5669   -0.1178 C   0  0  0  0  0  0  0  0  0  0  0  0
   -4.5852   -3.4858   -0.9335 N   0  0  0  0  0  0  0  0  0  0  0  0
   -5.2888   -2.7783   -1.8881 O   0  0  0  0  0  0  0  0  0  0  0  0
   -5.1606   -1.4464   -1.6528 C   0  0  0  0  0  0  0  0  0  0  0  0
   -5.8787   -0.5423   -2.5706 C   0  0  0  0  0  0  0  0  0  0  0  0
   -4.3454   -1.2485   -0.5599 C   0  0  0  0  0  0  0  0  0  0  0  0
   -3.9938    0.0414   -0.0064 C   0  0  0  0  0  0  0  0  0  0  0  0
   -4.8626    0.8854    0.2059 O   0  0  0  0  0  0  0  0  0  0  0  0
   -2.6457    0.2912    0.2613 N   0  0  0  0  0  0  0  0  0  0  0  0
   -1.5374   -0.4473   -0.3468 C   0  0  0  0  0  0  0  0  0  0  0  0
   -0.3823    0.4891   -0.6849 C   0  0  0  0  0  0  0  0  0  0  0  0
    0.2046    1.2109    0.5647 C   0  0  0  0  0  0  0  0  0  0  0  0
   -0.9352    1.4323    1.6108 C   0  0  0  0  0  0  0  0  0  0  0  0
   -2.3094    1.5273    0.9572 C   0  0  0  0  0  0  0  0  0  0  0  0
    0.6459    2.4999    0.0569 O   0  0  0  0  0  0  0  0  0  0  0  0
    1.4177    3.2517    0.8995 C   0  0  0  0  0  0  0  0  0  0  0  0
    1.5453    4.6030    0.5757 C   0  0  0  0  0  0  0  0  0  0  0  0
    2.2928    5.4478    1.3980 C   0  0  0  0  0  0  0  0  0  0  0  0
    2.9102    4.9346    2.5343 C   0  0  0  0  0  0  0  0  0  0  0  0
    3.6252    5.7501    3.3182 F   0  0  0  0  0  0  0  0  0  0  0  0
    2.8038    3.5892    2.8627 C   0  0  0  0  0  0  0  0  0  0  0  0
    2.0618    2.7477    2.0312 C   0  0  0  0  0  0  0  0  0  0  0  0
    1.9665    1.3042    2.3198 C   0  0  0  0  0  0  0  0  0  0  0  0
    2.3661    0.8687    3.3940 O   0  0  0  0  0  0  0  0  0  0  0  0
    1.4144    0.4496    1.1840 C   0  0  0  0  0  0  0  0  0  0  0  0
    2.5754    0.1460    0.2404 C   0  0  0  0  0  0  0  0  0  0  0  0
    2.3738   -1.3190    0.0649 C   0  0  0  0  0  0  0  0  0  0  0  0
    3.1375   -2.1060   -0.9328 C   0  0  0  0  0  0  0  0  0  0  0  0
    4.0985   -1.5079   -1.7579 C   0  0  0  0  0  0  0  0  0  0  0  0
    4.7989   -2.2816   -2.6903 C   0  0  0  0  0  0  0  0  0  0  0  0
    4.5441   -3.6490   -2.7948 C   0  0  0  0  0  0  0  0  0  0  0  0
    5.4108   -4.5943   -3.9403 Cl  0  0  0  0  0  0  0  0  0  0  0  0
    3.5932   -4.2530   -1.9751 C   0  0  0  0  0  0  0  0  0  0  0  0
    2.8903   -3.4818   -1.0445 C   0  0  0  0  0  0  0  0  0  0  0  0
    1.4829   -1.8418    0.8435 N   0  0  0  0  0  0  0  0  0  0  0  0
    0.9982   -0.8211    1.6904 O   0  0  0  0  0  0  0  0  0  0  0  0
   -2.3252   -3.4142    0.7920 H   0  0  0  0  0  0  0  0  0  0  0  0
   -3.1408   -2.1878    1.7831 H   0  0  0  0  0  0  0  0  0  0  0  0
   -3.8489   -3.7952    1.6130 H   0  0  0  0  0  0  0  0  0  0  0  0
   -6.1463   -1.0512   -3.5016 H   0  0  0  0  0  0  0  0  0  0  0  0
   -5.2568    0.3207   -2.8289 H   0  0  0  0  0  0  0  0  0  0  0  0
   -6.7982   -0.1787   -2.1032 H   0  0  0  0  0  0  0  0  0  0  0  0
   -1.2219   -1.2155    0.3628 H   0  0  0  0  0  0  0  0  0  0  0  0
   -1.8733   -0.9460   -1.2608 H   0  0  0  0  0  0  0  0  0  0  0  0
    0.3848   -0.0595   -1.2384 H   0  0  0  0  0  0  0  0  0  0  0  0
   -0.7479    1.2421   -1.3990 H   0  0  0  0  0  0  0  0  0  0  0  0
   -0.9624    0.5996    2.3248 H   0  0  0  0  0  0  0  0  0  0  0  0
   -0.7737    2.3461    2.1930 H   0  0  0  0  0  0  0  0  0  0  0  0
   -2.3463    2.3487    0.2325 H   0  0  0  0  0  0  0  0  0  0  0  0
   -3.0705    1.7290    1.7191 H   0  0  0  0  0  0  0  0  0  0  0  0
    1.0533    5.0033   -0.3072 H   0  0  0  0  0  0  0  0  0  0  0  0
    2.3936    6.5037    1.1636 H   0  0  0  0  0  0  0  0  0  0  0  0
    3.3022    3.2105    3.7510 H   0  0  0  0  0  0  0  0  0  0  0  0
    3.5593    0.3125    0.6934 H   0  0  0  0  0  0  0  0  0  0  0  0
    2.5197    0.6905   -0.7052 H   0  0  0  0  0  0  0  0  0  0  0  0
    4.3261   -0.4477   -1.6958 H   0  0  0  0  0  0  0  0  0  0  0  0
    5.5440   -1.8131   -3.3293 H   0  0  0  0  0  0  0  0  0  0  0  0
    3.3951   -5.3196   -2.0501 H   0  0  0  0  0  0  0  0  0  0  0  0
    2.1534   -3.9665   -0.4056 H   0  0  0  0  0  0  0  0  0  0  0  0
  1  2  1  0
  2  3  2  0
  3  4  1  0
  4  5  1  0
  5  6  1  0
  5  7  2  0
  7  8  1  0
  8  9  2  0
  8 10  1  0
 10 11  1  0
 11 12  1  0
 12 13  1  0
 13 14  1  0
 14 15  1  0
 13 16  1  0
 16 17  1  0
 17 18  2  0
 18 19  1  0
 19 20  2  0
 20 21  1  0
 20 22  1  0
 22 23  2  0
 23 24  1  0
 24 25  2  0
 24 26  1  0
 26 27  1  0
 27 28  1  0
 28 29  1  0
 29 30  2  0
 30 31  1  0
 31 32  2  0
 32 33  1  0
 32 34  1  0
 34 35  2  0
 28 36  2  0
 36 37  1  0
  7  2  1  0
 15 10  1  0
 23 17  1  0
 37 26  1  0
 26 13  1  0
 35 29  1  0
  1 38  1  0
  1 39  1  0
  1 40  1  0
  6 41  1  0
  6 42  1  0
  6 43  1  0
 11 44  1  0
 11 45  1  0
 12 46  1  0
 12 47  1  0
 14 48  1  0
 14 49  1  0
 15 50  1  0
 15 51  1  0
 18 52  1  0
 19 53  1  0
 22 54  1  0
 27 55  1  0
 27 56  1  0
 30 57  1  0
 31 58  1  0
 34 59  1  0
 35 60  1  0
M  END
$$$$
