
     RDKit          3D

 33 35  0  0  0  0  0  0  0  0999 V2000
   -1.5887    0.3526   -1.0957 O   0  0  0  0  0  0  0  0  0  0  0  0
   -2.3373    0.2584   -0.1264 C   0  0  0  0  0  0  0  0  0  0  0  0
   -1.8855    0.2016    1.1863 N   0  0  0  0  0  0  0  0  0  0  0  0
   -0.5792    0.1334    1.6591 C   0  0  0  0  0  0  0  0  0  0  0  0
   -0.4284    0.1210    3.3207 S   0  0  0  0  0  0  0  0  0  0  0  0
    0.3811    0.0921    0.6765 N   0  0  0  0  0  0  0  0  0  0  0  0
    1.7898   -0.0271    0.6806 C   0  0  0  0  0  0  0  0  0  0  0  0
    2.5879   -0.2580    1.8237 C   0  0  0  0  0  0  0  0  0  0  0  0
    3.9867   -0.3685    1.7426 C   0  0  0  0  0  0  0  0  0  0  0  0
    4.5492   -0.2472    0.4984 C   0  0  0  0  0  0  0  0  0  0  0  0
    5.8815   -0.3112    0.1088 N   0  0  0  0  0  0  0  0  0  0  0  0
    5.9525   -0.1308   -1.2803 C   0  0  0  0  0  0  0  0  0  0  0  0
    6.9605   -0.1272   -1.9635 O   0  0  0  0  0  0  0  0  0  0  0  0
    4.6351    0.0442   -1.7293 N   0  0  0  0  0  0  0  0  0  0  0  0
    3.7784   -0.0278   -0.6359 C   0  0  0  0  0  0  0  0  0  0  0  0
    2.4082    0.0835   -0.5803 C   0  0  0  0  0  0  0  0  0  0  0  0
   -3.8025    0.2536   -0.3309 C   0  0  0  0  0  0  0  0  0  0  0  0
   -4.6717   -0.4211    0.5184 C   0  0  0  0  0  0  0  0  0  0  0  0
   -6.0167   -0.4411    0.3571 N   0  0  0  0  0  0  0  0  0  0  0  0
   -6.5121    0.2237   -0.7153 C   0  0  0  0  0  0  0  0  0  0  0  0
   -5.7199    0.9031   -1.6286 C   0  0  0  0  0  0  0  0  0  0  0  0
   -6.4919    1.7936   -3.0993 Br  0  0  0  0  0  0  0  0  0  0  0  0
   -4.3422    0.9164   -1.4371 C   0  0  0  0  0  0  0  0  0  0  0  0
   -2.5590    0.2552    1.9394 H   0  0  0  0  0  0  0  0  0  0  0  0
   -0.0166    0.2047   -0.2587 H   0  0  0  0  0  0  0  0  0  0  0  0
    2.1557   -0.3737    2.8093 H   0  0  0  0  0  0  0  0  0  0  0  0
    4.5841   -0.5458    2.6287 H   0  0  0  0  0  0  0  0  0  0  0  0
    6.6848   -0.4606    0.6965 H   0  0  0  0  0  0  0  0  0  0  0  0
    4.3876    0.1950   -2.6933 H   0  0  0  0  0  0  0  0  0  0  0  0
    1.8352    0.2550   -1.4846 H   0  0  0  0  0  0  0  0  0  0  0  0
   -4.3222   -1.0023    1.3671 H   0  0  0  0  0  0  0  0  0  0  0  0
   -7.5935    0.1850   -0.8179 H   0  0  0  0  0  0  0  0  0  0  0  0
   -3.6909    1.4362   -2.1361 H   0  0  0  0  0  0  0  0  0  0  0  0
  1  2  2  0
  2  3  1  0
  3  4  1  0
  4  5  2  0
  4  6  1  0
  6  7  1  0
  7  8  2  0
  8  9  1  0
  9 10  2  0
 10 11  1  0
 11 12  1  0
 12 13  2  0
 12 14  1  0
 14 15  1  0
 15 16  2  0
  2 17  1  0
 17 18  2  0
 18 19  1  0
 19 20  2  0
 20 21  1  0
 21 22  1  0
 21 23  2  0
 16  7  1  0
 23 17  1  0
 15 10  1  0
  3 24  1  0
  6 25  1  0
  8 26  1  0
  9 27  1  0
 11 28  1  0
 14 29  1  0
 16 30  1  0
 18 31  1  0
 20 32  1  0
 23 33  1  0
M  END
$$$$
