
     RDKit          3D

 47 48  0  0  0  0  0  0  0  0999 V2000
   -2.9181   -1.3442    3.1109 C   0  0  0  0  0  0  0  0  0  0  0  0
   -3.1954   -0.1840    2.3427 O   0  0  0  0  0  0  0  0  0  0  0  0
   -3.3744   -0.3434    0.9945 C   0  0  0  0  0  0  0  0  0  0  0  0
   -3.1736   -1.5384    0.2943 C   0  0  0  0  0  0  0  0  0  0  0  0
   -3.3662   -1.5874   -1.0941 C   0  0  0  0  0  0  0  0  0  0  0  0
   -3.1005   -2.8326   -1.8196 C   0  0  0  0  0  0  0  0  0  0  0  0
   -2.0139   -3.0553   -2.5750 C   0  0  0  0  0  0  0  0  0  0  0  0
   -0.9606   -2.0236   -2.7574 C   0  0  0  0  0  0  0  0  0  0  0  0
   -1.1400   -1.0999   -3.5454 O   0  0  0  0  0  0  0  0  0  0  0  0
    0.3070   -2.2131   -1.9740 C   0  0  0  0  0  0  0  0  0  0  0  0
    1.0248   -0.9440   -1.5885 C   0  0  0  0  0  0  0  0  0  0  0  0
    2.2409   -0.8425   -1.7404 O   0  0  0  0  0  0  0  0  0  0  0  0
    0.2290    0.1318   -0.9228 C   0  0  0  0  0  0  0  0  0  0  0  0
    0.6771    0.9640    0.0299 C   0  0  0  0  0  0  0  0  0  0  0  0
    2.0197    0.9834    0.6175 C   0  0  0  0  0  0  0  0  0  0  0  0
    2.4617   -0.0589    1.4387 C   0  0  0  0  0  0  0  0  0  0  0  0
    3.7408   -0.0189    1.9951 C   0  0  0  0  0  0  0  0  0  0  0  0
    4.5725    1.0703    1.7343 C   0  0  0  0  0  0  0  0  0  0  0  0
    5.8306    1.1074    2.2784 O   0  0  0  0  0  0  0  0  0  0  0  0
    4.1453    2.1301    0.9205 C   0  0  0  0  0  0  0  0  0  0  0  0
    5.0433    3.1478    0.7316 O   0  0  0  0  0  0  0  0  0  0  0  0
    4.6701    4.1906   -0.1571 C   0  0  0  0  0  0  0  0  0  0  0  0
    2.8611    2.0782    0.3674 C   0  0  0  0  0  0  0  0  0  0  0  0
   -3.7774   -0.4399   -1.7815 C   0  0  0  0  0  0  0  0  0  0  0  0
   -3.9811    0.7560   -1.0938 C   0  0  0  0  0  0  0  0  0  0  0  0
   -3.7740    0.7993    0.2842 C   0  0  0  0  0  0  0  0  0  0  0  0
   -3.9586    1.9753    0.9594 O   0  0  0  0  0  0  0  0  0  0  0  0
   -1.9472   -1.7713    2.8414 H   0  0  0  0  0  0  0  0  0  0  0  0
   -3.7193   -2.0836    3.0126 H   0  0  0  0  0  0  0  0  0  0  0  0
   -2.8703   -1.0453    4.1623 H   0  0  0  0  0  0  0  0  0  0  0  0
   -2.8536   -2.4401    0.8070 H   0  0  0  0  0  0  0  0  0  0  0  0
   -3.8461   -3.6151   -1.6947 H   0  0  0  0  0  0  0  0  0  0  0  0
   -1.8489   -4.0028   -3.0763 H   0  0  0  0  0  0  0  0  0  0  0  0
    0.1055   -2.7713   -1.0535 H   0  0  0  0  0  0  0  0  0  0  0  0
    0.9800   -2.8166   -2.5942 H   0  0  0  0  0  0  0  0  0  0  0  0
   -0.8003    0.2278   -1.2495 H   0  0  0  0  0  0  0  0  0  0  0  0
   -0.0009    1.7178    0.4274 H   0  0  0  0  0  0  0  0  0  0  0  0
    1.8165   -0.9074    1.6470 H   0  0  0  0  0  0  0  0  0  0  0  0
    4.0720   -0.8405    2.6219 H   0  0  0  0  0  0  0  0  0  0  0  0
    6.0172    0.2530    2.6969 H   0  0  0  0  0  0  0  0  0  0  0  0
    5.5057    4.8956   -0.2165 H   0  0  0  0  0  0  0  0  0  0  0  0
    4.4827    3.8089   -1.1668 H   0  0  0  0  0  0  0  0  0  0  0  0
    3.8034    4.7392    0.2253 H   0  0  0  0  0  0  0  0  0  0  0  0
    2.4941    2.8733   -0.2742 H   0  0  0  0  0  0  0  0  0  0  0  0
   -3.9182   -0.4652   -2.8601 H   0  0  0  0  0  0  0  0  0  0  0  0
   -4.2871    1.6373   -1.6476 H   0  0  0  0  0  0  0  0  0  0  0  0
   -4.2754    2.6511    0.3416 H   0  0  0  0  0  0  0  0  0  0  0  0
  1  2  1  0
  2  3  1  0
  3  4  2  0
  4  5  1  0
  5  6  1  0
  6  7  2  3
  7  8  1  0
  8  9  2  0
  8 10  1  0
 10 11  1  0
 11 12  2  0
 11 13  1  0
 13 14  2  3
 14 15  1  0
 15 16  2  0
 16 17  1  0
 17 18  2  0
 18 19  1  0
 18 20  1  0
 20 21  1  0
 21 22  1  0
 20 23  2  0
  5 24  2  0
 24 25  1  0
 25 26  2  0
 26 27  1  0
 26  3  1  0
 23 15  1  0
  1 28  1  0
  1 29  1  0
  1 30  1  0
  4 31  1  0
  6 32  1  0
  7 33  1  0
 10 34  1  0
 10 35  1  0
 13 36  1  0
 14 37  1  0
 16 38  1  0
 17 39  1  0
 19 40  1  0
 22 41  1  0
 22 42  1  0
 22 43  1  0
 23 44  1  0
 24 45  1  0
 25 46  1  0
 27 47  1  0
M  END
$$$$
