
     RDKit          3D

 49 52  0  0  0  0  0  0  0  0999 V2000
   -1.3064   -4.5675    1.0694 O   0  0  0  0  0  0  0  0  0  0  0  0
   -1.6983   -3.4502    1.3527 C   0  0  0  0  0  0  0  0  0  0  0  0
   -1.5217   -2.9353    2.5812 O   0  0  0  0  0  0  0  0  0  0  0  0
   -2.4936   -2.5644    0.4757 C   0  0  0  0  0  0  0  0  0  0  0  0
   -3.5113   -3.2177   -0.2475 C   0  0  0  0  0  0  0  0  0  0  0  0
   -4.4215   -2.4903   -1.0073 C   0  0  0  0  0  0  0  0  0  0  0  0
   -4.3347   -1.1043   -1.0277 C   0  0  0  0  0  0  0  0  0  0  0  0
   -3.3113   -0.4525   -0.3209 C   0  0  0  0  0  0  0  0  0  0  0  0
   -3.2800    1.0274   -0.3332 C   0  0  0  0  0  0  0  0  0  0  0  0
   -4.0525    1.6676   -1.0403 O   0  0  0  0  0  0  0  0  0  0  0  0
   -2.3157    1.7224    0.5411 C   0  0  0  0  0  0  0  0  0  0  0  0
   -2.3847    3.1151    0.6822 C   0  0  0  0  0  0  0  0  0  0  0  0
   -1.4717    3.7747    1.5007 C   0  0  0  0  0  0  0  0  0  0  0  0
   -0.4995    3.0435    2.1777 C   0  0  0  0  0  0  0  0  0  0  0  0
   -0.4315    1.6540    2.0278 C   0  0  0  0  0  0  0  0  0  0  0  0
   -1.3281    0.9689    1.1914 C   0  0  0  0  0  0  0  0  0  0  0  0
   -1.2637   -0.4407    1.0134 N   0  0  0  0  0  0  0  0  0  0  0  0
    0.1087   -0.9179    0.6343 C   0  0  0  0  0  0  0  0  0  0  0  0
    0.5507   -0.4288   -0.7693 C   0  0  0  0  0  0  0  0  0  0  0  0
   -0.1515   -1.1723   -1.7809 O   0  0  0  0  0  0  0  0  0  0  0  0
    2.0682   -0.6335   -0.9863 C   0  0  0  0  0  0  0  0  0  0  0  0
    2.9230    0.1066   -0.0400 N   0  0  0  0  0  0  0  0  0  0  0  0
    2.9528    1.5541   -0.3071 C   0  0  0  0  0  0  0  0  0  0  0  0
    4.0109    1.7651   -1.3808 C   0  0  0  0  0  0  0  0  0  0  0  0
    4.9078    0.5381   -1.3020 C   0  0  0  0  0  0  0  0  0  0  0  0
    4.3338   -0.2973   -0.1680 C   0  0  0  0  0  0  0  0  0  0  0  0
   -2.3286   -1.1627    0.4005 C   0  0  0  0  0  0  0  0  0  0  0  0
   -1.0429   -3.6330    3.0725 H   0  0  0  0  0  0  0  0  0  0  0  0
   -3.6067   -4.3014   -0.1961 H   0  0  0  0  0  0  0  0  0  0  0  0
   -5.2097   -2.9986   -1.5565 H   0  0  0  0  0  0  0  0  0  0  0  0
   -5.0647   -0.5262   -1.5912 H   0  0  0  0  0  0  0  0  0  0  0  0
   -3.1519    3.6810    0.1582 H   0  0  0  0  0  0  0  0  0  0  0  0
   -1.5267    4.8539    1.6185 H   0  0  0  0  0  0  0  0  0  0  0  0
    0.2039    3.5511    2.8335 H   0  0  0  0  0  0  0  0  0  0  0  0
    0.3198    1.1125    2.5966 H   0  0  0  0  0  0  0  0  0  0  0  0
    0.1651   -2.0097    0.6460 H   0  0  0  0  0  0  0  0  0  0  0  0
    0.8220   -0.5986    1.4008 H   0  0  0  0  0  0  0  0  0  0  0  0
    0.2894    0.6230   -0.9174 H   0  0  0  0  0  0  0  0  0  0  0  0
   -0.0445   -0.6917   -2.6201 H   0  0  0  0  0  0  0  0  0  0  0  0
    2.3160   -0.3962   -2.0295 H   0  0  0  0  0  0  0  0  0  0  0  0
    2.2639   -1.7100   -0.8831 H   0  0  0  0  0  0  0  0  0  0  0  0
    3.2616    2.0664    0.6130 H   0  0  0  0  0  0  0  0  0  0  0  0
    1.9866    1.9829   -0.5882 H   0  0  0  0  0  0  0  0  0  0  0  0
    4.5737    2.6886   -1.2108 H   0  0  0  0  0  0  0  0  0  0  0  0
    3.5523    1.8286   -2.3742 H   0  0  0  0  0  0  0  0  0  0  0  0
    5.9513    0.8097   -1.1132 H   0  0  0  0  0  0  0  0  0  0  0  0
    4.8697   -0.0125   -2.2489 H   0  0  0  0  0  0  0  0  0  0  0  0
    4.4712   -1.3724   -0.3265 H   0  0  0  0  0  0  0  0  0  0  0  0
    4.8512   -0.0494    0.7676 H   0  0  0  0  0  0  0  0  0  0  0  0
  1  2  2  0
  2  3  1  0
  2  4  1  0
  4  5  2  0
  5  6  1  0
  6  7  2  0
  7  8  1  0
  8  9  1  0
  9 10  2  0
  9 11  1  0
 11 12  2  0
 12 13  1  0
 13 14  2  0
 14 15  1  0
 15 16  2  0
 16 17  1  0
 17 18  1  0
 18 19  1  0
 19 20  1  0
 19 21  1  0
 21 22  1  0
 22 23  1  0
 23 24  1  0
 24 25  1  0
 25 26  1  0
 17 27  1  0
 27  4  1  0
 27  8  2  0
 16 11  1  0
 26 22  1  0
  3 28  1  0
  5 29  1  0
  6 30  1  0
  7 31  1  0
 12 32  1  0
 13 33  1  0
 14 34  1  0
 15 35  1  0
 18 36  1  0
 18 37  1  0
 19 38  1  0
 20 39  1  0
 21 40  1  0
 21 41  1  0
 23 42  1  0
 23 43  1  0
 24 44  1  0
 24 45  1  0
 25 46  1  0
 25 47  1  0
 26 48  1  0
 26 49  1  0
M  END
$$$$
