
     RDKit          3D

 36 35  0  0  0  0  0  0  0  0999 V2000
    3.6856    0.2678    2.8343 C   0  0  0  0  0  0  0  0  0  0  0  0
    2.3968    0.5659    2.0802 C   0  0  0  0  0  0  0  0  0  0  0  0
    2.0334   -0.5160    1.1450 N   0  0  0  0  0  0  0  0  0  0  0  0
    2.6410   -0.3922   -0.1939 C   0  0  0  0  0  0  0  0  0  0  0  0
    1.8452    0.5359   -1.0982 C   0  0  0  0  0  0  0  0  0  0  0  0
    1.2133   -1.5952    1.5466 C   0  0  0  0  0  0  0  0  0  0  0  0
    0.6228   -1.8228    3.1170 S   0  0  0  0  0  0  0  0  0  0  0  0
    0.8546   -2.8308    0.3212 S   0  0  0  0  0  0  0  0  0  0  0  0
   -1.1974   -2.7158    0.0996 S   0  0  0  0  0  0  0  0  0  0  0  0
   -1.4080   -1.6461   -1.3034 C   0  0  0  0  0  0  0  0  0  0  0  0
   -0.8605   -2.1802   -2.8139 S   0  0  0  0  0  0  0  0  0  0  0  0
   -2.0866   -0.4261   -1.0797 N   0  0  0  0  0  0  0  0  0  0  0  0
   -2.6737   -0.0315    0.2153 C   0  0  0  0  0  0  0  0  0  0  0  0
   -1.7660    0.9114    0.9901 C   0  0  0  0  0  0  0  0  0  0  0  0
   -2.3110    0.5421   -2.1704 C   0  0  0  0  0  0  0  0  0  0  0  0
   -3.6316    0.3049   -2.8902 C   0  0  0  0  0  0  0  0  0  0  0  0
    3.9249    1.0923    3.5134 H   0  0  0  0  0  0  0  0  0  0  0  0
    4.5272    0.1420    2.1458 H   0  0  0  0  0  0  0  0  0  0  0  0
    3.6039   -0.6484    3.4268 H   0  0  0  0  0  0  0  0  0  0  0  0
    1.5846    0.7463    2.7904 H   0  0  0  0  0  0  0  0  0  0  0  0
    2.5110    1.4968    1.5136 H   0  0  0  0  0  0  0  0  0  0  0  0
    2.7516   -1.3673   -0.6728 H   0  0  0  0  0  0  0  0  0  0  0  0
    3.6593   -0.0044   -0.0759 H   0  0  0  0  0  0  0  0  0  0  0  0
    2.2843    0.5572   -2.1006 H   0  0  0  0  0  0  0  0  0  0  0  0
    0.8063    0.2136   -1.1830 H   0  0  0  0  0  0  0  0  0  0  0  0
    1.8386    1.5596   -0.7115 H   0  0  0  0  0  0  0  0  0  0  0  0
   -2.9088   -0.9040    0.8283 H   0  0  0  0  0  0  0  0  0  0  0  0
   -3.6341    0.4602    0.0228 H   0  0  0  0  0  0  0  0  0  0  0  0
   -1.6243    1.8561    0.4559 H   0  0  0  0  0  0  0  0  0  0  0  0
   -2.2020    1.1397    1.9678 H   0  0  0  0  0  0  0  0  0  0  0  0
   -0.7782    0.4744    1.1457 H   0  0  0  0  0  0  0  0  0  0  0  0
   -2.2990    1.5540   -1.7501 H   0  0  0  0  0  0  0  0  0  0  0  0
   -1.4862    0.5070   -2.8882 H   0  0  0  0  0  0  0  0  0  0  0  0
   -3.6819   -0.6992   -3.3213 H   0  0  0  0  0  0  0  0  0  0  0  0
   -4.4794    0.4132   -2.2065 H   0  0  0  0  0  0  0  0  0  0  0  0
   -3.7555    1.0301   -3.7004 H   0  0  0  0  0  0  0  0  0  0  0  0
  1  2  1  0
  2  3  1  0
  3  4  1  0
  4  5  1  0
  3  6  1  0
  6  7  2  0
  6  8  1  0
  8  9  1  0
  9 10  1  0
 10 11  2  0
 10 12  1  0
 12 13  1  0
 13 14  1  0
 12 15  1  0
 15 16  1  0
  1 17  1  0
  1 18  1  0
  1 19  1  0
  2 20  1  0
  2 21  1  0
  4 22  1  0
  4 23  1  0
  5 24  1  0
  5 25  1  0
  5 26  1  0
 13 27  1  0
 13 28  1  0
 14 29  1  0
 14 30  1  0
 14 31  1  0
 15 32  1  0
 15 33  1  0
 16 34  1  0
 16 35  1  0
 16 36  1  0
M  END
$$$$
