
     RDKit          3D

 55 57  0  0  0  0  0  0  0  0999 V2000
    3.5395   -1.3337    2.9190 O   0  0  0  0  0  0  0  0  0  0  0  0
    2.5093   -1.4159    2.2569 C   0  0  0  0  0  0  0  0  0  0  0  0
    1.1619   -1.7952    2.8686 C   0  0  0  0  0  0  0  0  0  0  0  0
    0.0637   -1.2613    2.1206 O   0  0  0  0  0  0  0  0  0  0  0  0
   -0.3008    0.0104    2.4520 C   0  0  0  0  0  0  0  0  0  0  0  0
    0.2786    0.7007    3.2825 O   0  0  0  0  0  0  0  0  0  0  0  0
   -1.4867    0.5194    1.6120 C   0  0  0  0  0  0  0  0  0  0  0  0
   -0.9982    1.7527    0.8302 C   0  0  0  0  0  0  0  0  0  0  0  0
   -2.0736    2.3909   -0.0205 C   0  0  0  0  0  0  0  0  0  0  0  0
   -1.9661    2.3939   -1.4191 C   0  0  0  0  0  0  0  0  0  0  0  0
   -2.9709    2.9632   -2.2039 C   0  0  0  0  0  0  0  0  0  0  0  0
   -4.0881    3.5375   -1.6005 C   0  0  0  0  0  0  0  0  0  0  0  0
   -4.1994    3.5496   -0.2113 C   0  0  0  0  0  0  0  0  0  0  0  0
   -3.1962    2.9820    0.5761 C   0  0  0  0  0  0  0  0  0  0  0  0
   -2.0409   -0.4970    0.7134 N   0  0  0  0  0  0  0  0  0  0  0  0
   -2.8530   -1.5031    1.1932 C   0  0  0  0  0  0  0  0  0  0  0  0
   -3.0193   -1.6602    2.4010 O   0  0  0  0  0  0  0  0  0  0  0  0
   -3.4876   -2.3438    0.1869 C   0  0  0  0  0  0  0  0  0  0  0  0
   -4.3817   -3.3742    0.4182 C   0  0  0  0  0  0  0  0  0  0  0  0
   -4.8159   -4.0059   -0.7828 C   0  0  0  0  0  0  0  0  0  0  0  0
   -4.2385   -3.4409   -1.8976 C   0  0  0  0  0  0  0  0  0  0  0  0
   -3.1843   -2.1572   -1.4927 S   0  0  0  0  0  0  0  0  0  0  0  0
    2.4651   -1.2428    0.8850 N   0  0  0  0  0  0  0  0  0  0  0  0
    3.6059   -0.7426    0.1344 C   0  0  0  0  0  0  0  0  0  0  0  0
    3.5041   -1.1749   -1.3327 C   0  0  0  0  0  0  0  0  0  0  0  0
    4.6528   -0.6142   -2.1674 C   0  0  0  0  0  0  0  0  0  0  0  0
    4.7490    0.9037   -2.0440 C   0  0  0  0  0  0  0  0  0  0  0  0
    4.8478    1.3445   -0.5863 C   0  0  0  0  0  0  0  0  0  0  0  0
    3.7005    0.7850    0.2516 C   0  0  0  0  0  0  0  0  0  0  0  0
    1.1255   -1.4783    3.9168 H   0  0  0  0  0  0  0  0  0  0  0  0
    1.0783   -2.8866    2.8447 H   0  0  0  0  0  0  0  0  0  0  0  0
   -2.2784    0.7929    2.3208 H   0  0  0  0  0  0  0  0  0  0  0  0
   -0.6107    2.5146    1.5192 H   0  0  0  0  0  0  0  0  0  0  0  0
   -0.1480    1.4686    0.1950 H   0  0  0  0  0  0  0  0  0  0  0  0
   -1.0988    1.9583   -1.9115 H   0  0  0  0  0  0  0  0  0  0  0  0
   -2.8803    2.9635   -3.2879 H   0  0  0  0  0  0  0  0  0  0  0  0
   -4.8696    3.9825   -2.2120 H   0  0  0  0  0  0  0  0  0  0  0  0
   -5.0670    4.0045    0.2601 H   0  0  0  0  0  0  0  0  0  0  0  0
   -3.2993    3.0085    1.6594 H   0  0  0  0  0  0  0  0  0  0  0  0
   -2.0753   -0.3166   -0.2841 H   0  0  0  0  0  0  0  0  0  0  0  0
   -4.7071   -3.6566    1.4142 H   0  0  0  0  0  0  0  0  0  0  0  0
   -5.5147   -4.8329   -0.8248 H   0  0  0  0  0  0  0  0  0  0  0  0
   -4.3858   -3.7199   -2.9324 H   0  0  0  0  0  0  0  0  0  0  0  0
    1.5464   -1.2174    0.4581 H   0  0  0  0  0  0  0  0  0  0  0  0
    4.5124   -1.1826    0.5700 H   0  0  0  0  0  0  0  0  0  0  0  0
    3.5023   -2.2698   -1.4000 H   0  0  0  0  0  0  0  0  0  0  0  0
    2.5490   -0.8374   -1.7567 H   0  0  0  0  0  0  0  0  0  0  0  0
    4.5134   -0.8906   -3.2187 H   0  0  0  0  0  0  0  0  0  0  0  0
    5.5964   -1.0674   -1.8399 H   0  0  0  0  0  0  0  0  0  0  0  0
    3.8662    1.3637   -2.5054 H   0  0  0  0  0  0  0  0  0  0  0  0
    5.6236    1.2647   -2.5980 H   0  0  0  0  0  0  0  0  0  0  0  0
    5.8035    1.0066   -0.1669 H   0  0  0  0  0  0  0  0  0  0  0  0
    4.8451    2.4390   -0.5313 H   0  0  0  0  0  0  0  0  0  0  0  0
    2.7557    1.2410   -0.0728 H   0  0  0  0  0  0  0  0  0  0  0  0
    3.8399    1.0774    1.2997 H   0  0  0  0  0  0  0  0  0  0  0  0
  1  2  2  0
  2  3  1  0
  3  4  1  0
  4  5  1  0
  5  6  2  0
  5  7  1  0
  7  8  1  0
  8  9  1  0
  9 10  2  0
 10 11  1  0
 11 12  2  0
 12 13  1  0
 13 14  2  0
  7 15  1  0
 15 16  1  0
 16 17  2  0
 16 18  1  0
 18 19  2  0
 19 20  1  0
 20 21  2  0
 21 22  1  0
  2 23  1  0
 23 24  1  0
 24 25  1  0
 25 26  1  0
 26 27  1  0
 27 28  1  0
 28 29  1  0
 14  9  1  0
 22 18  1  0
 29 24  1  0
  3 30  1  0
  3 31  1  0
  7 32  1  0
  8 33  1  0
  8 34  1  0
 10 35  1  0
 11 36  1  0
 12 37  1  0
 13 38  1  0
 14 39  1  0
 15 40  1  0
 19 41  1  0
 20 42  1  0
 21 43  1  0
 23 44  1  0
 24 45  1  0
 25 46  1  0
 25 47  1  0
 26 48  1  0
 26 49  1  0
 27 50  1  0
 27 51  1  0
 28 52  1  0
 28 53  1  0
 29 54  1  0
 29 55  1  0
M  END
$$$$
