
     RDKit          3D

 43 46  0  0  0  0  0  0  0  0999 V2000
   -4.5066   -3.0424   -1.2145 C   0  0  0  0  0  0  0  0  0  0  0  0
   -3.9785   -1.6945   -1.3626 N   0  0  0  0  0  0  0  0  0  0  0  0
   -4.6030   -0.8513   -2.2801 C   0  0  0  0  0  0  0  0  0  0  0  0
   -5.5622   -1.1899   -2.9691 O   0  0  0  0  0  0  0  0  0  0  0  0
   -4.0572    0.5730   -2.4350 C   0  0  0  0  0  0  0  0  0  0  0  0
   -4.5996    1.3238   -3.2421 O   0  0  0  0  0  0  0  0  0  0  0  0
   -2.9666    0.9433   -1.6504 N   0  0  0  0  0  0  0  0  0  0  0  0
   -2.4587    2.3002   -1.7937 C   0  0  0  0  0  0  0  0  0  0  0  0
   -2.3625    0.0412   -0.7326 C   0  0  0  0  0  0  0  0  0  0  0  0
   -1.2588    0.4383    0.0417 C   0  0  0  0  0  0  0  0  0  0  0  0
   -0.6612   -0.4521    0.9387 C   0  0  0  0  0  0  0  0  0  0  0  0
    0.7360    0.1028    1.8940 S   0  0  0  0  0  6  0  0  0  0  0  0
    0.3182    1.3368    2.5251 O   0  0  0  0  0  0  0  0  0  0  0  0
    1.2133   -1.0235    2.6705 O   0  0  0  0  0  0  0  0  0  0  0  0
    1.8789    0.4288    0.6664 N   0  0  0  0  0  0  0  0  0  0  0  0
    2.3506   -0.7668   -0.1195 C   0  0  0  0  0  0  0  0  0  0  0  0
    3.8511   -0.9352    0.1676 C   0  0  0  0  0  0  0  0  0  0  0  0
    4.2078    0.3743    0.7841 C   0  0  0  0  0  0  0  0  0  0  0  0
    5.4708    0.8535    1.0941 C   0  0  0  0  0  0  0  0  0  0  0  0
    5.5716    2.0973    1.7213 C   0  0  0  0  0  0  0  0  0  0  0  0
    4.4195    2.8363    2.0314 C   0  0  0  0  0  0  0  0  0  0  0  0
    3.1514    2.3393    1.7199 C   0  0  0  0  0  0  0  0  0  0  0  0
    3.0662    1.1014    1.1078 C   0  0  0  0  0  0  0  0  0  0  0  0
   -1.1540   -1.7408    1.0941 C   0  0  0  0  0  0  0  0  0  0  0  0
   -2.2501   -2.1424    0.3302 C   0  0  0  0  0  0  0  0  0  0  0  0
   -2.8649   -1.2675   -0.5888 C   0  0  0  0  0  0  0  0  0  0  0  0
   -5.3620   -3.2259   -1.8708 H   0  0  0  0  0  0  0  0  0  0  0  0
   -3.7291   -3.7685   -1.4725 H   0  0  0  0  0  0  0  0  0  0  0  0
   -4.8426   -3.1906   -0.1832 H   0  0  0  0  0  0  0  0  0  0  0  0
   -3.0249    2.8775   -2.5300 H   0  0  0  0  0  0  0  0  0  0  0  0
   -2.5354    2.8211   -0.8339 H   0  0  0  0  0  0  0  0  0  0  0  0
   -1.4171    2.2654   -2.1289 H   0  0  0  0  0  0  0  0  0  0  0  0
   -0.8416    1.4397   -0.0300 H   0  0  0  0  0  0  0  0  0  0  0  0
    2.1871   -0.5465   -1.1819 H   0  0  0  0  0  0  0  0  0  0  0  0
    1.8033   -1.6862    0.1069 H   0  0  0  0  0  0  0  0  0  0  0  0
    4.4120   -1.1343   -0.7500 H   0  0  0  0  0  0  0  0  0  0  0  0
    4.0191   -1.7451    0.8854 H   0  0  0  0  0  0  0  0  0  0  0  0
    6.3626    0.2788    0.8642 H   0  0  0  0  0  0  0  0  0  0  0  0
    6.5508    2.4970    1.9760 H   0  0  0  0  0  0  0  0  0  0  0  0
    4.5140    3.8042    2.5182 H   0  0  0  0  0  0  0  0  0  0  0  0
    2.2651    2.9207    1.9505 H   0  0  0  0  0  0  0  0  0  0  0  0
   -0.7033   -2.4338    1.8018 H   0  0  0  0  0  0  0  0  0  0  0  0
   -2.6094   -3.1572    0.4793 H   0  0  0  0  0  0  0  0  0  0  0  0
  1  2  1  0
  2  3  1  0
  3  4  2  0
  3  5  1  0
  5  6  2  0
  5  7  1  0
  7  8  1  0
  7  9  1  0
  9 10  2  0
 10 11  1  0
 11 12  1  0
 12 13  2  0
 12 14  2  0
 12 15  1  0
 15 16  1  0
 16 17  1  0
 17 18  1  0
 18 19  2  0
 19 20  1  0
 20 21  2  0
 21 22  1  0
 22 23  2  0
 11 24  2  0
 24 25  1  0
 25 26  2  0
 26  2  1  0
 26  9  1  0
 23 15  1  0
 23 18  1  0
  1 27  1  0
  1 28  1  0
  1 29  1  0
  8 30  1  0
  8 31  1  0
  8 32  1  0
 10 33  1  0
 16 34  1  0
 16 35  1  0
 17 36  1  0
 17 37  1  0
 19 38  1  0
 20 39  1  0
 21 40  1  0
 22 41  1  0
 24 42  1  0
 25 43  1  0
M  END
$$$$
