
     RDKit          3D

 40 43  0  0  0  0  0  0  0  0999 V2000
   -2.2291    4.6087   -1.0825 C   0  0  0  0  0  0  0  0  0  0  0  0
   -1.3952    3.9413   -0.2739 C   0  0  0  0  0  0  0  0  0  0  0  0
   -0.4749    2.8423   -0.7288 C   0  0  0  0  0  0  0  0  0  0  0  0
   -1.0313    1.5488   -0.3378 N   0  0  0  0  0  0  0  0  0  0  0  0
   -0.8385    0.9680    0.9073 C   0  0  0  0  0  0  0  0  0  0  0  0
    0.1331    1.8234    2.0881 S   0  0  0  0  0  0  0  0  0  0  0  0
    1.0122    0.4423    2.8665 C   0  0  0  0  0  0  0  0  0  0  0  0
    1.8910   -0.3104    1.8870 C   0  0  0  0  0  0  0  0  0  0  0  0
    1.6238   -1.5937    1.5921 C   0  0  0  0  0  0  0  0  0  0  0  0
    2.5137   -2.3367    0.6714 C   0  0  0  0  0  0  0  0  0  0  0  0
    2.2826   -3.5132    0.4138 O   0  0  0  0  0  0  0  0  0  0  0  0
    3.5676   -1.6004    0.1886 N   0  0  0  0  0  0  0  0  0  0  0  0
    4.5351   -2.0780   -0.6741 C   0  0  0  0  0  0  0  0  0  0  0  0
    5.4756   -1.1790   -0.9827 C   0  0  0  0  0  0  0  0  0  0  0  0
    5.1816    0.3506   -0.1889 S   0  0  0  0  0  0  0  0  0  0  0  0
    3.7388   -0.2915    0.5763 C   0  0  0  0  0  0  0  0  0  0  0  0
    2.9779    0.3755    1.3760 N   0  0  0  0  0  0  0  0  0  0  0  0
   -1.3416   -0.1678    1.2714 N   0  0  0  0  0  0  0  0  0  0  0  0
   -2.1103   -0.8835    0.3505 C   0  0  0  0  0  0  0  0  0  0  0  0
   -2.6186   -2.1321    0.7213 C   0  0  0  0  0  0  0  0  0  0  0  0
   -3.3759   -2.8863   -0.1806 C   0  0  0  0  0  0  0  0  0  0  0  0
   -3.6245   -2.3993   -1.4657 C   0  0  0  0  0  0  0  0  0  0  0  0
   -3.1193   -1.1564   -1.8467 C   0  0  0  0  0  0  0  0  0  0  0  0
   -2.3694   -0.4062   -0.9305 C   0  0  0  0  0  0  0  0  0  0  0  0
   -1.8179    0.9104   -1.2979 C   0  0  0  0  0  0  0  0  0  0  0  0
   -2.0794    1.3685   -2.4110 O   0  0  0  0  0  0  0  0  0  0  0  0
   -2.3079    4.3671   -2.1415 H   0  0  0  0  0  0  0  0  0  0  0  0
   -2.8605    5.4012   -0.7012 H   0  0  0  0  0  0  0  0  0  0  0  0
   -1.3504    4.2186    0.7775 H   0  0  0  0  0  0  0  0  0  0  0  0
   -0.3476    2.8821   -1.8155 H   0  0  0  0  0  0  0  0  0  0  0  0
    0.5240    2.9875   -0.3021 H   0  0  0  0  0  0  0  0  0  0  0  0
    1.6455    0.8511    3.6624 H   0  0  0  0  0  0  0  0  0  0  0  0
    0.2939   -0.2204    3.3610 H   0  0  0  0  0  0  0  0  0  0  0  0
    0.7785   -2.1368    1.9983 H   0  0  0  0  0  0  0  0  0  0  0  0
    4.4833   -3.0997   -1.0295 H   0  0  0  0  0  0  0  0  0  0  0  0
    6.3192   -1.3487   -1.6368 H   0  0  0  0  0  0  0  0  0  0  0  0
   -2.4188   -2.5204    1.7175 H   0  0  0  0  0  0  0  0  0  0  0  0
   -3.7588   -3.8602    0.1173 H   0  0  0  0  0  0  0  0  0  0  0  0
   -4.2056   -2.9889   -2.1718 H   0  0  0  0  0  0  0  0  0  0  0  0
   -3.3020   -0.7778   -2.8509 H   0  0  0  0  0  0  0  0  0  0  0  0
  1  2  2  0
  2  3  1  0
  3  4  1  0
  4  5  1  0
  5  6  1  0
  6  7  1  0
  7  8  1  0
  8  9  2  0
  9 10  1  0
 10 11  2  0
 10 12  1  0
 12 13  1  0
 13 14  2  0
 14 15  1  0
 15 16  1  0
 16 17  2  0
  5 18  2  0
 18 19  1  0
 19 20  2  0
 20 21  1  0
 21 22  2  0
 22 23  1  0
 23 24  2  0
 24 25  1  0
 25 26  2  0
 25  4  1  0
 17  8  1  0
 24 19  1  0
 16 12  1  0
  1 27  1  0
  1 28  1  0
  2 29  1  0
  3 30  1  0
  3 31  1  0
  7 32  1  0
  7 33  1  0
  9 34  1  0
 13 35  1  0
 14 36  1  0
 20 37  1  0
 21 38  1  0
 22 39  1  0
 23 40  1  0
M  END
$$$$
