
     RDKit          3D

 42 43  0  0  0  0  0  0  0  0999 V2000
   -1.2478    3.0152   -1.4029 C   0  0  0  0  0  0  0  0  0  0  0  0
   -0.4023    2.1781   -0.4823 C   0  0  0  0  0  0  0  0  0  0  0  0
    0.6220    2.8132    0.2442 C   0  0  0  0  0  0  0  0  0  0  0  0
    1.4550    2.0914    1.1015 C   0  0  0  0  0  0  0  0  0  0  0  0
    1.2801    0.7145    1.2285 C   0  0  0  0  0  0  0  0  0  0  0  0
    2.3205   -0.2216    2.3252 S   0  0  0  0  0  6  0  0  0  0  0  0
    1.4465   -1.1213    3.0553 O   0  0  0  0  0  0  0  0  0  0  0  0
    3.1733    0.7140    3.0351 O   0  0  0  0  0  0  0  0  0  0  0  0
    3.3812   -1.2047    1.2890 C   0  0  0  0  0  0  0  0  0  0  0  0
    3.1007   -2.5602    1.0901 C   0  0  0  0  0  0  0  0  0  0  0  0
    3.9448   -3.3232    0.2804 C   0  0  0  0  0  0  0  0  0  0  0  0
    5.0614   -2.7318   -0.3126 C   0  0  0  0  0  0  0  0  0  0  0  0
    6.0993   -3.6761   -1.3077 Cl  0  0  0  0  0  0  0  0  0  0  0  0
    5.3465   -1.3818   -0.1012 C   0  0  0  0  0  0  0  0  0  0  0  0
    4.5067   -0.6120    0.7062 C   0  0  0  0  0  0  0  0  0  0  0  0
    0.2733    0.0545    0.5216 C   0  0  0  0  0  0  0  0  0  0  0  0
   -0.5658    0.7856   -0.3331 C   0  0  0  0  0  0  0  0  0  0  0  0
   -1.8198   -0.1204   -1.2302 S   0  0  0  0  0  6  0  0  0  0  0  0
   -1.6468   -1.5293   -0.9440 O   0  0  0  0  0  0  0  0  0  0  0  0
   -1.8218    0.3572   -2.5947 O   0  0  0  0  0  0  0  0  0  0  0  0
   -3.2667    0.3868   -0.4803 N   0  0  0  0  0  0  0  0  0  0  0  0
   -3.3978    0.0515    0.9550 C   0  0  0  0  0  0  0  0  0  0  0  0
   -4.4836    0.0481   -1.2757 C   0  0  0  0  0  0  0  0  0  0  0  0
   -4.6674   -1.4058   -1.6438 C   0  0  0  0  0  0  0  0  0  0  0  0
   -4.8464   -1.8499   -2.7663 O   0  0  0  0  0  0  0  0  0  0  0  0
   -4.6700   -2.2335   -0.5781 O   0  0  0  0  0  0  0  0  0  0  0  0
   -0.9698    2.8326   -2.4450 H   0  0  0  0  0  0  0  0  0  0  0  0
   -2.3125    2.8143   -1.2590 H   0  0  0  0  0  0  0  0  0  0  0  0
   -1.1062    4.0841   -1.2069 H   0  0  0  0  0  0  0  0  0  0  0  0
    0.7770    3.8876    0.1477 H   0  0  0  0  0  0  0  0  0  0  0  0
    2.2296    2.6134    1.6603 H   0  0  0  0  0  0  0  0  0  0  0  0
    2.2376   -3.0303    1.5575 H   0  0  0  0  0  0  0  0  0  0  0  0
    3.7304   -4.3770    0.1190 H   0  0  0  0  0  0  0  0  0  0  0  0
    6.2228   -0.9277   -0.5576 H   0  0  0  0  0  0  0  0  0  0  0  0
    4.7401    0.4364    0.8797 H   0  0  0  0  0  0  0  0  0  0  0  0
    0.1395   -1.0194    0.6421 H   0  0  0  0  0  0  0  0  0  0  0  0
   -2.7032    0.6580    1.5430 H   0  0  0  0  0  0  0  0  0  0  0  0
   -4.4048    0.2859    1.3145 H   0  0  0  0  0  0  0  0  0  0  0  0
   -3.2018   -1.0059    1.1493 H   0  0  0  0  0  0  0  0  0  0  0  0
   -5.3835    0.3776   -0.7434 H   0  0  0  0  0  0  0  0  0  0  0  0
   -4.4598    0.6342   -2.2023 H   0  0  0  0  0  0  0  0  0  0  0  0
   -4.7102   -3.1285   -0.9778 H   0  0  0  0  0  0  0  0  0  0  0  0
  1  2  1  0
  2  3  2  0
  3  4  1  0
  4  5  2  0
  5  6  1  0
  6  7  2  0
  6  8  2  0
  6  9  1  0
  9 10  2  0
 10 11  1  0
 11 12  2  0
 12 13  1  0
 12 14  1  0
 14 15  2  0
  5 16  1  0
 16 17  2  0
 17 18  1  0
 18 19  2  0
 18 20  2  0
 18 21  1  0
 21 22  1  0
 21 23  1  0
 23 24  1  0
 24 25  2  0
 24 26  1  0
 17  2  1  0
 15  9  1  0
  1 27  1  0
  1 28  1  0
  1 29  1  0
  3 30  1  0
  4 31  1  0
 10 32  1  0
 11 33  1  0
 14 34  1  0
 15 35  1  0
 16 36  1  0
 22 37  1  0
 22 38  1  0
 22 39  1  0
 23 40  1  0
 23 41  1  0
 26 42  1  0
M  END
$$$$
