
     RDKit          3D

 53 55  0  0  0  0  0  0  0  0999 V2000
    6.5370    1.6894   -1.1606 C   0  0  0  0  0  0  0  0  0  0  0  0
    5.6177    1.4568   -0.0258 C   0  0  0  0  0  0  0  0  0  0  0  0
    6.1397    1.6559    1.2173 O   0  0  0  0  0  0  0  0  0  0  0  0
    5.1441    1.4300    2.1089 C   0  0  0  0  0  0  0  0  0  0  0  0
    3.9871    1.0821    1.4554 C   0  0  0  0  0  0  0  0  0  0  0  0
    4.2893    1.0707    0.0593 C   0  0  0  0  0  0  0  0  0  0  0  0
    3.4249    0.8136   -1.0866 C   0  0  0  0  0  0  0  0  0  0  0  0
    3.5490    1.4762   -2.1160 O   0  0  0  0  0  0  0  0  0  0  0  0
    2.4366   -0.1675   -0.9616 N   0  0  0  0  0  0  0  0  0  0  0  0
    2.4888   -1.2722   -0.0127 C   0  0  0  0  0  0  0  0  0  0  0  0
    1.4038   -0.2442   -1.9978 C   0  0  0  0  0  0  0  0  0  0  0  0
    0.3957    0.9235   -1.9604 C   0  0  0  0  0  0  0  0  0  0  0  0
   -0.4840    0.8722   -3.2286 C   0  0  0  0  0  0  0  0  0  0  0  0
   -1.9130    1.3006   -2.9293 C   0  0  0  0  0  0  0  0  0  0  0  0
   -2.5334    0.4263   -1.8301 C   0  0  0  0  0  0  0  0  0  0  0  0
   -1.5767   -0.0133   -0.7944 N   0  0  0  0  0  0  0  0  0  0  0  0
   -2.2373   -0.2258    0.5066 C   0  0  0  0  0  0  0  0  0  0  0  0
   -3.2642   -1.3709    0.4785 C   0  0  0  0  0  0  0  0  0  0  0  0
   -3.8723   -1.6095    1.8381 C   0  0  0  0  0  0  0  0  0  0  0  0
   -3.4306   -2.6612    2.6520 C   0  0  0  0  0  0  0  0  0  0  0  0
   -3.9973   -2.8624    3.9138 C   0  0  0  0  0  0  0  0  0  0  0  0
   -5.0061   -2.0157    4.3752 C   0  0  0  0  0  0  0  0  0  0  0  0
   -5.4482   -0.9637    3.5753 C   0  0  0  0  0  0  0  0  0  0  0  0
   -4.8800   -0.7683    2.3200 C   0  0  0  0  0  0  0  0  0  0  0  0
   -5.3125    0.2527    1.5658 F   0  0  0  0  0  0  0  0  0  0  0  0
   -0.4589    0.9296   -0.6749 C   0  0  0  0  0  0  0  0  0  0  0  0
    6.4055    2.7025   -1.5521 H   0  0  0  0  0  0  0  0  0  0  0  0
    6.3495    0.9778   -1.9702 H   0  0  0  0  0  0  0  0  0  0  0  0
    7.5805    1.5752   -0.8503 H   0  0  0  0  0  0  0  0  0  0  0  0
    5.4076    1.5681    3.1480 H   0  0  0  0  0  0  0  0  0  0  0  0
    3.0343    0.8778    1.9226 H   0  0  0  0  0  0  0  0  0  0  0  0
    3.4416   -1.3253    0.5158 H   0  0  0  0  0  0  0  0  0  0  0  0
    2.3704   -2.2151   -0.5564 H   0  0  0  0  0  0  0  0  0  0  0  0
    1.6689   -1.1631    0.7015 H   0  0  0  0  0  0  0  0  0  0  0  0
    1.9158   -0.2567   -2.9687 H   0  0  0  0  0  0  0  0  0  0  0  0
    0.8736   -1.1999   -1.9072 H   0  0  0  0  0  0  0  0  0  0  0  0
    0.9487    1.8716   -1.9759 H   0  0  0  0  0  0  0  0  0  0  0  0
   -0.0508    1.5155   -4.0031 H   0  0  0  0  0  0  0  0  0  0  0  0
   -0.5049   -0.1425   -3.6464 H   0  0  0  0  0  0  0  0  0  0  0  0
   -2.5236    1.2399   -3.8374 H   0  0  0  0  0  0  0  0  0  0  0  0
   -1.9173    2.3519   -2.6149 H   0  0  0  0  0  0  0  0  0  0  0  0
   -2.9601   -0.4709   -2.2953 H   0  0  0  0  0  0  0  0  0  0  0  0
   -3.3688    0.9902   -1.3947 H   0  0  0  0  0  0  0  0  0  0  0  0
   -2.7053    0.7039    0.8555 H   0  0  0  0  0  0  0  0  0  0  0  0
   -1.4733   -0.4863    1.2517 H   0  0  0  0  0  0  0  0  0  0  0  0
   -2.7823   -2.2922    0.1246 H   0  0  0  0  0  0  0  0  0  0  0  0
   -4.0739   -1.1612   -0.2313 H   0  0  0  0  0  0  0  0  0  0  0  0
   -2.6450   -3.3311    2.3082 H   0  0  0  0  0  0  0  0  0  0  0  0
   -3.6518   -3.6836    4.5378 H   0  0  0  0  0  0  0  0  0  0  0  0
   -5.4457   -2.1761    5.3564 H   0  0  0  0  0  0  0  0  0  0  0  0
   -6.2307   -0.2954    3.9195 H   0  0  0  0  0  0  0  0  0  0  0  0
   -0.8353    1.9433   -0.4794 H   0  0  0  0  0  0  0  0  0  0  0  0
    0.1732    0.6769    0.1834 H   0  0  0  0  0  0  0  0  0  0  0  0
  1  2  1  0
  2  3  1  0
  3  4  1  0
  4  5  2  0
  5  6  1  0
  6  7  1  0
  7  8  2  0
  7  9  1  0
  9 10  1  0
  9 11  1  0
 11 12  1  0
 12 13  1  0
 13 14  1  0
 14 15  1  0
 15 16  1  0
 16 17  1  0
 17 18  1  0
 18 19  1  0
 19 20  2  0
 20 21  1  0
 21 22  2  0
 22 23  1  0
 23 24  2  0
 24 25  1  0
 16 26  1  0
  6  2  2  0
 26 12  1  0
 24 19  1  0
  1 27  1  0
  1 28  1  0
  1 29  1  0
  4 30  1  0
  5 31  1  0
 10 32  1  0
 10 33  1  0
 10 34  1  0
 11 35  1  0
 11 36  1  0
 12 37  1  0
 13 38  1  0
 13 39  1  0
 14 40  1  0
 14 41  1  0
 15 42  1  0
 15 43  1  0
 17 44  1  0
 17 45  1  0
 18 46  1  0
 18 47  1  0
 20 48  1  0
 21 49  1  0
 22 50  1  0
 23 51  1  0
 26 52  1  0
 26 53  1  0
M  END
$$$$
