
     RDKit          3D

 26 27  0  0  0  0  0  0  0  0999 V2000
    6.1639   -0.2478    0.3036 C   0  0  0  0  0  0  0  0  0  0  0  0
    4.7609    0.0937    0.0184 C   0  0  0  0  0  0  0  0  0  0  0  0
    4.2631    1.0257   -0.7641 N   0  0  0  0  0  0  0  0  0  0  0  0
    2.8917    0.9135   -0.6681 N   0  0  0  0  0  0  0  0  0  0  0  0
    2.6472   -0.0780    0.1651 C   0  0  0  0  0  0  0  0  0  0  0  0
    1.0680   -0.6271    0.6284 S   0  0  0  0  0  0  0  0  0  0  0  0
    0.0410    0.5194   -0.3336 C   0  0  0  0  0  0  0  0  0  0  0  0
   -1.4302    0.2551   -0.1097 C   0  0  0  0  0  0  0  0  0  0  0  0
   -2.1196   -0.6592   -0.9228 C   0  0  0  0  0  0  0  0  0  0  0  0
   -3.4756   -0.9194   -0.7088 C   0  0  0  0  0  0  0  0  0  0  0  0
   -4.1483   -0.2643    0.3299 C   0  0  0  0  0  0  0  0  0  0  0  0
   -5.5727   -0.5354    0.5595 N   0  0  0  0  0  4  0  0  0  0  0  0
   -6.1319    0.0641    1.4891 O   0  0  0  0  0  0  0  0  0  0  0  0
   -6.1339   -1.3472   -0.1906 O   0  0  0  0  0  1  0  0  0  0  0  0
   -3.4733    0.6451    1.1534 C   0  0  0  0  0  0  0  0  0  0  0  0
   -2.1174    0.8991    0.9320 C   0  0  0  0  0  0  0  0  0  0  0  0
    3.7982   -0.6489    0.6434 O   0  0  0  0  0  0  0  0  0  0  0  0
    6.3744   -1.2808    0.0113 H   0  0  0  0  0  0  0  0  0  0  0  0
    6.3760   -0.1383    1.3712 H   0  0  0  0  0  0  0  0  0  0  0  0
    6.8420    0.4092   -0.2492 H   0  0  0  0  0  0  0  0  0  0  0  0
    0.2723    1.5532   -0.0509 H   0  0  0  0  0  0  0  0  0  0  0  0
    0.2707    0.4190   -1.4010 H   0  0  0  0  0  0  0  0  0  0  0  0
   -1.6008   -1.1781   -1.7275 H   0  0  0  0  0  0  0  0  0  0  0  0
   -3.9865   -1.6319   -1.3534 H   0  0  0  0  0  0  0  0  0  0  0  0
   -3.9824    1.1578    1.9671 H   0  0  0  0  0  0  0  0  0  0  0  0
   -1.5968    1.6017    1.5812 H   0  0  0  0  0  0  0  0  0  0  0  0
  1  2  1  0
  2  3  2  0
  3  4  1  0
  4  5  2  0
  5  6  1  0
  6  7  1  0
  7  8  1  0
  8  9  2  0
  9 10  1  0
 10 11  2  0
 11 12  1  0
 12 13  2  0
 12 14  1  0
 11 15  1  0
 15 16  2  0
  5 17  1  0
 17  2  1  0
 16  8  1  0
  1 18  1  0
  1 19  1  0
  1 20  1  0
  7 21  1  0
  7 22  1  0
  9 23  1  0
 10 24  1  0
 15 25  1  0
 16 26  1  0
M  CHG  2  12   1  14  -1
M  END
$$$$
