
     RDKit          3D

 47 50  0  0  0  0  0  0  0  0999 V2000
   -0.6748    0.2129   -3.6483 C   0  0  0  0  0  0  0  0  0  0  0  0
   -0.5479   -0.5159   -2.2969 C   0  0  0  0  0  0  0  0  0  0  0  0
   -0.8558   -2.0089   -2.5319 C   0  0  0  0  0  0  0  0  0  0  0  0
   -1.5766    0.1019   -1.2970 C   0  0  0  0  0  0  0  0  0  0  0  0
   -1.2393   -0.2442    0.1162 C   0  0  0  0  0  0  0  0  0  0  0  0
   -0.0143   -0.7439    0.5232 C   0  0  0  0  0  0  0  0  0  0  0  0
   -0.1849   -1.0397    1.8793 C   0  0  0  0  0  0  0  0  0  0  0  0
   -1.4018   -0.7271    2.3164 N   0  0  0  0  0  0  0  0  0  0  0  0
   -2.0481   -0.1806    1.2444 N   0  0  0  0  0  0  0  0  0  0  0  0
   -3.3679    0.3406    1.4314 C   0  0  0  0  0  0  0  0  0  0  0  0
   -4.0369    0.0641    2.6414 C   0  0  0  0  0  0  0  0  0  0  0  0
   -5.3265    0.5490    2.8744 C   0  0  0  0  0  0  0  0  0  0  0  0
   -5.9502    1.3200    1.9055 C   0  0  0  0  0  0  0  0  0  0  0  0
   -7.1850    1.7892    2.1247 F   0  0  0  0  0  0  0  0  0  0  0  0
   -5.3052    1.6194    0.7126 C   0  0  0  0  0  0  0  0  0  0  0  0
   -4.0130    1.1349    0.4744 C   0  0  0  0  0  0  0  0  0  0  0  0
    1.1467   -0.9806   -0.3796 C   0  0  0  0  0  0  0  0  0  0  0  0
    2.3286   -0.4294    0.2425 N   0  0  0  0  0  0  0  0  0  0  0  0
    3.6001   -0.8199   -0.1153 C   0  0  0  0  0  0  0  0  0  0  0  0
    3.8440   -1.7308   -0.8970 O   0  0  0  0  0  0  0  0  0  0  0  0
    4.6888   -0.0288    0.5221 C   0  0  0  0  0  0  0  0  0  0  0  0
    6.0162   -0.3438    0.2754 C   0  0  0  0  0  0  0  0  0  0  0  0
    7.0389    0.3536    0.8340 N   0  0  0  0  0  0  0  0  0  0  0  0
    6.6704    1.3726    1.6453 C   0  0  0  0  0  0  0  0  0  0  0  0
    5.3417    1.6879    1.8902 C   0  0  0  0  0  0  0  0  0  0  0  0
    4.3143    1.0016    1.3372 N   0  0  0  0  0  0  0  0  0  0  0  0
    0.9037   -0.3335   -1.7637 C   0  0  0  0  0  0  0  0  0  0  0  0
    0.0174   -0.2034   -4.3888 H   0  0  0  0  0  0  0  0  0  0  0  0
   -1.6899    0.1242   -4.0513 H   0  0  0  0  0  0  0  0  0  0  0  0
   -0.4493    1.2804   -3.5467 H   0  0  0  0  0  0  0  0  0  0  0  0
   -0.1244   -2.4564   -3.2143 H   0  0  0  0  0  0  0  0  0  0  0  0
   -0.8412   -2.5895   -1.6044 H   0  0  0  0  0  0  0  0  0  0  0  0
   -1.8480   -2.1385   -2.9793 H   0  0  0  0  0  0  0  0  0  0  0  0
   -1.5550    1.1946   -1.3933 H   0  0  0  0  0  0  0  0  0  0  0  0
   -2.5819   -0.2484   -1.5566 H   0  0  0  0  0  0  0  0  0  0  0  0
    0.5235   -1.4830    2.5680 H   0  0  0  0  0  0  0  0  0  0  0  0
   -3.5659   -0.5411    3.4153 H   0  0  0  0  0  0  0  0  0  0  0  0
   -5.8406    0.3287    3.8044 H   0  0  0  0  0  0  0  0  0  0  0  0
   -5.8083    2.2384   -0.0243 H   0  0  0  0  0  0  0  0  0  0  0  0
   -3.5431    1.4341   -0.4525 H   0  0  0  0  0  0  0  0  0  0  0  0
    1.2917   -2.0606   -0.5059 H   0  0  0  0  0  0  0  0  0  0  0  0
    2.2572    0.4111    0.8111 H   0  0  0  0  0  0  0  0  0  0  0  0
    6.2992   -1.1637   -0.3763 H   0  0  0  0  0  0  0  0  0  0  0  0
    7.4795    1.9352    2.0984 H   0  0  0  0  0  0  0  0  0  0  0  0
    5.0696    2.5092    2.5445 H   0  0  0  0  0  0  0  0  0  0  0  0
    1.1160    0.7441   -1.6991 H   0  0  0  0  0  0  0  0  0  0  0  0
    1.6285   -0.7360   -2.4837 H   0  0  0  0  0  0  0  0  0  0  0  0
  1  2  1  0
  2  3  1  0
  2  4  1  0
  4  5  1  0
  5  6  2  0
  6  7  1  0
  7  8  2  0
  8  9  1  0
  9 10  1  0
 10 11  2  0
 11 12  1  0
 12 13  2  0
 13 14  1  0
 13 15  1  0
 15 16  2  0
  6 17  1  0
 17 18  1  0
 18 19  1  0
 19 20  2  0
 19 21  1  0
 21 22  2  0
 22 23  1  0
 23 24  2  0
 24 25  1  0
 25 26  2  0
 17 27  1  0
 27  2  1  0
  9  5  1  0
 16 10  1  0
 26 21  1  0
  1 28  1  0
  1 29  1  0
  1 30  1  0
  3 31  1  0
  3 32  1  0
  3 33  1  0
  4 34  1  0
  4 35  1  0
  7 36  1  0
 11 37  1  0
 12 38  1  0
 15 39  1  0
 16 40  1  0
 17 41  1  0
 18 42  1  0
 22 43  1  0
 24 44  1  0
 25 45  1  0
 27 46  1  0
 27 47  1  0
M  END
$$$$
