
     RDKit          3D

 43 46  0  0  0  0  0  0  0  0999 V2000
    6.6749    0.0744   -1.0359 C   0  0  0  0  0  0  0  0  0  0  0  0
    5.3321   -0.0683   -0.3794 C   0  0  0  0  0  0  0  0  0  0  0  0
    4.6513   -1.2942   -0.4108 C   0  0  0  0  0  0  0  0  0  0  0  0
    3.4103   -1.4654    0.2170 C   0  0  0  0  0  0  0  0  0  0  0  0
    2.8904   -0.3581    0.8865 C   0  0  0  0  0  0  0  0  0  0  0  0
    1.7337   -0.1662    1.5970 N   0  0  0  0  0  0  0  0  0  0  0  0
    1.7109    1.1360    2.0495 C   0  0  0  0  0  0  0  0  0  0  0  0
    0.6126    1.5767    2.8333 C   0  0  0  0  0  0  0  0  0  0  0  0
    0.8658    1.9916    4.1773 C   0  0  0  0  0  0  0  0  0  0  0  0
    1.0207    2.3003    5.2860 N   0  0  0  0  0  0  0  0  0  0  0  0
   -0.6561    1.6052    2.3791 C   0  0  0  0  0  0  0  0  0  0  0  0
   -1.0788    1.2727    1.0616 C   0  0  0  0  0  0  0  0  0  0  0  0
   -0.5192    1.5500   -0.1790 C   0  0  0  0  0  0  0  0  0  0  0  0
   -1.3671    0.9974   -1.1682 C   0  0  0  0  0  0  0  0  0  0  0  0
   -2.4183    0.4098   -0.5026 C   0  0  0  0  0  0  0  0  0  0  0  0
   -3.5330   -0.2464   -0.9188 N   0  0  0  0  0  0  0  0  0  0  0  0
   -3.5409   -0.8306   -2.2721 C   0  0  0  0  0  0  0  0  0  0  0  0
   -4.9709   -1.1982   -2.6948 C   0  0  0  0  0  0  0  0  0  0  0  0
   -5.5953   -2.0674   -1.7387 O   0  0  0  0  0  0  0  0  0  0  0  0
   -5.6734   -1.4084   -0.4658 C   0  0  0  0  0  0  0  0  0  0  0  0
   -4.2807   -1.0475    0.0712 C   0  0  0  0  0  0  0  0  0  0  0  0
   -2.2500    0.5890    0.8358 O   0  0  0  0  0  0  0  0  0  0  0  0
    2.8059    1.7715    1.6823 N   0  0  0  0  0  0  0  0  0  0  0  0
    3.5401    0.8668    0.9542 C   0  0  0  0  0  0  0  0  0  0  0  0
    4.7804    1.0215    0.3184 C   0  0  0  0  0  0  0  0  0  0  0  0
    7.4693   -0.0528   -0.2939 H   0  0  0  0  0  0  0  0  0  0  0  0
    6.7741    1.0621   -1.4981 H   0  0  0  0  0  0  0  0  0  0  0  0
    6.8092   -0.6695   -1.8278 H   0  0  0  0  0  0  0  0  0  0  0  0
    5.0916   -2.1425   -0.9329 H   0  0  0  0  0  0  0  0  0  0  0  0
    2.8919   -2.4174    0.1861 H   0  0  0  0  0  0  0  0  0  0  0  0
    1.0106   -0.8563    1.7429 H   0  0  0  0  0  0  0  0  0  0  0  0
   -1.4576    1.8952    3.0566 H   0  0  0  0  0  0  0  0  0  0  0  0
    0.3952    2.1030   -0.3544 H   0  0  0  0  0  0  0  0  0  0  0  0
   -1.2274    1.0439   -2.2379 H   0  0  0  0  0  0  0  0  0  0  0  0
   -3.1346   -0.1313   -3.0115 H   0  0  0  0  0  0  0  0  0  0  0  0
   -2.9172   -1.7331   -2.2720 H   0  0  0  0  0  0  0  0  0  0  0  0
   -4.9508   -1.7211   -3.6562 H   0  0  0  0  0  0  0  0  0  0  0  0
   -5.5882   -0.2998   -2.8175 H   0  0  0  0  0  0  0  0  0  0  0  0
   -6.2994   -0.5128   -0.5662 H   0  0  0  0  0  0  0  0  0  0  0  0
   -6.1758   -2.0874    0.2306 H   0  0  0  0  0  0  0  0  0  0  0  0
   -4.4121   -0.5007    1.0124 H   0  0  0  0  0  0  0  0  0  0  0  0
   -3.7187   -1.9667    0.2798 H   0  0  0  0  0  0  0  0  0  0  0  0
    5.2945    1.9751    0.3772 H   0  0  0  0  0  0  0  0  0  0  0  0
  1  2  1  0
  2  3  2  0
  3  4  1  0
  4  5  2  0
  5  6  1  0
  6  7  1  0
  7  8  1  0
  8  9  1  0
  9 10  3  0
  8 11  2  3
 11 12  1  0
 12 13  2  0
 13 14  1  0
 14 15  2  0
 15 16  1  0
 16 17  1  0
 17 18  1  0
 18 19  1  0
 19 20  1  0
 20 21  1  0
 15 22  1  0
  7 23  2  0
 23 24  1  0
 24 25  2  0
 25  2  1  0
 24  5  1  0
 22 12  1  0
 21 16  1  0
  1 26  1  0
  1 27  1  0
  1 28  1  0
  3 29  1  0
  4 30  1  0
  6 31  1  0
 11 32  1  0
 13 33  1  0
 14 34  1  0
 17 35  1  0
 17 36  1  0
 18 37  1  0
 18 38  1  0
 20 39  1  0
 20 40  1  0
 21 41  1  0
 21 42  1  0
 25 43  1  0
M  END
$$$$
