
     RDKit          3D

 44 46  0  0  0  0  0  0  0  0999 V2000
   -6.6901    0.2336   -2.3759 C   0  0  0  0  0  0  0  0  0  0  0  0
   -5.7467   -0.1668   -1.2787 C   0  0  0  0  0  0  0  0  0  0  0  0
   -6.2401   -0.6264   -0.0568 C   0  0  0  0  0  0  0  0  0  0  0  0
   -5.3633   -0.9757    0.9702 C   0  0  0  0  0  0  0  0  0  0  0  0
   -3.9771   -0.8587    0.7965 C   0  0  0  0  0  0  0  0  0  0  0  0
   -3.0514   -1.2428    1.9158 C   0  0  0  0  0  0  0  0  0  0  0  0
   -3.4723   -0.3824   -0.4266 C   0  0  0  0  0  0  0  0  0  0  0  0
   -2.1064   -0.2956   -0.5079 O   0  0  0  0  0  0  0  0  0  0  0  0
   -1.5419    0.0751   -1.7649 C   0  0  0  0  0  0  0  0  0  0  0  0
   -0.0691    0.0034   -1.6159 C   0  0  0  0  0  0  0  0  0  0  0  0
    0.7874   -0.4408   -0.6381 C   0  0  0  0  0  0  0  0  0  0  0  0
    2.0880   -0.2206   -1.1632 C   0  0  0  0  0  0  0  0  0  0  0  0
    3.3871   -0.5391   -0.5555 C   0  0  0  0  0  0  0  0  0  0  0  0
    4.2546   -1.1367   -1.1955 O   0  0  0  0  0  0  0  0  0  0  0  0
    3.5914   -0.1957    0.7882 N   0  0  0  0  0  0  0  0  0  0  0  0
    2.7391    0.7012    1.5608 C   0  0  0  0  0  0  0  0  0  0  0  0
    4.8336   -0.6435    1.4191 C   0  0  0  0  0  0  0  0  0  0  0  0
    5.9341    0.3664    1.2185 C   0  0  0  0  0  0  0  0  0  0  0  0
    5.8766    1.6289    1.6052 N   0  0  0  0  0  0  0  0  0  0  0  0
    7.0509    2.2729    1.2701 C   0  0  0  0  0  0  0  0  0  0  0  0
    8.0067    1.4914    0.6555 C   0  0  0  0  0  0  0  0  0  0  0  0
    7.4218   -0.1085    0.4859 S   0  0  0  0  0  0  0  0  0  0  0  0
    2.0067    0.2997   -2.3991 N   0  0  0  0  0  0  0  0  0  0  0  0
    0.6616    0.4528   -2.6696 O   0  0  0  0  0  0  0  0  0  0  0  0
   -4.3603   -0.0353   -1.4514 C   0  0  0  0  0  0  0  0  0  0  0  0
   -7.6235   -0.3371   -2.3187 H   0  0  0  0  0  0  0  0  0  0  0  0
   -6.9216    1.3007   -2.3009 H   0  0  0  0  0  0  0  0  0  0  0  0
   -6.2507    0.0331   -3.3601 H   0  0  0  0  0  0  0  0  0  0  0  0
   -7.3116   -0.7193    0.1063 H   0  0  0  0  0  0  0  0  0  0  0  0
   -5.7713   -1.3345    1.9142 H   0  0  0  0  0  0  0  0  0  0  0  0
   -3.6043   -1.5741    2.8022 H   0  0  0  0  0  0  0  0  0  0  0  0
   -2.4377   -0.3846    2.2096 H   0  0  0  0  0  0  0  0  0  0  0  0
   -2.3991   -2.0667    1.6049 H   0  0  0  0  0  0  0  0  0  0  0  0
   -1.8308    1.1014   -2.0203 H   0  0  0  0  0  0  0  0  0  0  0  0
   -1.8569   -0.6206   -2.5505 H   0  0  0  0  0  0  0  0  0  0  0  0
    0.5137   -0.8809    0.3095 H   0  0  0  0  0  0  0  0  0  0  0  0
    2.0597    0.0894    2.1650 H   0  0  0  0  0  0  0  0  0  0  0  0
    2.1637    1.3648    0.9106 H   0  0  0  0  0  0  0  0  0  0  0  0
    3.3403    1.3249    2.2271 H   0  0  0  0  0  0  0  0  0  0  0  0
    5.1149   -1.6253    1.0212 H   0  0  0  0  0  0  0  0  0  0  0  0
    4.6471   -0.7765    2.4934 H   0  0  0  0  0  0  0  0  0  0  0  0
    7.1607    3.3267    1.5009 H   0  0  0  0  0  0  0  0  0  0  0  0
    8.9913    1.7768    0.3133 H   0  0  0  0  0  0  0  0  0  0  0  0
   -4.0048    0.3453   -2.4025 H   0  0  0  0  0  0  0  0  0  0  0  0
  1  2  1  0
  2  3  2  0
  3  4  1  0
  4  5  2  0
  5  6  1  0
  5  7  1  0
  7  8  1  0
  8  9  1  0
  9 10  1  0
 10 11  2  0
 11 12  1  0
 12 13  1  0
 13 14  2  0
 13 15  1  0
 15 16  1  0
 15 17  1  0
 17 18  1  0
 18 19  2  0
 19 20  1  0
 20 21  2  0
 21 22  1  0
 12 23  2  0
 23 24  1  0
  7 25  2  0
 25  2  1  0
 24 10  1  0
 22 18  1  0
  1 26  1  0
  1 27  1  0
  1 28  1  0
  3 29  1  0
  4 30  1  0
  6 31  1  0
  6 32  1  0
  6 33  1  0
  9 34  1  0
  9 35  1  0
 11 36  1  0
 16 37  1  0
 16 38  1  0
 16 39  1  0
 17 40  1  0
 17 41  1  0
 20 42  1  0
 21 43  1  0
 25 44  1  0
M  END
$$$$
