
     RDKit          3D

 47 50  0  0  0  0  0  0  0  0999 V2000
   -2.4441   -3.0350    0.0399 O   0  0  0  0  0  0  0  0  0  0  0  0
   -2.6132   -1.8874   -0.3248 C   0  0  0  0  0  0  0  0  0  0  0  0
   -3.7866   -1.4176   -1.0585 C   0  0  0  0  0  0  0  0  0  0  0  0
   -4.8753   -2.1110   -1.5483 C   0  0  0  0  0  0  0  0  0  0  0  0
   -5.8613   -1.3675   -2.2050 C   0  0  0  0  0  0  0  0  0  0  0  0
   -5.7382    0.0305   -2.3499 C   0  0  0  0  0  0  0  0  0  0  0  0
   -4.6271    0.7100   -1.8406 C   0  0  0  0  0  0  0  0  0  0  0  0
   -3.6661   -0.0466   -1.2004 C   0  0  0  0  0  0  0  0  0  0  0  0
   -2.4162    0.3526   -0.5572 C   0  0  0  0  0  0  0  0  0  0  0  0
   -2.0466    1.5027   -0.4257 O   0  0  0  0  0  0  0  0  0  0  0  0
   -1.8185   -0.7956   -0.1218 N   0  0  0  0  0  0  0  0  0  0  0  0
   -0.5809   -0.8199    0.6217 C   0  0  0  0  0  0  0  0  0  0  0  0
    0.5950   -0.4118   -0.1660 N   0  0  0  0  0  0  0  0  0  0  0  0
    1.4125    0.6763    0.2097 C   0  0  0  0  0  0  0  0  0  0  0  0
    2.4974    0.9209   -0.3268 O   0  0  0  0  0  0  0  0  0  0  0  0
    0.9404    1.5527    1.3883 C   0  0  0  0  0  0  0  0  0  0  0  0
    1.7371    2.7027    1.6534 O   0  0  0  0  0  0  0  0  0  0  0  0
    2.7110    2.5697    2.6040 C   0  0  0  0  0  0  0  0  0  0  0  0
    3.4149    1.3963    2.8775 C   0  0  0  0  0  0  0  0  0  0  0  0
    4.4004    1.3857    3.8688 C   0  0  0  0  0  0  0  0  0  0  0  0
    4.6924    2.5484    4.5803 C   0  0  0  0  0  0  0  0  0  0  0  0
    4.0083    3.7276    4.2930 C   0  0  0  0  0  0  0  0  0  0  0  0
    3.0250    3.7373    3.3025 C   0  0  0  0  0  0  0  0  0  0  0  0
    0.9131   -1.1922   -1.3421 C   0  0  0  0  0  0  0  0  0  0  0  0
    1.5467   -0.6070   -2.4530 C   0  0  0  0  0  0  0  0  0  0  0  0
    1.8286   -1.3468   -3.6071 C   0  0  0  0  0  0  0  0  0  0  0  0
    1.4763   -2.6852   -3.6654 C   0  0  0  0  0  0  0  0  0  0  0  0
    1.7402   -3.3948   -4.7695 F   0  0  0  0  0  0  0  0  0  0  0  0
    0.8464   -3.2944   -2.5918 C   0  0  0  0  0  0  0  0  0  0  0  0
    0.5649   -2.5514   -1.4389 C   0  0  0  0  0  0  0  0  0  0  0  0
   -4.9594   -3.1866   -1.4285 H   0  0  0  0  0  0  0  0  0  0  0  0
   -6.7368   -1.8724   -2.6107 H   0  0  0  0  0  0  0  0  0  0  0  0
   -6.5202    0.5857   -2.8655 H   0  0  0  0  0  0  0  0  0  0  0  0
   -4.5214    1.7854   -1.9434 H   0  0  0  0  0  0  0  0  0  0  0  0
   -0.7351   -0.1640    1.4790 H   0  0  0  0  0  0  0  0  0  0  0  0
   -0.3964   -1.8138    1.0440 H   0  0  0  0  0  0  0  0  0  0  0  0
    0.8361    0.9411    2.2921 H   0  0  0  0  0  0  0  0  0  0  0  0
   -0.0496    1.9403    1.1324 H   0  0  0  0  0  0  0  0  0  0  0  0
    3.2438    0.4859    2.3134 H   0  0  0  0  0  0  0  0  0  0  0  0
    4.9522    0.4719    4.0736 H   0  0  0  0  0  0  0  0  0  0  0  0
    5.4640    2.5391    5.3457 H   0  0  0  0  0  0  0  0  0  0  0  0
    4.2429    4.6405    4.8332 H   0  0  0  0  0  0  0  0  0  0  0  0
    2.4975    4.6600    3.0745 H   0  0  0  0  0  0  0  0  0  0  0  0
    1.8100    0.4484   -2.4622 H   0  0  0  0  0  0  0  0  0  0  0  0
    2.3160   -0.8780   -4.4562 H   0  0  0  0  0  0  0  0  0  0  0  0
    0.5806   -4.3454   -2.6502 H   0  0  0  0  0  0  0  0  0  0  0  0
    0.0991   -3.0874   -0.6175 H   0  0  0  0  0  0  0  0  0  0  0  0
  1  2  2  0
  2  3  1  0
  3  4  2  0
  4  5  1  0
  5  6  2  0
  6  7  1  0
  7  8  2  0
  8  9  1  0
  9 10  2  0
  9 11  1  0
 11 12  1  0
 12 13  1  0
 13 14  1  0
 14 15  2  0
 14 16  1  0
 16 17  1  0
 17 18  1  0
 18 19  2  0
 19 20  1  0
 20 21  2  0
 21 22  1  0
 22 23  2  0
 13 24  1  0
 24 25  2  0
 25 26  1  0
 26 27  2  0
 27 28  1  0
 27 29  1  0
 29 30  2  0
 11  2  1  0
 23 18  1  0
 30 24  1  0
  8  3  1  0
  4 31  1  0
  5 32  1  0
  6 33  1  0
  7 34  1  0
 12 35  1  0
 12 36  1  0
 16 37  1  0
 16 38  1  0
 19 39  1  0
 20 40  1  0
 21 41  1  0
 22 42  1  0
 23 43  1  0
 25 44  1  0
 26 45  1  0
 29 46  1  0
 30 47  1  0
M  END
$$$$
