
     RDKit          3D

 68 73  0  0  0  0  0  0  0  0999 V2000
   -4.7008    4.9093   -1.3995 C   0  0  0  0  0  0  0  0  0  0  0  0
   -3.6979    3.9122   -1.2564 O   0  0  0  0  0  0  0  0  0  0  0  0
   -3.4810    3.4245    0.0045 C   0  0  0  0  0  0  0  0  0  0  0  0
   -4.1382    3.8533    1.1743 C   0  0  0  0  0  0  0  0  0  0  0  0
   -3.8340    3.2893    2.4199 C   0  0  0  0  0  0  0  0  0  0  0  0
   -2.8739    2.3017    2.4559 C   0  0  0  0  0  0  0  0  0  0  0  0
   -2.2172    1.8560    1.3073 C   0  0  0  0  0  0  0  0  0  0  0  0
   -2.5091    2.4188    0.0741 C   0  0  0  0  0  0  0  0  0  0  0  0
   -1.2423    0.7890    1.6977 C   0  0  1  0  0  0  0  0  0  0  0  0
   -1.4217    0.6966    3.2375 C   0  0  0  0  0  0  0  0  0  0  0  0
   -0.8234   -0.0114    4.0348 O   0  0  0  0  0  0  0  0  0  0  0  0
   -2.4079    1.6275    3.5784 N   0  0  0  0  0  0  0  0  0  0  0  0
   -1.5632   -0.4761    0.9896 C   0  0  0  0  0  0  0  0  0  0  0  0
   -0.3828   -1.1153    0.5731 C   0  0  0  0  0  0  0  0  0  0  0  0
   -0.7114   -2.2903   -0.0488 C   0  0  0  0  0  0  0  0  0  0  0  0
    0.0678   -3.2168   -0.6003 O   0  0  0  0  0  0  0  0  0  0  0  0
   -2.1207   -2.3578   -0.0811 N   0  0  0  0  0  0  0  0  0  0  0  0
   -2.9108   -3.3366   -0.7652 C   0  0  0  0  0  0  0  0  0  0  0  0
   -4.1546   -2.9779   -1.3093 C   0  0  0  0  0  0  0  0  0  0  0  0
   -4.9342   -3.9267   -1.9755 C   0  0  0  0  0  0  0  0  0  0  0  0
   -4.4781   -5.2359   -2.1090 C   0  0  0  0  0  0  0  0  0  0  0  0
   -3.2387   -5.5963   -1.5846 C   0  0  0  0  0  0  0  0  0  0  0  0
   -2.4532   -4.6506   -0.9196 C   0  0  0  0  0  0  0  0  0  0  0  0
   -2.6260   -1.2769    0.6735 C   0  0  0  0  0  0  0  0  0  0  0  0
   -3.8997   -1.1331    1.0379 O   0  0  0  0  0  0  0  0  0  0  0  0
    0.7887   -0.3287    1.0157 C   0  0  1  0  0  0  0  0  0  0  0  0
    1.9682   -0.1487    0.0665 C   0  0  0  0  0  0  0  0  0  0  0  0
    2.9178    0.8481    0.6017 N   0  0  0  0  0  0  0  0  0  0  0  0
    4.2386    0.8853    0.1864 C   0  0  0  0  0  0  0  0  0  0  0  0
    4.9934    1.8211    0.4159 O   0  0  0  0  0  0  0  0  0  0  0  0
    4.5894   -0.2348   -0.4966 O   0  0  0  0  0  0  0  0  0  0  0  0
    5.9298   -0.4006   -1.0256 C   0  0  0  0  0  0  0  0  0  0  0  0
    5.9058   -1.7742   -1.7140 C   0  0  0  0  0  0  0  0  0  0  0  0
    6.2506    0.6670   -2.0772 C   0  0  0  0  0  0  0  0  0  0  0  0
    6.9734   -0.4352    0.0961 C   0  0  0  0  0  0  0  0  0  0  0  0
    2.3370    2.0901    1.1407 C   0  0  0  0  0  0  0  0  0  0  0  0
    1.0441    1.8825    1.9704 C   0  0  0  0  0  0  0  0  0  0  0  0
    0.1494    1.0041    1.2369 N   0  0  0  0  0  0  0  0  0  0  0  0
   -5.6820    4.5296   -1.0961 H   0  0  0  0  0  0  0  0  0  0  0  0
   -4.4376    5.8156   -0.8444 H   0  0  0  0  0  0  0  0  0  0  0  0
   -4.7600    5.1742   -2.4594 H   0  0  0  0  0  0  0  0  0  0  0  0
   -4.8939    4.6317    1.1438 H   0  0  0  0  0  0  0  0  0  0  0  0
   -4.3395    3.6254    3.3178 H   0  0  0  0  0  0  0  0  0  0  0  0
   -1.9967    2.0819   -0.8221 H   0  0  0  0  0  0  0  0  0  0  0  0
   -2.7242    1.7662    4.5255 H   0  0  0  0  0  0  0  0  0  0  0  0
    0.9946   -2.9580   -0.4623 H   0  0  0  0  0  0  0  0  0  0  0  0
   -4.5145   -1.9512   -1.2744 H   0  0  0  0  0  0  0  0  0  0  0  0
   -5.8906   -3.6386   -2.4049 H   0  0  0  0  0  0  0  0  0  0  0  0
   -5.0828   -5.9734   -2.6304 H   0  0  0  0  0  0  0  0  0  0  0  0
   -2.8796   -6.6168   -1.6918 H   0  0  0  0  0  0  0  0  0  0  0  0
   -1.5037   -4.9752   -0.5033 H   0  0  0  0  0  0  0  0  0  0  0  0
   -4.3398   -2.0003    0.9785 H   0  0  0  0  0  0  0  0  0  0  0  0
    1.1422   -0.7404    1.9723 H   0  0  0  0  0  0  0  0  0  0  0  0
    1.6450    0.2048   -0.9210 H   0  0  0  0  0  0  0  0  0  0  0  0
    2.4720   -1.1093   -0.0834 H   0  0  0  0  0  0  0  0  0  0  0  0
    6.8733   -2.0221   -2.1631 H   0  0  0  0  0  0  0  0  0  0  0  0
    5.6435   -2.5633   -0.9995 H   0  0  0  0  0  0  0  0  0  0  0  0
    5.1417   -1.8030   -2.4997 H   0  0  0  0  0  0  0  0  0  0  0  0
    5.4478    0.7339   -2.8201 H   0  0  0  0  0  0  0  0  0  0  0  0
    6.3510    1.6620   -1.6335 H   0  0  0  0  0  0  0  0  0  0  0  0
    7.1889    0.4450   -2.5969 H   0  0  0  0  0  0  0  0  0  0  0  0
    7.9577   -0.7284   -0.2847 H   0  0  0  0  0  0  0  0  0  0  0  0
    7.0879    0.5395    0.5795 H   0  0  0  0  0  0  0  0  0  0  0  0
    6.6782   -1.1418    0.8799 H   0  0  0  0  0  0  0  0  0  0  0  0
    2.1196    2.7321    0.2773 H   0  0  0  0  0  0  0  0  0  0  0  0
    3.0832    2.6095    1.7524 H   0  0  0  0  0  0  0  0  0  0  0  0
    0.5807    2.8598    2.1450 H   0  0  0  0  0  0  0  0  0  0  0  0
    1.3046    1.4579    2.9473 H   0  0  0  0  0  0  0  0  0  0  0  0
  1  2  1  0
  2  3  1  0
  3  4  2  0
  4  5  1  0
  5  6  2  0
  6  7  1  0
  7  8  2  0
  7  9  1  0
  9 10  1  0
 10 11  2  0
 10 12  1  0
  9 13  1  0
 13 14  1  0
 14 15  2  0
 15 16  1  0
 15 17  1  0
 17 18  1  0
 18 19  2  0
 19 20  1  0
 20 21  2  0
 21 22  1  0
 22 23  2  0
 17 24  1  0
 24 25  1  0
 14 26  1  0
 26 27  1  0
 27 28  1  0
 28 29  1  0
 29 30  2  0
 29 31  1  0
 31 32  1  0
 32 33  1  0
 32 34  1  0
 32 35  1  0
 28 36  1  0
 36 37  1  0
 37 38  1  0
  8  3  1  0
  9 38  1  1
 12  6  1  0
 24 13  2  0
 38 26  1  0
 23 18  1  0
  1 39  1  0
  1 40  1  0
  1 41  1  0
  4 42  1  0
  5 43  1  0
  8 44  1  0
 12 45  1  0
 16 46  1  0
 19 47  1  0
 20 48  1  0
 21 49  1  0
 22 50  1  0
 23 51  1  0
 25 52  1  0
 26 53  1  1
 27 54  1  0
 27 55  1  0
 33 56  1  0
 33 57  1  0
 33 58  1  0
 34 59  1  0
 34 60  1  0
 34 61  1  0
 35 62  1  0
 35 63  1  0
 35 64  1  0
 36 65  1  0
 36 66  1  0
 37 67  1  0
 37 68  1  0
M  END
$$$$
