
     RDKit          3D

 30 31  0  0  0  0  0  0  0  0999 V2000
    0.1709   -1.2453    0.6449 O   0  0  0  0  0  0  0  0  0  0  0  0
    0.4457   -0.0736    0.4047 C   0  0  0  0  0  0  0  0  0  0  0  0
   -0.5530    1.0861    0.5136 C   0  0  0  0  0  0  0  0  0  0  0  0
   -1.8404    0.6954    0.9835 O   0  0  0  0  0  0  0  0  0  0  0  0
   -2.7181    0.5034   -0.0502 C   0  0  0  0  0  0  0  0  0  0  0  0
   -2.9277   -0.8044   -0.4906 C   0  0  0  0  0  0  0  0  0  0  0  0
   -3.8407   -1.0531   -1.5160 C   0  0  0  0  0  0  0  0  0  0  0  0
   -4.5520    0.0051   -2.0820 C   0  0  0  0  0  0  0  0  0  0  0  0
   -5.6780   -0.3058   -3.3456 Cl  0  0  0  0  0  0  0  0  0  0  0  0
   -4.3663    1.3108   -1.6295 C   0  0  0  0  0  0  0  0  0  0  0  0
   -3.4531    1.5593   -0.6042 C   0  0  0  0  0  0  0  0  0  0  0  0
   -3.2559    3.1816   -0.0493 Cl  0  0  0  0  0  0  0  0  0  0  0  0
    1.7124    0.3222    0.0116 N   0  0  0  0  0  0  0  0  0  0  0  0
    2.7331   -0.6750   -0.3037 C   0  0  0  0  0  0  0  0  0  0  0  0
    3.2917   -1.4125    0.9143 C   0  0  0  0  0  0  0  0  0  0  0  0
    4.4040   -0.5691    1.5075 C   0  0  0  0  0  0  0  0  0  0  0  0
    5.3470   -0.0210    0.0611 S   0  0  0  0  0  0  0  0  0  0  0  0
    3.9158    0.0243   -0.9609 C   0  0  0  0  0  0  0  0  0  0  0  0
    3.8591    0.6714   -1.9970 O   0  0  0  0  0  0  0  0  0  0  0  0
   -0.1502    1.7940    1.2470 H   0  0  0  0  0  0  0  0  0  0  0  0
   -0.5948    1.6039   -0.4539 H   0  0  0  0  0  0  0  0  0  0  0  0
   -2.3830   -1.6286   -0.0345 H   0  0  0  0  0  0  0  0  0  0  0  0
   -3.9964   -2.0720   -1.8625 H   0  0  0  0  0  0  0  0  0  0  0  0
   -4.9352    2.1266   -2.0668 H   0  0  0  0  0  0  0  0  0  0  0  0
    1.7917    1.2178   -0.4632 H   0  0  0  0  0  0  0  0  0  0  0  0
    2.3029   -1.3918   -1.0127 H   0  0  0  0  0  0  0  0  0  0  0  0
    2.5292   -1.6287    1.6688 H   0  0  0  0  0  0  0  0  0  0  0  0
    3.7022   -2.3805    0.5951 H   0  0  0  0  0  0  0  0  0  0  0  0
    5.0339   -1.1437    2.1917 H   0  0  0  0  0  0  0  0  0  0  0  0
    4.0053    0.3032    2.0351 H   0  0  0  0  0  0  0  0  0  0  0  0
  1  2  2  0
  2  3  1  0
  3  4  1  0
  4  5  1  0
  5  6  2  0
  6  7  1  0
  7  8  2  0
  8  9  1  0
  8 10  1  0
 10 11  2  0
 11 12  1  0
  2 13  1  0
 13 14  1  0
 14 15  1  0
 15 16  1  0
 16 17  1  0
 17 18  1  0
 18 19  2  0
 11  5  1  0
 18 14  1  0
  3 20  1  0
  3 21  1  0
  6 22  1  0
  7 23  1  0
 10 24  1  0
 13 25  1  0
 14 26  1  0
 15 27  1  0
 15 28  1  0
 16 29  1  0
 16 30  1  0
M  END
$$$$
