
     RDKit          3D

 37 38  0  0  0  0  0  0  0  0999 V2000
    5.8368    1.3923    2.6484 C   0  0  0  0  0  0  0  0  0  0  0  0
    4.9615    0.8202    1.5306 C   0  0  0  0  0  0  0  0  0  0  0  0
    5.2058    1.5991    0.2353 C   0  0  0  0  0  0  0  0  0  0  0  0
    3.4818    0.8549    1.9552 C   0  0  0  0  0  0  0  0  0  0  0  0
    2.5964    0.0936    1.0198 C   0  0  0  0  0  0  0  0  0  0  0  0
    2.6602   -1.2076    0.8174 N   0  0  0  0  0  0  0  0  0  0  0  0
    1.7127   -1.6385   -0.0905 N   0  0  0  0  0  0  0  0  0  0  0  0
    0.9455   -0.6549   -0.4953 C   0  0  0  0  0  0  0  0  0  0  0  0
   -0.0668   -0.9084   -1.5146 N   0  0  0  0  0  0  0  0  0  0  0  0
   -1.6276   -0.9042   -0.8392 S   0  0  0  0  0  6  0  0  0  0  0  0
   -1.8541   -2.2565   -0.3748 O   0  0  0  0  0  0  0  0  0  0  0  0
   -1.7669    0.2455    0.0286 O   0  0  0  0  0  0  0  0  0  0  0  0
   -2.5906   -0.6292   -2.3298 C   0  0  0  0  0  0  0  0  0  0  0  0
   -4.0569   -0.6238   -1.9880 C   0  0  0  0  0  0  0  0  0  0  0  0
   -4.7016    0.5711   -1.6363 C   0  0  0  0  0  0  0  0  0  0  0  0
   -6.0600    0.5749   -1.3163 C   0  0  0  0  0  0  0  0  0  0  0  0
   -6.7870   -0.6132   -1.3421 C   0  0  0  0  0  0  0  0  0  0  0  0
   -6.1561   -1.8073   -1.6839 C   0  0  0  0  0  0  0  0  0  0  0  0
   -4.7978   -1.8145   -2.0045 C   0  0  0  0  0  0  0  0  0  0  0  0
    1.3765    0.8850    0.0999 S   0  0  0  0  0  0  0  0  0  0  0  0
    5.7103    0.8198    3.5733 H   0  0  0  0  0  0  0  0  0  0  0  0
    5.5820    2.4369    2.8579 H   0  0  0  0  0  0  0  0  0  0  0  0
    6.8961    1.3503    2.3736 H   0  0  0  0  0  0  0  0  0  0  0  0
    5.2680   -0.2209    1.3648 H   0  0  0  0  0  0  0  0  0  0  0  0
    4.8866    2.6424    0.3328 H   0  0  0  0  0  0  0  0  0  0  0  0
    4.6642    1.1542   -0.6053 H   0  0  0  0  0  0  0  0  0  0  0  0
    6.2700    1.5951   -0.0241 H   0  0  0  0  0  0  0  0  0  0  0  0
    3.3779    0.3982    2.9481 H   0  0  0  0  0  0  0  0  0  0  0  0
    3.1460    1.8944    2.0585 H   0  0  0  0  0  0  0  0  0  0  0  0
    0.1154   -1.8561   -1.8543 H   0  0  0  0  0  0  0  0  0  0  0  0
   -2.3576   -1.4288   -3.0400 H   0  0  0  0  0  0  0  0  0  0  0  0
   -2.2845    0.3294   -2.7606 H   0  0  0  0  0  0  0  0  0  0  0  0
   -4.1492    1.5083   -1.5964 H   0  0  0  0  0  0  0  0  0  0  0  0
   -6.5497    1.5050   -1.0391 H   0  0  0  0  0  0  0  0  0  0  0  0
   -7.8436   -0.6098   -1.0873 H   0  0  0  0  0  0  0  0  0  0  0  0
   -6.7211   -2.7360   -1.6934 H   0  0  0  0  0  0  0  0  0  0  0  0
   -4.3224   -2.7610   -2.2553 H   0  0  0  0  0  0  0  0  0  0  0  0
  1  2  1  0
  2  3  1  0
  2  4  1  0
  4  5  1  0
  5  6  2  0
  6  7  1  0
  7  8  2  0
  8  9  1  0
  9 10  1  0
 10 11  2  0
 10 12  2  0
 10 13  1  0
 13 14  1  0
 14 15  2  0
 15 16  1  0
 16 17  2  0
 17 18  1  0
 18 19  2  0
  8 20  1  0
 20  5  1  0
 19 14  1  0
  1 21  1  0
  1 22  1  0
  1 23  1  0
  2 24  1  0
  3 25  1  0
  3 26  1  0
  3 27  1  0
  4 28  1  0
  4 29  1  0
  9 30  1  0
 13 31  1  0
 13 32  1  0
 15 33  1  0
 16 34  1  0
 17 35  1  0
 18 36  1  0
 19 37  1  0
M  END
$$$$
