
     RDKit          3D

 71 75  0  0  0  0  0  0  0  0999 V2000
   -2.3612    4.5468    4.7941 C   0  0  0  0  0  0  0  0  0  0  0  0
   -2.6856    4.4288    3.4148 O   0  0  0  0  0  0  0  0  0  0  0  0
   -2.2635    3.2950    2.7772 C   0  0  0  0  0  0  0  0  0  0  0  0
   -1.5716    2.2346    3.3587 C   0  0  0  0  0  0  0  0  0  0  0  0
   -1.1983    1.1289    2.5850 C   0  0  0  0  0  0  0  0  0  0  0  0
   -1.5120    1.0596    1.2178 C   0  0  0  0  0  0  0  0  0  0  0  0
   -1.0787   -0.1556    0.4001 C   0  0  0  0  0  0  0  0  0  0  0  0
   -2.2331   -0.8197   -0.3994 C   0  0  0  0  0  0  0  0  0  0  0  0
   -3.2666   -1.4880    0.5278 C   0  0  0  0  0  0  0  0  0  0  0  0
   -4.3779   -2.1140   -0.2092 N   0  0  0  0  0  0  0  0  0  0  0  0
   -3.9214   -3.2141   -1.0869 C   0  0  0  0  0  0  0  0  0  0  0  0
   -5.0349   -4.2365   -1.3605 C   0  0  0  0  0  0  0  0  0  0  0  0
   -5.4616   -4.9115   -0.1702 O   0  0  0  0  0  0  0  0  0  0  0  0
   -5.3628   -4.0952    1.0040 C   0  0  0  0  0  0  0  0  0  0  0  0
   -5.4386   -2.5887    0.7075 C   0  0  0  0  0  0  0  0  0  0  0  0
    0.1990    0.1306   -0.4075 C   0  0  0  0  0  0  0  0  0  0  0  0
    0.1931    0.6747   -1.7017 C   0  0  0  0  0  0  0  0  0  0  0  0
   -1.0234    0.9733   -2.2548 O   0  0  0  0  0  0  0  0  0  0  0  0
   -1.1024    1.0237   -3.6766 C   0  0  0  0  0  0  0  0  0  0  0  0
    1.4036    0.9426   -2.3574 C   0  0  0  0  0  0  0  0  0  0  0  0
    2.6429    0.6645   -1.7612 C   0  0  0  0  0  0  0  0  0  0  0  0
    3.8394    0.9066   -2.3834 O   0  0  0  0  0  0  0  0  0  0  0  0
    3.8381    1.4135   -3.7108 C   0  0  0  0  0  0  0  0  0  0  0  0
    2.6893    0.1219   -0.4629 C   0  0  0  0  0  0  0  0  0  0  0  0
    3.9431   -0.1942    0.2691 C   0  0  0  0  0  0  0  0  0  0  0  0
    5.3309   -0.0117   -0.2074 C   0  0  0  0  0  0  0  0  0  0  0  0
    6.0106   -1.0677   -0.8306 C   0  0  0  0  0  0  0  0  0  0  0  0
    7.3310   -0.9018   -1.2524 C   0  0  0  0  0  0  0  0  0  0  0  0
    7.9799    0.3164   -1.0526 C   0  0  0  0  0  0  0  0  0  0  0  0
    7.3111    1.3710   -0.4310 C   0  0  0  0  0  0  0  0  0  0  0  0
    5.9908    1.2091   -0.0083 C   0  0  0  0  0  0  0  0  0  0  0  0
    3.8625   -0.6968    1.5116 C   0  0  0  0  0  0  0  0  0  0  0  0
    2.5973   -0.9577    2.1957 C   0  0  0  0  0  0  0  0  0  0  0  0
    2.5692   -1.4142    3.3321 O   0  0  0  0  0  0  0  0  0  0  0  0
    1.4504   -0.6684    1.4879 O   0  0  0  0  0  0  0  0  0  0  0  0
    1.4635   -0.1264    0.1772 C   0  0  0  0  0  0  0  0  0  0  0  0
   -2.2021    2.1348    0.6439 C   0  0  0  0  0  0  0  0  0  0  0  0
   -2.5754    3.2372    1.4183 C   0  0  0  0  0  0  0  0  0  0  0  0
   -1.2767    4.5656    4.9436 H   0  0  0  0  0  0  0  0  0  0  0  0
   -2.8294    3.7501    5.3808 H   0  0  0  0  0  0  0  0  0  0  0  0
   -2.7614    5.5007    5.1509 H   0  0  0  0  0  0  0  0  0  0  0  0
   -1.3027    2.2322    4.4097 H   0  0  0  0  0  0  0  0  0  0  0  0
   -0.6531    0.3182    3.0661 H   0  0  0  0  0  0  0  0  0  0  0  0
   -0.8113   -0.9403    1.1217 H   0  0  0  0  0  0  0  0  0  0  0  0
   -1.7983   -1.5755   -1.0656 H   0  0  0  0  0  0  0  0  0  0  0  0
   -2.7614   -0.0989   -1.0323 H   0  0  0  0  0  0  0  0  0  0  0  0
   -2.7725   -2.2251    1.1739 H   0  0  0  0  0  0  0  0  0  0  0  0
   -3.6811   -0.7124    1.1832 H   0  0  0  0  0  0  0  0  0  0  0  0
   -3.0818   -3.7479   -0.6227 H   0  0  0  0  0  0  0  0  0  0  0  0
   -3.5767   -2.7952   -2.0384 H   0  0  0  0  0  0  0  0  0  0  0  0
   -5.9072   -3.7562   -1.8190 H   0  0  0  0  0  0  0  0  0  0  0  0
   -4.6814   -5.0004   -2.0609 H   0  0  0  0  0  0  0  0  0  0  0  0
   -4.4227   -4.3418    1.5098 H   0  0  0  0  0  0  0  0  0  0  0  0
   -6.1780   -4.3877    1.6737 H   0  0  0  0  0  0  0  0  0  0  0  0
   -6.3985   -2.3820    0.2162 H   0  0  0  0  0  0  0  0  0  0  0  0
   -5.4504   -2.0208    1.6461 H   0  0  0  0  0  0  0  0  0  0  0  0
   -0.6139    0.1584   -4.1410 H   0  0  0  0  0  0  0  0  0  0  0  0
   -2.1613    0.9955   -3.9525 H   0  0  0  0  0  0  0  0  0  0  0  0
   -0.6855    1.9637   -4.0543 H   0  0  0  0  0  0  0  0  0  0  0  0
    1.3760    1.4011   -3.3376 H   0  0  0  0  0  0  0  0  0  0  0  0
    3.3994    2.4158   -3.7466 H   0  0  0  0  0  0  0  0  0  0  0  0
    4.8791    1.4952   -4.0387 H   0  0  0  0  0  0  0  0  0  0  0  0
    3.3268    0.7296   -4.3966 H   0  0  0  0  0  0  0  0  0  0  0  0
    5.5153   -2.0228   -0.9905 H   0  0  0  0  0  0  0  0  0  0  0  0
    7.8542   -1.7239   -1.7344 H   0  0  0  0  0  0  0  0  0  0  0  0
    9.0085    0.4432   -1.3795 H   0  0  0  0  0  0  0  0  0  0  0  0
    7.8184    2.3192   -0.2738 H   0  0  0  0  0  0  0  0  0  0  0  0
    5.4779    2.0388    0.4729 H   0  0  0  0  0  0  0  0  0  0  0  0
    4.7438   -0.9422    2.0962 H   0  0  0  0  0  0  0  0  0  0  0  0
   -2.4560    2.1331   -0.4129 H   0  0  0  0  0  0  0  0  0  0  0  0
   -3.1123    4.0613    0.9541 H   0  0  0  0  0  0  0  0  0  0  0  0
  1  2  1  0
  2  3  1  0
  3  4  2  0
  4  5  1  0
  5  6  2  0
  6  7  1  0
  7  8  1  0
  8  9  1  0
  9 10  1  0
 10 11  1  0
 11 12  1  0
 12 13  1  0
 13 14  1  0
 14 15  1  0
  7 16  1  0
 16 17  2  0
 17 18  1  0
 18 19  1  0
 17 20  1  0
 20 21  2  0
 21 22  1  0
 22 23  1  0
 21 24  1  0
 24 25  1  0
 25 26  1  0
 26 27  2  0
 27 28  1  0
 28 29  2  0
 29 30  1  0
 30 31  2  0
 25 32  2  0
 32 33  1  0
 33 34  2  0
 33 35  1  0
 35 36  1  0
  6 37  1  0
 37 38  2  0
 38  3  1  0
 15 10  1  0
 36 16  1  0
 36 24  2  0
 31 26  1  0
  1 39  1  0
  1 40  1  0
  1 41  1  0
  4 42  1  0
  5 43  1  0
  7 44  1  0
  8 45  1  0
  8 46  1  0
  9 47  1  0
  9 48  1  0
 11 49  1  0
 11 50  1  0
 12 51  1  0
 12 52  1  0
 14 53  1  0
 14 54  1  0
 15 55  1  0
 15 56  1  0
 19 57  1  0
 19 58  1  0
 19 59  1  0
 20 60  1  0
 23 61  1  0
 23 62  1  0
 23 63  1  0
 27 64  1  0
 28 65  1  0
 29 66  1  0
 30 67  1  0
 31 68  1  0
 32 69  1  0
 37 70  1  0
 38 71  1  0
M  END
$$$$
