
     RDKit          3D

 40 41  0  0  0  0  0  0  0  0999 V2000
    0.8668    3.6896    0.1464 O   0  0  0  0  0  0  0  0  0  0  0  0
    1.4431    2.7723    0.7055 C   0  0  0  0  0  0  0  0  0  0  0  0
    2.7223    2.4798    0.4132 O   0  0  0  0  0  0  0  0  0  0  0  0
    0.8501    1.8570    1.7352 C   0  0  0  0  0  0  0  0  0  0  0  0
   -0.1220    0.8921    1.0579 C   0  0  0  0  0  0  0  0  0  0  0  0
   -0.9999    0.1744    2.0111 N   0  0  0  0  0  0  0  0  0  0  0  0
   -2.0395    1.0162    2.5944 C   0  0  0  0  0  0  0  0  0  0  0  0
   -2.8788    0.2138    3.5246 C   0  0  0  0  0  0  0  0  0  0  0  0
   -3.8635   -0.7343    3.3350 C   0  0  0  0  0  0  0  0  0  0  0  0
   -4.2822   -1.1393    4.6248 C   0  0  0  0  0  0  0  0  0  0  0  0
   -3.5267   -0.4161    5.5174 C   0  0  0  0  0  0  0  0  0  0  0  0
   -2.6705    0.4076    4.8599 O   0  0  0  0  0  0  0  0  0  0  0  0
    0.7278   -0.1600    0.3208 C   0  0  0  0  0  0  0  0  0  0  0  0
    1.2412   -1.1405    0.8480 O   0  0  0  0  0  0  0  0  0  0  0  0
    0.8759    0.1862   -0.9886 O   0  0  0  0  0  0  0  0  0  0  0  0
    1.6462   -0.7516   -1.7602 C   0  0  0  0  0  0  0  0  0  0  0  0
    1.7181   -0.2575   -3.2102 C   0  0  0  0  0  0  0  0  0  0  0  0
    2.6672   -1.0842   -4.0653 C   0  0  0  0  0  0  0  0  0  0  0  0
    1.7633   -2.1511   -4.6302 C   0  0  0  0  0  0  0  0  0  0  0  0
    0.4766   -1.3872   -4.8445 C   0  0  0  0  0  0  0  0  0  0  0  0
    0.4153   -0.3860   -3.8202 O   0  0  0  0  0  0  0  0  0  0  0  0
    2.9746    3.1456   -0.2617 H   0  0  0  0  0  0  0  0  0  0  0  0
    0.3614    2.5018    2.4727 H   0  0  0  0  0  0  0  0  0  0  0  0
    1.6512    1.3293    2.2669 H   0  0  0  0  0  0  0  0  0  0  0  0
   -0.7528    1.3948    0.3137 H   0  0  0  0  0  0  0  0  0  0  0  0
   -0.4402   -0.2562    2.7495 H   0  0  0  0  0  0  0  0  0  0  0  0
   -1.6106    1.8616    3.1421 H   0  0  0  0  0  0  0  0  0  0  0  0
   -2.6809    1.4241    1.8046 H   0  0  0  0  0  0  0  0  0  0  0  0
   -4.2223   -1.0905    2.3793 H   0  0  0  0  0  0  0  0  0  0  0  0
   -5.0370   -1.8714    4.8739 H   0  0  0  0  0  0  0  0  0  0  0  0
   -3.4778   -0.3752    6.5965 H   0  0  0  0  0  0  0  0  0  0  0  0
    2.6549   -0.8124   -1.3356 H   0  0  0  0  0  0  0  0  0  0  0  0
    1.1565   -1.7313   -1.7119 H   0  0  0  0  0  0  0  0  0  0  0  0
    1.9907    0.8035   -3.2240 H   0  0  0  0  0  0  0  0  0  0  0  0
    3.5260   -1.4834   -3.5186 H   0  0  0  0  0  0  0  0  0  0  0  0
    3.0508   -0.4658   -4.8863 H   0  0  0  0  0  0  0  0  0  0  0  0
    2.1445   -2.6091   -5.5466 H   0  0  0  0  0  0  0  0  0  0  0  0
    1.6117   -2.9440   -3.8887 H   0  0  0  0  0  0  0  0  0  0  0  0
   -0.4081   -2.0275   -4.7882 H   0  0  0  0  0  0  0  0  0  0  0  0
    0.4766   -0.8750   -5.8127 H   0  0  0  0  0  0  0  0  0  0  0  0
  1  2  2  0
  2  3  1  0
  2  4  1  0
  4  5  1  0
  5  6  1  0
  6  7  1  0
  7  8  1  0
  8  9  2  0
  9 10  1  0
 10 11  2  0
 11 12  1  0
  5 13  1  0
 13 14  2  0
 13 15  1  0
 15 16  1  0
 16 17  1  0
 17 18  1  0
 18 19  1  0
 19 20  1  0
 20 21  1  0
 12  8  1  0
 21 17  1  0
  3 22  1  0
  4 23  1  0
  4 24  1  0
  5 25  1  0
  6 26  1  0
  7 27  1  0
  7 28  1  0
  9 29  1  0
 10 30  1  0
 11 31  1  0
 16 32  1  0
 16 33  1  0
 17 34  1  0
 18 35  1  0
 18 36  1  0
 19 37  1  0
 19 38  1  0
 20 39  1  0
 20 40  1  0
M  END
$$$$
