
     RDKit          3D

 52 54  0  0  0  0  0  0  0  0999 V2000
    3.1546   -0.4510   -1.0063 O   0  0  0  0  0  0  0  0  0  0  0  0
    2.2058   -0.4907   -0.2354 C   0  0  0  0  0  0  0  0  0  0  0  0
    2.0349   -1.3260    0.8432 N   0  0  0  0  0  0  0  0  0  0  0  0
    2.9304   -2.3003    1.3234 C   0  0  0  0  0  0  0  0  0  0  0  0
    4.1251   -2.6417    0.6837 C   0  0  0  0  0  0  0  0  0  0  0  0
    4.9685   -3.6160    1.2318 C   0  0  0  0  0  0  0  0  0  0  0  0
    4.6235   -4.2596    2.4257 C   0  0  0  0  0  0  0  0  0  0  0  0
    3.4287   -3.9377    3.0691 C   0  0  0  0  0  0  0  0  0  0  0  0
    2.5888   -2.9594    2.5166 C   0  0  0  0  0  0  0  0  0  0  0  0
    1.0169    0.4148   -0.4112 C   0  0  0  0  0  0  0  0  0  0  0  0
    1.1823    1.5865   -1.0416 C   0  0  0  0  0  0  0  0  0  0  0  0
    0.0563    2.5715   -1.2185 C   0  0  0  0  0  0  0  0  0  0  0  0
    0.4511    3.9948   -0.8499 C   0  0  0  0  0  0  0  0  0  0  0  0
    0.3359    5.0258   -1.8004 C   0  0  0  0  0  0  0  0  0  0  0  0
    0.6833    6.3409   -1.4720 C   0  0  0  0  0  0  0  0  0  0  0  0
    1.1481    6.6441   -0.1918 C   0  0  0  0  0  0  0  0  0  0  0  0
    1.2710    5.6322    0.7613 C   0  0  0  0  0  0  0  0  0  0  0  0
    0.9247    4.3165    0.4368 C   0  0  0  0  0  0  0  0  0  0  0  0
   -1.1961    2.1191   -0.4522 C   0  0  0  0  0  0  0  0  0  0  0  0
   -1.3188    0.6079   -0.5765 C   0  0  0  0  0  0  0  0  0  0  0  0
   -2.5414    0.2020    0.0479 O   0  0  0  0  0  0  0  0  0  0  0  0
   -2.9466   -1.0955   -0.3940 C   0  0  0  0  0  0  0  0  0  0  0  0
   -4.2345   -1.4833    0.3273 C   0  0  0  0  0  0  0  0  0  0  0  0
   -4.8598   -2.7710   -0.2134 C   0  0  0  0  0  0  0  0  0  0  0  0
   -3.9860   -4.0175   -0.0870 C   0  0  0  0  0  0  0  0  0  0  0  0
   -3.6951   -4.2964    1.2692 O   0  0  0  0  0  0  0  0  0  0  0  0
   -0.2079   -0.0324    0.0677 O   0  0  0  0  0  0  0  0  0  0  0  0
    1.1813   -1.1809    1.3699 H   0  0  0  0  0  0  0  0  0  0  0  0
    4.4271   -2.1726   -0.2467 H   0  0  0  0  0  0  0  0  0  0  0  0
    5.8936   -3.8696    0.7225 H   0  0  0  0  0  0  0  0  0  0  0  0
    5.2823   -5.0163    2.8544 H   0  0  0  0  0  0  0  0  0  0  0  0
    3.1488   -4.4425    4.0031 H   0  0  0  0  0  0  0  0  0  0  0  0
    1.6687   -2.7184    3.0456 H   0  0  0  0  0  0  0  0  0  0  0  0
    2.1661    1.8696   -1.4166 H   0  0  0  0  0  0  0  0  0  0  0  0
   -0.1881    2.5495   -2.2922 H   0  0  0  0  0  0  0  0  0  0  0  0
   -0.0256    4.8136   -2.8067 H   0  0  0  0  0  0  0  0  0  0  0  0
    0.5902    7.1304   -2.2171 H   0  0  0  0  0  0  0  0  0  0  0  0
    1.4183    7.6666    0.0640 H   0  0  0  0  0  0  0  0  0  0  0  0
    1.6342    5.8664    1.7608 H   0  0  0  0  0  0  0  0  0  0  0  0
    1.0298    3.5417    1.1991 H   0  0  0  0  0  0  0  0  0  0  0  0
   -1.1356    2.3859    0.6096 H   0  0  0  0  0  0  0  0  0  0  0  0
   -2.0913    2.6165   -0.8402 H   0  0  0  0  0  0  0  0  0  0  0  0
   -1.3432    0.3194   -1.6387 H   0  0  0  0  0  0  0  0  0  0  0  0
   -3.1308   -1.0652   -1.4799 H   0  0  0  0  0  0  0  0  0  0  0  0
   -2.1511   -1.8172   -0.1803 H   0  0  0  0  0  0  0  0  0  0  0  0
   -4.0483   -1.5621    1.4026 H   0  0  0  0  0  0  0  0  0  0  0  0
   -4.9603   -0.6708    0.2185 H   0  0  0  0  0  0  0  0  0  0  0  0
   -5.1057   -2.6327   -1.2696 H   0  0  0  0  0  0  0  0  0  0  0  0
   -5.7968   -2.9408    0.3171 H   0  0  0  0  0  0  0  0  0  0  0  0
   -3.0475   -3.9231   -0.6442 H   0  0  0  0  0  0  0  0  0  0  0  0
   -4.5190   -4.8781   -0.5007 H   0  0  0  0  0  0  0  0  0  0  0  0
   -3.0408   -3.6471    1.5842 H   0  0  0  0  0  0  0  0  0  0  0  0
  1  2  2  0
  2  3  1  0
  3  4  1  0
  4  5  2  0
  5  6  1  0
  6  7  2  0
  7  8  1  0
  8  9  2  0
  2 10  1  0
 10 11  2  0
 11 12  1  0
 12 13  1  0
 13 14  2  0
 14 15  1  0
 15 16  2  0
 16 17  1  0
 17 18  2  0
 12 19  1  0
 19 20  1  0
 20 21  1  0
 21 22  1  0
 22 23  1  0
 23 24  1  0
 24 25  1  0
 25 26  1  0
 20 27  1  0
  9  4  1  0
 27 10  1  0
 18 13  1  0
  3 28  1  0
  5 29  1  0
  6 30  1  0
  7 31  1  0
  8 32  1  0
  9 33  1  0
 11 34  1  0
 12 35  1  0
 14 36  1  0
 15 37  1  0
 16 38  1  0
 17 39  1  0
 18 40  1  0
 19 41  1  0
 19 42  1  0
 20 43  1  0
 22 44  1  0
 22 45  1  0
 23 46  1  0
 23 47  1  0
 24 48  1  0
 24 49  1  0
 25 50  1  0
 25 51  1  0
 26 52  1  0
M  END
$$$$
