
     RDKit          3D

 55 58  0  0  0  0  0  0  0  0999 V2000
   -8.8154   -0.4267   -0.2384 C   0  0  0  0  0  0  0  0  0  0  0  0
   -7.6613   -1.4133   -0.1447 C   0  0  0  0  0  0  0  0  0  0  0  0
   -6.2910   -0.7397   -0.0605 C   0  0  0  0  0  0  0  0  0  0  0  0
   -5.9139    0.0229   -1.3300 C   0  0  0  0  0  0  0  0  0  0  0  0
   -4.5600    0.5363   -1.2579 N   0  0  0  0  0  0  0  0  0  0  0  0
   -4.2759    1.7179   -0.6021 C   0  0  0  0  0  0  0  0  0  0  0  0
   -5.1307    2.4339   -0.0929 O   0  0  0  0  0  0  0  0  0  0  0  0
   -2.8363    2.0835   -0.5006 C   0  0  0  0  0  0  0  0  0  0  0  0
   -2.4189    2.8526    0.5899 C   0  0  0  0  0  0  0  0  0  0  0  0
   -1.0764    3.2187    0.7220 C   0  0  0  0  0  0  0  0  0  0  0  0
   -0.1290    2.8260   -0.2352 C   0  0  0  0  0  0  0  0  0  0  0  0
    1.3278    3.2292   -0.0906 C   0  0  0  0  0  0  0  0  0  0  0  0
    2.2113    2.0963    0.2140 N   0  0  0  0  0  0  0  0  0  0  0  0
    2.4335    1.6695    1.5405 C   0  0  0  0  0  0  0  0  0  0  0  0
    1.8096    2.3547    2.9424 S   0  0  0  0  0  0  0  0  0  0  0  0
    3.2576    0.5794    1.7279 N   0  0  0  0  0  0  0  0  0  0  0  0
    3.8655   -0.0638    0.6846 C   0  0  0  0  0  0  0  0  0  0  0  0
    3.6557    0.3839   -0.5843 C   0  0  0  0  0  0  0  0  0  0  0  0
    4.3730   -0.4109   -1.4343 N   0  0  0  0  0  0  0  0  0  0  0  0
    5.0431   -1.3773   -0.7103 C   0  0  0  0  0  0  0  0  0  0  0  0
    5.8902   -2.4031   -1.1406 C   0  0  0  0  0  0  0  0  0  0  0  0
    6.4388   -3.2486   -0.1659 C   0  0  0  0  0  0  0  0  0  0  0  0
    6.1524   -3.0750    1.1884 C   0  0  0  0  0  0  0  0  0  0  0  0
    6.6342   -3.8435    2.2149 O   0  0  0  0  0  0  0  0  0  0  0  0
    7.5101   -4.9085    1.8681 C   0  0  0  0  0  0  0  0  0  0  0  0
    5.3011   -2.0393    1.5978 C   0  0  0  0  0  0  0  0  0  0  0  0
    4.7357   -1.1762    0.6400 C   0  0  0  0  0  0  0  0  0  0  0  0
    2.8228    1.4974   -0.9079 C   0  0  0  0  0  0  0  0  0  0  0  0
    2.6783    1.8742   -2.0678 O   0  0  0  0  0  0  0  0  0  0  0  0
   -0.5627    2.0765   -1.3401 C   0  0  0  0  0  0  0  0  0  0  0  0
   -1.9053    1.7078   -1.4747 C   0  0  0  0  0  0  0  0  0  0  0  0
   -8.7931    0.2842    0.5936 H   0  0  0  0  0  0  0  0  0  0  0  0
   -9.7701   -0.9610   -0.2012 H   0  0  0  0  0  0  0  0  0  0  0  0
   -8.7874    0.1360   -1.1761 H   0  0  0  0  0  0  0  0  0  0  0  0
   -7.6911   -2.0935   -1.0037 H   0  0  0  0  0  0  0  0  0  0  0  0
   -7.8016   -2.0287    0.7522 H   0  0  0  0  0  0  0  0  0  0  0  0
   -5.5355   -1.5135    0.1290 H   0  0  0  0  0  0  0  0  0  0  0  0
   -6.2630   -0.0665    0.8054 H   0  0  0  0  0  0  0  0  0  0  0  0
   -5.9571   -0.6378   -2.2021 H   0  0  0  0  0  0  0  0  0  0  0  0
   -6.5965    0.8621   -1.5002 H   0  0  0  0  0  0  0  0  0  0  0  0
   -3.8045   -0.1047   -1.4574 H   0  0  0  0  0  0  0  0  0  0  0  0
   -3.1393    3.1679    1.3429 H   0  0  0  0  0  0  0  0  0  0  0  0
   -0.7825    3.8173    1.5825 H   0  0  0  0  0  0  0  0  0  0  0  0
    1.4330    3.9997    0.6811 H   0  0  0  0  0  0  0  0  0  0  0  0
    1.6410    3.7191   -1.0212 H   0  0  0  0  0  0  0  0  0  0  0  0
    3.4241    0.2547    2.6735 H   0  0  0  0  0  0  0  0  0  0  0  0
    4.4037   -0.3008   -2.4401 H   0  0  0  0  0  0  0  0  0  0  0  0
    6.1205   -2.5471   -2.1917 H   0  0  0  0  0  0  0  0  0  0  0  0
    7.0949   -4.0432   -0.5076 H   0  0  0  0  0  0  0  0  0  0  0  0
    7.0062   -5.6425    1.2306 H   0  0  0  0  0  0  0  0  0  0  0  0
    8.4221   -4.5310    1.3938 H   0  0  0  0  0  0  0  0  0  0  0  0
    7.8017   -5.4160    2.7927 H   0  0  0  0  0  0  0  0  0  0  0  0
    5.0819   -1.9089    2.6534 H   0  0  0  0  0  0  0  0  0  0  0  0
    0.1388    1.7873   -2.1207 H   0  0  0  0  0  0  0  0  0  0  0  0
   -2.2105    1.1574   -2.3602 H   0  0  0  0  0  0  0  0  0  0  0  0
  1  2  1  0
  2  3  1  0
  3  4  1  0
  4  5  1  0
  5  6  1  0
  6  7  2  0
  6  8  1  0
  8  9  2  0
  9 10  1  0
 10 11  2  0
 11 12  1  0
 12 13  1  0
 13 14  1  0
 14 15  2  0
 14 16  1  0
 16 17  1  0
 17 18  2  0
 18 19  1  0
 19 20  1  0
 20 21  2  0
 21 22  1  0
 22 23  2  0
 23 24  1  0
 24 25  1  0
 23 26  1  0
 26 27  2  0
 18 28  1  0
 28 29  2  0
 11 30  1  0
 30 31  2  0
 31  8  1  0
 28 13  1  0
 27 17  1  0
 27 20  1  0
  1 32  1  0
  1 33  1  0
  1 34  1  0
  2 35  1  0
  2 36  1  0
  3 37  1  0
  3 38  1  0
  4 39  1  0
  4 40  1  0
  5 41  1  0
  9 42  1  0
 10 43  1  0
 12 44  1  0
 12 45  1  0
 16 46  1  0
 19 47  1  0
 21 48  1  0
 22 49  1  0
 25 50  1  0
 25 51  1  0
 25 52  1  0
 26 53  1  0
 30 54  1  0
 31 55  1  0
M  END
$$$$
