
     RDKit          3D

 45 47  0  0  0  0  0  0  0  0999 V2000
   -3.1534    1.0520   -1.1971 C   0  0  0  0  0  0  0  0  0  0  0  0
   -3.6739    0.1965   -0.0494 C   0  0  0  0  0  0  0  0  0  0  0  0
   -2.7652   -0.9409    0.1721 N   0  0  0  0  0  0  0  0  0  0  0  0
   -3.3958   -2.2312   -0.1481 C   0  0  0  0  0  0  0  0  0  0  0  0
   -3.6891   -2.3950   -1.6362 C   0  0  0  0  0  0  0  0  0  0  0  0
   -2.2480   -0.9648    1.5579 C   0  0  0  0  0  0  0  0  0  0  0  0
   -1.2609    0.1497    1.8518 C   0  0  0  0  0  0  0  0  0  0  0  0
   -1.5580    1.1617    2.7784 C   0  0  0  0  0  0  0  0  0  0  0  0
   -2.7556    1.1317    3.4380 O   0  0  0  0  0  0  0  0  0  0  0  0
   -0.6580    2.1960    3.0424 C   0  0  0  0  0  0  0  0  0  0  0  0
    0.5669    2.2307    2.3793 C   0  0  0  0  0  0  0  0  0  0  0  0
    0.8882    1.2263    1.4614 C   0  0  0  0  0  0  0  0  0  0  0  0
    2.1861    1.2551    0.7604 C   0  0  0  0  0  0  0  0  0  0  0  0
    2.9887    2.1562    0.9780 O   0  0  0  0  0  0  0  0  0  0  0  0
    2.4543    0.1495   -0.2000 C   0  0  0  0  0  0  0  0  0  0  0  0
    3.6950    0.0688   -0.9937 C   0  0  0  0  0  0  0  0  0  0  0  0
    4.1628    1.1863   -1.6991 C   0  0  0  0  0  0  0  0  0  0  0  0
    5.3332    1.1132   -2.4590 C   0  0  0  0  0  0  0  0  0  0  0  0
    6.0523   -0.0780   -2.5210 C   0  0  0  0  0  0  0  0  0  0  0  0
    5.6052   -1.1956   -1.8203 C   0  0  0  0  0  0  0  0  0  0  0  0
    4.4350   -1.1228   -1.0598 C   0  0  0  0  0  0  0  0  0  0  0  0
    1.4906   -0.7730   -0.3406 C   0  0  0  0  0  0  0  0  0  0  0  0
    0.2894   -0.8193    0.3202 O   0  0  0  0  0  0  0  0  0  0  0  0
   -0.0112    0.1910    1.2023 C   0  0  0  0  0  0  0  0  0  0  0  0
   -3.0907    0.4816   -2.1292 H   0  0  0  0  0  0  0  0  0  0  0  0
   -2.1595    1.4540   -0.9743 H   0  0  0  0  0  0  0  0  0  0  0  0
   -3.8258    1.8989   -1.3679 H   0  0  0  0  0  0  0  0  0  0  0  0
   -3.7695    0.8345    0.8366 H   0  0  0  0  0  0  0  0  0  0  0  0
   -4.6970   -0.1297   -0.2733 H   0  0  0  0  0  0  0  0  0  0  0  0
   -4.3151   -2.3767    0.4333 H   0  0  0  0  0  0  0  0  0  0  0  0
   -2.7142   -3.0468    0.1253 H   0  0  0  0  0  0  0  0  0  0  0  0
   -2.7833   -2.2470   -2.2338 H   0  0  0  0  0  0  0  0  0  0  0  0
   -4.0578   -3.4071   -1.8336 H   0  0  0  0  0  0  0  0  0  0  0  0
   -4.4524   -1.6934   -1.9852 H   0  0  0  0  0  0  0  0  0  0  0  0
   -1.7050   -1.9026    1.7410 H   0  0  0  0  0  0  0  0  0  0  0  0
   -3.0796   -0.9729    2.2738 H   0  0  0  0  0  0  0  0  0  0  0  0
   -2.8130    1.9003    4.0298 H   0  0  0  0  0  0  0  0  0  0  0  0
   -0.8916    2.9798    3.7570 H   0  0  0  0  0  0  0  0  0  0  0  0
    1.2708    3.0357    2.5802 H   0  0  0  0  0  0  0  0  0  0  0  0
    3.6216    2.1298   -1.6585 H   0  0  0  0  0  0  0  0  0  0  0  0
    5.6839    1.9904   -2.9966 H   0  0  0  0  0  0  0  0  0  0  0  0
    6.9645   -0.1324   -3.1093 H   0  0  0  0  0  0  0  0  0  0  0  0
    6.1700   -2.1234   -1.8600 H   0  0  0  0  0  0  0  0  0  0  0  0
    4.1148   -2.0048   -0.5097 H   0  0  0  0  0  0  0  0  0  0  0  0
    1.5504   -1.6120   -1.0238 H   0  0  0  0  0  0  0  0  0  0  0  0
  1  2  1  0
  2  3  1  0
  3  4  1  0
  4  5  1  0
  3  6  1  0
  6  7  1  0
  7  8  2  0
  8  9  1  0
  8 10  1  0
 10 11  2  0
 11 12  1  0
 12 13  1  0
 13 14  2  0
 13 15  1  0
 15 16  1  0
 16 17  2  0
 17 18  1  0
 18 19  2  0
 19 20  1  0
 20 21  2  0
 15 22  2  0
 22 23  1  0
 23 24  1  0
 24  7  1  0
 24 12  2  0
 21 16  1  0
  1 25  1  0
  1 26  1  0
  1 27  1  0
  2 28  1  0
  2 29  1  0
  4 30  1  0
  4 31  1  0
  5 32  1  0
  5 33  1  0
  5 34  1  0
  6 35  1  0
  6 36  1  0
  9 37  1  0
 10 38  1  0
 11 39  1  0
 17 40  1  0
 18 41  1  0
 19 42  1  0
 20 43  1  0
 21 44  1  0
 22 45  1  0
M  END
$$$$
