
     RDKit          3D

 46 48  0  0  0  0  0  0  0  0999 V2000
   -2.0173   -0.7661   -2.1710 O   0  0  0  0  0  0  0  0  0  0  0  0
   -1.4924   -0.3417   -1.1480 C   0  0  0  0  0  0  0  0  0  0  0  0
   -1.9748   -0.5949    0.1183 N   0  0  0  0  0  0  0  0  0  0  0  0
   -3.2489   -1.2732    0.3008 C   0  0  0  0  0  0  0  0  0  0  0  0
   -4.4257   -0.3077    0.1463 C   0  0  0  0  0  0  0  0  0  0  0  0
   -5.7781   -0.9891    0.2626 C   0  0  0  0  0  0  0  0  0  0  0  0
   -6.6536    0.1557    0.7064 C   0  0  0  0  0  0  0  0  0  0  0  0
   -5.7378    0.9075    1.6491 C   0  0  0  0  0  0  0  0  0  0  0  0
   -4.3922    0.6797    1.2021 O   0  0  0  0  0  0  0  0  0  0  0  0
   -0.2852    0.5246   -1.2355 C   0  0  0  0  0  0  0  0  0  0  0  0
   -0.0758    1.2632   -2.4001 C   0  0  0  0  0  0  0  0  0  0  0  0
    1.0459    2.0875   -2.5140 C   0  0  0  0  0  0  0  0  0  0  0  0
    1.9865    2.1771   -1.4753 C   0  0  0  0  0  0  0  0  0  0  0  0
    3.4411    3.3465   -1.8165 Br  0  0  0  0  0  0  0  0  0  0  0  0
    1.8008    1.4100   -0.3200 C   0  0  0  0  0  0  0  0  0  0  0  0
    2.8895    1.4380    1.0942 S   0  0  0  0  0  6  0  0  0  0  0  0
    3.5670    2.7117    1.1615 O   0  0  0  0  0  0  0  0  0  0  0  0
    2.1051    0.9834    2.2263 O   0  0  0  0  0  0  0  0  0  0  0  0
    4.0309    0.2299    0.7707 N   0  0  0  0  0  0  0  0  0  0  0  0
    5.0475    0.4950   -0.2827 C   0  0  0  0  0  0  0  0  0  0  0  0
    6.1810   -0.5321   -0.1689 C   0  0  0  0  0  0  0  0  0  0  0  0
    5.6755   -1.8728   -0.2704 O   0  0  0  0  0  0  0  0  0  0  0  0
    4.7436   -2.1332    0.7908 C   0  0  0  0  0  0  0  0  0  0  0  0
    3.5464   -1.1781    0.7176 C   0  0  0  0  0  0  0  0  0  0  0  0
    0.6542    0.5948   -0.2019 C   0  0  0  0  0  0  0  0  0  0  0  0
   -1.7122    0.0332    0.8687 H   0  0  0  0  0  0  0  0  0  0  0  0
   -3.2264   -1.6934    1.3120 H   0  0  0  0  0  0  0  0  0  0  0  0
   -3.3246   -2.0925   -0.4221 H   0  0  0  0  0  0  0  0  0  0  0  0
   -4.3586    0.2392   -0.8024 H   0  0  0  0  0  0  0  0  0  0  0  0
   -6.1047   -1.4477   -0.6748 H   0  0  0  0  0  0  0  0  0  0  0  0
   -5.7629   -1.7636    1.0390 H   0  0  0  0  0  0  0  0  0  0  0  0
   -7.5863   -0.1610    1.1803 H   0  0  0  0  0  0  0  0  0  0  0  0
   -6.9046    0.7874   -0.1541 H   0  0  0  0  0  0  0  0  0  0  0  0
   -5.9433    1.9815    1.6656 H   0  0  0  0  0  0  0  0  0  0  0  0
   -5.8173    0.5211    2.6706 H   0  0  0  0  0  0  0  0  0  0  0  0
   -0.7902    1.2077   -3.2204 H   0  0  0  0  0  0  0  0  0  0  0  0
    1.1744    2.6633   -3.4298 H   0  0  0  0  0  0  0  0  0  0  0  0
    4.5753    0.4041   -1.2666 H   0  0  0  0  0  0  0  0  0  0  0  0
    5.4716    1.4960   -0.1669 H   0  0  0  0  0  0  0  0  0  0  0  0
    6.7216   -0.4238    0.7790 H   0  0  0  0  0  0  0  0  0  0  0  0
    6.8983   -0.3860   -0.9825 H   0  0  0  0  0  0  0  0  0  0  0  0
    4.4015   -3.1674    0.6850 H   0  0  0  0  0  0  0  0  0  0  0  0
    5.2624   -2.0476    1.7530 H   0  0  0  0  0  0  0  0  0  0  0  0
    3.0110   -1.3366   -0.2251 H   0  0  0  0  0  0  0  0  0  0  0  0
    2.8735   -1.3891    1.5537 H   0  0  0  0  0  0  0  0  0  0  0  0
    0.5083   -0.0037    0.6955 H   0  0  0  0  0  0  0  0  0  0  0  0
  1  2  2  0
  2  3  1  0
  3  4  1  0
  4  5  1  0
  5  6  1  0
  6  7  1  0
  7  8  1  0
  8  9  1  0
  2 10  1  0
 10 11  2  0
 11 12  1  0
 12 13  2  0
 13 14  1  0
 13 15  1  0
 15 16  1  0
 16 17  2  0
 16 18  2  0
 16 19  1  0
 19 20  1  0
 20 21  1  0
 21 22  1  0
 22 23  1  0
 23 24  1  0
 15 25  2  0
  9  5  1  0
 25 10  1  0
 24 19  1  0
  3 26  1  0
  4 27  1  0
  4 28  1  0
  5 29  1  0
  6 30  1  0
  6 31  1  0
  7 32  1  0
  7 33  1  0
  8 34  1  0
  8 35  1  0
 11 36  1  0
 12 37  1  0
 20 38  1  0
 20 39  1  0
 21 40  1  0
 21 41  1  0
 23 42  1  0
 23 43  1  0
 24 44  1  0
 24 45  1  0
 25 46  1  0
M  END
$$$$
