
     RDKit          3D

 43 44  0  0  0  0  0  0  0  0999 V2000
   -5.3515    2.6910    0.9590 C   0  0  0  0  0  0  0  0  0  0  0  0
   -5.4734    1.1834    1.0754 C   0  0  0  0  0  0  0  0  0  0  0  0
   -4.3257    0.5469    0.4934 O   0  0  0  0  0  0  0  0  0  0  0  0
   -3.2443    0.3958    1.3167 C   0  0  0  0  0  0  0  0  0  0  0  0
   -3.2302    0.7512    2.4900 O   0  0  0  0  0  0  0  0  0  0  0  0
   -2.0979   -0.2129    0.6209 C   0  0  0  0  0  0  0  0  0  0  0  0
   -0.8549   -0.0544    1.0998 N   0  0  0  0  0  0  0  0  0  0  0  0
   -0.0152   -0.5307    0.1483 N   0  0  0  0  0  0  0  0  0  0  0  0
    1.3854   -0.2757    0.2845 C   0  0  0  0  0  0  0  0  0  0  0  0
    2.2833   -0.4048   -0.7801 C   0  0  0  0  0  0  0  0  0  0  0  0
    3.6502   -0.1376   -0.6008 C   0  0  0  0  0  0  0  0  0  0  0  0
    4.1370    0.2694    0.6393 C   0  0  0  0  0  0  0  0  0  0  0  0
    5.4341    0.5642    0.9470 O   0  0  0  0  0  0  0  0  0  0  0  0
    6.4501    0.3041   -0.0196 C   0  0  0  0  0  0  0  0  0  0  0  0
    6.6673    1.5142   -0.9113 C   0  0  0  0  0  0  0  0  0  0  0  0
    3.2400    0.4279    1.6953 C   0  0  0  0  0  0  0  0  0  0  0  0
    1.8772    0.1653    1.5232 C   0  0  0  0  0  0  0  0  0  0  0  0
   -0.7240   -1.2193   -0.8273 C   0  0  0  0  0  0  0  0  0  0  0  0
   -0.1275   -2.0801   -1.8857 C   0  0  0  0  0  0  0  0  0  0  0  0
   -2.0733   -0.9938   -0.5665 C   0  0  0  0  0  0  0  0  0  0  0  0
   -3.1722   -1.5127   -1.3740 C   0  0  0  0  0  0  0  0  0  0  0  0
   -4.3637   -2.1357   -0.6903 C   0  0  0  0  0  0  0  0  0  0  0  0
   -3.1130   -1.4964   -2.6037 O   0  0  0  0  0  0  0  0  0  0  0  0
   -5.2078    2.9853   -0.0859 H   0  0  0  0  0  0  0  0  0  0  0  0
   -6.2488    3.1835    1.3442 H   0  0  0  0  0  0  0  0  0  0  0  0
   -4.4843    3.0599    1.5157 H   0  0  0  0  0  0  0  0  0  0  0  0
   -6.3471    0.8412    0.5110 H   0  0  0  0  0  0  0  0  0  0  0  0
   -5.6209    0.8693    2.1149 H   0  0  0  0  0  0  0  0  0  0  0  0
    1.9622   -0.6625   -1.7819 H   0  0  0  0  0  0  0  0  0  0  0  0
    4.3005   -0.2381   -1.4634 H   0  0  0  0  0  0  0  0  0  0  0  0
    7.3725    0.1202    0.5431 H   0  0  0  0  0  0  0  0  0  0  0  0
    6.2623   -0.6102   -0.5932 H   0  0  0  0  0  0  0  0  0  0  0  0
    7.4941    1.3391   -1.6056 H   0  0  0  0  0  0  0  0  0  0  0  0
    5.7702    1.7513   -1.4907 H   0  0  0  0  0  0  0  0  0  0  0  0
    6.8967    2.3984   -0.3072 H   0  0  0  0  0  0  0  0  0  0  0  0
    3.6020    0.7604    2.6655 H   0  0  0  0  0  0  0  0  0  0  0  0
    1.2140    0.3009    2.3765 H   0  0  0  0  0  0  0  0  0  0  0  0
    0.1277   -1.4874   -2.7691 H   0  0  0  0  0  0  0  0  0  0  0  0
   -0.8327   -2.8559   -2.2025 H   0  0  0  0  0  0  0  0  0  0  0  0
    0.7593   -2.6101   -1.5257 H   0  0  0  0  0  0  0  0  0  0  0  0
   -5.2492   -1.5186   -0.8601 H   0  0  0  0  0  0  0  0  0  0  0  0
   -4.5310   -3.1304   -1.1144 H   0  0  0  0  0  0  0  0  0  0  0  0
   -4.1972   -2.2556    0.3830 H   0  0  0  0  0  0  0  0  0  0  0  0
  1  2  1  0
  2  3  1  0
  3  4  1  0
  4  5  2  0
  4  6  1  0
  6  7  2  0
  7  8  1  0
  8  9  1  0
  9 10  2  0
 10 11  1  0
 11 12  2  0
 12 13  1  0
 13 14  1  0
 14 15  1  0
 12 16  1  0
 16 17  2  0
  8 18  1  0
 18 19  1  0
 18 20  2  0
 20 21  1  0
 21 22  1  0
 21 23  2  0
 20  6  1  0
 17  9  1  0
  1 24  1  0
  1 25  1  0
  1 26  1  0
  2 27  1  0
  2 28  1  0
 10 29  1  0
 11 30  1  0
 14 31  1  0
 14 32  1  0
 15 33  1  0
 15 34  1  0
 15 35  1  0
 16 36  1  0
 17 37  1  0
 19 38  1  0
 19 39  1  0
 19 40  1  0
 22 41  1  0
 22 42  1  0
 22 43  1  0
M  END
$$$$
