
     RDKit          3D

 51 55  0  0  0  0  0  0  0  0999 V2000
   -1.5735    1.0720    1.0697 C   0  0  0  0  0  0  0  0  0  0  0  0
   -0.2287    1.3395    1.3530 C   0  0  0  0  0  0  0  0  0  0  0  0
    0.7543    0.7188    0.5663 C   0  0  0  0  0  0  0  0  0  0  0  0
    0.4166   -0.1569   -0.4677 C   0  0  0  0  0  0  0  0  0  0  0  0
   -0.9459   -0.4186   -0.7252 C   0  0  0  0  0  0  0  0  0  0  0  0
   -1.9497    0.2012    0.0408 C   0  0  0  0  0  0  0  0  0  0  0  0
   -3.4091   -0.0942   -0.2617 C   0  0  0  0  0  0  0  0  0  0  0  0
   -4.1108   -0.7827    0.9220 C   0  0  0  0  0  0  0  0  0  0  0  0
   -5.5744   -1.0846    0.6044 C   0  0  0  0  0  0  0  0  0  0  0  0
   -6.3259    0.1692    0.1663 C   0  0  0  0  0  0  0  0  0  0  0  0
   -5.6352    0.8595   -1.0063 C   0  0  0  0  0  0  0  0  0  0  0  0
   -4.1720    1.1698   -0.6954 C   0  0  0  0  0  0  0  0  0  0  0  0
    1.6329   -0.6257   -1.0299 C   0  0  0  0  0  0  0  0  0  0  0  0
    2.6757    0.0277   -0.3964 C   0  0  0  0  0  0  0  0  0  0  0  0
    2.1405    0.7667    0.6307 N   0  0  0  0  0  0  0  0  0  0  0  0
    2.8680    1.3842    1.7289 C   0  0  0  0  0  0  0  0  0  0  0  0
    4.3510    1.6577    1.5068 C   0  0  0  0  0  0  0  0  0  0  0  0
    5.2190    0.3958    1.4245 C   0  0  0  0  0  0  0  0  0  0  0  0
    4.7846   -0.6570    0.5079 N   0  0  0  0  0  0  0  0  0  0  0  0
    4.1336   -0.1464   -0.6933 C   0  0  0  0  0  0  0  0  0  0  0  0
    4.3187   -1.1062   -1.9027 C   0  0  0  0  0  0  0  0  0  0  0  0
    3.2729   -2.2290   -1.9811 C   0  0  0  0  0  0  0  0  0  0  0  0
    1.8534   -1.6473   -2.0916 C   0  0  0  0  0  0  0  0  0  0  0  0
   -2.3326    1.5577    1.6793 H   0  0  0  0  0  0  0  0  0  0  0  0
    0.0328    2.0103    2.1643 H   0  0  0  0  0  0  0  0  0  0  0  0
   -1.2081   -1.1060   -1.5244 H   0  0  0  0  0  0  0  0  0  0  0  0
   -3.4447   -0.7956   -1.1079 H   0  0  0  0  0  0  0  0  0  0  0  0
   -4.0671   -0.1509    1.8181 H   0  0  0  0  0  0  0  0  0  0  0  0
   -3.5942   -1.7172    1.1737 H   0  0  0  0  0  0  0  0  0  0  0  0
   -5.6273   -1.8388   -0.1904 H   0  0  0  0  0  0  0  0  0  0  0  0
   -6.0609   -1.5162    1.4864 H   0  0  0  0  0  0  0  0  0  0  0  0
   -6.3950    0.8664    1.0104 H   0  0  0  0  0  0  0  0  0  0  0  0
   -7.3516   -0.0954   -0.1143 H   0  0  0  0  0  0  0  0  0  0  0  0
   -5.6914    0.2167   -1.8934 H   0  0  0  0  0  0  0  0  0  0  0  0
   -6.1642    1.7875   -1.2509 H   0  0  0  0  0  0  0  0  0  0  0  0
   -4.1329    1.9343    0.0909 H   0  0  0  0  0  0  0  0  0  0  0  0
   -3.6981    1.6095   -1.5818 H   0  0  0  0  0  0  0  0  0  0  0  0
    2.7225    0.7390    2.6034 H   0  0  0  0  0  0  0  0  0  0  0  0
    2.3766    2.3436    1.9288 H   0  0  0  0  0  0  0  0  0  0  0  0
    4.4866    2.2778    0.6124 H   0  0  0  0  0  0  0  0  0  0  0  0
    4.7200    2.2614    2.3458 H   0  0  0  0  0  0  0  0  0  0  0  0
    6.2338    0.7060    1.1453 H   0  0  0  0  0  0  0  0  0  0  0  0
    5.2986   -0.0476    2.4239 H   0  0  0  0  0  0  0  0  0  0  0  0
    5.5785   -1.2454    0.2661 H   0  0  0  0  0  0  0  0  0  0  0  0
    4.5840    0.8033   -1.0067 H   0  0  0  0  0  0  0  0  0  0  0  0
    4.2456   -0.5131   -2.8254 H   0  0  0  0  0  0  0  0  0  0  0  0
    5.3290   -1.5338   -1.9069 H   0  0  0  0  0  0  0  0  0  0  0  0
    3.3508   -2.8647   -1.0901 H   0  0  0  0  0  0  0  0  0  0  0  0
    3.4741   -2.8649   -2.8506 H   0  0  0  0  0  0  0  0  0  0  0  0
    1.7182   -1.1798   -3.0742 H   0  0  0  0  0  0  0  0  0  0  0  0
    1.1210   -2.4577   -2.0063 H   0  0  0  0  0  0  0  0  0  0  0  0
  1  2  2  0
  2  3  1  0
  3  4  2  0
  4  5  1  0
  5  6  2  0
  6  7  1  0
  7  8  1  0
  8  9  1  0
  9 10  1  0
 10 11  1  0
 11 12  1  0
  4 13  1  0
 13 14  2  0
 14 15  1  0
 15 16  1  0
 16 17  1  0
 17 18  1  0
 18 19  1  0
 19 20  1  0
 20 21  1  0
 21 22  1  0
 22 23  1  0
  6  1  1  0
 12  7  1  0
 23 13  1  0
 15  3  1  0
 20 14  1  0
  1 24  1  0
  2 25  1  0
  5 26  1  0
  7 27  1  0
  8 28  1  0
  8 29  1  0
  9 30  1  0
  9 31  1  0
 10 32  1  0
 10 33  1  0
 11 34  1  0
 11 35  1  0
 12 36  1  0
 12 37  1  0
 16 38  1  0
 16 39  1  0
 17 40  1  0
 17 41  1  0
 18 42  1  0
 18 43  1  0
 19 44  1  0
 20 45  1  0
 21 46  1  0
 21 47  1  0
 22 48  1  0
 22 49  1  0
 23 50  1  0
 23 51  1  0
M  END
$$$$
