
     RDKit          3D

 44 46  0  0  0  0  0  0  0  0999 V2000
    6.0147    0.9986   -0.2346 C   0  0  0  0  0  0  0  0  0  0  0  0
    4.6190    0.4805   -0.6311 C   0  0  0  0  0  0  0  0  0  0  0  0
    3.8456    1.6328   -1.2801 C   0  0  0  0  0  0  0  0  0  0  0  0
    4.7908   -0.6725   -1.6321 C   0  0  0  0  0  0  0  0  0  0  0  0
    3.8969   -0.0487    0.6274 C   0  0  0  0  0  0  0  0  0  0  0  0
    4.5000   -0.1926    1.6956 O   0  0  0  0  0  0  0  0  0  0  0  0
    2.4352   -0.4459    0.5226 C   0  0  0  0  0  0  0  0  0  0  0  0
    1.3751    0.9055    1.1128 S   0  0  0  0  0  0  0  0  0  0  0  0
   -0.2456    0.2069    0.7888 C   0  0  0  0  0  0  0  0  0  0  0  0
   -0.2642   -1.1342    0.5681 N   0  0  0  0  0  0  0  0  0  0  0  0
   -1.4618   -1.6868    0.3354 C   0  0  0  0  0  0  0  0  0  0  0  0
   -2.6563   -0.9899    0.2912 C   0  0  0  0  0  0  0  0  0  0  0  0
   -2.6463    0.3788    0.5185 C   0  0  0  0  0  0  0  0  0  0  0  0
   -3.8975    1.1337    0.4868 C   0  0  0  0  0  0  0  0  0  0  0  0
   -4.7377    1.4688    1.5291 C   0  0  0  0  0  0  0  0  0  0  0  0
   -5.8654    2.2235    1.0904 C   0  0  0  0  0  0  0  0  0  0  0  0
   -5.8428    2.4408   -0.2697 C   0  0  0  0  0  0  0  0  0  0  0  0
   -4.4727    1.7353   -1.0105 S   0  0  0  0  0  0  0  0  0  0  0  0
   -1.4066    0.9957    0.7850 C   0  0  0  0  0  0  0  0  0  0  0  0
   -1.3431    2.4001    1.0553 C   0  0  0  0  0  0  0  0  0  0  0  0
   -1.3196    3.5351    1.2971 N   0  0  0  0  0  0  0  0  0  0  0  0
   -3.8031   -1.9205    0.0479 C   0  0  0  0  0  0  0  0  0  0  0  0
   -3.0786   -3.1663   -0.4807 C   0  0  0  0  0  0  0  0  0  0  0  0
   -1.6832   -3.1603    0.1509 C   0  0  0  0  0  0  0  0  0  0  0  0
    6.6336    0.1964    0.1809 H   0  0  0  0  0  0  0  0  0  0  0  0
    5.9458    1.7853    0.5249 H   0  0  0  0  0  0  0  0  0  0  0  0
    6.5456    1.4123   -1.0975 H   0  0  0  0  0  0  0  0  0  0  0  0
    4.3998    2.0549   -2.1262 H   0  0  0  0  0  0  0  0  0  0  0  0
    3.6692    2.4416   -0.5623 H   0  0  0  0  0  0  0  0  0  0  0  0
    2.8726    1.3083   -1.6626 H   0  0  0  0  0  0  0  0  0  0  0  0
    5.3892   -0.3607   -2.4953 H   0  0  0  0  0  0  0  0  0  0  0  0
    3.8280   -1.0261   -2.0137 H   0  0  0  0  0  0  0  0  0  0  0  0
    5.2922   -1.5299   -1.1662 H   0  0  0  0  0  0  0  0  0  0  0  0
    2.1866   -0.7085   -0.5088 H   0  0  0  0  0  0  0  0  0  0  0  0
    2.2933   -1.3389    1.1385 H   0  0  0  0  0  0  0  0  0  0  0  0
   -4.5471    1.1997    2.5602 H   0  0  0  0  0  0  0  0  0  0  0  0
   -6.6419    2.5990    1.7427 H   0  0  0  0  0  0  0  0  0  0  0  0
   -6.5634    2.9842   -0.8663 H   0  0  0  0  0  0  0  0  0  0  0  0
   -4.5123   -1.5441   -0.6917 H   0  0  0  0  0  0  0  0  0  0  0  0
   -4.3198   -2.1365    0.9872 H   0  0  0  0  0  0  0  0  0  0  0  0
   -3.6275   -4.0915   -0.2754 H   0  0  0  0  0  0  0  0  0  0  0  0
   -2.9786   -3.0889   -1.5725 H   0  0  0  0  0  0  0  0  0  0  0  0
   -1.6839   -3.6612    1.1245 H   0  0  0  0  0  0  0  0  0  0  0  0
   -0.9343   -3.6138   -0.5048 H   0  0  0  0  0  0  0  0  0  0  0  0
  1  2  1  0
  2  3  1  0
  2  4  1  0
  2  5  1  0
  5  6  2  0
  5  7  1  0
  7  8  1  0
  8  9  1  0
  9 10  2  0
 10 11  1  0
 11 12  2  0
 12 13  1  0
 13 14  1  0
 14 15  2  0
 15 16  1  0
 16 17  2  0
 17 18  1  0
 13 19  2  0
 19 20  1  0
 20 21  3  0
 12 22  1  0
 22 23  1  0
 23 24  1  0
 19  9  1  0
 24 11  1  0
 18 14  1  0
  1 25  1  0
  1 26  1  0
  1 27  1  0
  3 28  1  0
  3 29  1  0
  3 30  1  0
  4 31  1  0
  4 32  1  0
  4 33  1  0
  7 34  1  0
  7 35  1  0
 15 36  1  0
 16 37  1  0
 17 38  1  0
 22 39  1  0
 22 40  1  0
 23 41  1  0
 23 42  1  0
 24 43  1  0
 24 44  1  0
M  END
$$$$
