
     RDKit          3D

 72 77  0  0  0  0  0  0  0  0999 V2000
    5.8825    1.0069   -2.9199 O   0  0  0  0  0  0  0  0  0  0  0  0
    4.8244    1.4265   -2.4556 C   0  0  0  0  0  0  0  0  0  0  0  0
    3.4746    1.2000   -3.1163 C   0  0  0  0  0  0  0  0  0  0  0  0
    3.1331   -0.5634   -3.3485 S   0  0  0  0  0  0  0  0  0  0  0  0
    2.9874   -1.0526   -1.6671 C   0  0  0  0  0  0  0  0  0  0  0  0
    4.0234   -1.6574   -1.1582 N   0  0  0  0  0  0  0  0  0  0  0  0
    3.9803   -2.1324    0.1709 C   0  0  0  0  0  0  0  0  0  0  0  0
    5.0953   -2.7914    0.6904 C   0  0  0  0  0  0  0  0  0  0  0  0
    5.0779   -3.2883    1.9952 C   0  0  0  0  0  0  0  0  0  0  0  0
    3.9400   -3.1363    2.7897 C   0  0  0  0  0  0  0  0  0  0  0  0
    2.8194   -2.4794    2.2843 C   0  0  0  0  0  0  0  0  0  0  0  0
    2.8427   -1.9781    0.9800 C   0  0  0  0  0  0  0  0  0  0  0  0
    1.7116   -1.2943    0.3848 C   0  0  0  0  0  0  0  0  0  0  0  0
    0.5342   -1.0320    0.9099 N   0  0  0  0  0  0  0  0  0  0  0  0
   -0.1810   -0.3841   -0.0763 C   0  0  0  0  0  0  0  0  0  0  0  0
   -1.5719    0.0653    0.2571 C   0  0  0  0  0  0  0  0  0  0  0  0
   -2.5516    0.0834   -0.9092 C   0  0  0  0  0  0  0  0  0  0  0  0
   -2.1733    0.3429   -2.0568 O   0  0  0  0  0  0  0  0  0  0  0  0
   -3.8920   -0.1853   -0.6398 N   0  0  0  0  0  0  0  0  0  0  0  0
   -4.8298   -0.1281   -1.7749 C   0  0  0  0  0  0  0  0  0  0  0  0
   -6.0989   -0.9691   -1.5438 C   0  0  0  0  0  0  0  0  0  0  0  0
   -6.7395   -0.6156   -0.2542 N   0  0  0  0  0  0  0  0  0  0  0  0
   -7.6861    0.4107   -0.2645 C   0  0  0  0  0  0  0  0  0  0  0  0
   -8.7047    0.4277   -1.2341 C   0  0  0  0  0  0  0  0  0  0  0  0
   -9.6823    1.4298   -1.2748 C   0  0  0  0  0  0  0  0  0  0  0  0
   -9.6771    2.4433   -0.3274 C   0  0  0  0  0  0  0  0  0  0  0  0
   -8.7018    2.4443    0.6626 C   0  0  0  0  0  0  0  0  0  0  0  0
   -7.7276    1.4367    0.6942 C   0  0  0  0  0  0  0  0  0  0  0  0
   -5.8062   -0.7737    0.8790 C   0  0  0  0  0  0  0  0  0  0  0  0
   -4.5204    0.0540    0.6744 C   0  0  0  0  0  0  0  0  0  0  0  0
    0.6045   -0.2331   -1.2107 C   0  0  0  0  0  0  0  0  0  0  0  0
    0.3668    0.3452   -2.3846 O   0  0  0  0  0  0  0  0  0  0  0  0
    1.8138   -0.8455   -0.9152 N   0  0  0  0  0  0  0  0  0  0  0  0
    4.7649    2.1798   -1.2973 N   0  0  0  0  0  0  0  0  0  0  0  0
    5.9465    2.3510   -0.4662 C   0  0  0  0  0  0  0  0  0  0  0  0
    6.1293    1.1647    0.4790 C   0  0  0  0  0  0  0  0  0  0  0  0
    7.3789    1.2626    1.3346 C   0  0  0  0  0  0  0  0  0  0  0  0
    7.0039    0.3958    2.5103 C   0  0  0  0  0  0  0  0  0  0  0  0
    5.5350    0.7141    2.6906 C   0  0  0  0  0  0  0  0  0  0  0  0
    5.0230    1.1151    1.4101 O   0  0  0  0  0  0  0  0  0  0  0  0
    2.6734    1.6698   -2.5382 H   0  0  0  0  0  0  0  0  0  0  0  0
    3.4989    1.6908   -4.0956 H   0  0  0  0  0  0  0  0  0  0  0  0
    5.9787   -2.9179    0.0702 H   0  0  0  0  0  0  0  0  0  0  0  0
    5.9489   -3.8061    2.3887 H   0  0  0  0  0  0  0  0  0  0  0  0
    3.9212   -3.5456    3.7991 H   0  0  0  0  0  0  0  0  0  0  0  0
    1.9288   -2.3641    2.8990 H   0  0  0  0  0  0  0  0  0  0  0  0
   -1.9368   -0.6196    1.0287 H   0  0  0  0  0  0  0  0  0  0  0  0
   -1.5363    1.0757    0.6820 H   0  0  0  0  0  0  0  0  0  0  0  0
   -5.0902    0.9269   -1.9230 H   0  0  0  0  0  0  0  0  0  0  0  0
   -4.3319   -0.4766   -2.6860 H   0  0  0  0  0  0  0  0  0  0  0  0
   -5.8190   -2.0296   -1.5006 H   0  0  0  0  0  0  0  0  0  0  0  0
   -6.7648   -0.8690   -2.4055 H   0  0  0  0  0  0  0  0  0  0  0  0
   -8.7789   -0.3712   -1.9664 H   0  0  0  0  0  0  0  0  0  0  0  0
  -10.4522    1.4038   -2.0405 H   0  0  0  0  0  0  0  0  0  0  0  0
  -10.4359    3.2209   -0.3514 H   0  0  0  0  0  0  0  0  0  0  0  0
   -8.6961    3.2235    1.4194 H   0  0  0  0  0  0  0  0  0  0  0  0
   -6.9974    1.4924    1.4936 H   0  0  0  0  0  0  0  0  0  0  0  0
   -5.5276   -1.8349    0.9340 H   0  0  0  0  0  0  0  0  0  0  0  0
   -6.2776   -0.5458    1.8421 H   0  0  0  0  0  0  0  0  0  0  0  0
   -4.7402    1.1286    0.7188 H   0  0  0  0  0  0  0  0  0  0  0  0
   -3.8292   -0.1574    1.4932 H   0  0  0  0  0  0  0  0  0  0  0  0
   -0.6079    0.4848   -2.4624 H   0  0  0  0  0  0  0  0  0  0  0  0
    3.8815    2.2404   -0.8059 H   0  0  0  0  0  0  0  0  0  0  0  0
    5.7844    3.2727    0.1027 H   0  0  0  0  0  0  0  0  0  0  0  0
    6.8267    2.4774   -1.1055 H   0  0  0  0  0  0  0  0  0  0  0  0
    6.1275    0.2217   -0.0798 H   0  0  0  0  0  0  0  0  0  0  0  0
    7.5452    2.2921    1.6737 H   0  0  0  0  0  0  0  0  0  0  0  0
    8.2772    0.9227    0.8128 H   0  0  0  0  0  0  0  0  0  0  0  0
    7.1280   -0.6613    2.2476 H   0  0  0  0  0  0  0  0  0  0  0  0
    7.5938    0.5903    3.4092 H   0  0  0  0  0  0  0  0  0  0  0  0
    4.9666   -0.1400    3.0641 H   0  0  0  0  0  0  0  0  0  0  0  0
    5.3920    1.5512    3.3804 H   0  0  0  0  0  0  0  0  0  0  0  0
  1  2  2  0
  2  3  1  0
  3  4  1  0
  4  5  1  0
  5  6  2  0
  6  7  1  0
  7  8  2  0
  8  9  1  0
  9 10  2  0
 10 11  1  0
 11 12  2  0
 12 13  1  0
 13 14  2  0
 14 15  1  0
 15 16  1  0
 16 17  1  0
 17 18  2  0
 17 19  1  0
 19 20  1  0
 20 21  1  0
 21 22  1  0
 22 23  1  0
 23 24  2  0
 24 25  1  0
 25 26  2  0
 26 27  1  0
 27 28  2  0
 22 29  1  0
 29 30  1  0
 15 31  2  0
 31 32  1  0
 31 33  1  0
  2 34  1  0
 34 35  1  0
 35 36  1  0
 36 37  1  0
 37 38  1  0
 38 39  1  0
 39 40  1  0
 33  5  1  0
 40 36  1  0
 12  7  1  0
 33 13  1  0
 30 19  1  0
 28 23  1  0
  3 41  1  0
  3 42  1  0
  8 43  1  0
  9 44  1  0
 10 45  1  0
 11 46  1  0
 16 47  1  0
 16 48  1  0
 20 49  1  0
 20 50  1  0
 21 51  1  0
 21 52  1  0
 24 53  1  0
 25 54  1  0
 26 55  1  0
 27 56  1  0
 28 57  1  0
 29 58  1  0
 29 59  1  0
 30 60  1  0
 30 61  1  0
 32 62  1  0
 34 63  1  0
 35 64  1  0
 35 65  1  0
 36 66  1  0
 37 67  1  0
 37 68  1  0
 38 69  1  0
 38 70  1  0
 39 71  1  0
 39 72  1  0
M  END
$$$$
