
     RDKit          3D

 47 48  0  0  0  0  0  0  0  0999 V2000
    1.3534   -3.1548    1.2794 C   0  0  0  0  0  0  0  0  0  0  0  0
    1.5889   -1.7168    1.6963 C   0  0  0  0  0  0  0  0  0  0  0  0
    1.9125   -0.9627    0.5236 O   0  0  0  0  0  0  0  0  0  0  0  0
    2.0862    0.3730    0.7440 C   0  0  0  0  0  0  0  0  0  0  0  0
    2.0034    0.8997    1.8466 O   0  0  0  0  0  0  0  0  0  0  0  0
    2.3560    1.1291   -0.4788 C   0  0  0  0  0  0  0  0  0  0  0  0
    2.9023    0.6222   -1.6563 C   0  0  0  0  0  0  0  0  0  0  0  0
    3.3260   -0.7544   -2.0334 C   0  0  0  0  0  0  0  0  0  0  0  0
    3.0672    1.6658   -2.5306 N   0  0  0  0  0  0  0  0  0  0  0  0
    2.6318    2.8322   -1.9630 C   0  0  0  0  0  0  0  0  0  0  0  0
    2.7024    4.1231   -2.7023 C   0  0  0  0  0  0  0  0  0  0  0  0
    2.1513    2.5425   -0.6899 C   0  0  0  0  0  0  0  0  0  0  0  0
    1.5559    3.5555    0.1996 C   0  0  0  0  0  0  0  0  0  0  0  0
    2.0010    4.7068    0.2182 O   0  0  0  0  0  0  0  0  0  0  0  0
    0.3538    3.2060    1.0747 C   0  0  0  0  0  0  0  0  0  0  0  0
   -0.4142    2.1278    0.5415 O   0  0  0  0  0  0  0  0  0  0  0  0
   -1.3996    1.6958    1.3626 C   0  0  0  0  0  0  0  0  0  0  0  0
   -1.7281    2.1823    2.4303 O   0  0  0  0  0  0  0  0  0  0  0  0
   -2.0003    0.4979    0.7420 C   0  0  0  0  0  0  0  0  0  0  0  0
   -2.9354   -0.2008    1.4027 C   0  0  0  0  0  0  0  0  0  0  0  0
   -3.5813   -1.4065    0.8682 C   0  0  0  0  0  0  0  0  0  0  0  0
   -4.9345   -1.6325    1.1561 C   0  0  0  0  0  0  0  0  0  0  0  0
   -5.5804   -2.7812    0.6885 C   0  0  0  0  0  0  0  0  0  0  0  0
   -4.8709   -3.7174   -0.0589 C   0  0  0  0  0  0  0  0  0  0  0  0
   -5.6616   -5.1335   -0.6324 Cl  0  0  0  0  0  0  0  0  0  0  0  0
   -3.5217   -3.5162   -0.3400 C   0  0  0  0  0  0  0  0  0  0  0  0
   -2.8777   -2.3658    0.1259 C   0  0  0  0  0  0  0  0  0  0  0  0
    1.0716   -3.7690    2.1383 H   0  0  0  0  0  0  0  0  0  0  0  0
    0.5612   -3.2130    0.5268 H   0  0  0  0  0  0  0  0  0  0  0  0
    2.2545   -3.5766    0.8239 H   0  0  0  0  0  0  0  0  0  0  0  0
    2.4186   -1.6674    2.4089 H   0  0  0  0  0  0  0  0  0  0  0  0
    0.6802   -1.3148    2.1577 H   0  0  0  0  0  0  0  0  0  0  0  0
    2.4583   -1.4177   -2.0982 H   0  0  0  0  0  0  0  0  0  0  0  0
    3.8301   -0.7675   -3.0051 H   0  0  0  0  0  0  0  0  0  0  0  0
    4.0245   -1.1578   -1.2935 H   0  0  0  0  0  0  0  0  0  0  0  0
    3.4646    1.5888   -3.4590 H   0  0  0  0  0  0  0  0  0  0  0  0
    1.7504    4.6597   -2.6345 H   0  0  0  0  0  0  0  0  0  0  0  0
    2.9201    3.9662   -3.7639 H   0  0  0  0  0  0  0  0  0  0  0  0
    3.4910    4.7577   -2.2843 H   0  0  0  0  0  0  0  0  0  0  0  0
    0.7145    2.9819    2.0842 H   0  0  0  0  0  0  0  0  0  0  0  0
   -0.2867    4.0958    1.1130 H   0  0  0  0  0  0  0  0  0  0  0  0
   -1.6494    0.2265   -0.2460 H   0  0  0  0  0  0  0  0  0  0  0  0
   -3.2715    0.1263    2.3862 H   0  0  0  0  0  0  0  0  0  0  0  0
   -5.5025   -0.9108    1.7401 H   0  0  0  0  0  0  0  0  0  0  0  0
   -6.6323   -2.9373    0.9132 H   0  0  0  0  0  0  0  0  0  0  0  0
   -2.9641   -4.2505   -0.9152 H   0  0  0  0  0  0  0  0  0  0  0  0
   -1.8199   -2.2374   -0.0900 H   0  0  0  0  0  0  0  0  0  0  0  0
  1  2  1  0
  2  3  1  0
  3  4  1  0
  4  5  2  0
  4  6  1  0
  6  7  2  0
  7  8  1  0
  7  9  1  0
  9 10  1  0
 10 11  1  0
 10 12  2  0
 12 13  1  0
 13 14  2  0
 13 15  1  0
 15 16  1  0
 16 17  1  0
 17 18  2  0
 17 19  1  0
 19 20  2  3
 20 21  1  0
 21 22  2  0
 22 23  1  0
 23 24  2  0
 24 25  1  0
 24 26  1  0
 26 27  2  0
 12  6  1  0
 27 21  1  0
  1 28  1  0
  1 29  1  0
  1 30  1  0
  2 31  1  0
  2 32  1  0
  8 33  1  0
  8 34  1  0
  8 35  1  0
  9 36  1  0
 11 37  1  0
 11 38  1  0
 11 39  1  0
 15 40  1  0
 15 41  1  0
 19 42  1  0
 20 43  1  0
 22 44  1  0
 23 45  1  0
 26 46  1  0
 27 47  1  0
M  END
$$$$
