
     RDKit          3D

 72 74  0  0  0  0  0  0  0  0999 V2000
    9.2176   -0.5735    0.4017 C   0  0  0  0  0  0  0  0  0  0  0  0
    8.2466    0.5614    0.1131 C   0  0  0  0  0  0  0  0  0  0  0  0
    7.4421    0.9360    1.3580 C   0  0  0  0  0  0  0  0  0  0  0  0
    6.5245    2.1451    1.1515 C   0  0  0  0  0  0  0  0  0  0  0  0
    5.4752    2.0115    0.0422 C   0  0  0  0  0  0  0  0  0  0  0  0
    4.5022    0.8508    0.2631 C   0  0  0  0  0  0  0  0  0  0  0  0
    3.4467    0.7227   -0.8414 C   0  0  0  0  0  0  0  0  0  0  0  0
    2.4242    1.8626   -0.8406 C   0  0  0  0  0  0  0  0  0  0  0  0
    1.3654    1.7275   -1.9428 C   0  0  0  0  0  0  0  0  0  0  0  0
    0.4596    0.5061   -1.8058 C   0  0  0  0  0  0  0  0  0  0  0  0
   -0.1932    0.5474   -0.5282 O   0  0  0  0  0  0  0  0  0  0  0  0
   -0.9525   -0.5467   -0.2437 C   0  0  0  0  0  0  0  0  0  0  0  0
   -1.0957   -1.5196   -0.9737 O   0  0  0  0  0  0  0  0  0  0  0  0
   -1.5907   -0.3861    1.1319 C   0  0  0  0  0  0  0  0  0  0  0  0
   -2.4789   -1.5284    1.4577 N   0  0  0  0  0  0  0  0  0  0  0  0
   -3.7804   -1.6138    1.0935 C   0  0  0  0  0  0  0  0  0  0  0  0
   -4.6003   -0.5160    0.4237 C   0  0  0  0  0  0  0  0  0  0  0  0
   -3.9003   -0.0187   -0.7059 O   0  0  0  0  0  0  0  0  0  0  0  0
   -4.5192    0.9547   -1.4377 C   0  0  0  0  0  0  0  0  0  0  0  0
   -3.8758    1.2739   -2.6351 C   0  0  0  0  0  0  0  0  0  0  0  0
   -4.3998    2.2498   -3.4809 C   0  0  0  0  0  0  0  0  0  0  0  0
   -5.5699    2.9191   -3.1291 C   0  0  0  0  0  0  0  0  0  0  0  0
   -6.2179    2.6227   -1.9248 C   0  0  0  0  0  0  0  0  0  0  0  0
   -7.4954    3.3229   -1.5605 C   0  0  0  0  0  0  0  0  0  0  0  0
   -5.6907    1.6282   -1.0849 C   0  0  0  0  0  0  0  0  0  0  0  0
   -4.2187   -2.8418    1.4622 N   0  0  0  0  0  4  0  0  0  0  0  0
   -5.5684   -3.3445    1.2182 C   0  0  0  0  0  0  0  0  0  0  0  0
   -3.1808   -3.5607    2.0514 C   0  0  0  0  0  0  0  0  0  0  0  0
   -3.1269   -4.8522    2.5740 C   0  0  0  0  0  0  0  0  0  0  0  0
   -1.8888   -5.2627    3.0864 C   0  0  0  0  0  0  0  0  0  0  0  0
   -0.7645   -4.4172    3.0694 C   0  0  0  0  0  0  0  0  0  0  0  0
   -0.8273   -3.1210    2.5421 C   0  0  0  0  0  0  0  0  0  0  0  0
   -2.0643   -2.7198    2.0409 C   0  0  0  0  0  0  0  0  0  0  0  0
    9.9378   -0.2866    1.1742 H   0  0  0  0  0  0  0  0  0  0  0  0
    9.7757   -0.8337   -0.5027 H   0  0  0  0  0  0  0  0  0  0  0  0
    8.6860   -1.4678    0.7423 H   0  0  0  0  0  0  0  0  0  0  0  0
    7.5755    0.2499   -0.6944 H   0  0  0  0  0  0  0  0  0  0  0  0
    8.8073    1.4326   -0.2449 H   0  0  0  0  0  0  0  0  0  0  0  0
    8.1361    1.1751    2.1739 H   0  0  0  0  0  0  0  0  0  0  0  0
    6.8577    0.0733    1.6979 H   0  0  0  0  0  0  0  0  0  0  0  0
    7.1447    3.0241    0.9348 H   0  0  0  0  0  0  0  0  0  0  0  0
    6.0129    2.3564    2.0991 H   0  0  0  0  0  0  0  0  0  0  0  0
    4.9204    2.9552    0.0027 H   0  0  0  0  0  0  0  0  0  0  0  0
    5.9677    1.9038   -0.9308 H   0  0  0  0  0  0  0  0  0  0  0  0
    5.0615   -0.0911    0.2933 H   0  0  0  0  0  0  0  0  0  0  0  0
    4.0080    0.9585    1.2359 H   0  0  0  0  0  0  0  0  0  0  0  0
    3.9410    0.6659   -1.8192 H   0  0  0  0  0  0  0  0  0  0  0  0
    2.9290   -0.2318   -0.6911 H   0  0  0  0  0  0  0  0  0  0  0  0
    2.9374    2.8189   -0.9932 H   0  0  0  0  0  0  0  0  0  0  0  0
    1.9373    1.9216    0.1403 H   0  0  0  0  0  0  0  0  0  0  0  0
    1.8524    1.7088   -2.9245 H   0  0  0  0  0  0  0  0  0  0  0  0
    0.7398    2.6285   -1.9102 H   0  0  0  0  0  0  0  0  0  0  0  0
   -0.3022    0.5317   -2.5940 H   0  0  0  0  0  0  0  0  0  0  0  0
    1.0377   -0.4188   -1.9062 H   0  0  0  0  0  0  0  0  0  0  0  0
   -2.1744    0.5382    1.1683 H   0  0  0  0  0  0  0  0  0  0  0  0
   -0.8016   -0.3274    1.8881 H   0  0  0  0  0  0  0  0  0  0  0  0
   -5.5557   -0.9581    0.1349 H   0  0  0  0  0  0  0  0  0  0  0  0
   -4.7188    0.2459    1.2006 H   0  0  0  0  0  0  0  0  0  0  0  0
   -2.9674    0.7516   -2.9251 H   0  0  0  0  0  0  0  0  0  0  0  0
   -3.9013    2.4840   -4.4190 H   0  0  0  0  0  0  0  0  0  0  0  0
   -5.9734    3.6733   -3.8026 H   0  0  0  0  0  0  0  0  0  0  0  0
   -7.5257    3.5368   -0.4866 H   0  0  0  0  0  0  0  0  0  0  0  0
   -7.5853    4.2800   -2.0857 H   0  0  0  0  0  0  0  0  0  0  0  0
   -8.3535    2.6967   -1.8249 H   0  0  0  0  0  0  0  0  0  0  0  0
   -6.2199    1.4140   -0.1617 H   0  0  0  0  0  0  0  0  0  0  0  0
   -5.6814   -4.3723    1.5700 H   0  0  0  0  0  0  0  0  0  0  0  0
   -5.7686   -3.3163    0.1426 H   0  0  0  0  0  0  0  0  0  0  0  0
   -6.2826   -2.7076    1.7485 H   0  0  0  0  0  0  0  0  0  0  0  0
   -3.9873   -5.5093    2.5842 H   0  0  0  0  0  0  0  0  0  0  0  0
   -1.7913   -6.2652    3.5050 H   0  0  0  0  0  0  0  0  0  0  0  0
    0.1797   -4.7838    3.4740 H   0  0  0  0  0  0  0  0  0  0  0  0
    0.0411   -2.4745    2.5254 H   0  0  0  0  0  0  0  0  0  0  0  0
  1  2  1  0
  2  3  1  0
  3  4  1  0
  4  5  1  0
  5  6  1  0
  6  7  1  0
  7  8  1  0
  8  9  1  0
  9 10  1  0
 10 11  1  0
 11 12  1  0
 12 13  2  0
 12 14  1  0
 14 15  1  0
 15 16  1  0
 16 17  1  0
 17 18  1  0
 18 19  1  0
 19 20  2  0
 20 21  1  0
 21 22  2  0
 22 23  1  0
 23 24  1  0
 23 25  2  0
 16 26  2  0
 26 27  1  0
 26 28  1  0
 28 29  2  0
 29 30  1  0
 30 31  2  0
 31 32  1  0
 32 33  2  0
 33 15  1  0
 25 19  1  0
 33 28  1  0
  1 34  1  0
  1 35  1  0
  1 36  1  0
  2 37  1  0
  2 38  1  0
  3 39  1  0
  3 40  1  0
  4 41  1  0
  4 42  1  0
  5 43  1  0
  5 44  1  0
  6 45  1  0
  6 46  1  0
  7 47  1  0
  7 48  1  0
  8 49  1  0
  8 50  1  0
  9 51  1  0
  9 52  1  0
 10 53  1  0
 10 54  1  0
 14 55  1  0
 14 56  1  0
 17 57  1  0
 17 58  1  0
 20 59  1  0
 21 60  1  0
 22 61  1  0
 24 62  1  0
 24 63  1  0
 24 64  1  0
 25 65  1  0
 27 66  1  0
 27 67  1  0
 27 68  1  0
 29 69  1  0
 30 70  1  0
 31 71  1  0
 32 72  1  0
M  CHG  1  26   1
M  END
$$$$
