
     RDKit          3D

 60 64  0  0  0  0  0  0  0  0999 V2000
   -3.1536   -2.7534    1.4870 C   0  0  0  0  0  0  0  0  0  0  0  0
   -4.5623   -2.5271    0.9550 C   0  0  0  0  0  0  0  0  0  0  0  0
   -4.6797   -1.7330   -0.3531 C   0  0  0  0  0  0  0  0  0  0  0  0
   -4.0679   -2.4100   -1.4833 N   0  0  0  0  0  0  0  0  0  0  0  0
   -2.7286   -2.1577   -1.7238 C   0  0  0  0  0  0  0  0  0  0  0  0
   -2.1090   -3.1233   -2.4196 N   0  0  0  0  0  0  0  0  0  0  0  0
   -0.8327   -2.8962   -2.7243 C   0  0  0  0  0  0  0  0  0  0  0  0
   -0.1208   -1.8261   -2.3645 N   0  0  0  0  0  0  0  0  0  0  0  0
   -0.7506   -0.8790   -1.6311 C   0  0  0  0  0  0  0  0  0  0  0  0
    0.0682    0.1471   -1.1061 N   0  0  0  0  0  0  0  0  0  0  0  0
    1.0778    0.6297   -2.0849 C   0  0  0  0  0  0  0  0  0  0  0  0
    2.4934    0.0482   -1.8669 C   0  0  0  0  0  0  0  0  0  0  0  0
    2.9798    0.3261   -0.5012 N   0  0  0  0  0  0  0  0  0  0  0  0
    4.3240    0.5015   -0.2230 C   0  0  0  0  0  0  0  0  0  0  0  0
    5.3275    0.0096   -1.0737 C   0  0  0  0  0  0  0  0  0  0  0  0
    6.6895    0.1859   -0.7976 C   0  0  0  0  0  0  0  0  0  0  0  0
    7.0861    0.8650    0.3473 C   0  0  0  0  0  0  0  0  0  0  0  0
    6.1203    1.3625    1.2124 C   0  0  0  0  0  0  0  0  0  0  0  0
    4.7610    1.1792    0.9276 C   0  0  0  0  0  0  0  0  0  0  0  0
    1.9479    0.4439    0.5465 C   0  0  0  0  0  0  0  0  0  0  0  0
    0.6761   -0.3453    0.1649 C   0  0  0  0  0  0  0  0  0  0  0  0
   -2.1143   -0.9706   -1.3061 C   0  0  0  0  0  0  0  0  0  0  0  0
   -2.9054    0.0204   -0.6114 N   0  0  0  0  0  0  0  0  0  0  0  0
   -2.4988    1.4264   -0.5717 C   0  0  0  0  0  0  0  0  0  0  0  0
   -1.8672    1.9149    0.7192 C   0  0  0  0  0  0  0  0  0  0  0  0
   -2.2684    1.4601    1.9834 C   0  0  0  0  0  0  0  0  0  0  0  0
   -1.6869    1.9711    3.1468 C   0  0  0  0  0  0  0  0  0  0  0  0
   -0.7086    2.9585    3.0657 C   0  0  0  0  0  0  0  0  0  0  0  0
   -0.3176    3.4433    1.8213 C   0  0  0  0  0  0  0  0  0  0  0  0
   -0.8971    2.9303    0.6587 C   0  0  0  0  0  0  0  0  0  0  0  0
   -4.2129   -0.2766   -0.2103 C   0  0  0  0  0  0  0  0  0  0  0  0
   -4.9673    0.5577    0.2990 O   0  0  0  0  0  0  0  0  0  0  0  0
   -2.5615   -3.3730    0.8085 H   0  0  0  0  0  0  0  0  0  0  0  0
   -3.2010   -3.2789    2.4466 H   0  0  0  0  0  0  0  0  0  0  0  0
   -2.6269   -1.8105    1.6555 H   0  0  0  0  0  0  0  0  0  0  0  0
   -5.0384   -3.5066    0.8212 H   0  0  0  0  0  0  0  0  0  0  0  0
   -5.1340   -2.0057    1.7332 H   0  0  0  0  0  0  0  0  0  0  0  0
   -5.7492   -1.6680   -0.5931 H   0  0  0  0  0  0  0  0  0  0  0  0
   -4.3057   -3.3777   -1.6661 H   0  0  0  0  0  0  0  0  0  0  0  0
   -0.3224   -3.6540   -3.3088 H   0  0  0  0  0  0  0  0  0  0  0  0
    0.7555    0.4696   -3.1220 H   0  0  0  0  0  0  0  0  0  0  0  0
    1.1342    1.7193   -1.9615 H   0  0  0  0  0  0  0  0  0  0  0  0
    2.4973   -1.0345   -2.0361 H   0  0  0  0  0  0  0  0  0  0  0  0
    3.1477    0.5110   -2.6153 H   0  0  0  0  0  0  0  0  0  0  0  0
    5.0663   -0.5505   -1.9670 H   0  0  0  0  0  0  0  0  0  0  0  0
    7.4347   -0.2149   -1.4791 H   0  0  0  0  0  0  0  0  0  0  0  0
    8.1413    1.0041    0.5647 H   0  0  0  0  0  0  0  0  0  0  0  0
    6.4162    1.8989    2.1099 H   0  0  0  0  0  0  0  0  0  0  0  0
    4.0430    1.6049    1.6227 H   0  0  0  0  0  0  0  0  0  0  0  0
    2.3138    0.0373    1.4969 H   0  0  0  0  0  0  0  0  0  0  0  0
    1.7093    1.5019    0.6937 H   0  0  0  0  0  0  0  0  0  0  0  0
    0.9537   -1.4066    0.0831 H   0  0  0  0  0  0  0  0  0  0  0  0
   -0.0538   -0.2702    0.9771 H   0  0  0  0  0  0  0  0  0  0  0  0
   -1.8636    1.6482   -1.4365 H   0  0  0  0  0  0  0  0  0  0  0  0
   -3.3910    2.0479   -0.7314 H   0  0  0  0  0  0  0  0  0  0  0  0
   -3.0485    0.7116    2.0838 H   0  0  0  0  0  0  0  0  0  0  0  0
   -2.0121    1.6060    4.1176 H   0  0  0  0  0  0  0  0  0  0  0  0
   -0.2638    3.3599    3.9720 H   0  0  0  0  0  0  0  0  0  0  0  0
    0.4359    4.2235    1.7530 H   0  0  0  0  0  0  0  0  0  0  0  0
   -0.5789    3.3239   -0.3047 H   0  0  0  0  0  0  0  0  0  0  0  0
  1  2  1  0
  2  3  1  0
  3  4  1  0
  4  5  1  0
  5  6  2  0
  6  7  1  0
  7  8  2  0
  8  9  1  0
  9 10  1  0
 10 11  1  0
 11 12  1  0
 12 13  1  0
 13 14  1  0
 14 15  2  0
 15 16  1  0
 16 17  2  0
 17 18  1  0
 18 19  2  0
 13 20  1  0
 20 21  1  0
  9 22  2  0
 22 23  1  0
 23 24  1  0
 24 25  1  0
 25 26  2  0
 26 27  1  0
 27 28  2  0
 28 29  1  0
 29 30  2  0
 23 31  1  0
 31 32  2  0
 31  3  1  0
 22  5  1  0
 30 25  1  0
 21 10  1  0
 19 14  1  0
  1 33  1  0
  1 34  1  0
  1 35  1  0
  2 36  1  0
  2 37  1  0
  3 38  1  0
  4 39  1  0
  7 40  1  0
 11 41  1  0
 11 42  1  0
 12 43  1  0
 12 44  1  0
 15 45  1  0
 16 46  1  0
 17 47  1  0
 18 48  1  0
 19 49  1  0
 20 50  1  0
 20 51  1  0
 21 52  1  0
 21 53  1  0
 24 54  1  0
 24 55  1  0
 26 56  1  0
 27 57  1  0
 28 58  1  0
 29 59  1  0
 30 60  1  0
M  END
$$$$
