
     RDKit          3D

 48 51  0  0  0  0  0  0  0  0999 V2000
   -7.5496   -2.5017   -0.2795 C   0  0  0  0  0  0  0  0  0  0  0  0
   -6.4316   -1.4993   -0.3063 C   0  0  0  0  0  0  0  0  0  0  0  0
   -6.6910   -0.1971   -0.7164 C   0  0  0  0  0  0  0  0  0  0  0  0
   -5.6601    0.7582   -0.7447 C   0  0  0  0  0  0  0  0  0  0  0  0
   -5.9858    2.1588   -1.1826 C   0  0  0  0  0  0  0  0  0  0  0  0
   -4.3606    0.3228   -0.3592 C   0  0  0  0  0  0  0  0  0  0  0  0
   -3.0717    0.9673   -0.2716 C   0  0  0  0  0  0  0  0  0  0  0  0
   -2.8433    2.2632   -0.5987 N   0  0  0  0  0  0  0  0  0  0  0  0
   -2.0654    0.1346    0.1916 C   0  0  0  0  0  0  0  0  0  0  0  0
   -0.6560    0.4599    0.3885 C   0  0  0  0  0  0  0  0  0  0  0  0
   -0.1688    1.5473    0.0694 O   0  0  0  0  0  0  0  0  0  0  0  0
    0.1228   -0.5384    0.9704 N   0  0  0  0  0  0  0  0  0  0  0  0
    1.5328   -0.4522    0.8273 N   0  0  0  0  0  0  0  0  0  0  0  0
    2.1869    0.3175    1.8703 C   0  0  0  0  0  0  0  0  0  0  0  0
    3.5874    0.7296    1.4180 C   0  0  0  0  0  0  0  0  0  0  0  0
    4.1190    1.7301    1.8998 O   0  0  0  0  0  0  0  0  0  0  0  0
    4.2228   -0.1892    0.5601 N   0  0  0  0  0  0  0  0  0  0  0  0
    5.5453    0.0679    0.0520 C   0  0  0  0  0  0  0  0  0  0  0  0
    5.9397    1.3779   -0.2645 C   0  0  0  0  0  0  0  0  0  0  0  0
    7.2099    1.6503   -0.7883 C   0  0  0  0  0  0  0  0  0  0  0  0
    8.1151    0.6168   -1.0091 C   0  0  0  0  0  0  0  0  0  0  0  0
    7.7494   -0.6895   -0.7032 C   0  0  0  0  0  0  0  0  0  0  0  0
    6.4820   -0.9549   -0.1816 C   0  0  0  0  0  0  0  0  0  0  0  0
    6.2099   -2.2293    0.1404 F   0  0  0  0  0  0  0  0  0  0  0  0
    3.6822   -1.5541    0.4815 C   0  0  0  0  0  0  0  0  0  0  0  0
    2.1632   -1.5874    0.3397 C   0  0  0  0  0  0  0  0  0  0  0  0
    1.5449   -2.5696   -0.0678 O   0  0  0  0  0  0  0  0  0  0  0  0
   -2.6696   -1.4341    0.5110 S   0  0  0  0  0  0  0  0  0  0  0  0
   -4.2444   -1.0064    0.0380 C   0  0  0  0  0  0  0  0  0  0  0  0
   -5.2204   -1.9345    0.0824 N   0  0  0  0  0  0  0  0  0  0  0  0
   -7.9722   -2.6234   -1.2818 H   0  0  0  0  0  0  0  0  0  0  0  0
   -7.1900   -3.4788    0.0592 H   0  0  0  0  0  0  0  0  0  0  0  0
   -8.3364   -2.1719    0.4061 H   0  0  0  0  0  0  0  0  0  0  0  0
   -7.7005    0.0796   -1.0107 H   0  0  0  0  0  0  0  0  0  0  0  0
   -5.6308    2.8815   -0.4415 H   0  0  0  0  0  0  0  0  0  0  0  0
   -7.0655    2.3084   -1.2893 H   0  0  0  0  0  0  0  0  0  0  0  0
   -5.5201    2.3663   -2.1508 H   0  0  0  0  0  0  0  0  0  0  0  0
   -3.4535    2.7706   -1.2294 H   0  0  0  0  0  0  0  0  0  0  0  0
   -1.8768    2.6019   -0.6440 H   0  0  0  0  0  0  0  0  0  0  0  0
   -0.2491   -1.4886    0.9254 H   0  0  0  0  0  0  0  0  0  0  0  0
    2.2747   -0.2948    2.7742 H   0  0  0  0  0  0  0  0  0  0  0  0
    1.6084    1.2229    2.0785 H   0  0  0  0  0  0  0  0  0  0  0  0
    5.2582    2.2157   -0.1328 H   0  0  0  0  0  0  0  0  0  0  0  0
    7.4852    2.6759   -1.0245 H   0  0  0  0  0  0  0  0  0  0  0  0
    9.1013    0.8302   -1.4131 H   0  0  0  0  0  0  0  0  0  0  0  0
    8.4457   -1.5083   -0.8570 H   0  0  0  0  0  0  0  0  0  0  0  0
    3.9631   -2.1007    1.3876 H   0  0  0  0  0  0  0  0  0  0  0  0
    4.0633   -2.0509   -0.4164 H   0  0  0  0  0  0  0  0  0  0  0  0
  1  2  1  0
  2  3  2  0
  3  4  1  0
  4  5  1  0
  4  6  2  0
  6  7  1  0
  7  8  1  0
  7  9  2  0
  9 10  1  0
 10 11  2  0
 10 12  1  0
 12 13  1  0
 13 14  1  0
 14 15  1  0
 15 16  2  0
 15 17  1  0
 17 18  1  0
 18 19  2  0
 19 20  1  0
 20 21  2  0
 21 22  1  0
 22 23  2  0
 23 24  1  0
 17 25  1  0
 25 26  1  0
 26 27  2  0
  9 28  1  0
 28 29  1  0
 29 30  2  0
 30  2  1  0
 29  6  1  0
 26 13  1  0
 23 18  1  0
  1 31  1  0
  1 32  1  0
  1 33  1  0
  3 34  1  0
  5 35  1  0
  5 36  1  0
  5 37  1  0
  8 38  1  0
  8 39  1  0
 12 40  1  0
 14 41  1  0
 14 42  1  0
 19 43  1  0
 20 44  1  0
 21 45  1  0
 22 46  1  0
 25 47  1  0
 25 48  1  0
M  END
$$$$
