
     RDKit          3D

 54 56  0  0  0  0  0  0  0  0999 V2000
   -1.0369    1.7614    0.4568 O   0  0  0  0  0  0  0  0  0  0  0  0
   -0.4486    0.7381    0.1303 C   0  0  0  0  0  0  0  0  0  0  0  0
   -0.8092   -0.0552   -0.9381 N   0  0  0  0  0  0  0  0  0  0  0  0
   -1.9362    0.2644   -1.7982 C   0  0  0  0  0  0  0  0  0  0  0  0
   -3.0450   -0.7852   -1.7052 C   0  0  0  0  0  0  0  0  0  0  0  0
   -3.8258   -0.7458   -0.3849 C   0  0  0  0  0  0  0  0  0  0  0  0
   -4.5844    0.4958   -0.2082 N   0  0  0  0  0  0  0  0  0  0  0  0
   -5.8203    0.5656   -1.0139 C   0  0  0  0  0  0  0  0  0  0  0  0
   -7.1012    0.3252   -0.1976 C   0  0  0  0  0  0  0  0  0  0  0  0
   -7.2677    1.2482    0.8869 O   0  0  0  0  0  0  0  0  0  0  0  0
   -6.0215    1.7358    1.4061 C   0  0  0  0  0  0  0  0  0  0  0  0
   -4.8735    0.7348    1.2214 C   0  0  0  0  0  0  0  0  0  0  0  0
    0.7199    0.2799    0.9332 C   0  0  0  0  0  0  0  0  0  0  0  0
    0.7909    0.6675    2.2799 C   0  0  0  0  0  0  0  0  0  0  0  0
    1.8628    0.2661    3.0818 C   0  0  0  0  0  0  0  0  0  0  0  0
    2.8803   -0.5181    2.5415 C   0  0  0  0  0  0  0  0  0  0  0  0
    2.8205   -0.8822    1.1941 C   0  0  0  0  0  0  0  0  0  0  0  0
    4.1062   -1.8735    0.4787 S   0  0  0  0  0  6  0  0  0  0  0  0
    5.1090   -2.1309    1.4891 O   0  0  0  0  0  0  0  0  0  0  0  0
    3.4538   -2.9523   -0.2322 O   0  0  0  0  0  0  0  0  0  0  0  0
    4.7932   -0.8195   -0.6756 N   0  0  0  0  0  0  0  0  0  0  0  0
    5.7308   -1.5252   -1.6128 C   0  0  0  0  0  0  0  0  0  0  0  0
    6.2112   -0.5500   -2.6934 C   0  0  0  0  0  0  0  0  0  0  0  0
    6.8574    0.5937   -2.1164 O   0  0  0  0  0  0  0  0  0  0  0  0
    5.9564    1.2909   -1.2442 C   0  0  0  0  0  0  0  0  0  0  0  0
    5.4815    0.3847   -0.1023 C   0  0  0  0  0  0  0  0  0  0  0  0
    1.7487   -0.4902    0.3829 C   0  0  0  0  0  0  0  0  0  0  0  0
   -0.3357   -0.9314   -1.1024 H   0  0  0  0  0  0  0  0  0  0  0  0
   -2.3140    1.2703   -1.5896 H   0  0  0  0  0  0  0  0  0  0  0  0
   -1.5384    0.2682   -2.8192 H   0  0  0  0  0  0  0  0  0  0  0  0
   -3.7283   -0.6521   -2.5517 H   0  0  0  0  0  0  0  0  0  0  0  0
   -2.6070   -1.7856   -1.8178 H   0  0  0  0  0  0  0  0  0  0  0  0
   -4.4962   -1.6126   -0.3285 H   0  0  0  0  0  0  0  0  0  0  0  0
   -3.1029   -0.8635    0.4324 H   0  0  0  0  0  0  0  0  0  0  0  0
   -5.8673    1.5786   -1.4331 H   0  0  0  0  0  0  0  0  0  0  0  0
   -5.7971   -0.1205   -1.8674 H   0  0  0  0  0  0  0  0  0  0  0  0
   -7.1102   -0.6917    0.2142 H   0  0  0  0  0  0  0  0  0  0  0  0
   -7.9804    0.4203   -0.8438 H   0  0  0  0  0  0  0  0  0  0  0  0
   -6.1719    1.9452    2.4702 H   0  0  0  0  0  0  0  0  0  0  0  0
   -5.7942    2.6892    0.9153 H   0  0  0  0  0  0  0  0  0  0  0  0
   -3.9702    1.1124    1.7132 H   0  0  0  0  0  0  0  0  0  0  0  0
   -5.1589   -0.2049    1.7110 H   0  0  0  0  0  0  0  0  0  0  0  0
    0.0008    1.2824    2.7098 H   0  0  0  0  0  0  0  0  0  0  0  0
    1.9000    0.5670    4.1263 H   0  0  0  0  0  0  0  0  0  0  0  0
    3.7097   -0.8342    3.1711 H   0  0  0  0  0  0  0  0  0  0  0  0
    5.2188   -2.3632   -2.0958 H   0  0  0  0  0  0  0  0  0  0  0  0
    6.5901   -1.9034   -1.0464 H   0  0  0  0  0  0  0  0  0  0  0  0
    6.9369   -1.0462   -3.3449 H   0  0  0  0  0  0  0  0  0  0  0  0
    5.3768   -0.2112   -3.3186 H   0  0  0  0  0  0  0  0  0  0  0  0
    5.1092    1.6653   -1.8308 H   0  0  0  0  0  0  0  0  0  0  0  0
    6.4907    2.1545   -0.8367 H   0  0  0  0  0  0  0  0  0  0  0  0
    6.3436    0.0614    0.4921 H   0  0  0  0  0  0  0  0  0  0  0  0
    4.7956    0.9502    0.5345 H   0  0  0  0  0  0  0  0  0  0  0  0
    1.7482   -0.7682   -0.6663 H   0  0  0  0  0  0  0  0  0  0  0  0
  1  2  2  0
  2  3  1  0
  3  4  1  0
  4  5  1  0
  5  6  1  0
  6  7  1  0
  7  8  1  0
  8  9  1  0
  9 10  1  0
 10 11  1  0
 11 12  1  0
  2 13  1  0
 13 14  2  0
 14 15  1  0
 15 16  2  0
 16 17  1  0
 17 18  1  0
 18 19  2  0
 18 20  2  0
 18 21  1  0
 21 22  1  0
 22 23  1  0
 23 24  1  0
 24 25  1  0
 25 26  1  0
 17 27  2  0
 12  7  1  0
 27 13  1  0
 26 21  1  0
  3 28  1  0
  4 29  1  0
  4 30  1  0
  5 31  1  0
  5 32  1  0
  6 33  1  0
  6 34  1  0
  8 35  1  0
  8 36  1  0
  9 37  1  0
  9 38  1  0
 11 39  1  0
 11 40  1  0
 12 41  1  0
 12 42  1  0
 14 43  1  0
 15 44  1  0
 16 45  1  0
 22 46  1  0
 22 47  1  0
 23 48  1  0
 23 49  1  0
 25 50  1  0
 25 51  1  0
 26 52  1  0
 26 53  1  0
 27 54  1  0
M  END
$$$$
