
     RDKit          3D

 54 57  0  0  0  0  0  0  0  0999 V2000
   -3.1213   -4.2351   -3.3314 C   0  0  0  0  0  0  0  0  0  0  0  0
   -2.5218   -4.0280   -2.0589 O   0  0  0  0  0  0  0  0  0  0  0  0
   -2.6809   -2.7922   -1.4952 C   0  0  0  0  0  0  0  0  0  0  0  0
   -2.0450   -2.6264   -0.2631 C   0  0  0  0  0  0  0  0  0  0  0  0
   -2.1263   -1.4124    0.4246 C   0  0  0  0  0  0  0  0  0  0  0  0
   -2.8494   -0.3417   -0.1124 C   0  0  0  0  0  0  0  0  0  0  0  0
   -2.9229    0.9389    0.6024 C   0  0  0  0  0  0  0  0  0  0  0  0
   -4.4529    1.4786    1.1479 S   0  0  0  0  0  0  0  0  0  0  0  0
   -3.8031    2.9013    1.8559 C   0  0  0  0  0  0  0  0  0  0  0  0
   -4.5181    3.9071    2.5369 C   0  0  0  0  0  0  0  0  0  0  0  0
   -3.8249    5.0066    3.0466 C   0  0  0  0  0  0  0  0  0  0  0  0
   -2.4518    5.1089    2.8834 C   0  0  0  0  0  0  0  0  0  0  0  0
   -1.7472    4.1079    2.2083 C   0  0  0  0  0  0  0  0  0  0  0  0
   -2.4198    2.9733    1.6823 C   0  0  0  0  0  0  0  0  0  0  0  0
   -1.9170    1.8251    0.9583 C   0  0  0  0  0  0  0  0  0  0  0  0
   -0.5195    1.5835    0.6138 C   0  0  0  0  0  0  0  0  0  0  0  0
    0.4083    1.2940    1.6201 C   0  0  0  0  0  0  0  0  0  0  0  0
    1.7512    1.0593    1.3012 C   0  0  0  0  0  0  0  0  0  0  0  0
    2.1769    1.1138   -0.0257 C   0  0  0  0  0  0  0  0  0  0  0  0
    3.4487    0.9122   -0.4804 O   0  0  0  0  0  0  0  0  0  0  0  0
    4.4378    0.4022    0.4154 C   0  0  0  0  0  0  0  0  0  0  0  0
    4.3337   -1.1245    0.6176 C   0  0  0  0  0  0  0  0  0  0  0  0
    4.4578   -1.9384   -0.6097 N   0  0  0  0  0  0  0  0  0  0  0  0
    5.7842   -1.8363   -1.2156 C   0  0  0  0  0  0  0  0  0  0  0  0
    4.1423   -3.3387   -0.3221 C   0  0  0  0  0  0  0  0  0  0  0  0
    1.2489    1.4150   -1.0268 C   0  0  0  0  0  0  0  0  0  0  0  0
   -0.0925    1.6484   -0.7144 C   0  0  0  0  0  0  0  0  0  0  0  0
   -3.4851   -0.5114   -1.3496 C   0  0  0  0  0  0  0  0  0  0  0  0
   -3.4028   -1.7291   -2.0369 C   0  0  0  0  0  0  0  0  0  0  0  0
   -2.8907   -5.2571   -3.6471 H   0  0  0  0  0  0  0  0  0  0  0  0
   -2.7049   -3.5534   -4.0804 H   0  0  0  0  0  0  0  0  0  0  0  0
   -4.2109   -4.1425   -3.2738 H   0  0  0  0  0  0  0  0  0  0  0  0
   -1.4775   -3.4489    0.1649 H   0  0  0  0  0  0  0  0  0  0  0  0
   -1.6203   -1.3114    1.3815 H   0  0  0  0  0  0  0  0  0  0  0  0
   -5.5946    3.8305    2.6625 H   0  0  0  0  0  0  0  0  0  0  0  0
   -4.3686    5.7882    3.5719 H   0  0  0  0  0  0  0  0  0  0  0  0
   -1.9188    5.9703    3.2783 H   0  0  0  0  0  0  0  0  0  0  0  0
   -0.6712    4.2058    2.0822 H   0  0  0  0  0  0  0  0  0  0  0  0
    0.0908    1.2430    2.6593 H   0  0  0  0  0  0  0  0  0  0  0  0
    2.4307    0.8381    2.1157 H   0  0  0  0  0  0  0  0  0  0  0  0
    4.4179    0.9293    1.3760 H   0  0  0  0  0  0  0  0  0  0  0  0
    5.4121    0.6542   -0.0171 H   0  0  0  0  0  0  0  0  0  0  0  0
    3.3544   -1.3334    1.0643 H   0  0  0  0  0  0  0  0  0  0  0  0
    5.0899   -1.4327    1.3513 H   0  0  0  0  0  0  0  0  0  0  0  0
    5.9843   -0.8188   -1.5647 H   0  0  0  0  0  0  0  0  0  0  0  0
    5.8527   -2.4761   -2.1031 H   0  0  0  0  0  0  0  0  0  0  0  0
    6.5790   -2.1306   -0.5207 H   0  0  0  0  0  0  0  0  0  0  0  0
    3.1234   -3.4331    0.0700 H   0  0  0  0  0  0  0  0  0  0  0  0
    4.8352   -3.7765    0.4057 H   0  0  0  0  0  0  0  0  0  0  0  0
    4.1786   -3.9390   -1.2381 H   0  0  0  0  0  0  0  0  0  0  0  0
    1.5743    1.4586   -2.0635 H   0  0  0  0  0  0  0  0  0  0  0  0
   -0.7942    1.8757   -1.5127 H   0  0  0  0  0  0  0  0  0  0  0  0
   -4.0464    0.3080   -1.7935 H   0  0  0  0  0  0  0  0  0  0  0  0
   -3.9127   -1.8098   -2.9907 H   0  0  0  0  0  0  0  0  0  0  0  0
  1  2  1  0
  2  3  1  0
  3  4  2  0
  4  5  1  0
  5  6  2  0
  6  7  1  0
  7  8  1  0
  8  9  1  0
  9 10  2  0
 10 11  1  0
 11 12  2  0
 12 13  1  0
 13 14  2  0
 14 15  1  0
 15 16  1  0
 16 17  2  0
 17 18  1  0
 18 19  2  0
 19 20  1  0
 20 21  1  0
 21 22  1  0
 22 23  1  0
 23 24  1  0
 23 25  1  0
 19 26  1  0
 26 27  2  0
  6 28  1  0
 28 29  2  0
 29  3  1  0
 15  7  2  0
 27 16  1  0
 14  9  1  0
  1 30  1  0
  1 31  1  0
  1 32  1  0
  4 33  1  0
  5 34  1  0
 10 35  1  0
 11 36  1  0
 12 37  1  0
 13 38  1  0
 17 39  1  0
 18 40  1  0
 21 41  1  0
 21 42  1  0
 22 43  1  0
 22 44  1  0
 24 45  1  0
 24 46  1  0
 24 47  1  0
 25 48  1  0
 25 49  1  0
 25 50  1  0
 26 51  1  0
 27 52  1  0
 28 53  1  0
 29 54  1  0
M  END
$$$$
