
     RDKit          3D

 36 37  0  0  0  0  0  0  0  0999 V2000
   -2.2940    2.6199    1.1717 C   0  0  0  0  0  0  0  0  0  0  0  0
   -2.5588    1.4290    0.3866 N   0  0  0  0  0  0  0  0  0  0  0  0
   -3.7079    1.3992   -0.3894 C   0  0  0  0  0  0  0  0  0  0  0  0
   -4.5260    2.3162   -0.4329 O   0  0  0  0  0  0  0  0  0  0  0  0
   -3.9288    0.1743   -1.1862 C   0  0  0  0  0  0  0  0  0  0  0  0
   -5.0405    0.0844   -2.0623 C   0  0  0  0  0  0  0  0  0  0  0  0
   -5.9253   -0.0583   -2.8000 N   0  0  0  0  0  0  0  0  0  0  0  0
   -3.0612   -0.8334   -1.0578 C   0  0  0  0  0  0  0  0  0  0  0  0
   -1.9778   -0.7776   -0.2080 N   0  0  0  0  0  0  0  0  0  0  0  0
   -1.0399   -1.9150   -0.1745 C   0  0  0  0  0  0  0  0  0  0  0  0
   -0.0775   -1.9417   -1.3825 C   0  0  0  0  0  0  0  0  0  0  0  0
    0.6668   -0.6940   -1.5386 N   0  0  0  0  0  0  0  0  0  0  0  0
    1.7554   -0.5020   -0.6689 C   0  0  0  0  0  0  0  0  0  0  0  0
    2.0534   -1.4634    0.2360 N   0  0  0  0  0  0  0  0  0  0  0  0
    3.0632   -1.2340    1.1096 C   0  0  0  0  0  0  0  0  0  0  0  0
    3.8341   -0.0828    1.1242 C   0  0  0  0  0  0  0  0  0  0  0  0
    4.9147    0.0887    2.1440 C   0  0  0  0  0  0  0  0  0  0  0  0
    4.4515    0.6077    3.3124 F   0  0  0  0  0  0  0  0  0  0  0  0
    5.5274   -1.0829    2.4701 F   0  0  0  0  0  0  0  0  0  0  0  0
    5.9086    0.9228    1.7304 F   0  0  0  0  0  0  0  0  0  0  0  0
    3.5307    0.9032    0.1836 C   0  0  0  0  0  0  0  0  0  0  0  0
    2.4872    0.6957   -0.7183 C   0  0  0  0  0  0  0  0  0  0  0  0
    2.1358    1.9321   -1.8731 Cl  0  0  0  0  0  0  0  0  0  0  0  0
   -1.6900    0.3500    0.5657 C   0  0  0  0  0  0  0  0  0  0  0  0
   -0.7603    0.3924    1.3717 O   0  0  0  0  0  0  0  0  0  0  0  0
   -1.2201    2.8322    1.1861 H   0  0  0  0  0  0  0  0  0  0  0  0
   -2.8180    3.4935    0.7743 H   0  0  0  0  0  0  0  0  0  0  0  0
   -2.6295    2.4382    2.1977 H   0  0  0  0  0  0  0  0  0  0  0  0
   -3.1837   -1.7527   -1.6266 H   0  0  0  0  0  0  0  0  0  0  0  0
   -0.4766   -1.8938    0.7639 H   0  0  0  0  0  0  0  0  0  0  0  0
   -1.6281   -2.8412   -0.1580 H   0  0  0  0  0  0  0  0  0  0  0  0
    0.5887   -2.8115   -1.3292 H   0  0  0  0  0  0  0  0  0  0  0  0
   -0.6732   -2.0773   -2.2935 H   0  0  0  0  0  0  0  0  0  0  0  0
    0.9687   -0.5107   -2.4921 H   0  0  0  0  0  0  0  0  0  0  0  0
    3.2333   -2.0389    1.8226 H   0  0  0  0  0  0  0  0  0  0  0  0
    4.0977    1.8314    0.1585 H   0  0  0  0  0  0  0  0  0  0  0  0
  1  2  1  0
  2  3  1  0
  3  4  2  0
  3  5  1  0
  5  6  1  0
  6  7  3  0
  5  8  2  0
  8  9  1  0
  9 10  1  0
 10 11  1  0
 11 12  1  0
 12 13  1  0
 13 14  2  0
 14 15  1  0
 15 16  2  0
 16 17  1  0
 17 18  1  0
 17 19  1  0
 17 20  1  0
 16 21  1  0
 21 22  2  0
 22 23  1  0
  9 24  1  0
 24 25  2  0
 24  2  1  0
 22 13  1  0
  1 26  1  0
  1 27  1  0
  1 28  1  0
  8 29  1  0
 10 30  1  0
 10 31  1  0
 11 32  1  0
 11 33  1  0
 12 34  1  0
 15 35  1  0
 21 36  1  0
M  END
$$$$
