
     RDKit          3D

 50 50  0  0  0  0  0  0  0  0999 V2000
    8.1267    1.0597    0.9869 C   0  0  0  0  0  0  0  0  0  0  0  0
    6.8106    1.1116    1.2681 C   0  0  0  0  0  0  0  0  0  0  0  0
    6.0313    2.3869    1.0877 C   0  0  0  0  0  0  0  0  0  0  0  0
    6.0405   -0.0620    1.8317 C   0  0  0  0  0  0  0  0  0  0  0  0
    6.0650   -1.5156    0.7514 S   0  0  0  0  0  0  0  0  0  0  0  0
    4.9743   -1.0412   -0.5116 C   0  0  0  0  0  0  0  0  0  0  0  0
    4.8954   -1.6555   -1.6765 N   0  0  0  0  0  0  0  0  0  0  0  0
    3.9243   -1.0035   -2.4098 N   0  0  0  0  0  0  0  0  0  0  0  0
    3.4699   -0.0416   -1.6360 C   0  0  0  0  0  0  0  0  0  0  0  0
    2.4315    0.9782   -1.9101 C   0  0  0  0  0  0  0  0  0  0  0  0
    1.0200    0.3910   -1.9138 C   0  0  0  0  0  0  0  0  0  0  0  0
    0.5485   -0.0445   -0.5225 C   0  0  0  0  0  0  0  0  0  0  0  0
   -0.9010   -0.5308   -0.5612 C   0  0  0  0  0  0  0  0  0  0  0  0
   -1.3855   -0.9609    0.8215 C   0  0  0  0  0  0  0  0  0  0  0  0
   -2.7593   -1.4022    0.7860 N   0  0  0  0  0  0  0  0  0  0  0  0
   -3.8137   -0.5411    0.8008 C   0  0  0  0  0  0  0  0  0  0  0  0
   -3.7257    0.6698    0.9198 O   0  0  0  0  0  0  0  0  0  0  0  0
   -4.9543   -1.2523    0.6498 O   0  0  0  0  0  0  0  0  0  0  0  0
   -6.2417   -0.5844    0.6013 C   0  0  0  0  0  0  0  0  0  0  0  0
   -6.5483    0.1339    1.9202 C   0  0  0  0  0  0  0  0  0  0  0  0
   -6.3342    0.3624   -0.6010 C   0  0  0  0  0  0  0  0  0  0  0  0
   -7.2620   -1.7177    0.4100 C   0  0  0  0  0  0  0  0  0  0  0  0
    4.0760   -0.0087   -0.4099 O   0  0  0  0  0  0  0  0  0  0  0  0
    8.7074    0.1503    1.1275 H   0  0  0  0  0  0  0  0  0  0  0  0
    8.6621    1.9242    0.6008 H   0  0  0  0  0  0  0  0  0  0  0  0
    5.2212    2.2462    0.3647 H   0  0  0  0  0  0  0  0  0  0  0  0
    6.6615    3.2041    0.7199 H   0  0  0  0  0  0  0  0  0  0  0  0
    5.5956    2.7031    2.0418 H   0  0  0  0  0  0  0  0  0  0  0  0
    5.0026    0.2136    2.0551 H   0  0  0  0  0  0  0  0  0  0  0  0
    6.4906   -0.3475    2.7900 H   0  0  0  0  0  0  0  0  0  0  0  0
    2.4976    1.7952   -1.1822 H   0  0  0  0  0  0  0  0  0  0  0  0
    2.6342    1.4174   -2.8942 H   0  0  0  0  0  0  0  0  0  0  0  0
    0.9673   -0.4605   -2.6033 H   0  0  0  0  0  0  0  0  0  0  0  0
    0.3324    1.1544   -2.2985 H   0  0  0  0  0  0  0  0  0  0  0  0
    1.1908   -0.8464   -0.1415 H   0  0  0  0  0  0  0  0  0  0  0  0
    0.6325    0.7982    0.1730 H   0  0  0  0  0  0  0  0  0  0  0  0
   -1.5458    0.2682   -0.9483 H   0  0  0  0  0  0  0  0  0  0  0  0
   -0.9924   -1.3723   -1.2594 H   0  0  0  0  0  0  0  0  0  0  0  0
   -0.7860   -1.7968    1.1969 H   0  0  0  0  0  0  0  0  0  0  0  0
   -1.3013   -0.1304    1.5315 H   0  0  0  0  0  0  0  0  0  0  0  0
   -2.9838   -2.3734    0.6160 H   0  0  0  0  0  0  0  0  0  0  0  0
   -6.4065   -0.5411    2.7706 H   0  0  0  0  0  0  0  0  0  0  0  0
   -7.5780    0.5075    1.9405 H   0  0  0  0  0  0  0  0  0  0  0  0
   -5.8871    0.9887    2.0847 H   0  0  0  0  0  0  0  0  0  0  0  0
   -7.3545    0.7381   -0.7361 H   0  0  0  0  0  0  0  0  0  0  0  0
   -6.0275   -0.1472   -1.5209 H   0  0  0  0  0  0  0  0  0  0  0  0
   -5.6779    1.2309   -0.4910 H   0  0  0  0  0  0  0  0  0  0  0  0
   -8.2891   -1.3391    0.3644 H   0  0  0  0  0  0  0  0  0  0  0  0
   -7.1964   -2.4445    1.2281 H   0  0  0  0  0  0  0  0  0  0  0  0
   -7.0578   -2.2723   -0.5131 H   0  0  0  0  0  0  0  0  0  0  0  0
  1  2  2  0
  2  3  1  0
  2  4  1  0
  4  5  1  0
  5  6  1  0
  6  7  2  0
  7  8  1  0
  8  9  2  0
  9 10  1  0
 10 11  1  0
 11 12  1  0
 12 13  1  0
 13 14  1  0
 14 15  1  0
 15 16  1  0
 16 17  2  0
 16 18  1  0
 18 19  1  0
 19 20  1  0
 19 21  1  0
 19 22  1  0
  9 23  1  0
 23  6  1  0
  1 24  1  0
  1 25  1  0
  3 26  1  0
  3 27  1  0
  3 28  1  0
  4 29  1  0
  4 30  1  0
 10 31  1  0
 10 32  1  0
 11 33  1  0
 11 34  1  0
 12 35  1  0
 12 36  1  0
 13 37  1  0
 13 38  1  0
 14 39  1  0
 14 40  1  0
 15 41  1  0
 20 42  1  0
 20 43  1  0
 20 44  1  0
 21 45  1  0
 21 46  1  0
 21 47  1  0
 22 48  1  0
 22 49  1  0
 22 50  1  0
M  END
$$$$
