
     RDKit          3D

 49 51  0  0  0  0  0  0  0  0999 V2000
   -8.4233    0.6212   -0.2033 C   0  0  0  0  0  0  0  0  0  0  0  0
   -7.5500   -0.6078   -0.1680 C   0  0  0  0  0  0  0  0  0  0  0  0
   -8.0448   -1.7266   -0.3026 O   0  0  0  0  0  0  0  0  0  0  0  0
   -6.1954   -0.4083    0.0276 N   0  0  0  0  0  0  0  0  0  0  0  0
   -5.2921   -1.5608    0.0103 C   0  0  0  0  0  0  0  0  0  0  0  0
   -3.9055   -1.2251   -0.5687 C   0  0  0  0  0  0  0  0  0  0  0  0
   -3.2831   -0.0723    0.1117 N   0  0  0  0  0  0  0  0  0  0  0  0
   -1.9033    0.0385    0.1850 C   0  0  0  0  0  0  0  0  0  0  0  0
   -1.2605    0.7575    1.2017 C   0  0  0  0  0  0  0  0  0  0  0  0
    0.1398    0.8773    1.2747 C   0  0  0  0  0  0  0  0  0  0  0  0
    0.9542    0.2839    0.3203 C   0  0  0  0  0  0  0  0  0  0  0  0
    2.3642    0.3273    0.2827 N   0  0  0  0  0  0  0  0  0  0  0  0
    3.3202    0.9604    1.0400 C   0  0  0  0  0  0  0  0  0  0  0  0
    3.1588    2.0099    2.3285 S   0  0  0  0  0  0  0  0  0  0  0  0
    4.6291    0.6790    0.6669 N   0  0  0  0  0  0  0  0  0  0  0  0
    5.0944   -0.1289   -0.3631 C   0  0  0  0  0  0  0  0  0  0  0  0
    4.3599   -0.6650   -1.1887 O   0  0  0  0  0  0  0  0  0  0  0  0
    6.5706   -0.2843   -0.4593 C   0  0  0  0  0  0  0  0  0  0  0  0
    7.3947   -0.2692    0.6740 C   0  0  0  0  0  0  0  0  0  0  0  0
    8.7763   -0.4199    0.5319 C   0  0  0  0  0  0  0  0  0  0  0  0
    9.3354   -0.5939   -0.7341 C   0  0  0  0  0  0  0  0  0  0  0  0
    8.5166   -0.6273   -1.8621 C   0  0  0  0  0  0  0  0  0  0  0  0
    7.1357   -0.4782   -1.7260 C   0  0  0  0  0  0  0  0  0  0  0  0
    0.3323   -0.4388   -0.7019 C   0  0  0  0  0  0  0  0  0  0  0  0
   -1.0646   -0.5549   -0.7666 C   0  0  0  0  0  0  0  0  0  0  0  0
   -4.1693    0.8117    0.8835 C   0  0  0  0  0  0  0  0  0  0  0  0
   -5.5699    0.8997    0.2468 C   0  0  0  0  0  0  0  0  0  0  0  0
   -9.4208    0.3448   -0.5587 H   0  0  0  0  0  0  0  0  0  0  0  0
   -8.0169    1.3654   -0.8930 H   0  0  0  0  0  0  0  0  0  0  0  0
   -8.5157    1.0409    0.8016 H   0  0  0  0  0  0  0  0  0  0  0  0
   -5.1907   -1.8940    1.0505 H   0  0  0  0  0  0  0  0  0  0  0  0
   -5.7366   -2.3861   -0.5561 H   0  0  0  0  0  0  0  0  0  0  0  0
   -3.2832   -2.1230   -0.4719 H   0  0  0  0  0  0  0  0  0  0  0  0
   -4.0044   -0.9895   -1.6352 H   0  0  0  0  0  0  0  0  0  0  0  0
   -1.8348    1.2310    1.9932 H   0  0  0  0  0  0  0  0  0  0  0  0
    0.5347    1.4375    2.1108 H   0  0  0  0  0  0  0  0  0  0  0  0
    2.7700   -0.2073   -0.4883 H   0  0  0  0  0  0  0  0  0  0  0  0
    5.3076    1.1765    1.2268 H   0  0  0  0  0  0  0  0  0  0  0  0
    6.9840   -0.1730    1.6752 H   0  0  0  0  0  0  0  0  0  0  0  0
    9.4184   -0.4129    1.4099 H   0  0  0  0  0  0  0  0  0  0  0  0
   10.4111   -0.7143   -0.8413 H   0  0  0  0  0  0  0  0  0  0  0  0
    8.9525   -0.7738   -2.8476 H   0  0  0  0  0  0  0  0  0  0  0  0
    6.5025   -0.5112   -2.6108 H   0  0  0  0  0  0  0  0  0  0  0  0
    0.9234   -0.9213   -1.4776 H   0  0  0  0  0  0  0  0  0  0  0  0
   -1.4821   -1.1070   -1.6040 H   0  0  0  0  0  0  0  0  0  0  0  0
   -4.2536    0.4310    1.9088 H   0  0  0  0  0  0  0  0  0  0  0  0
   -3.7669    1.8306    0.9276 H   0  0  0  0  0  0  0  0  0  0  0  0
   -6.2195    1.5171    0.8750 H   0  0  0  0  0  0  0  0  0  0  0  0
   -5.4995    1.3810   -0.7363 H   0  0  0  0  0  0  0  0  0  0  0  0
  1  2  1  0
  2  3  2  0
  2  4  1  0
  4  5  1  0
  5  6  1  0
  6  7  1  0
  7  8  1  0
  8  9  2  0
  9 10  1  0
 10 11  2  0
 11 12  1  0
 12 13  1  0
 13 14  2  0
 13 15  1  0
 15 16  1  0
 16 17  2  0
 16 18  1  0
 18 19  2  0
 19 20  1  0
 20 21  2  0
 21 22  1  0
 22 23  2  0
 11 24  1  0
 24 25  2  0
  7 26  1  0
 26 27  1  0
 27  4  1  0
 25  8  1  0
 23 18  1  0
  1 28  1  0
  1 29  1  0
  1 30  1  0
  5 31  1  0
  5 32  1  0
  6 33  1  0
  6 34  1  0
  9 35  1  0
 10 36  1  0
 12 37  1  0
 15 38  1  0
 19 39  1  0
 20 40  1  0
 21 41  1  0
 22 42  1  0
 23 43  1  0
 24 44  1  0
 25 45  1  0
 26 46  1  0
 26 47  1  0
 27 48  1  0
 27 49  1  0
M  END
$$$$
