
     RDKit          3D

 32 33  0  0  0  0  0  0  0  0999 V2000
   -1.1059   -0.0156    3.4296 N   0  0  0  0  0  0  0  0  0  0  0  0
   -1.4917   -0.1900    2.3489 C   0  0  0  0  0  0  0  0  0  0  0  0
   -1.9628   -0.3744    1.0044 C   0  0  0  0  0  0  0  0  0  0  0  0
   -3.2637    0.0665    0.7051 C   0  0  0  0  0  0  0  0  0  0  0  0
   -3.7678   -0.0921   -0.5879 C   0  0  0  0  0  0  0  0  0  0  0  0
   -5.1257    0.3665   -0.9057 N   0  0  0  0  0  4  0  0  0  0  0  0
   -5.7790    0.8970    0.0031 O   0  0  0  0  0  0  0  0  0  0  0  0
   -5.5335    0.1998   -2.0633 O   0  0  0  0  0  1  0  0  0  0  0  0
   -2.9878   -0.6923   -1.5767 C   0  0  0  0  0  0  0  0  0  0  0  0
   -1.6931   -1.1279   -1.2677 C   0  0  0  0  0  0  0  0  0  0  0  0
   -1.1369   -0.9582    0.0125 C   0  0  0  0  0  0  0  0  0  0  0  0
    0.1270   -1.4559    0.3330 N   0  0  0  0  0  0  0  0  0  0  0  0
    1.1696   -1.7222   -0.6668 C   0  0  0  0  0  0  0  0  0  0  0  0
    1.7495   -0.4444   -1.2798 C   0  0  0  0  0  0  0  0  0  0  0  0
    2.5169    0.3685   -0.2699 C   0  0  0  0  0  0  0  0  0  0  0  0
    1.9448    1.4918    0.3226 C   0  0  0  0  0  0  0  0  0  0  0  0
    2.6761    2.1933    1.2765 C   0  0  0  0  0  0  0  0  0  0  0  0
    3.9526    1.7592    1.6108 C   0  0  0  0  0  0  0  0  0  0  0  0
    4.4472    0.6343    0.9741 C   0  0  0  0  0  0  0  0  0  0  0  0
    3.7595   -0.0689    0.0471 N   0  0  0  0  0  0  0  0  0  0  0  0
   -3.8699    0.5236    1.4870 H   0  0  0  0  0  0  0  0  0  0  0  0
   -3.3677   -0.8421   -2.5861 H   0  0  0  0  0  0  0  0  0  0  0  0
   -1.1321   -1.6179   -2.0594 H   0  0  0  0  0  0  0  0  0  0  0  0
    0.5319   -1.0987    1.2001 H   0  0  0  0  0  0  0  0  0  0  0  0
    0.7892   -2.3821   -1.4539 H   0  0  0  0  0  0  0  0  0  0  0  0
    1.9661   -2.2892   -0.1689 H   0  0  0  0  0  0  0  0  0  0  0  0
    0.9661    0.1672   -1.7418 H   0  0  0  0  0  0  0  0  0  0  0  0
    2.4389   -0.7202   -2.0877 H   0  0  0  0  0  0  0  0  0  0  0  0
    0.9446    1.8167    0.0556 H   0  0  0  0  0  0  0  0  0  0  0  0
    2.2516    3.0698    1.7580 H   0  0  0  0  0  0  0  0  0  0  0  0
    4.5468    2.2831    2.3509 H   0  0  0  0  0  0  0  0  0  0  0  0
    5.4394    0.2546    1.2009 H   0  0  0  0  0  0  0  0  0  0  0  0
  1  2  3  0
  2  3  1  0
  3  4  2  0
  4  5  1  0
  5  6  1  0
  6  7  2  0
  6  8  1  0
  5  9  2  0
  9 10  1  0
 10 11  2  0
 11 12  1  0
 12 13  1  0
 13 14  1  0
 14 15  1  0
 15 16  2  0
 16 17  1  0
 17 18  2  0
 18 19  1  0
 19 20  2  0
 11  3  1  0
 20 15  1  0
  4 21  1  0
  9 22  1  0
 10 23  1  0
 12 24  1  0
 13 25  1  0
 13 26  1  0
 14 27  1  0
 14 28  1  0
 16 29  1  0
 17 30  1  0
 18 31  1  0
 19 32  1  0
M  CHG  2   6   1   8  -1
M  END
$$$$
