
     RDKit          3D

 40 41  0  0  0  0  0  0  0  0999 V2000
   -3.0195   -0.6580    2.7460 C   0  0  0  0  0  0  0  0  0  0  0  0
   -3.7748    0.2320    1.8259 C   0  0  0  0  0  0  0  0  0  0  0  0
   -5.0403    0.5608    2.1103 N   0  0  0  0  0  0  0  0  0  0  0  0
   -5.4121    1.3610    1.1017 N   0  0  0  0  0  0  0  0  0  0  0  0
   -6.7487    1.9105    1.1024 C   0  0  0  0  0  0  0  0  0  0  0  0
   -4.4331    1.5494    0.1583 C   0  0  0  0  0  0  0  0  0  0  0  0
   -4.6404    2.3883   -1.0498 C   0  0  0  0  0  0  0  0  0  0  0  0
   -3.3354    0.8285    0.6103 C   0  0  0  0  0  0  0  0  0  0  0  0
   -2.0506    0.7346   -0.0454 C   0  0  0  0  0  0  0  0  0  0  0  0
   -1.1134    0.0181    0.4833 N   0  0  0  0  0  0  0  0  0  0  0  0
    0.0699   -0.0203   -0.1931 N   0  0  0  0  0  0  0  0  0  0  0  0
    1.1154   -0.7879    0.3019 C   0  0  0  0  0  0  0  0  0  0  0  0
    1.0856   -1.4554    1.3311 O   0  0  0  0  0  0  0  0  0  0  0  0
    2.3442   -0.6972   -0.5698 C   0  0  0  0  0  0  0  0  0  0  0  0
    3.4195   -1.6578   -0.0827 C   0  0  0  0  0  0  0  0  0  0  0  0
    4.6475   -1.5326   -0.8480 N   0  0  0  0  0  0  0  0  0  0  0  0
    5.8837   -1.2105   -0.3656 C   0  0  0  0  0  0  0  0  0  0  0  0
    6.7263   -1.2240   -1.4585 C   0  0  0  0  0  0  0  0  0  0  0  0
    8.1289   -0.9549   -1.4733 N   0  0  0  0  0  4  0  0  0  0  0  0
    8.6952   -1.0121   -2.5718 O   0  0  0  0  0  0  0  0  0  0  0  0
    8.6633   -0.6820   -0.3913 O   0  0  0  0  0  1  0  0  0  0  0  0
    5.9044   -1.5584   -2.5482 C   0  0  0  0  0  0  0  0  0  0  0  0
    4.6306   -1.7408   -2.1816 N   0  0  0  0  0  0  0  0  0  0  0  0
   -3.6312   -0.9594    3.6031 H   0  0  0  0  0  0  0  0  0  0  0  0
   -2.1328   -0.1466    3.1339 H   0  0  0  0  0  0  0  0  0  0  0  0
   -2.7031   -1.5680    2.2266 H   0  0  0  0  0  0  0  0  0  0  0  0
   -7.1997    1.7722    2.0887 H   0  0  0  0  0  0  0  0  0  0  0  0
   -6.6905    2.9777    0.8748 H   0  0  0  0  0  0  0  0  0  0  0  0
   -7.3335    1.3836    0.3447 H   0  0  0  0  0  0  0  0  0  0  0  0
   -5.5993    2.1609   -1.5267 H   0  0  0  0  0  0  0  0  0  0  0  0
   -4.6286    3.4496   -0.7818 H   0  0  0  0  0  0  0  0  0  0  0  0
   -3.8592    2.2194   -1.7963 H   0  0  0  0  0  0  0  0  0  0  0  0
   -1.9082    1.2871   -0.9892 H   0  0  0  0  0  0  0  0  0  0  0  0
    0.1674    0.4874   -1.0660 H   0  0  0  0  0  0  0  0  0  0  0  0
    2.7131    0.3352   -0.5426 H   0  0  0  0  0  0  0  0  0  0  0  0
    2.0602   -0.9291   -1.6032 H   0  0  0  0  0  0  0  0  0  0  0  0
    3.6666   -1.4737    0.9696 H   0  0  0  0  0  0  0  0  0  0  0  0
    3.0938   -2.7009   -0.1721 H   0  0  0  0  0  0  0  0  0  0  0  0
    6.0630   -1.0111    0.6827 H   0  0  0  0  0  0  0  0  0  0  0  0
    6.1758   -1.6754   -3.5905 H   0  0  0  0  0  0  0  0  0  0  0  0
  1  2  1  0
  2  3  2  0
  3  4  1  0
  4  5  1  0
  4  6  1  0
  6  7  1  0
  6  8  2  0
  8  9  1  0
  9 10  2  3
 10 11  1  0
 11 12  1  0
 12 13  2  0
 12 14  1  0
 14 15  1  0
 15 16  1  0
 16 17  1  0
 17 18  2  0
 18 19  1  0
 19 20  2  0
 19 21  1  0
 18 22  1  0
 22 23  2  0
  8  2  1  0
 23 16  1  0
  1 24  1  0
  1 25  1  0
  1 26  1  0
  5 27  1  0
  5 28  1  0
  5 29  1  0
  7 30  1  0
  7 31  1  0
  7 32  1  0
  9 33  1  0
 11 34  1  0
 14 35  1  0
 14 36  1  0
 15 37  1  0
 15 38  1  0
 17 39  1  0
 22 40  1  0
M  CHG  2  19   1  21  -1
M  END
$$$$
