
     RDKit          3D

 63 67  0  0  0  0  0  0  0  0999 V2000
   -3.6044   -2.5926    2.9663 O   0  0  0  0  0  0  0  0  0  0  0  0
   -2.7262   -2.2544    2.1816 C   0  0  0  0  0  0  0  0  0  0  0  0
   -2.9356   -2.0588    0.8315 N   0  0  0  0  0  0  0  0  0  0  0  0
   -4.2782   -2.0779    0.2709 C   0  0  0  0  0  0  0  0  0  0  0  0
   -4.2855   -2.6972   -1.1328 C   0  0  0  0  0  0  0  0  0  0  0  0
   -3.7433   -1.8000   -2.2561 C   0  0  0  0  0  0  0  0  0  0  0  0
   -3.5430   -0.3262   -1.8985 C   0  0  0  0  0  0  0  0  0  0  0  0
   -4.5057    0.1691   -0.8550 C   0  0  0  0  0  0  0  0  0  0  0  0
   -5.0012    1.4774   -0.8932 C   0  0  0  0  0  0  0  0  0  0  0  0
   -5.8366    1.9407    0.1239 C   0  0  0  0  0  0  0  0  0  0  0  0
   -6.1672    1.1086    1.1920 C   0  0  0  0  0  0  0  0  0  0  0  0
   -5.6679   -0.1928    1.2450 C   0  0  0  0  0  0  0  0  0  0  0  0
   -4.8432   -0.6739    0.2200 C   0  0  0  0  0  0  0  0  0  0  0  0
   -1.3453   -1.9928    2.6800 C   0  0  0  0  0  0  0  0  0  0  0  0
   -1.1749   -1.6714    4.0351 C   0  0  0  0  0  0  0  0  0  0  0  0
    0.0988   -1.4213    4.5536 C   0  0  0  0  0  0  0  0  0  0  0  0
    1.2149   -1.4887    3.7216 C   0  0  0  0  0  0  0  0  0  0  0  0
    1.0437   -1.8111    2.3727 C   0  0  0  0  0  0  0  0  0  0  0  0
    2.4461   -1.9122    1.2895 S   0  0  0  0  0  6  0  0  0  0  0  0
    2.3240   -3.1504    0.5513 O   0  0  0  0  0  0  0  0  0  0  0  0
    3.6398   -1.5880    2.0409 O   0  0  0  0  0  0  0  0  0  0  0  0
    2.1575   -0.6220    0.2102 N   0  0  0  0  0  0  0  0  0  0  0  0
    2.2785    0.7522    0.8088 C   0  0  0  0  0  0  0  0  0  0  0  0
    3.5963    1.4499    0.4246 C   0  0  0  0  0  0  0  0  0  0  0  0
    3.6869    1.6076   -1.0354 N   0  0  0  0  0  0  0  0  0  0  0  0
    4.5377    2.5369   -1.6146 C   0  0  0  0  0  0  0  0  0  0  0  0
    5.5823    3.1445   -0.8989 C   0  0  0  0  0  0  0  0  0  0  0  0
    6.4351    4.0898   -1.4863 C   0  0  0  0  0  0  0  0  0  0  0  0
    6.2568    4.4603   -2.8128 C   0  0  0  0  0  0  0  0  0  0  0  0
    5.2317    3.8807   -3.5508 C   0  0  0  0  0  0  0  0  0  0  0  0
    4.3871    2.9355   -2.9545 C   0  0  0  0  0  0  0  0  0  0  0  0
    3.0379    0.5644   -1.8485 C   0  0  0  0  0  0  0  0  0  0  0  0
    2.9285   -0.7622   -1.0734 C   0  0  0  0  0  0  0  0  0  0  0  0
   -0.2260   -2.0783    1.8465 C   0  0  0  0  0  0  0  0  0  0  0  0
   -2.2543   -1.5140    0.3268 H   0  0  0  0  0  0  0  0  0  0  0  0
   -4.9172   -2.7043    0.9072 H   0  0  0  0  0  0  0  0  0  0  0  0
   -3.7368   -3.6496   -1.1357 H   0  0  0  0  0  0  0  0  0  0  0  0
   -5.3266   -2.9464   -1.3871 H   0  0  0  0  0  0  0  0  0  0  0  0
   -2.7926   -2.2050   -2.6279 H   0  0  0  0  0  0  0  0  0  0  0  0
   -4.4368   -1.8661   -3.1054 H   0  0  0  0  0  0  0  0  0  0  0  0
   -3.6195    0.2713   -2.8136 H   0  0  0  0  0  0  0  0  0  0  0  0
   -2.5260   -0.1767   -1.5154 H   0  0  0  0  0  0  0  0  0  0  0  0
   -4.7352    2.1442   -1.7084 H   0  0  0  0  0  0  0  0  0  0  0  0
   -6.2242    2.9563    0.0898 H   0  0  0  0  0  0  0  0  0  0  0  0
   -6.8104    1.4764    1.9876 H   0  0  0  0  0  0  0  0  0  0  0  0
   -5.9188   -0.8290    2.0910 H   0  0  0  0  0  0  0  0  0  0  0  0
   -2.0415   -1.6195    4.6932 H   0  0  0  0  0  0  0  0  0  0  0  0
    0.2154   -1.1789    5.6078 H   0  0  0  0  0  0  0  0  0  0  0  0
    2.2049   -1.2999    4.1320 H   0  0  0  0  0  0  0  0  0  0  0  0
    1.4248    1.3375    0.4400 H   0  0  0  0  0  0  0  0  0  0  0  0
    2.1815    0.7245    1.8994 H   0  0  0  0  0  0  0  0  0  0  0  0
    3.6082    2.4299    0.9171 H   0  0  0  0  0  0  0  0  0  0  0  0
    4.4532    0.8703    0.7857 H   0  0  0  0  0  0  0  0  0  0  0  0
    5.7746    2.8760    0.1362 H   0  0  0  0  0  0  0  0  0  0  0  0
    7.2387    4.5286   -0.9026 H   0  0  0  0  0  0  0  0  0  0  0  0
    6.9118    5.1959   -3.2723 H   0  0  0  0  0  0  0  0  0  0  0  0
    5.0740    4.1684   -4.5859 H   0  0  0  0  0  0  0  0  0  0  0  0
    3.5772    2.5360   -3.5569 H   0  0  0  0  0  0  0  0  0  0  0  0
    2.0381    0.9095   -2.1357 H   0  0  0  0  0  0  0  0  0  0  0  0
    3.6042    0.3599   -2.7652 H   0  0  0  0  0  0  0  0  0  0  0  0
    3.9389   -1.1322   -0.8597 H   0  0  0  0  0  0  0  0  0  0  0  0
    2.4157   -1.4990   -1.7015 H   0  0  0  0  0  0  0  0  0  0  0  0
   -0.3206   -2.3756    0.8044 H   0  0  0  0  0  0  0  0  0  0  0  0
  1  2  2  0
  2  3  1  0
  3  4  1  0
  4  5  1  0
  5  6  1  0
  6  7  1  0
  7  8  1  0
  8  9  2  0
  9 10  1  0
 10 11  2  0
 11 12  1  0
 12 13  2  0
  2 14  1  0
 14 15  2  0
 15 16  1  0
 16 17  2  0
 17 18  1  0
 18 19  1  0
 19 20  2  0
 19 21  2  0
 19 22  1  0
 22 23  1  0
 23 24  1  0
 24 25  1  0
 25 26  1  0
 26 27  2  0
 27 28  1  0
 28 29  2  0
 29 30  1  0
 30 31  2  0
 25 32  1  0
 32 33  1  0
 18 34  2  0
 13  4  1  0
 34 14  1  0
 13  8  1  0
 33 22  1  0
 31 26  1  0
  3 35  1  0
  4 36  1  0
  5 37  1  0
  5 38  1  0
  6 39  1  0
  6 40  1  0
  7 41  1  0
  7 42  1  0
  9 43  1  0
 10 44  1  0
 11 45  1  0
 12 46  1  0
 15 47  1  0
 16 48  1  0
 17 49  1  0
 23 50  1  0
 23 51  1  0
 24 52  1  0
 24 53  1  0
 27 54  1  0
 28 55  1  0
 29 56  1  0
 30 57  1  0
 31 58  1  0
 32 59  1  0
 32 60  1  0
 33 61  1  0
 33 62  1  0
 34 63  1  0
M  END
$$$$
