
     RDKit          3D

 48 51  0  0  0  0  0  0  0  0999 V2000
    6.6419   -1.4220    2.5977 O   0  0  0  0  0  0  0  0  0  0  0  0
    5.5380   -0.6012    2.1485 S   0  0  0  0  0  6  0  0  0  0  0  0
    5.4723    0.8095    2.4624 O   0  0  0  0  0  0  0  0  0  0  0  0
    4.1306   -1.3657    2.6752 N   0  0  0  0  0  0  0  0  0  0  0  0
    2.8731   -0.9620    2.1520 C   0  0  0  0  0  0  0  0  0  0  0  0
    2.3829    0.3217    2.3695 C   0  0  0  0  0  0  0  0  0  0  0  0
    1.1576    0.7105    1.8138 C   0  0  0  0  0  0  0  0  0  0  0  0
    0.3964   -0.1711    1.0241 C   0  0  0  0  0  0  0  0  0  0  0  0
   -0.8957    0.2203    0.4256 C   0  0  0  0  0  0  0  0  0  0  0  0
   -1.2488    1.5225    0.1077 C   0  0  0  0  0  0  0  0  0  0  0  0
   -2.5011    1.7795   -0.4596 C   0  0  0  0  0  0  0  0  0  0  0  0
   -3.3942    0.7435   -0.7018 C   0  0  0  0  0  0  0  0  0  0  0  0
   -4.6352    0.9794   -1.2877 N   0  0  0  0  0  0  0  0  0  0  0  0
   -5.4196   -0.2230   -1.6209 C   0  0  0  0  0  0  0  0  0  0  0  0
   -6.7398    0.2001   -2.2839 C   0  0  0  0  0  0  0  0  0  0  0  0
   -7.5694    1.0303   -1.4546 O   0  0  0  0  0  0  0  0  0  0  0  0
   -6.8447    1.7008   -0.4151 C   0  0  0  0  0  0  0  0  0  0  0  0
   -5.4288    2.1353   -0.8320 C   0  0  0  0  0  0  0  0  0  0  0  0
   -3.0026   -0.5119   -0.4052 N   0  0  0  0  0  0  0  0  0  0  0  0
   -1.7643   -0.7766    0.1640 N   0  0  0  0  0  0  0  0  0  0  0  0
    0.9149   -1.4672    0.8314 C   0  0  0  0  0  0  0  0  0  0  0  0
    2.1374   -1.8616    1.3873 C   0  0  0  0  0  0  0  0  0  0  0  0
    5.4436   -0.7721    0.3789 C   0  0  0  0  0  0  0  0  0  0  0  0
    4.9947    0.2966   -0.4020 C   0  0  0  0  0  0  0  0  0  0  0  0
    4.9294    0.1531   -1.7891 C   0  0  0  0  0  0  0  0  0  0  0  0
    5.3206   -1.0477   -2.3924 C   0  0  0  0  0  0  0  0  0  0  0  0
    5.2069   -1.1549   -4.1126 Cl  0  0  0  0  0  0  0  0  0  0  0  0
    5.7862   -2.1081   -1.6029 C   0  0  0  0  0  0  0  0  0  0  0  0
    6.2870   -3.6159   -2.2813 Cl  0  0  0  0  0  0  0  0  0  0  0  0
    5.8545   -1.9697   -0.2141 C   0  0  0  0  0  0  0  0  0  0  0  0
    4.2731   -2.3535    2.8801 H   0  0  0  0  0  0  0  0  0  0  0  0
    2.9354    1.0283    2.9852 H   0  0  0  0  0  0  0  0  0  0  0  0
    0.8004    1.7149    2.0313 H   0  0  0  0  0  0  0  0  0  0  0  0
   -0.5649    2.3490    0.2653 H   0  0  0  0  0  0  0  0  0  0  0  0
   -2.7518    2.7980   -0.7368 H   0  0  0  0  0  0  0  0  0  0  0  0
   -5.6388   -0.7973   -0.7116 H   0  0  0  0  0  0  0  0  0  0  0  0
   -4.8620   -0.8616   -2.3163 H   0  0  0  0  0  0  0  0  0  0  0  0
   -7.3267   -0.6828   -2.5563 H   0  0  0  0  0  0  0  0  0  0  0  0
   -6.5389    0.7582   -3.2059 H   0  0  0  0  0  0  0  0  0  0  0  0
   -6.8009    1.0310    0.4520 H   0  0  0  0  0  0  0  0  0  0  0  0
   -7.4319    2.5759   -0.1185 H   0  0  0  0  0  0  0  0  0  0  0  0
   -4.9689    2.6562    0.0154 H   0  0  0  0  0  0  0  0  0  0  0  0
   -5.4973    2.8419   -1.6672 H   0  0  0  0  0  0  0  0  0  0  0  0
    0.3598   -2.1905    0.2332 H   0  0  0  0  0  0  0  0  0  0  0  0
    2.4973   -2.8703    1.2053 H   0  0  0  0  0  0  0  0  0  0  0  0
    4.6916    1.2355    0.0579 H   0  0  0  0  0  0  0  0  0  0  0  0
    4.5734    0.9824   -2.3968 H   0  0  0  0  0  0  0  0  0  0  0  0
    6.2273   -2.7881    0.3983 H   0  0  0  0  0  0  0  0  0  0  0  0
  1  2  2  0
  2  3  2  0
  2  4  1  0
  4  5  1  0
  5  6  2  0
  6  7  1  0
  7  8  2  0
  8  9  1  0
  9 10  2  0
 10 11  1  0
 11 12  2  0
 12 13  1  0
 13 14  1  0
 14 15  1  0
 15 16  1  0
 16 17  1  0
 17 18  1  0
 12 19  1  0
 19 20  2  0
  8 21  1  0
 21 22  2  0
  2 23  1  0
 23 24  2  0
 24 25  1  0
 25 26  2  0
 26 27  1  0
 26 28  1  0
 28 29  1  0
 28 30  2  0
 22  5  1  0
 30 23  1  0
 20  9  1  0
 18 13  1  0
  4 31  1  0
  6 32  1  0
  7 33  1  0
 10 34  1  0
 11 35  1  0
 14 36  1  0
 14 37  1  0
 15 38  1  0
 15 39  1  0
 17 40  1  0
 17 41  1  0
 18 42  1  0
 18 43  1  0
 21 44  1  0
 22 45  1  0
 24 46  1  0
 25 47  1  0
 30 48  1  0
M  END
$$$$
