
     RDKit          3D

 57 60  0  0  0  0  0  0  0  0999 V2000
   -1.5075   -0.2819   -1.5540 O   0  0  0  0  0  0  0  0  0  0  0  0
   -1.4754    0.3869   -0.5307 C   0  0  0  0  0  0  0  0  0  0  0  0
   -2.2509    1.4768   -0.1957 N   0  0  0  0  0  0  0  0  0  0  0  0
   -3.2942    2.0639   -0.9495 C   0  0  0  0  0  0  0  0  0  0  0  0
   -3.6838    1.5983   -2.2082 C   0  0  0  0  0  0  0  0  0  0  0  0
   -4.7251    2.2208   -2.9059 C   0  0  0  0  0  0  0  0  0  0  0  0
   -5.3877    3.3159   -2.3559 C   0  0  0  0  0  0  0  0  0  0  0  0
   -5.0119    3.7930   -1.1026 C   0  0  0  0  0  0  0  0  0  0  0  0
   -3.9739    3.1700   -0.4048 C   0  0  0  0  0  0  0  0  0  0  0  0
   -3.5511    3.7937    1.1552 Cl  0  0  0  0  0  0  0  0  0  0  0  0
   -0.4724    0.0494    0.4980 C   0  0  0  0  0  0  0  0  0  0  0  0
    0.6608    0.8797    0.5279 C   0  0  0  0  0  0  0  0  0  0  0  0
    1.7038    0.5921    1.4074 C   0  0  0  0  0  0  0  0  0  0  0  0
    3.1317    1.6543    1.4555 S   0  0  0  0  0  6  0  0  0  0  0  0
    3.7501    1.4843    2.7531 O   0  0  0  0  0  0  0  0  0  0  0  0
    2.7023    2.9595    0.9994 O   0  0  0  0  0  0  0  0  0  0  0  0
    4.1589    0.9793    0.2773 N   0  0  0  0  0  0  0  0  0  0  0  0
    4.7373   -0.3512    0.5851 C   0  0  0  0  0  0  0  0  0  0  0  0
    5.9541   -0.5930   -0.3051 C   0  0  0  0  0  0  0  0  0  0  0  0
    5.5975   -0.4555   -1.7826 C   0  0  0  0  0  0  0  0  0  0  0  0
    4.9296    0.8895   -2.0533 C   0  0  0  0  0  0  0  0  0  0  0  0
    3.7280    1.1061   -1.1367 C   0  0  0  0  0  0  0  0  0  0  0  0
    1.6094   -0.4880    2.2813 C   0  0  0  0  0  0  0  0  0  0  0  0
    0.4765   -1.3057    2.2402 C   0  0  0  0  0  0  0  0  0  0  0  0
   -0.5934   -1.0635    1.3532 C   0  0  0  0  0  0  0  0  0  0  0  0
   -1.6582   -1.9706    1.4261 N   0  0  0  0  0  0  0  0  0  0  0  0
   -1.4965   -3.1235    0.5073 C   0  0  0  0  0  0  0  0  0  0  0  0
   -2.5235   -4.2099    0.8767 C   0  0  0  0  0  0  0  0  0  0  0  0
   -3.8709   -3.7067    0.8620 O   0  0  0  0  0  0  0  0  0  0  0  0
   -4.0035   -2.5964    1.7677 C   0  0  0  0  0  0  0  0  0  0  0  0
   -3.0427   -1.4556    1.3901 C   0  0  0  0  0  0  0  0  0  0  0  0
   -2.0750    1.9180    0.7032 H   0  0  0  0  0  0  0  0  0  0  0  0
   -3.1968    0.7495   -2.6786 H   0  0  0  0  0  0  0  0  0  0  0  0
   -5.0150    1.8451   -3.8848 H   0  0  0  0  0  0  0  0  0  0  0  0
   -6.1945    3.7960   -2.9041 H   0  0  0  0  0  0  0  0  0  0  0  0
   -5.5287    4.6479   -0.6753 H   0  0  0  0  0  0  0  0  0  0  0  0
    0.7308    1.7297   -0.1490 H   0  0  0  0  0  0  0  0  0  0  0  0
    3.9887   -1.1340    0.4195 H   0  0  0  0  0  0  0  0  0  0  0  0
    5.0604   -0.3999    1.6295 H   0  0  0  0  0  0  0  0  0  0  0  0
    6.7401    0.1307   -0.0550 H   0  0  0  0  0  0  0  0  0  0  0  0
    6.3618   -1.5917   -0.1135 H   0  0  0  0  0  0  0  0  0  0  0  0
    6.5006   -0.5534   -2.3951 H   0  0  0  0  0  0  0  0  0  0  0  0
    4.9200   -1.2676   -2.0738 H   0  0  0  0  0  0  0  0  0  0  0  0
    5.6597    1.6936   -1.8965 H   0  0  0  0  0  0  0  0  0  0  0  0
    4.6117    0.9416   -3.1006 H   0  0  0  0  0  0  0  0  0  0  0  0
    2.9487    0.3685   -1.3597 H   0  0  0  0  0  0  0  0  0  0  0  0
    3.3232    2.1046   -1.3291 H   0  0  0  0  0  0  0  0  0  0  0  0
    2.4017   -0.7023    2.9955 H   0  0  0  0  0  0  0  0  0  0  0  0
    0.4114   -2.1484    2.9280 H   0  0  0  0  0  0  0  0  0  0  0  0
   -0.4887   -3.5493    0.5794 H   0  0  0  0  0  0  0  0  0  0  0  0
   -1.6634   -2.8004   -0.5273 H   0  0  0  0  0  0  0  0  0  0  0  0
   -2.3142   -4.6214    1.8716 H   0  0  0  0  0  0  0  0  0  0  0  0
   -2.4692   -5.0326    0.1569 H   0  0  0  0  0  0  0  0  0  0  0  0
   -5.0386   -2.2457    1.7111 H   0  0  0  0  0  0  0  0  0  0  0  0
   -3.8209   -2.9474    2.7905 H   0  0  0  0  0  0  0  0  0  0  0  0
   -3.3072   -1.1173    0.3839 H   0  0  0  0  0  0  0  0  0  0  0  0
   -3.1639   -0.6257    2.0949 H   0  0  0  0  0  0  0  0  0  0  0  0
  1  2  2  0
  2  3  1  0
  3  4  1  0
  4  5  2  0
  5  6  1  0
  6  7  2  0
  7  8  1  0
  8  9  2  0
  9 10  1  0
  2 11  1  0
 11 12  2  0
 12 13  1  0
 13 14  1  0
 14 15  2  0
 14 16  2  0
 14 17  1  0
 17 18  1  0
 18 19  1  0
 19 20  1  0
 20 21  1  0
 21 22  1  0
 13 23  2  0
 23 24  1  0
 24 25  2  0
 25 26  1  0
 26 27  1  0
 27 28  1  0
 28 29  1  0
 29 30  1  0
 30 31  1  0
  9  4  1  0
 25 11  1  0
 31 26  1  0
 22 17  1  0
  3 32  1  0
  5 33  1  0
  6 34  1  0
  7 35  1  0
  8 36  1  0
 12 37  1  0
 18 38  1  0
 18 39  1  0
 19 40  1  0
 19 41  1  0
 20 42  1  0
 20 43  1  0
 21 44  1  0
 21 45  1  0
 22 46  1  0
 22 47  1  0
 23 48  1  0
 24 49  1  0
 27 50  1  0
 27 51  1  0
 28 52  1  0
 28 53  1  0
 30 54  1  0
 30 55  1  0
 31 56  1  0
 31 57  1  0
M  END
$$$$
