
     RDKit          3D

 38 39  0  0  0  0  0  0  0  0999 V2000
   -3.4742    2.2644    2.1977 C   0  0  0  0  0  0  0  0  0  0  0  0
   -3.8246    1.7697    0.9098 O   0  0  0  0  0  0  0  0  0  0  0  0
   -2.8403    1.1893    0.1543 C   0  0  0  0  0  0  0  0  0  0  0  0
   -1.5552    0.9032    0.6451 C   0  0  0  0  0  0  0  0  0  0  0  0
   -0.5673    0.3358   -0.1765 C   0  0  0  0  0  0  0  0  0  0  0  0
    0.7941    0.0602    0.3052 C   0  0  0  0  0  0  0  0  0  0  0  0
    1.0697   -0.4102    1.5315 C   0  0  0  0  0  0  0  0  0  0  0  0
    2.4458   -0.6525    2.0389 C   0  0  0  0  0  0  0  0  0  0  0  0
    2.6795   -0.4989    3.2342 O   0  0  0  0  0  0  0  0  0  0  0  0
    3.5256   -1.0802    1.1173 C   0  0  0  0  0  0  0  0  0  0  0  0
    4.8142   -0.5725    1.3218 C   0  0  0  0  0  0  0  0  0  0  0  0
    5.8582   -0.9642    0.4828 C   0  0  0  0  0  0  0  0  0  0  0  0
    5.6147   -1.8722   -0.5423 C   0  0  0  0  0  0  0  0  0  0  0  0
    6.6653   -2.2287   -1.3342 O   0  0  0  0  0  0  0  0  0  0  0  0
    4.3434   -2.4035   -0.7424 C   0  0  0  0  0  0  0  0  0  0  0  0
    3.2948   -2.0108    0.0943 C   0  0  0  0  0  0  0  0  0  0  0  0
   -0.8666    0.0844   -1.5161 C   0  0  0  0  0  0  0  0  0  0  0  0
   -2.1417    0.3542   -2.0120 C   0  0  0  0  0  0  0  0  0  0  0  0
   -3.1387    0.8839   -1.1844 C   0  0  0  0  0  0  0  0  0  0  0  0
   -4.3241    1.0861   -1.8420 O   0  0  0  0  0  0  0  0  0  0  0  0
   -5.5228    1.0746   -1.0629 C   0  0  0  0  0  0  0  0  0  0  0  0
   -6.6752    0.8058   -1.9421 C   0  0  0  0  0  0  0  0  0  0  0  0
   -7.5898    0.5929   -2.6272 N   0  0  0  0  0  0  0  0  0  0  0  0
   -2.6661    3.0009    2.1349 H   0  0  0  0  0  0  0  0  0  0  0  0
   -3.2154    1.4444    2.8752 H   0  0  0  0  0  0  0  0  0  0  0  0
   -4.3530    2.7697    2.6099 H   0  0  0  0  0  0  0  0  0  0  0  0
   -1.2964    1.1319    1.6738 H   0  0  0  0  0  0  0  0  0  0  0  0
    1.5883    0.2689   -0.4082 H   0  0  0  0  0  0  0  0  0  0  0  0
    0.2970   -0.5835    2.2736 H   0  0  0  0  0  0  0  0  0  0  0  0
    5.0067    0.1264    2.1331 H   0  0  0  0  0  0  0  0  0  0  0  0
    6.8594   -0.5690    0.6337 H   0  0  0  0  0  0  0  0  0  0  0  0
    6.3649   -2.8896   -1.9794 H   0  0  0  0  0  0  0  0  0  0  0  0
    4.1532   -3.1250   -1.5319 H   0  0  0  0  0  0  0  0  0  0  0  0
    2.3108   -2.4499   -0.0493 H   0  0  0  0  0  0  0  0  0  0  0  0
   -0.1180   -0.3300   -2.1874 H   0  0  0  0  0  0  0  0  0  0  0  0
   -2.3647    0.1449   -3.0564 H   0  0  0  0  0  0  0  0  0  0  0  0
   -5.6660    2.0567   -0.5999 H   0  0  0  0  0  0  0  0  0  0  0  0
   -5.4855    0.2924   -0.2951 H   0  0  0  0  0  0  0  0  0  0  0  0
  1  2  1  0
  2  3  1  0
  3  4  2  0
  4  5  1  0
  5  6  1  0
  6  7  2  3
  7  8  1  0
  8  9  2  0
  8 10  1  0
 10 11  2  0
 11 12  1  0
 12 13  2  0
 13 14  1  0
 13 15  1  0
 15 16  2  0
  5 17  2  0
 17 18  1  0
 18 19  2  0
 19 20  1  0
 20 21  1  0
 21 22  1  0
 22 23  3  0
 19  3  1  0
 16 10  1  0
  1 24  1  0
  1 25  1  0
  1 26  1  0
  4 27  1  0
  6 28  1  0
  7 29  1  0
 11 30  1  0
 12 31  1  0
 14 32  1  0
 15 33  1  0
 16 34  1  0
 17 35  1  0
 18 36  1  0
 21 37  1  0
 21 38  1  0
M  END
$$$$
