
     RDKit          3D

 62 65  0  0  0  0  0  0  0  0999 V2000
    2.6709   -0.3416    0.1165 C   0  0  0  0  0  0  0  0  0  0  0  0
    1.7398    0.6627    0.7446 C   0  0  0  0  0  0  0  0  0  0  0  0
    2.3276    1.8936    1.0968 C   0  0  0  0  0  0  0  0  0  0  0  0
    1.5823    2.9280    1.6568 C   0  0  0  0  0  0  0  0  0  0  0  0
    2.2661    4.0827    1.9094 O   0  0  0  0  0  0  0  0  0  0  0  0
    0.2237    2.7709    1.9244 C   0  0  0  0  0  0  0  0  0  0  0  0
   -0.6130    3.8495    2.5979 C   0  0  0  0  0  0  0  0  0  0  0  0
   -1.5701    4.5007    1.5974 C   0  0  0  0  0  0  0  0  0  0  0  0
   -1.3749    3.3248    3.8216 C   0  0  0  0  0  0  0  0  0  0  0  0
   -0.3689    1.5481    1.5496 C   0  0  0  0  0  0  0  0  0  0  0  0
    0.3510    0.4779    0.9514 C   0  0  0  0  0  0  0  0  0  0  0  0
   -0.4144   -0.8389    0.6035 C   0  0  0  0  0  0  0  0  0  0  0  0
   -0.1972   -1.3433   -0.8464 C   0  0  0  0  0  0  0  0  0  0  0  0
   -0.1519   -0.3388   -1.8580 C   0  0  0  0  0  0  0  0  0  0  0  0
    0.0685   -0.6055   -3.2220 C   0  0  0  0  0  0  0  0  0  0  0  0
    0.1287    0.5631   -4.1936 C   0  0  0  0  0  0  0  0  0  0  0  0
    1.5289    0.7436   -4.7837 C   0  0  0  0  0  0  0  0  0  0  0  0
   -0.9338    0.4773   -5.2924 C   0  0  0  0  0  0  0  0  0  0  0  0
    0.2292   -1.9354   -3.5940 C   0  0  0  0  0  0  0  0  0  0  0  0
    0.4758   -2.2512   -4.8993 O   0  0  0  0  0  0  0  0  0  0  0  0
    0.1301   -2.9557   -2.6488 C   0  0  0  0  0  0  0  0  0  0  0  0
   -0.1108   -2.6871   -1.2819 C   0  0  0  0  0  0  0  0  0  0  0  0
   -0.2570   -3.8960   -0.3959 C   0  0  0  0  0  0  0  0  0  0  0  0
   -1.8594   -0.5632    0.5925 O   0  0  0  0  0  0  0  0  0  0  0  0
   -2.5501   -1.2507    1.5411 C   0  0  0  0  0  0  0  0  0  0  0  0
   -3.7493   -1.2182    1.7384 O   0  0  0  0  0  0  0  0  0  0  0  0
   -1.5705   -2.0062    2.2990 C   0  0  0  0  0  0  0  0  0  0  0  0
   -1.8044   -2.8130    3.4032 C   0  0  0  0  0  0  0  0  0  0  0  0
   -0.7042   -3.4185    4.0071 C   0  0  0  0  0  0  0  0  0  0  0  0
    0.5856   -3.1956    3.5040 C   0  0  0  0  0  0  0  0  0  0  0  0
    0.7892   -2.3715    2.3880 C   0  0  0  0  0  0  0  0  0  0  0  0
   -0.3116   -1.7870    1.7677 C   0  0  0  0  0  0  0  0  0  0  0  0
    2.9937    0.0182   -0.8725 H   0  0  0  0  0  0  0  0  0  0  0  0
    3.5598   -0.4705    0.7534 H   0  0  0  0  0  0  0  0  0  0  0  0
    2.2328   -1.3347   -0.0108 H   0  0  0  0  0  0  0  0  0  0  0  0
    3.3900    2.0587    0.9185 H   0  0  0  0  0  0  0  0  0  0  0  0
    1.6541    4.8290    1.8108 H   0  0  0  0  0  0  0  0  0  0  0  0
    0.0463    4.6360    2.9808 H   0  0  0  0  0  0  0  0  0  0  0  0
   -1.0236    4.9126    0.7440 H   0  0  0  0  0  0  0  0  0  0  0  0
   -2.1228    5.3210    2.0661 H   0  0  0  0  0  0  0  0  0  0  0  0
   -2.3000    3.7858    1.2102 H   0  0  0  0  0  0  0  0  0  0  0  0
   -1.8655    4.1495    4.3515 H   0  0  0  0  0  0  0  0  0  0  0  0
   -2.1520    2.6062    3.5497 H   0  0  0  0  0  0  0  0  0  0  0  0
   -0.6910    2.8341    4.5237 H   0  0  0  0  0  0  0  0  0  0  0  0
   -1.4372    1.4316    1.7309 H   0  0  0  0  0  0  0  0  0  0  0  0
   -0.2925    0.7043   -1.5659 H   0  0  0  0  0  0  0  0  0  0  0  0
   -0.0909    1.4819   -3.6336 H   0  0  0  0  0  0  0  0  0  0  0  0
    1.5801    1.6581   -5.3844 H   0  0  0  0  0  0  0  0  0  0  0  0
    1.8167   -0.0906   -5.4295 H   0  0  0  0  0  0  0  0  0  0  0  0
    2.2783    0.8229   -3.9905 H   0  0  0  0  0  0  0  0  0  0  0  0
   -1.9287    0.3087   -4.8650 H   0  0  0  0  0  0  0  0  0  0  0  0
   -0.7333   -0.3302   -6.0005 H   0  0  0  0  0  0  0  0  0  0  0  0
   -0.9682    1.4125   -5.8649 H   0  0  0  0  0  0  0  0  0  0  0  0
    0.5841   -3.2119   -4.9805 H   0  0  0  0  0  0  0  0  0  0  0  0
    0.2277   -3.9907   -2.9755 H   0  0  0  0  0  0  0  0  0  0  0  0
   -1.1604   -3.8283    0.2151 H   0  0  0  0  0  0  0  0  0  0  0  0
   -0.3755   -4.8123   -0.9872 H   0  0  0  0  0  0  0  0  0  0  0  0
    0.6346   -4.0331    0.2200 H   0  0  0  0  0  0  0  0  0  0  0  0
   -2.8101   -2.9541    3.7872 H   0  0  0  0  0  0  0  0  0  0  0  0
   -0.8430   -4.0551    4.8788 H   0  0  0  0  0  0  0  0  0  0  0  0
    1.4397   -3.6616    3.9922 H   0  0  0  0  0  0  0  0  0  0  0  0
    1.8008   -2.2036    2.0333 H   0  0  0  0  0  0  0  0  0  0  0  0
  1  2  1  0
  2  3  2  0
  3  4  1  0
  4  5  1  0
  4  6  2  0
  6  7  1  0
  7  8  1  0
  7  9  1  0
  6 10  1  0
 10 11  2  0
 11 12  1  0
 12 13  1  0
 13 14  2  0
 14 15  1  0
 15 16  1  0
 16 17  1  0
 16 18  1  0
 15 19  2  0
 19 20  1  0
 19 21  1  0
 21 22  2  0
 22 23  1  0
 12 24  1  0
 24 25  1  0
 25 26  2  0
 25 27  1  0
 27 28  2  0
 28 29  1  0
 29 30  2  0
 30 31  1  0
 31 32  2  0
 11  2  1  0
 32 12  1  0
 22 13  1  0
 32 27  1  0
  1 33  1  0
  1 34  1  0
  1 35  1  0
  3 36  1  0
  5 37  1  0
  7 38  1  0
  8 39  1  0
  8 40  1  0
  8 41  1  0
  9 42  1  0
  9 43  1  0
  9 44  1  0
 10 45  1  0
 14 46  1  0
 16 47  1  0
 17 48  1  0
 17 49  1  0
 17 50  1  0
 18 51  1  0
 18 52  1  0
 18 53  1  0
 20 54  1  0
 21 55  1  0
 23 56  1  0
 23 57  1  0
 23 58  1  0
 28 59  1  0
 29 60  1  0
 30 61  1  0
 31 62  1  0
M  END
$$$$
