
     RDKit          3D

 48 50  0  0  0  0  0  0  0  0999 V2000
    7.0102   -1.5732   -0.6433 C   0  0  0  0  0  0  0  0  0  0  0  0
    7.1728   -0.2421    0.0738 C   0  0  0  0  0  0  0  0  0  0  0  0
    6.4509   -0.1839    1.4238 C   0  0  0  0  0  0  0  0  0  0  0  0
    4.9315   -0.3323    1.3374 C   0  0  0  0  0  0  0  0  0  0  0  0
    4.4130    0.6960    0.4953 O   0  0  0  0  0  0  0  0  0  0  0  0
    3.0653    0.6951    0.2706 C   0  0  0  0  0  0  0  0  0  0  0  0
    2.6178    1.6813   -0.6068 C   0  0  0  0  0  0  0  0  0  0  0  0
    1.2593    1.7915   -0.9234 C   0  0  0  0  0  0  0  0  0  0  0  0
    0.3146    0.9069   -0.3827 C   0  0  0  0  0  0  0  0  0  0  0  0
   -1.0461    1.0874   -0.7016 N   0  0  0  0  0  0  0  0  0  0  0  0
   -2.0648    0.1776   -0.5938 C   0  0  0  0  0  0  0  0  0  0  0  0
   -1.9600   -1.0664   -0.2730 N   0  0  0  0  0  0  0  0  0  0  0  0
   -3.0797   -1.8328   -0.2913 C   0  0  0  0  0  0  0  0  0  0  0  0
   -2.8879   -3.1725   -0.2092 N   0  0  0  0  0  0  0  0  0  0  0  0
   -4.2833   -1.3926   -0.4079 N   0  0  0  0  0  0  0  0  0  0  0  0
   -4.4245    0.0507   -0.4557 C   0  0  0  0  0  0  0  0  0  0  0  0
   -5.6163    0.4000   -1.3521 C   0  0  0  0  0  0  0  0  0  0  0  0
   -6.8525    0.1392   -0.4935 C   0  0  0  0  0  0  0  0  0  0  0  0
   -6.3886    0.2181    0.9599 C   0  0  0  0  0  0  0  0  0  0  0  0
   -4.9008    0.5573    0.9124 C   0  0  0  0  0  0  0  0  0  0  0  0
   -3.2547    0.7605   -0.8976 N   0  0  0  0  0  0  0  0  0  0  0  0
    0.7754   -0.0596    0.5172 C   0  0  0  0  0  0  0  0  0  0  0  0
    2.1365   -0.1729    0.8372 C   0  0  0  0  0  0  0  0  0  0  0  0
    5.9733   -1.7390   -0.9499 H   0  0  0  0  0  0  0  0  0  0  0  0
    7.6288   -1.5910   -1.5464 H   0  0  0  0  0  0  0  0  0  0  0  0
    7.3207   -2.4052   -0.0035 H   0  0  0  0  0  0  0  0  0  0  0  0
    6.8247    0.5673   -0.5781 H   0  0  0  0  0  0  0  0  0  0  0  0
    8.2415   -0.0669    0.2462 H   0  0  0  0  0  0  0  0  0  0  0  0
    6.8515   -0.9567    2.0902 H   0  0  0  0  0  0  0  0  0  0  0  0
    6.6814    0.7871    1.8798 H   0  0  0  0  0  0  0  0  0  0  0  0
    4.6749   -1.3215    0.9414 H   0  0  0  0  0  0  0  0  0  0  0  0
    4.5161   -0.2288    2.3472 H   0  0  0  0  0  0  0  0  0  0  0  0
    3.3314    2.3728   -1.0477 H   0  0  0  0  0  0  0  0  0  0  0  0
    0.9520    2.5789   -1.6065 H   0  0  0  0  0  0  0  0  0  0  0  0
   -1.1945    1.7694   -1.4318 H   0  0  0  0  0  0  0  0  0  0  0  0
   -1.9766   -3.4377   -0.5571 H   0  0  0  0  0  0  0  0  0  0  0  0
   -3.6566   -3.6841   -0.6196 H   0  0  0  0  0  0  0  0  0  0  0  0
   -5.6395   -0.1843   -2.2787 H   0  0  0  0  0  0  0  0  0  0  0  0
   -5.5951    1.4606   -1.6361 H   0  0  0  0  0  0  0  0  0  0  0  0
   -7.6425    0.8664   -0.7071 H   0  0  0  0  0  0  0  0  0  0  0  0
   -7.2609   -0.8566   -0.7009 H   0  0  0  0  0  0  0  0  0  0  0  0
   -6.5441   -0.7487    1.4527 H   0  0  0  0  0  0  0  0  0  0  0  0
   -6.9503    0.9674    1.5268 H   0  0  0  0  0  0  0  0  0  0  0  0
   -4.3587    0.1056    1.7504 H   0  0  0  0  0  0  0  0  0  0  0  0
   -4.7790    1.6454    0.9936 H   0  0  0  0  0  0  0  0  0  0  0  0
   -3.2929    1.7518   -0.7008 H   0  0  0  0  0  0  0  0  0  0  0  0
    0.0802   -0.7412    1.0006 H   0  0  0  0  0  0  0  0  0  0  0  0
    2.4264   -0.9469    1.5396 H   0  0  0  0  0  0  0  0  0  0  0  0
  1  2  1  0
  2  3  1  0
  3  4  1  0
  4  5  1  0
  5  6  1  0
  6  7  2  0
  7  8  1  0
  8  9  2  0
  9 10  1  0
 10 11  1  0
 11 12  2  0
 12 13  1  0
 13 14  1  0
 13 15  2  0
 15 16  1  0
 16 17  1  0
 17 18  1  0
 18 19  1  0
 19 20  1  0
 16 21  1  0
  9 22  1  0
 22 23  2  0
 23  6  1  0
 21 11  1  0
 20 16  1  0
  1 24  1  0
  1 25  1  0
  1 26  1  0
  2 27  1  0
  2 28  1  0
  3 29  1  0
  3 30  1  0
  4 31  1  0
  4 32  1  0
  7 33  1  0
  8 34  1  0
 10 35  1  0
 14 36  1  0
 14 37  1  0
 17 38  1  0
 17 39  1  0
 18 40  1  0
 18 41  1  0
 19 42  1  0
 19 43  1  0
 20 44  1  0
 20 45  1  0
 21 46  1  0
 22 47  1  0
 23 48  1  0
M  END
$$$$
