
     RDKit          3D

 48 50  0  0  0  0  0  0  0  0999 V2000
   -5.8905   -2.5623    1.6542 C   0  0  0  0  0  0  0  0  0  0  0  0
   -4.3981   -2.4030    1.3925 C   0  0  0  0  0  0  0  0  0  0  0  0
   -4.0949   -1.5375    0.1509 C   0  0  0  0  0  0  0  0  0  0  0  0
   -2.6708   -1.5370   -0.1479 N   0  0  0  0  0  0  0  0  0  0  0  0
   -2.0601   -2.6050   -0.7817 C   0  0  0  0  0  0  0  0  0  0  0  0
   -2.7013   -3.5855   -1.1523 O   0  0  0  0  0  0  0  0  0  0  0  0
   -0.6068   -2.4770   -0.9664 C   0  0  0  0  0  0  0  0  0  0  0  0
    0.2388   -1.3599   -0.7229 C   0  0  0  0  0  0  0  0  0  0  0  0
    1.5012   -1.7890   -1.0559 C   0  0  0  0  0  0  0  0  0  0  0  0
    2.8499   -1.1769   -1.0577 C   0  0  0  0  0  0  0  0  0  0  0  0
    2.7435    0.0585   -0.3546 O   0  0  0  0  0  0  0  0  0  0  0  0
    3.8543    0.8549   -0.2790 C   0  0  0  0  0  0  0  0  0  0  0  0
    5.1199    0.5042   -0.7562 C   0  0  0  0  0  0  0  0  0  0  0  0
    6.2002    1.3894   -0.6285 C   0  0  0  0  0  0  0  0  0  0  0  0
    6.0280    2.6337   -0.0229 C   0  0  0  0  0  0  0  0  0  0  0  0
    6.9966    3.5804    0.1597 O   0  0  0  0  0  0  0  0  0  0  0  0
    8.3044    3.2668   -0.3040 C   0  0  0  0  0  0  0  0  0  0  0  0
    4.7678    2.9875    0.4580 C   0  0  0  0  0  0  0  0  0  0  0  0
    3.6907    2.1068    0.3338 C   0  0  0  0  0  0  0  0  0  0  0  0
    2.1542    2.6067    0.9545 Cl  0  0  0  0  0  0  0  0  0  0  0  0
    1.4293   -3.0750   -1.4843 O   0  0  0  0  0  0  0  0  0  0  0  0
    0.1213   -3.5070   -1.4341 N   0  0  0  0  0  0  0  0  0  0  0  0
   -4.5633   -0.0987    0.2745 C   0  0  0  0  0  0  0  0  0  0  0  0
   -5.3012    0.4849   -0.7628 C   0  0  0  0  0  0  0  0  0  0  0  0
   -5.7038    1.8060   -0.6385 C   0  0  0  0  0  0  0  0  0  0  0  0
   -5.4194    2.5800    0.4294 N   0  0  0  0  0  0  0  0  0  0  0  0
   -4.7003    2.0080    1.4170 C   0  0  0  0  0  0  0  0  0  0  0  0
   -4.2518    0.6958    1.3853 C   0  0  0  0  0  0  0  0  0  0  0  0
   -6.3965   -2.9938    0.7847 H   0  0  0  0  0  0  0  0  0  0  0  0
   -6.3635   -1.6045    1.8881 H   0  0  0  0  0  0  0  0  0  0  0  0
   -6.0538   -3.2300    2.5054 H   0  0  0  0  0  0  0  0  0  0  0  0
   -3.9712   -3.4041    1.2540 H   0  0  0  0  0  0  0  0  0  0  0  0
   -3.9128   -1.9946    2.2868 H   0  0  0  0  0  0  0  0  0  0  0  0
   -4.6049   -2.0028   -0.7037 H   0  0  0  0  0  0  0  0  0  0  0  0
   -2.1113   -0.7834    0.2211 H   0  0  0  0  0  0  0  0  0  0  0  0
   -0.0184   -0.3755   -0.3620 H   0  0  0  0  0  0  0  0  0  0  0  0
    3.5542   -1.8433   -0.5462 H   0  0  0  0  0  0  0  0  0  0  0  0
    3.1655   -1.0057   -2.0931 H   0  0  0  0  0  0  0  0  0  0  0  0
    5.3110   -0.4521   -1.2327 H   0  0  0  0  0  0  0  0  0  0  0  0
    7.1653    1.0719   -1.0126 H   0  0  0  0  0  0  0  0  0  0  0  0
    8.3124    3.1146   -1.3884 H   0  0  0  0  0  0  0  0  0  0  0  0
    8.9513    4.1213   -0.0826 H   0  0  0  0  0  0  0  0  0  0  0  0
    8.7099    2.3957    0.2220 H   0  0  0  0  0  0  0  0  0  0  0  0
    4.6300    3.9556    0.9338 H   0  0  0  0  0  0  0  0  0  0  0  0
   -5.5636   -0.0743   -1.6561 H   0  0  0  0  0  0  0  0  0  0  0  0
   -6.2836    2.2901   -1.4201 H   0  0  0  0  0  0  0  0  0  0  0  0
   -4.4843    2.6530    2.2644 H   0  0  0  0  0  0  0  0  0  0  0  0
   -3.6737    0.3124    2.2191 H   0  0  0  0  0  0  0  0  0  0  0  0
  1  2  1  0
  2  3  1  0
  3  4  1  0
  4  5  1  0
  5  6  2  0
  5  7  1  0
  7  8  1  0
  8  9  2  0
  9 10  1  0
 10 11  1  0
 11 12  1  0
 12 13  2  0
 13 14  1  0
 14 15  2  0
 15 16  1  0
 16 17  1  0
 15 18  1  0
 18 19  2  0
 19 20  1  0
  9 21  1  0
 21 22  1  0
  3 23  1  0
 23 24  2  0
 24 25  1  0
 25 26  2  0
 26 27  1  0
 27 28  2  0
 22  7  2  0
 28 23  1  0
 19 12  1  0
  1 29  1  0
  1 30  1  0
  1 31  1  0
  2 32  1  0
  2 33  1  0
  3 34  1  0
  4 35  1  0
  8 36  1  0
 10 37  1  0
 10 38  1  0
 13 39  1  0
 14 40  1  0
 17 41  1  0
 17 42  1  0
 17 43  1  0
 18 44  1  0
 24 45  1  0
 25 46  1  0
 27 47  1  0
 28 48  1  0
M  END
$$$$
