
     RDKit          3D

 53 58  0  0  0  0  0  0  0  0999 V2000
    7.2942    2.1503   -1.5531 C   0  0  0  0  0  0  0  0  0  0  0  0
    6.3785    1.3009   -0.6900 C   0  0  0  0  0  0  0  0  0  0  0  0
    5.0339    1.6981   -0.9522 O   0  0  0  0  0  0  0  0  0  0  0  0
    4.0471    1.0339   -0.2783 C   0  0  0  0  0  0  0  0  0  0  0  0
    2.7498    1.4352   -0.5968 C   0  0  0  0  0  0  0  0  0  0  0  0
    1.6431    0.8388    0.0159 C   0  0  0  0  0  0  0  0  0  0  0  0
    1.8110   -0.1733    0.9720 C   0  0  0  0  0  0  0  0  0  0  0  0
    0.6380   -0.8574    1.6686 C   0  0  0  0  0  0  0  0  0  0  0  0
   -0.1403    0.0971    2.4821 N   0  0  0  0  0  0  0  0  0  0  0  0
   -1.1820    0.7647    1.8136 C   0  0  0  0  0  0  0  0  0  0  0  0
   -1.6213    1.9915    2.3116 C   0  0  0  0  0  0  0  0  0  0  0  0
   -2.5865    2.7233    1.6288 C   0  0  0  0  0  0  0  0  0  0  0  0
   -3.0969    2.2658    0.4104 C   0  0  0  0  0  0  0  0  0  0  0  0
   -3.9899    3.0761   -0.3113 C   0  0  0  0  0  0  0  0  0  0  0  0
   -4.4668    2.6856   -1.5597 C   0  0  0  0  0  0  0  0  0  0  0  0
   -4.0421    1.4859   -2.1086 C   0  0  0  0  0  0  0  0  0  0  0  0
   -3.1654    0.6657   -1.3933 C   0  0  0  0  0  0  0  0  0  0  0  0
   -2.6971    1.0026   -0.0974 C   0  0  0  0  0  0  0  0  0  0  0  0
   -1.8249    0.1887    0.6937 C   0  0  0  0  0  0  0  0  0  0  0  0
   -1.4924   -1.2433    0.3905 C   0  0  0  0  0  0  0  0  0  0  0  0
   -0.2633   -1.6557    0.7679 C   0  0  0  0  0  0  0  0  0  0  0  0
    0.2773   -2.9851    0.4035 C   0  0  0  0  0  0  0  0  0  0  0  0
    1.3526   -3.3931    0.8306 O   0  0  0  0  0  0  0  0  0  0  0  0
   -0.4548   -3.7311   -0.5036 O   0  0  0  0  0  0  0  0  0  0  0  0
   -1.8235   -3.4698   -0.6391 C   0  0  0  0  0  0  0  0  0  0  0  0
   -2.5961   -4.4851   -1.2060 C   0  0  0  0  0  0  0  0  0  0  0  0
   -3.9791   -4.3436   -1.2530 C   0  0  0  0  0  0  0  0  0  0  0  0
   -4.5726   -3.2046   -0.7137 C   0  0  0  0  0  0  0  0  0  0  0  0
   -3.7803   -2.1931   -0.1577 C   0  0  0  0  0  0  0  0  0  0  0  0
   -2.3817   -2.2890   -0.1573 C   0  0  0  0  0  0  0  0  0  0  0  0
    3.1234   -0.5711    1.2815 C   0  0  0  0  0  0  0  0  0  0  0  0
    4.2302    0.0253    0.6641 C   0  0  0  0  0  0  0  0  0  0  0  0
    7.1595    3.2135   -1.3278 H   0  0  0  0  0  0  0  0  0  0  0  0
    7.0574    2.0168   -2.6139 H   0  0  0  0  0  0  0  0  0  0  0  0
    8.3422    1.8844   -1.3888 H   0  0  0  0  0  0  0  0  0  0  0  0
    6.5214    0.2452   -0.9485 H   0  0  0  0  0  0  0  0  0  0  0  0
    6.6254    1.4677    0.3648 H   0  0  0  0  0  0  0  0  0  0  0  0
    2.5957    2.2200   -1.3338 H   0  0  0  0  0  0  0  0  0  0  0  0
    0.6533    1.1828   -0.2708 H   0  0  0  0  0  0  0  0  0  0  0  0
    1.0523   -1.5429    2.4202 H   0  0  0  0  0  0  0  0  0  0  0  0
    0.4684    0.7394    2.9827 H   0  0  0  0  0  0  0  0  0  0  0  0
   -1.1943    2.3995    3.2239 H   0  0  0  0  0  0  0  0  0  0  0  0
   -2.8961    3.6842    2.0345 H   0  0  0  0  0  0  0  0  0  0  0  0
   -4.3094    4.0362    0.0897 H   0  0  0  0  0  0  0  0  0  0  0  0
   -5.1492    3.3284   -2.1091 H   0  0  0  0  0  0  0  0  0  0  0  0
   -4.3825    1.1848   -3.0960 H   0  0  0  0  0  0  0  0  0  0  0  0
   -2.8281   -0.2445   -1.8837 H   0  0  0  0  0  0  0  0  0  0  0  0
   -2.1239   -5.3893   -1.5798 H   0  0  0  0  0  0  0  0  0  0  0  0
   -4.5947   -5.1300   -1.6818 H   0  0  0  0  0  0  0  0  0  0  0  0
   -5.6553   -3.1017   -0.7171 H   0  0  0  0  0  0  0  0  0  0  0  0
   -4.2805   -1.3319    0.2802 H   0  0  0  0  0  0  0  0  0  0  0  0
    3.2984   -1.3687    2.0029 H   0  0  0  0  0  0  0  0  0  0  0  0
    5.2176   -0.3282    0.9411 H   0  0  0  0  0  0  0  0  0  0  0  0
  1  2  1  0
  2  3  1  0
  3  4  1  0
  4  5  2  0
  5  6  1  0
  6  7  2  0
  7  8  1  0
  8  9  1  0
  9 10  1  0
 10 11  2  0
 11 12  1  0
 12 13  2  0
 13 14  1  0
 14 15  2  0
 15 16  1  0
 16 17  2  0
 17 18  1  0
 18 19  2  0
 19 20  1  0
 20 21  2  0
 21 22  1  0
 22 23  2  0
 22 24  1  0
 24 25  1  0
 25 26  2  0
 26 27  1  0
 27 28  2  0
 28 29  1  0
 29 30  2  0
  7 31  1  0
 31 32  2  0
 32  4  1  0
 21  8  1  0
 30 25  1  0
 19 10  1  0
 30 20  1  0
 18 13  1  0
  1 33  1  0
  1 34  1  0
  1 35  1  0
  2 36  1  0
  2 37  1  0
  5 38  1  0
  6 39  1  0
  8 40  1  0
  9 41  1  0
 11 42  1  0
 12 43  1  0
 14 44  1  0
 15 45  1  0
 16 46  1  0
 17 47  1  0
 26 48  1  0
 27 49  1  0
 28 50  1  0
 29 51  1  0
 31 52  1  0
 32 53  1  0
M  END
$$$$
