
     RDKit          3D

 60 62  0  0  0  0  0  0  0  0999 V2000
    5.2023    1.2566   -5.7671 C   0  0  0  0  0  0  0  0  0  0  0  0
    3.9214    0.7520   -5.4098 O   0  0  0  0  0  0  0  0  0  0  0  0
    3.6681    0.5976   -4.0748 C   0  0  0  0  0  0  0  0  0  0  0  0
    4.5751    0.8167   -3.0364 C   0  0  0  0  0  0  0  0  0  0  0  0
    4.1836    0.6158   -1.7088 C   0  0  0  0  0  0  0  0  0  0  0  0
    2.8788    0.2089   -1.4199 C   0  0  0  0  0  0  0  0  0  0  0  0
    2.5085   -0.0106   -0.0051 C   0  0  0  0  0  0  0  0  0  0  0  0
    3.1574   -0.8383    0.6343 O   0  0  0  0  0  0  0  0  0  0  0  0
    1.3541    0.7303    0.6175 C   0  0  0  0  0  0  0  0  0  0  0  0
    0.7661    1.8471   -0.1821 C   0  0  0  0  0  0  0  0  0  0  0  0
    1.3410    2.8559   -0.5475 O   0  0  0  0  0  0  0  0  0  0  0  0
   -0.6724    1.5137   -0.5481 C   0  0  0  0  0  0  0  0  0  0  0  0
   -1.3707    2.1697   -1.2906 O   0  0  0  0  0  0  0  0  0  0  0  0
   -0.9630    0.3208    0.0662 N   0  0  0  0  0  0  0  0  0  0  0  0
   -2.1952   -0.4208   -0.1757 C   0  0  0  0  0  0  0  0  0  0  0  0
   -2.1238   -1.2624   -1.4655 C   0  0  0  0  0  0  0  0  0  0  0  0
   -3.2770   -2.1601   -1.6585 N   0  0  0  0  0  0  0  0  0  0  0  0
   -4.5135   -1.4113   -1.9023 C   0  0  0  0  0  0  0  0  0  0  0  0
   -3.0237   -3.0652   -2.7840 C   0  0  0  0  0  0  0  0  0  0  0  0
    0.1641   -0.2290    0.8097 C   0  0  0  0  0  0  0  0  0  0  0  0
   -0.1681   -0.4677    2.2739 C   0  0  0  0  0  0  0  0  0  0  0  0
   -0.0415   -1.7665    2.7914 C   0  0  0  0  0  0  0  0  0  0  0  0
   -0.3268   -2.0297    4.1294 C   0  0  0  0  0  0  0  0  0  0  0  0
   -0.7277   -0.9989    4.9801 C   0  0  0  0  0  0  0  0  0  0  0  0
   -0.8524    0.3080    4.5007 C   0  0  0  0  0  0  0  0  0  0  0  0
   -1.1942    1.3832    5.2781 O   0  0  0  0  0  0  0  0  0  0  0  0
   -1.3239    1.1729    6.6776 C   0  0  0  0  0  0  0  0  0  0  0  0
   -0.5976    0.5619    3.1373 C   0  0  0  0  0  0  0  0  0  0  0  0
   -0.6689    1.8266    2.5990 O   0  0  0  0  0  0  0  0  0  0  0  0
   -1.9597    2.4229    2.7444 C   0  0  0  0  0  0  0  0  0  0  0  0
    1.9719   -0.0359   -2.4521 C   0  0  0  0  0  0  0  0  0  0  0  0
    2.3714    0.1666   -3.7750 C   0  0  0  0  0  0  0  0  0  0  0  0
    5.3711    2.2495   -5.3371 H   0  0  0  0  0  0  0  0  0  0  0  0
    5.9948    0.5591   -5.4767 H   0  0  0  0  0  0  0  0  0  0  0  0
    5.2299    1.3567   -6.8564 H   0  0  0  0  0  0  0  0  0  0  0  0
    5.5939    1.1396   -3.2241 H   0  0  0  0  0  0  0  0  0  0  0  0
    4.8984    0.7796   -0.9050 H   0  0  0  0  0  0  0  0  0  0  0  0
    1.7176    1.1594    1.5587 H   0  0  0  0  0  0  0  0  0  0  0  0
   -3.0027    0.3151   -0.2584 H   0  0  0  0  0  0  0  0  0  0  0  0
   -2.4045   -1.0524    0.6938 H   0  0  0  0  0  0  0  0  0  0  0  0
   -1.9920   -0.6016   -2.3330 H   0  0  0  0  0  0  0  0  0  0  0  0
   -1.2138   -1.8739   -1.4053 H   0  0  0  0  0  0  0  0  0  0  0  0
   -5.3500   -2.0980   -2.0765 H   0  0  0  0  0  0  0  0  0  0  0  0
   -4.7923   -0.8135   -1.0289 H   0  0  0  0  0  0  0  0  0  0  0  0
   -4.4301   -0.7463   -2.7695 H   0  0  0  0  0  0  0  0  0  0  0  0
   -2.8791   -2.5237   -3.7260 H   0  0  0  0  0  0  0  0  0  0  0  0
   -2.1331   -3.6746   -2.5950 H   0  0  0  0  0  0  0  0  0  0  0  0
   -3.8574   -3.7648   -2.9117 H   0  0  0  0  0  0  0  0  0  0  0  0
    0.3822   -1.1966    0.3381 H   0  0  0  0  0  0  0  0  0  0  0  0
    0.2887   -2.5878    2.1573 H   0  0  0  0  0  0  0  0  0  0  0  0
   -0.2233   -3.0415    4.5157 H   0  0  0  0  0  0  0  0  0  0  0  0
   -0.9249   -1.2505    6.0170 H   0  0  0  0  0  0  0  0  0  0  0  0
   -2.1623    0.5040    6.8981 H   0  0  0  0  0  0  0  0  0  0  0  0
   -1.5403    2.1400    7.1414 H   0  0  0  0  0  0  0  0  0  0  0  0
   -0.3913    0.7974    7.1114 H   0  0  0  0  0  0  0  0  0  0  0  0
   -1.9794    3.0707    3.6253 H   0  0  0  0  0  0  0  0  0  0  0  0
   -2.1328    3.0538    1.8673 H   0  0  0  0  0  0  0  0  0  0  0  0
   -2.7673    1.6829    2.7880 H   0  0  0  0  0  0  0  0  0  0  0  0
    0.9679   -0.3982   -2.2593 H   0  0  0  0  0  0  0  0  0  0  0  0
    1.6687   -0.0150   -4.5857 H   0  0  0  0  0  0  0  0  0  0  0  0
  1  2  1  0
  2  3  1  0
  3  4  2  0
  4  5  1  0
  5  6  2  0
  6  7  1  0
  7  8  2  0
  7  9  1  0
  9 10  1  0
 10 11  2  0
 10 12  1  0
 12 13  2  0
 12 14  1  0
 14 15  1  0
 15 16  1  0
 16 17  1  0
 17 18  1  0
 17 19  1  0
 14 20  1  0
 20 21  1  0
 21 22  2  0
 22 23  1  0
 23 24  2  0
 24 25  1  0
 25 26  1  0
 26 27  1  0
 25 28  2  0
 28 29  1  0
 29 30  1  0
  6 31  1  0
 31 32  2  0
 32  3  1  0
 20  9  1  0
 28 21  1  0
  1 33  1  0
  1 34  1  0
  1 35  1  0
  4 36  1  0
  5 37  1  0
  9 38  1  0
 15 39  1  0
 15 40  1  0
 16 41  1  0
 16 42  1  0
 18 43  1  0
 18 44  1  0
 18 45  1  0
 19 46  1  0
 19 47  1  0
 19 48  1  0
 20 49  1  0
 22 50  1  0
 23 51  1  0
 24 52  1  0
 27 53  1  0
 27 54  1  0
 27 55  1  0
 30 56  1  0
 30 57  1  0
 30 58  1  0
 31 59  1  0
 32 60  1  0
M  END
$$$$
